=
 OpenBabel11062421323D

 55 59  0  0  1  0  0  0  0  0999 V2000
  189.8140  172.9750  142.2640 C   0  0  0  0  0  2  0  0  0  0  0  0
  190.7220  173.2520  141.0650 C   0  0  2  0  0  3  0  0  0  0  0  0
  194.2900  176.8400  145.7490 C   0  0  0  0  0  2  0  0  0  0  0  0
  193.5620  170.4610  141.6530 C   0  0  2  0  0  3  0  0  0  0  0  0
  191.8070  172.1990  140.7970 C   0  0  2  0  0  0  0  0  0  0  0  0
  197.0350  176.4840  143.3770 O   0  0  0  0  0  0  0  0  0  0  0  0
  195.0700  175.1470  143.5590 C   0  0  0  0  0  0  0  0  0  0  0  0
  194.5760  171.5930  141.3730 C   0  0  1  0  0  3  0  0  0  0  0  0
  192.0420  170.8850  141.6280 C   0  0  2  0  0  0  0  0  0  0  0  0
  195.4530  172.6780  143.2900 C   0  0  2  0  0  3  0  0  0  0  0  0
  193.8080  175.1030  144.0140 C   0  0  0  0  0  3  0  0  0  0  0  0
  192.8950  169.4030  145.0580 F   0  0  0  0  0  0  0  0  0  0  0  0
  192.1660  173.5080  141.4960 C   0  0  1  0  0  3  0  0  0  0  0  0
  192.0720  175.7140  145.7140 C   0  0  0  0  0  2  0  0  0  0  0  0
  193.8730  169.6130  142.8950 C   0  0  0  0  0  2  0  0  0  0  0  0
  195.6050  174.0650  142.6700 C   0  0  0  0  0  2  0  0  0  0  0  0
  196.4200  172.5160  144.4480 C   0  0  0  0  0  1  0  0  0  0  0  0
  192.7850  174.5370  140.5620 C   0  0  0  0  0  1  0  0  0  0  0  0
  191.4820  170.9770  142.9390 O   0  0  0  0  0  0  0  0  0  0  0  0
  190.7740  175.5890  144.9190 C   0  0  1  0  0  3  0  0  0  0  0  0
  195.7040  171.6330  142.3050 N   0  0  0  0  0  2  0  0  0  0  0  0
  193.4410  170.3210  144.1810 C   0  0  1  0  0  3  0  0  0  0  0  0
  192.4290  171.4280  143.8850 C   0  0  0  0  0  2  0  0  0  0  0  0
  195.4730  177.1820  144.9650 N   0  0  0  0  0  2  0  0  0  0  0  0
  190.7650  174.2710  144.1630 C   0  0  0  0  0  2  0  0  0  0  0  0
  192.1710  172.1400  139.4460 O   0  0  0  0  0  1  0  0  0  0  0  0
  195.9250  176.2860  143.9400 C   0  0  0  0  0  0  0  0  0  0  0  0
  189.6470  174.2140  143.1350 C   0  0  0  0  0  2  0  0  0  0  0  0
  193.2220  176.2200  144.8480 C   0  0  1  0  0  3  0  0  0  0  0  0
  192.0870  168.9150  140.1720 F   0  0  0  0  0  0  0  0  0  0  0  0
  191.2600  169.7410  140.9420 C   0  0  0  0  0  3  0  0  0  0  0  0
  190.5120  168.9690  141.8420 F   0  0  0  0  0  0  0  0  0  0  0  0
  195.7250  172.4770  139.3870 C   0  0  0  0  0  3  0  0  0  0  0  0
  195.0750  171.4720  139.9710 C   0  0  0  0  0  3  0  0  0  0  0  0
  196.1930  172.3400  137.9700 C   0  0  1  0  0  3  0  0  0  0  0  0
  194.3110  173.7100  137.3650 O   0  0  0  0  0  1  0  0  0  0  0  0
  195.0850  172.7640  137.0530 C   0  0  0  0  0  0  0  0  0  0  0  0
  194.8750  172.0630  135.8670 O   0  0  0  0  0  0  0  0  0  0  0  0
  197.4900  173.1230  137.6910 C   0  0  1  0  0  3  0  0  0  0  0  0
  197.9410  172.8590  136.3920 O   0  0  0  0  0  1  0  0  0  0  0  0
  197.2630  174.6340  137.8430 C   0  0  1  0  0  3  0  0  0  0  0  0
  197.9260  175.1310  138.9770 O   0  0  0  0  0  1  0  0  0  0  0  0
  196.6110  176.0970  135.9420 C   0  0  0  0  0  1  0  0  0  0  0  0
  197.7660  175.3710  136.6090 C   0  0  0  0  0  2  0  0  0  0  0  0
  189.5870  175.6280  145.8750 C   0  0  0  0  0  2  0  0  0  0  0  0
  186.7650  176.7580  145.2010 C   0  0  2  0  0  3  0  0  0  0  0  0
  187.4080  175.9490  147.3770 O   0  0  0  0  0  1  0  0  0  0  0  0
  189.0410  176.9820  145.9760 N   0  0  0  0  0  0  0  0  0  0  0  0
  187.6440  176.9440  146.4200 C   0  0  1  0  0  3  0  0  0  0  0  0
  188.9820  177.5200  144.6190 C   0  0  0  0  0  2  0  0  0  0  0  0
  187.6030  177.2330  144.0370 C   0  0  0  0  0  2  0  0  0  0  0  0
  185.4420  177.5270  145.3150 C   0  0  0  0  0  2  0  0  0  0  0  0
  185.5790  178.8920  145.9810 C   0  0  0  0  0  2  0  0  0  0  0  0
  184.6150  179.4960  144.0930 C   0  0  0  0  0  1  0  0  0  0  0  0
  185.5760  179.8990  145.0170 O   0  0  0  0  0  0  0  0  0  0  0  0
  1 28  1  0  0  0  0
  2 13  1  0  0  0  0
  2  1  1  1  0  0  0
  4 15  1  1  0  0  0
  5 26  1  6  0  0  0
  5  2  1  0  0  0  0
  5 13  1  0  0  0  0
  5  9  1  0  0  0  0
  6 27  2  0  0  0  0
  7 27  1  0  0  0  0
  7 11  2  0  0  0  0
  8 34  1  6  0  0  0
  8  4  1  0  0  0  0
  8 21  1  0  0  0  0
  9 31  1  6  0  0  0
  9  4  1  0  0  0  0
  9 19  1  0  0  0  0
 10 17  1  1  0  0  0
 13 18  1  6  0  0  0
 15 22  1  0  0  0  0
 16 10  1  0  0  0  0
 16  7  1  0  0  0  0
 19 23  1  0  0  0  0
 20 14  1  0  0  0  0
 20 45  1  1  0  0  0
 21 10  1  0  0  0  0
 22 12  1  1  0  0  0
 23 22  1  0  0  0  0
 24  3  1  0  0  0  0
 25 20  1  0  0  0  0
 27 24  1  0  0  0  0
 28 25  1  0  0  0  0
 29 11  1  1  0  0  0
 29 14  1  0  0  0  0
 29  3  1  0  0  0  0
 30 31  1  0  0  0  0
 31 32  1  0  0  0  0
 33 34  2  0  0  0  0
 35 33  1  1  0  0  0
 37 36  1  0  0  0  0
 37 35  1  0  0  0  0
 38 37  2  0  0  0  0
 39 40  1  6  0  0  0
 39 41  1  0  0  0  0
 39 35  1  0  0  0  0
 41 42  1  1  0  0  0
 43 44  1  0  0  0  0
 44 41  1  0  0  0  0
 45 48  1  0  0  0  0
 46 52  1  1  0  0  0
 46 49  1  0  0  0  0
 48 49  1  0  0  0  0
 49 47  1  1  0  0  0
 50 48  1  0  0  0  0
 51 50  1  0  0  0  0
 51 46  1  0  0  0  0
 52 53  1  0  0  0  0
 54 55  1  0  0  0  0
 55 53  1  0  0  0  0
M  END
>  <MODEL>
1

>  <REMARK>
 VINA RESULT:      -6.8      0.000      0.000
  Name = 
  12 active torsions:
  status: ('A' for Active; 'I' for Inactive)
    1  A    between atoms: C_1  and  C_10
    2  A    between atoms: C_10  and  C_44
    3  A    between atoms: C_11  and  C_15
    4  A    between atoms: C_11  and  C_16
    5  A    between atoms: N_12  and  C_14
    6  A    between atoms: C_13  and  C_24
    7  A    between atoms: C_14  and  C_40
    8  A    between atoms: C_16  and  C_27
    9  A    between atoms: C_19  and  C_27
   10  A    between atoms: O_20  and  C_44
   11  A    between atoms: C_23  and  C_35
   12  A    between atoms: C_27  and  C_28
                            x       y       z     vdW  Elec       q    Type
                         _______ _______ _______ _____ _____    ______ ____

>  <TORSDO>
F 12

$$$$
=
 OpenBabel11062421323D

 55 59  0  0  1  0  0  0  0  0999 V2000
  189.6170  172.8260  142.3590 C   0  0  0  0  0  2  0  0  0  0  0  0
  190.4540  173.0830  141.1050 C   0  0  2  0  0  3  0  0  0  0  0  0
  194.3770  176.6050  145.5500 C   0  0  0  0  0  2  0  0  0  0  0  0
  193.2690  170.2370  141.5220 C   0  0  2  0  0  3  0  0  0  0  0  0
  191.4990  172.0090  140.7730 C   0  0  2  0  0  0  0  0  0  0  0  0
  196.9610  176.1920  143.0120 O   0  0  0  0  0  0  0  0  0  0  0  0
  194.9860  174.8950  143.3190 C   0  0  0  0  0  0  0  0  0  0  0  0
  194.2860  171.3490  141.1770 C   0  0  1  0  0  3  0  0  0  0  0  0
  191.7590  170.6920  141.5910 C   0  0  2  0  0  0  0  0  0  0  0  0
  195.3020  172.4190  143.0320 C   0  0  2  0  0  3  0  0  0  0  0  0
  193.7540  174.8760  143.8520 C   0  0  0  0  0  3  0  0  0  0  0  0
  192.7950  169.1970  144.9640 F   0  0  0  0  0  0  0  0  0  0  0  0
  191.9260  173.3120  141.4450 C   0  0  1  0  0  3  0  0  0  0  0  0
  192.1390  175.5230  145.6560 C   0  0  0  0  0  2  0  0  0  0  0  0
  193.6400  169.3850  142.7440 C   0  0  0  0  0  2  0  0  0  0  0  0
  195.4420  173.8010  142.4010 C   0  0  0  0  0  2  0  0  0  0  0  0
  196.3360  172.2390  144.1280 C   0  0  0  0  0  1  0  0  0  0  0  0
  192.5070  174.3270  140.4720 C   0  0  0  0  0  1  0  0  0  0  0  0
  191.2840  170.7970  142.9340 O   0  0  0  0  0  0  0  0  0  0  0  0
  190.7920  175.4230  144.9430 C   0  0  1  0  0  3  0  0  0  0  0  0
  195.4700  171.3680  142.0370 N   0  0  0  0  0  2  0  0  0  0  0  0
  193.3030  170.1030  144.0530 C   0  0  1  0  0  3  0  0  0  0  0  0
  192.2970  171.2290  143.8180 C   0  0  0  0  0  2  0  0  0  0  0  0
  195.5150  176.9230  144.6920 N   0  0  0  0  0  2  0  0  0  0  0  0
  190.7090  174.1050  144.1930 C   0  0  0  0  0  2  0  0  0  0  0  0
  191.7760  171.9420  139.4020 O   0  0  0  0  0  1  0  0  0  0  0  0
  195.8840  176.0170  143.6440 C   0  0  0  0  0  0  0  0  0  0  0  0
  189.5290  174.0690  143.2360 C   0  0  0  0  0  2  0  0  0  0  0  0
  193.2420  176.0060  144.7190 C   0  0  1  0  0  3  0  0  0  0  0  0
  191.5820  168.9180  139.9090 F   0  0  0  0  0  0  0  0  0  0  0  0
  190.9140  169.5620  140.9570 C   0  0  0  0  0  3  0  0  0  0  0  0
  190.4640  168.6210  141.8940 F   0  0  0  0  0  0  0  0  0  0  0  0
  194.6860  170.0300  139.1410 C   0  0  0  0  0  3  0  0  0  0  0  0
  194.6940  171.2160  139.7470 C   0  0  0  0  0  3  0  0  0  0  0  0
  195.1250  169.9190  137.7130 C   0  0  1  0  0  3  0  0  0  0  0  0
  196.7850  168.6110  136.5640 O   0  0  0  0  0  0  0  0  0  0  0  0
  196.3780  169.0980  137.6550 C   0  0  0  0  0  0  0  0  0  0  0  0
  197.0690  168.8230  138.8330 O   0  0  0  0  0  1  0  0  0  0  0  0
  194.0290  169.3430  136.7940 C   0  0  1  0  0  3  0  0  0  0  0  0
  193.5050  168.1690  137.3480 O   0  0  0  0  0  1  0  0  0  0  0  0
  192.8910  170.3530  136.5970 C   0  0  1  0  0  3  0  0  0  0  0  0
  193.0790  171.1010  135.4220 O   0  0  0  0  0  1  0  0  0  0  0  0
  190.4870  170.5860  136.0080 C   0  0  0  0  0  1  0  0  0  0  0  0
  191.5510  169.6330  136.5200 C   0  0  0  0  0  2  0  0  0  0  0  0
  189.6680  175.4870  145.9720 C   0  0  0  0  0  2  0  0  0  0  0  0
  186.8540  176.6770  145.3690 C   0  0  2  0  0  3  0  0  0  0  0  0
  187.5280  175.8350  147.5240 O   0  0  0  0  0  1  0  0  0  0  0  0
  189.1500  176.8500  146.0970 N   0  0  0  0  0  0  0  0  0  0  0  0
  187.7620  176.8350  146.5710 C   0  0  1  0  0  3  0  0  0  0  0  0
  189.0720  177.4020  144.7460 C   0  0  0  0  0  2  0  0  0  0  0  0
  187.6750  177.1460  144.1920 C   0  0  0  0  0  2  0  0  0  0  0  0
  185.5480  177.4690  145.5190 C   0  0  0  0  0  2  0  0  0  0  0  0
  185.6980  178.9600  145.2360 C   0  0  0  0  0  2  0  0  0  0  0  0
  184.3140  178.7100  143.5360 C   0  0  0  0  0  1  0  0  0  0  0  0
  184.5180  179.4650  144.6890 O   0  0  0  0  0  0  0  0  0  0  0  0
  1 28  1  0  0  0  0
  2 13  1  0  0  0  0
  2  1  1  1  0  0  0
  4  9  1  0  0  0  0
  4 15  1  1  0  0  0
  5 26  1  6  0  0  0
  5  2  1  0  0  0  0
  5 13  1  0  0  0  0
  5  9  1  0  0  0  0
  6 27  2  0  0  0  0
  7 27  1  0  0  0  0
  7 11  2  0  0  0  0
  8 34  1  6  0  0  0
  8  4  1  0  0  0  0
  8 21  1  0  0  0  0
  9 31  1  6  0  0  0
  9 19  1  0  0  0  0
 10 17  1  1  0  0  0
 13 18  1  6  0  0  0
 15 22  1  0  0  0  0
 16 10  1  0  0  0  0
 16  7  1  0  0  0  0
 19 23  1  0  0  0  0
 20 14  1  0  0  0  0
 20 45  1  1  0  0  0
 21 10  1  0  0  0  0
 22 12  1  1  0  0  0
 23 22  1  0  0  0  0
 24  3  1  0  0  0  0
 25 20  1  0  0  0  0
 27 24  1  0  0  0  0
 28 25  1  0  0  0  0
 29 11  1  1  0  0  0
 29  3  1  0  0  0  0
 29 14  1  0  0  0  0
 30 31  1  0  0  0  0
 31 32  1  0  0  0  0
 33 34  2  0  0  0  0
 35 33  1  1  0  0  0
 36 37  2  0  0  0  0
 37 35  1  0  0  0  0
 37 38  1  0  0  0  0
 39 40  1  1  0  0  0
 39 35  1  0  0  0  0
 41 42  1  6  0  0  0
 41 39  1  0  0  0  0
 43 44  1  0  0  0  0
 44 41  1  0  0  0  0
 45 48  1  0  0  0  0
 46 52  1  1  0  0  0
 46 49  1  0  0  0  0
 48 49  1  0  0  0  0
 49 47  1  1  0  0  0
 50 48  1  0  0  0  0
 51 50  1  0  0  0  0
 51 46  1  0  0  0  0
 53 52  1  0  0  0  0
 54 55  1  0  0  0  0
 55 53  1  0  0  0  0
M  END
>  <MODEL>
2

>  <REMARK>
 VINA RESULT:      -6.4      1.880      2.678
  Name = 
  12 active torsions:
  status: ('A' for Active; 'I' for Inactive)
    1  A    between atoms: C_1  and  C_10
    2  A    between atoms: C_10  and  C_44
    3  A    between atoms: C_11  and  C_15
    4  A    between atoms: C_11  and  C_16
    5  A    between atoms: N_12  and  C_14
    6  A    between atoms: C_13  and  C_24
    7  A    between atoms: C_14  and  C_40
    8  A    between atoms: C_16  and  C_27
    9  A    between atoms: C_19  and  C_27
   10  A    between atoms: O_20  and  C_44
   11  A    between atoms: C_23  and  C_35
   12  A    between atoms: C_27  and  C_28
                            x       y       z     vdW  Elec       q    Type
                         _______ _______ _______ _____ _____    ______ ____

>  <TORSDO>
F 12

$$$$
=
 OpenBabel11062421323D

 55 59  0  0  1  0  0  0  0  0999 V2000
  192.1930  174.4070  140.6230 C   0  0  0  0  0  2  0  0  0  0  0  0
  191.3340  174.1510  141.8620 C   0  0  2  0  0  3  0  0  0  0  0  0
  196.2150  169.4550  143.1580 C   0  0  0  0  0  2  0  0  0  0  0  0
  193.3200  176.3540  144.5830 C   0  0  2  0  0  3  0  0  0  0  0  0
  191.6340  175.0440  143.0740 C   0  0  2  0  0  0  0  0  0  0  0  0
  194.9920  169.6820  146.5850 O   0  0  0  0  0  0  0  0  0  0  0  0
  194.7480  171.2780  144.8310 C   0  0  0  0  0  0  0  0  0  0  0  0
  193.1940  175.1220  145.5090 C   0  0  1  0  0  3  0  0  0  0  0  0
  192.7160  176.1820  143.1340 C   0  0  2  0  0  0  0  0  0  0  0  0
  195.0670  173.6680  145.5360 C   0  0  2  0  0  3  0  0  0  0  0  0
  194.7590  171.4610  143.5010 C   0  0  0  0  0  3  0  0  0  0  0  0
  196.4410  177.0450  142.8700 F   0  0  0  0  0  0  0  0  0  0  0  0
  192.1660  173.6140  143.0260 C   0  0  1  0  0  3  0  0  0  0  0  0
  195.6480  170.9140  141.2230 C   0  0  0  0  0  2  0  0  0  0  0  0
  194.7250  176.9700  144.5210 C   0  0  0  0  0  2  0  0  0  0  0  0
  194.2950  172.3690  145.7530 C   0  0  0  0  0  2  0  0  0  0  0  0
  196.4890  173.5210  146.0430 C   0  0  0  0  0  1  0  0  0  0  0  0
  191.3230  172.6320  143.8260 C   0  0  0  0  0  1  0  0  0  0  0  0
  193.7290  176.0080  142.1420 O   0  0  0  0  0  0  0  0  0  0  0  0
  194.5030  171.3460  140.3100 C   0  0  1  0  0  3  0  0  0  0  0  0
  194.4250  174.7810  146.2240 N   0  0  0  0  0  2  0  0  0  0  0  0
  195.6460  176.1750  143.5930 C   0  0  1  0  0  3  0  0  0  0  0  0
  194.8380  175.2920  142.6430 C   0  0  0  0  0  2  0  0  0  0  0  0
  195.8200  169.0370  144.5000 N   0  0  0  0  0  2  0  0  0  0  0  0
  194.0360  172.7380  140.7030 C   0  0  0  0  0  2  0  0  0  0  0  0
  190.5130  175.2230  143.8950 O   0  0  0  0  0  1  0  0  0  0  0  0
  195.1810  169.9770  145.3730 C   0  0  0  0  0  0  0  0  0  0  0  0
  192.7230  173.1060  140.0330 C   0  0  0  0  0  2  0  0  0  0  0  0
  195.1370  170.3500  142.5460 C   0  0  1  0  0  3  0  0  0  0  0  0
  190.7610  177.3270  142.2000 F   0  0  0  0  0  0  0  0  0  0  0  0
  192.0260  177.5170  142.7670 C   0  0  0  0  0  3  0  0  0  0  0  0
  191.9420  178.4070  143.8470 F   0  0  0  0  0  0  0  0  0  0  0  0
  191.4510  176.5180  146.5370 C   0  0  0  0  0  3  0  0  0  0  0  0
  192.0830  175.3470  146.4800 C   0  0  0  0  0  3  0  0  0  0  0  0
  190.3570  176.7280  147.5380 C   0  0  1  0  0  3  0  0  0  0  0  0
  191.8480  177.4620  149.2770 O   0  0  0  0  0  1  0  0  0  0  0  0
  190.8290  177.7050  148.5720 C   0  0  0  0  0  0  0  0  0  0  0  0
  190.0960  178.8690  148.7970 O   0  0  0  0  0  0  0  0  0  0  0  0
  189.0340  177.1840  146.8910 C   0  0  1  0  0  3  0  0  0  0  0  0
  189.2780  177.7080  145.6160 O   0  0  0  0  0  1  0  0  0  0  0  0
  188.0500  176.0120  146.7680 C   0  0  1  0  0  3  0  0  0  0  0  0
  188.4900  174.9060  147.5140 O   0  0  0  0  0  1  0  0  0  0  0  0
  185.8080  176.8310  146.0740 C   0  0  0  0  0  1  0  0  0  0  0  0
  186.6690  176.4270  147.2570 C   0  0  0  0  0  2  0  0  0  0  0  0
  194.9890  171.3700  138.8640 C   0  0  0  0  0  2  0  0  0  0  0  0
  196.6050  172.2240  136.3430 C   0  0  2  0  0  3  0  0  0  0  0  0
  194.6940  173.4230  137.1900 O   0  0  0  0  0  1  0  0  0  0  0  0
  196.1300  172.2720  138.7110 N   0  0  0  0  0  0  0  0  0  0  0  0
  196.0140  173.0460  137.4700 C   0  0  1  0  0  3  0  0  0  0  0  0
  197.3130  171.4360  138.5140 C   0  0  0  0  0  2  0  0  0  0  0  0
  197.5320  171.2420  137.0190 C   0  0  0  0  0  2  0  0  0  0  0  0
  197.3330  173.0930  135.3090 C   0  0  0  0  0  2  0  0  0  0  0  0
  197.7920  174.4420  135.8540 C   0  0  0  0  0  2  0  0  0  0  0  0
  196.8470  176.4250  135.6660 C   0  0  0  0  0  1  0  0  0  0  0  0
  197.5180  175.4500  134.9310 O   0  0  0  0  0  0  0  0  0  0  0  0
  2  1  1  6  0  0  0
  2 13  1  0  0  0  0
  2  5  1  0  0  0  0
  3 24  1  0  0  0  0
  4 15  1  6  0  0  0
  4  8  1  0  0  0  0
  5  9  1  0  0  0  0
  5 26  1  1  0  0  0
  7 27  1  0  0  0  0
  7 16  1  0  0  0  0
  8 21  1  0  0  0  0
  8 34  1  1  0  0  0
  9 31  1  6  0  0  0
  9  4  1  0  0  0  0
 10 16  1  0  0  0  0
 10 17  1  1  0  0  0
 10 21  1  0  0  0  0
 11  7  2  0  0  0  0
 13  5  1  0  0  0  0
 13 18  1  1  0  0  0
 19 23  1  0  0  0  0
 19  9  1  0  0  0  0
 20 45  1  6  0  0  0
 20 25  1  0  0  0  0
 20 14  1  0  0  0  0
 22 12  1  6  0  0  0
 22 15  1  0  0  0  0
 23 22  1  0  0  0  0
 24 27  1  0  0  0  0
 27  6  2  0  0  0  0
 28  1  1  0  0  0  0
 28 25  1  0  0  0  0
 29 14  1  6  0  0  0
 29  3  1  0  0  0  0
 29 11  1  0  0  0  0
 30 31  1  0  0  0  0
 31 32  1  0  0  0  0
 34 33  2  0  0  0  0
 35 33  1  6  0  0  0
 35 37  1  0  0  0  0
 37 38  2  0  0  0  0
 37 36  1  0  0  0  0
 39 40  1  6  0  0  0
 39 35  1  0  0  0  0
 41 39  1  0  0  0  0
 41 44  1  0  0  0  0
 41 42  1  1  0  0  0
 43 44  1  0  0  0  0
 46 52  1  6  0  0  0
 46 51  1  0  0  0  0
 46 49  1  0  0  0  0
 48 45  1  0  0  0  0
 49 47  1  6  0  0  0
 49 48  1  0  0  0  0
 50 48  1  0  0  0  0
 51 50  1  0  0  0  0
 52 53  1  0  0  0  0
 55 54  1  0  0  0  0
 55 53  1  0  0  0  0
M  END
>  <MODEL>
3

>  <REMARK>
 VINA RESULT:      -6.1      2.999      9.790
  Name = 
  12 active torsions:
  status: ('A' for Active; 'I' for Inactive)
    1  A    between atoms: C_1  and  C_10
    2  A    between atoms: C_10  and  C_44
    3  A    between atoms: C_11  and  C_15
    4  A    between atoms: C_11  and  C_16
    5  A    between atoms: N_12  and  C_14
    6  A    between atoms: C_13  and  C_24
    7  A    between atoms: C_14  and  C_40
    8  A    between atoms: C_16  and  C_27
    9  A    between atoms: C_19  and  C_27
   10  A    between atoms: O_20  and  C_44
   11  A    between atoms: C_23  and  C_35
   12  A    between atoms: C_27  and  C_28
                            x       y       z     vdW  Elec       q    Type
                         _______ _______ _______ _____ _____    ______ ____

>  <TORSDO>
F 12

$$$$
=
 OpenBabel11062421323D

 55 59  0  0  1  0  0  0  0  0999 V2000
  189.9750  173.1320  141.4700 C   0  0  0  0  0  2  0  0  0  0  0  0
  190.8910  173.5880  140.3340 C   0  0  2  0  0  3  0  0  0  0  0  0
  195.2550  174.7610  145.5430 C   0  0  0  0  0  2  0  0  0  0  0  0
  193.0850  170.2560  139.7980 C   0  0  2  0  0  3  0  0  0  0  0  0
  191.7210  172.4820  139.6660 C   0  0  2  0  0  0  0  0  0  0  0  0
  197.8020  174.6390  142.9380 O   0  0  0  0  0  0  0  0  0  0  0  0
  195.6030  173.7210  142.8840 C   0  0  0  0  0  0  0  0  0  0  0  0
  194.3100  171.1990  139.7830 C   0  0  1  0  0  3  0  0  0  0  0  0
  191.6900  170.9550  140.0390 C   0  0  2  0  0  0  0  0  0  0  0  0
  195.4450  171.4370  141.8510 C   0  0  2  0  0  3  0  0  0  0  0  0
  194.3720  173.7840  143.4160 C   0  0  0  0  0  3  0  0  0  0  0  0
  192.2920  168.3370  142.7720 F   0  0  0  0  0  0  0  0  0  0  0  0
  192.3670  173.4100  140.6920 C   0  0  1  0  0  3  0  0  0  0  0  0
  192.8470  174.1580  145.3690 C   0  0  0  0  0  2  0  0  0  0  0  0
  193.2390  169.0190  140.6940 C   0  0  0  0  0  2  0  0  0  0  0  0
  195.8730  172.8900  141.6660 C   0  0  0  0  0  2  0  0  0  0  0  0
  196.3830  170.7350  142.8150 C   0  0  0  0  0  1  0  0  0  0  0  0
  193.1680  174.5380  140.0600 C   0  0  0  0  0  1  0  0  0  0  0  0
  191.1950  170.7390  141.3610 O   0  0  0  0  0  0  0  0  0  0  0  0
  191.5340  174.5430  144.6930 C   0  0  1  0  0  3  0  0  0  0  0  0
  195.4430  170.7250  140.5790 N   0  0  0  0  0  2  0  0  0  0  0  0
  192.9990  169.3590  142.1670 C   0  0  1  0  0  3  0  0  0  0  0  0
  192.2390  170.6770  142.3100 C   0  0  0  0  0  2  0  0  0  0  0  0
  196.4640  175.0940  144.7960 N   0  0  0  0  0  2  0  0  0  0  0  0
  191.2250  173.5560  143.5790 C   0  0  0  0  0  2  0  0  0  0  0  0
  192.0300  172.7800  138.3330 O   0  0  0  0  0  1  0  0  0  0  0  0
  196.6890  174.4950  143.5130 C   0  0  0  0  0  0  0  0  0  0  0  0
  190.0970  174.0430  142.6860 C   0  0  0  0  0  2  0  0  0  0  0  0
  194.0570  174.6750  144.5970 C   0  0  1  0  0  3  0  0  0  0  0  0
  191.2130  169.9190  137.8690 F   0  0  0  0  0  0  0  0  0  0  0  0
  190.6660  170.2580  139.1120 C   0  0  0  0  0  3  0  0  0  0  0  0
  190.0700  169.1330  139.6990 F   0  0  0  0  0  0  0  0  0  0  0  0
  195.5530  172.4330  138.0570 C   0  0  0  0  0  3  0  0  0  0  0  0
  194.7370  171.4280  138.3710 C   0  0  0  0  0  3  0  0  0  0  0  0
  195.9470  172.6570  136.6300 C   0  0  1  0  0  3  0  0  0  0  0  0
  196.1210  174.5880  135.2050 O   0  0  0  0  0  0  0  0  0  0  0  0
  196.0370  174.1330  136.3800 C   0  0  0  0  0  0  0  0  0  0  0  0
  196.0880  175.0070  137.4630 O   0  0  0  0  0  1  0  0  0  0  0  0
  197.2560  171.9380  136.2500 C   0  0  1  0  0  3  0  0  0  0  0  0
  197.9400  171.5410  137.4060 O   0  0  0  0  0  1  0  0  0  0  0  0
  196.9730  170.7000  135.3890 C   0  0  1  0  0  3  0  0  0  0  0  0
  197.0370  169.5260  136.1580 O   0  0  0  0  0  1  0  0  0  0  0  0
  194.7970  169.5460  135.0510 C   0  0  0  0  0  1  0  0  0  0  0  0
  195.5940  170.8030  134.7510 C   0  0  0  0  0  2  0  0  0  0  0  0
  190.4060  174.5110  145.7190 C   0  0  0  0  0  2  0  0  0  0  0  0
  187.8870  176.3220  145.9830 C   0  0  2  0  0  3  0  0  0  0  0  0
  188.5640  174.7060  147.6360 O   0  0  0  0  0  1  0  0  0  0  0  0
  190.2240  175.8250  146.3360 N   0  0  0  0  0  0  0  0  0  0  0  0
  188.9220  175.9050  147.0070 C   0  0  1  0  0  3  0  0  0  0  0  0
  190.1380  176.7990  145.2490 C   0  0  0  0  0  2  0  0  0  0  0  0
  188.6720  176.9990  144.8840 C   0  0  0  0  0  2  0  0  0  0  0  0
  186.8140  177.2420  146.5820 C   0  0  0  0  0  2  0  0  0  0  0  0
  185.3880  176.8490  146.2070 C   0  0  0  0  0  2  0  0  0  0  0  0
  185.2890  179.0350  145.9320 C   0  0  0  0  0  1  0  0  0  0  0  0
  184.8130  177.8350  145.4070 O   0  0  0  0  0  0  0  0  0  0  0  0
  1 28  1  0  0  0  0
  2 13  1  0  0  0  0
  2  1  1  1  0  0  0
  4  9  1  0  0  0  0
  4 15  1  1  0  0  0
  5 26  1  6  0  0  0
  5  9  1  0  0  0  0
  5  2  1  0  0  0  0
  5 13  1  0  0  0  0
  6 27  2  0  0  0  0
  7 11  2  0  0  0  0
  7 27  1  0  0  0  0
  8 34  1  6  0  0  0
  8  4  1  0  0  0  0
  8 21  1  0  0  0  0
  9 31  1  6  0  0  0
  9 19  1  0  0  0  0
 10 17  1  1  0  0  0
 13 18  1  6  0  0  0
 15 22  1  0  0  0  0
 16 10  1  0  0  0  0
 16  7  1  0  0  0  0
 19 23  1  0  0  0  0
 20 14  1  0  0  0  0
 20 45  1  1  0  0  0
 21 10  1  0  0  0  0
 22 23  1  0  0  0  0
 22 12  1  6  0  0  0
 24  3  1  0  0  0  0
 25 20  1  0  0  0  0
 27 24  1  0  0  0  0
 28 25  1  0  0  0  0
 29 11  1  6  0  0  0
 29 14  1  0  0  0  0
 29  3  1  0  0  0  0
 30 31  1  0  0  0  0
 31 32  1  0  0  0  0
 33 34  2  0  0  0  0
 35 33  1  1  0  0  0
 36 37  2  0  0  0  0
 37 35  1  0  0  0  0
 37 38  1  0  0  0  0
 39 35  1  0  0  0  0
 39 40  1  1  0  0  0
 41 42  1  1  0  0  0
 41 39  1  0  0  0  0
 44 43  1  0  0  0  0
 44 41  1  0  0  0  0
 45 48  1  0  0  0  0
 46 52  1  1  0  0  0
 46 49  1  0  0  0  0
 48 49  1  0  0  0  0
 49 47  1  6  0  0  0
 50 48  1  0  0  0  0
 51 50  1  0  0  0  0
 51 46  1  0  0  0  0
 53 52  1  0  0  0  0
 55 54  1  0  0  0  0
 55 53  1  0  0  0  0
M  END
>  <MODEL>
4

>  <REMARK>
 VINA RESULT:      -6.0      1.742      2.382
  Name = 
  12 active torsions:
  status: ('A' for Active; 'I' for Inactive)
    1  A    between atoms: C_1  and  C_10
    2  A    between atoms: C_10  and  C_44
    3  A    between atoms: C_11  and  C_15
    4  A    between atoms: C_11  and  C_16
    5  A    between atoms: N_12  and  C_14
    6  A    between atoms: C_13  and  C_24
    7  A    between atoms: C_14  and  C_40
    8  A    between atoms: C_16  and  C_27
    9  A    between atoms: C_19  and  C_27
   10  A    between atoms: O_20  and  C_44
   11  A    between atoms: C_23  and  C_35
   12  A    between atoms: C_27  and  C_28
                            x       y       z     vdW  Elec       q    Type
                         _______ _______ _______ _____ _____    ______ ____

>  <TORSDO>
F 12

$$$$
=
 OpenBabel11062421323D

 55 59  0  0  1  0  0  0  0  0999 V2000
  190.1540  172.7590  141.1540 C   0  0  0  0  0  2  0  0  0  0  0  0
  191.0210  173.1120  139.9450 C   0  0  2  0  0  3  0  0  0  0  0  0
  194.9310  176.1100  144.7700 C   0  0  0  0  0  2  0  0  0  0  0  0
  193.7640  170.1730  140.1440 C   0  0  2  0  0  3  0  0  0  0  0  0
  192.0490  172.0490  139.5320 C   0  0  2  0  0  0  0  0  0  0  0  0
  197.5560  175.8740  142.2510 O   0  0  0  0  0  0  0  0  0  0  0  0
  195.5470  174.6000  142.4000 C   0  0  0  0  0  0  0  0  0  0  0  0
  194.8120  171.2880  139.9220 C   0  0  1  0  0  3  0  0  0  0  0  0
  192.2630  170.6560  140.2280 C   0  0  2  0  0  0  0  0  0  0  0  0
  195.8140  172.1550  141.8880 C   0  0  2  0  0  3  0  0  0  0  0  0
  194.3040  174.5620  142.9070 C   0  0  0  0  0  3  0  0  0  0  0  0
  193.1980  168.8280  143.4640 F   0  0  0  0  0  0  0  0  0  0  0  0
  192.4920  173.2730  140.3310 C   0  0  1  0  0  3  0  0  0  0  0  0
  192.6680  175.0770  144.7330 C   0  0  0  0  0  2  0  0  0  0  0  0
  194.0920  169.2020  141.2870 C   0  0  0  0  0  2  0  0  0  0  0  0
  195.9970  173.5870  141.3910 C   0  0  0  0  0  2  0  0  0  0  0  0
  196.8210  171.8490  142.9810 C   0  0  0  0  0  1  0  0  0  0  0  0
  193.1140  174.3600  139.4680 C   0  0  0  0  0  1  0  0  0  0  0  0
  191.7640  170.6460  141.5660 O   0  0  0  0  0  0  0  0  0  0  0  0
  191.3340  175.0760  143.9900 C   0  0  1  0  0  3  0  0  0  0  0  0
  195.9790  171.1980  140.8020 N   0  0  0  0  0  2  0  0  0  0  0  0
  193.7450  169.8030  142.6510 C   0  0  1  0  0  3  0  0  0  0  0  0
  192.7680  170.9700  142.5040 C   0  0  0  0  0  2  0  0  0  0  0  0
  196.0930  176.4790  143.9660 N   0  0  0  0  0  2  0  0  0  0  0  0
  191.2370  173.8350  143.1180 C   0  0  0  0  0  2  0  0  0  0  0  0
  192.3520  172.1030  138.1660 O   0  0  0  0  0  1  0  0  0  0  0  0
  196.4630  175.6660  142.8440 C   0  0  0  0  0  0  0  0  0  0  0  0
  190.0760  173.9170  142.1420 C   0  0  0  0  0  2  0  0  0  0  0  0
  193.8010  175.6180  143.8660 C   0  0  1  0  0  3  0  0  0  0  0  0
  192.1430  168.9030  138.5190 F   0  0  0  0  0  0  0  0  0  0  0  0
  191.4060  169.6100  139.4760 C   0  0  0  0  0  3  0  0  0  0  0  0
  190.7500  168.7180  140.3350 F   0  0  0  0  0  0  0  0  0  0  0  0
  195.3050  170.1410  137.8040 C   0  0  0  0  0  3  0  0  0  0  0  0
  195.2460  171.2790  138.4940 C   0  0  0  0  0  3  0  0  0  0  0  0
  195.7680  170.1560  136.3790 C   0  0  1  0  0  3  0  0  0  0  0  0
  197.9170  169.6580  135.4210 O   0  0  0  0  0  0  0  0  0  0  0  0
  197.0360  169.3640  136.2760 C   0  0  0  0  0  0  0  0  0  0  0  0
  197.2170  168.2530  137.0980 O   0  0  0  0  0  1  0  0  0  0  0  0
  194.6970  169.6390  135.3980 C   0  0  1  0  0  3  0  0  0  0  0  0
  194.2020  168.4040  135.8320 O   0  0  0  0  0  1  0  0  0  0  0  0
  193.5320  170.6320  135.2840 C   0  0  1  0  0  3  0  0  0  0  0  0
  193.9120  171.7740  134.5590 O   0  0  0  0  0  1  0  0  0  0  0  0
  191.1800  169.8770  135.5640 C   0  0  0  0  0  1  0  0  0  0  0  0
  192.3440  169.9760  134.5940 C   0  0  0  0  0  2  0  0  0  0  0  0
  190.1910  175.0700  145.0000 C   0  0  0  0  0  2  0  0  0  0  0  0
  187.5490  176.5490  145.7280 C   0  0  2  0  0  3  0  0  0  0  0  0
  188.8430  175.2530  147.2930 O   0  0  0  0  0  1  0  0  0  0  0  0
  189.9520  176.4140  145.5260 N   0  0  0  0  0  0  0  0  0  0  0  0
  188.8480  176.4020  146.4930 C   0  0  1  0  0  3  0  0  0  0  0  0
  189.4600  177.2270  144.4150 C   0  0  0  0  0  2  0  0  0  0  0  0
  187.9370  177.1840  144.4130 C   0  0  0  0  0  2  0  0  0  0  0  0
  186.5150  177.3850  146.4930 C   0  0  0  0  0  2  0  0  0  0  0  0
  185.4950  178.0770  145.5930 C   0  0  0  0  0  2  0  0  0  0  0  0
  185.2460  179.8320  144.2810 C   0  0  0  0  0  1  0  0  0  0  0  0
  185.7770  179.4400  145.5080 O   0  0  0  0  0  0  0  0  0  0  0  0
  1 28  1  0  0  0  0
  2 13  1  0  0  0  0
  2  1  1  1  0  0  0
  4  9  1  0  0  0  0
  4 15  1  1  0  0  0
  5 26  1  6  0  0  0
  5  2  1  0  0  0  0
  5  9  1  0  0  0  0
  5 13  1  0  0  0  0
  6 27  2  0  0  0  0
  7 27  1  0  0  0  0
  7 11  2  0  0  0  0
  8 34  1  6  0  0  0
  8  4  1  0  0  0  0
  8 21  1  0  0  0  0
  9 31  1  6  0  0  0
  9 19  1  0  0  0  0
 10 17  1  1  0  0  0
 13 18  1  6  0  0  0
 15 22  1  0  0  0  0
 16 10  1  0  0  0  0
 16  7  1  0  0  0  0
 19 23  1  0  0  0  0
 20 14  1  0  0  0  0
 20 45  1  1  0  0  0
 21 10  1  0  0  0  0
 22 12  1  1  0  0  0
 23 22  1  0  0  0  0
 24  3  1  0  0  0  0
 25 20  1  0  0  0  0
 27 24  1  0  0  0  0
 28 25  1  0  0  0  0
 29 11  1  6  0  0  0
 29 14  1  0  0  0  0
 29  3  1  0  0  0  0
 30 31  1  0  0  0  0
 31 32  1  0  0  0  0
 33 34  2  0  0  0  0
 35 33  1  1  0  0  0
 36 37  2  0  0  0  0
 37 35  1  0  0  0  0
 37 38  1  0  0  0  0
 39 40  1  1  0  0  0
 39 35  1  0  0  0  0
 41 42  1  6  0  0  0
 41 39  1  0  0  0  0
 44 41  1  0  0  0  0
 44 43  1  0  0  0  0
 45 48  1  0  0  0  0
 46 49  1  0  0  0  0
 46 52  1  1  0  0  0
 48 49  1  0  0  0  0
 49 47  1  6  0  0  0
 50 48  1  0  0  0  0
 51 50  1  0  0  0  0
 51 46  1  0  0  0  0
 53 52  1  0  0  0  0
 54 55  1  0  0  0  0
 55 53  1  0  0  0  0
M  END
>  <MODEL>
5

>  <REMARK>
 VINA RESULT:      -5.6      1.949      2.827
  Name = 
  12 active torsions:
  status: ('A' for Active; 'I' for Inactive)
    1  A    between atoms: C_1  and  C_10
    2  A    between atoms: C_10  and  C_44
    3  A    between atoms: C_11  and  C_15
    4  A    between atoms: C_11  and  C_16
    5  A    between atoms: N_12  and  C_14
    6  A    between atoms: C_13  and  C_24
    7  A    between atoms: C_14  and  C_40
    8  A    between atoms: C_16  and  C_27
    9  A    between atoms: C_19  and  C_27
   10  A    between atoms: O_20  and  C_44
   11  A    between atoms: C_23  and  C_35
   12  A    between atoms: C_27  and  C_28
                            x       y       z     vdW  Elec       q    Type
                         _______ _______ _______ _____ _____    ______ ____

>  <TORSDO>
F 12

$$$$
=
 OpenBabel11062421323D

 55 59  0  0  1  0  0  0  0  0999 V2000
  189.6030  172.7430  141.0450 C   0  0  0  0  0  2  0  0  0  0  0  0
  189.3380  172.7450  142.5510 C   0  0  2  0  0  3  0  0  0  0  0  0
  194.6690  168.3720  142.5800 C   0  0  0  0  0  2  0  0  0  0  0  0
  192.0760  175.4350  143.7610 C   0  0  2  0  0  3  0  0  0  0  0  0
  190.0310  173.8610  143.3460 C   0  0  2  0  0  0  0  0  0  0  0  0
  194.9150  169.2880  146.1000 O   0  0  0  0  0  0  0  0  0  0  0  0
  193.8650  170.5020  144.3380 C   0  0  0  0  0  0  0  0  0  0  0  0
  192.4280  174.4140  144.8670 C   0  0  1  0  0  3  0  0  0  0  0  0
  190.9560  174.9810  142.7450 C   0  0  2  0  0  0  0  0  0  0  0  0
  194.2580  172.9830  144.3940 C   0  0  2  0  0  3  0  0  0  0  0  0
  193.3260  170.4150  143.1110 C   0  0  0  0  0  3  0  0  0  0  0  0
  194.1830  175.7490  140.8240 F   0  0  0  0  0  0  0  0  0  0  0  0
  190.6060  172.4460  143.3500 C   0  0  1  0  0  3  0  0  0  0  0  0
  193.2620  169.4170  140.8140 C   0  0  0  0  0  2  0  0  0  0  0  0
  193.2870  176.0170  143.0160 C   0  0  0  0  0  2  0  0  0  0  0  0
  193.7400  171.7590  145.1450 C   0  0  0  0  0  2  0  0  0  0  0  0
  195.7700  172.9310  144.2920 C   0  0  0  0  0  1  0  0  0  0  0  0
  190.2330  171.6510  144.5910 C   0  0  0  0  0  1  0  0  0  0  0  0
  191.4940  174.6050  141.4760 O   0  0  0  0  0  0  0  0  0  0  0  0
  191.8180  169.6660  140.3860 C   0  0  1  0  0  3  0  0  0  0  0  0
  193.8650  174.2160  145.0660 N   0  0  0  0  0  2  0  0  0  0  0  0
  193.8140  175.0470  141.9570 C   0  0  1  0  0  3  0  0  0  0  0  0
  192.7620  173.9970  141.6020 C   0  0  0  0  0  2  0  0  0  0  0  0
  194.8800  168.2330  144.0180 N   0  0  0  0  0  2  0  0  0  0  0  0
  191.4440  171.1110  140.6710 C   0  0  0  0  0  2  0  0  0  0  0  0
  189.3250  174.2080  144.5050 O   0  0  0  0  0  1  0  0  0  0  0  0
  194.5770  169.3330  144.8860 C   0  0  0  0  0  0  0  0  0  0  0  0
  189.9480  171.3470  140.5420 C   0  0  0  0  0  2  0  0  0  0  0  0
  193.3710  169.1330  142.3090 C   0  0  1  0  0  3  0  0  0  0  0  0
  188.7990  175.8740  141.9990 F   0  0  0  0  0  0  0  0  0  0  0  0
  190.0770  176.2200  142.4530 C   0  0  0  0  0  3  0  0  0  0  0  0
  189.9810  177.0960  143.5430 F   0  0  0  0  0  0  0  0  0  0  0  0
  191.4440  176.1070  146.3540 C   0  0  0  0  0  3  0  0  0  0  0  0
  191.7880  174.8370  146.1480 C   0  0  0  0  0  3  0  0  0  0  0  0
  190.8260  176.5100  147.6580 C   0  0  1  0  0  3  0  0  0  0  0  0
  192.9770  177.5360  147.9880 O   0  0  0  0  0  0  0  0  0  0  0  0
  191.7940  177.3810  148.4010 C   0  0  0  0  0  0  0  0  0  0  0  0
  191.3970  177.9790  149.5950 O   0  0  0  0  0  1  0  0  0  0  0  0
  189.4600  177.2020  147.4840 C   0  0  1  0  0  3  0  0  0  0  0  0
  189.5940  178.3310  146.6670 O   0  0  0  0  0  1  0  0  0  0  0  0
  188.4370  176.2480  146.8520 C   0  0  1  0  0  3  0  0  0  0  0  0
  188.2680  175.0980  147.6410 O   0  0  0  0  0  1  0  0  0  0  0  0
  186.6220  176.8200  145.2540 C   0  0  0  0  0  1  0  0  0  0  0  0
  187.0930  176.9440  146.6920 C   0  0  0  0  0  2  0  0  0  0  0  0
  191.6770  169.3960  138.8920 C   0  0  0  0  0  2  0  0  0  0  0  0
  191.3830  169.9510  135.8420 C   0  0  2  0  0  3  0  0  0  0  0  0
  189.5550  170.0340  137.4100 O   0  0  0  0  0  1  0  0  0  0  0  0
  191.7490  170.6420  138.1270 N   0  0  0  0  0  0  0  0  0  0  0  0
  190.7630  170.6390  137.0410 C   0  0  1  0  0  3  0  0  0  0  0  0
  193.0440  170.6520  137.4490 C   0  0  0  0  0  2  0  0  0  0  0  0
  192.8740  170.0530  136.0580 C   0  0  0  0  0  2  0  0  0  0  0  0
  190.9430  170.5870  134.5160 C   0  0  0  0  0  2  0  0  0  0  0  0
  190.1430  171.8750  134.6870 C   0  0  0  0  0  2  0  0  0  0  0  0
  190.1420  174.0730  134.5170 C   0  0  0  0  0  1  0  0  0  0  0  0
  190.9940  172.9780  134.6360 O   0  0  0  0  0  0  0  0  0  0  0  0
  2  1  1  6  0  0  0
  2  5  1  0  0  0  0
  2 13  1  0  0  0  0
  3 24  1  0  0  0  0
  4 15  1  6  0  0  0
  4  8  1  0  0  0  0
  5 13  1  0  0  0  0
  5 26  1  1  0  0  0
  7 27  1  0  0  0  0
  7 16  1  0  0  0  0
  8 21  1  0  0  0  0
  8 34  1  1  0  0  0
  9 31  1  6  0  0  0
  9  5  1  0  0  0  0
  9  4  1  0  0  0  0
 10 17  1  1  0  0  0
 10 21  1  0  0  0  0
 10 16  1  0  0  0  0
 11  7  2  0  0  0  0
 13 18  1  1  0  0  0
 19 23  1  0  0  0  0
 19  9  1  0  0  0  0
 20 45  1  6  0  0  0
 20 25  1  0  0  0  0
 20 14  1  0  0  0  0
 22 12  1  6  0  0  0
 22 15  1  0  0  0  0
 23 22  1  0  0  0  0
 24 27  1  0  0  0  0
 27  6  2  0  0  0  0
 28 25  1  0  0  0  0
 28  1  1  0  0  0  0
 29 14  1  6  0  0  0
 29  3  1  0  0  0  0
 29 11  1  0  0  0  0
 30 31  1  0  0  0  0
 31 32  1  0  0  0  0
 34 33  2  0  0  0  0
 35 33  1  6  0  0  0
 35 37  1  0  0  0  0
 36 37  2  0  0  0  0
 37 38  1  0  0  0  0
 39 40  1  6  0  0  0
 39 35  1  0  0  0  0
 41 39  1  0  0  0  0
 41 42  1  1  0  0  0
 43 44  1  0  0  0  0
 44 41  1  0  0  0  0
 46 52  1  6  0  0  0
 46 51  1  0  0  0  0
 46 49  1  0  0  0  0
 48 45  1  0  0  0  0
 49 47  1  1  0  0  0
 49 48  1  0  0  0  0
 50 48  1  0  0  0  0
 51 50  1  0  0  0  0
 52 53  1  0  0  0  0
 54 55  1  0  0  0  0
 55 53  1  0  0  0  0
M  END
>  <MODEL>
6

>  <REMARK>
 VINA RESULT:      -5.5      3.616      9.169
  Name = 
  12 active torsions:
  status: ('A' for Active; 'I' for Inactive)
    1  A    between atoms: C_1  and  C_10
    2  A    between atoms: C_10  and  C_44
    3  A    between atoms: C_11  and  C_15
    4  A    between atoms: C_11  and  C_16
    5  A    between atoms: N_12  and  C_14
    6  A    between atoms: C_13  and  C_24
    7  A    between atoms: C_14  and  C_40
    8  A    between atoms: C_16  and  C_27
    9  A    between atoms: C_19  and  C_27
   10  A    between atoms: O_20  and  C_44
   11  A    between atoms: C_23  and  C_35
   12  A    between atoms: C_27  and  C_28
                            x       y       z     vdW  Elec       q    Type
                         _______ _______ _______ _____ _____    ______ ____

>  <TORSDO>
F 12

$$$$
=
 OpenBabel11062421323D

 55 59  0  0  1  0  0  0  0  0999 V2000
  189.8610  172.7270  140.6450 C   0  0  0  0  0  2  0  0  0  0  0  0
  189.3550  172.7630  142.0870 C   0  0  2  0  0  3  0  0  0  0  0  0
  195.0520  169.0470  143.2210 C   0  0  0  0  0  2  0  0  0  0  0  0
  191.5530  175.8040  143.5440 C   0  0  2  0  0  3  0  0  0  0  0  0
  189.7850  173.9860  142.9110 C   0  0  2  0  0  0  0  0  0  0  0  0
  194.6190  170.1360  146.6740 O   0  0  0  0  0  0  0  0  0  0  0  0
  193.7460  171.1420  144.6970 C   0  0  0  0  0  0  0  0  0  0  0  0
  191.8280  174.8800  144.7530 C   0  0  1  0  0  3  0  0  0  0  0  0
  190.6690  175.1790  142.3950 C   0  0  2  0  0  0  0  0  0  0  0  0
  193.8540  173.6520  144.6620 C   0  0  2  0  0  3  0  0  0  0  0  0
  193.4270  170.9410  143.4090 C   0  0  0  0  0  3  0  0  0  0  0  0
  194.0630  176.2340  140.9620 F   0  0  0  0  0  0  0  0  0  0  0  0
  190.5010  172.6490  143.0920 C   0  0  1  0  0  3  0  0  0  0  0  0
  193.8470  169.8430  141.1950 C   0  0  0  0  0  2  0  0  0  0  0  0
  192.7980  176.4900  142.9650 C   0  0  0  0  0  2  0  0  0  0  0  0
  193.3560  172.4100  145.3960 C   0  0  0  0  0  2  0  0  0  0  0  0
  195.3600  173.7720  144.8020 C   0  0  0  0  0  1  0  0  0  0  0  0
  190.0190  171.8700  144.3060 C   0  0  0  0  0  1  0  0  0  0  0  0
  191.4440  174.8140  141.2520 O   0  0  0  0  0  0  0  0  0  0  0  0
  192.4730  169.9040  140.5320 C   0  0  1  0  0  3  0  0  0  0  0  0
  193.2260  174.8580  145.1870 N   0  0  0  0  0  2  0  0  0  0  0  0
  193.5930  175.5430  142.0630 C   0  0  1  0  0  3  0  0  0  0  0  0
  192.7330  174.3630  141.6130 C   0  0  0  0  0  2  0  0  0  0  0  0
  195.0390  168.9960  144.6810 N   0  0  0  0  0  2  0  0  0  0  0  0
  191.9040  171.3060  140.6650 C   0  0  0  0  0  2  0  0  0  0  0  0
  188.8660  174.2970  143.9210 O   0  0  0  0  0  1  0  0  0  0  0  0
  194.4810  170.0890  145.4210 C   0  0  0  0  0  0  0  0  0  0  0  0
  190.4330  171.3600  140.2880 C   0  0  0  0  0  2  0  0  0  0  0  0
  193.7410  169.6390  142.7040 C   0  0  1  0  0  3  0  0  0  0  0  0
  188.4870  175.7920  141.4640 F   0  0  0  0  0  0  0  0  0  0  0  0
  189.7210  176.2930  141.8930 C   0  0  0  0  0  3  0  0  0  0  0  0
  189.5260  177.3140  142.8330 F   0  0  0  0  0  0  0  0  0  0  0  0
  190.2780  176.4310  145.8640 C   0  0  0  0  0  3  0  0  0  0  0  0
  190.9450  175.2790  145.8890 C   0  0  0  0  0  3  0  0  0  0  0  0
  189.4190  176.8220  147.0270 C   0  0  1  0  0  3  0  0  0  0  0  0
  191.3350  177.1570  148.4420 O   0  0  0  0  0  0  0  0  0  0  0  0
  190.2470  177.6140  147.9940 C   0  0  0  0  0  0  0  0  0  0  0  0
  189.7770  178.8450  148.4470 O   0  0  0  0  0  1  0  0  0  0  0  0
  188.1520  177.5910  146.6040 C   0  0  1  0  0  3  0  0  0  0  0  0
  188.0000  177.5400  145.2130 O   0  0  0  0  0  1  0  0  0  0  0  0
  186.9010  176.9960  147.2650 C   0  0  1  0  0  3  0  0  0  0  0  0
  186.4200  177.8400  148.2800 O   0  0  0  0  0  1  0  0  0  0  0  0
  184.6710  177.7630  146.4810 C   0  0  0  0  0  1  0  0  0  0  0  0
  185.8050  176.7860  146.2300 C   0  0  0  0  0  2  0  0  0  0  0  0
  192.6080  169.5550  139.0530 C   0  0  0  0  0  2  0  0  0  0  0  0
  193.8020  169.9460  136.2040 C   0  0  2  0  0  3  0  0  0  0  0  0
  193.1740  171.7580  137.6630 O   0  0  0  0  0  1  0  0  0  0  0  0
  193.9900  169.7200  138.6010 N   0  0  0  0  0  0  0  0  0  0  0  0
  194.0610  170.6870  137.5000 C   0  0  1  0  0  3  0  0  0  0  0  0
  194.3990  168.4510  138.0050 C   0  0  0  0  0  2  0  0  0  0  0  0
  194.1230  168.5020  136.5060 C   0  0  0  0  0  2  0  0  0  0  0  0
  194.6400  170.4970  135.0420 C   0  0  0  0  0  2  0  0  0  0  0  0
  195.8420  171.3240  135.4890 C   0  0  0  0  0  2  0  0  0  0  0  0
  196.4570  173.3840  135.9770 C   0  0  0  0  0  1  0  0  0  0  0  0
  195.6940  172.6470  135.0740 O   0  0  0  0  0  0  0  0  0  0  0  0
  2  1  1  6  0  0  0
  2  5  1  0  0  0  0
  2 13  1  0  0  0  0
  3 24  1  0  0  0  0
  4 15  1  6  0  0  0
  4  8  1  0  0  0  0
  5 13  1  0  0  0  0
  5 26  1  1  0  0  0
  7 16  1  0  0  0  0
  7 27  1  0  0  0  0
  8 21  1  0  0  0  0
  8 34  1  1  0  0  0
  9 31  1  6  0  0  0
  9  5  1  0  0  0  0
  9  4  1  0  0  0  0
 10 17  1  1  0  0  0
 10 21  1  0  0  0  0
 10 16  1  0  0  0  0
 11  7  2  0  0  0  0
 13 18  1  1  0  0  0
 19 23  1  0  0  0  0
 19  9  1  0  0  0  0
 20 45  1  6  0  0  0
 20 25  1  0  0  0  0
 20 14  1  0  0  0  0
 22 12  1  6  0  0  0
 22 15  1  0  0  0  0
 23 22  1  0  0  0  0
 24 27  1  0  0  0  0
 27  6  2  0  0  0  0
 28  1  1  0  0  0  0
 28 25  1  0  0  0  0
 29 14  1  6  0  0  0
 29  3  1  0  0  0  0
 29 11  1  0  0  0  0
 30 31  1  0  0  0  0
 31 32  1  0  0  0  0
 33 34  2  0  0  0  0
 35 33  1  6  0  0  0
 35 37  1  0  0  0  0
 37 36  2  0  0  0  0
 37 38  1  0  0  0  0
 39 40  1  6  0  0  0
 39 35  1  0  0  0  0
 39 41  1  0  0  0  0
 41 42  1  1  0  0  0
 44 43  1  0  0  0  0
 44 41  1  0  0  0  0
 46 52  1  6  0  0  0
 46 51  1  0  0  0  0
 46 49  1  0  0  0  0
 48 45  1  0  0  0  0
 49 47  1  1  0  0  0
 49 48  1  0  0  0  0
 50 48  1  0  0  0  0
 51 50  1  0  0  0  0
 52 53  1  0  0  0  0
 55 53  1  0  0  0  0
 55 54  1  0  0  0  0
M  END
>  <MODEL>
7

>  <REMARK>
 VINA RESULT:      -5.4      2.929      9.767
  Name = 
  12 active torsions:
  status: ('A' for Active; 'I' for Inactive)
    1  A    between atoms: C_1  and  C_10
    2  A    between atoms: C_10  and  C_44
    3  A    between atoms: C_11  and  C_15
    4  A    between atoms: C_11  and  C_16
    5  A    between atoms: N_12  and  C_14
    6  A    between atoms: C_13  and  C_24
    7  A    between atoms: C_14  and  C_40
    8  A    between atoms: C_16  and  C_27
    9  A    between atoms: C_19  and  C_27
   10  A    between atoms: O_20  and  C_44
   11  A    between atoms: C_23  and  C_35
   12  A    between atoms: C_27  and  C_28
                            x       y       z     vdW  Elec       q    Type
                         _______ _______ _______ _____ _____    ______ ____

>  <TORSDO>
F 12

$$$$
=
 OpenBabel11062421323D

 55 59  0  0  1  0  0  0  0  0999 V2000
  190.3390  173.4170  140.7530 C   0  0  0  0  0  2  0  0  0  0  0  0
  191.4970  173.7670  139.8180 C   0  0  2  0  0  3  0  0  0  0  0  0
  194.7390  175.0110  145.7750 C   0  0  0  0  0  2  0  0  0  0  0  0
  193.5570  170.3100  139.9010 C   0  0  2  0  0  3  0  0  0  0  0  0
  192.3820  172.5880  139.3880 C   0  0  2  0  0  0  0  0  0  0  0  0
  197.7620  174.6270  143.7750 O   0  0  0  0  0  0  0  0  0  0  0  0
  195.5730  173.8140  143.2970 C   0  0  0  0  0  0  0  0  0  0  0  0
  194.8110  171.1920  140.1040 C   0  0  1  0  0  3  0  0  0  0  0  0
  192.1860  171.0870  139.8110 C   0  0  2  0  0  0  0  0  0  0  0  0
  195.5010  171.4870  142.3530 C   0  0  2  0  0  3  0  0  0  0  0  0
  194.2640  173.9630  143.5540 C   0  0  0  0  0  3  0  0  0  0  0  0
  192.0510  168.5950  142.7200 F   0  0  0  0  0  0  0  0  0  0  0  0
  192.8520  173.5390  140.4860 C   0  0  1  0  0  3  0  0  0  0  0  0
  192.3890  174.5150  145.1230 C   0  0  0  0  0  2  0  0  0  0  0  0
  193.4490  169.1180  140.8610 C   0  0  0  0  0  2  0  0  0  0  0  0
  196.0420  172.9060  142.2000 C   0  0  0  0  0  2  0  0  0  0  0  0
  196.1750  170.7940  143.5220 C   0  0  0  0  0  1  0  0  0  0  0  0
  193.8320  174.5910  139.9900 C   0  0  0  0  0  1  0  0  0  0  0  0
  191.4140  170.9660  141.0070 O   0  0  0  0  0  0  0  0  0  0  0  0
  191.2710  174.9250  144.1680 C   0  0  1  0  0  3  0  0  0  0  0  0
  195.7240  170.7080  141.1410 N   0  0  0  0  0  2  0  0  0  0  0  0
  192.9280  169.5480  142.2340 C   0  0  1  0  0  3  0  0  0  0  0  0
  192.2320  170.9060  142.1560 C   0  0  0  0  0  2  0  0  0  0  0  0
  196.0940  175.2460  145.2860 N   0  0  0  0  0  2  0  0  0  0  0  0
  191.1440  173.8950  143.0580 C   0  0  0  0  0  2  0  0  0  0  0  0
  192.9790  172.7980  138.1380 O   0  0  0  0  0  1  0  0  0  0  0  0
  196.5470  174.5680  144.1070 C   0  0  0  0  0  0  0  0  0  0  0  0
  190.2570  174.3860  141.9270 C   0  0  0  0  0  2  0  0  0  0  0  0
  193.7620  174.9310  144.6020 C   0  0  1  0  0  3  0  0  0  0  0  0
  190.2820  169.6460  139.2570 F   0  0  0  0  0  0  0  0  0  0  0  0
  191.3390  170.3900  138.7200 C   0  0  0  0  0  3  0  0  0  0  0  0
  190.8580  171.2770  137.7470 F   0  0  0  0  0  0  0  0  0  0  0  0
  195.3590  170.4330  137.8300 C   0  0  0  0  0  3  0  0  0  0  0  0
  195.5360  171.3230  138.8050 C   0  0  0  0  0  3  0  0  0  0  0  0
  196.1180  170.5730  136.5460 C   0  0  1  0  0  3  0  0  0  0  0  0
  196.1420  168.1710  136.6770 O   0  0  0  0  0  1  0  0  0  0  0  0
  196.5500  169.2120  136.0910 C   0  0  0  0  0  0  0  0  0  0  0  0
  197.4610  169.1000  135.0430 O   0  0  0  0  0  0  0  0  0  0  0  0
  195.3140  171.3060  135.4540 C   0  0  1  0  0  3  0  0  0  0  0  0
  193.9590  170.9660  135.5440 O   0  0  0  0  0  1  0  0  0  0  0  0
  195.4570  172.8270  135.5950 C   0  0  1  0  0  3  0  0  0  0  0  0
  196.7960  173.2230  135.4430 O   0  0  0  0  0  1  0  0  0  0  0  0
  194.6530  175.0370  134.7870 C   0  0  0  0  0  1  0  0  0  0  0  0
  194.6060  173.5380  134.5510 C   0  0  0  0  0  2  0  0  0  0  0  0
  189.9540  175.0020  144.9340 C   0  0  0  0  0  2  0  0  0  0  0  0
  187.4680  176.6050  145.9080 C   0  0  2  0  0  3  0  0  0  0  0  0
  188.6190  174.9610  147.2420 O   0  0  0  0  0  1  0  0  0  0  0  0
  189.8470  176.2660  145.6630 N   0  0  0  0  0  0  0  0  0  0  0  0
  188.7430  176.2140  146.6280 C   0  0  1  0  0  3  0  0  0  0  0  0
  189.4440  177.2850  144.6960 C   0  0  0  0  0  2  0  0  0  0  0  0
  187.9240  177.3940  144.7030 C   0  0  0  0  0  2  0  0  0  0  0  0
  186.5180  177.4110  146.8040 C   0  0  0  0  0  2  0  0  0  0  0  0
  186.0390  178.7160  146.1760 C   0  0  0  0  0  2  0  0  0  0  0  0
  183.9040  178.3640  146.5980 C   0  0  0  0  0  1  0  0  0  0  0  0
  184.8080  178.5240  145.5510 O   0  0  0  0  0  0  0  0  0  0  0  0
  1 28  1  0  0  0  0
  2 13  1  0  0  0  0
  2  1  1  1  0  0  0
  4  8  1  0  0  0  0
  4 15  1  1  0  0  0
  5 26  1  6  0  0  0
  5  9  1  0  0  0  0
  5  2  1  0  0  0  0
  5 13  1  0  0  0  0
  6 27  2  0  0  0  0
  7 11  2  0  0  0  0
  7 27  1  0  0  0  0
  8 34  1  6  0  0  0
  8 21  1  0  0  0  0
  9 31  1  6  0  0  0
  9  4  1  0  0  0  0
  9 19  1  0  0  0  0
 10 17  1  1  0  0  0
 13 18  1  6  0  0  0
 15 22  1  0  0  0  0
 16 10  1  0  0  0  0
 16  7  1  0  0  0  0
 19 23  1  0  0  0  0
 20 45  1  1  0  0  0
 20 14  1  0  0  0  0
 21 10  1  0  0  0  0
 22 12  1  6  0  0  0
 23 22  1  0  0  0  0
 24  3  1  0  0  0  0
 25 20  1  0  0  0  0
 27 24  1  0  0  0  0
 28 25  1  0  0  0  0
 29 11  1  6  0  0  0
 29 14  1  0  0  0  0
 29  3  1  0  0  0  0
 31 30  1  0  0  0  0
 32 31  1  0  0  0  0
 33 34  2  0  0  0  0
 35 33  1  1  0  0  0
 37 35  1  0  0  0  0
 37 36  1  0  0  0  0
 38 37  2  0  0  0  0
 39 40  1  1  0  0  0
 39 41  1  0  0  0  0
 39 35  1  0  0  0  0
 41 42  1  6  0  0  0
 44 43  1  0  0  0  0
 44 41  1  0  0  0  0
 45 48  1  0  0  0  0
 46 49  1  0  0  0  0
 46 52  1  1  0  0  0
 48 49  1  0  0  0  0
 49 47  1  6  0  0  0
 50 51  1  0  0  0  0
 50 48  1  0  0  0  0
 51 46  1  0  0  0  0
 53 52  1  0  0  0  0
 55 53  1  0  0  0  0
 55 54  1  0  0  0  0
M  END
>  <MODEL>
8

>  <REMARK>
 VINA RESULT:      -5.2      1.817      2.351
  Name = 
  12 active torsions:
  status: ('A' for Active; 'I' for Inactive)
    1  A    between atoms: C_1  and  C_10
    2  A    between atoms: C_10  and  C_44
    3  A    between atoms: C_11  and  C_15
    4  A    between atoms: C_11  and  C_16
    5  A    between atoms: N_12  and  C_14
    6  A    between atoms: C_13  and  C_24
    7  A    between atoms: C_14  and  C_40
    8  A    between atoms: C_16  and  C_27
    9  A    between atoms: C_19  and  C_27
   10  A    between atoms: O_20  and  C_44
   11  A    between atoms: C_23  and  C_35
   12  A    between atoms: C_27  and  C_28
                            x       y       z     vdW  Elec       q    Type
                         _______ _______ _______ _____ _____    ______ ____

>  <TORSDO>
F 12

$$$$
=
 OpenBabel11062421323D

 55 59  0  0  1  0  0  0  0  0999 V2000
  191.8090  170.6320  140.3180 C   0  0  0  0  0  2  0  0  0  0  0  0
  191.1640  170.7370  141.7000 C   0  0  2  0  0  3  0  0  0  0  0  0
  197.6940  170.0300  143.8010 C   0  0  0  0  0  2  0  0  0  0  0  0
  191.7730  174.6370  142.4860 C   0  0  2  0  0  3  0  0  0  0  0  0
  190.9680  172.1620  142.2360 C   0  0  2  0  0  0  0  0  0  0  0  0
  196.4570  171.4940  146.9020 O   0  0  0  0  0  0  0  0  0  0  0  0
  195.4950  171.6360  144.7260 C   0  0  0  0  0  0  0  0  0  0  0  0
  192.2500  174.1670  143.8800 C   0  0  1  0  0  3  0  0  0  0  0  0
  191.3560  173.4890  141.4860 C   0  0  2  0  0  0  0  0  0  0  0  0
  194.5930  173.9030  144.1250 C   0  0  2  0  0  3  0  0  0  0  0  0
  195.4370  171.0720  143.5090 C   0  0  0  0  0  3  0  0  0  0  0  0
  194.1890  175.5570  139.9410 F   0  0  0  0  0  0  0  0  0  0  0  0
  192.1330  171.3090  142.7350 C   0  0  1  0  0  3  0  0  0  0  0  0
  196.5200  169.8380  141.6150 C   0  0  0  0  0  2  0  0  0  0  0  0
  192.6990  175.6510  141.7990 C   0  0  0  0  0  2  0  0  0  0  0  0
  194.5500  172.7360  145.1080 C   0  0  0  0  0  2  0  0  0  0  0  0
  195.8970  174.6640  144.2740 C   0  0  0  0  0  1  0  0  0  0  0  0
  191.8620  170.6550  144.0810 C   0  0  0  0  0  1  0  0  0  0  0  0
  192.3410  173.2630  140.4770 O   0  0  0  0  0  0  0  0  0  0  0  0
  195.3250  169.1900  140.9190 C   0  0  1  0  0  3  0  0  0  0  0  0
  193.4780  174.8150  144.3440 N   0  0  0  0  0  2  0  0  0  0  0  0
  193.9070  174.9640  141.1580 C   0  0  1  0  0  3  0  0  0  0  0  0
  193.6500  173.4700  140.9640 C   0  0  0  0  0  2  0  0  0  0  0  0
  197.5300  170.2650  145.2330 N   0  0  0  0  0  2  0  0  0  0  0  0
  194.2310  170.2250  140.7150 C   0  0  0  0  0  2  0  0  0  0  0  0
  189.8890  172.2550  143.1240 O   0  0  0  0  0  1  0  0  0  0  0  0
  196.4980  171.1490  145.6900 C   0  0  0  0  0  0  0  0  0  0  0  0
  192.9170  169.5860  140.2970 C   0  0  0  0  0  2  0  0  0  0  0  0
  196.3270  169.9090  143.1270 C   0  0  1  0  0  3  0  0  0  0  0  0
  189.5300  175.1140  141.3110 F   0  0  0  0  0  0  0  0  0  0  0  0
  190.1080  173.9850  140.7190 C   0  0  0  0  0  3  0  0  0  0  0  0
  190.3580  174.2280  139.3610 F   0  0  0  0  0  0  0  0  0  0  0  0
  190.3890  175.4670  144.8250 C   0  0  0  0  0  3  0  0  0  0  0  0
  191.1540  174.3780  144.8710 C   0  0  0  0  0  3  0  0  0  0  0  0
  189.3120  175.6670  145.8470 C   0  0  1  0  0  3  0  0  0  0  0  0
  189.1470  174.2440  147.7790 O   0  0  0  0  0  1  0  0  0  0  0  0
  189.7930  175.1380  147.1640 C   0  0  0  0  0  0  0  0  0  0  0  0
  190.9360  175.6840  147.7440 O   0  0  0  0  0  0  0  0  0  0  0  0
  188.8600  177.1370  145.9580 C   0  0  1  0  0  3  0  0  0  0  0  0
  189.6920  177.9560  145.1860 O   0  0  0  0  0  1  0  0  0  0  0  0
  187.4110  177.3030  145.4790 C   0  0  1  0  0  3  0  0  0  0  0  0
  187.1610  176.5080  144.3480 O   0  0  0  0  0  1  0  0  0  0  0  0
  186.2200  178.0990  147.5100 C   0  0  0  0  0  1  0  0  0  0  0  0
  186.4400  176.9160  146.5850 C   0  0  0  0  0  2  0  0  0  0  0  0
  195.7620  168.6470  139.5630 C   0  0  0  0  0  2  0  0  0  0  0  0
  196.6500  169.0030  136.5990 C   0  0  2  0  0  3  0  0  0  0  0  0
  194.9490  170.3350  137.6660 O   0  0  0  0  0  1  0  0  0  0  0  0
  196.7790  169.5080  138.9580 N   0  0  0  0  0  0  0  0  0  0  0  0
  196.3150  170.0260  137.6660 C   0  0  1  0  0  3  0  0  0  0  0  0
  197.9180  168.6560  138.6260 C   0  0  0  0  0  2  0  0  0  0  0  0
  197.7690  168.1750  137.1870 C   0  0  0  0  0  2  0  0  0  0  0  0
  197.0490  169.6580  135.2700 C   0  0  0  0  0  2  0  0  0  0  0  0
  197.6490  171.0520  135.4280 C   0  0  0  0  0  2  0  0  0  0  0  0
  196.4590  172.9010  135.6000 C   0  0  0  0  0  1  0  0  0  0  0  0
  196.9270  171.9740  134.6710 O   0  0  0  0  0  0  0  0  0  0  0  0
  2  1  1  6  0  0  0
  2  5  1  0  0  0  0
  2 13  1  0  0  0  0
  3 24  1  0  0  0  0
  4 15  1  6  0  0  0
  4  8  1  0  0  0  0
  5 13  1  0  0  0  0
  5 26  1  1  0  0  0
  7 16  1  0  0  0  0
  7 27  1  0  0  0  0
  8 21  1  0  0  0  0
  8 34  1  1  0  0  0
  9 31  1  6  0  0  0
  9  5  1  0  0  0  0
  9  4  1  0  0  0  0
 10 17  1  1  0  0  0
 10 21  1  0  0  0  0
 10 16  1  0  0  0  0
 11  7  2  0  0  0  0
 13 18  1  1  0  0  0
 19 23  1  0  0  0  0
 19  9  1  0  0  0  0
 20 45  1  6  0  0  0
 20 14  1  0  0  0  0
 22 12  1  6  0  0  0
 22 15  1  0  0  0  0
 23 22  1  0  0  0  0
 24 27  1  0  0  0  0
 25 20  1  0  0  0  0
 27  6  2  0  0  0  0
 28  1  1  0  0  0  0
 28 25  1  0  0  0  0
 29 14  1  6  0  0  0
 29 11  1  0  0  0  0
 29  3  1  0  0  0  0
 31 30  1  0  0  0  0
 32 31  1  0  0  0  0
 33 34  2  0  0  0  0
 35 33  1  6  0  0  0
 35 39  1  0  0  0  0
 35 37  1  0  0  0  0
 37 38  2  0  0  0  0
 37 36  1  0  0  0  0
 39 40  1  6  0  0  0
 41 42  1  6  0  0  0
 41 39  1  0  0  0  0
 41 44  1  0  0  0  0
 44 43  1  0  0  0  0
 46 52  1  6  0  0  0
 46 51  1  0  0  0  0
 46 49  1  0  0  0  0
 48 45  1  0  0  0  0
 49 47  1  1  0  0  0
 49 48  1  0  0  0  0
 50 48  1  0  0  0  0
 51 50  1  0  0  0  0
 52 53  1  0  0  0  0
 55 53  1  0  0  0  0
 55 54  1  0  0  0  0
M  END
>  <MODEL>
9

>  <REMARK>
 VINA RESULT:      -4.9      2.802      9.734
  Name = 
  12 active torsions:
  status: ('A' for Active; 'I' for Inactive)
    1  A    between atoms: C_1  and  C_10
    2  A    between atoms: C_10  and  C_44
    3  A    between atoms: C_11  and  C_15
    4  A    between atoms: C_11  and  C_16
    5  A    between atoms: N_12  and  C_14
    6  A    between atoms: C_13  and  C_24
    7  A    between atoms: C_14  and  C_40
    8  A    between atoms: C_16  and  C_27
    9  A    between atoms: C_19  and  C_27
   10  A    between atoms: O_20  and  C_44
   11  A    between atoms: C_23  and  C_35
   12  A    between atoms: C_27  and  C_28
                            x       y       z     vdW  Elec       q    Type
                         _______ _______ _______ _____ _____    ______ ____

>  <TORSDO>
F 12

$$$$
