=
 OpenBabel11062419133D

 54 60  0  0  1  0  0  0  0  0999 V2000
  196.8260  173.6580  145.5680 N   0  0  0  0  0  2  0  0  0  0  0  0
  190.4820  171.9670  140.9130 C   0  0  0  0  0  0  0  0  0  0  0  0
  190.5290  174.0120  141.9650 C   0  0  2  0  0  3  0  0  0  0  0  0
  191.5270  174.8260  144.0910 C   0  0  0  0  0  3  0  0  0  0  0  0
  193.3940  175.9400  145.6010 C   0  0  2  0  0  3  0  0  0  0  0  0
  194.2790  174.9760  144.9570 N   0  0  0  0  0  2  0  0  0  0  0  0
  191.9890  172.1850  142.8790 C   0  0  0  0  0  2  0  0  0  0  0  0
  195.8980  171.9880  144.0970 C   0  0  2  0  0  3  0  0  0  0  0  0
  195.2370  176.5730  141.7160 C   0  0  0  0  0  3  0  0  0  0  0  0
  194.9840  175.2470  143.7390 C   0  0  0  0  0  0  0  0  0  0  0  0
  189.1390  172.3230  141.5400 C   0  0  0  0  0  2  0  0  0  0  0  0
  191.0020  175.1170  142.8810 C   0  0  0  0  0  0  0  0  0  0  0  0
  192.3540  175.1970  146.4270 C   0  0  0  0  0  2  0  0  0  0  0  0
  196.3110  175.7760  141.3210 C   0  0  0  0  0  3  0  0  0  0  0  0
  194.4620  172.1780  144.2300 N   0  0  0  0  0  2  0  0  0  0  0  0
  190.6730  176.5210  142.4170 C   0  0  2  0  0  3  0  0  0  0  0  0
  196.0840  174.4480  143.3430 C   0  0  0  0  0  0  0  0  0  0  0  0
  196.9030  172.3770  146.2640 C   0  0  0  0  0  2  0  0  0  0  0  0
  189.2870  173.4790  142.3350 O   0  0  0  0  0  0  0  0  0  0  0  0
  191.0830  177.0710  145.3270 C   0  0  0  0  0  2  0  0  0  0  0  0
  194.3430  172.5410  141.6010 O   0  0  0  0  0  0  0  0  0  0  0  0
  196.7320  174.7220  142.1330 C   0  0  0  0  0  3  0  0  0  0  0  0
  191.9480  175.8400  145.1210 C   0  0  2  0  0  0  0  0  0  0  0  0
  191.6440  177.6170  142.8770 C   0  0  0  0  0  2  0  0  0  0  0  0
  191.3850  178.1530  144.2920 C   0  0  0  0  0  2  0  0  0  0  0  0
  190.7620  170.6200  141.0780 F   0  0  0  0  0  0  0  0  0  0  0  0
  194.5800  176.3100  142.9180 C   0  0  0  0  0  3  0  0  0  0  0  0
  193.7100  171.7700  142.7280 S   0  0  0  0  0  0  0  0  0  0  0  0
  190.4550  172.2700  139.5640 F   0  0  0  0  0  0  0  0  0  0  0  0
  196.3930  171.2800  145.3360 C   0  0  2  0  0  3  0  0  0  0  0  0
  196.6360  173.3150  144.1680 C   0  0  1  0  0  3  0  0  0  0  0  0
  191.4660  172.8700  141.6170 C   0  0  1  0  0  3  0  0  0  0  0  0
  193.8490  170.2970  142.4710 O   0  0  0  0  0  0  0  0  0  0  0  0
  189.2290  176.8480  142.6410 C   0  0  0  0  0  3  0  0  0  0  0  0
  188.6340  177.8300  141.9710 C   0  0  0  0  0  3  0  0  0  0  0  0
  187.2430  178.1450  142.1510 N   0  0  0  0  0  0  0  0  0  0  0  0
  186.7120  178.5640  143.4440 C   0  0  0  0  0  2  0  0  0  0  0  0
  186.7330  177.4030  144.4230 C   0  0  0  0  0  2  0  0  0  0  0  0
  185.9510  178.8590  146.0180 N   0  0  0  0  0  2  0  0  0  0  0  0
  186.7080  176.7970  146.6810 C   0  0  0  0  0  2  0  0  0  0  0  0
  185.6330  178.7630  147.4340 C   0  0  0  0  0  2  0  0  0  0  0  0
  186.9530  177.9040  145.7680 N   0  0  0  0  0  0  0  0  0  0  0  0
  185.9620  177.3600  147.8600 C   0  0  0  0  0  2  0  0  0  0  0  0
  186.3310  178.1410  141.0130 C   0  0  1  0  0  3  0  0  0  0  0  0
  186.6700  177.0360  140.0600 C   0  0  0  0  0  0  0  0  0  0  0  0
  186.9830  175.9050  140.5180 O   0  0  0  0  0  0  0  0  0  0  0  0
  186.7680  176.2050  137.7460 C   0  0  0  0  0  1  0  0  0  0  0  0
  186.6250  177.2600  138.6830 O   0  0  0  0  0  0  0  0  0  0  0  0
  184.8780  178.0710  141.4720 C   0  0  0  0  0  2  0  0  0  0  0  0
  184.0130  178.7140  140.4970 N   0  0  0  0  0  2  0  0  0  0  0  0
  182.7970  177.9230  140.4370 C   0  0  0  0  0  2  0  0  0  0  0  0
  181.6510  178.7830  140.6660 N   0  0  0  0  0  1  0  0  0  0  0  0
  197.3330  170.1620  143.2480 F   0  0  0  0  0  0  0  0  0  0  0  0
  197.7630  170.1680  144.9030 S   0  0  0  0  0  0  0  0  0  0  0  0
  1 18  1  0  0  0  0
  2 26  1  0  0  0  0
  2 11  1  0  0  0  0
  2 32  1  0  0  0  0
  3 19  1  1  0  0  0
  3 12  1  0  0  0  0
  5 13  1  1  0  0  0
  6  5  1  0  0  0  0
  8 31  1  0  0  0  0
  8 15  1  1  0  0  0
  8 30  1  0  0  0  0
  9 27  1  0  0  0  0
 10  6  1  0  0  0  0
 11 19  1  0  0  0  0
 12  4  2  0  0  0  0
 14  9  2  0  0  0  0
 14 22  1  0  0  0  0
 16 34  1  1  0  0  0
 16 24  1  0  0  0  0
 16 12  1  0  0  0  0
 17 10  1  0  0  0  0
 21 28  2  0  0  0  0
 22 17  2  0  0  0  0
 23  4  1  6  0  0  0
 23 20  1  0  0  0  0
 23  5  1  0  0  0  0
 23 13  1  0  0  0  0
 24 25  1  0  0  0  0
 25 20  1  0  0  0  0
 27 10  2  0  0  0  0
 28  7  1  0  0  0  0
 28 15  1  0  0  0  0
 29  2  1  0  0  0  0
 30 54  1  6  0  0  0
 30 18  1  0  0  0  0
 31 17  1  6  0  0  0
 31  1  1  0  0  0  0
 32  3  1  0  0  0  0
 32  7  1  1  0  0  0
 33 28  2  0  0  0  0
 35 36  1  0  0  0  0
 35 34  2  0  0  0  0
 36 37  1  0  0  0  0
 37 38  1  0  0  0  0
 38 42  1  0  0  0  0
 39 41  1  0  0  0  0
 40 43  1  0  0  0  0
 41 43  1  0  0  0  0
 42 39  1  0  0  0  0
 42 40  1  0  0  0  0
 44 49  1  1  0  0  0
 44 36  1  0  0  0  0
 45 46  2  0  0  0  0
 45 44  1  0  0  0  0
 47 48  1  0  0  0  0
 48 45  1  0  0  0  0
 50 49  1  0  0  0  0
 51 50  1  0  0  0  0
 51 52  1  0  0  0  0
 53 54  1  0  0  0  0
M  END
>  <MODEL>
1

>  <REMARK>
 VINA RESULT:      -7.6      0.000      0.000
  Name = 
  12 active torsions:
  status: ('A' for Active; 'I' for Inactive)
    1  A    between atoms: C_8  and  N_51
    2  A    between atoms: C_9  and  N_21
    3  A    between atoms: C_9  and  C_38
    4  A    between atoms: C_18  and  C_23
    5  A    between atoms: C_18  and  O_24
    6  A    between atoms: N_21  and  C_23
    7  A    between atoms: N_21  and  C_42
    8  A    between atoms: C_23  and  C_45
    9  A    between atoms: C_27  and  C_30
   10  A    between atoms: C_38  and  N_48
   11  A    between atoms: C_45  and  N_51
   12  A    between atoms: C_47  and  S_49
                            x       y       z     vdW  Elec       q    Type
                         _______ _______ _______ _____ _____    ______ ____

>  <TORSDO>
F 12

$$$$
=
 OpenBabel11062419133D

 54 60  0  0  1  0  0  0  0  0999 V2000
  196.7670  171.1280  142.0090 N   0  0  0  0  0  2  0  0  0  0  0  0
  189.1900  172.9250  139.9730 C   0  0  0  0  0  0  0  0  0  0  0  0
  190.2280  174.2550  141.5370 C   0  0  2  0  0  3  0  0  0  0  0  0
  191.9990  173.8470  143.2330 C   0  0  0  0  0  3  0  0  0  0  0  0
  194.4790  173.7990  144.1580 C   0  0  2  0  0  3  0  0  0  0  0  0
  194.7620  173.0570  142.9340 N   0  0  0  0  0  2  0  0  0  0  0  0
  191.1690  171.9630  141.1310 C   0  0  0  0  0  2  0  0  0  0  0  0
  194.9510  170.4840  140.5600 C   0  0  2  0  0  3  0  0  0  0  0  0
  195.2540  175.6780  140.3160 C   0  0  0  0  0  3  0  0  0  0  0  0
  195.1440  173.6850  141.7040 C   0  0  0  0  0  0  0  0  0  0  0  0
  188.2850  173.2310  141.1590 C   0  0  0  0  0  2  0  0  0  0  0  0
  191.2870  174.7330  142.5020 C   0  0  0  0  0  0  0  0  0  0  0  0
  193.5250  172.9930  145.0280 C   0  0  0  0  0  2  0  0  0  0  0  0
  195.8330  174.9370  139.2870 C   0  0  0  0  0  3  0  0  0  0  0  0
  193.7660  170.8790  141.3060 N   0  0  0  0  0  2  0  0  0  0  0  0
  191.3410  176.2340  142.7050 C   0  0  2  0  0  3  0  0  0  0  0  0
  195.7450  172.9370  140.6630 C   0  0  0  0  0  0  0  0  0  0  0  0
  196.5930  169.6850  142.1450 C   0  0  0  0  0  2  0  0  0  0  0  0
  189.0360  173.8710  142.1670 O   0  0  0  0  0  0  0  0  0  0  0  0
  192.7160  175.3700  145.2150 C   0  0  0  0  0  2  0  0  0  0  0  0
  193.0430  172.3640  139.2250 O   0  0  0  0  0  0  0  0  0  0  0  0
  196.0790  173.5750  139.4630 C   0  0  0  0  0  3  0  0  0  0  0  0
  193.0130  174.2060  144.2850 C   0  0  2  0  0  0  0  0  0  0  0  0
  192.7170  176.8030  143.0810 C   0  0  0  0  0  2  0  0  0  0  0  0
  193.0660  176.7100  144.5730 C   0  0  0  0  0  2  0  0  0  0  0  0
  189.0280  171.6150  139.5530 F   0  0  0  0  0  0  0  0  0  0  0  0
  194.9140  175.0550  141.5160 C   0  0  0  0  0  3  0  0  0  0  0  0
  192.5290  171.3220  140.1810 S   0  0  0  0  0  0  0  0  0  0  0  0
  188.8910  173.7830  138.9300 F   0  0  0  0  0  0  0  0  0  0  0  0
  195.5010  169.2260  141.1870 C   0  0  2  0  0  3  0  0  0  0  0  0
  196.0850  171.4730  140.7720 C   0  0  1  0  0  3  0  0  0  0  0  0
  190.5800  173.2170  140.4870 C   0  0  1  0  0  3  0  0  0  0  0  0
  192.0780  170.1130  139.4150 O   0  0  0  0  0  0  0  0  0  0  0  0
  190.2220  176.7100  143.5770 C   0  0  0  0  0  3  0  0  0  0  0  0
  189.1250  177.2500  143.0550 C   0  0  0  0  0  3  0  0  0  0  0  0
  188.0270  177.6900  143.8710 N   0  0  0  0  0  0  0  0  0  0  0  0
  188.1170  177.7220  145.3270 C   0  0  0  0  0  2  0  0  0  0  0  0
  187.9230  176.3260  145.8960 C   0  0  0  0  0  2  0  0  0  0  0  0
  189.4320  175.0550  147.0730 N   0  0  0  0  0  2  0  0  0  0  0  0
  189.5530  177.3400  147.2310 C   0  0  0  0  0  2  0  0  0  0  0  0
  190.6430  175.3300  147.8310 C   0  0  0  0  0  2  0  0  0  0  0  0
  188.6370  176.2120  147.1560 N   0  0  0  0  0  0  0  0  0  0  0  0
  190.8420  176.8200  147.8070 C   0  0  0  0  0  2  0  0  0  0  0  0
  186.8100  178.2100  143.2560 C   0  0  1  0  0  3  0  0  0  0  0  0
  186.0190  177.1070  142.6230 C   0  0  0  0  0  0  0  0  0  0  0  0
  185.9290  175.9980  143.2140 O   0  0  0  0  0  0  0  0  0  0  0  0
  185.9330  178.1590  140.3990 C   0  0  0  0  0  1  0  0  0  0  0  0
  185.3820  177.3160  141.3980 O   0  0  0  0  0  0  0  0  0  0  0  0
  185.9790  179.0010  144.2620 C   0  0  0  0  0  2  0  0  0  0  0  0
  184.5690  178.9140  143.9240 N   0  0  0  0  0  2  0  0  0  0  0  0
  183.8420  178.9110  145.1810 C   0  0  0  0  0  2  0  0  0  0  0  0
  184.5150  178.0410  146.1270 N   0  0  0  0  0  1  0  0  0  0  0  0
  197.8230  168.5210  140.4090 F   0  0  0  0  0  0  0  0  0  0  0  0
  196.2270  168.1660  139.9040 S   0  0  0  0  0  0  0  0  0  0  0  0
  1 18  1  0  0  0  0
  2 32  1  0  0  0  0
  2 11  1  0  0  0  0
  3 19  1  1  0  0  0
  3 12  1  0  0  0  0
  5 23  1  0  0  0  0
  5 13  1  1  0  0  0
  6  5  1  0  0  0  0
  8 31  1  0  0  0  0
  8 30  1  0  0  0  0
  8 15  1  1  0  0  0
  9 27  1  0  0  0  0
 10  6  1  0  0  0  0
 11 19  1  0  0  0  0
 12 16  1  0  0  0  0
 12  4  2  0  0  0  0
 14 22  1  0  0  0  0
 14  9  2  0  0  0  0
 16 24  1  0  0  0  0
 16 34  1  1  0  0  0
 17 10  1  0  0  0  0
 21 28  2  0  0  0  0
 22 17  2  0  0  0  0
 23  4  1  6  0  0  0
 23 13  1  0  0  0  0
 23 20  1  0  0  0  0
 24 25  1  0  0  0  0
 25 20  1  0  0  0  0
 26  2  1  0  0  0  0
 27 10  2  0  0  0  0
 28  7  1  0  0  0  0
 28 15  1  0  0  0  0
 29  2  1  0  0  0  0
 30 54  1  6  0  0  0
 30 18  1  0  0  0  0
 31 17  1  1  0  0  0
 31  1  1  0  0  0  0
 32  7  1  1  0  0  0
 32  3  1  0  0  0  0
 33 28  2  0  0  0  0
 35 34  2  0  0  0  0
 35 36  1  0  0  0  0
 36 37  1  0  0  0  0
 37 38  1  0  0  0  0
 38 42  1  0  0  0  0
 39 42  1  0  0  0  0
 39 41  1  0  0  0  0
 40 43  1  0  0  0  0
 42 40  1  0  0  0  0
 43 41  1  0  0  0  0
 44 36  1  0  0  0  0
 44 49  1  1  0  0  0
 45 46  2  0  0  0  0
 45 44  1  0  0  0  0
 47 48  1  0  0  0  0
 48 45  1  0  0  0  0
 50 49  1  0  0  0  0
 50 51  1  0  0  0  0
 51 52  1  0  0  0  0
 54 53  1  0  0  0  0
M  END
>  <MODEL>
2

>  <REMARK>
 VINA RESULT:      -7.4      2.337      3.136
  Name = 
  12 active torsions:
  status: ('A' for Active; 'I' for Inactive)
    1  A    between atoms: C_8  and  N_51
    2  A    between atoms: C_9  and  N_21
    3  A    between atoms: C_9  and  C_38
    4  A    between atoms: C_18  and  C_23
    5  A    between atoms: C_18  and  O_24
    6  A    between atoms: N_21  and  C_23
    7  A    between atoms: N_21  and  C_42
    8  A    between atoms: C_23  and  C_45
    9  A    between atoms: C_27  and  C_30
   10  A    between atoms: C_38  and  N_48
   11  A    between atoms: C_45  and  N_51
   12  A    between atoms: C_47  and  S_49
                            x       y       z     vdW  Elec       q    Type
                         _______ _______ _______ _____ _____    ______ ____

>  <TORSDO>
F 12

$$$$
=
 OpenBabel11062419133D

 54 60  0  0  1  0  0  0  0  0999 V2000
  192.5050  169.4610  136.9650 N   0  0  0  0  0  2  0  0  0  0  0  0
  194.8060  174.7070  142.6200 C   0  0  0  0  0  0  0  0  0  0  0  0
  192.5500  174.3770  142.3140 C   0  0  2  0  0  3  0  0  0  0  0  0
  191.1590  173.7440  140.3530 C   0  0  0  0  0  3  0  0  0  0  0  0
  189.8670  172.0720  138.7590 C   0  0  2  0  0  3  0  0  0  0  0  0
  191.1310  171.3440  138.7450 N   0  0  0  0  0  2  0  0  0  0  0  0
  194.0990  173.7170  140.4510 C   0  0  0  0  0  2  0  0  0  0  0  0
  194.4380  170.4130  138.0470 C   0  0  2  0  0  3  0  0  0  0  0  0
  191.0610  169.2450  141.8370 C   0  0  0  0  0  3  0  0  0  0  0  0
  191.4590  170.3200  139.6920 C   0  0  0  0  0  0  0  0  0  0  0  0
  194.0290  176.0180  142.6030 C   0  0  0  0  0  2  0  0  0  0  0  0
  191.2710  173.8650  141.6940 C   0  0  0  0  0  0  0  0  0  0  0  0
  190.0640  173.4390  138.1200 C   0  0  0  0  0  2  0  0  0  0  0  0
  192.1090  168.3570  141.5930 C   0  0  0  0  0  3  0  0  0  0  0  0
  193.9860  171.7360  138.4490 N   0  0  0  0  0  2  0  0  0  0  0  0
  190.1150  173.6890  142.6580 C   0  0  2  0  0  3  0  0  0  0  0  0
  192.5130  169.4080  139.4400 C   0  0  0  0  0  0  0  0  0  0  0  0
  193.4200  169.8970  135.9140 C   0  0  0  0  0  2  0  0  0  0  0  0
  192.6970  175.7670  142.2120 O   0  0  0  0  0  0  0  0  0  0  0  0
  188.5730  173.8650  140.1030 C   0  0  0  0  0  2  0  0  0  0  0  0
  194.6360  171.1160  140.9490 O   0  0  0  0  0  0  0  0  0  0  0  0
  192.8270  168.4380  140.3990 C   0  0  0  0  0  3  0  0  0  0  0  0
  189.9110  173.3320  139.6200 C   0  0  2  0  0  0  0  0  0  0  0  0
  189.0960  172.6040  142.2820 C   0  0  0  0  0  2  0  0  0  0  0  0
  188.0280  173.0460  141.2720 C   0  0  0  0  0  2  0  0  0  0  0  0
  196.0150  174.8410  141.9570 F   0  0  0  0  0  0  0  0  0  0  0  0
  190.7390  170.2180  140.8910 C   0  0  0  0  0  3  0  0  0  0  0  0
  194.8090  172.1830  139.9020 S   0  0  0  0  0  0  0  0  0  0  0  0
  195.0390  174.3250  143.9290 F   0  0  0  0  0  0  0  0  0  0  0  0
  194.6910  170.4380  136.5590 C   0  0  2  0  0  3  0  0  0  0  0  0
  193.3190  169.3920  138.1680 C   0  0  1  0  0  3  0  0  0  0  0  0
  193.8720  173.7190  141.9620 C   0  0  1  0  0  3  0  0  0  0  0  0
  196.2710  172.3800  139.6210 O   0  0  0  0  0  0  0  0  0  0  0  0
  189.5020  175.0050  143.0250 C   0  0  0  0  0  3  0  0  0  0  0  0
  188.8130  175.1530  144.1510 C   0  0  0  0  0  3  0  0  0  0  0  0
  188.2380  176.4130  144.5360 N   0  0  0  0  0  0  0  0  0  0  0  0
  188.8160  177.2290  145.5980 C   0  0  0  0  0  2  0  0  0  0  0  0
  190.2500  177.5970  145.2560 C   0  0  0  0  0  2  0  0  0  0  0  0
  190.3300  176.4930  147.2690 N   0  0  0  0  0  2  0  0  0  0  0  0
  191.9960  176.1180  145.7370 C   0  0  0  0  0  2  0  0  0  0  0  0
  191.1310  175.4120  147.8210 C   0  0  0  0  0  2  0  0  0  0  0  0
  191.1340  177.1400  146.3140 N   0  0  0  0  0  0  0  0  0  0  0  0
  192.1300  175.0280  146.7650 C   0  0  0  0  0  2  0  0  0  0  0  0
  187.0990  176.9590  143.8050 C   0  0  1  0  0  3  0  0  0  0  0  0
  185.9590  177.2490  144.7320 C   0  0  0  0  0  0  0  0  0  0  0  0
  185.5780  176.3570  145.5360 O   0  0  0  0  0  0  0  0  0  0  0  0
  184.2950  178.8370  145.6090 C   0  0  0  0  0  1  0  0  0  0  0  0
  185.3400  178.5010  144.7110 O   0  0  0  0  0  0  0  0  0  0  0  0
  187.5020  178.1870  142.9960 C   0  0  0  0  0  2  0  0  0  0  0  0
  187.8600  177.7990  141.6420 N   0  0  0  0  0  2  0  0  0  0  0  0
  186.7590  177.0000  141.1340 C   0  0  0  0  0  2  0  0  0  0  0  0
  186.1550  177.6750  140.0020 N   0  0  0  0  0  1  0  0  0  0  0  0
  195.1110  168.3410  135.1720 F   0  0  0  0  0  0  0  0  0  0  0  0
  196.0860  169.3480  136.1540 S   0  0  0  0  0  0  0  0  0  0  0  0
  2 29  1  0  0  0  0
  3 12  1  6  0  0  0
  4 12  2  0  0  0  0
  5 13  1  6  0  0  0
  5 23  1  0  0  0  0
  6  5  1  0  0  0  0
  6 10  1  0  0  0  0
  8 31  1  0  0  0  0
  8 15  1  6  0  0  0
 10 27  1  0  0  0  0
 11  2  1  0  0  0  0
 12 16  1  0  0  0  0
 14  9  1  0  0  0  0
 15 28  1  0  0  0  0
 16 34  1  6  0  0  0
 17 10  2  0  0  0  0
 17 22  1  0  0  0  0
 18 30  1  0  0  0  0
 18  1  1  0  0  0  0
 19  3  1  0  0  0  0
 19 11  1  0  0  0  0
 20 25  1  0  0  0  0
 22 14  2  0  0  0  0
 23 13  1  6  0  0  0
 23 20  1  0  0  0  0
 23  4  1  0  0  0  0
 24 16  1  0  0  0  0
 25 24  1  0  0  0  0
 26  2  1  0  0  0  0
 27  9  2  0  0  0  0
 28  7  1  0  0  0  0
 28 21  2  0  0  0  0
 30 54  1  1  0  0  0
 30  8  1  0  0  0  0
 31  1  1  6  0  0  0
 31 17  1  0  0  0  0
 32  7  1  6  0  0  0
 32  3  1  0  0  0  0
 32  2  1  0  0  0  0
 33 28  2  0  0  0  0
 34 35  2  0  0  0  0
 35 36  1  0  0  0  0
 36 37  1  0  0  0  0
 38 37  1  0  0  0  0
 38 42  1  0  0  0  0
 39 41  1  0  0  0  0
 40 42  1  0  0  0  0
 40 43  1  0  0  0  0
 42 39  1  0  0  0  0
 43 41  1  0  0  0  0
 44 49  1  1  0  0  0
 44 36  1  0  0  0  0
 44 45  1  0  0  0  0
 45 46  2  0  0  0  0
 48 45  1  0  0  0  0
 48 47  1  0  0  0  0
 50 49  1  0  0  0  0
 51 50  1  0  0  0  0
 52 51  1  0  0  0  0
 53 54  1  0  0  0  0
M  END
>  <MODEL>
3

>  <REMARK>
 VINA RESULT:      -7.2      3.595      6.164
  Name = 
  12 active torsions:
  status: ('A' for Active; 'I' for Inactive)
    1  A    between atoms: C_8  and  N_51
    2  A    between atoms: C_9  and  N_21
    3  A    between atoms: C_9  and  C_38
    4  A    between atoms: C_18  and  C_23
    5  A    between atoms: C_18  and  O_24
    6  A    between atoms: N_21  and  C_23
    7  A    between atoms: N_21  and  C_42
    8  A    between atoms: C_23  and  C_45
    9  A    between atoms: C_27  and  C_30
   10  A    between atoms: C_38  and  N_48
   11  A    between atoms: C_45  and  N_51
   12  A    between atoms: C_47  and  S_49
                            x       y       z     vdW  Elec       q    Type
                         _______ _______ _______ _____ _____    ______ ____

>  <TORSDO>
F 12

$$$$
=
 OpenBabel11062419133D

 54 60  0  0  1  0  0  0  0  0999 V2000
  191.8960  170.2250  136.7240 N   0  0  0  0  0  2  0  0  0  0  0  0
  194.4960  175.1400  142.5440 C   0  0  0  0  0  0  0  0  0  0  0  0
  192.3070  174.4390  142.6270 C   0  0  2  0  0  3  0  0  0  0  0  0
  190.6470  173.7850  140.8950 C   0  0  0  0  0  3  0  0  0  0  0  0
  189.3240  172.0920  139.3500 C   0  0  2  0  0  3  0  0  0  0  0  0
  190.6540  171.6140  138.9890 N   0  0  0  0  0  2  0  0  0  0  0  0
  193.5080  174.2860  140.4270 C   0  0  0  0  0  2  0  0  0  0  0  0
  193.8410  171.3880  137.5460 C   0  0  2  0  0  3  0  0  0  0  0  0
  191.5730  169.2070  141.6970 C   0  0  0  0  0  3  0  0  0  0  0  0
  191.3330  170.5680  139.6970 C   0  0  0  0  0  0  0  0  0  0  0  0
  193.5380  176.2800  142.8670 C   0  0  0  0  0  2  0  0  0  0  0  0
  191.0210  173.7740  142.1940 C   0  0  0  0  0  0  0  0  0  0  0  0
  189.1640  173.5340  138.8910 C   0  0  0  0  0  2  0  0  0  0  0  0
  192.6700  168.5590  141.1310 C   0  0  0  0  0  3  0  0  0  0  0  0
  193.2830  172.5530  138.2160 N   0  0  0  0  0  2  0  0  0  0  0  0
  190.1390  173.2840  143.3240 C   0  0  2  0  0  3  0  0  0  0  0  0
  192.4380  169.8990  139.1180 C   0  0  0  0  0  0  0  0  0  0  0  0
  192.4870  170.9350  135.5940 C   0  0  0  0  0  2  0  0  0  0  0  0
  192.2090  175.8350  142.7040 O   0  0  0  0  0  0  0  0  0  0  0  0
  188.0810  173.4570  141.1630 C   0  0  0  0  0  2  0  0  0  0  0  0
  194.5390  171.7880  140.4290 O   0  0  0  0  0  0  0  0  0  0  0  0
  193.0970  168.9030  139.8470 C   0  0  0  0  0  3  0  0  0  0  0  0
  189.3520  173.2350  140.3610 C   0  0  2  0  0  0  0  0  0  0  0  0
  189.2460  172.0790  142.9950 C   0  0  0  0  0  2  0  0  0  0  0  0
  187.9320  172.4280  142.2810 C   0  0  0  0  0  2  0  0  0  0  0  0
  195.5000  175.5660  141.6890 F   0  0  0  0  0  0  0  0  0  0  0  0
  190.9090  170.2040  140.9820 C   0  0  0  0  0  3  0  0  0  0  0  0
  194.3160  172.9780  139.5350 S   0  0  0  0  0  0  0  0  0  0  0  0
  195.0580  174.6650  143.7140 F   0  0  0  0  0  0  0  0  0  0  0  0
  193.7650  171.6240  136.0570 C   0  0  2  0  0  3  0  0  0  0  0  0
  192.9470  170.1720  137.7270 C   0  0  1  0  0  3  0  0  0  0  0  0
  193.6100  174.0780  141.9380 C   0  0  1  0  0  3  0  0  0  0  0  0
  195.6350  173.4700  139.0130 O   0  0  0  0  0  0  0  0  0  0  0  0
  189.4200  174.4160  143.9890 C   0  0  0  0  0  3  0  0  0  0  0  0
  189.1420  175.5360  143.3290 C   0  0  0  0  0  3  0  0  0  0  0  0
  188.4300  176.6250  143.9390 N   0  0  0  0  0  0  0  0  0  0  0  0
  188.7180  177.0650  145.3000 C   0  0  0  0  0  2  0  0  0  0  0  0
  190.1200  177.6440  145.3800 C   0  0  0  0  0  2  0  0  0  0  0  0
  189.9120  176.2220  147.1720 N   0  0  0  0  0  2  0  0  0  0  0  0
  191.9520  176.4040  146.1370 C   0  0  0  0  0  2  0  0  0  0  0  0
  190.7520  175.2030  147.7820 C   0  0  0  0  0  2  0  0  0  0  0  0
  190.7820  177.1520  146.5760 N   0  0  0  0  0  0  0  0  0  0  0  0
  192.0410  175.1820  147.0100 C   0  0  0  0  0  2  0  0  0  0  0  0
  187.4510  177.3900  143.1730 C   0  0  1  0  0  3  0  0  0  0  0  0
  187.9020  177.5680  141.7570 C   0  0  0  0  0  0  0  0  0  0  0  0
  188.8140  178.4000  141.5030 O   0  0  0  0  0  0  0  0  0  0  0  0
  186.6190  177.4090  139.6630 C   0  0  0  0  0  1  0  0  0  0  0  0
  187.3250  176.8090  140.7360 O   0  0  0  0  0  0  0  0  0  0  0  0
  186.0680  176.7500  143.2540 C   0  0  0  0  0  2  0  0  0  0  0  0
  185.3170  177.3200  144.3600 N   0  0  0  0  0  2  0  0  0  0  0  0
  184.4080  178.2950  143.7840 C   0  0  0  0  0  2  0  0  0  0  0  0
  184.8390  179.6310  144.1490 N   0  0  0  0  0  1  0  0  0  0  0  0
  195.8070  172.3750  134.7310 F   0  0  0  0  0  0  0  0  0  0  0  0
  195.1950  170.8600  135.2390 S   0  0  0  0  0  0  0  0  0  0  0  0
  2 11  1  0  0  0  0
  2 29  1  0  0  0  0
  3 12  1  6  0  0  0
  3 19  1  0  0  0  0
  4 12  2  0  0  0  0
  5 13  1  6  0  0  0
  5 23  1  0  0  0  0
  6  5  1  0  0  0  0
  6 10  1  0  0  0  0
  8 31  1  0  0  0  0
  8 15  1  1  0  0  0
 10 27  1  0  0  0  0
 12 16  1  0  0  0  0
 14  9  1  0  0  0  0
 15 28  1  0  0  0  0
 16 34  1  6  0  0  0
 17 10  2  0  0  0  0
 17 22  1  0  0  0  0
 18 30  1  0  0  0  0
 18  1  1  0  0  0  0
 19 11  1  0  0  0  0
 20 25  1  0  0  0  0
 22 14  2  0  0  0  0
 23 13  1  6  0  0  0
 23  4  1  0  0  0  0
 23 20  1  0  0  0  0
 24 16  1  0  0  0  0
 25 24  1  0  0  0  0
 26  2  1  0  0  0  0
 27  9  2  0  0  0  0
 28  7  1  0  0  0  0
 28 21  2  0  0  0  0
 30 54  1  6  0  0  0
 30  8  1  0  0  0  0
 31  1  1  6  0  0  0
 31 17  1  0  0  0  0
 32  7  1  6  0  0  0
 32  2  1  0  0  0  0
 32  3  1  0  0  0  0
 33 28  2  0  0  0  0
 35 36  1  0  0  0  0
 35 34  2  0  0  0  0
 36 37  1  0  0  0  0
 37 38  1  0  0  0  0
 38 42  1  0  0  0  0
 39 41  1  0  0  0  0
 40 42  1  0  0  0  0
 40 43  1  0  0  0  0
 42 39  1  0  0  0  0
 43 41  1  0  0  0  0
 44 49  1  6  0  0  0
 44 36  1  0  0  0  0
 45 44  1  0  0  0  0
 46 45  2  0  0  0  0
 47 48  1  0  0  0  0
 48 45  1  0  0  0  0
 49 50  1  0  0  0  0
 51 52  1  0  0  0  0
 51 50  1  0  0  0  0
 53 54  1  0  0  0  0
M  END
>  <MODEL>
4

>  <REMARK>
 VINA RESULT:      -7.1      3.495      5.969
  Name = 
  12 active torsions:
  status: ('A' for Active; 'I' for Inactive)
    1  A    between atoms: C_8  and  N_51
    2  A    between atoms: C_9  and  N_21
    3  A    between atoms: C_9  and  C_38
    4  A    between atoms: C_18  and  C_23
    5  A    between atoms: C_18  and  O_24
    6  A    between atoms: N_21  and  C_23
    7  A    between atoms: N_21  and  C_42
    8  A    between atoms: C_23  and  C_45
    9  A    between atoms: C_27  and  C_30
   10  A    between atoms: C_38  and  N_48
   11  A    between atoms: C_45  and  N_51
   12  A    between atoms: C_47  and  S_49
                            x       y       z     vdW  Elec       q    Type
                         _______ _______ _______ _____ _____    ______ ____

>  <TORSDO>
F 12

$$$$
=
 OpenBabel11062419133D

 54 60  0  0  1  0  0  0  0  0999 V2000
  193.2610  170.2500  137.3690 N   0  0  0  0  0  2  0  0  0  0  0  0
  194.6890  174.4380  144.0930 C   0  0  0  0  0  0  0  0  0  0  0  0
  192.5050  173.9180  143.5940 C   0  0  2  0  0  3  0  0  0  0  0  0
  191.2720  173.5490  141.4670 C   0  0  0  0  0  3  0  0  0  0  0  0
  190.2550  172.1050  139.4950 C   0  0  2  0  0  3  0  0  0  0  0  0
  191.6010  171.5480  139.4090 N   0  0  0  0  0  2  0  0  0  0  0  0
  194.1860  173.8460  141.7310 C   0  0  0  0  0  2  0  0  0  0  0  0
  195.0210  171.1750  138.7340 C   0  0  2  0  0  3  0  0  0  0  0  0
  191.6930  168.8590  142.0030 C   0  0  0  0  0  3  0  0  0  0  0  0
  192.0240  170.3950  140.1480 C   0  0  0  0  0  0  0  0  0  0  0  0
  193.7540  175.6240  144.2960 C   0  0  0  0  0  2  0  0  0  0  0  0
  191.3220  173.4000  142.8090 C   0  0  0  0  0  0  0  0  0  0  0  0
  190.3000  173.5880  139.1580 C   0  0  0  0  0  2  0  0  0  0  0  0
  192.8520  168.1700  141.6470 C   0  0  0  0  0  3  0  0  0  0  0  0
  194.3920  172.3240  139.3670 N   0  0  0  0  0  2  0  0  0  0  0  0
  190.1660  172.8950  143.6480 C   0  0  2  0  0  3  0  0  0  0  0  0
  193.1920  169.6860  139.7790 C   0  0  0  0  0  0  0  0  0  0  0  0
  194.1490  170.9980  136.4840 C   0  0  0  0  0  2  0  0  0  0  0  0
  192.4780  175.3070  143.7840 O   0  0  0  0  0  0  0  0  0  0  0  0
  188.7010  173.4160  141.0940 C   0  0  0  0  0  2  0  0  0  0  0  0
  195.0300  171.2790  141.7240 O   0  0  0  0  0  0  0  0  0  0  0  0
  193.5940  168.5810  140.5390 C   0  0  0  0  0  3  0  0  0  0  0  0
  190.1110  173.1550  140.5930 C   0  0  2  0  0  0  0  0  0  0  0  0
  189.3050  171.8000  143.0010 C   0  0  0  0  0  2  0  0  0  0  0  0
  188.2250  172.3150  142.0400 C   0  0  0  0  0  2  0  0  0  0  0  0
  195.8930  174.8470  143.5430 F   0  0  0  0  0  0  0  0  0  0  0  0
  191.2830  169.9630  141.2560 C   0  0  0  0  0  3  0  0  0  0  0  0
  195.1030  172.5520  140.9260 S   0  0  0  0  0  0  0  0  0  0  0  0
  194.9240  173.8230  145.3090 F   0  0  0  0  0  0  0  0  0  0  0  0
  195.3190  171.5380  137.2980 C   0  0  2  0  0  3  0  0  0  0  0  0
  194.0370  170.0280  138.5790 C   0  0  1  0  0  3  0  0  0  0  0  0
  193.9100  173.5070  143.1950 C   0  0  1  0  0  3  0  0  0  0  0  0
  196.5360  172.9730  140.7770 O   0  0  0  0  0  0  0  0  0  0  0  0
  189.3800  174.0250  144.2360 C   0  0  0  0  0  3  0  0  0  0  0  0
  189.5110  175.2660  143.7770 C   0  0  0  0  0  3  0  0  0  0  0  0
  188.7470  176.3620  144.3080 N   0  0  0  0  0  0  0  0  0  0  0  0
  188.1980  177.4040  143.4480 C   0  0  0  0  0  2  0  0  0  0  0  0
  188.1010  176.9060  142.0160 C   0  0  0  0  0  2  0  0  0  0  0  0
  185.9470  177.3800  142.6580 N   0  0  0  0  0  2  0  0  0  0  0  0
  186.5040  177.5640  140.4400 C   0  0  0  0  0  2  0  0  0  0  0  0
  184.7830  177.9650  142.0110 C   0  0  0  0  0  2  0  0  0  0  0  0
  186.7040  176.7690  141.6430 N   0  0  0  0  0  0  0  0  0  0  0  0
  185.1760  178.2550  140.5890 C   0  0  0  0  0  2  0  0  0  0  0  0
  188.4210  176.4150  145.7300 C   0  0  1  0  0  3  0  0  0  0  0  0
  189.6190  176.8030  146.5390 C   0  0  0  0  0  0  0  0  0  0  0  0
  189.6440  177.9320  147.0980 O   0  0  0  0  0  0  0  0  0  0  0  0
  191.0830  175.4100  147.9450 C   0  0  0  0  0  1  0  0  0  0  0  0
  190.6880  175.9140  146.6790 O   0  0  0  0  0  0  0  0  0  0  0  0
  187.2350  177.3400  145.9880 C   0  0  0  0  0  2  0  0  0  0  0  0
  186.4520  176.8480  147.1080 N   0  0  0  0  0  2  0  0  0  0  0  0
  185.9310  178.0170  147.7950 C   0  0  0  0  0  2  0  0  0  0  0  0
  184.5910  178.3010  147.3170 N   0  0  0  0  0  1  0  0  0  0  0  0
  197.5520  170.8570  138.3210 F   0  0  0  0  0  0  0  0  0  0  0  0
  196.8530  170.7260  136.7650 S   0  0  0  0  0  0  0  0  0  0  0  0
  2 11  1  0  0  0  0
  2 29  1  0  0  0  0
  3 12  1  6  0  0  0
  3 19  1  0  0  0  0
  4 12  2  0  0  0  0
  5 13  1  6  0  0  0
  5 23  1  0  0  0  0
  6  5  1  0  0  0  0
  6 10  1  0  0  0  0
  8 15  1  1  0  0  0
 10 27  1  0  0  0  0
 12 16  1  0  0  0  0
 14  9  1  0  0  0  0
 15 28  1  0  0  0  0
 16 34  1  6  0  0  0
 17 10  2  0  0  0  0
 17 22  1  0  0  0  0
 18 30  1  0  0  0  0
 18  1  1  0  0  0  0
 19 11  1  0  0  0  0
 20 25  1  0  0  0  0
 22 14  2  0  0  0  0
 23 13  1  6  0  0  0
 23 20  1  0  0  0  0
 23  4  1  0  0  0  0
 24 16  1  0  0  0  0
 25 24  1  0  0  0  0
 26  2  1  0  0  0  0
 27  9  2  0  0  0  0
 28 21  2  0  0  0  0
 28  7  1  0  0  0  0
 30 54  1  6  0  0  0
 30  8  1  0  0  0  0
 31  1  1  6  0  0  0
 31  8  1  0  0  0  0
 31 17  1  0  0  0  0
 32  7  1  6  0  0  0
 32  3  1  0  0  0  0
 32  2  1  0  0  0  0
 33 28  2  0  0  0  0
 35 34  2  0  0  0  0
 35 36  1  0  0  0  0
 36 44  1  0  0  0  0
 37 36  1  0  0  0  0
 38 37  1  0  0  0  0
 40 43  1  0  0  0  0
 40 42  1  0  0  0  0
 41 39  1  0  0  0  0
 42 38  1  0  0  0  0
 42 39  1  0  0  0  0
 43 41  1  0  0  0  0
 44 49  1  6  0  0  0
 44 45  1  0  0  0  0
 45 48  1  0  0  0  0
 45 46  2  0  0  0  0
 48 47  1  0  0  0  0
 49 50  1  0  0  0  0
 50 51  1  0  0  0  0
 52 51  1  0  0  0  0
 54 53  1  0  0  0  0
M  END
>  <MODEL>
5

>  <REMARK>
 VINA RESULT:      -6.7      3.329      6.276
  Name = 
  12 active torsions:
  status: ('A' for Active; 'I' for Inactive)
    1  A    between atoms: C_8  and  N_51
    2  A    between atoms: C_9  and  N_21
    3  A    between atoms: C_9  and  C_38
    4  A    between atoms: C_18  and  C_23
    5  A    between atoms: C_18  and  O_24
    6  A    between atoms: N_21  and  C_23
    7  A    between atoms: N_21  and  C_42
    8  A    between atoms: C_23  and  C_45
    9  A    between atoms: C_27  and  C_30
   10  A    between atoms: C_38  and  N_48
   11  A    between atoms: C_45  and  N_51
   12  A    between atoms: C_47  and  S_49
                            x       y       z     vdW  Elec       q    Type
                         _______ _______ _______ _____ _____    ______ ____

>  <TORSDO>
F 12

$$$$
=
 OpenBabel11062419133D

 54 60  0  0  1  0  0  0  0  0999 V2000
  188.9920  175.2380  146.4280 N   0  0  0  0  0  2  0  0  0  0  0  0
  195.2850  175.8100  141.4420 C   0  0  0  0  0  0  0  0  0  0  0  0
  193.4830  174.5550  140.7580 C   0  0  2  0  0  3  0  0  0  0  0  0
  191.7600  173.2280  141.9630 C   0  0  0  0  0  3  0  0  0  0  0  0
  189.4140  172.8160  143.1180 C   0  0  2  0  0  3  0  0  0  0  0  0
  189.7330  174.0320  143.8590 N   0  0  0  0  0  2  0  0  0  0  0  0
  193.7280  175.0210  143.2140 C   0  0  0  0  0  2  0  0  0  0  0  0
  191.1600  176.2590  146.1600 C   0  0  2  0  0  3  0  0  0  0  0  0
  188.6970  176.8270  141.6060 C   0  0  0  0  0  3  0  0  0  0  0  0
  189.3760  175.3440  143.4090 C   0  0  0  0  0  0  0  0  0  0  0  0
  195.7090  174.4830  140.8220 C   0  0  0  0  0  2  0  0  0  0  0  0
  192.1500  173.8470  140.8270 C   0  0  0  0  0  0  0  0  0  0  0  0
  190.4240  171.7330  143.4660 C   0  0  0  0  0  2  0  0  0  0  0  0
  188.7170  177.9120  142.4820 C   0  0  0  0  0  3  0  0  0  0  0  0
  191.8800  175.3130  145.3220 N   0  0  0  0  0  2  0  0  0  0  0  0
  191.4130  173.7370  139.5070 C   0  0  2  0  0  3  0  0  0  0  0  0
  189.3810  176.4440  144.3010 C   0  0  0  0  0  0  0  0  0  0  0  0
  189.7410  174.9950  147.6570 C   0  0  0  0  0  2  0  0  0  0  0  0
  194.5680  173.6800  140.6130 O   0  0  0  0  0  0  0  0  0  0  0  0
  190.0700  171.5100  140.9830 C   0  0  0  0  0  2  0  0  0  0  0  0
  192.2940  177.2820  143.5870 O   0  0  0  0  0  0  0  0  0  0  0  0
  189.0540  177.7190  143.8220 C   0  0  0  0  0  3  0  0  0  0  0  0
  190.5000  172.4200  142.1220 C   0  0  2  0  0  0  0  0  0  0  0  0
  189.8810  173.6740  139.6060 C   0  0  0  0  0  2  0  0  0  0  0  0
  189.3130  172.2790  139.9020 C   0  0  0  0  0  2  0  0  0  0  0  0
  196.0800  176.1200  142.5340 F   0  0  0  0  0  0  0  0  0  0  0  0
  189.0230  175.5530  142.0690 C   0  0  0  0  0  3  0  0  0  0  0  0
  193.0030  176.1890  144.3410 S   0  0  0  0  0  0  0  0  0  0  0  0
  195.3890  176.8140  140.4970 F   0  0  0  0  0  0  0  0  0  0  0  0
  191.0940  175.6910  147.5570 C   0  0  2  0  0  3  0  0  0  0  0  0
  189.6930  176.3290  145.7700 C   0  0  1  0  0  3  0  0  0  0  0  0
  193.8340  175.5990  141.8030 C   0  0  1  0  0  3  0  0  0  0  0  0
  194.0770  176.7860  145.2030 O   0  0  0  0  0  0  0  0  0  0  0  0
  192.0140  172.6850  138.6290 C   0  0  0  0  0  3  0  0  0  0  0  0
  192.8130  173.0080  137.6170 C   0  0  0  0  0  3  0  0  0  0  0  0
  193.4220  172.0130  136.7770 N   0  0  0  0  0  0  0  0  0  0  0  0
  192.6460  171.2460  135.8090 C   0  0  0  0  0  2  0  0  0  0  0  0
  193.0110  169.7730  135.8900 C   0  0  0  0  0  2  0  0  0  0  0  0
  192.0760  168.8480  137.7740 N   0  0  0  0  0  2  0  0  0  0  0  0
  190.7020  169.8640  136.2420 C   0  0  0  0  0  2  0  0  0  0  0  0
  190.7570  168.8710  138.3870 C   0  0  0  0  0  2  0  0  0  0  0  0
  191.8770  169.0180  136.3920 N   0  0  0  0  0  0  0  0  0  0  0  0
  189.8700  169.6800  137.4820 C   0  0  0  0  0  2  0  0  0  0  0  0
  194.8660  171.8050  136.8050 C   0  0  1  0  0  3  0  0  0  0  0  0
  195.5890  172.9990  136.2630 C   0  0  0  0  0  0  0  0  0  0  0  0
  195.5630  173.2220  135.0230 O   0  0  0  0  0  0  0  0  0  0  0  0
  196.0210  175.2550  137.1480 C   0  0  0  0  0  1  0  0  0  0  0  0
  196.2700  173.8580  137.1290 O   0  0  0  0  0  0  0  0  0  0  0  0
  195.3420  171.4390  138.2080 C   0  0  0  0  0  2  0  0  0  0  0  0
  196.0460  170.1680  138.1820 N   0  0  0  0  0  2  0  0  0  0  0  0
  195.4320  169.3340  139.2000 C   0  0  0  0  0  2  0  0  0  0  0  0
  194.5200  170.1340  139.9950 N   0  0  0  0  0  1  0  0  0  0  0  0
  192.7060  177.5510  148.2150 F   0  0  0  0  0  0  0  0  0  0  0  0
  191.1730  177.0360  148.7740 S   0  0  0  0  0  0  0  0  0  0  0  0
  1 18  1  0  0  0  0
  2 32  1  0  0  0  0
  2 26  1  0  0  0  0
  3 19  1  1  0  0  0
  3 12  1  0  0  0  0
  3 32  1  0  0  0  0
  4 23  1  0  0  0  0
  5 13  1  1  0  0  0
  5  6  1  0  0  0  0
  7 28  1  0  0  0  0
  8 15  1  6  0  0  0
  8 30  1  0  0  0  0
  9 27  2  0  0  0  0
  9 14  1  0  0  0  0
 10  6  1  0  0  0  0
 10 17  2  0  0  0  0
 11  2  1  0  0  0  0
 12  4  2  0  0  0  0
 14 22  2  0  0  0  0
 16 34  1  1  0  0  0
 16 24  1  0  0  0  0
 16 12  1  0  0  0  0
 19 11  1  0  0  0  0
 21 28  2  0  0  0  0
 22 17  1  0  0  0  0
 23 20  1  6  0  0  0
 23  5  1  0  0  0  0
 23 13  1  0  0  0  0
 24 25  1  0  0  0  0
 25 20  1  0  0  0  0
 27 10  1  0  0  0  0
 28 33  2  0  0  0  0
 28 15  1  0  0  0  0
 29  2  1  0  0  0  0
 30 18  1  0  0  0  0
 30 54  1  1  0  0  0
 31 17  1  6  0  0  0
 31  8  1  0  0  0  0
 31  1  1  0  0  0  0
 32  7  1  1  0  0  0
 35 34  2  0  0  0  0
 36 44  1  0  0  0  0
 36 35  1  0  0  0  0
 37 38  1  0  0  0  0
 37 36  1  0  0  0  0
 38 42  1  0  0  0  0
 39 41  1  0  0  0  0
 40 42  1  0  0  0  0
 40 43  1  0  0  0  0
 42 39  1  0  0  0  0
 43 41  1  0  0  0  0
 44 49  1  1  0  0  0
 45 44  1  0  0  0  0
 45 48  1  0  0  0  0
 46 45  2  0  0  0  0
 48 47  1  0  0  0  0
 50 49  1  0  0  0  0
 50 51  1  0  0  0  0
 51 52  1  0  0  0  0
 53 54  1  0  0  0  0
M  END
>  <MODEL>
6

>  <REMARK>
 VINA RESULT:      -6.5      4.451      8.943
  Name = 
  12 active torsions:
  status: ('A' for Active; 'I' for Inactive)
    1  A    between atoms: C_8  and  N_51
    2  A    between atoms: C_9  and  N_21
    3  A    between atoms: C_9  and  C_38
    4  A    between atoms: C_18  and  C_23
    5  A    between atoms: C_18  and  O_24
    6  A    between atoms: N_21  and  C_23
    7  A    between atoms: N_21  and  C_42
    8  A    between atoms: C_23  and  C_45
    9  A    between atoms: C_27  and  C_30
   10  A    between atoms: C_38  and  N_48
   11  A    between atoms: C_45  and  N_51
   12  A    between atoms: C_47  and  S_49
                            x       y       z     vdW  Elec       q    Type
                         _______ _______ _______ _____ _____    ______ ____

>  <TORSDO>
F 12

$$$$
=
 OpenBabel11062419133D

 54 60  0  0  1  0  0  0  0  0999 V2000
  189.0690  175.2200  146.4600 N   0  0  0  0  0  2  0  0  0  0  0  0
  195.1540  175.7400  141.2160 C   0  0  0  0  0  0  0  0  0  0  0  0
  193.2910  174.5470  140.5870 C   0  0  2  0  0  3  0  0  0  0  0  0
  191.5870  173.2390  141.8380 C   0  0  0  0  0  3  0  0  0  0  0  0
  189.2830  172.8610  143.0860 C   0  0  2  0  0  3  0  0  0  0  0  0
  189.6660  174.0520  143.8370 N   0  0  0  0  0  2  0  0  0  0  0  0
  193.6540  174.9530  143.0380 C   0  0  0  0  0  2  0  0  0  0  0  0
  191.2490  176.1920  146.1190 C   0  0  2  0  0  3  0  0  0  0  0  0
  188.6080  176.9210  141.6890 C   0  0  0  0  0  3  0  0  0  0  0  0
  189.3240  175.3830  143.4300 C   0  0  0  0  0  0  0  0  0  0  0  0
  195.5150  174.4170  140.5510 C   0  0  0  0  0  2  0  0  0  0  0  0
  191.9440  173.8720  140.6990 C   0  0  0  0  0  0  0  0  0  0  0  0
  190.2790  171.7450  143.3660 C   0  0  0  0  0  2  0  0  0  0  0  0
  188.6940  177.9860  142.5860 C   0  0  0  0  0  3  0  0  0  0  0  0
  191.9070  175.2470  145.2300 N   0  0  0  0  0  2  0  0  0  0  0  0
  191.1480  173.8100  139.4110 C   0  0  2  0  0  3  0  0  0  0  0  0
  189.3970  176.4620  144.3430 C   0  0  0  0  0  0  0  0  0  0  0  0
  189.8640  174.9320  147.6500 C   0  0  0  0  0  2  0  0  0  0  0  0
  194.3450  173.6490  140.3760 O   0  0  0  0  0  0  0  0  0  0  0  0
  189.8120  171.5860  140.8980 C   0  0  0  0  0  2  0  0  0  0  0  0
  192.2980  177.2410  143.5200 O   0  0  0  0  0  0  0  0  0  0  0  0
  189.0840  177.7550  143.9060 C   0  0  0  0  0  3  0  0  0  0  0  0
  190.3140  172.4590  142.0350 C   0  0  2  0  0  0  0  0  0  0  0  0
  189.6210  173.7830  139.5750 C   0  0  0  0  0  2  0  0  0  0  0  0
  189.0290  172.3970  139.8670 C   0  0  0  0  0  2  0  0  0  0  0  0
  196.0030  176.0060  142.2790 F   0  0  0  0  0  0  0  0  0  0  0  0
  188.9200  175.6290  142.1110 C   0  0  0  0  0  3  0  0  0  0  0  0
  193.0090  176.1150  144.2190 S   0  0  0  0  0  0  0  0  0  0  0  0
  195.2430  176.7620  140.2890 F   0  0  0  0  0  0  0  0  0  0  0  0
  191.2280  175.5950  147.5050 C   0  0  2  0  0  3  0  0  0  0  0  0
  189.7690  176.3080  145.7950 C   0  0  1  0  0  3  0  0  0  0  0  0
  193.7150  175.5590  141.6360 C   0  0  1  0  0  3  0  0  0  0  0  0
  194.1350  176.6650  145.0460 O   0  0  0  0  0  0  0  0  0  0  0  0
  191.6830  172.7620  138.4860 C   0  0  0  0  0  3  0  0  0  0  0  0
  192.2740  173.0910  137.3410 C   0  0  0  0  0  3  0  0  0  0  0  0
  192.8180  172.1030  136.4500 N   0  0  0  0  0  0  0  0  0  0  0  0
  193.8590  172.4320  135.4830 C   0  0  0  0  0  2  0  0  0  0  0  0
  194.1050  173.9310  135.4640 C   0  0  0  0  0  2  0  0  0  0  0  0
  195.7150  175.5180  135.0560 N   0  0  0  0  0  2  0  0  0  0  0  0
  195.9640  174.1330  136.8680 C   0  0  0  0  0  2  0  0  0  0  0  0
  196.8660  176.0310  135.7840 C   0  0  0  0  0  2  0  0  0  0  0  0
  195.5350  174.1890  135.4780 N   0  0  0  0  0  0  0  0  0  0  0  0
  196.9530  175.2490  137.0650 C   0  0  0  0  0  2  0  0  0  0  0  0
  192.4020  170.7080  136.5500 C   0  0  1  0  0  3  0  0  0  0  0  0
  191.3820  170.3780  135.5050 C   0  0  0  0  0  0  0  0  0  0  0  0
  191.7210  169.6770  134.5140 O   0  0  0  0  0  0  0  0  0  0  0  0
  189.5820  171.9470  134.9080 C   0  0  0  0  0  1  0  0  0  0  0  0
  190.0680  170.8340  135.6390 O   0  0  0  0  0  0  0  0  0  0  0  0
  193.6030  169.7700  136.4900 C   0  0  0  0  0  2  0  0  0  0  0  0
  194.1460  169.5640  137.8220 N   0  0  0  0  0  2  0  0  0  0  0  0
  193.0230  169.2280  138.6790 C   0  0  0  0  0  2  0  0  0  0  0  0
  193.2060  169.8470  139.9780 N   0  0  0  0  0  1  0  0  0  0  0  0
  192.8260  177.5110  148.0230 F   0  0  0  0  0  0  0  0  0  0  0  0
  191.3960  176.9120  148.7450 S   0  0  0  0  0  0  0  0  0  0  0  0
  1 18  1  0  0  0  0
  2 32  1  0  0  0  0
  2 26  1  0  0  0  0
  3 19  1  1  0  0  0
  3 12  1  0  0  0  0
  3 32  1  0  0  0  0
  4 23  1  0  0  0  0
  5 13  1  1  0  0  0
  5  6  1  0  0  0  0
  7 28  1  0  0  0  0
  8 15  1  6  0  0  0
  8 30  1  0  0  0  0
  9 27  2  0  0  0  0
  9 14  1  0  0  0  0
 10  6  1  0  0  0  0
 10 17  2  0  0  0  0
 11  2  1  0  0  0  0
 12  4  2  0  0  0  0
 14 22  2  0  0  0  0
 16 34  1  1  0  0  0
 16 24  1  0  0  0  0
 16 12  1  0  0  0  0
 19 11  1  0  0  0  0
 21 28  2  0  0  0  0
 22 17  1  0  0  0  0
 23 20  1  6  0  0  0
 23  5  1  0  0  0  0
 23 13  1  0  0  0  0
 24 25  1  0  0  0  0
 25 20  1  0  0  0  0
 27 10  1  0  0  0  0
 28 33  2  0  0  0  0
 28 15  1  0  0  0  0
 29  2  1  0  0  0  0
 30 18  1  0  0  0  0
 30 54  1  1  0  0  0
 31 17  1  6  0  0  0
 31  8  1  0  0  0  0
 31  1  1  0  0  0  0
 32  7  1  1  0  0  0
 35 34  2  0  0  0  0
 36 44  1  0  0  0  0
 36 35  1  0  0  0  0
 37 36  1  0  0  0  0
 38 42  1  0  0  0  0
 38 37  1  0  0  0  0
 39 42  1  0  0  0  0
 39 41  1  0  0  0  0
 40 43  1  0  0  0  0
 41 43  1  0  0  0  0
 42 40  1  0  0  0  0
 44 49  1  6  0  0  0
 45 48  1  0  0  0  0
 45 44  1  0  0  0  0
 46 45  2  0  0  0  0
 47 48  1  0  0  0  0
 49 50  1  0  0  0  0
 50 51  1  0  0  0  0
 51 52  1  0  0  0  0
 53 54  1  0  0  0  0
M  END
>  <MODEL>
7

>  <REMARK>
 VINA RESULT:      -6.5      4.695      8.791
  Name = 
  12 active torsions:
  status: ('A' for Active; 'I' for Inactive)
    1  A    between atoms: C_8  and  N_51
    2  A    between atoms: C_9  and  N_21
    3  A    between atoms: C_9  and  C_38
    4  A    between atoms: C_18  and  C_23
    5  A    between atoms: C_18  and  O_24
    6  A    between atoms: N_21  and  C_23
    7  A    between atoms: N_21  and  C_42
    8  A    between atoms: C_23  and  C_45
    9  A    between atoms: C_27  and  C_30
   10  A    between atoms: C_38  and  N_48
   11  A    between atoms: C_45  and  N_51
   12  A    between atoms: C_47  and  S_49
                            x       y       z     vdW  Elec       q    Type
                         _______ _______ _______ _____ _____    ______ ____

>  <TORSDO>
F 12

$$$$
=
 OpenBabel11062419133D

 54 60  0  0  1  0  0  0  0  0999 V2000
  192.4930  170.2170  137.2120 N   0  0  0  0  0  2  0  0  0  0  0  0
  194.6420  174.6910  143.5480 C   0  0  0  0  0  0  0  0  0  0  0  0
  192.4050  174.2440  143.2570 C   0  0  2  0  0  3  0  0  0  0  0  0
  190.9850  173.8180  141.2610 C   0  0  0  0  0  3  0  0  0  0  0  0
  189.7510  172.3170  139.4630 C   0  0  2  0  0  3  0  0  0  0  0  0
  191.0620  171.6960  139.3010 N   0  0  0  0  0  2  0  0  0  0  0  0
  193.9220  173.9960  141.2720 C   0  0  0  0  0  2  0  0  0  0  0  0
  194.3950  171.1340  138.3750 C   0  0  2  0  0  3  0  0  0  0  0  0
  191.2590  169.1490  142.0290 C   0  0  0  0  0  3  0  0  0  0  0  0
  191.4970  170.5670  140.0680 C   0  0  0  0  0  0  0  0  0  0  0  0
  193.7760  175.9270  143.7570 C   0  0  0  0  0  2  0  0  0  0  0  0
  191.1410  173.7390  142.6010 C   0  0  0  0  0  0  0  0  0  0  0  0
  189.8280  173.7770  139.0390 C   0  0  0  0  0  2  0  0  0  0  0  0
  192.3550  168.3900  141.6210 C   0  0  0  0  0  3  0  0  0  0  0  0
  193.8680  172.3420  138.9900 N   0  0  0  0  0  2  0  0  0  0  0  0
  190.0390  173.3320  143.5580 C   0  0  2  0  0  3  0  0  0  0  0  0
  192.6010  169.7860  139.6470 C   0  0  0  0  0  0  0  0  0  0  0  0
  193.3340  170.8750  136.2170 C   0  0  0  0  0  2  0  0  0  0  0  0
  192.4510  175.6410  143.3690 O   0  0  0  0  0  0  0  0  0  0  0  0
  188.3890  173.7810  141.1050 C   0  0  0  0  0  2  0  0  0  0  0  0
  194.6570  171.3970  141.3440 O   0  0  0  0  0  0  0  0  0  0  0  0
  193.0190  168.7070  140.4350 C   0  0  0  0  0  3  0  0  0  0  0  0
  189.7410  173.4300  140.5080 C   0  0  2  0  0  0  0  0  0  0  0  0
  189.0830  172.2440  143.0460 C   0  0  0  0  0  2  0  0  0  0  0  0
  187.9490  172.7550  142.1470 C   0  0  0  0  0  2  0  0  0  0  0  0
  195.8120  175.0150  142.8810 F   0  0  0  0  0  0  0  0  0  0  0  0
  190.8330  170.2290  141.2550 C   0  0  0  0  0  3  0  0  0  0  0  0
  194.7150  172.6210  140.4720 S   0  0  0  0  0  0  0  0  0  0  0  0
  194.9520  174.1320  144.7750 F   0  0  0  0  0  0  0  0  0  0  0  0
  194.5880  171.4040  136.9020 C   0  0  2  0  0  3  0  0  0  0  0  0
  193.3560  170.0250  138.3660 C   0  0  1  0  0  3  0  0  0  0  0  0
  193.7540  173.7490  142.7710 C   0  0  1  0  0  3  0  0  0  0  0  0
  196.1470  172.9680  140.1840 O   0  0  0  0  0  0  0  0  0  0  0  0
  189.3510  174.5270  144.1420 C   0  0  0  0  0  3  0  0  0  0  0  0
  189.6680  175.7590  143.7580 C   0  0  0  0  0  3  0  0  0  0  0  0
  189.0030  176.9190  144.2850 N   0  0  0  0  0  0  0  0  0  0  0  0
  188.1580  177.7660  143.4500 C   0  0  0  0  0  2  0  0  0  0  0  0
  186.9790  176.9700  142.9170 C   0  0  0  0  0  2  0  0  0  0  0  0
  185.0670  177.3950  144.1180 N   0  0  0  0  0  2  0  0  0  0  0  0
  186.2060  179.1590  143.1930 C   0  0  0  0  0  2  0  0  0  0  0  0
  184.4140  178.5910  144.6260 C   0  0  0  0  0  2  0  0  0  0  0  0
  185.7780  177.7860  142.9690 N   0  0  0  0  0  0  0  0  0  0  0  0
  185.2390  179.7630  144.1740 C   0  0  0  0  0  2  0  0  0  0  0  0
  189.0840  177.2350  145.7080 C   0  0  1  0  0  3  0  0  0  0  0  0
  187.7330  177.1550  146.3490 C   0  0  0  0  0  0  0  0  0  0  0  0
  187.1910  176.0280  146.5040 O   0  0  0  0  0  0  0  0  0  0  0  0
  186.3010  178.3460  147.9580 C   0  0  0  0  0  1  0  0  0  0  0  0
  187.0930  178.3190  146.7820 O   0  0  0  0  0  0  0  0  0  0  0  0
  190.1020  176.3440  146.4120 C   0  0  0  0  0  2  0  0  0  0  0  0
  191.3480  177.0660  146.6080 N   0  0  0  0  0  2  0  0  0  0  0  0
  192.2800  176.1300  147.2110 C   0  0  0  0  0  2  0  0  0  0  0  0
  193.6370  176.5250  146.8880 N   0  0  0  0  0  1  0  0  0  0  0  0
  197.1190  171.4720  137.1940 F   0  0  0  0  0  0  0  0  0  0  0  0
  196.0390  170.4970  136.2940 S   0  0  0  0  0  0  0  0  0  0  0  0
  2 11  1  0  0  0  0
  2 29  1  0  0  0  0
  3 12  1  6  0  0  0
  3 19  1  0  0  0  0
  4 12  2  0  0  0  0
  5 13  1  6  0  0  0
  5 23  1  0  0  0  0
  6  5  1  0  0  0  0
  6 10  1  0  0  0  0
  8 15  1  1  0  0  0
 10 27  1  0  0  0  0
 12 16  1  0  0  0  0
 14  9  1  0  0  0  0
 15 28  1  0  0  0  0
 16 34  1  6  0  0  0
 17 10  2  0  0  0  0
 17 22  1  0  0  0  0
 18 30  1  0  0  0  0
 18  1  1  0  0  0  0
 19 11  1  0  0  0  0
 20 25  1  0  0  0  0
 22 14  2  0  0  0  0
 23 13  1  6  0  0  0
 23 20  1  0  0  0  0
 23  4  1  0  0  0  0
 24 16  1  0  0  0  0
 25 24  1  0  0  0  0
 26  2  1  0  0  0  0
 27  9  2  0  0  0  0
 28  7  1  0  0  0  0
 28 21  2  0  0  0  0
 30 54  1  6  0  0  0
 30  8  1  0  0  0  0
 31  1  1  6  0  0  0
 31  8  1  0  0  0  0
 31 17  1  0  0  0  0
 32  7  1  6  0  0  0
 32  3  1  0  0  0  0
 32  2  1  0  0  0  0
 33 28  2  0  0  0  0
 35 34  2  0  0  0  0
 35 36  1  0  0  0  0
 36 44  1  0  0  0  0
 37 36  1  0  0  0  0
 38 42  1  0  0  0  0
 38 37  1  0  0  0  0
 39 41  1  0  0  0  0
 40 43  1  0  0  0  0
 42 40  1  0  0  0  0
 42 39  1  0  0  0  0
 43 41  1  0  0  0  0
 44 45  1  0  0  0  0
 44 49  1  1  0  0  0
 45 46  2  0  0  0  0
 45 48  1  0  0  0  0
 48 47  1  0  0  0  0
 49 50  1  0  0  0  0
 50 51  1  0  0  0  0
 52 51  1  0  0  0  0
 54 53  1  0  0  0  0
M  END
>  <MODEL>
8

>  <REMARK>
 VINA RESULT:      -6.4      3.444      6.535
  Name = 
  12 active torsions:
  status: ('A' for Active; 'I' for Inactive)
    1  A    between atoms: C_8  and  N_51
    2  A    between atoms: C_9  and  N_21
    3  A    between atoms: C_9  and  C_38
    4  A    between atoms: C_18  and  C_23
    5  A    between atoms: C_18  and  O_24
    6  A    between atoms: N_21  and  C_23
    7  A    between atoms: N_21  and  C_42
    8  A    between atoms: C_23  and  C_45
    9  A    between atoms: C_27  and  C_30
   10  A    between atoms: C_38  and  N_48
   11  A    between atoms: C_45  and  N_51
   12  A    between atoms: C_47  and  S_49
                            x       y       z     vdW  Elec       q    Type
                         _______ _______ _______ _____ _____    ______ ____

>  <TORSDO>
F 12

$$$$
=
 OpenBabel11062419133D

 54 60  0  0  1  0  0  0  0  0999 V2000
  188.9570  178.0760  143.6740 N   0  0  0  0  0  2  0  0  0  0  0  0
  191.2490  170.5000  142.2140 C   0  0  0  0  0  0  0  0  0  0  0  0
  192.7600  171.9030  143.2320 C   0  0  2  0  0  3  0  0  0  0  0  0
  193.1450  174.3580  143.1550 C   0  0  0  0  0  3  0  0  0  0  0  0
  192.8840  176.8610  143.9780 C   0  0  2  0  0  3  0  0  0  0  0  0
  191.4560  176.5650  143.9450 N   0  0  0  0  0  2  0  0  0  0  0  0
  190.8500  172.9430  141.9780 C   0  0  0  0  0  2  0  0  0  0  0  0
  188.1990  175.9630  142.7960 C   0  0  2  0  0  3  0  0  0  0  0  0
  190.7490  174.8890  147.2090 C   0  0  0  0  0  3  0  0  0  0  0  0
  190.7370  176.0340  145.0640 C   0  0  0  0  0  0  0  0  0  0  0  0
  192.6430  170.3790  141.6110 C   0  0  0  0  0  2  0  0  0  0  0  0
  193.3490  173.1800  143.7850 C   0  0  0  0  0  0  0  0  0  0  0  0
  193.4510  176.7750  142.5680 C   0  0  0  0  0  2  0  0  0  0  0  0
  189.3560  174.9380  147.2500 C   0  0  0  0  0  3  0  0  0  0  0  0
  189.4160  175.3510  142.2850 N   0  0  0  0  0  2  0  0  0  0  0  0
  194.3030  172.9970  144.9480 C   0  0  2  0  0  3  0  0  0  0  0  0
  189.3230  176.0960  145.1140 C   0  0  0  0  0  0  0  0  0  0  0  0
  188.3340  178.3420  142.3810 C   0  0  0  0  0  2  0  0  0  0  0  0
  193.4680  171.3980  142.1320 O   0  0  0  0  0  0  0  0  0  0  0  0
  195.1950  175.6980  144.0290 C   0  0  0  0  0  2  0  0  0  0  0  0
  188.9420  173.2680  143.8650 O   0  0  0  0  0  0  0  0  0  0  0  0
  188.6490  175.5410  146.2090 C   0  0  0  0  0  3  0  0  0  0  0  0
  193.7510  175.6750  143.5600 C   0  0  2  0  0  0  0  0  0  0  0  0
  194.3820  174.1730  145.9330 C   0  0  0  0  0  2  0  0  0  0  0  0
  195.3180  175.3110  145.5010 C   0  0  0  0  0  2  0  0  0  0  0  0
  190.2780  170.4310  141.2280 F   0  0  0  0  0  0  0  0  0  0  0  0
  191.4330  175.4350  146.1230 C   0  0  0  0  0  3  0  0  0  0  0  0
  189.2800  173.6350  142.4460 S   0  0  0  0  0  0  0  0  0  0  0  0
  191.0510  169.4800  143.1270 F   0  0  0  0  0  0  0  0  0  0  0  0
  187.7740  177.0380  141.8260 C   0  0  2  0  0  3  0  0  0  0  0  0
  188.4760  176.7600  144.0600 C   0  0  1  0  0  3  0  0  0  0  0  0
  191.2740  171.8280  142.9320 C   0  0  1  0  0  3  0  0  0  0  0  0
  188.2120  173.1190  141.5250 O   0  0  0  0  0  0  0  0  0  0  0  0
  195.6350  172.4900  144.4900 C   0  0  0  0  0  3  0  0  0  0  0  0
  195.8490  172.1710  143.2180 C   0  0  0  0  0  3  0  0  0  0  0  0
  197.1270  171.7070  142.7510 N   0  0  0  0  0  0  0  0  0  0  0  0
  197.9110  170.7310  143.5010 C   0  0  0  0  0  2  0  0  0  0  0  0
  197.2800  169.3540  143.3920 C   0  0  0  0  0  2  0  0  0  0  0  0
  197.5750  169.7480  145.6360 N   0  0  0  0  0  2  0  0  0  0  0  0
  195.6000  168.8190  144.9280 C   0  0  0  0  0  2  0  0  0  0  0  0
  196.7170  169.7110  146.8110 C   0  0  0  0  0  2  0  0  0  0  0  0
  197.0410  168.8210  144.7230 N   0  0  0  0  0  0  0  0  0  0  0  0
  195.3600  169.2650  146.3450 C   0  0  0  0  0  2  0  0  0  0  0  0
  197.6400  172.1340  141.4530 C   0  0  1  0  0  3  0  0  0  0  0  0
  197.1360  171.2440  140.3600 C   0  0  0  0  0  0  0  0  0  0  0  0
  197.9120  170.3860  139.8590 O   0  0  0  0  0  0  0  0  0  0  0  0
  195.4320  170.9750  138.6050 C   0  0  0  0  0  1  0  0  0  0  0  0
  195.8180  171.3580  139.9150 O   0  0  0  0  0  0  0  0  0  0  0  0
  197.3140  173.6010  141.1890 C   0  0  0  0  0  2  0  0  0  0  0  0
  197.9370  174.0370  139.9510 N   0  0  0  0  0  2  0  0  0  0  0  0
  197.7890  175.4800  139.8980 C   0  0  0  0  0  2  0  0  0  0  0  0
  196.6790  175.8830  140.7410 N   0  0  0  0  0  1  0  0  0  0  0  0
  185.9470  178.6930  142.4730 F   0  0  0  0  0  0  0  0  0  0  0  0
  185.9610  177.1340  141.7690 S   0  0  0  0  0  0  0  0  0  0  0  0
  2 32  1  0  0  0  0
  2 29  1  0  0  0  0
  3 19  1  6  0  0  0
  3 12  1  0  0  0  0
  4 23  1  0  0  0  0
  4 12  2  0  0  0  0
  5 13  1  6  0  0  0
  6  5  1  0  0  0  0
  6 10  1  0  0  0  0
  7 28  1  0  0  0  0
  8 15  1  6  0  0  0
  8 31  1  0  0  0  0
  9 14  1  0  0  0  0
 10 17  2  0  0  0  0
 10 27  1  0  0  0  0
 11 19  1  0  0  0  0
 11  2  1  0  0  0  0
 12 16  1  0  0  0  0
 15 28  1  0  0  0  0
 16 34  1  6  0  0  0
 16 24  1  0  0  0  0
 17 22  1  0  0  0  0
 18  1  1  0  0  0  0
 20 25  1  0  0  0  0
 22 14  2  0  0  0  0
 23 13  1  6  0  0  0
 23  5  1  0  0  0  0
 23 20  1  0  0  0  0
 25 24  1  0  0  0  0
 26  2  1  0  0  0  0
 27  9  2  0  0  0  0
 28 21  2  0  0  0  0
 30 54  1  1  0  0  0
 30 18  1  0  0  0  0
 30  8  1  0  0  0  0
 31  1  1  6  0  0  0
 31 17  1  0  0  0  0
 32  7  1  6  0  0  0
 32  3  1  0  0  0  0
 33 28  2  0  0  0  0
 35 34  2  0  0  0  0
 36 35  1  0  0  0  0
 36 37  1  0  0  0  0
 38 37  1  0  0  0  0
 38 42  1  0  0  0  0
 39 41  1  0  0  0  0
 40 43  1  0  0  0  0
 42 40  1  0  0  0  0
 42 39  1  0  0  0  0
 43 41  1  0  0  0  0
 44 49  1  6  0  0  0
 44 36  1  0  0  0  0
 45 44  1  0  0  0  0
 46 45  2  0  0  0  0
 47 48  1  0  0  0  0
 48 45  1  0  0  0  0
 50 49  1  0  0  0  0
 51 50  1  0  0  0  0
 51 52  1  0  0  0  0
 54 53  1  0  0  0  0
M  END
>  <MODEL>
9

>  <REMARK>
 VINA RESULT:      -6.4      3.160      9.306
  Name = 
  12 active torsions:
  status: ('A' for Active; 'I' for Inactive)
    1  A    between atoms: C_8  and  N_51
    2  A    between atoms: C_9  and  N_21
    3  A    between atoms: C_9  and  C_38
    4  A    between atoms: C_18  and  C_23
    5  A    between atoms: C_18  and  O_24
    6  A    between atoms: N_21  and  C_23
    7  A    between atoms: N_21  and  C_42
    8  A    between atoms: C_23  and  C_45
    9  A    between atoms: C_27  and  C_30
   10  A    between atoms: C_38  and  N_48
   11  A    between atoms: C_45  and  N_51
   12  A    between atoms: C_47  and  S_49
                            x       y       z     vdW  Elec       q    Type
                         _______ _______ _______ _____ _____    ______ ____

>  <TORSDO>
F 12

$$$$
