=
 OpenBabel11062419553D

 28 32  0  0  1  0  0  0  0  0999 V2000
  191.4950  173.5930  142.0970 C   0  0  0  0  0  3  0  0  0  0  0  0
  187.1510  176.0550  142.1980 C   0  0  0  0  0  3  0  0  0  0  0  0
  187.5910  176.0840  143.5210 C   0  0  0  0  0  0  0  0  0  0  0  0
  188.7970  175.4700  143.8550 C   0  0  0  0  0  3  0  0  0  0  0  0
  189.8140  174.2100  140.5400 C   0  0  0  0  0  3  0  0  0  0  0  0
  189.0770  174.8290  141.5460 C   0  0  0  0  0  0  0  0  0  0  0  0
  190.9960  173.6110  140.8340 N   0  0  0  0  0  0  0  0  0  0  0  0
  187.8950  175.4320  141.2470 N   0  0  0  0  0  0  0  0  0  0  0  0
  190.8040  174.1980  143.1610 C   0  0  0  0  0  0  0  0  0  0  0  0
  189.5660  174.8290  142.8730 C   0  0  0  0  0  0  0  0  0  0  0  0
  186.8250  176.7470  144.5190 N   0  0  0  0  0  0  0  0  0  0  0  0
  185.1560  178.5870  147.2820 C   0  0  0  0  0  2  0  0  0  0  0  0
  186.5740  178.4680  147.8330 C   0  0  0  0  0  2  0  0  0  0  0  0
  187.3630  177.6480  146.8240 C   0  0  0  0  0  2  0  0  0  0  0  0
  185.6660  176.8160  145.4630 C   0  0  2  0  0  3  0  0  0  0  0  0
  185.2210  178.2070  145.8100 C   0  0  2  0  0  0  0  0  0  0  0  0
  186.6330  177.8440  145.5190 C   0  0  2  0  0  0  0  0  0  0  0  0
  184.5860  179.0640  144.7280 C   0  0  0  0  0  2  0  0  0  0  0  0
  185.4800  180.0500  144.3070 O   0  0  0  0  0  1  0  0  0  0  0  0
  191.9350  175.3100  145.1520 N   0  0  0  0  0  2  0  0  0  0  0  0
  191.4920  173.0260  145.1120 O   0  0  0  0  0  0  0  0  0  0  0  0
  191.4190  174.1360  144.5140 C   0  0  0  0  0  0  0  0  0  0  0  0
  192.5900  175.2880  146.4530 C   0  0  1  0  0  3  0  0  0  0  0  0
  195.0530  175.1410  145.6770 C   0  0  0  0  0  1  0  0  0  0  0  0
  194.1870  177.0010  146.8220 O   0  0  0  0  0  0  0  0  0  0  0  0
  193.9600  175.8960  146.3550 C   0  0  0  0  0  0  0  0  0  0  0  0
  191.7340  176.0450  147.4580 C   0  0  0  0  0  2  0  0  0  0  0  0
  190.4120  175.3300  147.6730 C   0  0  0  0  0  1  0  0  0  0  0  0
  1  9  1  0  0  0  0
  2  3  1  0  0  0  0
  3  4  2  0  0  0  0
  3 11  1  0  0  0  0
  5  7  1  0  0  0  0
  5  6  2  0  0  0  0
  6 10  1  0  0  0  0
  7  1  2  0  0  0  0
  8  6  1  0  0  0  0
  8  2  2  0  0  0  0
  9 22  1  0  0  0  0
 10  9  2  0  0  0  0
 10  4  1  0  0  0  0
 11 17  1  0  0  0  0
 12 13  1  0  0  0  0
 14 13  1  0  0  0  0
 15 11  1  6  0  0  0
 15 17  1  0  0  0  0
 15 16  1  0  0  0  0
 16 18  1  6  0  0  0
 16 12  1  0  0  0  0
 17 16  1  0  0  0  0
 17 14  1  1  0  0  0
 19 18  1  0  0  0  0
 20 23  1  0  0  0  0
 22 21  2  0  0  0  0
 22 20  1  0  0  0  0
 23 27  1  1  0  0  0
 24 26  1  0  0  0  0
 26 23  1  0  0  0  0
 26 25  2  0  0  0  0
 27 28  1  0  0  0  0
M  END
>  <MODEL>
1

>  <REMARK>
 VINA RESULT:      -7.2      0.000      0.000
  Name = 
  6 active torsions:
  status: ('A' for Active; 'I' for Inactive)
    1  A    between atoms: C_1  and  C_23
    2  A    between atoms: C_6  and  N_9
    3  A    between atoms: C_7  and  N_8
    4  A    between atoms: C_7  and  C_14
    5  A    between atoms: C_7  and  C_27
    6  A    between atoms: C_25  and  C_26
                            x       y       z     vdW  Elec       q    Type
                         _______ _______ _______ _____ _____    ______ ____

>  <TORSDO>
F 6

$$$$
=
 OpenBabel11062419553D

 28 32  0  0  1  0  0  0  0  0999 V2000
  191.6790  173.2970  142.1190 C   0  0  0  0  0  3  0  0  0  0  0  0
  187.4560  175.9140  141.6130 C   0  0  0  0  0  3  0  0  0  0  0  0
  187.8160  176.1010  142.9470 C   0  0  0  0  0  0  0  0  0  0  0  0
  188.9700  175.4910  143.4370 C   0  0  0  0  0  3  0  0  0  0  0  0
  190.1270  173.7660  140.3880 C   0  0  0  0  0  3  0  0  0  0  0  0
  189.3600  174.5400  141.2540 C   0  0  0  0  0  0  0  0  0  0  0  0
  191.2600  173.1670  140.8330 N   0  0  0  0  0  0  0  0  0  0  0  0
  188.2270  175.1440  140.8010 N   0  0  0  0  0  0  0  0  0  0  0  0
  190.9540  174.0620  143.0480 C   0  0  0  0  0  0  0  0  0  0  0  0
  189.7670  174.6970  142.5990 C   0  0  0  0  0  0  0  0  0  0  0  0
  187.0220  176.9190  143.7980 N   0  0  0  0  0  0  0  0  0  0  0  0
  184.6660  179.0080  145.7680 C   0  0  0  0  0  2  0  0  0  0  0  0
  183.9520  178.9650  144.4200 C   0  0  0  0  0  2  0  0  0  0  0  0
  184.8610  178.1970  143.4730 C   0  0  0  0  0  2  0  0  0  0  0  0
  186.8410  178.1020  144.6960 C   0  0  2  0  0  3  0  0  0  0  0  0
  185.7580  177.9490  145.7230 C   0  0  2  0  0  0  0  0  0  0  0  0
  185.7040  177.3290  144.3740 C   0  0  2  0  0  0  0  0  0  0  0  0
  185.9470  176.9380  146.8420 C   0  0  0  0  0  2  0  0  0  0  0  0
  186.0400  177.5920  148.0710 O   0  0  0  0  0  1  0  0  0  0  0  0
  192.3360  175.2340  144.8360 N   0  0  0  0  0  2  0  0  0  0  0  0
  191.1760  173.2660  145.2770 O   0  0  0  0  0  0  0  0  0  0  0  0
  191.4820  174.1560  144.4360 C   0  0  0  0  0  0  0  0  0  0  0  0
  192.9160  175.3390  146.1680 C   0  0  1  0  0  3  0  0  0  0  0  0
  194.5780  177.2980  145.8660 C   0  0  0  0  0  1  0  0  0  0  0  0
  195.2720  175.0770  146.1880 O   0  0  0  0  0  0  0  0  0  0  0  0
  194.3280  175.8440  146.0810 C   0  0  0  0  0  0  0  0  0  0  0  0
  192.0610  176.2690  147.0150 C   0  0  0  0  0  2  0  0  0  0  0  0
  191.2080  175.4700  147.9850 C   0  0  0  0  0  1  0  0  0  0  0  0
  1  9  1  0  0  0  0
  2  3  1  0  0  0  0
  3  4  2  0  0  0  0
  3 11  1  0  0  0  0
  5  7  1  0  0  0  0
  5  6  2  0  0  0  0
  6 10  1  0  0  0  0
  7  1  2  0  0  0  0
  8  6  1  0  0  0  0
  8  2  2  0  0  0  0
  9 22  1  0  0  0  0
 10  9  2  0  0  0  0
 10  4  1  0  0  0  0
 11 17  1  0  0  0  0
 13 12  1  0  0  0  0
 14 13  1  0  0  0  0
 15 11  1  1  0  0  0
 15 16  1  0  0  0  0
 16 12  1  0  0  0  0
 16 18  1  1  0  0  0
 17 14  1  6  0  0  0
 17 15  1  0  0  0  0
 17 16  1  0  0  0  0
 18 19  1  0  0  0  0
 20 23  1  0  0  0  0
 22 20  1  0  0  0  0
 22 21  2  0  0  0  0
 23 27  1  1  0  0  0
 24 26  1  0  0  0  0
 26 23  1  0  0  0  0
 26 25  2  0  0  0  0
 27 28  1  0  0  0  0
M  END
>  <MODEL>
2

>  <REMARK>
 VINA RESULT:      -6.8      1.255      1.816
  Name = 
  6 active torsions:
  status: ('A' for Active; 'I' for Inactive)
    1  A    between atoms: C_1  and  C_23
    2  A    between atoms: C_6  and  N_9
    3  A    between atoms: C_7  and  N_8
    4  A    between atoms: C_7  and  C_14
    5  A    between atoms: C_7  and  C_27
    6  A    between atoms: C_25  and  C_26
                            x       y       z     vdW  Elec       q    Type
                         _______ _______ _______ _____ _____    ______ ____

>  <TORSDO>
F 6

$$$$
=
 OpenBabel11062419553D

 28 32  0  0  1  0  0  0  0  0999 V2000
  192.5040  173.5110  144.6820 C   0  0  0  0  0  3  0  0  0  0  0  0
  189.7900  177.0000  147.0060 C   0  0  0  0  0  3  0  0  0  0  0  0
  188.9330  176.4960  146.0280 C   0  0  0  0  0  0  0  0  0  0  0  0
  189.3840  175.4870  145.1770 C   0  0  0  0  0  3  0  0  0  0  0  0
  192.8110  175.0420  146.4680 C   0  0  0  0  0  3  0  0  0  0  0  0
  191.5140  175.5240  146.3090 C   0  0  0  0  0  0  0  0  0  0  0  0
  193.2750  174.0550  145.6600 N   0  0  0  0  0  0  0  0  0  0  0  0
  191.0520  176.5090  147.1240 N   0  0  0  0  0  0  0  0  0  0  0  0
  191.1870  173.9490  144.4640 C   0  0  0  0  0  0  0  0  0  0  0  0
  190.6850  174.9800  145.3000 C   0  0  0  0  0  0  0  0  0  0  0  0
  187.6060  176.9930  145.9090 N   0  0  0  0  0  0  0  0  0  0  0  0
  184.1920  178.4560  145.9400 C   0  0  0  0  0  2  0  0  0  0  0  0
  184.5740  178.5910  147.4120 C   0  0  0  0  0  2  0  0  0  0  0  0
  185.9420  177.9440  147.5640 C   0  0  0  0  0  2  0  0  0  0  0  0
  186.1680  176.8360  145.5290 C   0  0  2  0  0  3  0  0  0  0  0  0
  185.4670  178.1160  145.1820 C   0  0  2  0  0  0  0  0  0  0  0  0
  186.5560  178.0210  146.1880 C   0  0  2  0  0  0  0  0  0  0  0  0
  185.8770  178.8580  143.9210 C   0  0  0  0  0  2  0  0  0  0  0  0
  185.6030  180.2200  144.0530 O   0  0  0  0  0  1  0  0  0  0  0  0
  190.3180  173.8920  142.0720 N   0  0  0  0  0  2  0  0  0  0  0  0
  189.8140  172.2110  143.6000 O   0  0  0  0  0  0  0  0  0  0  0  0
  190.4100  173.3000  143.3740 C   0  0  0  0  0  0  0  0  0  0  0  0
  189.5290  173.3190  140.9900 C   0  0  1  0  0  3  0  0  0  0  0  0
  188.1390  175.4860  141.2320 C   0  0  0  0  0  1  0  0  0  0  0  0
  188.3280  174.3150  139.2050 O   0  0  0  0  0  0  0  0  0  0  0  0
  188.6400  174.3680  140.3840 C   0  0  0  0  0  0  0  0  0  0  0  0
  190.4640  172.7320  139.9430 C   0  0  0  0  0  2  0  0  0  0  0  0
  190.4570  171.2160  140.0160 C   0  0  0  0  0  1  0  0  0  0  0  0
  1  7  1  0  0  0  0
  2  8  1  0  0  0  0
  3  2  2  0  0  0  0
  4 10  2  0  0  0  0
  4  3  1  0  0  0  0
  6  5  1  0  0  0  0
  6  8  2  0  0  0  0
  7  5  2  0  0  0  0
  9  1  2  0  0  0  0
  9 10  1  0  0  0  0
 10  6  1  0  0  0  0
 11  3  1  0  0  0  0
 11 17  1  0  0  0  0
 12 13  1  0  0  0  0
 13 14  1  0  0  0  0
 15 11  1  6  0  0  0
 15 17  1  0  0  0  0
 16 18  1  6  0  0  0
 16 15  1  0  0  0  0
 16 12  1  0  0  0  0
 16 17  1  0  0  0  0
 17 14  1  1  0  0  0
 18 19  1  0  0  0  0
 20 22  1  0  0  0  0
 22 21  2  0  0  0  0
 22  9  1  0  0  0  0
 23 27  1  6  0  0  0
 23 20  1  0  0  0  0
 25 26  2  0  0  0  0
 26 23  1  0  0  0  0
 26 24  1  0  0  0  0
 27 28  1  0  0  0  0
M  END
>  <MODEL>
3

>  <REMARK>
 VINA RESULT:      -6.8      2.013      4.878
  Name = 
  6 active torsions:
  status: ('A' for Active; 'I' for Inactive)
    1  A    between atoms: C_1  and  C_23
    2  A    between atoms: C_6  and  N_9
    3  A    between atoms: C_7  and  N_8
    4  A    between atoms: C_7  and  C_14
    5  A    between atoms: C_7  and  C_27
    6  A    between atoms: C_25  and  C_26
                            x       y       z     vdW  Elec       q    Type
                         _______ _______ _______ _____ _____    ______ ____

>  <TORSDO>
F 6

$$$$
=
 OpenBabel11062419553D

 28 32  0  0  1  0  0  0  0  0999 V2000
  184.7460  178.7720  145.9300 C   0  0  0  0  0  3  0  0  0  0  0  0
  188.5820  175.6210  146.4730 C   0  0  0  0  0  3  0  0  0  0  0  0
  188.6250  175.9830  145.1270 C   0  0  0  0  0  0  0  0  0  0  0  0
  187.6710  176.8670  144.6250 C   0  0  0  0  0  3  0  0  0  0  0  0
  185.7110  177.5010  147.6860 C   0  0  0  0  0  3  0  0  0  0  0  0
  186.6770  176.9960  146.8200 C   0  0  0  0  0  0  0  0  0  0  0  0
  184.7750  178.3700  147.2280 N   0  0  0  0  0  0  0  0  0  0  0  0
  187.6180  176.1290  147.2840 N   0  0  0  0  0  0  0  0  0  0  0  0
  185.6890  178.3020  145.0010 C   0  0  0  0  0  0  0  0  0  0  0  0
  186.6760  177.3930  145.4620 C   0  0  0  0  0  0  0  0  0  0  0  0
  189.6410  175.4670  144.2760 N   0  0  0  0  0  0  0  0  0  0  0  0
  192.0390  174.1360  141.7710 C   0  0  0  0  0  2  0  0  0  0  0  0
  190.7170  173.9350  141.0360 C   0  0  0  0  0  2  0  0  0  0  0  0
  189.6190  174.3680  141.9950 C   0  0  0  0  0  2  0  0  0  0  0  0
  190.7900  174.5480  144.0000 C   0  0  2  0  0  3  0  0  0  0  0  0
  191.7510  175.0420  142.9590 C   0  0  2  0  0  0  0  0  0  0  0  0
  190.2940  175.3340  142.9370 C   0  0  2  0  0  0  0  0  0  0  0  0
  192.6040  176.2610  143.2680 C   0  0  0  0  0  2  0  0  0  0  0  0
  191.9990  177.4130  142.7620 O   0  0  0  0  0  1  0  0  0  0  0  0
  185.1320  177.9370  142.5440 N   0  0  0  0  0  2  0  0  0  0  0  0
  185.9190  179.9800  143.3330 O   0  0  0  0  0  0  0  0  0  0  0  0
  185.5890  178.7910  143.6000 C   0  0  0  0  0  0  0  0  0  0  0  0
  185.0650  178.3580  141.1510 C   0  0  1  0  0  3  0  0  0  0  0  0
  187.3930  177.2530  140.9290 C   0  0  0  0  0  1  0  0  0  0  0  0
  185.8200  177.2680  139.1860 O   0  0  0  0  0  0  0  0  0  0  0  0
  186.0730  177.6020  140.3320 C   0  0  0  0  0  0  0  0  0  0  0  0
  183.6570  178.1260  140.6240 C   0  0  0  0  0  2  0  0  0  0  0  0
  182.6390  178.2980  141.7370 C   0  0  0  0  0  1  0  0  0  0  0  0
  1  7  1  0  0  0  0
  2  8  1  0  0  0  0
  3  2  2  0  0  0  0
  4  3  1  0  0  0  0
  4 10  2  0  0  0  0
  6  8  2  0  0  0  0
  6  5  1  0  0  0  0
  7  5  2  0  0  0  0
  9 10  1  0  0  0  0
  9  1  2  0  0  0  0
 10  6  1  0  0  0  0
 11  3  1  0  0  0  0
 12 16  1  0  0  0  0
 13 12  1  0  0  0  0
 13 14  1  0  0  0  0
 15 11  1  1  0  0  0
 16 18  1  1  0  0  0
 16 15  1  0  0  0  0
 17 14  1  6  0  0  0
 17 16  1  0  0  0  0
 17 15  1  0  0  0  0
 17 11  1  0  0  0  0
 19 18  1  0  0  0  0
 20 22  1  0  0  0  0
 21 22  2  0  0  0  0
 22  9  1  0  0  0  0
 23 27  1  6  0  0  0
 23 20  1  0  0  0  0
 25 26  2  0  0  0  0
 26 24  1  0  0  0  0
 26 23  1  0  0  0  0
 27 28  1  0  0  0  0
M  END
>  <MODEL>
4

>  <REMARK>
 VINA RESULT:      -6.8      2.500      7.896
  Name = 
  6 active torsions:
  status: ('A' for Active; 'I' for Inactive)
    1  A    between atoms: C_1  and  C_23
    2  A    between atoms: C_6  and  N_9
    3  A    between atoms: C_7  and  N_8
    4  A    between atoms: C_7  and  C_14
    5  A    between atoms: C_7  and  C_27
    6  A    between atoms: C_25  and  C_26
                            x       y       z     vdW  Elec       q    Type
                         _______ _______ _______ _____ _____    ______ ____

>  <TORSDO>
F 6

$$$$
=
 OpenBabel11062419553D

 28 32  0  0  1  0  0  0  0  0999 V2000
  184.6640  178.6960  145.9560 C   0  0  0  0  0  3  0  0  0  0  0  0
  188.5610  175.6610  146.6940 C   0  0  0  0  0  3  0  0  0  0  0  0
  188.6580  176.0220  145.3500 C   0  0  0  0  0  0  0  0  0  0  0  0
  187.7040  176.8770  144.8000 C   0  0  0  0  0  3  0  0  0  0  0  0
  185.5800  177.4570  147.7600 C   0  0  0  0  0  3  0  0  0  0  0  0
  186.6010  176.9790  146.9440 C   0  0  0  0  0  0  0  0  0  0  0  0
  184.6410  178.2970  147.2550 N   0  0  0  0  0  0  0  0  0  0  0  0
  187.5430  176.1410  147.4560 N   0  0  0  0  0  0  0  0  0  0  0  0
  185.6650  178.2530  145.0760 C   0  0  0  0  0  0  0  0  0  0  0  0
  186.6540  177.3740  145.5870 C   0  0  0  0  0  0  0  0  0  0  0  0
  189.7290  175.5350  144.5510 N   0  0  0  0  0  0  0  0  0  0  0  0
  192.5930  174.0110  142.7430 C   0  0  0  0  0  2  0  0  0  0  0  0
  192.8240  173.4690  144.1510 C   0  0  0  0  0  2  0  0  0  0  0  0
  191.7520  174.0910  145.0340 C   0  0  0  0  0  2  0  0  0  0  0  0
  190.8960  175.7480  143.6390 C   0  0  2  0  0  3  0  0  0  0  0  0
  191.1900  174.5990  142.7190 C   0  0  2  0  0  0  0  0  0  0  0  0
  190.6300  174.4350  144.0860 C   0  0  2  0  0  0  0  0  0  0  0  0
  190.1960  174.2690  141.6190 C   0  0  0  0  0  2  0  0  0  0  0  0
  189.6370  173.0080  141.8370 O   0  0  0  0  0  1  0  0  0  0  0  0
  185.2270  177.8720  142.5970 N   0  0  0  0  0  2  0  0  0  0  0  0
  185.9360  179.9310  143.4140 O   0  0  0  0  0  0  0  0  0  0  0  0
  185.6180  178.7370  143.6700 C   0  0  0  0  0  0  0  0  0  0  0  0
  185.2150  178.2870  141.2010 C   0  0  1  0  0  3  0  0  0  0  0  0
  187.6130  177.3220  141.1320 C   0  0  0  0  0  1  0  0  0  0  0  0
  186.1690  177.2770  139.2810 O   0  0  0  0  0  0  0  0  0  0  0  0
  186.3200  177.6050  140.4470 C   0  0  0  0  0  0  0  0  0  0  0  0
  183.8610  177.9580  140.5910 C   0  0  0  0  0  2  0  0  0  0  0  0
  182.7450  178.2910  141.5660 C   0  0  0  0  0  1  0  0  0  0  0  0
  1  7  1  0  0  0  0
  2  8  1  0  0  0  0
  3  2  2  0  0  0  0
  4  3  1  0  0  0  0
  4 10  2  0  0  0  0
  6  8  2  0  0  0  0
  6  5  1  0  0  0  0
  7  5  2  0  0  0  0
  9 10  1  0  0  0  0
  9  1  2  0  0  0  0
 10  6  1  0  0  0  0
 11  3  1  0  0  0  0
 12 13  1  0  0  0  0
 13 14  1  0  0  0  0
 15 17  1  0  0  0  0
 15 11  1  6  0  0  0
 16 18  1  6  0  0  0
 16 12  1  0  0  0  0
 16 15  1  0  0  0  0
 16 17  1  0  0  0  0
 17 11  1  0  0  0  0
 17 14  1  1  0  0  0
 18 19  1  0  0  0  0
 20 22  1  0  0  0  0
 21 22  2  0  0  0  0
 22  9  1  0  0  0  0
 23 27  1  6  0  0  0
 23 20  1  0  0  0  0
 25 26  2  0  0  0  0
 26 24  1  0  0  0  0
 26 23  1  0  0  0  0
 27 28  1  0  0  0  0
M  END
>  <MODEL>
5

>  <REMARK>
 VINA RESULT:      -6.6      2.571      7.857
  Name = 
  6 active torsions:
  status: ('A' for Active; 'I' for Inactive)
    1  A    between atoms: C_1  and  C_23
    2  A    between atoms: C_6  and  N_9
    3  A    between atoms: C_7  and  N_8
    4  A    between atoms: C_7  and  C_14
    5  A    between atoms: C_7  and  C_27
    6  A    between atoms: C_25  and  C_26
                            x       y       z     vdW  Elec       q    Type
                         _______ _______ _______ _____ _____    ______ ____

>  <TORSDO>
F 6

$$$$
=
 OpenBabel11062419553D

 28 32  0  0  1  0  0  0  0  0999 V2000
  190.9730  172.4070  142.6200 C   0  0  0  0  0  3  0  0  0  0  0  0
  187.6400  175.5120  140.5720 C   0  0  0  0  0  3  0  0  0  0  0  0
  187.4760  175.6910  141.9450 C   0  0  0  0  0  0  0  0  0  0  0  0
  188.2640  174.9570  142.8310 C   0  0  0  0  0  3  0  0  0  0  0  0
  190.2840  173.0140  140.4320 C   0  0  0  0  0  3  0  0  0  0  0  0
  189.3450  173.9030  140.9490 C   0  0  0  0  0  0  0  0  0  0  0  0
  191.0710  172.2920  141.2690 N   0  0  0  0  0  0  0  0  0  0  0  0
  188.5620  174.6290  140.1070 N   0  0  0  0  0  0  0  0  0  0  0  0
  190.0470  173.2830  143.2110 C   0  0  0  0  0  0  0  0  0  0  0  0
  189.2160  174.0460  142.3510 C   0  0  0  0  0  0  0  0  0  0  0  0
  186.5240  176.6260  142.4400 N   0  0  0  0  0  0  0  0  0  0  0  0
  184.3340  179.2970  143.8050 C   0  0  0  0  0  2  0  0  0  0  0  0
  185.6940  179.7440  144.3340 C   0  0  0  0  0  2  0  0  0  0  0  0
  186.6930  178.6770  143.9140 C   0  0  0  0  0  2  0  0  0  0  0  0
  185.2830  176.9650  143.2040 C   0  0  2  0  0  3  0  0  0  0  0  0
  184.5980  178.2240  142.7590 C   0  0  2  0  0  0  0  0  0  0  0  0
  186.0700  178.0260  142.7050 C   0  0  2  0  0  0  0  0  0  0  0  0
  183.9440  178.2570  141.3880 C   0  0  0  0  0  2  0  0  0  0  0  0
  184.8670  178.6690  140.4250 O   0  0  0  0  0  1  0  0  0  0  0  0
  190.3110  174.5620  145.3950 N   0  0  0  0  0  2  0  0  0  0  0  0
  189.6950  172.3190  145.3550 O   0  0  0  0  0  0  0  0  0  0  0  0
  190.0040  173.3500  144.6960 C   0  0  0  0  0  0  0  0  0  0  0  0
  190.3300  174.6620  146.8490 C   0  0  1  0  0  3  0  0  0  0  0  0
  192.1930  176.3650  146.2850 C   0  0  0  0  0  1  0  0  0  0  0  0
  191.2940  176.1280  148.4420 O   0  0  0  0  0  0  0  0  0  0  0  0
  191.2740  175.7460  147.2830 C   0  0  0  0  0  0  0  0  0  0  0  0
  188.9210  174.9380  147.3510 C   0  0  0  0  0  2  0  0  0  0  0  0
  188.2730  176.0400  146.5330 C   0  0  0  0  0  1  0  0  0  0  0  0
  1  9  1  0  0  0  0
  2  3  1  0  0  0  0
  3 11  1  0  0  0  0
  3  4  2  0  0  0  0
  5  6  2  0  0  0  0
  5  7  1  0  0  0  0
  6 10  1  0  0  0  0
  7  1  2  0  0  0  0
  8  2  2  0  0  0  0
  8  6  1  0  0  0  0
  9 22  1  0  0  0  0
 10  4  1  0  0  0  0
 10  9  2  0  0  0  0
 11 17  1  0  0  0  0
 12 13  1  0  0  0  0
 14 13  1  0  0  0  0
 15 11  1  6  0  0  0
 16 18  1  6  0  0  0
 16 15  1  0  0  0  0
 16 12  1  0  0  0  0
 17 16  1  0  0  0  0
 17 15  1  0  0  0  0
 17 14  1  1  0  0  0
 19 18  1  0  0  0  0
 20 23  1  0  0  0  0
 22 21  2  0  0  0  0
 22 20  1  0  0  0  0
 23 26  1  0  0  0  0
 23 27  1  6  0  0  0
 24 26  1  0  0  0  0
 26 25  2  0  0  0  0
 28 27  1  0  0  0  0
M  END
>  <MODEL>
6

>  <REMARK>
 VINA RESULT:      -6.6      2.004      2.500
  Name = 
  6 active torsions:
  status: ('A' for Active; 'I' for Inactive)
    1  A    between atoms: C_1  and  C_23
    2  A    between atoms: C_6  and  N_9
    3  A    between atoms: C_7  and  N_8
    4  A    between atoms: C_7  and  C_14
    5  A    between atoms: C_7  and  C_27
    6  A    between atoms: C_25  and  C_26
                            x       y       z     vdW  Elec       q    Type
                         _______ _______ _______ _____ _____    ______ ____

>  <TORSDO>
F 6

$$$$
=
 OpenBabel11062419553D

 28 32  0  0  1  0  0  0  0  0999 V2000
  186.0470  178.9750  145.0530 C   0  0  0  0  0  3  0  0  0  0  0  0
  187.3060  176.6550  140.8130 C   0  0  0  0  0  3  0  0  0  0  0  0
  187.9680  175.9340  141.8070 C   0  0  0  0  0  0  0  0  0  0  0  0
  187.8350  176.3240  143.1390 C   0  0  0  0  0  3  0  0  0  0  0  0
  185.5900  179.2240  142.7380 C   0  0  0  0  0  3  0  0  0  0  0  0
  186.3910  178.1260  142.4380 C   0  0  0  0  0  0  0  0  0  0  0  0
  185.4350  179.6220  144.0270 N   0  0  0  0  0  0  0  0  0  0  0  0
  186.5390  177.7270  141.1460 N   0  0  0  0  0  0  0  0  0  0  0  0
  186.8700  177.8600  144.8240 C   0  0  0  0  0  0  0  0  0  0  0  0
  187.0430  177.4290  143.4830 C   0  0  0  0  0  0  0  0  0  0  0  0
  188.7590  174.8020  141.4670 N   0  0  0  0  0  0  0  0  0  0  0  0
  190.6210  171.6500  140.8390 C   0  0  0  0  0  2  0  0  0  0  0  0
  189.9470  171.3240  142.1690 C   0  0  0  0  0  2  0  0  0  0  0  0
  189.2030  172.5800  142.5960 C   0  0  0  0  0  2  0  0  0  0  0  0
  190.0670  174.1620  141.1220 C   0  0  2  0  0  3  0  0  0  0  0  0
  189.9560  172.9100  140.3040 C   0  0  2  0  0  0  0  0  0  0  0  0
  188.9450  173.3260  141.3110 C   0  0  2  0  0  0  0  0  0  0  0  0
  189.4550  173.0110  138.8730 C   0  0  0  0  0  2  0  0  0  0  0  0
  188.1170  172.6190  138.8020 O   0  0  0  0  0  1  0  0  0  0  0  0
  188.9220  177.0370  146.0860 N   0  0  0  0  0  2  0  0  0  0  0  0
  186.7740  176.7890  146.9440 O   0  0  0  0  0  0  0  0  0  0  0  0
  187.5020  177.2070  146.0020 C   0  0  0  0  0  0  0  0  0  0  0  0
  189.5800  176.3590  147.1960 C   0  0  1  0  0  3  0  0  0  0  0  0
  189.9740  174.1700  145.8770 C   0  0  0  0  0  1  0  0  0  0  0  0
  188.8320  174.2330  147.9280 O   0  0  0  0  0  0  0  0  0  0  0  0
  189.4150  174.8720  147.0670 C   0  0  0  0  0  0  0  0  0  0  0  0
  191.0520  176.7410  147.2140 C   0  0  0  0  0  2  0  0  0  0  0  0
  191.4620  177.2080  148.5990 C   0  0  0  0  0  1  0  0  0  0  0  0
  2  8  2  0  0  0  0
  2  3  1  0  0  0  0
  3  4  2  0  0  0  0
  4 10  1  0  0  0  0
  5  7  1  0  0  0  0
  6  5  2  0  0  0  0
  6 10  1  0  0  0  0
  7  1  2  0  0  0  0
  8  6  1  0  0  0  0
  9  1  1  0  0  0  0
  9 22  1  0  0  0  0
 10  9  2  0  0  0  0
 11  3  1  0  0  0  0
 12 13  1  0  0  0  0
 13 14  1  0  0  0  0
 15 17  1  0  0  0  0
 15 11  1  6  0  0  0
 16 18  1  6  0  0  0
 16 12  1  0  0  0  0
 16 15  1  0  0  0  0
 16 17  1  0  0  0  0
 17 11  1  0  0  0  0
 17 14  1  1  0  0  0
 19 18  1  0  0  0  0
 20 23  1  0  0  0  0
 22 20  1  0  0  0  0
 22 21  2  0  0  0  0
 23 27  1  6  0  0  0
 24 26  1  0  0  0  0
 26 23  1  0  0  0  0
 26 25  2  0  0  0  0
 27 28  1  0  0  0  0
M  END
>  <MODEL>
7

>  <REMARK>
 VINA RESULT:      -6.6      2.541      6.236
  Name = 
  6 active torsions:
  status: ('A' for Active; 'I' for Inactive)
    1  A    between atoms: C_1  and  C_23
    2  A    between atoms: C_6  and  N_9
    3  A    between atoms: C_7  and  N_8
    4  A    between atoms: C_7  and  C_14
    5  A    between atoms: C_7  and  C_27
    6  A    between atoms: C_25  and  C_26
                            x       y       z     vdW  Elec       q    Type
                         _______ _______ _______ _____ _____    ______ ____

>  <TORSDO>
F 6

$$$$
=
 OpenBabel11062419553D

 28 32  0  0  1  0  0  0  0  0999 V2000
  193.6790  175.3520  144.6590 C   0  0  0  0  0  3  0  0  0  0  0  0
  190.0500  177.1740  147.5670 C   0  0  0  0  0  3  0  0  0  0  0  0
  189.4160  176.9110  146.3530 C   0  0  0  0  0  0  0  0  0  0  0  0
  190.1550  176.3880  145.2930 C   0  0  0  0  0  3  0  0  0  0  0  0
  193.4760  176.1530  146.8840 C   0  0  0  0  0  3  0  0  0  0  0  0
  192.1200  176.4070  146.6930 C   0  0  0  0  0  0  0  0  0  0  0  0
  194.2200  175.6360  145.8730 N   0  0  0  0  0  0  0  0  0  0  0  0
  191.3770  176.9200  147.7110 N   0  0  0  0  0  0  0  0  0  0  0  0
  192.3180  175.5840  144.3970 C   0  0  0  0  0  0  0  0  0  0  0  0
  191.5250  176.1240  145.4420 C   0  0  0  0  0  0  0  0  0  0  0  0
  188.0230  177.1590  146.2010 N   0  0  0  0  0  0  0  0  0  0  0  0
  184.4230  178.0670  146.0820 C   0  0  0  0  0  2  0  0  0  0  0  0
  184.8250  178.6660  147.4270 C   0  0  0  0  0  2  0  0  0  0  0  0
  186.2820  178.2910  147.6500 C   0  0  0  0  0  2  0  0  0  0  0  0
  186.6170  176.6960  145.9870 C   0  0  2  0  0  3  0  0  0  0  0  0
  185.7120  177.7120  145.3550 C   0  0  2  0  0  0  0  0  0  0  0  0
  186.8330  178.0630  146.2640 C   0  0  2  0  0  0  0  0  0  0  0  0
  185.9590  178.1160  143.9110 C   0  0  0  0  0  2  0  0  0  0  0  0
  185.8790  179.5040  143.7790 O   0  0  0  0  0  1  0  0  0  0  0  0
  190.6150  174.4650  142.8720 N   0  0  0  0  0  2  0  0  0  0  0  0
  192.4280  175.6490  142.0230 O   0  0  0  0  0  0  0  0  0  0  0  0
  191.8030  175.2460  143.0420 C   0  0  0  0  0  0  0  0  0  0  0  0
  190.1020  174.0680  141.5670 C   0  0  1  0  0  3  0  0  0  0  0  0
  189.4020  171.9110  142.8110 C   0  0  0  0  0  1  0  0  0  0  0  0
  189.9010  171.9520  140.5160 O   0  0  0  0  0  0  0  0  0  0  0  0
  189.8110  172.5940  141.5510 C   0  0  0  0  0  0  0  0  0  0  0  0
  188.8480  174.8710  141.2550 C   0  0  0  0  0  2  0  0  0  0  0  0
  188.1160  175.2300  142.5360 C   0  0  0  0  0  1  0  0  0  0  0  0
  1  7  1  0  0  0  0
  2  8  1  0  0  0  0
  3  2  2  0  0  0  0
  4 10  2  0  0  0  0
  4  3  1  0  0  0  0
  6  5  1  0  0  0  0
  6  8  2  0  0  0  0
  7  5  2  0  0  0  0
  9  1  2  0  0  0  0
  9 10  1  0  0  0  0
 10  6  1  0  0  0  0
 11 17  1  0  0  0  0
 11  3  1  0  0  0  0
 12 13  1  0  0  0  0
 13 14  1  0  0  0  0
 15 11  1  6  0  0  0
 15 17  1  0  0  0  0
 16 18  1  6  0  0  0
 16 15  1  0  0  0  0
 16 12  1  0  0  0  0
 16 17  1  0  0  0  0
 17 14  1  1  0  0  0
 19 18  1  0  0  0  0
 20 22  1  0  0  0  0
 21 22  2  0  0  0  0
 22  9  1  0  0  0  0
 23 27  1  1  0  0  0
 23 20  1  0  0  0  0
 25 26  2  0  0  0  0
 26 23  1  0  0  0  0
 26 24  1  0  0  0  0
 27 28  1  0  0  0  0
M  END
>  <MODEL>
8

>  <REMARK>
 VINA RESULT:      -6.5      2.016      4.719
  Name = 
  6 active torsions:
  status: ('A' for Active; 'I' for Inactive)
    1  A    between atoms: C_1  and  C_23
    2  A    between atoms: C_6  and  N_9
    3  A    between atoms: C_7  and  N_8
    4  A    between atoms: C_7  and  C_14
    5  A    between atoms: C_7  and  C_27
    6  A    between atoms: C_25  and  C_26
                            x       y       z     vdW  Elec       q    Type
                         _______ _______ _______ _____ _____    ______ ____

>  <TORSDO>
F 6

$$$$
=
 OpenBabel11062419553D

 28 32  0  0  1  0  0  0  0  0999 V2000
  192.3200  173.8000  141.1680 C   0  0  0  0  0  3  0  0  0  0  0  0
  187.5770  174.8570  142.3210 C   0  0  0  0  0  3  0  0  0  0  0  0
  188.3210  175.7810  143.0540 C   0  0  0  0  0  0  0  0  0  0  0  0
  189.7130  175.7630  142.9670 C   0  0  0  0  0  3  0  0  0  0  0  0
  190.1710  172.9730  140.5980 C   0  0  0  0  0  3  0  0  0  0  0  0
  189.5640  173.9130  141.4260 C   0  0  0  0  0  0  0  0  0  0  0  0
  191.5230  172.9360  140.4870 N   0  0  0  0  0  0  0  0  0  0  0  0
  188.2080  173.9500  141.5300 N   0  0  0  0  0  0  0  0  0  0  0  0
  191.7760  174.7740  142.0220 C   0  0  0  0  0  0  0  0  0  0  0  0
  190.3640  174.8270  142.1500 C   0  0  0  0  0  0  0  0  0  0  0  0
  187.6670  176.7450  143.8710 N   0  0  0  0  0  0  0  0  0  0  0  0
  185.6980  179.2890  145.7270 C   0  0  0  0  0  2  0  0  0  0  0  0
  185.1240  179.4520  144.3230 C   0  0  0  0  0  2  0  0  0  0  0  0
  185.9110  178.5120  143.4220 C   0  0  0  0  0  2  0  0  0  0  0  0
  187.6870  177.9150  144.8040 C   0  0  2  0  0  3  0  0  0  0  0  0
  186.5080  178.0010  145.7270 C   0  0  2  0  0  0  0  0  0  0  0  0
  186.4360  177.4450  144.3500 C   0  0  2  0  0  0  0  0  0  0  0  0
  186.3460  176.9470  146.8090 C   0  0  0  0  0  2  0  0  0  0  0  0
  185.9410  177.5430  148.0050 O   0  0  0  0  0  1  0  0  0  0  0  0
  193.2830  175.3270  143.9980 N   0  0  0  0  0  2  0  0  0  0  0  0
  193.0200  176.7910  142.2090 O   0  0  0  0  0  0  0  0  0  0  0  0
  192.7170  175.6830  142.7300 C   0  0  0  0  0  0  0  0  0  0  0  0
  194.1680  176.2050  144.7500 C   0  0  1  0  0  3  0  0  0  0  0  0
  192.5190  175.5400  146.6280 C   0  0  0  0  0  1  0  0  0  0  0  0
  194.1920  177.1620  146.9190 O   0  0  0  0  0  0  0  0  0  0  0  0
  193.6670  176.3660  146.1570 C   0  0  0  0  0  0  0  0  0  0  0  0
  195.5750  175.6270  144.7400 C   0  0  0  0  0  2  0  0  0  0  0  0
  195.6500  174.3970  145.6270 C   0  0  0  0  0  1  0  0  0  0  0  0
  1  9  1  0  0  0  0
  2  3  1  0  0  0  0
  3 11  1  0  0  0  0
  4  3  2  0  0  0  0
  5  6  2  0  0  0  0
  6  8  1  0  0  0  0
  6 10  1  0  0  0  0
  7  5  1  0  0  0  0
  7  1  2  0  0  0  0
  8  2  2  0  0  0  0
  9 10  2  0  0  0  0
  9 22  1  0  0  0  0
 10  4  1  0  0  0  0
 11 17  1  0  0  0  0
 13 12  1  0  0  0  0
 14 13  1  0  0  0  0
 15 11  1  1  0  0  0
 15 16  1  0  0  0  0
 16 12  1  0  0  0  0
 16 18  1  1  0  0  0
 17 14  1  6  0  0  0
 17 15  1  0  0  0  0
 17 16  1  0  0  0  0
 18 19  1  0  0  0  0
 20 23  1  0  0  0  0
 21 22  2  0  0  0  0
 22 20  1  0  0  0  0
 23 27  1  1  0  0  0
 23 26  1  0  0  0  0
 26 24  1  0  0  0  0
 26 25  2  0  0  0  0
 27 28  1  0  0  0  0
M  END
>  <MODEL>
9

>  <REMARK>
 VINA RESULT:      -6.4      1.791      2.639
  Name = 
  6 active torsions:
  status: ('A' for Active; 'I' for Inactive)
    1  A    between atoms: C_1  and  C_23
    2  A    between atoms: C_6  and  N_9
    3  A    between atoms: C_7  and  N_8
    4  A    between atoms: C_7  and  C_14
    5  A    between atoms: C_7  and  C_27
    6  A    between atoms: C_25  and  C_26
                            x       y       z     vdW  Elec       q    Type
                         _______ _______ _______ _____ _____    ______ ____

>  <TORSDO>
F 6

$$$$
