=
 OpenBabel11072408453D

 36 39  0  0  1  0  0  0  0  0999 V2000
  191.8110  175.0170  144.9760 C   0  0  1  0  0  3  0  0  0  0  0  0
  191.3050  174.0420  142.2430 C   0  0  1  0  0  0  0  0  0  0  0  0
  192.9260  174.8180  144.0040 C   0  0  1  0  0  0  0  0  0  0  0  0
  191.0480  173.9800  140.8770 F   0  0  0  0  0  0  0  0  0  0  0  0
  192.5720  174.8670  142.5100 C   0  0  1  0  0  3  0  0  0  0  0  0
  190.1180  174.7210  142.9570 C   0  0  1  0  0  3  0  0  0  0  0  0
  192.7030  176.0550  144.6290 O   0  0  0  0  0  0  0  0  0  0  0  0
  190.4380  175.3180  144.3500 C   0  0  1  0  0  3  0  0  0  0  0  0
  194.2790  172.8290  144.0760 O   0  0  0  0  0  0  0  0  0  0  0  0
  193.9440  173.0220  145.4250 C   0  0  0  0  0  2  0  0  0  0  0  0
  194.2150  174.1650  144.5190 C   0  0  2  0  0  3  0  0  0  0  0  0
  190.2140  172.2950  143.0280 F   0  0  0  0  0  0  0  0  0  0  0  0
  191.4340  172.7390  142.7620 O   0  0  0  0  0  0  0  0  0  0  0  0
  193.9660  174.4610  141.3980 S   0  0  0  0  0  0  0  0  0  0  0  0
  194.5480  176.1800  141.3800 C   0  0  0  0  0  2  0  0  0  0  0  0
  195.7560  176.2670  142.0700 O   0  0  0  0  0  1  0  0  0  0  0  0
  189.3010  175.0860  145.3460 C   0  0  0  0  0  2  0  0  0  0  0  0
  187.7680  177.7540  144.9030 C   0  0  0  0  0  2  0  0  0  0  0  0
  187.8550  176.0270  147.1710 C   0  0  0  0  0  3  0  0  0  0  0  0
  186.6370  177.8370  145.9350 C   0  0  2  0  0  3  0  0  0  0  0  0
  189.1030  177.5590  145.6170 C   0  0  0  0  0  2  0  0  0  0  0  0
  186.7290  176.7210  146.9510 C   0  0  0  0  0  3  0  0  0  0  0  0
  189.1150  176.2200  146.3570 C   0  0  2  0  0  3  0  0  0  0  0  0
  184.1850  178.3910  146.1940 C   0  0  0  0  0  1  0  0  0  0  0  0
  185.2590  177.8520  145.2560 C   0  0  1  0  0  3  0  0  0  0  0  0
  184.2010  178.2860  143.1410 O   0  0  0  0  0  1  0  0  0  0  0  0
  185.2340  180.0260  144.1980 O   0  0  0  0  0  1  0  0  0  0  0  0
  185.2780  178.6520  143.9490 C   0  0  0  0  0  3  0  0  0  0  0  0
  189.4490  175.7770  142.0740 C   0  0  0  0  0  2  0  0  0  0  0  0
  188.0900  175.3090  141.5520 C   0  0  1  0  0  3  0  0  0  0  0  0
  187.7560  174.0690  142.1030 O   0  0  0  0  0  1  0  0  0  0  0  0
  187.0310  176.2910  141.7960 N   0  0  0  0  0  2  0  0  0  0  0  0
  187.2330  177.4760  140.9700 C   0  0  0  0  0  2  0  0  0  0  0  0
  186.2530  177.4750  139.8530 C   0  0  0  0  0  0  0  0  0  0  0  0
  184.9460  177.8890  140.0750 O   0  0  0  0  0  1  0  0  0  0  0  0
  186.6150  177.1340  138.6960 O   0  0  0  0  0  0  0  0  0  0  0  0
  1  7  1  1  0  0  0
  2  4  1  6  0  0  0
  2  5  1  0  0  0  0
  2 13  1  0  0  0  0
  2  6  1  0  0  0  0
  3 11  1  0  0  0  0
  3  7  1  1  0  0  0
  3  1  1  0  0  0  0
  5 14  1  6  0  0  0
  5  3  1  0  0  0  0
  6 29  1  6  0  0  0
  6  8  1  0  0  0  0
  8  1  1  0  0  0  0
  8 17  1  1  0  0  0
  9 11  1  0  0  0  0
  9 10  1  0  0  0  0
 11 10  1  1  0  0  0
 13 12  1  0  0  0  0
 15 14  1  0  0  0  0
 15 16  1  0  0  0  0
 18 21  1  0  0  0  0
 18 20  1  0  0  0  0
 20 25  1  6  0  0  0
 20 22  1  0  0  0  0
 21 23  1  0  0  0  0
 22 19  2  0  0  0  0
 23 17  1  6  0  0  0
 23 19  1  0  0  0  0
 25 24  1  1  0  0  0
 26 28  1  0  0  0  0
 28 27  1  0  0  0  0
 28 25  1  0  0  0  0
 30 32  1  0  0  0  0
 30 29  1  0  0  0  0
 30 31  1  1  0  0  0
 33 32  1  0  0  0  0
 34 35  1  0  0  0  0
 34 33  1  0  0  0  0
 36 34  2  0  0  0  0
M  END
>  <MODEL>
1

>  <REMARK>
 VINA RESULT:      -6.4      0.000      0.000
  Name = 
  13 active torsions:
  status: ('A' for Active; 'I' for Inactive)
    1  A    between atoms: S_1  and  C_25
    2  A    between atoms: S_1  and  C_26
    3  A    between atoms: C_3  and  N_20
    4  A    between atoms: C_3  and  C_24
    5  A    between atoms: C_8  and  C_22
    6  A    between atoms: C_11  and  C_16
    7  A    between atoms: C_11  and  C_34
    8  A    between atoms: C_12  and  N_20
    9  A    between atoms: C_12  and  C_35
   10  A    between atoms: C_14  and  O_36
   11  A    between atoms: C_17  and  C_27
   12  A    between atoms: C_22  and  C_33
   13  A    between atoms: C_30  and  C_35
                            x       y       z     vdW  Elec       q    Type
                         _______ _______ _______ _____ _____    ______ ____

>  <TORSDO>
F 13

$$$$
=
 OpenBabel11072408453D

 36 39  0  0  1  0  0  0  0  0999 V2000
  191.8690  176.1880  144.7500 C   0  0  1  0  0  3  0  0  0  0  0  0
  192.6980  173.8040  143.2330 C   0  0  1  0  0  0  0  0  0  0  0  0
  193.2620  176.0430  144.2320 C   0  0  1  0  0  0  0  0  0  0  0  0
  192.9780  172.9110  142.2040 F   0  0  0  0  0  0  0  0  0  0  0  0
  193.4680  175.1160  143.0250 C   0  0  1  0  0  3  0  0  0  0  0  0
  191.1880  174.1160  143.2410 C   0  0  1  0  0  3  0  0  0  0  0  0
  192.4620  177.1490  143.9030 O   0  0  0  0  0  0  0  0  0  0  0  0
  190.7890  175.4320  143.9560 C   0  0  1  0  0  3  0  0  0  0  0  0
  194.9450  175.3090  145.7870 O   0  0  0  0  0  0  0  0  0  0  0  0
  194.1350  176.1360  146.5800 C   0  0  0  0  0  2  0  0  0  0  0  0
  194.4140  176.4530  145.1580 C   0  0  2  0  0  3  0  0  0  0  0  0
  191.9870  172.4900  144.8540 F   0  0  0  0  0  0  0  0  0  0  0  0
  193.0260  173.2190  144.4720 O   0  0  0  0  0  0  0  0  0  0  0  0
  195.2190  174.8780  142.5570 S   0  0  0  0  0  0  0  0  0  0  0  0
  195.2030  176.3340  141.4730 C   0  0  0  0  0  2  0  0  0  0  0  0
  196.4900  176.5700  140.9940 O   0  0  0  0  0  1  0  0  0  0  0  0
  189.5010  175.2750  144.7660 C   0  0  0  0  0  2  0  0  0  0  0  0
  187.7670  177.8540  144.7230 C   0  0  0  0  0  2  0  0  0  0  0  0
  188.1850  175.9430  146.7970 C   0  0  0  0  0  3  0  0  0  0  0  0
  186.7400  177.7640  145.8570 C   0  0  2  0  0  3  0  0  0  0  0  0
  189.1750  177.6940  145.2890 C   0  0  0  0  0  2  0  0  0  0  0  0
  187.0010  176.5710  146.7490 C   0  0  0  0  0  3  0  0  0  0  0  0
  189.3440  176.2980  145.8940 C   0  0  2  0  0  3  0  0  0  0  0  0
  184.3120  178.2700  146.3420 C   0  0  0  0  0  1  0  0  0  0  0  0
  185.3040  177.7410  145.3120 C   0  0  1  0  0  3  0  0  0  0  0  0
  184.2850  177.8880  143.1390 O   0  0  0  0  0  1  0  0  0  0  0  0
  184.7610  179.8350  144.2330 O   0  0  0  0  0  1  0  0  0  0  0  0
  185.1810  178.5230  144.0000 C   0  0  0  0  0  3  0  0  0  0  0  0
  190.5900  174.0830  141.8330 C   0  0  0  0  0  2  0  0  0  0  0  0
  189.4500  173.0710  141.7200 C   0  0  1  0  0  3  0  0  0  0  0  0
  189.3740  172.2890  142.8760 O   0  0  0  0  0  1  0  0  0  0  0  0
  188.1620  173.7100  141.4380 N   0  0  0  0  0  2  0  0  0  0  0  0
  188.3630  175.0790  140.9760 C   0  0  0  0  0  2  0  0  0  0  0  0
  187.3630  175.9710  141.6200 C   0  0  0  0  0  0  0  0  0  0  0  0
  186.5920  175.5020  142.6750 O   0  0  0  0  0  1  0  0  0  0  0  0
  187.2420  177.1640  141.2350 O   0  0  0  0  0  0  0  0  0  0  0  0
  1  7  1  6  0  0  0
  2  4  1  6  0  0  0
  2  6  1  0  0  0  0
  2 13  1  0  0  0  0
  3  7  1  6  0  0  0
  3  1  1  0  0  0  0
  3 11  1  0  0  0  0
  5 14  1  1  0  0  0
  5  2  1  0  0  0  0
  5  3  1  0  0  0  0
  6 29  1  6  0  0  0
  6  8  1  0  0  0  0
  8  1  1  0  0  0  0
  8 17  1  1  0  0  0
  9 10  1  0  0  0  0
 11  9  1  0  0  0  0
 11 10  1  1  0  0  0
 13 12  1  0  0  0  0
 15 14  1  0  0  0  0
 16 15  1  0  0  0  0
 18 21  1  0  0  0  0
 18 20  1  0  0  0  0
 20 25  1  6  0  0  0
 20 22  1  0  0  0  0
 21 23  1  0  0  0  0
 22 19  2  0  0  0  0
 23 17  1  6  0  0  0
 23 19  1  0  0  0  0
 25 24  1  1  0  0  0
 26 28  1  0  0  0  0
 28 27  1  0  0  0  0
 28 25  1  0  0  0  0
 30 29  1  0  0  0  0
 30 31  1  1  0  0  0
 32 30  1  0  0  0  0
 33 32  1  0  0  0  0
 33 34  1  0  0  0  0
 34 35  1  0  0  0  0
 36 34  2  0  0  0  0
M  END
>  <MODEL>
2

>  <REMARK>
 VINA RESULT:      -6.4      1.527      1.858
  Name = 
  13 active torsions:
  status: ('A' for Active; 'I' for Inactive)
    1  A    between atoms: S_1  and  C_25
    2  A    between atoms: S_1  and  C_26
    3  A    between atoms: C_3  and  N_20
    4  A    between atoms: C_3  and  C_24
    5  A    between atoms: C_8  and  C_22
    6  A    between atoms: C_11  and  C_16
    7  A    between atoms: C_11  and  C_34
    8  A    between atoms: C_12  and  N_20
    9  A    between atoms: C_12  and  C_35
   10  A    between atoms: C_14  and  O_36
   11  A    between atoms: C_17  and  C_27
   12  A    between atoms: C_22  and  C_33
   13  A    between atoms: C_30  and  C_35
                            x       y       z     vdW  Elec       q    Type
                         _______ _______ _______ _____ _____    ______ ____

>  <TORSDO>
F 13

$$$$
=
 OpenBabel11072408453D

 36 39  0  0  1  0  0  0  0  0999 V2000
  191.8330  176.3490  143.6290 C   0  0  1  0  0  3  0  0  0  0  0  0
  191.7400  173.4060  143.7130 C   0  0  1  0  0  0  0  0  0  0  0  0
  193.0250  175.5460  144.0340 C   0  0  1  0  0  0  0  0  0  0  0  0
  191.8330  172.0610  143.3730 F   0  0  0  0  0  0  0  0  0  0  0  0
  193.0990  174.0980  143.5290 C   0  0  1  0  0  3  0  0  0  0  0  0
  190.7100  174.0960  142.7960 C   0  0  1  0  0  3  0  0  0  0  0  0
  193.0780  176.4660  142.9750 O   0  0  0  0  0  0  0  0  0  0  0  0
  190.8470  175.6350  142.6870 C   0  0  1  0  0  3  0  0  0  0  0  0
  193.6410  175.1770  146.3310 O   0  0  0  0  0  0  0  0  0  0  0  0
  192.9870  176.4170  146.3840 C   0  0  0  0  0  2  0  0  0  0  0  0
  193.8440  176.0390  145.2340 C   0  0  2  0  0  3  0  0  0  0  0  0
  190.0940  172.9620  145.1090 F   0  0  0  0  0  0  0  0  0  0  0  0
  191.2890  173.5300  145.0420 O   0  0  0  0  0  0  0  0  0  0  0  0
  194.5100  173.1450  144.1970 S   0  0  0  0  0  0  0  0  0  0  0  0
  195.3570  173.1330  142.5920 C   0  0  0  0  0  2  0  0  0  0  0  0
  194.4440  173.4380  141.5850 O   0  0  0  0  0  1  0  0  0  0  0  0
  189.4850  176.3300  142.6660 C   0  0  0  0  0  2  0  0  0  0  0  0
  188.0030  177.3370  145.2060 C   0  0  0  0  0  2  0  0  0  0  0  0
  187.0190  175.9350  142.9270 C   0  0  0  0  0  3  0  0  0  0  0  0
  186.5030  177.3970  144.8980 C   0  0  2  0  0  3  0  0  0  0  0  0
  188.5290  175.9290  144.9360 C   0  0  0  0  0  2  0  0  0  0  0  0
  186.1870  176.7810  143.5530 C   0  0  0  0  0  3  0  0  0  0  0  0
  188.3950  175.5940  143.4490 C   0  0  2  0  0  3  0  0  0  0  0  0
  185.3250  179.2660  143.6700 C   0  0  0  0  0  1  0  0  0  0  0  0
  185.9710  178.8360  144.9830 C   0  0  1  0  0  3  0  0  0  0  0  0
  184.2340  177.8510  146.3230 O   0  0  0  0  0  1  0  0  0  0  0  0
  185.6600  179.3230  147.3300 O   0  0  0  0  0  1  0  0  0  0  0  0
  184.9880  179.0110  146.1450 C   0  0  0  0  0  3  0  0  0  0  0  0
  190.6820  173.4720  141.3980 C   0  0  0  0  0  2  0  0  0  0  0  0
  189.3700  172.7350  141.1270 C   0  0  1  0  0  3  0  0  0  0  0  0
  188.7940  172.3070  142.3260 O   0  0  0  0  0  1  0  0  0  0  0  0
  188.4250  173.5450  140.3540 N   0  0  0  0  0  2  0  0  0  0  0  0
  188.2340  172.9750  139.0250 C   0  0  0  0  0  2  0  0  0  0  0  0
  188.5650  173.9950  137.9960 C   0  0  0  0  0  0  0  0  0  0  0  0
  189.8430  174.0480  137.4570 O   0  0  0  0  0  0  0  0  0  0  0  0
  187.6760  174.7870  137.5840 O   0  0  0  0  0  1  0  0  0  0  0  0
  1  7  1  6  0  0  0
  1  3  1  0  0  0  0
  2  4  1  6  0  0  0
  2 13  1  0  0  0  0
  3  7  1  6  0  0  0
  3 11  1  0  0  0  0
  5  2  1  0  0  0  0
  5  3  1  0  0  0  0
  5 14  1  1  0  0  0
  6 29  1  6  0  0  0
  6  2  1  0  0  0  0
  8 17  1  1  0  0  0
  8  6  1  0  0  0  0
  8  1  1  0  0  0  0
  9 10  1  0  0  0  0
 11  9  1  0  0  0  0
 11 10  1  1  0  0  0
 13 12  1  0  0  0  0
 15 14  1  0  0  0  0
 16 15  1  0  0  0  0
 19 23  1  0  0  0  0
 19 22  2  0  0  0  0
 20 25  1  6  0  0  0
 20 18  1  0  0  0  0
 21 18  1  0  0  0  0
 22 20  1  0  0  0  0
 23 17  1  6  0  0  0
 23 21  1  0  0  0  0
 25 24  1  6  0  0  0
 25 28  1  0  0  0  0
 28 26  1  0  0  0  0
 28 27  1  0  0  0  0
 30 29  1  0  0  0  0
 30 31  1  1  0  0  0
 32 30  1  0  0  0  0
 33 32  1  0  0  0  0
 34 33  1  0  0  0  0
 35 34  2  0  0  0  0
 36 34  1  0  0  0  0
M  END
>  <MODEL>
3

>  <REMARK>
 VINA RESULT:      -6.2      2.262      2.968
  Name = 
  13 active torsions:
  status: ('A' for Active; 'I' for Inactive)
    1  A    between atoms: S_1  and  C_25
    2  A    between atoms: S_1  and  C_26
    3  A    between atoms: C_3  and  N_20
    4  A    between atoms: C_3  and  C_24
    5  A    between atoms: C_8  and  C_22
    6  A    between atoms: C_11  and  C_16
    7  A    between atoms: C_11  and  C_34
    8  A    between atoms: C_12  and  N_20
    9  A    between atoms: C_12  and  C_35
   10  A    between atoms: C_14  and  O_36
   11  A    between atoms: C_17  and  C_27
   12  A    between atoms: C_22  and  C_33
   13  A    between atoms: C_30  and  C_35
                            x       y       z     vdW  Elec       q    Type
                         _______ _______ _______ _____ _____    ______ ____

>  <TORSDO>
F 13

$$$$
=
 OpenBabel11072408453D

 36 39  0  0  1  0  0  0  0  0999 V2000
  192.3470  176.1750  144.4050 C   0  0  1  0  0  3  0  0  0  0  0  0
  193.0110  173.3100  144.2480 C   0  0  1  0  0  0  0  0  0  0  0  0
  193.7510  175.7140  144.1900 C   0  0  1  0  0  0  0  0  0  0  0  0
  193.2680  172.0260  143.7790 F   0  0  0  0  0  0  0  0  0  0  0  0
  193.9450  174.3230  143.5690 C   0  0  1  0  0  3  0  0  0  0  0  0
  191.5530  173.6920  143.9230 C   0  0  1  0  0  3  0  0  0  0  0  0
  193.1170  176.5940  143.2980 O   0  0  0  0  0  0  0  0  0  0  0  0
  191.2550  175.2120  143.9090 C   0  0  1  0  0  3  0  0  0  0  0  0
  195.2320  175.6510  146.0850 O   0  0  0  0  0  0  0  0  0  0  0  0
  194.4480  176.7850  146.3460 C   0  0  0  0  0  2  0  0  0  0  0  0
  194.8640  176.4270  144.9680 C   0  0  2  0  0  3  0  0  0  0  0  0
  193.8800  172.2820  145.9930 F   0  0  0  0  0  0  0  0  0  0  0  0
  193.1660  173.3440  145.6480 O   0  0  0  0  0  0  0  0  0  0  0  0
  195.6880  173.7790  143.4850 S   0  0  0  0  0  0  0  0  0  0  0  0
  195.8750  174.3940  141.7880 C   0  0  0  0  0  2  0  0  0  0  0  0
  196.4120  175.6800  141.8180 O   0  0  0  0  0  1  0  0  0  0  0  0
  189.8950  175.5340  144.5320 C   0  0  0  0  0  2  0  0  0  0  0  0
  187.6090  177.4880  143.7450 C   0  0  0  0  0  2  0  0  0  0  0  0
  188.9290  177.0980  146.2420 C   0  0  0  0  0  3  0  0  0  0  0  0
  186.9090  177.9520  145.0270 C   0  0  2  0  0  3  0  0  0  0  0  0
  189.1020  177.7950  143.8330 C   0  0  0  0  0  2  0  0  0  0  0  0
  187.6460  177.4850  146.2630 C   0  0  0  0  0  3  0  0  0  0  0  0
  189.7380  176.9920  144.9700 C   0  0  2  0  0  3  0  0  0  0  0  0
  185.0860  176.8600  146.3940 C   0  0  0  0  0  1  0  0  0  0  0  0
  185.4410  177.5020  145.0570 C   0  0  1  0  0  3  0  0  0  0  0  0
  183.6720  178.9250  145.8530 O   0  0  0  0  0  1  0  0  0  0  0  0
  185.1870  179.8130  144.3930 O   0  0  0  0  0  1  0  0  0  0  0  0
  184.4840  178.6590  144.7490 C   0  0  0  0  0  3  0  0  0  0  0  0
  191.0720  173.0510  142.6180 C   0  0  0  0  0  2  0  0  0  0  0  0
  189.9350  172.0570  142.8550 C   0  0  1  0  0  3  0  0  0  0  0  0
  189.5400  172.0770  144.1950 O   0  0  0  0  0  1  0  0  0  0  0  0
  188.7920  172.2970  141.9710 N   0  0  0  0  0  2  0  0  0  0  0  0
  189.0440  173.4490  141.1120 C   0  0  0  0  0  2  0  0  0  0  0  0
  188.0930  174.5390  141.4540 C   0  0  0  0  0  0  0  0  0  0  0  0
  188.0870  175.7130  140.7120 O   0  0  0  0  0  0  0  0  0  0  0  0
  187.2670  174.3850  142.3910 O   0  0  0  0  0  1  0  0  0  0  0  0
  1  7  1  6  0  0  0
  2  4  1  6  0  0  0
  2 13  1  0  0  0  0
  3  7  1  6  0  0  0
  3  1  1  0  0  0  0
  3 11  1  0  0  0  0
  5 14  1  1  0  0  0
  5  3  1  0  0  0  0
  5  2  1  0  0  0  0
  6 29  1  6  0  0  0
  6  2  1  0  0  0  0
  8  6  1  0  0  0  0
  8  1  1  0  0  0  0
  8 17  1  1  0  0  0
  9 10  1  0  0  0  0
 11  9  1  0  0  0  0
 11 10  1  1  0  0  0
 13 12  1  0  0  0  0
 15 16  1  0  0  0  0
 15 14  1  0  0  0  0
 18 21  1  0  0  0  0
 18 20  1  0  0  0  0
 19 22  2  0  0  0  0
 20 25  1  1  0  0  0
 20 22  1  0  0  0  0
 21 23  1  0  0  0  0
 23 17  1  6  0  0  0
 23 19  1  0  0  0  0
 25 24  1  1  0  0  0
 27 28  1  0  0  0  0
 28 25  1  0  0  0  0
 28 26  1  0  0  0  0
 29 30  1  0  0  0  0
 30 31  1  1  0  0  0
 32 30  1  0  0  0  0
 33 34  1  0  0  0  0
 33 32  1  0  0  0  0
 34 36  1  0  0  0  0
 35 34  2  0  0  0  0
M  END
>  <MODEL>
4

>  <REMARK>
 VINA RESULT:      -6.1      2.070      2.764
  Name = 
  13 active torsions:
  status: ('A' for Active; 'I' for Inactive)
    1  A    between atoms: S_1  and  C_25
    2  A    between atoms: S_1  and  C_26
    3  A    between atoms: C_3  and  N_20
    4  A    between atoms: C_3  and  C_24
    5  A    between atoms: C_8  and  C_22
    6  A    between atoms: C_11  and  C_16
    7  A    between atoms: C_11  and  C_34
    8  A    between atoms: C_12  and  N_20
    9  A    between atoms: C_12  and  C_35
   10  A    between atoms: C_14  and  O_36
   11  A    between atoms: C_17  and  C_27
   12  A    between atoms: C_22  and  C_33
   13  A    between atoms: C_30  and  C_35
                            x       y       z     vdW  Elec       q    Type
                         _______ _______ _______ _____ _____    ______ ____

>  <TORSDO>
F 13

$$$$
=
 OpenBabel11072408453D

 36 39  0  0  1  0  0  0  0  0999 V2000
  192.5870  176.1110  143.5860 C   0  0  1  0  0  3  0  0  0  0  0  0
  192.8440  173.4970  144.9170 C   0  0  1  0  0  0  0  0  0  0  0  0
  193.9210  175.5720  143.9870 C   0  0  1  0  0  0  0  0  0  0  0  0
  193.0110  172.1380  145.1630 F   0  0  0  0  0  0  0  0  0  0  0  0
  194.0450  174.0490  144.1350 C   0  0  1  0  0  3  0  0  0  0  0  0
  191.5690  173.7120  144.0770 C   0  0  1  0  0  3  0  0  0  0  0  0
  193.6400  175.9410  142.6610 O   0  0  0  0  0  0  0  0  0  0  0  0
  191.5070  175.0530  143.3030 C   0  0  1  0  0  3  0  0  0  0  0  0
  195.0910  176.2140  145.9890 O   0  0  0  0  0  0  0  0  0  0  0  0
  194.3070  177.3450  145.7160 C   0  0  0  0  0  2  0  0  0  0  0  0
  194.9200  176.5420  144.6290 C   0  0  2  0  0  3  0  0  0  0  0  0
  191.3800  174.3600  146.3200 F   0  0  0  0  0  0  0  0  0  0  0  0
  192.6810  174.1830  146.1370 O   0  0  0  0  0  0  0  0  0  0  0  0
  195.6640  173.4900  144.7750 S   0  0  0  0  0  0  0  0  0  0  0  0
  195.8720  172.3000  143.4210 C   0  0  0  0  0  2  0  0  0  0  0  0
  195.2000  172.7630  142.2910 O   0  0  0  0  0  1  0  0  0  0  0  0
  190.1040  175.6600  143.3240 C   0  0  0  0  0  2  0  0  0  0  0  0
  187.7930  177.7190  143.0290 C   0  0  0  0  0  2  0  0  0  0  0  0
  189.3970  177.0530  145.2910 C   0  0  0  0  0  3  0  0  0  0  0  0
  187.2670  178.0580  144.4280 C   0  0  2  0  0  3  0  0  0  0  0  0
  189.2930  177.9940  142.9620 C   0  0  0  0  0  2  0  0  0  0  0  0
  188.1360  177.4540  145.5090 C   0  0  0  0  0  3  0  0  0  0  0  0
  190.0410  177.0680  143.9230 C   0  0  2  0  0  3  0  0  0  0  0  0
  185.6020  176.8270  145.8770 C   0  0  0  0  0  1  0  0  0  0  0  0
  185.8020  177.6290  144.5950 C   0  0  1  0  0  3  0  0  0  0  0  0
  184.1250  178.9070  145.7510 O   0  0  0  0  0  1  0  0  0  0  0  0
  185.5490  180.0210  144.3570 O   0  0  0  0  0  1  0  0  0  0  0  0
  184.8500  178.8290  144.5620 C   0  0  0  0  0  3  0  0  0  0  0  0
  191.3090  172.5440  143.1240 C   0  0  0  0  0  2  0  0  0  0  0  0
  189.9700  171.8620  143.4080 C   0  0  1  0  0  3  0  0  0  0  0  0
  189.5900  172.0660  144.7370 O   0  0  0  0  0  1  0  0  0  0  0  0
  188.9150  172.3010  142.4910 N   0  0  0  0  0  2  0  0  0  0  0  0
  189.3920  172.2700  141.1130 C   0  0  0  0  0  2  0  0  0  0  0  0
  188.5700  173.1890  140.2830 C   0  0  0  0  0  0  0  0  0  0  0  0
  188.1480  174.4050  140.8050 O   0  0  0  0  0  1  0  0  0  0  0  0
  188.2890  172.8840  139.0950 O   0  0  0  0  0  0  0  0  0  0  0  0
  1  7  1  6  0  0  0
  1  3  1  0  0  0  0
  2  4  1  1  0  0  0
  2 13  1  0  0  0  0
  3  7  1  6  0  0  0
  3  5  1  0  0  0  0
  3 11  1  0  0  0  0
  5 14  1  1  0  0  0
  5  2  1  0  0  0  0
  6 29  1  6  0  0  0
  6  2  1  0  0  0  0
  8 17  1  1  0  0  0
  8  1  1  0  0  0  0
  8  6  1  0  0  0  0
 10  9  1  0  0  0  0
 11 10  1  1  0  0  0
 11  9  1  0  0  0  0
 13 12  1  0  0  0  0
 15 14  1  0  0  0  0
 16 15  1  0  0  0  0
 18 20  1  0  0  0  0
 19 22  2  0  0  0  0
 20 25  1  6  0  0  0
 20 22  1  0  0  0  0
 21 18  1  0  0  0  0
 21 23  1  0  0  0  0
 23 17  1  6  0  0  0
 23 19  1  0  0  0  0
 25 24  1  1  0  0  0
 27 28  1  0  0  0  0
 28 25  1  0  0  0  0
 28 26  1  0  0  0  0
 29 30  1  0  0  0  0
 30 31  1  1  0  0  0
 32 30  1  0  0  0  0
 33 32  1  0  0  0  0
 34 35  1  0  0  0  0
 34 33  1  0  0  0  0
 36 34  2  0  0  0  0
M  END
>  <MODEL>
5

>  <REMARK>
 VINA RESULT:      -6.1      2.395      3.323
  Name = 
  13 active torsions:
  status: ('A' for Active; 'I' for Inactive)
    1  A    between atoms: S_1  and  C_25
    2  A    between atoms: S_1  and  C_26
    3  A    between atoms: C_3  and  N_20
    4  A    between atoms: C_3  and  C_24
    5  A    between atoms: C_8  and  C_22
    6  A    between atoms: C_11  and  C_16
    7  A    between atoms: C_11  and  C_34
    8  A    between atoms: C_12  and  N_20
    9  A    between atoms: C_12  and  C_35
   10  A    between atoms: C_14  and  O_36
   11  A    between atoms: C_17  and  C_27
   12  A    between atoms: C_22  and  C_33
   13  A    between atoms: C_30  and  C_35
                            x       y       z     vdW  Elec       q    Type
                         _______ _______ _______ _____ _____    ______ ____

>  <TORSDO>
F 13

$$$$
=
 OpenBabel11072408453D

 36 39  0  0  1  0  0  0  0  0999 V2000
  191.4610  175.4720  142.7920 C   0  0  1  0  0  3  0  0  0  0  0  0
  192.5280  176.0740  145.4710 C   0  0  1  0  0  0  0  0  0  0  0  0
  192.7370  174.8630  143.2750 C   0  0  1  0  0  0  0  0  0  0  0  0
  192.8170  176.0270  146.8300 F   0  0  0  0  0  0  0  0  0  0  0  0
  192.9310  174.7550  144.7940 C   0  0  1  0  0  3  0  0  0  0  0  0
  191.0120  176.2820  145.2770 C   0  0  1  0  0  3  0  0  0  0  0  0
  191.6610  174.0750  142.8340 O   0  0  0  0  0  0  0  0  0  0  0  0
  190.4580  175.8590  143.8930 C   0  0  1  0  0  3  0  0  0  0  0  0
  194.9450  175.6450  142.7260 O   0  0  0  0  0  0  0  0  0  0  0  0
  194.1800  176.0970  141.6390 C   0  0  0  0  0  2  0  0  0  0  0  0
  193.9110  174.7920  142.2910 C   0  0  2  0  0  3  0  0  0  0  0  0
  194.2190  177.4740  145.6630 F   0  0  0  0  0  0  0  0  0  0  0  0
  193.1950  177.1650  144.8810 O   0  0  0  0  0  0  0  0  0  0  0  0
  194.5790  174.1410  145.2950 S   0  0  0  0  0  0  0  0  0  0  0  0
  193.9840  172.4320  145.4260 C   0  0  0  0  0  2  0  0  0  0  0  0
  194.0860  171.8090  144.1830 O   0  0  0  0  0  1  0  0  0  0  0  0
  189.4040  176.8390  143.3760 C   0  0  0  0  0  2  0  0  0  0  0  0
  186.3080  176.5830  143.2550 C   0  0  0  0  0  2  0  0  0  0  0  0
  188.1730  177.4080  141.2620 C   0  0  0  0  0  3  0  0  0  0  0  0
  185.8010  177.4180  142.0750 C   0  0  2  0  0  3  0  0  0  0  0  0
  187.3420  175.5720  142.7650 C   0  0  0  0  0  2  0  0  0  0  0  0
  186.9430  177.9410  141.2320 C   0  0  0  0  0  3  0  0  0  0  0  0
  188.5690  176.3000  142.2120 C   0  0  2  0  0  3  0  0  0  0  0  0
  183.4330  178.2910  142.2130 C   0  0  0  0  0  1  0  0  0  0  0  0
  184.8950  178.5650  142.5480 C   0  0  1  0  0  3  0  0  0  0  0  0
  185.8540  179.9650  144.2520 O   0  0  0  0  0  1  0  0  0  0  0  0
  183.8180  179.0170  144.6640 O   0  0  0  0  0  1  0  0  0  0  0  0
  185.0580  178.8370  144.0470 C   0  0  0  0  0  3  0  0  0  0  0  0
  190.1980  175.6220  146.3920 C   0  0  0  0  0  2  0  0  0  0  0  0
  189.5010  176.6540  147.2790 C   0  0  1  0  0  3  0  0  0  0  0  0
  190.3950  177.6630  147.6490 O   0  0  0  0  0  1  0  0  0  0  0  0
  188.3090  177.2210  146.6440 N   0  0  0  0  0  2  0  0  0  0  0  0
  187.1520  176.3640  146.8750 C   0  0  0  0  0  2  0  0  0  0  0  0
  185.9600  177.2050  147.1590 C   0  0  0  0  0  0  0  0  0  0  0  0
  186.1180  178.4650  147.7210 O   0  0  0  0  0  1  0  0  0  0  0  0
  184.8100  176.7930  146.8560 O   0  0  0  0  0  0  0  0  0  0  0  0
  1  7  1  6  0  0  0
  1  3  1  0  0  0  0
  1  8  1  0  0  0  0
  2  4  1  1  0  0  0
  3  7  1  6  0  0  0
  3  5  1  0  0  0  0
  5 14  1  6  0  0  0
  5  2  1  0  0  0  0
  6  2  1  0  0  0  0
  6 29  1  1  0  0  0
  8 17  1  6  0  0  0
  8  6  1  0  0  0  0
 10  9  1  0  0  0  0
 11 10  1  6  0  0  0
 11  9  1  0  0  0  0
 11  3  1  0  0  0  0
 13  2  1  0  0  0  0
 13 12  1  0  0  0  0
 14 15  1  0  0  0  0
 16 15  1  0  0  0  0
 19 23  1  0  0  0  0
 20 25  1  1  0  0  0
 20 18  1  0  0  0  0
 21 18  1  0  0  0  0
 22 19  2  0  0  0  0
 22 20  1  0  0  0  0
 23 21  1  0  0  0  0
 23 17  1  1  0  0  0
 25 24  1  1  0  0  0
 25 28  1  0  0  0  0
 28 26  1  0  0  0  0
 28 27  1  0  0  0  0
 29 30  1  0  0  0  0
 30 31  1  6  0  0  0
 32 33  1  0  0  0  0
 32 30  1  0  0  0  0
 33 34  1  0  0  0  0
 34 35  1  0  0  0  0
 36 34  2  0  0  0  0
M  END
>  <MODEL>
6

>  <REMARK>
 VINA RESULT:      -6.0      2.620      4.704
  Name = 
  13 active torsions:
  status: ('A' for Active; 'I' for Inactive)
    1  A    between atoms: S_1  and  C_25
    2  A    between atoms: S_1  and  C_26
    3  A    between atoms: C_3  and  N_20
    4  A    between atoms: C_3  and  C_24
    5  A    between atoms: C_8  and  C_22
    6  A    between atoms: C_11  and  C_16
    7  A    between atoms: C_11  and  C_34
    8  A    between atoms: C_12  and  N_20
    9  A    between atoms: C_12  and  C_35
   10  A    between atoms: C_14  and  O_36
   11  A    between atoms: C_17  and  C_27
   12  A    between atoms: C_22  and  C_33
   13  A    between atoms: C_30  and  C_35
                            x       y       z     vdW  Elec       q    Type
                         _______ _______ _______ _____ _____    ______ ____

>  <TORSDO>
F 13

$$$$
=
 OpenBabel11072408453D

 36 39  0  0  1  0  0  0  0  0999 V2000
  191.8890  174.1630  143.1480 C   0  0  1  0  0  3  0  0  0  0  0  0
  192.9500  175.8830  145.2900 C   0  0  1  0  0  0  0  0  0  0  0  0
  193.3500  174.2120  143.4520 C   0  0  1  0  0  0  0  0  0  0  0  0
  193.3990  176.3560  146.5180 F   0  0  0  0  0  0  0  0  0  0  0  0
  193.7570  174.6460  144.8670 C   0  0  1  0  0  3  0  0  0  0  0  0
  191.4650  175.4830  145.4080 C   0  0  1  0  0  3  0  0  0  0  0  0
  192.6310  173.0050  143.4690 O   0  0  0  0  0  0  0  0  0  0  0  0
  190.9590  174.4940  144.3280 C   0  0  1  0  0  3  0  0  0  0  0  0
  194.9040  175.5370  142.1800 O   0  0  0  0  0  0  0  0  0  0  0  0
  193.9120  175.2350  141.2340 C   0  0  0  0  0  2  0  0  0  0  0  0
  194.3250  174.2550  142.2690 C   0  0  2  0  0  3  0  0  0  0  0  0
  192.1560  177.8310  144.6340 F   0  0  0  0  0  0  0  0  0  0  0  0
  193.0490  176.9020  144.3230 O   0  0  0  0  0  0  0  0  0  0  0  0
  195.5610  174.8250  145.1040 S   0  0  0  0  0  0  0  0  0  0  0  0
  195.7640  173.0580  145.4620 C   0  0  0  0  0  2  0  0  0  0  0  0
  196.9690  172.8560  146.1320 O   0  0  0  0  0  1  0  0  0  0  0  0
  189.5470  174.8400  143.8530 C   0  0  0  0  0  2  0  0  0  0  0  0
  187.0190  175.9190  142.4000 C   0  0  0  0  0  2  0  0  0  0  0  0
  189.3810  177.2730  143.2490 C   0  0  0  0  0  3  0  0  0  0  0  0
  186.9680  177.4400  142.5850 C   0  0  2  0  0  3  0  0  0  0  0  0
  188.3510  175.5200  141.7700 C   0  0  0  0  0  2  0  0  0  0  0  0
  188.2310  177.9630  143.2320 C   0  0  0  0  0  3  0  0  0  0  0  0
  189.5040  175.8640  142.7150 C   0  0  2  0  0  3  0  0  0  0  0  0
  185.9410  179.2090  144.0670 C   0  0  0  0  0  1  0  0  0  0  0  0
  185.7240  177.8660  143.3780 C   0  0  1  0  0  3  0  0  0  0  0  0
  183.4750  178.6710  143.1070 O   0  0  0  0  0  1  0  0  0  0  0  0
  184.7670  178.4520  141.2370 O   0  0  0  0  0  1  0  0  0  0  0  0
  184.4740  177.9150  142.4930 C   0  0  0  0  0  3  0  0  0  0  0  0
  191.1240  174.9550  146.8030 C   0  0  0  0  0  2  0  0  0  0  0  0
  190.1850  175.8970  147.5570 C   0  0  1  0  0  3  0  0  0  0  0  0
  190.7960  177.1370  147.7610 O   0  0  0  0  0  1  0  0  0  0  0  0
  188.8950  176.0560  146.8810 N   0  0  0  0  0  2  0  0  0  0  0  0
  188.4720  177.4510  146.9110 C   0  0  0  0  0  2  0  0  0  0  0  0
  187.0030  177.5200  147.1230 C   0  0  0  0  0  0  0  0  0  0  0  0
  186.1770  176.5470  146.5740 O   0  0  0  0  0  0  0  0  0  0  0  0
  186.5090  178.4370  147.8300 O   0  0  0  0  0  1  0  0  0  0  0  0
  1  3  1  0  0  0  0
  1  7  1  1  0  0  0
  1  8  1  0  0  0  0
  2  6  1  0  0  0  0
  2  4  1  1  0  0  0
  3  7  1  1  0  0  0
  3  5  1  0  0  0  0
  5 14  1  6  0  0  0
  5  2  1  0  0  0  0
  6 29  1  1  0  0  0
  8 17  1  6  0  0  0
  8  6  1  0  0  0  0
  9 11  1  0  0  0  0
 10  9  1  0  0  0  0
 11 10  1  6  0  0  0
 11  3  1  0  0  0  0
 13 12  1  0  0  0  0
 13  2  1  0  0  0  0
 14 15  1  0  0  0  0
 15 16  1  0  0  0  0
 18 20  1  0  0  0  0
 20 22  1  0  0  0  0
 20 25  1  1  0  0  0
 21 18  1  0  0  0  0
 21 23  1  0  0  0  0
 22 19  2  0  0  0  0
 23 19  1  0  0  0  0
 23 17  1  1  0  0  0
 25 24  1  6  0  0  0
 27 28  1  0  0  0  0
 28 26  1  0  0  0  0
 28 25  1  0  0  0  0
 29 30  1  0  0  0  0
 30 31  1  6  0  0  0
 32 33  1  0  0  0  0
 32 30  1  0  0  0  0
 33 34  1  0  0  0  0
 34 36  1  0  0  0  0
 35 34  2  0  0  0  0
M  END
>  <MODEL>
7

>  <REMARK>
 VINA RESULT:      -6.0      2.503      4.569
  Name = 
  13 active torsions:
  status: ('A' for Active; 'I' for Inactive)
    1  A    between atoms: S_1  and  C_25
    2  A    between atoms: S_1  and  C_26
    3  A    between atoms: C_3  and  N_20
    4  A    between atoms: C_3  and  C_24
    5  A    between atoms: C_8  and  C_22
    6  A    between atoms: C_11  and  C_16
    7  A    between atoms: C_11  and  C_34
    8  A    between atoms: C_12  and  N_20
    9  A    between atoms: C_12  and  C_35
   10  A    between atoms: C_14  and  O_36
   11  A    between atoms: C_17  and  C_27
   12  A    between atoms: C_22  and  C_33
   13  A    between atoms: C_30  and  C_35
                            x       y       z     vdW  Elec       q    Type
                         _______ _______ _______ _____ _____    ______ ____

>  <TORSDO>
F 13

$$$$
=
 OpenBabel11072408453D

 36 39  0  0  1  0  0  0  0  0999 V2000
  192.4320  175.7820  142.4450 C   0  0  1  0  0  3  0  0  0  0  0  0
  193.7090  175.3610  145.0660 C   0  0  1  0  0  0  0  0  0  0  0  0
  193.6960  174.9970  142.5760 C   0  0  1  0  0  0  0  0  0  0  0  0
  194.0830  174.8270  146.2950 F   0  0  0  0  0  0  0  0  0  0  0  0
  193.9820  174.3520  143.9400 C   0  0  1  0  0  3  0  0  0  0  0  0
  192.2000  175.6780  145.0850 C   0  0  1  0  0  3  0  0  0  0  0  0
  192.5460  174.4530  141.9800 O   0  0  0  0  0  0  0  0  0  0  0  0
  191.5300  175.7910  143.6920 C   0  0  1  0  0  3  0  0  0  0  0  0
  195.8730  175.9190  142.1330 O   0  0  0  0  0  0  0  0  0  0  0  0
  195.0420  176.6780  141.2950 C   0  0  0  0  0  2  0  0  0  0  0  0
  194.7960  175.2350  141.5350 C   0  0  2  0  0  3  0  0  0  0  0  0
  193.7030  177.5380  145.4090 F   0  0  0  0  0  0  0  0  0  0  0  0
  194.4020  176.5660  144.8410 O   0  0  0  0  0  0  0  0  0  0  0  0
  195.6180  173.5430  144.0560 S   0  0  0  0  0  0  0  0  0  0  0  0
  194.9270  172.1050  144.9210 C   0  0  0  0  0  2  0  0  0  0  0  0
  193.5760  171.9790  144.6050 O   0  0  0  0  0  1  0  0  0  0  0  0
  190.5080  176.9270  143.6390 C   0  0  0  0  0  2  0  0  0  0  0  0
  187.6300  176.8180  144.8100 C   0  0  0  0  0  2  0  0  0  0  0  0
  188.5700  177.8090  142.3070 C   0  0  0  0  0  3  0  0  0  0  0  0
  186.7580  177.8160  144.0400 C   0  0  2  0  0  3  0  0  0  0  0  0
  188.2720  175.8350  143.8340 C   0  0  0  0  0  2  0  0  0  0  0  0
  187.4920  178.3930  142.8500 C   0  0  0  0  0  3  0  0  0  0  0  0
  189.2210  176.5740  142.8890 C   0  0  2  0  0  3  0  0  0  0  0  0
  185.1830  179.7800  144.2590 C   0  0  0  0  0  1  0  0  0  0  0  0
  186.2380  178.9310  144.9600 C   0  0  1  0  0  3  0  0  0  0  0  0
  185.8530  179.3000  147.3050 O   0  0  0  0  0  1  0  0  0  0  0  0
  184.3350  178.0400  146.1550 O   0  0  0  0  0  1  0  0  0  0  0  0
  185.6860  178.3720  146.2760 C   0  0  0  0  0  3  0  0  0  0  0  0
  191.4200  174.6970  145.9630 C   0  0  0  0  0  2  0  0  0  0  0  0
  190.5150  175.4180  146.9620 C   0  0  1  0  0  3  0  0  0  0  0  0
  189.3480  174.6820  147.1840 O   0  0  0  0  0  1  0  0  0  0  0  0
  191.1980  175.7060  148.2260 N   0  0  0  0  0  2  0  0  0  0  0  0
  191.8210  177.0240  148.1810 C   0  0  0  0  0  2  0  0  0  0  0  0
  191.1580  177.9190  149.1640 C   0  0  0  0  0  0  0  0  0  0  0  0
  191.5600  177.9090  150.4930 O   0  0  0  0  0  1  0  0  0  0  0  0
  190.2590  178.7160  148.7860 O   0  0  0  0  0  0  0  0  0  0  0  0
  1  7  1  6  0  0  0
  1  3  1  0  0  0  0
  1  8  1  0  0  0  0
  2  6  1  0  0  0  0
  2  4  1  1  0  0  0
  3  7  1  6  0  0  0
  3  5  1  0  0  0  0
  5 14  1  6  0  0  0
  5  2  1  0  0  0  0
  6 29  1  1  0  0  0
  8 17  1  1  0  0  0
  8  6  1  0  0  0  0
 10  9  1  0  0  0  0
 11 10  1  6  0  0  0
 11  9  1  0  0  0  0
 11  3  1  0  0  0  0
 13  2  1  0  0  0  0
 13 12  1  0  0  0  0
 14 15  1  0  0  0  0
 16 15  1  0  0  0  0
 19 22  2  0  0  0  0
 19 23  1  0  0  0  0
 20 18  1  0  0  0  0
 20 25  1  1  0  0  0
 21 18  1  0  0  0  0
 22 20  1  0  0  0  0
 23 17  1  1  0  0  0
 23 21  1  0  0  0  0
 25 24  1  6  0  0  0
 25 28  1  0  0  0  0
 27 28  1  0  0  0  0
 28 26  1  0  0  0  0
 29 30  1  0  0  0  0
 30 31  1  1  0  0  0
 30 32  1  0  0  0  0
 33 32  1  0  0  0  0
 33 34  1  0  0  0  0
 34 35  1  0  0  0  0
 36 34  2  0  0  0  0
M  END
>  <MODEL>
8

>  <REMARK>
 VINA RESULT:      -5.9      3.104      5.299
  Name = 
  13 active torsions:
  status: ('A' for Active; 'I' for Inactive)
    1  A    between atoms: S_1  and  C_25
    2  A    between atoms: S_1  and  C_26
    3  A    between atoms: C_3  and  N_20
    4  A    between atoms: C_3  and  C_24
    5  A    between atoms: C_8  and  C_22
    6  A    between atoms: C_11  and  C_16
    7  A    between atoms: C_11  and  C_34
    8  A    between atoms: C_12  and  N_20
    9  A    between atoms: C_12  and  C_35
   10  A    between atoms: C_14  and  O_36
   11  A    between atoms: C_17  and  C_27
   12  A    between atoms: C_22  and  C_33
   13  A    between atoms: C_30  and  C_35
                            x       y       z     vdW  Elec       q    Type
                         _______ _______ _______ _____ _____    ______ ____

>  <TORSDO>
F 13

$$$$
=
 OpenBabel11072408453D

 36 39  0  0  1  0  0  0  0  0999 V2000
  187.2280  177.2180  144.9670 C   0  0  1  0  0  3  0  0  0  0  0  0
  187.6580  177.2700  142.0540 C   0  0  1  0  0  0  0  0  0  0  0  0
  186.3310  177.9980  144.0640 C   0  0  1  0  0  0  0  0  0  0  0  0
  187.6030  176.9820  140.6940 F   0  0  0  0  0  0  0  0  0  0  0  0
  186.2490  177.5480  142.5980 C   0  0  1  0  0  3  0  0  0  0  0  0
  188.2470  176.0620  142.8100 C   0  0  1  0  0  3  0  0  0  0  0  0
  185.8310  177.0160  144.9340 O   0  0  0  0  0  0  0  0  0  0  0  0
  187.9170  176.0030  144.3220 C   0  0  1  0  0  3  0  0  0  0  0  0
  185.5940  179.3810  145.8900 O   0  0  0  0  0  0  0  0  0  0  0  0
  184.5060  179.4360  145.0050 C   0  0  0  0  0  2  0  0  0  0  0  0
  185.9060  179.4010  144.5150 C   0  0  2  0  0  3  0  0  0  0  0  0
  189.7530  177.9540  142.0980 F   0  0  0  0  0  0  0  0  0  0  0  0
  188.5070  178.3730  142.2720 O   0  0  0  0  0  0  0  0  0  0  0  0
  185.2500  178.6490  141.5330 S   0  0  0  0  0  0  0  0  0  0  0  0
  183.6940  177.9100  142.1040 C   0  0  0  0  0  2  0  0  0  0  0  0
  182.6690  178.2480  141.2220 O   0  0  0  0  0  1  0  0  0  0  0  0
  189.1120  175.5280  145.1500 C   0  0  0  0  0  2  0  0  0  0  0  0
  191.6930  175.2560  146.8610 C   0  0  0  0  0  2  0  0  0  0  0  0
  190.9860  177.1790  144.8780 C   0  0  0  0  0  3  0  0  0  0  0  0
  192.8110  176.0540  146.1800 C   0  0  2  0  0  3  0  0  0  0  0  0
  190.4970  176.1660  147.1260 C   0  0  0  0  0  2  0  0  0  0  0  0
  192.2830  176.8690  145.0200 C   0  0  0  0  0  3  0  0  0  0  0  0
  189.9090  176.6610  145.8040 C   0  0  2  0  0  3  0  0  0  0  0  0
  193.5510  173.6710  145.7820 C   0  0  0  0  0  1  0  0  0  0  0  0
  193.9610  175.1390  145.7330 C   0  0  1  0  0  3  0  0  0  0  0  0
  195.7570  176.0370  144.4100 O   0  0  0  0  0  1  0  0  0  0  0  0
  194.4660  174.3930  143.4900 O   0  0  0  0  0  1  0  0  0  0  0  0
  194.4690  175.5060  144.3350 C   0  0  0  0  0  3  0  0  0  0  0  0
  187.8780  174.7350  142.1410 C   0  0  0  0  0  2  0  0  0  0  0  0
  189.0820  174.0830  141.4610 C   0  0  1  0  0  3  0  0  0  0  0  0
  188.9420  174.1290  140.0710 O   0  0  0  0  0  1  0  0  0  0  0  0
  190.3510  174.6860  141.8770 N   0  0  0  0  0  2  0  0  0  0  0  0
  191.1390  173.7320  142.6500 C   0  0  0  0  0  2  0  0  0  0  0  0
  191.7950  172.7680  141.7290 C   0  0  0  0  0  0  0  0  0  0  0  0
  191.4390  171.4270  141.7600 O   0  0  0  0  0  1  0  0  0  0  0  0
  192.6440  173.1730  140.8930 O   0  0  0  0  0  0  0  0  0  0  0  0
  1  7  1  1  0  0  0
  2  4  1  6  0  0  0
  2 13  1  0  0  0  0
  2  5  1  0  0  0  0
  2  6  1  0  0  0  0
  3 11  1  0  0  0  0
  3  7  1  1  0  0  0
  3  1  1  0  0  0  0
  5 14  1  6  0  0  0
  5  3  1  0  0  0  0
  6 29  1  6  0  0  0
  6  8  1  0  0  0  0
  8  1  1  0  0  0  0
  8 17  1  1  0  0  0
 10  9  1  0  0  0  0
 11 10  1  6  0  0  0
 11  9  1  0  0  0  0
 12 13  1  0  0  0  0
 14 15  1  0  0  0  0
 16 15  1  0  0  0  0
 18 21  1  0  0  0  0
 19 22  2  0  0  0  0
 19 23  1  0  0  0  0
 20 25  1  6  0  0  0
 20 18  1  0  0  0  0
 22 20  1  0  0  0  0
 23 17  1  6  0  0  0
 23 21  1  0  0  0  0
 25 24  1  6  0  0  0
 27 28  1  0  0  0  0
 28 26  1  0  0  0  0
 28 25  1  0  0  0  0
 30 31  1  6  0  0  0
 30 32  1  0  0  0  0
 30 29  1  0  0  0  0
 32 33  1  0  0  0  0
 34 35  1  0  0  0  0
 34 33  1  0  0  0  0
 36 34  2  0  0  0  0
M  END
>  <MODEL>
9

>  <REMARK>
 VINA RESULT:      -5.9      2.763      7.403
  Name = 
  13 active torsions:
  status: ('A' for Active; 'I' for Inactive)
    1  A    between atoms: S_1  and  C_25
    2  A    between atoms: S_1  and  C_26
    3  A    between atoms: C_3  and  N_20
    4  A    between atoms: C_3  and  C_24
    5  A    between atoms: C_8  and  C_22
    6  A    between atoms: C_11  and  C_16
    7  A    between atoms: C_11  and  C_34
    8  A    between atoms: C_12  and  N_20
    9  A    between atoms: C_12  and  C_35
   10  A    between atoms: C_14  and  O_36
   11  A    between atoms: C_17  and  C_27
   12  A    between atoms: C_22  and  C_33
   13  A    between atoms: C_30  and  C_35
                            x       y       z     vdW  Elec       q    Type
                         _______ _______ _______ _____ _____    ______ ____

>  <TORSDO>
F 13

$$$$
