=
 OpenBabel11062419373D

 42 47  0  0  1  0  0  0  0  0999 V2000
  196.4230  171.1830  144.5360 C   0  0  1  0  0  0  0  0  0  0  0  0
  192.9920  175.2220  144.6310 C   0  0  0  0  0  3  0  0  0  0  0  0
  194.0730  170.5150  144.9220 C   0  0  0  0  0  2  0  0  0  0  0  0
  195.7350  172.1450  145.5190 C   0  0  2  0  0  3  0  0  0  0  0  0
  195.2230  174.7120  145.5620 C   0  0  0  0  0  2  0  0  0  0  0  0
  192.4860  175.1640  142.3000 N   0  0  0  0  0  0  0  0  0  0  0  0
  197.2700  173.7760  146.6220 C   0  0  0  0  0  1  0  0  0  0  0  0
  197.0380  171.8630  143.2950 C   0  0  0  0  0  2  0  0  0  0  0  0
  197.5530  170.4910  145.2890 C   0  0  0  0  0  1  0  0  0  0  0  0
  193.7550  174.7790  142.0090 C   0  0  0  0  0  3  0  0  0  0  0  0
  196.0650  174.0980  142.6740 C   0  0  2  0  0  3  0  0  0  0  0  0
  195.3080  170.2130  144.0920 C   0  0  2  0  0  3  0  0  0  0  0  0
  194.7020  174.6090  143.0280 C   0  0  0  0  0  0  0  0  0  0  0  0
  196.2080  172.2000  140.9630 C   0  0  0  0  0  1  0  0  0  0  0  0
  196.6180  174.8170  141.6070 O   0  0  0  0  0  1  0  0  0  0  0  0
  194.2350  171.9490  145.3670 C   0  0  0  0  0  2  0  0  0  0  0  0
  196.2660  173.5920  145.5040 C   0  0  1  0  0  3  0  0  0  0  0  0
  196.0180  172.5850  142.4220 C   0  0  1  0  0  3  0  0  0  0  0  0
  192.0870  175.3940  143.5780 C   0  0  0  0  0  0  0  0  0  0  0  0
  194.3030  174.8170  144.3700 C   0  0  0  0  0  0  0  0  0  0  0  0
  187.9070  177.1610  143.4480 C   0  0  2  0  0  3  0  0  0  0  0  0
  188.6110  177.8600  144.5240 N   0  0  0  0  0  2  0  0  0  0  0  0
  190.1670  176.5580  142.7810 O   0  0  0  0  0  0  0  0  0  0  0  0
  188.8190  176.1920  142.6750 C   0  0  0  0  0  2  0  0  0  0  0  0
  189.1180  176.8890  145.4880 C   0  0  0  0  0  2  0  0  0  0  0  0
  190.5700  176.5520  145.1620 C   0  0  0  0  0  2  0  0  0  0  0  0
  190.6700  175.7890  143.8420 C   0  0  2  0  0  3  0  0  0  0  0  0
  187.3430  178.1440  142.5320 N   0  0  0  0  0  2  0  0  0  0  0  0
  183.6280  178.2440  142.6270 N   0  0  0  0  0  0  0  0  0  0  0  0
  185.6450  178.1880  140.7620 C   0  0  0  0  0  3  0  0  0  0  0  0
  184.9160  178.1900  143.0770 C   0  0  0  0  0  0  0  0  0  0  0  0
  185.9680  178.1680  142.1260 C   0  0  0  0  0  0  0  0  0  0  0  0
  184.3180  178.2360  140.3470 C   0  0  0  0  0  3  0  0  0  0  0  0
  183.3110  178.2660  141.3070 C   0  0  0  0  0  3  0  0  0  0  0  0
  185.1380  178.1620  144.5500 C   0  0  0  0  0  0  0  0  0  0  0  0
  185.3700  176.8640  146.6000 C   0  0  0  0  0  3  0  0  0  0  0  0
  185.3670  179.3310  145.2950 C   0  0  0  0  0  3  0  0  0  0  0  0
  185.1480  176.9270  145.2220 C   0  0  0  0  0  3  0  0  0  0  0  0
  185.5890  179.2710  146.6740 C   0  0  0  0  0  3  0  0  0  0  0  0
  185.5880  178.0370  147.3270 C   0  0  0  0  0  3  0  0  0  0  0  0
  195.6420  168.7190  144.0420 C   0  0  0  0  0  2  0  0  0  0  0  0
  195.9940  168.3250  142.7480 O   0  0  0  0  0  1  0  0  0  0  0  0
  1  9  1  1  0  0  0
  1  4  1  0  0  0  0
  3 16  1  0  0  0  0
  4 16  1  6  0  0  0
  6 19  1  0  0  0  0
  8  1  1  0  0  0  0
 10  6  2  0  0  0  0
 10 13  1  0  0  0  0
 11 15  1  6  0  0  0
 11 13  1  0  0  0  0
 12 41  1  1  0  0  0
 12  1  1  0  0  0  0
 12  3  1  0  0  0  0
 13 20  2  0  0  0  0
 17  4  1  0  0  0  0
 17  5  1  0  0  0  0
 17  7  1  1  0  0  0
 18 14  1  6  0  0  0
 18 11  1  0  0  0  0
 18  8  1  0  0  0  0
 19  2  2  0  0  0  0
 20  2  1  0  0  0  0
 20  5  1  0  0  0  0
 21 28  1  6  0  0  0
 21 22  1  0  0  0  0
 22 25  1  0  0  0  0
 23 27  1  0  0  0  0
 24 23  1  0  0  0  0
 24 21  1  0  0  0  0
 26 25  1  0  0  0  0
 27 19  1  6  0  0  0
 27 26  1  0  0  0  0
 29 31  1  0  0  0  0
 30 32  1  0  0  0  0
 31 35  1  0  0  0  0
 32 28  1  0  0  0  0
 32 31  2  0  0  0  0
 33 30  2  0  0  0  0
 33 34  1  0  0  0  0
 34 29  2  0  0  0  0
 35 38  2  0  0  0  0
 35 37  1  0  0  0  0
 36 40  2  0  0  0  0
 37 39  2  0  0  0  0
 38 36  1  0  0  0  0
 39 40  1  0  0  0  0
 42 41  1  0  0  0  0
M  END
>  <MODEL>
1

>  <REMARK>
 VINA RESULT:      -9.4      0.000      0.000
  Name = 
  5 active torsions:
  status: ('A' for Active; 'I' for Inactive)
    1  A    between atoms: C_6  and  N_33
    2  A    between atoms: C_10  and  C_25
    3  A    between atoms: C_15  and  C_28
    4  A    between atoms: C_26  and  N_33
    5  A    between atoms: C_37  and  C_41
                            x       y       z     vdW  Elec       q    Type
                         _______ _______ _______ _____ _____    ______ ____

>  <TORSDO>
F 5

$$$$
=
 OpenBabel11062419373D

 42 47  0  0  1  0  0  0  0  0999 V2000
  195.6180  173.2920  141.3100 C   0  0  1  0  0  0  0  0  0  0  0  0
  192.5850  173.7710  145.6310 C   0  0  0  0  0  3  0  0  0  0  0  0
  193.5970  174.6820  140.9890 C   0  0  0  0  0  2  0  0  0  0  0  0
  194.3980  172.6510  141.9930 C   0  0  2  0  0  3  0  0  0  0  0  0
  193.7810  171.9650  144.4430 C   0  0  0  0  0  2  0  0  0  0  0  0
  193.6470  175.7420  146.4550 N   0  0  0  0  0  0  0  0  0  0  0  0
  194.7850  170.3390  142.8510 C   0  0  0  0  0  1  0  0  0  0  0  0
  196.8190  173.5450  142.2460 C   0  0  0  0  0  2  0  0  0  0  0  0
  196.0810  172.3420  140.2140 C   0  0  0  0  0  1  0  0  0  0  0  0
  194.8450  175.3310  145.9680 C   0  0  0  0  0  3  0  0  0  0  0  0
  196.2810  173.7300  144.6970 C   0  0  2  0  0  3  0  0  0  0  0  0
  195.0990  174.6390  140.7660 C   0  0  2  0  0  3  0  0  0  0  0  0
  194.9610  174.1070  145.2960 C   0  0  0  0  0  0  0  0  0  0  0  0
  197.6000  175.5640  143.4940 C   0  0  0  0  0  1  0  0  0  0  0  0
  197.3230  173.8820  145.6200 O   0  0  0  0  0  1  0  0  0  0  0  0
  193.3390  173.7320  142.1340 C   0  0  0  0  0  2  0  0  0  0  0  0
  194.7140  171.8000  143.2390 C   0  0  1  0  0  3  0  0  0  0  0  0
  196.5140  174.5030  143.3920 C   0  0  1  0  0  3  0  0  0  0  0  0
  192.5230  174.9940  146.3090 C   0  0  0  0  0  0  0  0  0  0  0  0
  193.7990  173.3200  145.1080 C   0  0  0  0  0  0  0  0  0  0  0  0
  188.2010  176.2280  146.9500 C   0  0  2  0  0  3  0  0  0  0  0  0
  188.9550  177.4680  146.7610 N   0  0  0  0  0  2  0  0  0  0  0  0
  190.1810  175.2360  145.9440 O   0  0  0  0  0  0  0  0  0  0  0  0
  189.0690  174.9720  146.7530 C   0  0  0  0  0  2  0  0  0  0  0  0
  190.0360  177.5370  147.7380 C   0  0  0  0  0  2  0  0  0  0  0  0
  191.3260  177.0100  147.1160 C   0  0  0  0  0  2  0  0  0  0  0  0
  191.2250  175.5100  146.8410 C   0  0  2  0  0  3  0  0  0  0  0  0
  187.0820  176.2050  146.0180 N   0  0  0  0  0  2  0  0  0  0  0  0
  186.5850  178.5870  143.2070 N   0  0  0  0  0  0  0  0  0  0  0  0
  185.8120  178.2950  145.8270 C   0  0  0  0  0  3  0  0  0  0  0  0
  187.0510  177.5040  143.8960 C   0  0  0  0  0  0  0  0  0  0  0  0
  186.6540  177.3360  145.2480 C   0  0  0  0  0  0  0  0  0  0  0  0
  185.3660  179.3880  145.0900 C   0  0  0  0  0  3  0  0  0  0  0  0
  185.7670  179.5160  143.7640 C   0  0  0  0  0  3  0  0  0  0  0  0
  187.9500  176.5560  143.1800 C   0  0  0  0  0  0  0  0  0  0  0  0
  190.2090  175.9090  142.5320 C   0  0  0  0  0  3  0  0  0  0  0  0
  187.4620  175.4160  142.5200 C   0  0  0  0  0  3  0  0  0  0  0  0
  189.3360  176.7870  143.1810 C   0  0  0  0  0  3  0  0  0  0  0  0
  188.3330  174.5360  141.8700 C   0  0  0  0  0  3  0  0  0  0  0  0
  189.7060  174.7840  141.8740 C   0  0  0  0  0  3  0  0  0  0  0  0
  195.5010  175.0350  139.3420 C   0  0  0  0  0  2  0  0  0  0  0  0
  196.7690  175.6220  139.3220 O   0  0  0  0  0  1  0  0  0  0  0  0
  1  9  1  6  0  0  0
  1  4  1  0  0  0  0
  1  8  1  0  0  0  0
  2 19  1  0  0  0  0
  3 16  1  0  0  0  0
  4 16  1  1  0  0  0
  4 17  1  0  0  0  0
  5 20  1  0  0  0  0
  8 18  1  0  0  0  0
 10  6  1  0  0  0  0
 11 13  1  0  0  0  0
 11 15  1  1  0  0  0
 12 41  1  6  0  0  0
 12  3  1  0  0  0  0
 12  1  1  0  0  0  0
 13 10  2  0  0  0  0
 17  7  1  6  0  0  0
 17  5  1  0  0  0  0
 18 14  1  1  0  0  0
 18 11  1  0  0  0  0
 19  6  2  0  0  0  0
 20 13  1  0  0  0  0
 20  2  2  0  0  0  0
 21 28  1  6  0  0  0
 22 21  1  0  0  0  0
 22 25  1  0  0  0  0
 23 24  1  0  0  0  0
 23 27  1  0  0  0  0
 24 21  1  0  0  0  0
 26 25  1  0  0  0  0
 27 19  1  6  0  0  0
 27 26  1  0  0  0  0
 29 34  2  0  0  0  0
 29 31  1  0  0  0  0
 31 32  2  0  0  0  0
 32 30  1  0  0  0  0
 32 28  1  0  0  0  0
 33 30  2  0  0  0  0
 34 33  1  0  0  0  0
 35 38  1  0  0  0  0
 35 31  1  0  0  0  0
 36 38  2  0  0  0  0
 37 35  2  0  0  0  0
 39 40  2  0  0  0  0
 39 37  1  0  0  0  0
 40 36  1  0  0  0  0
 42 41  1  0  0  0  0
M  END
>  <MODEL>
2

>  <REMARK>
 VINA RESULT:      -9.1      2.294      4.403
  Name = 
  5 active torsions:
  status: ('A' for Active; 'I' for Inactive)
    1  A    between atoms: C_6  and  N_33
    2  A    between atoms: C_10  and  C_25
    3  A    between atoms: C_15  and  C_28
    4  A    between atoms: C_26  and  N_33
    5  A    between atoms: C_37  and  C_41
                            x       y       z     vdW  Elec       q    Type
                         _______ _______ _______ _____ _____    ______ ____

>  <TORSDO>
F 5

$$$$
=
 OpenBabel11062419373D

 42 47  0  0  1  0  0  0  0  0999 V2000
  196.1300  170.7660  145.0510 C   0  0  1  0  0  0  0  0  0  0  0  0
  193.4660  175.0600  143.4530 C   0  0  0  0  0  3  0  0  0  0  0  0
  193.6710  170.5660  145.2330 C   0  0  0  0  0  2  0  0  0  0  0  0
  195.5150  172.0650  145.5990 C   0  0  2  0  0  3  0  0  0  0  0  0
  195.4560  174.5670  144.8310 C   0  0  0  0  0  2  0  0  0  0  0  0
  193.2200  174.3630  141.1850 N   0  0  0  0  0  0  0  0  0  0  0  0
  197.1770  173.7340  146.4220 C   0  0  0  0  0  1  0  0  0  0  0  0
  196.9880  170.9470  143.7820 C   0  0  0  0  0  2  0  0  0  0  0  0
  197.0310  170.1930  146.1370 C   0  0  0  0  0  1  0  0  0  0  0  0
  194.4270  173.7410  141.2190 C   0  0  0  0  0  3  0  0  0  0  0  0
  196.4940  172.9950  142.4060 C   0  0  2  0  0  3  0  0  0  0  0  0
  194.9200  169.8650  144.7300 C   0  0  2  0  0  3  0  0  0  0  0  0
  195.2100  173.7660  142.3810 C   0  0  0  0  0  0  0  0  0  0  0  0
  196.4950  170.6640  141.3480 C   0  0  0  0  0  1  0  0  0  0  0  0
  197.2800  173.2730  141.2810 O   0  0  0  0  0  1  0  0  0  0  0  0
  194.0300  172.0330  145.2740 C   0  0  0  0  0  2  0  0  0  0  0  0
  196.2880  173.3540  145.2580 C   0  0  1  0  0  3  0  0  0  0  0  0
  196.2130  171.4970  142.5900 C   0  0  1  0  0  3  0  0  0  0  0  0
  192.7270  175.0230  142.2650 C   0  0  0  0  0  0  0  0  0  0  0  0
  194.7070  174.4250  143.5280 C   0  0  0  0  0  0  0  0  0  0  0  0
  188.9090  177.3680  142.9900 C   0  0  2  0  0  3  0  0  0  0  0  0
  188.5520  175.9560  143.1330 N   0  0  0  0  0  2  0  0  0  0  0  0
  191.1650  176.5080  143.2800 O   0  0  0  0  0  0  0  0  0  0  0  0
  190.4180  177.5790  142.7730 C   0  0  0  0  0  2  0  0  0  0  0  0
  188.9150  175.2330  141.9190 C   0  0  0  0  0  2  0  0  0  0  0  0
  190.2900  174.5960  142.0920 C   0  0  0  0  0  2  0  0  0  0  0  0
  191.3800  175.6640  142.1790 C   0  0  2  0  0  3  0  0  0  0  0  0
  188.4750  178.0900  144.1780 N   0  0  0  0  0  2  0  0  0  0  0  0
  186.6750  176.4670  146.9970 N   0  0  0  0  0  0  0  0  0  0  0  0
  186.1050  178.0250  144.8070 C   0  0  0  0  0  3  0  0  0  0  0  0
  187.7090  176.8340  146.1840 C   0  0  0  0  0  0  0  0  0  0  0  0
  187.4310  177.6450  145.0540 C   0  0  0  0  0  0  0  0  0  0  0  0
  185.0790  177.6230  145.6570 C   0  0  0  0  0  3  0  0  0  0  0  0
  185.3900  176.8360  146.7630 C   0  0  0  0  0  3  0  0  0  0  0  0
  189.0760  176.3610  146.5400 C   0  0  0  0  0  0  0  0  0  0  0  0
  190.7890  174.6330  146.3960 C   0  0  0  0  0  3  0  0  0  0  0  0
  189.9690  177.1460  147.2900 C   0  0  0  0  0  3  0  0  0  0  0  0
  189.5070  175.1000  146.0930 C   0  0  0  0  0  3  0  0  0  0  0  0
  191.2510  176.6810  147.5940 C   0  0  0  0  0  3  0  0  0  0  0  0
  191.6610  175.4230  147.1490 C   0  0  0  0  0  3  0  0  0  0  0  0
  194.9920  168.3960  145.1580 C   0  0  0  0  0  2  0  0  0  0  0  0
  194.2200  168.1660  146.3000 O   0  0  0  0  0  1  0  0  0  0  0  0
  1  4  1  0  0  0  0
  1  9  1  1  0  0  0
  2 20  1  0  0  0  0
  3 16  1  0  0  0  0
  4 16  1  6  0  0  0
  5 17  1  0  0  0  0
  6 10  2  0  0  0  0
  6 19  1  0  0  0  0
  8  1  1  0  0  0  0
 10 13  1  0  0  0  0
 11 15  1  6  0  0  0
 11 18  1  0  0  0  0
 12  1  1  0  0  0  0
 12 41  1  1  0  0  0
 12  3  1  0  0  0  0
 13 11  1  0  0  0  0
 13 20  2  0  0  0  0
 17  4  1  0  0  0  0
 17  7  1  1  0  0  0
 18 14  1  6  0  0  0
 18  8  1  0  0  0  0
 19  2  2  0  0  0  0
 20  5  1  0  0  0  0
 21 22  1  0  0  0  0
 21 28  1  1  0  0  0
 24 21  1  0  0  0  0
 24 23  1  0  0  0  0
 25 26  1  0  0  0  0
 25 22  1  0  0  0  0
 26 27  1  0  0  0  0
 27 19  1  1  0  0  0
 27 23  1  0  0  0  0
 28 32  1  0  0  0  0
 30 32  2  0  0  0  0
 30 33  1  0  0  0  0
 31 35  1  0  0  0  0
 31 29  2  0  0  0  0
 32 31  1  0  0  0  0
 33 34  2  0  0  0  0
 34 29  1  0  0  0  0
 35 37  1  0  0  0  0
 36 40  2  0  0  0  0
 37 39  2  0  0  0  0
 38 36  1  0  0  0  0
 38 35  2  0  0  0  0
 40 39  1  0  0  0  0
 41 42  1  0  0  0  0
M  END
>  <MODEL>
3

>  <REMARK>
 VINA RESULT:      -9.1      1.961      3.189
  Name = 
  5 active torsions:
  status: ('A' for Active; 'I' for Inactive)
    1  A    between atoms: C_6  and  N_33
    2  A    between atoms: C_10  and  C_25
    3  A    between atoms: C_15  and  C_28
    4  A    between atoms: C_26  and  N_33
    5  A    between atoms: C_37  and  C_41
                            x       y       z     vdW  Elec       q    Type
                         _______ _______ _______ _____ _____    ______ ____

>  <TORSDO>
F 5

$$$$
=
 OpenBabel11062419373D

 42 47  0  0  1  0  0  0  0  0999 V2000
  196.1460  171.8450  143.7000 C   0  0  1  0  0  0  0  0  0  0  0  0
  191.6990  173.7200  141.5070 C   0  0  0  0  0  3  0  0  0  0  0  0
  195.2770  173.9050  144.7590 C   0  0  0  0  0  2  0  0  0  0  0  0
  195.6670  172.8470  142.6370 C   0  0  2  0  0  3  0  0  0  0  0  0
  193.8690  172.8270  140.7340 C   0  0  0  0  0  2  0  0  0  0  0  0
  190.2040  172.5200  142.9270 N   0  0  0  0  0  0  0  0  0  0  0  0
  196.2400  172.2220  140.2890 C   0  0  0  0  0  1  0  0  0  0  0  0
  195.4830  170.4540  143.6180 C   0  0  0  0  0  2  0  0  0  0  0  0
  197.6440  171.6530  143.5070 C   0  0  0  0  0  1  0  0  0  0  0  0
  191.0660  171.4730  142.9920 C   0  0  0  0  0  3  0  0  0  0  0  0
  193.2460  170.3710  142.4680 C   0  0  2  0  0  3  0  0  0  0  0  0
  195.7880  172.5050  145.0490 C   0  0  2  0  0  3  0  0  0  0  0  0
  192.2850  171.5080  142.3010 C   0  0  0  0  0  0  0  0  0  0  0  0
  193.5540  169.4220  144.8260 C   0  0  0  0  0  1  0  0  0  0  0  0
  192.6130  169.1350  142.2830 O   0  0  0  0  0  1  0  0  0  0  0  0
  194.7700  173.8550  143.3370 C   0  0  0  0  0  2  0  0  0  0  0  0
  195.1420  172.2190  141.3310 C   0  0  1  0  0  3  0  0  0  0  0  0
  193.9710  170.4810  143.8170 C   0  0  1  0  0  3  0  0  0  0  0  0
  190.4870  173.6330  142.2010 C   0  0  0  0  0  0  0  0  0  0  0  0
  192.6150  172.6660  141.5580 C   0  0  0  0  0  0  0  0  0  0  0  0
  188.0400  177.3500  143.0990 C   0  0  2  0  0  3  0  0  0  0  0  0
  187.1600  176.2100  143.3600 N   0  0  0  0  0  2  0  0  0  0  0  0
  189.7730  175.6500  143.2490 O   0  0  0  0  0  0  0  0  0  0  0  0
  189.4740  176.9210  142.7420 C   0  0  0  0  0  2  0  0  0  0  0  0
  187.0730  175.3750  142.1680 C   0  0  0  0  0  2  0  0  0  0  0  0
  188.0820  174.2350  142.2630 C   0  0  0  0  0  2  0  0  0  0  0  0
  189.5130  174.7660  142.1900 C   0  0  2  0  0  3  0  0  0  0  0  0
  188.0610  178.2130  144.2720 N   0  0  0  0  0  2  0  0  0  0  0  0
  186.2650  177.6240  147.4730 N   0  0  0  0  0  0  0  0  0  0  0  0
  185.8370  178.8770  145.0670 C   0  0  0  0  0  3  0  0  0  0  0  0
  187.2540  177.5620  146.5340 C   0  0  0  0  0  0  0  0  0  0  0  0
  187.0500  178.2120  145.2890 C   0  0  0  0  0  0  0  0  0  0  0  0
  184.8530  178.9090  146.0490 C   0  0  0  0  0  3  0  0  0  0  0  0
  185.0900  178.2700  147.2630 C   0  0  0  0  0  3  0  0  0  0  0  0
  188.4970  176.8170  146.8780 C   0  0  0  0  0  0  0  0  0  0  0  0
  190.8170  176.8610  147.6270 C   0  0  0  0  0  3  0  0  0  0  0  0
  188.5640  175.4140  146.8410 C   0  0  0  0  0  3  0  0  0  0  0  0
  189.6390  177.5310  147.2810 C   0  0  0  0  0  3  0  0  0  0  0  0
  189.7400  174.7420  147.1850 C   0  0  0  0  0  3  0  0  0  0  0  0
  190.8680  175.4660  147.5760 C   0  0  0  0  0  3  0  0  0  0  0  0
  196.8440  172.4740  146.1580 C   0  0  0  0  0  2  0  0  0  0  0  0
  197.1720  173.7660  146.5780 O   0  0  0  0  0  1  0  0  0  0  0  0
  1  9  1  6  0  0  0
  1 12  1  0  0  0  0
  2 20  2  0  0  0  0
  2 19  1  0  0  0  0
  3 12  1  0  0  0  0
  4 16  1  1  0  0  0
  4  1  1  0  0  0  0
  5 17  1  0  0  0  0
  5 20  1  0  0  0  0
  6 10  1  0  0  0  0
  8  1  1  0  0  0  0
  8 18  1  0  0  0  0
 11 15  1  1  0  0  0
 11 18  1  0  0  0  0
 12 41  1  1  0  0  0
 13 11  1  0  0  0  0
 13 10  2  0  0  0  0
 16  3  1  0  0  0  0
 17  7  1  6  0  0  0
 17  4  1  0  0  0  0
 18 14  1  1  0  0  0
 19  6  2  0  0  0  0
 20 13  1  0  0  0  0
 21 22  1  0  0  0  0
 21 28  1  1  0  0  0
 24 21  1  0  0  0  0
 24 23  1  0  0  0  0
 25 26  1  0  0  0  0
 25 22  1  0  0  0  0
 27 19  1  1  0  0  0
 27 26  1  0  0  0  0
 27 23  1  0  0  0  0
 28 32  1  0  0  0  0
 30 32  2  0  0  0  0
 30 33  1  0  0  0  0
 31 35  1  0  0  0  0
 31 29  2  0  0  0  0
 32 31  1  0  0  0  0
 33 34  2  0  0  0  0
 34 29  1  0  0  0  0
 35 38  1  0  0  0  0
 37 35  2  0  0  0  0
 37 39  1  0  0  0  0
 38 36  2  0  0  0  0
 39 40  2  0  0  0  0
 40 36  1  0  0  0  0
 41 42  1  0  0  0  0
M  END
>  <MODEL>
4

>  <REMARK>
 VINA RESULT:      -9.0      2.192      4.310
  Name = 
  5 active torsions:
  status: ('A' for Active; 'I' for Inactive)
    1  A    between atoms: C_6  and  N_33
    2  A    between atoms: C_10  and  C_25
    3  A    between atoms: C_15  and  C_28
    4  A    between atoms: C_26  and  N_33
    5  A    between atoms: C_37  and  C_41
                            x       y       z     vdW  Elec       q    Type
                         _______ _______ _______ _____ _____    ______ ____

>  <TORSDO>
F 5

$$$$
=
 OpenBabel11062419373D

 42 47  0  0  1  0  0  0  0  0999 V2000
  196.9550  173.6830  140.3620 C   0  0  1  0  0  0  0  0  0  0  0  0
  192.7190  173.8320  143.5450 C   0  0  0  0  0  3  0  0  0  0  0  0
  194.9960  174.8480  139.3990 C   0  0  0  0  0  2  0  0  0  0  0  0
  195.6580  172.9140  140.6640 C   0  0  2  0  0  3  0  0  0  0  0  0
  194.3980  172.1650  142.8330 C   0  0  0  0  0  2  0  0  0  0  0  0
  193.2710  175.9060  144.5870 N   0  0  0  0  0  0  0  0  0  0  0  0
  196.0010  170.6570  141.6730 C   0  0  0  0  0  1  0  0  0  0  0  0
  197.7820  174.0640  141.6080 C   0  0  0  0  0  2  0  0  0  0  0  0
  197.8250  172.7890  139.4880 C   0  0  0  0  0  1  0  0  0  0  0  0
  194.5970  175.6260  144.4980 C   0  0  0  0  0  3  0  0  0  0  0  0
  196.5080  174.1890  143.7740 C   0  0  2  0  0  3  0  0  0  0  0  0
  196.4900  174.9670  139.6420 C   0  0  2  0  0  3  0  0  0  0  0  0
  195.0360  174.4210  143.9330 C   0  0  0  0  0  0  0  0  0  0  0  0
  197.9340  176.1550  142.9670 C   0  0  0  0  0  1  0  0  0  0  0  0
  197.1980  174.4520  144.9640 O   0  0  0  0  0  1  0  0  0  0  0  0
  194.5010  173.8750  140.4430 C   0  0  0  0  0  2  0  0  0  0  0  0
  195.6650  172.1020  141.9740 C   0  0  1  0  0  3  0  0  0  0  0  0
  197.0460  174.9830  142.5760 C   0  0  1  0  0  3  0  0  0  0  0  0
  192.3280  175.0400  144.1320 C   0  0  0  0  0  0  0  0  0  0  0  0
  194.0740  173.5140  143.4280 C   0  0  0  0  0  0  0  0  0  0  0  0
  188.1960  176.8390  143.5900 C   0  0  2  0  0  3  0  0  0  0  0  0
  188.7310  177.4140  144.8250 N   0  0  0  0  0  2  0  0  0  0  0  0
  190.5330  176.2960  143.1950 O   0  0  0  0  0  0  0  0  0  0  0  0
  189.2180  175.9520  142.8580 C   0  0  0  0  0  2  0  0  0  0  0  0
  189.1030  176.3430  145.7420 C   0  0  0  0  0  2  0  0  0  0  0  0
  190.5890  176.0320  145.5950 C   0  0  0  0  0  2  0  0  0  0  0  0
  190.8850  175.4140  144.2290 C   0  0  2  0  0  3  0  0  0  0  0  0
  187.7610  177.9180  142.7130 N   0  0  0  0  0  2  0  0  0  0  0  0
  184.0790  178.2760  142.3520 N   0  0  0  0  0  0  0  0  0  0  0  0
  186.2900  177.9720  140.7510 C   0  0  0  0  0  3  0  0  0  0  0  0
  185.2970  178.1620  142.9570 C   0  0  0  0  0  0  0  0  0  0  0  0
  186.4490  178.0120  142.1420 C   0  0  0  0  0  0  0  0  0  0  0  0
  185.0280  178.0850  140.1750 C   0  0  0  0  0  3  0  0  0  0  0  0
  183.9210  178.2410  141.0040 C   0  0  0  0  0  3  0  0  0  0  0  0
  185.3430  178.2070  144.4450 C   0  0  0  0  0  0  0  0  0  0  0  0
  185.2830  177.0170  146.5710 C   0  0  0  0  0  3  0  0  0  0  0  0
  185.5250  179.4080  145.1530 C   0  0  0  0  0  3  0  0  0  0  0  0
  185.2280  177.0110  145.1740 C   0  0  0  0  0  3  0  0  0  0  0  0
  185.5800  179.4160  146.5490 C   0  0  0  0  0  3  0  0  0  0  0  0
  185.4570  178.2200  147.2590 C   0  0  0  0  0  3  0  0  0  0  0  0
  197.2640  175.4040  138.3950 C   0  0  0  0  0  2  0  0  0  0  0  0
  196.4280  175.4630  137.2780 O   0  0  0  0  0  1  0  0  0  0  0  0
  1  9  1  6  0  0  0
  1  4  1  0  0  0  0
  1  8  1  0  0  0  0
  2 19  1  0  0  0  0
  3 12  1  0  0  0  0
  3 16  1  0  0  0  0
  4 16  1  1  0  0  0
  4 17  1  0  0  0  0
  5 20  1  0  0  0  0
  8 18  1  0  0  0  0
 10  6  1  0  0  0  0
 11 13  1  0  0  0  0
 11 15  1  1  0  0  0
 12 41  1  6  0  0  0
 12  1  1  0  0  0  0
 13 10  2  0  0  0  0
 17  7  1  6  0  0  0
 17  5  1  0  0  0  0
 18 14  1  1  0  0  0
 18 11  1  0  0  0  0
 19  6  2  0  0  0  0
 20  2  2  0  0  0  0
 20 13  1  0  0  0  0
 21 28  1  6  0  0  0
 21 22  1  0  0  0  0
 22 25  1  0  0  0  0
 23 27  1  0  0  0  0
 24 23  1  0  0  0  0
 24 21  1  0  0  0  0
 26 25  1  0  0  0  0
 27 19  1  1  0  0  0
 27 26  1  0  0  0  0
 29 31  1  0  0  0  0
 30 32  1  0  0  0  0
 31 35  1  0  0  0  0
 32 28  1  0  0  0  0
 32 31  2  0  0  0  0
 33 30  2  0  0  0  0
 33 34  1  0  0  0  0
 34 29  2  0  0  0  0
 35 37  2  0  0  0  0
 35 38  1  0  0  0  0
 36 40  1  0  0  0  0
 37 39  1  0  0  0  0
 38 36  2  0  0  0  0
 39 40  2  0  0  0  0
 42 41  1  0  0  0  0
M  END
>  <MODEL>
5

>  <REMARK>
 VINA RESULT:      -8.9      1.923      3.491
  Name = 
  5 active torsions:
  status: ('A' for Active; 'I' for Inactive)
    1  A    between atoms: C_6  and  N_33
    2  A    between atoms: C_10  and  C_25
    3  A    between atoms: C_15  and  C_28
    4  A    between atoms: C_26  and  N_33
    5  A    between atoms: C_37  and  C_41
                            x       y       z     vdW  Elec       q    Type
                         _______ _______ _______ _____ _____    ______ ____

>  <TORSDO>
F 5

$$$$
=
 OpenBabel11062419373D

 42 47  0  0  1  0  0  0  0  0999 V2000
  196.5350  172.8880  139.6540 C   0  0  1  0  0  0  0  0  0  0  0  0
  191.5870  173.4430  141.4740 C   0  0  0  0  0  3  0  0  0  0  0  0
  195.3780  174.9250  138.8570 C   0  0  0  0  0  2  0  0  0  0  0  0
  195.0780  172.5760  139.2720 C   0  0  2  0  0  3  0  0  0  0  0  0
  192.9840  171.6360  140.5310 C   0  0  0  0  0  2  0  0  0  0  0  0
  192.1820  174.7010  143.4120 N   0  0  0  0  0  0  0  0  0  0  0  0
  194.5090  170.1460  139.2490 C   0  0  0  0  0  1  0  0  0  0  0  0
  196.9180  172.5040  141.0980 C   0  0  0  0  0  2  0  0  0  0  0  0
  197.4330  172.0970  138.7130 C   0  0  0  0  0  1  0  0  0  0  0  0
  193.3480  174.0160  143.5290 C   0  0  0  0  0  3  0  0  0  0  0  0
  195.0100  172.3310  142.7300 C   0  0  2  0  0  3  0  0  0  0  0  0
  196.6670  174.4150  139.4760 C   0  0  2  0  0  3  0  0  0  0  0  0
  193.6760  173.0020  142.6190 C   0  0  0  0  0  0  0  0  0  0  0  0
  197.0400  173.8110  143.2240 C   0  0  0  0  0  1  0  0  0  0  0  0
  195.2640  171.9120  144.0420 O   0  0  0  0  0  1  0  0  0  0  0  0
  194.3310  173.8990  139.2230 C   0  0  0  0  0  2  0  0  0  0  0  0
  194.4250  171.4220  140.0590 C   0  0  1  0  0  3  0  0  0  0  0  0
  196.1120  173.2380  142.1630 C   0  0  1  0  0  3  0  0  0  0  0  0
  191.2970  174.4360  142.4160 C   0  0  0  0  0  0  0  0  0  0  0  0
  192.7820  172.7240  141.5570 C   0  0  0  0  0  0  0  0  0  0  0  0
  187.8970  177.3850  143.0070 C   0  0  2  0  0  3  0  0  0  0  0  0
  187.3760  176.0780  143.4090 N   0  0  0  0  0  2  0  0  0  0  0  0
  190.0400  176.2690  143.2760 O   0  0  0  0  0  0  0  0  0  0  0  0
  189.3930  177.3430  142.6520 C   0  0  0  0  0  2  0  0  0  0  0  0
  187.5280  175.1310  142.3100 C   0  0  0  0  0  2  0  0  0  0  0  0
  188.8190  174.3380  142.4890 C   0  0  0  0  0  2  0  0  0  0  0  0
  190.0410  175.2410  142.3190 C   0  0  2  0  0  3  0  0  0  0  0  0
  187.6720  178.3380  144.0850 N   0  0  0  0  0  2  0  0  0  0  0  0
  185.7800  177.5460  147.1850 N   0  0  0  0  0  0  0  0  0  0  0  0
  185.3560  178.7740  144.7650 C   0  0  0  0  0  3  0  0  0  0  0  0
  186.8170  177.5910  146.3000 C   0  0  0  0  0  0  0  0  0  0  0  0
  186.6150  178.2290  145.0480 C   0  0  0  0  0  0  0  0  0  0  0  0
  184.3230  178.6990  145.6950 C   0  0  0  0  0  3  0  0  0  0  0  0
  184.5590  178.0760  146.9160 C   0  0  0  0  0  3  0  0  0  0  0  0
  188.1080  176.9680  146.7060 C   0  0  0  0  0  0  0  0  0  0  0  0
  189.3840  174.9540  147.2130 C   0  0  0  0  0  3  0  0  0  0  0  0
  189.2690  177.7270  146.9260 C   0  0  0  0  0  3  0  0  0  0  0  0
  188.1840  175.5720  146.8490 C   0  0  0  0  0  3  0  0  0  0  0  0
  190.4700  177.1120  147.2910 C   0  0  0  0  0  3  0  0  0  0  0  0
  190.5270  175.7250  147.4370 C   0  0  0  0  0  3  0  0  0  0  0  0
  197.9180  174.9440  138.7670 C   0  0  0  0  0  2  0  0  0  0  0  0
  197.5910  175.5400  137.5470 O   0  0  0  0  0  1  0  0  0  0  0  0
  1  9  1  6  0  0  0
  1  8  1  0  0  0  0
  2 20  2  0  0  0  0
  2 19  1  0  0  0  0
  3 16  1  0  0  0  0
  3 12  1  0  0  0  0
  4 16  1  1  0  0  0
  4  1  1  0  0  0  0
  4 17  1  0  0  0  0
  5 20  1  0  0  0  0
  6 10  1  0  0  0  0
  8 18  1  0  0  0  0
 11 15  1  1  0  0  0
 12 41  1  6  0  0  0
 12  1  1  0  0  0  0
 13 11  1  0  0  0  0
 13 10  2  0  0  0  0
 17  7  1  6  0  0  0
 17  5  1  0  0  0  0
 18 11  1  0  0  0  0
 18 14  1  1  0  0  0
 19  6  2  0  0  0  0
 20 13  1  0  0  0  0
 21 22  1  0  0  0  0
 21 28  1  1  0  0  0
 24 21  1  0  0  0  0
 24 23  1  0  0  0  0
 25 26  1  0  0  0  0
 25 22  1  0  0  0  0
 27 19  1  1  0  0  0
 27 26  1  0  0  0  0
 27 23  1  0  0  0  0
 28 32  1  0  0  0  0
 30 32  2  0  0  0  0
 30 33  1  0  0  0  0
 31 35  1  0  0  0  0
 31 29  2  0  0  0  0
 32 31  1  0  0  0  0
 33 34  2  0  0  0  0
 34 29  1  0  0  0  0
 35 38  2  0  0  0  0
 35 37  1  0  0  0  0
 36 40  2  0  0  0  0
 37 39  2  0  0  0  0
 38 36  1  0  0  0  0
 39 40  1  0  0  0  0
 42 41  1  0  0  0  0
M  END
>  <MODEL>
6

>  <REMARK>
 VINA RESULT:      -8.3      2.432      4.716
  Name = 
  5 active torsions:
  status: ('A' for Active; 'I' for Inactive)
    1  A    between atoms: C_6  and  N_33
    2  A    between atoms: C_10  and  C_25
    3  A    between atoms: C_15  and  C_28
    4  A    between atoms: C_26  and  N_33
    5  A    between atoms: C_37  and  C_41
                            x       y       z     vdW  Elec       q    Type
                         _______ _______ _______ _____ _____    ______ ____

>  <TORSDO>
F 5

$$$$
=
 OpenBabel11062419373D

 42 47  0  0  1  0  0  0  0  0999 V2000
  192.9720  171.5720  136.8890 C   0  0  1  0  0  0  0  0  0  0  0  0
  189.4390  173.0870  140.5380 C   0  0  0  0  0  3  0  0  0  0  0  0
  193.3270  173.8580  137.7640 C   0  0  0  0  0  2  0  0  0  0  0  0
  191.6350  172.3210  137.0210 C   0  0  2  0  0  3  0  0  0  0  0  0
  189.4110  171.9420  138.3490 C   0  0  0  0  0  2  0  0  0  0  0  0
  190.6880  172.3170  142.4190 N   0  0  0  0  0  0  0  0  0  0  0  0
  189.6810  171.1450  136.0080 C   0  0  0  0  0  1  0  0  0  0  0  0
  193.0350  170.2310  137.6490 C   0  0  0  0  0  2  0  0  0  0  0  0
  193.1840  171.2730  135.4110 C   0  0  0  0  0  1  0  0  0  0  0  0
  191.1780  171.2760  141.6990 C   0  0  0  0  0  3  0  0  0  0  0  0
  191.4340  169.9850  139.5750 C   0  0  2  0  0  3  0  0  0  0  0  0
  194.0230  172.5420  137.4680 C   0  0  2  0  0  3  0  0  0  0  0  0
  190.8040  171.0940  140.3600 C   0  0  0  0  0  0  0  0  0  0  0  0
  193.9450  169.5940  139.8880 C   0  0  0  0  0  1  0  0  0  0  0  0
  191.3750  168.7700  140.2690 O   0  0  0  0  0  1  0  0  0  0  0  0
  191.8700  173.5040  137.9470 C   0  0  0  0  0  2  0  0  0  0  0  0
  190.4080  171.4320  137.3040 C   0  0  1  0  0  3  0  0  0  0  0  0
  192.8600  170.3710  139.1570 C   0  0  1  0  0  3  0  0  0  0  0  0
  189.8280  173.2170  141.8760 C   0  0  0  0  0  0  0  0  0  0  0  0
  189.9300  172.0340  139.7630 C   0  0  0  0  0  0  0  0  0  0  0  0
  187.9790  177.0570  143.4390 C   0  0  2  0  0  3  0  0  0  0  0  0
  189.4290  177.2550  143.4860 N   0  0  0  0  0  2  0  0  0  0  0  0
  188.5860  175.2500  141.9300 O   0  0  0  0  0  0  0  0  0  0  0  0
  187.5840  175.7200  142.7890 C   0  0  0  0  0  2  0  0  0  0  0  0
  190.0420  176.1960  144.2800 C   0  0  0  0  0  2  0  0  0  0  0  0
  190.5240  175.0780  143.3600 C   0  0  0  0  0  2  0  0  0  0  0  0
  189.3430  174.3600  142.7080 C   0  0  2  0  0  3  0  0  0  0  0  0
  187.3730  178.1600  142.7070 N   0  0  0  0  0  2  0  0  0  0  0  0
  183.6580  178.2960  142.7900 N   0  0  0  0  0  0  0  0  0  0  0  0
  185.6800  178.2040  140.9320 C   0  0  0  0  0  3  0  0  0  0  0  0
  184.9440  178.2340  143.2440 C   0  0  0  0  0  0  0  0  0  0  0  0
  185.9990  178.1940  142.2960 C   0  0  0  0  0  0  0  0  0  0  0  0
  184.3540  178.2610  140.5120 C   0  0  0  0  0  3  0  0  0  0  0  0
  183.3450  178.3100  141.4690 C   0  0  0  0  0  3  0  0  0  0  0  0
  185.1620  178.2180  144.7180 C   0  0  0  0  0  0  0  0  0  0  0  0
  185.4120  176.9360  146.7760 C   0  0  0  0  0  3  0  0  0  0  0  0
  185.3670  179.3950  145.4580 C   0  0  0  0  0  3  0  0  0  0  0  0
  185.1930  176.9880  145.3960 C   0  0  0  0  0  3  0  0  0  0  0  0
  185.5850  179.3460  146.8370 C   0  0  0  0  0  3  0  0  0  0  0  0
  185.6060  178.1160  147.4970 C   0  0  0  0  0  3  0  0  0  0  0  0
  195.3310  172.7210  136.6910 C   0  0  0  0  0  2  0  0  0  0  0  0
  196.1710  171.6170  136.8580 O   0  0  0  0  0  1  0  0  0  0  0  0
  1  9  1  6  0  0  0
  1  4  1  0  0  0  0
  1 12  1  0  0  0  0
  1  8  1  0  0  0  0
  2 19  1  0  0  0  0
  3 16  1  0  0  0  0
  4 17  1  0  0  0  0
  4 16  1  1  0  0  0
  5 20  1  0  0  0  0
  8 18  1  0  0  0  0
 10  6  1  0  0  0  0
 11 15  1  1  0  0  0
 11 13  1  0  0  0  0
 12 41  1  6  0  0  0
 12  3  1  0  0  0  0
 13 10  2  0  0  0  0
 17  7  1  6  0  0  0
 17  5  1  0  0  0  0
 18 11  1  0  0  0  0
 18 14  1  1  0  0  0
 19  6  2  0  0  0  0
 20 13  1  0  0  0  0
 20  2  2  0  0  0  0
 21 28  1  6  0  0  0
 21 22  1  0  0  0  0
 22 25  1  0  0  0  0
 23 27  1  0  0  0  0
 23 24  1  0  0  0  0
 24 21  1  0  0  0  0
 26 25  1  0  0  0  0
 27 19  1  6  0  0  0
 27 26  1  0  0  0  0
 29 31  1  0  0  0  0
 30 32  1  0  0  0  0
 31 35  1  0  0  0  0
 32 28  1  0  0  0  0
 32 31  2  0  0  0  0
 33 30  2  0  0  0  0
 33 34  1  0  0  0  0
 34 29  2  0  0  0  0
 35 38  2  0  0  0  0
 35 37  1  0  0  0  0
 36 40  2  0  0  0  0
 37 39  2  0  0  0  0
 38 36  1  0  0  0  0
 39 40  1  0  0  0  0
 41 42  1  0  0  0  0
M  END
>  <MODEL>
7

>  <REMARK>
 VINA RESULT:      -8.2      3.768      5.631
  Name = 
  5 active torsions:
  status: ('A' for Active; 'I' for Inactive)
    1  A    between atoms: C_6  and  N_33
    2  A    between atoms: C_10  and  C_25
    3  A    between atoms: C_15  and  C_28
    4  A    between atoms: C_26  and  N_33
    5  A    between atoms: C_37  and  C_41
                            x       y       z     vdW  Elec       q    Type
                         _______ _______ _______ _____ _____    ______ ____

>  <TORSDO>
F 5

$$$$
=
 OpenBabel11062419373D

 42 47  0  0  1  0  0  0  0  0999 V2000
  191.3150  171.2270  138.3470 C   0  0  1  0  0  0  0  0  0  0  0  0
  191.0220  172.1590  143.5570 C   0  0  0  0  0  3  0  0  0  0  0  0
  189.8990  173.1620  138.9590 C   0  0  0  0  0  2  0  0  0  0  0  0
  190.4450  170.9030  139.5740 C   0  0  2  0  0  3  0  0  0  0  0  0
  190.9080  170.2030  142.0530 C   0  0  0  0  0  2  0  0  0  0  0  0
  192.8750  173.6600  143.6390 N   0  0  0  0  0  0  0  0  0  0  0  0
  190.4960  168.5090  140.2780 C   0  0  0  0  0  1  0  0  0  0  0  0
  192.8300  171.0380  138.5660 C   0  0  0  0  0  2  0  0  0  0  0  0
  190.8920  170.2890  137.2250 C   0  0  0  0  0  1  0  0  0  0  0  0
  193.5100  172.9690  142.6590 C   0  0  0  0  0  3  0  0  0  0  0  0
  193.6160  171.1450  140.9550 C   0  0  2  0  0  3  0  0  0  0  0  0
  191.0210  172.7110  138.0400 C   0  0  2  0  0  3  0  0  0  0  0  0
  192.9230  171.8290  142.0930 C   0  0  0  0  0  0  0  0  0  0  0  0
  194.6690  172.6260  139.1520 C   0  0  0  0  0  1  0  0  0  0  0  0
  194.9650  170.9070  141.2460 O   0  0  0  0  0  1  0  0  0  0  0  0
  189.9560  172.2250  140.1430 C   0  0  0  0  0  2  0  0  0  0  0  0
  191.0530  169.8880  140.5610 C   0  0  1  0  0  3  0  0  0  0  0  0
  193.4100  171.9350  139.6540 C   0  0  1  0  0  3  0  0  0  0  0  0
  191.6550  173.2810  144.1030 C   0  0  0  0  0  0  0  0  0  0  0  0
  191.6410  171.4280  142.5410 C   0  0  0  0  0  0  0  0  0  0  0  0
  189.2720  176.3400  146.4640 C   0  0  2  0  0  3  0  0  0  0  0  0
  190.6820  176.6610  146.6890 N   0  0  0  0  0  2  0  0  0  0  0  0
  190.1770  175.0860  144.5870 O   0  0  0  0  0  0  0  0  0  0  0  0
  189.0790  175.2000  145.4490 C   0  0  0  0  0  2  0  0  0  0  0  0
  191.3720  175.4920  147.2220 C   0  0  0  0  0  2  0  0  0  0  0  0
  192.0370  174.7240  146.0840 C   0  0  0  0  0  2  0  0  0  0  0  0
  190.9900  174.0980  145.1630 C   0  0  2  0  0  3  0  0  0  0  0  0
  188.5800  177.5350  146.0010 N   0  0  0  0  0  2  0  0  0  0  0  0
  184.9440  177.8860  145.3140 N   0  0  0  0  0  0  0  0  0  0  0  0
  186.6690  178.0710  147.4430 C   0  0  0  0  0  3  0  0  0  0  0  0
  186.2730  177.6840  145.0800 C   0  0  0  0  0  0  0  0  0  0  0  0
  187.1750  177.7680  146.1720 C   0  0  0  0  0  0  0  0  0  0  0  0
  185.3070  178.2780  147.6360 C   0  0  0  0  0  3  0  0  0  0  0  0
  184.4490  178.1770  146.5440 C   0  0  0  0  0  3  0  0  0  0  0  0
  186.6970  177.3790  143.6850 C   0  0  0  0  0  0  0  0  0  0  0  0
  187.0710  175.7270  141.9330 C   0  0  0  0  0  3  0  0  0  0  0  0
  187.0770  178.3850  142.7810 C   0  0  0  0  0  3  0  0  0  0  0  0
  186.6940  176.0460  143.2410 C   0  0  0  0  0  3  0  0  0  0  0  0
  187.4550  178.0690  141.4730 C   0  0  0  0  0  3  0  0  0  0  0  0
  187.4540  176.7390  141.0490 C   0  0  0  0  0  3  0  0  0  0  0  0
  190.7880  173.1020  136.5780 C   0  0  0  0  0  2  0  0  0  0  0  0
  191.7290  174.0420  136.1520 O   0  0  0  0  0  1  0  0  0  0  0  0
  1  9  1  6  0  0  0
  1  8  1  0  0  0  0
  1  4  1  0  0  0  0
  2 19  1  0  0  0  0
  3 16  1  0  0  0  0
  4 16  1  1  0  0  0
  4 17  1  0  0  0  0
  5 20  1  0  0  0  0
  6 19  2  0  0  0  0
  8 18  1  0  0  0  0
 10  6  1  0  0  0  0
 11 15  1  1  0  0  0
 11 13  1  0  0  0  0
 12 41  1  6  0  0  0
 12  1  1  0  0  0  0
 12  3  1  0  0  0  0
 13 20  1  0  0  0  0
 13 10  2  0  0  0  0
 17  7  1  1  0  0  0
 17  5  1  0  0  0  0
 18 14  1  6  0  0  0
 18 11  1  0  0  0  0
 20  2  2  0  0  0  0
 21 28  1  6  0  0  0
 21 22  1  0  0  0  0
 22 25  1  0  0  0  0
 23 27  1  0  0  0  0
 23 24  1  0  0  0  0
 24 21  1  0  0  0  0
 26 25  1  0  0  0  0
 27 19  1  6  0  0  0
 27 26  1  0  0  0  0
 28 32  1  0  0  0  0
 29 34  1  0  0  0  0
 30 33  1  0  0  0  0
 31 29  2  0  0  0  0
 31 32  1  0  0  0  0
 32 30  2  0  0  0  0
 34 33  2  0  0  0  0
 35 31  1  0  0  0  0
 36 38  2  0  0  0  0
 37 35  2  0  0  0  0
 38 35  1  0  0  0  0
 39 37  1  0  0  0  0
 40 39  2  0  0  0  0
 40 36  1  0  0  0  0
 42 41  1  0  0  0  0
M  END
>  <MODEL>
8

>  <REMARK>
 VINA RESULT:      -8.1      3.564      5.656
  Name = 
  5 active torsions:
  status: ('A' for Active; 'I' for Inactive)
    1  A    between atoms: C_6  and  N_33
    2  A    between atoms: C_10  and  C_25
    3  A    between atoms: C_15  and  C_28
    4  A    between atoms: C_26  and  N_33
    5  A    between atoms: C_37  and  C_41
                            x       y       z     vdW  Elec       q    Type
                         _______ _______ _______ _____ _____    ______ ____

>  <TORSDO>
F 5

$$$$
=
 OpenBabel11062419373D

 42 47  0  0  1  0  0  0  0  0999 V2000
  196.8030  173.4800  144.2110 C   0  0  1  0  0  0  0  0  0  0  0  0
  192.6130  174.8670  141.2760 C   0  0  0  0  0  3  0  0  0  0  0  0
  194.6170  172.9130  145.2220 C   0  0  0  0  0  2  0  0  0  0  0  0
  195.8000  174.6310  144.0260 C   0  0  2  0  0  3  0  0  0  0  0  0
  194.7540  175.8800  141.9770 C   0  0  0  0  0  2  0  0  0  0  0  0
  192.4500  172.8010  140.0940 N   0  0  0  0  0  0  0  0  0  0  0  0
  196.7900  176.7360  143.1210 C   0  0  0  0  0  1  0  0  0  0  0  0
  197.4220  172.9500  142.9000 C   0  0  0  0  0  2  0  0  0  0  0  0
  197.9410  174.0000  145.0790 C   0  0  0  0  0  1  0  0  0  0  0  0
  193.7990  172.6510  140.1200 C   0  0  0  0  0  3  0  0  0  0  0  0
  196.0900  173.3750  140.8080 C   0  0  2  0  0  3  0  0  0  0  0  0
  195.9890  172.3560  144.8860 C   0  0  2  0  0  3  0  0  0  0  0  0
  194.6140  173.6190  140.7230 C   0  0  0  0  0  0  0  0  0  0  0  0
  196.8620  171.0130  141.4240 C   0  0  0  0  0  1  0  0  0  0  0  0
  196.6170  172.9940  139.5680 O   0  0  0  0  0  1  0  0  0  0  0  0
  194.4110  174.0610  144.2620 C   0  0  0  0  0  2  0  0  0  0  0  0
  196.0090  175.4900  142.7640 C   0  0  1  0  0  3  0  0  0  0  0  0
  196.3990  172.3720  141.9280 C   0  0  1  0  0  3  0  0  0  0  0  0
  191.8420  173.8820  140.6480 C   0  0  0  0  0  0  0  0  0  0  0  0
  194.0030  174.7420  141.3300 C   0  0  0  0  0  0  0  0  0  0  0  0
  187.4520  174.6050  141.5500 C   0  0  2  0  0  3  0  0  0  0  0  0
  187.6490  173.1560  141.6200 N   0  0  0  0  0  2  0  0  0  0  0  0
  189.8750  174.6330  141.7630 O   0  0  0  0  0  0  0  0  0  0  0  0
  188.7680  175.3710  141.3260 C   0  0  0  0  0  2  0  0  0  0  0  0
  188.2140  172.6770  140.3640 C   0  0  0  0  0  2  0  0  0  0  0  0
  189.7330  172.5890  140.4830 C   0  0  0  0  0  2  0  0  0  0  0  0
  190.3510  173.9800  140.6150 C   0  0  2  0  0  3  0  0  0  0  0  0
  186.8210  175.0590  142.7820 N   0  0  0  0  0  2  0  0  0  0  0  0
  186.8310  178.3740  144.4640 N   0  0  0  0  0  0  0  0  0  0  0  0
  185.7520  177.1970  142.2290 C   0  0  0  0  0  3  0  0  0  0  0  0
  187.0980  177.0530  144.2430 C   0  0  0  0  0  0  0  0  0  0  0  0
  186.5530  176.4340  143.0890 C   0  0  0  0  0  0  0  0  0  0  0  0
  185.4990  178.5390  142.4960 C   0  0  0  0  0  3  0  0  0  0  0  0
  186.0580  179.1170  143.6320 C   0  0  0  0  0  3  0  0  0  0  0  0
  187.9540  176.3400  145.2320 C   0  0  0  0  0  0  0  0  0  0  0  0
  188.3100  175.5840  147.5220 C   0  0  0  0  0  3  0  0  0  0  0  0
  189.1600  175.7180  144.8680 C   0  0  0  0  0  3  0  0  0  0  0  0
  187.5380  176.2590  146.5720 C   0  0  0  0  0  3  0  0  0  0  0  0
  189.9340  175.0430  145.8160 C   0  0  0  0  0  3  0  0  0  0  0  0
  189.5090  174.9780  147.1440 C   0  0  0  0  0  3  0  0  0  0  0  0
  196.6360  171.6160  146.0610 C   0  0  0  0  0  2  0  0  0  0  0  0
  197.4490  170.5720  145.6130 O   0  0  0  0  0  1  0  0  0  0  0  0
  1 12  1  0  0  0  0
  1  9  1  1  0  0  0
  2 20  1  0  0  0  0
  4  1  1  0  0  0  0
  4 16  1  6  0  0  0
  5 17  1  0  0  0  0
  6 10  2  0  0  0  0
  6 19  1  0  0  0  0
  8  1  1  0  0  0  0
 10 13  1  0  0  0  0
 11 15  1  6  0  0  0
 11 18  1  0  0  0  0
 12  3  1  0  0  0  0
 12 41  1  1  0  0  0
 13 11  1  0  0  0  0
 13 20  2  0  0  0  0
 16  3  1  0  0  0  0
 17  7  1  1  0  0  0
 17  4  1  0  0  0  0
 18 14  1  6  0  0  0
 18  8  1  0  0  0  0
 19  2  2  0  0  0  0
 20  5  1  0  0  0  0
 21 22  1  0  0  0  0
 21 28  1  1  0  0  0
 24 21  1  0  0  0  0
 24 23  1  0  0  0  0
 25 26  1  0  0  0  0
 25 22  1  0  0  0  0
 26 27  1  0  0  0  0
 27 19  1  1  0  0  0
 27 23  1  0  0  0  0
 28 32  1  0  0  0  0
 30 33  2  0  0  0  0
 30 32  1  0  0  0  0
 31 29  1  0  0  0  0
 31 35  1  0  0  0  0
 32 31  2  0  0  0  0
 33 34  1  0  0  0  0
 34 29  2  0  0  0  0
 35 38  1  0  0  0  0
 37 35  2  0  0  0  0
 37 39  1  0  0  0  0
 38 36  2  0  0  0  0
 39 40  2  0  0  0  0
 40 36  1  0  0  0  0
 42 41  1  0  0  0  0
M  END
>  <MODEL>
9

>  <REMARK>
 VINA RESULT:      -8.0      2.247      3.507
  Name = 
  5 active torsions:
  status: ('A' for Active; 'I' for Inactive)
    1  A    between atoms: C_6  and  N_33
    2  A    between atoms: C_10  and  C_25
    3  A    between atoms: C_15  and  C_28
    4  A    between atoms: C_26  and  N_33
    5  A    between atoms: C_37  and  C_41
                            x       y       z     vdW  Elec       q    Type
                         _______ _______ _______ _____ _____    ______ ____

>  <TORSDO>
F 5

$$$$
