=
 OpenBabel11072408273D

 34 35  0  0  1  0  0  0  0  0999 V2000
  189.1260  175.7880  144.7980 C   0  0  0  0  0  2  0  0  0  0  0  0
  188.1460  177.2550  147.5330 C   0  0  0  0  0  2  0  0  0  0  0  0
  189.6440  177.3580  147.3060 C   0  0  0  0  0  2  0  0  0  0  0  0
  189.4230  176.6720  142.3730 C   0  0  2  0  0  3  0  0  0  0  0  0
  185.1930  177.9920  140.9170 C   0  0  0  0  0  0  0  0  0  0  0  0
  190.2380  176.0060  147.0390 C   0  0  0  0  0  0  0  0  0  0  0  0
  189.9270  176.6630  143.8250 C   0  0  1  0  0  3  0  0  0  0  0  0
  183.8030  178.0670  141.0180 C   0  0  0  0  0  3  0  0  0  0  0  0
  185.5570  179.4510  145.5480 O   0  0  0  0  0  0  0  0  0  0  0  0
  183.2220  178.4570  142.1810 N   0  0  0  0  0  0  0  0  0  0  0  0
  183.9600  178.7750  143.2760 C   0  0  0  0  0  3  0  0  0  0  0  0
  186.0400  178.5750  147.7220 C   0  0  0  0  0  2  0  0  0  0  0  0
  185.7930  177.5440  139.6290 C   0  0  0  0  0  1  0  0  0  0  0  0
  187.5590  178.6460  147.6650 C   0  0  0  0  0  2  0  0  0  0  0  0
  184.0580  177.9380  146.4840 N   0  0  0  0  0  1  0  0  0  0  0  0
  187.4830  178.2110  141.9650 C   0  0  0  0  0  2  0  0  0  0  0  0
  189.9970  175.3100  145.9180 C   0  0  0  0  0  3  0  0  0  0  0  0
  185.9870  178.3200  142.0330 C   0  0  0  0  0  0  0  0  0  0  0  0
  187.9050  176.7830  142.2640 C   0  0  0  0  0  2  0  0  0  0  0  0
  185.3570  178.7040  143.2330 C   0  0  0  0  0  0  0  0  0  0  0  0
  185.4560  178.3040  146.3440 C   0  0  1  0  0  3  0  0  0  0  0  0
  186.1320  179.0330  144.3920 N   0  0  0  0  0  2  0  0  0  0  0  0
  191.1790  175.4360  148.0410 C   0  0  0  0  0  1  0  0  0  0  0  0
  190.2140  177.9490  144.3220 O   0  0  0  0  0  0  0  0  0  0  0  0
  191.1890  178.4400  143.5820 O   0  0  0  0  0  1  0  0  0  0  0  0
  189.8930  175.4080  141.6680 C   0  0  0  0  0  2  0  0  0  0  0  0
  188.7070  174.5640  141.2130 C   0  0  2  0  0  3  0  0  0  0  0  0
  187.4550  172.6950  141.9880 O   0  0  0  0  0  0  0  0  0  0  0  0
  189.4020  171.7780  143.8380 C   0  0  0  0  0  1  0  0  0  0  0  0
  188.5320  173.3460  142.0670 C   0  0  0  0  0  0  0  0  0  0  0  0
  189.5520  172.9470  142.9860 N   0  0  0  0  0  2  0  0  0  0  0  0
  187.9880  174.6560  138.9270 O   0  0  0  0  0  0  0  0  0  0  0  0
  189.8530  173.3930  139.3340 O   0  0  0  0  0  1  0  0  0  0  0  0
  188.8180  174.2110  139.7630 C   0  0  0  0  0  0  0  0  0  0  0  0
  1 17  1  0  0  0  0
  2 14  1  0  0  0  0
  3  2  1  0  0  0  0
  4 26  1  1  0  0  0
  4  7  1  0  0  0  0
  5  8  2  0  0  0  0
  5 18  1  0  0  0  0
  6  3  1  0  0  0  0
  6 23  1  0  0  0  0
  7 24  1  1  0  0  0
  7  1  1  0  0  0  0
  8 10  1  0  0  0  0
  9 21  1  0  0  0  0
 10 11  2  0  0  0  0
 13  5  1  0  0  0  0
 14 12  1  0  0  0  0
 16 18  1  0  0  0  0
 16 19  1  0  0  0  0
 17  6  2  0  0  0  0
 18 20  2  0  0  0  0
 19  4  1  0  0  0  0
 20 11  1  0  0  0  0
 20 22  1  0  0  0  0
 21 15  1  1  0  0  0
 21 12  1  0  0  0  0
 22  9  1  0  0  0  0
 25 24  1  0  0  0  0
 27 26  1  1  0  0  0
 27 30  1  0  0  0  0
 28 30  2  0  0  0  0
 30 31  1  0  0  0  0
 31 29  1  0  0  0  0
 32 34  2  0  0  0  0
 33 34  1  0  0  0  0
 34 27  1  0  0  0  0
M  END
>  <MODEL>
1

>  <REMARK>
 VINA RESULT:      -8.0      0.000      0.000
  Name = 
  5 active torsions:
  status: ('A' for Active; 'I' for Inactive)
    1  A    between atoms: O_2  and  C_9
    2  A    between atoms: C_6  and  C_30
    3  A    between atoms: C_14  and  C_20
    4  A    between atoms: C_14  and  C_29
    5  A    between atoms: C_14  and  C_30
                            x       y       z     vdW  Elec       q    Type
                         _______ _______ _______ _____ _____    ______ ____

>  <TORSDO>
F 5

$$$$
=
 OpenBabel11072408273D

 34 35  0  0  1  0  0  0  0  0999 V2000
  189.2240  175.6120  144.8020 C   0  0  0  0  0  2  0  0  0  0  0  0
  188.1320  177.1770  147.4380 C   0  0  0  0  0  2  0  0  0  0  0  0
  189.6440  177.2310  147.2980 C   0  0  0  0  0  2  0  0  0  0  0  0
  189.6890  176.4230  142.3790 C   0  0  2  0  0  3  0  0  0  0  0  0
  185.5940  177.8270  140.6440 C   0  0  0  0  0  0  0  0  0  0  0  0
  190.2100  175.8560  147.1000 C   0  0  0  0  0  0  0  0  0  0  0  0
  190.1080  176.4370  143.8580 C   0  0  1  0  0  3  0  0  0  0  0  0
  184.2030  177.9460  140.6620 C   0  0  0  0  0  3  0  0  0  0  0  0
  185.7320  179.3960  145.2510 O   0  0  0  0  0  0  0  0  0  0  0  0
  183.5680  178.3830  141.7790 N   0  0  0  0  0  0  0  0  0  0  0  0
  184.2500  178.7080  142.9070 C   0  0  0  0  0  3  0  0  0  0  0  0
  186.0610  178.5640  147.4710 C   0  0  0  0  0  2  0  0  0  0  0  0
  186.2540  177.3280  139.4050 C   0  0  0  0  0  1  0  0  0  0  0  0
  187.5820  178.5890  147.5020 C   0  0  0  0  0  2  0  0  0  0  0  0
  184.1360  177.9520  146.1340 N   0  0  0  0  0  1  0  0  0  0  0  0
  187.8240  178.0070  141.8190 C   0  0  0  0  0  2  0  0  0  0  0  0
  190.0140  175.1380  145.9830 C   0  0  0  0  0  3  0  0  0  0  0  0
  186.3310  178.1620  141.7970 C   0  0  0  0  0  0  0  0  0  0  0  0
  188.1840  176.5760  142.1780 C   0  0  0  0  0  2  0  0  0  0  0  0
  185.6440  178.5950  142.9480 C   0  0  0  0  0  0  0  0  0  0  0  0
  185.5500  178.2740  146.0680 C   0  0  1  0  0  3  0  0  0  0  0  0
  186.3600  178.9310  144.1420 N   0  0  0  0  0  2  0  0  0  0  0  0
  191.0740  175.2850  148.1690 C   0  0  0  0  0  1  0  0  0  0  0  0
  190.4040  177.7260  144.3390 O   0  0  0  0  0  0  0  0  0  0  0  0
  191.2670  178.2630  143.4980 O   0  0  0  0  0  1  0  0  0  0  0  0
  190.1600  175.1280  141.7330 C   0  0  0  0  0  2  0  0  0  0  0  0
  191.4350  174.6200  142.3970 C   0  0  2  0  0  3  0  0  0  0  0  0
  192.9100  174.3090  140.5560 O   0  0  0  0  0  0  0  0  0  0  0  0
  194.7370  176.3540  141.2880 C   0  0  0  0  0  1  0  0  0  0  0  0
  192.6540  174.9680  141.5990 C   0  0  0  0  0  0  0  0  0  0  0  0
  193.5380  176.0060  142.0340 N   0  0  0  0  0  2  0  0  0  0  0  0
  192.0610  172.6230  143.5710 O   0  0  0  0  0  1  0  0  0  0  0  0
  190.4870  172.3610  141.9290 O   0  0  0  0  0  0  0  0  0  0  0  0
  191.3560  173.1500  142.6700 C   0  0  0  0  0  0  0  0  0  0  0  0
  1 17  1  0  0  0  0
  2 14  1  0  0  0  0
  3  2  1  0  0  0  0
  4 26  1  1  0  0  0
  4  7  1  0  0  0  0
  5  8  2  0  0  0  0
  5 18  1  0  0  0  0
  6  3  1  0  0  0  0
  6 23  1  0  0  0  0
  7 24  1  1  0  0  0
  7  1  1  0  0  0  0
  8 10  1  0  0  0  0
  9 21  1  0  0  0  0
 10 11  2  0  0  0  0
 11 20  1  0  0  0  0
 12 14  1  0  0  0  0
 13  5  1  0  0  0  0
 16 19  1  0  0  0  0
 17  6  2  0  0  0  0
 18 16  1  0  0  0  0
 18 20  2  0  0  0  0
 19  4  1  0  0  0  0
 20 22  1  0  0  0  0
 21 15  1  1  0  0  0
 21 12  1  0  0  0  0
 22  9  1  0  0  0  0
 25 24  1  0  0  0  0
 27 26  1  6  0  0  0
 27 34  1  0  0  0  0
 28 30  2  0  0  0  0
 29 31  1  0  0  0  0
 30 31  1  0  0  0  0
 30 27  1  0  0  0  0
 33 34  2  0  0  0  0
 34 32  1  0  0  0  0
M  END
>  <MODEL>
2

>  <REMARK>
 VINA RESULT:      -7.3      1.845      2.514
  Name = 
  5 active torsions:
  status: ('A' for Active; 'I' for Inactive)
    1  A    between atoms: O_2  and  C_9
    2  A    between atoms: C_6  and  C_30
    3  A    between atoms: C_14  and  C_20
    4  A    between atoms: C_14  and  C_29
    5  A    between atoms: C_14  and  C_30
                            x       y       z     vdW  Elec       q    Type
                         _______ _______ _______ _____ _____    ______ ____

>  <TORSDO>
F 5

$$$$
=
 OpenBabel11072408273D

 34 35  0  0  1  0  0  0  0  0999 V2000
  190.4110  176.6700  145.1000 C   0  0  0  0  0  2  0  0  0  0  0  0
  193.0470  175.1650  146.2750 C   0  0  0  0  0  2  0  0  0  0  0  0
  191.9210  175.2720  147.2890 C   0  0  0  0  0  2  0  0  0  0  0  0
  188.2880  175.7620  143.9100 C   0  0  2  0  0  3  0  0  0  0  0  0
  189.7360  173.7990  139.9340 C   0  0  0  0  0  0  0  0  0  0  0  0
  191.4310  176.6870  147.3950 C   0  0  0  0  0  0  0  0  0  0  0  0
  189.0950  175.8900  145.2120 C   0  0  1  0  0  3  0  0  0  0  0  0
  190.6840  173.5260  138.9480 C   0  0  0  0  0  3  0  0  0  0  0  0
  192.9930  172.5550  143.3330 O   0  0  0  0  0  0  0  0  0  0  0  0
  191.9240  173.0940  139.2910 N   0  0  0  0  0  0  0  0  0  0  0  0
  192.2860  172.9210  140.5880 C   0  0  0  0  0  3  0  0  0  0  0  0
  194.4300  173.5600  144.9620 C   0  0  0  0  0  2  0  0  0  0  0  0
  188.3910  174.2880  139.5190 C   0  0  0  0  0  1  0  0  0  0  0  0
  193.4250  173.7080  146.0940 C   0  0  0  0  0  2  0  0  0  0  0  0
  194.7630  173.8640  142.5820 N   0  0  0  0  0  1  0  0  0  0  0  0
  189.0900  173.9460  142.3730 C   0  0  0  0  0  2  0  0  0  0  0  0
  190.7620  177.3040  146.4100 C   0  0  0  0  0  3  0  0  0  0  0  0
  190.0780  173.6240  141.2890 C   0  0  0  0  0  0  0  0  0  0  0  0
  189.1520  175.4290  142.6960 C   0  0  0  0  0  2  0  0  0  0  0  0
  191.3770  173.1910  141.6180 C   0  0  0  0  0  0  0  0  0  0  0  0
  193.7500  173.7000  143.6080 C   0  0  1  0  0  3  0  0  0  0  0  0
  191.7640  173.0150  142.9860 N   0  0  0  0  0  2  0  0  0  0  0  0
  191.6530  177.4180  148.6720 C   0  0  0  0  0  1  0  0  0  0  0  0
  189.2130  174.6760  145.9140 O   0  0  0  0  0  0  0  0  0  0  0  0
  188.5570  174.8220  147.0500 O   0  0  0  0  0  1  0  0  0  0  0  0
  187.5310  177.0580  143.6560 C   0  0  0  0  0  2  0  0  0  0  0  0
  186.0470  176.8920  143.9610 C   0  0  2  0  0  3  0  0  0  0  0  0
  184.0560  177.9850  143.2540 O   0  0  0  0  0  0  0  0  0  0  0  0
  184.8100  178.2460  140.5300 C   0  0  0  0  0  1  0  0  0  0  0  0
  185.1890  177.5440  142.9210 C   0  0  0  0  0  0  0  0  0  0  0  0
  185.6290  177.6320  141.5630 N   0  0  0  0  0  2  0  0  0  0  0  0
  185.1700  176.6240  146.1780 O   0  0  0  0  0  1  0  0  0  0  0  0
  186.0330  178.6880  145.6910 O   0  0  0  0  0  0  0  0  0  0  0  0
  185.7190  177.3840  145.3360 C   0  0  0  0  0  0  0  0  0  0  0  0
  1  7  1  0  0  0  0
  1 17  1  0  0  0  0
  2  3  1  0  0  0  0
  3  6  1  0  0  0  0
  4 26  1  6  0  0  0
  4  7  1  0  0  0  0
  5 18  1  0  0  0  0
  6 23  1  0  0  0  0
  7 24  1  6  0  0  0
  8 10  1  0  0  0  0
  8  5  2  0  0  0  0
  9 21  1  0  0  0  0
 10 11  2  0  0  0  0
 11 20  1  0  0  0  0
 12 14  1  0  0  0  0
 13  5  1  0  0  0  0
 14  2  1  0  0  0  0
 16 19  1  0  0  0  0
 17  6  2  0  0  0  0
 18 20  2  0  0  0  0
 18 16  1  0  0  0  0
 19  4  1  0  0  0  0
 20 22  1  0  0  0  0
 21 15  1  6  0  0  0
 21 12  1  0  0  0  0
 22  9  1  0  0  0  0
 24 25  1  0  0  0  0
 27 26  1  6  0  0  0
 27 34  1  0  0  0  0
 29 31  1  0  0  0  0
 30 28  2  0  0  0  0
 30 27  1  0  0  0  0
 31 30  1  0  0  0  0
 34 33  2  0  0  0  0
 34 32  1  0  0  0  0
M  END
>  <MODEL>
3

>  <REMARK>
 VINA RESULT:      -7.1      2.751      6.846
  Name = 
  5 active torsions:
  status: ('A' for Active; 'I' for Inactive)
    1  A    between atoms: O_2  and  C_9
    2  A    between atoms: C_6  and  C_30
    3  A    between atoms: C_14  and  C_20
    4  A    between atoms: C_14  and  C_29
    5  A    between atoms: C_14  and  C_30
                            x       y       z     vdW  Elec       q    Type
                         _______ _______ _______ _____ _____    ______ ____

>  <TORSDO>
F 5

$$$$
=
 OpenBabel11072408273D

 34 35  0  0  1  0  0  0  0  0999 V2000
  189.2640  173.3920  142.7380 C   0  0  0  0  0  2  0  0  0  0  0  0
  190.2740  173.9720  145.7760 C   0  0  0  0  0  2  0  0  0  0  0  0
  191.4100  173.6360  144.8260 C   0  0  0  0  0  2  0  0  0  0  0  0
  188.9650  174.9570  140.6860 C   0  0  2  0  0  3  0  0  0  0  0  0
  185.7050  178.0770  141.8650 C   0  0  0  0  0  0  0  0  0  0  0  0
  191.1230  172.3660  144.0790 C   0  0  0  0  0  0  0  0  0  0  0  0
  189.9290  174.2370  141.6440 C   0  0  1  0  0  3  0  0  0  0  0  0
  184.6910  178.5770  142.6820 C   0  0  0  0  0  3  0  0  0  0  0  0
  188.5130  177.4880  145.7980 O   0  0  0  0  0  0  0  0  0  0  0  0
  184.8790  178.6780  144.0230 N   0  0  0  0  0  0  0  0  0  0  0  0
  186.0410  178.2930  144.6110 C   0  0  0  0  0  3  0  0  0  0  0  0
  189.3290  175.7580  147.2360 C   0  0  0  0  0  2  0  0  0  0  0  0
  185.4540  177.9660  140.4000 C   0  0  0  0  0  1  0  0  0  0  0  0
  190.5320  175.3240  146.4120 C   0  0  0  0  0  2  0  0  0  0  0  0
  186.9810  176.3420  147.1220 N   0  0  0  0  0  1  0  0  0  0  0  0
  188.0190  177.0980  141.5930 C   0  0  0  0  0  2  0  0  0  0  0  0
  190.1600  172.2650  143.1510 C   0  0  0  0  0  3  0  0  0  0  0  0
  186.9240  177.6750  142.4430 C   0  0  0  0  0  0  0  0  0  0  0  0
  187.7840  175.6100  141.3990 C   0  0  0  0  0  2  0  0  0  0  0  0
  187.0860  177.7740  143.8390 C   0  0  0  0  0  0  0  0  0  0  0  0
  188.1980  176.2360  146.3380 C   0  0  1  0  0  3  0  0  0  0  0  0
  188.3080  177.3620  144.4630 N   0  0  0  0  0  2  0  0  0  0  0  0
  191.9840  171.1810  144.3430 C   0  0  0  0  0  1  0  0  0  0  0  0
  190.9650  175.0640  142.1160 O   0  0  0  0  0  0  0  0  0  0  0  0
  192.0600  174.7190  141.4680 O   0  0  0  0  0  1  0  0  0  0  0  0
  188.4510  173.9680  139.6500 C   0  0  0  0  0  2  0  0  0  0  0  0
  189.5150  173.6790  138.5970 C   0  0  2  0  0  3  0  0  0  0  0  0
  187.9950  174.7250  137.0950 O   0  0  0  0  0  0  0  0  0  0  0  0
  189.3470  173.9590  134.7200 C   0  0  0  0  0  1  0  0  0  0  0  0
  189.0540  174.0530  137.2220 C   0  0  0  0  0  0  0  0  0  0  0  0
  189.7800  173.6240  136.0670 N   0  0  0  0  0  2  0  0  0  0  0  0
  189.1380  171.3110  138.5180 O   0  0  0  0  0  0  0  0  0  0  0  0
  191.3050  171.9630  138.8620 O   0  0  0  0  0  1  0  0  0  0  0  0
  189.9640  172.2520  138.6590 C   0  0  0  0  0  0  0  0  0  0  0  0
  1 17  1  0  0  0  0
  2 14  1  0  0  0  0
  3  2  1  0  0  0  0
  4 26  1  6  0  0  0
  4 19  1  0  0  0  0
  4  7  1  0  0  0  0
  5 18  2  0  0  0  0
  5  8  1  0  0  0  0
  6 23  1  0  0  0  0
  6  3  1  0  0  0  0
  7 24  1  1  0  0  0
  7  1  1  0  0  0  0
  8 10  2  0  0  0  0
  9 21  1  0  0  0  0
 10 11  1  0  0  0  0
 13  5  1  0  0  0  0
 14 12  1  0  0  0  0
 16 18  1  0  0  0  0
 17  6  2  0  0  0  0
 18 20  1  0  0  0  0
 19 16  1  0  0  0  0
 20 22  1  0  0  0  0
 20 11  2  0  0  0  0
 21 15  1  1  0  0  0
 21 12  1  0  0  0  0
 22  9  1  0  0  0  0
 25 24  1  0  0  0  0
 27 34  1  0  0  0  0
 27 26  1  1  0  0  0
 28 30  2  0  0  0  0
 29 31  1  0  0  0  0
 30 27  1  0  0  0  0
 31 30  1  0  0  0  0
 32 34  2  0  0  0  0
 34 33  1  0  0  0  0
M  END
>  <MODEL>
4

>  <REMARK>
 VINA RESULT:      -6.8      2.360      3.887
  Name = 
  5 active torsions:
  status: ('A' for Active; 'I' for Inactive)
    1  A    between atoms: O_2  and  C_9
    2  A    between atoms: C_6  and  C_30
    3  A    between atoms: C_14  and  C_20
    4  A    between atoms: C_14  and  C_29
    5  A    between atoms: C_14  and  C_30
                            x       y       z     vdW  Elec       q    Type
                         _______ _______ _______ _____ _____    ______ ____

>  <TORSDO>
F 5

$$$$
=
 OpenBabel11072408273D

 34 35  0  0  1  0  0  0  0  0999 V2000
  188.5100  176.0990  141.6300 C   0  0  0  0  0  2  0  0  0  0  0  0
  186.8110  177.4830  144.0360 C   0  0  0  0  0  2  0  0  0  0  0  0
  185.9360  176.7430  143.0390 C   0  0  0  0  0  2  0  0  0  0  0  0
  189.5480  173.7300  141.3870 C   0  0  2  0  0  3  0  0  0  0  0  0
  192.7570  173.3400  144.7490 C   0  0  0  0  0  0  0  0  0  0  0  0
  186.2410  177.1770  141.6360 C   0  0  0  0  0  0  0  0  0  0  0  0
  188.2780  174.5950  141.4330 C   0  0  1  0  0  3  0  0  0  0  0  0
  193.5730  173.8450  145.7630 C   0  0  0  0  0  3  0  0  0  0  0  0
  188.9500  175.6150  146.7570 O   0  0  0  0  0  0  0  0  0  0  0  0
  193.0490  174.6330  146.7350 N   0  0  0  0  0  0  0  0  0  0  0  0
  191.7320  174.9630  146.7530 C   0  0  0  0  0  3  0  0  0  0  0  0
  187.5580  177.5320  146.4130 C   0  0  0  0  0  2  0  0  0  0  0  0
  193.3730  172.4930  143.6900 C   0  0  0  0  0  1  0  0  0  0  0  0
  186.5730  176.9260  145.4260 C   0  0  0  0  0  2  0  0  0  0  0  0
  189.9080  177.7240  146.9730 N   0  0  0  0  0  1  0  0  0  0  0  0
  190.4910  173.1640  143.6440 C   0  0  0  0  0  2  0  0  0  0  0  0
  187.3950  176.8890  141.0160 C   0  0  0  0  0  3  0  0  0  0  0  0
  191.3860  173.6600  144.7430 C   0  0  0  0  0  0  0  0  0  0  0  0
  190.5710  174.1070  142.4550 C   0  0  0  0  0  2  0  0  0  0  0  0
  190.8720  174.4950  145.7540 C   0  0  0  0  0  0  0  0  0  0  0  0
  188.9410  176.9190  146.2480 C   0  0  1  0  0  3  0  0  0  0  0  0
  189.4840  174.8510  145.7710 N   0  0  0  0  0  2  0  0  0  0  0  0
  185.1930  177.9160  140.8790 C   0  0  0  0  0  1  0  0  0  0  0  0
  187.2720  174.0620  142.2610 O   0  0  0  0  0  0  0  0  0  0  0  0
  187.2240  172.7650  142.0240 O   0  0  0  0  0  1  0  0  0  0  0  0
  190.1850  173.8410  140.0100 C   0  0  0  0  0  2  0  0  0  0  0  0
  189.4520  172.9690  138.9970 C   0  0  2  0  0  3  0  0  0  0  0  0
  191.5420  171.8860  138.6510 O   0  0  0  0  0  0  0  0  0  0  0  0
  190.4640  169.5050  137.5430 C   0  0  0  0  0  1  0  0  0  0  0  0
  190.2880  171.8070  138.5550 C   0  0  0  0  0  0  0  0  0  0  0  0
  189.6770  170.6410  137.9950 N   0  0  0  0  0  2  0  0  0  0  0  0
  187.8600  174.3690  137.8750 O   0  0  0  0  0  1  0  0  0  0  0  0
  189.7640  173.8870  136.7000 O   0  0  0  0  0  0  0  0  0  0  0  0
  188.9710  173.7780  137.8330 C   0  0  0  0  0  0  0  0  0  0  0  0
  2 14  1  0  0  0  0
  3  2  1  0  0  0  0
  4 26  1  6  0  0  0
  4  7  1  0  0  0  0
  4 19  1  0  0  0  0
  5  8  1  0  0  0  0
  6  3  1  0  0  0  0
  7  1  1  0  0  0  0
  7 24  1  1  0  0  0
  8 10  2  0  0  0  0
 10 11  1  0  0  0  0
 13  5  1  0  0  0  0
 14 12  1  0  0  0  0
 16 18  1  0  0  0  0
 17  1  1  0  0  0  0
 17  6  2  0  0  0  0
 18  5  2  0  0  0  0
 18 20  1  0  0  0  0
 19 16  1  0  0  0  0
 20 22  1  0  0  0  0
 20 11  2  0  0  0  0
 21 12  1  0  0  0  0
 21  9  1  0  0  0  0
 21 15  1  1  0  0  0
 22  9  1  0  0  0  0
 23  6  1  0  0  0  0
 25 24  1  0  0  0  0
 27 26  1  1  0  0  0
 29 31  1  0  0  0  0
 30 28  2  0  0  0  0
 30 27  1  0  0  0  0
 31 30  1  0  0  0  0
 33 34  2  0  0  0  0
 34 32  1  0  0  0  0
 34 27  1  0  0  0  0
M  END
>  <MODEL>
5

>  <REMARK>
 VINA RESULT:      -6.7      2.816      6.212
  Name = 
  5 active torsions:
  status: ('A' for Active; 'I' for Inactive)
    1  A    between atoms: O_2  and  C_9
    2  A    between atoms: C_6  and  C_30
    3  A    between atoms: C_14  and  C_20
    4  A    between atoms: C_14  and  C_29
    5  A    between atoms: C_14  and  C_30
                            x       y       z     vdW  Elec       q    Type
                         _______ _______ _______ _____ _____    ______ ____

>  <TORSDO>
F 5

$$$$
=
 OpenBabel11072408273D

 34 35  0  0  1  0  0  0  0  0999 V2000
  192.0620  176.0800  143.7740 C   0  0  0  0  0  2  0  0  0  0  0  0
  194.0810  173.9680  145.2080 C   0  0  0  0  0  2  0  0  0  0  0  0
  193.3170  174.8280  146.2000 C   0  0  0  0  0  2  0  0  0  0  0  0
  189.5600  175.8950  143.1000 C   0  0  2  0  0  3  0  0  0  0  0  0
  189.2930  172.4890  139.9250 C   0  0  0  0  0  0  0  0  0  0  0  0
  193.4490  176.2830  145.8580 C   0  0  0  0  0  0  0  0  0  0  0  0
  190.5990  176.0130  144.2270 C   0  0  1  0  0  3  0  0  0  0  0  0
  189.8390  171.5720  139.0260 C   0  0  0  0  0  3  0  0  0  0  0  0
  192.4210  170.9440  143.3200 O   0  0  0  0  0  0  0  0  0  0  0  0
  190.8540  170.7570  139.4110 N   0  0  0  0  0  0  0  0  0  0  0  0
  191.3740  170.8090  140.6650 C   0  0  0  0  0  3  0  0  0  0  0  0
  194.4330  171.6290  144.4200 C   0  0  0  0  0  2  0  0  0  0  0  0
  188.1910  173.3780  139.4590 C   0  0  0  0  0  1  0  0  0  0  0  0
  193.8160  172.5040  145.5010 C   0  0  0  0  0  2  0  0  0  0  0  0
  194.3700  171.0910  142.0590 N   0  0  0  0  0  1  0  0  0  0  0  0
  189.2630  173.5660  142.2110 C   0  0  0  0  0  2  0  0  0  0  0  0
  192.8890  176.8320  144.7700 C   0  0  0  0  0  3  0  0  0  0  0  0
  189.8060  172.5630  141.2340 C   0  0  0  0  0  0  0  0  0  0  0  0
  189.9620  174.9000  142.0140 C   0  0  0  0  0  2  0  0  0  0  0  0
  190.8710  171.7190  141.6020 C   0  0  0  0  0  0  0  0  0  0  0  0
  193.6030  171.6720  143.1460 C   0  0  1  0  0  3  0  0  0  0  0  0
  191.4260  171.7760  142.9210 N   0  0  0  0  0  2  0  0  0  0  0  0
  194.1910  177.1660  146.7990 C   0  0  0  0  0  1  0  0  0  0  0  0
  190.3730  175.1130  145.2870 O   0  0  0  0  0  0  0  0  0  0  0  0
  189.9610  175.8260  146.3170 O   0  0  0  0  0  1  0  0  0  0  0  0
  189.3350  177.2650  142.4770 C   0  0  0  0  0  2  0  0  0  0  0  0
  187.8780  177.6940  142.6150 C   0  0  2  0  0  3  0  0  0  0  0  0
  186.4650  176.0080  143.5210 O   0  0  0  0  0  0  0  0  0  0  0  0
  186.6950  176.8470  146.2240 C   0  0  0  0  0  1  0  0  0  0  0  0
  187.2010  177.0030  143.7590 C   0  0  0  0  0  0  0  0  0  0  0  0
  187.3540  177.4870  145.0960 N   0  0  0  0  0  2  0  0  0  0  0  0
  187.4900  176.6170  140.5070 O   0  0  0  0  0  0  0  0  0  0  0  0
  186.0270  178.2910  141.0550 O   0  0  0  0  0  1  0  0  0  0  0  0
  187.1320  177.4990  141.3320 C   0  0  0  0  0  0  0  0  0  0  0  0
  1  7  1  0  0  0  0
  1 17  1  0  0  0  0
  2 14  1  0  0  0  0
  2  3  1  0  0  0  0
  4 26  1  6  0  0  0
  4  7  1  0  0  0  0
  5 18  1  0  0  0  0
  6  3  1  0  0  0  0
  6 23  1  0  0  0  0
  7 24  1  1  0  0  0
  8 10  1  0  0  0  0
  8  5  2  0  0  0  0
 10 11  2  0  0  0  0
 11 20  1  0  0  0  0
 12 14  1  0  0  0  0
 13  5  1  0  0  0  0
 17  6  2  0  0  0  0
 18 20  2  0  0  0  0
 18 16  1  0  0  0  0
 19 16  1  0  0  0  0
 19  4  1  0  0  0  0
 20 22  1  0  0  0  0
 21 15  1  6  0  0  0
 21  9  1  0  0  0  0
 21 12  1  0  0  0  0
 22  9  1  0  0  0  0
 24 25  1  0  0  0  0
 27 26  1  6  0  0  0
 27 30  1  0  0  0  0
 28 30  2  0  0  0  0
 30 31  1  0  0  0  0
 31 29  1  0  0  0  0
 32 34  2  0  0  0  0
 33 34  1  0  0  0  0
 34 27  1  0  0  0  0
M  END
>  <MODEL>
6

>  <REMARK>
 VINA RESULT:      -6.5      3.096      6.876
  Name = 
  5 active torsions:
  status: ('A' for Active; 'I' for Inactive)
    1  A    between atoms: O_2  and  C_9
    2  A    between atoms: C_6  and  C_30
    3  A    between atoms: C_14  and  C_20
    4  A    between atoms: C_14  and  C_29
    5  A    between atoms: C_14  and  C_30
                            x       y       z     vdW  Elec       q    Type
                         _______ _______ _______ _____ _____    ______ ____

>  <TORSDO>
F 5

$$$$
=
 OpenBabel11072408273D

 34 35  0  0  1  0  0  0  0  0999 V2000
  190.9070  175.9350  144.3720 C   0  0  0  0  0  2  0  0  0  0  0  0
  193.8320  176.1670  145.7810 C   0  0  0  0  0  2  0  0  0  0  0  0
  192.8130  175.4400  146.6410 C   0  0  0  0  0  2  0  0  0  0  0  0
  189.8610  174.1080  142.8510 C   0  0  2  0  0  3  0  0  0  0  0  0
  192.4550  173.9650  138.9780 C   0  0  0  0  0  0  0  0  0  0  0  0
  191.5560  176.2480  146.7790 C   0  0  0  0  0  0  0  0  0  0  0  0
  190.3370  174.5160  144.2550 C   0  0  1  0  0  3  0  0  0  0  0  0
  193.4330  174.4520  138.1090 C   0  0  0  0  0  3  0  0  0  0  0  0
  195.5690  174.4750  142.6850 O   0  0  0  0  0  0  0  0  0  0  0  0
  194.6540  174.8070  138.5840 N   0  0  0  0  0  0  0  0  0  0  0  0
  194.9630  174.7120  139.9030 C   0  0  0  0  0  3  0  0  0  0  0  0
  195.9870  175.9080  144.5560 C   0  0  0  0  0  2  0  0  0  0  0  0
  191.1210  173.6020  138.4220 C   0  0  0  0  0  1  0  0  0  0  0  0
  195.0320  175.2690  145.5520 C   0  0  0  0  0  2  0  0  0  0  0  0
  196.2150  176.6700  142.2680 N   0  0  0  0  0  1  0  0  0  0  0  0
  191.7010  173.3640  141.3140 C   0  0  0  0  0  2  0  0  0  0  0  0
  190.7130  176.4680  145.7580 C   0  0  0  0  0  3  0  0  0  0  0  0
  192.7450  173.8490  140.3500 C   0  0  0  0  0  0  0  0  0  0  0  0
  190.8240  174.5270  141.7430 C   0  0  0  0  0  2  0  0  0  0  0  0
  194.0150  174.2410  140.8180 C   0  0  0  0  0  0  0  0  0  0  0  0
  195.4510  175.7940  143.1370 C   0  0  1  0  0  3  0  0  0  0  0  0
  194.3410  174.1480  142.2100 N   0  0  0  0  0  2  0  0  0  0  0  0
  191.2030  176.7850  148.1210 C   0  0  0  0  0  1  0  0  0  0  0  0
  191.1270  173.5330  144.8810 O   0  0  0  0  0  0  0  0  0  0  0  0
  190.5630  172.3670  144.6290 O   0  0  0  0  0  1  0  0  0  0  0  0
  188.4890  174.7110  142.5890 C   0  0  0  0  0  2  0  0  0  0  0  0
  188.6010  175.9740  141.7410 C   0  0  2  0  0  3  0  0  0  0  0  0
  188.7770  178.2950  142.2310 O   0  0  0  0  0  0  0  0  0  0  0  0
  186.9070  178.2920  144.3670 C   0  0  0  0  0  1  0  0  0  0  0  0
  188.2240  177.1990  142.5150 C   0  0  0  0  0  0  0  0  0  0  0  0
  187.2800  177.1220  143.5880 N   0  0  0  0  0  2  0  0  0  0  0  0
  187.9940  174.8870  139.6900 O   0  0  0  0  0  0  0  0  0  0  0  0
  186.8420  176.8040  140.1810 O   0  0  0  0  0  1  0  0  0  0  0  0
  187.8050  175.8510  140.4790 C   0  0  0  0  0  0  0  0  0  0  0  0
  1 17  1  0  0  0  0
  2  3  1  0  0  0  0
  3  6  1  0  0  0  0
  4 26  1  6  0  0  0
  4  7  1  0  0  0  0
  5 18  1  0  0  0  0
  6 23  1  0  0  0  0
  7  1  1  0  0  0  0
  7 24  1  6  0  0  0
  8 10  1  0  0  0  0
  8  5  2  0  0  0  0
  9 21  1  0  0  0  0
 10 11  2  0  0  0  0
 11 20  1  0  0  0  0
 12 14  1  0  0  0  0
 13  5  1  0  0  0  0
 14  2  1  0  0  0  0
 16 19  1  0  0  0  0
 17  6  2  0  0  0  0
 18 20  2  0  0  0  0
 18 16  1  0  0  0  0
 19  4  1  0  0  0  0
 20 22  1  0  0  0  0
 21 15  1  6  0  0  0
 21 12  1  0  0  0  0
 22  9  1  0  0  0  0
 25 24  1  0  0  0  0
 27 30  1  0  0  0  0
 27 26  1  1  0  0  0
 28 30  2  0  0  0  0
 30 31  1  0  0  0  0
 31 29  1  0  0  0  0
 32 34  2  0  0  0  0
 33 34  1  0  0  0  0
 34 27  1  0  0  0  0
M  END
>  <MODEL>
7

>  <REMARK>
 VINA RESULT:      -6.5      3.723      7.167
  Name = 
  5 active torsions:
  status: ('A' for Active; 'I' for Inactive)
    1  A    between atoms: O_2  and  C_9
    2  A    between atoms: C_6  and  C_30
    3  A    between atoms: C_14  and  C_20
    4  A    between atoms: C_14  and  C_29
    5  A    between atoms: C_14  and  C_30
                            x       y       z     vdW  Elec       q    Type
                         _______ _______ _______ _____ _____    ______ ____

>  <TORSDO>
F 5

$$$$
=
 OpenBabel11072408273D

 34 35  0  0  1  0  0  0  0  0999 V2000
  191.5020  172.9270  142.8780 C   0  0  0  0  0  2  0  0  0  0  0  0
  193.7190  173.8750  145.0640 C   0  0  0  0  0  2  0  0  0  0  0  0
  194.2810  173.7610  143.6580 C   0  0  0  0  0  2  0  0  0  0  0  0
  189.8910  174.2780  141.3520 C   0  0  2  0  0  3  0  0  0  0  0  0
  187.0310  176.6220  144.1960 C   0  0  0  0  0  0  0  0  0  0  0  0
  193.9560  172.4240  143.0590 C   0  0  0  0  0  0  0  0  0  0  0  0
  191.3330  173.8470  141.6610 C   0  0  1  0  0  3  0  0  0  0  0  0
  186.4690  176.9150  145.4390 C   0  0  0  0  0  3  0  0  0  0  0  0
  191.4620  176.8890  146.1960 O   0  0  0  0  0  0  0  0  0  0  0  0
  187.2650  177.1240  146.5180 N   0  0  0  0  0  0  0  0  0  0  0  0
  188.6180  177.0460  146.4330 C   0  0  0  0  0  3  0  0  0  0  0  0
  193.2440  175.4660  146.9220 C   0  0  0  0  0  2  0  0  0  0  0  0
  186.1230  176.3830  143.0390 C   0  0  0  0  0  1  0  0  0  0  0  0
  193.9460  175.2800  145.5860 C   0  0  0  0  0  2  0  0  0  0  0  0
  191.0820  175.4900  148.0160 N   0  0  0  0  0  1  0  0  0  0  0  0
  189.0630  176.1880  142.7560 C   0  0  0  0  0  2  0  0  0  0  0  0
  192.7120  172.0590  142.7180 C   0  0  0  0  0  3  0  0  0  0  0  0
  188.4310  176.5400  144.0720 C   0  0  0  0  0  0  0  0  0  0  0  0
  189.1020  174.6770  142.5970 C   0  0  0  0  0  2  0  0  0  0  0  0
  189.2330  176.7420  145.2130 C   0  0  0  0  0  0  0  0  0  0  0  0
  191.7430  175.6270  146.7300 C   0  0  1  0  0  3  0  0  0  0  0  0
  190.6600  176.6540  145.1270 N   0  0  0  0  0  2  0  0  0  0  0  0
  195.0750  171.4820  142.7820 C   0  0  0  0  0  1  0  0  0  0  0  0
  192.2530  174.9130  141.6230 O   0  0  0  0  0  0  0  0  0  0  0  0
  192.9950  174.7430  140.5460 O   0  0  0  0  0  1  0  0  0  0  0  0
  189.1690  173.1480  140.6340 C   0  0  0  0  0  2  0  0  0  0  0  0
  189.9020  172.7570  139.3560 C   0  0  2  0  0  3  0  0  0  0  0  0
  188.0410  173.5220  138.0870 O   0  0  0  0  0  0  0  0  0  0  0  0
  189.5510  174.4400  135.8650 C   0  0  0  0  0  1  0  0  0  0  0  0
  189.2940  173.3990  138.1470 C   0  0  0  0  0  0  0  0  0  0  0  0
  190.1160  173.8290  137.0580 N   0  0  0  0  0  2  0  0  0  0  0  0
  189.5240  170.6970  138.1860 O   0  0  0  0  0  0  0  0  0  0  0  0
  190.5780  170.5140  140.2090 O   0  0  0  0  0  1  0  0  0  0  0  0
  189.9820  171.2690  139.2100 C   0  0  0  0  0  0  0  0  0  0  0  0
  2 14  1  0  0  0  0
  3  2  1  0  0  0  0
  4 26  1  1  0  0  0
  4  7  1  0  0  0  0
  4 19  1  0  0  0  0
  5  8  1  0  0  0  0
  6  3  1  0  0  0  0
  7 24  1  1  0  0  0
  7  1  1  0  0  0  0
  8 10  2  0  0  0  0
  9 21  1  0  0  0  0
 11 10  1  0  0  0  0
 13  5  1  0  0  0  0
 14 12  1  0  0  0  0
 16 18  1  0  0  0  0
 17  1  1  0  0  0  0
 17  6  2  0  0  0  0
 18  5  2  0  0  0  0
 18 20  1  0  0  0  0
 19 16  1  0  0  0  0
 20 11  2  0  0  0  0
 21 12  1  0  0  0  0
 21 15  1  1  0  0  0
 22 20  1  0  0  0  0
 22  9  1  0  0  0  0
 23  6  1  0  0  0  0
 25 24  1  0  0  0  0
 27 26  1  1  0  0  0
 28 30  2  0  0  0  0
 29 31  1  0  0  0  0
 30 27  1  0  0  0  0
 31 30  1  0  0  0  0
 32 34  2  0  0  0  0
 34 27  1  0  0  0  0
 34 33  1  0  0  0  0
M  END
>  <MODEL>
8

>  <REMARK>
 VINA RESULT:      -6.3      3.209      5.351
  Name = 
  5 active torsions:
  status: ('A' for Active; 'I' for Inactive)
    1  A    between atoms: O_2  and  C_9
    2  A    between atoms: C_6  and  C_30
    3  A    between atoms: C_14  and  C_20
    4  A    between atoms: C_14  and  C_29
    5  A    between atoms: C_14  and  C_30
                            x       y       z     vdW  Elec       q    Type
                         _______ _______ _______ _____ _____    ______ ____

>  <TORSDO>
F 5

$$$$
=
 OpenBabel11072408273D

 34 35  0  0  1  0  0  0  0  0999 V2000
  189.5720  175.4830  143.6760 C   0  0  0  0  0  2  0  0  0  0  0  0
  190.4890  176.5470  146.6120 C   0  0  0  0  0  2  0  0  0  0  0  0
  189.2800  175.6300  146.6620 C   0  0  0  0  0  2  0  0  0  0  0  0
  190.2250  173.3630  142.3230 C   0  0  2  0  0  3  0  0  0  0  0  0
  194.8040  173.6820  141.4920 C   0  0  0  0  0  0  0  0  0  0  0  0
  188.2210  176.0890  145.7040 C   0  0  0  0  0  0  0  0  0  0  0  0
  189.4710  173.9600  143.5230 C   0  0  1  0  0  3  0  0  0  0  0  0
  196.0250  174.3580  141.4620 C   0  0  0  0  0  3  0  0  0  0  0  0
  194.1420  175.1930  146.0730 O   0  0  0  0  0  0  0  0  0  0  0  0
  196.4540  175.0440  142.5510 N   0  0  0  0  0  0  0  0  0  0  0  0
  195.7190  175.1070  143.6910 C   0  0  0  0  0  3  0  0  0  0  0  0
  192.8670  176.7880  147.3210 C   0  0  0  0  0  2  0  0  0  0  0  0
  194.3590  172.9540  140.2710 C   0  0  0  0  0  1  0  0  0  0  0  0
  191.5890  175.9800  147.4880 C   0  0  0  0  0  2  0  0  0  0  0  0
  194.5740  177.4540  145.7360 N   0  0  0  0  0  1  0  0  0  0  0  0
  192.6840  173.0380  142.7090 C   0  0  0  0  0  2  0  0  0  0  0  0
  188.3620  176.0240  144.3720 C   0  0  0  0  0  3  0  0  0  0  0  0
  194.0200  173.7230  142.6610 C   0  0  0  0  0  0  0  0  0  0  0  0
  191.6190  173.9560  142.1340 C   0  0  0  0  0  2  0  0  0  0  0  0
  194.4810  174.4580  143.7710 C   0  0  0  0  0  0  0  0  0  0  0  0
  193.5500  176.4590  146.0020 C   0  0  1  0  0  3  0  0  0  0  0  0
  193.7040  174.5320  144.9720 N   0  0  0  0  0  2  0  0  0  0  0  0
  186.9340  176.5910  146.2600 C   0  0  0  0  0  1  0  0  0  0  0  0
  189.6860  173.2530  144.7210 O   0  0  0  0  0  0  0  0  0  0  0  0
  189.3480  171.9980  144.4950 O   0  0  0  0  0  1  0  0  0  0  0  0
  189.4070  173.5740  141.0580 C   0  0  0  0  0  2  0  0  0  0  0  0
  190.1870  173.1330  139.8240 C   0  0  2  0  0  3  0  0  0  0  0  0
  190.4660  173.9570  137.6090 O   0  0  0  0  0  0  0  0  0  0  0  0
  187.8140  174.9230  137.3140 C   0  0  0  0  0  1  0  0  0  0  0  0
  189.6780  173.7930  138.5790 C   0  0  0  0  0  0  0  0  0  0  0  0
  188.3300  174.2650  138.5040 N   0  0  0  0  0  2  0  0  0  0  0  0
  190.9800  170.9410  140.3900 O   0  0  0  0  0  1  0  0  0  0  0  0
  189.3300  171.0250  138.8050 O   0  0  0  0  0  0  0  0  0  0  0  0
  190.1980  171.6420  139.6940 C   0  0  0  0  0  0  0  0  0  0  0  0
  1 17  1  0  0  0  0
  2  3  1  0  0  0  0
  2 14  1  0  0  0  0
  4 26  1  6  0  0  0
  4  7  1  0  0  0  0
  5 18  1  0  0  0  0
  6 23  1  0  0  0  0
  6  3  1  0  0  0  0
  7  1  1  0  0  0  0
  7 24  1  1  0  0  0
  8  5  2  0  0  0  0
  8 10  1  0  0  0  0
 10 11  2  0  0  0  0
 11 20  1  0  0  0  0
 12 14  1  0  0  0  0
 13  5  1  0  0  0  0
 17  6  2  0  0  0  0
 18 16  1  0  0  0  0
 18 20  2  0  0  0  0
 19  4  1  0  0  0  0
 19 16  1  0  0  0  0
 20 22  1  0  0  0  0
 21 15  1  1  0  0  0
 21  9  1  0  0  0  0
 21 12  1  0  0  0  0
 22  9  1  0  0  0  0
 25 24  1  0  0  0  0
 27 26  1  1  0  0  0
 28 30  2  0  0  0  0
 29 31  1  0  0  0  0
 30 27  1  0  0  0  0
 31 30  1  0  0  0  0
 33 34  2  0  0  0  0
 34 27  1  0  0  0  0
 34 32  1  0  0  0  0
M  END
>  <MODEL>
9

>  <REMARK>
 VINA RESULT:      -6.3      4.062      7.072
  Name = 
  5 active torsions:
  status: ('A' for Active; 'I' for Inactive)
    1  A    between atoms: O_2  and  C_9
    2  A    between atoms: C_6  and  C_30
    3  A    between atoms: C_14  and  C_20
    4  A    between atoms: C_14  and  C_29
    5  A    between atoms: C_14  and  C_30
                            x       y       z     vdW  Elec       q    Type
                         _______ _______ _______ _____ _____    ______ ____

>  <TORSDO>
F 5

$$$$
