=
 OpenBabel11062418523D

 37 40  0  0  1  0  0  0  0  0999 V2000
  190.0020  176.5580  147.0100 C   0  0  1  0  0  3  0  0  0  0  0  0
  190.5730  175.2540  147.5440 C   0  0  0  0  0  2  0  0  0  0  0  0
  191.5130  176.4100  147.2450 C   0  0  1  0  0  3  0  0  0  0  0  0
  190.4550  176.6180  144.5830 O   0  0  0  0  0  0  0  0  0  0  0  0
  187.5990  177.3220  144.0160 C   0  0  2  0  0  3  0  0  0  0  0  0
  188.6350  177.0050  142.9250 C   0  0  2  0  0  3  0  0  0  0  0  0
  185.9930  178.4690  146.1940 C   0  0  0  0  0  2  0  0  0  0  0  0
  187.1440  177.5170  146.4140 C   0  0  0  0  0  0  0  0  0  0  0  0
  186.8070  178.5220  143.7620 N   0  0  0  0  0  2  0  0  0  0  0  0
  185.2230  180.0330  144.5540 O   0  0  0  0  0  0  0  0  0  0  0  0
  188.8940  175.0290  145.4490 C   0  0  0  0  0  1  0  0  0  0  0  0
  185.9760  179.0570  144.8020 C   0  0  0  0  0  0  0  0  0  0  0  0
  188.2490  177.4530  145.3860 C   0  0  1  0  0  3  0  0  0  0  0  0
  189.4250  176.4540  145.5700 C   0  0  1  0  0  0  0  0  0  0  0  0
  190.2770  178.6730  143.5180 O   0  0  0  0  0  1  0  0  0  0  0  0
  187.1710  176.8320  147.4240 O   0  0  0  0  0  0  0  0  0  0  0  0
  190.0660  177.2980  143.3900 C   0  0  1  0  0  3  0  0  0  0  0  0
  188.3400  177.6290  141.5630 C   0  0  0  0  0  2  0  0  0  0  0  0
  187.8450  175.5200  140.5780 O   0  0  0  0  0  1  0  0  0  0  0  0
  186.3290  177.1880  140.1540 O   0  0  0  0  0  0  0  0  0  0  0  0
  187.4970  176.7190  140.7390 C   0  0  0  0  0  0  0  0  0  0  0  0
  193.3870  174.9990  146.3770 C   0  0  0  0  0  2  0  0  0  0  0  0
  194.7790  175.6100  146.2020 C   0  0  2  0  0  3  0  0  0  0  0  0
  192.3580  176.0870  146.0230 C   0  0  2  0  0  3  0  0  0  0  0  0
  193.1150  177.2600  145.6260 N   0  0  0  0  0  2  0  0  0  0  0  0
  194.4920  176.9770  145.7260 C   0  0  0  0  0  0  0  0  0  0  0  0
  195.3780  177.8300  145.4590 O   0  0  0  0  0  0  0  0  0  0  0  0
  195.6270  174.8140  145.2070 C   0  0  0  0  0  2  0  0  0  0  0  0
  194.8050  174.0870  144.2460 N   0  0  0  0  0  2  0  0  0  0  0  0
  194.7470  174.8860  143.0290 C   0  0  2  0  0  3  0  0  0  0  0  0
  191.4360  173.5010  143.0670 C   0  0  0  0  0  0  0  0  0  0  0  0
  192.5700  173.9250  142.5860 C   0  0  0  0  0  0  0  0  0  0  0  0
  193.7090  174.3410  142.1090 C   0  0  0  0  0  3  0  0  0  0  0  0
  190.2440  173.8570  142.4520 O   0  0  0  0  0  1  0  0  0  0  0  0
  191.4200  172.6300  144.2700 C   0  0  0  0  0  1  0  0  0  0  0  0
  196.3800  176.6560  142.0120 C   0  0  0  0  0  1  0  0  0  0  0  0
  196.3630  174.8520  142.2070 S   0  0  0  0  0  0  0  0  0  0  0  0
  1  3  1  0  0  0  0
  1  2  1  1  0  0  0
  3  2  1  1  0  0  0
  4 14  1  0  0  0  0
  5  9  1  6  0  0  0
  5 13  1  0  0  0  0
  6 18  1  6  0  0  0
  6 17  1  0  0  0  0
  6  5  1  0  0  0  0
  7  8  1  0  0  0  0
  8 16  2  0  0  0  0
  9 12  1  0  0  0  0
 10 12  2  0  0  0  0
 12  7  1  0  0  0  0
 13 14  1  0  0  0  0
 13  8  1  1  0  0  0
 14 11  1  6  0  0  0
 14  1  1  0  0  0  0
 17 15  1  1  0  0  0
 17  4  1  0  0  0  0
 19 21  1  0  0  0  0
 20 21  2  0  0  0  0
 21 18  1  0  0  0  0
 23 28  1  6  0  0  0
 23 22  1  0  0  0  0
 24 22  1  1  0  0  0
 24  3  1  0  0  0  0
 25 26  1  0  0  0  0
 25 24  1  0  0  0  0
 26 23  1  0  0  0  0
 27 26  2  0  0  0  0
 29 28  1  0  0  0  0
 30 33  1  6  0  0  0
 30 29  1  0  0  0  0
 31 35  1  0  0  0  0
 32 31  2  0  0  0  0
 33 32  2  0  0  0  0
 34 31  1  0  0  0  0
 36 37  1  0  0  0  0
 37 30  1  0  0  0  0
M  END
>  <MODEL>
1

>  <REMARK>
 VINA RESULT:      -7.1      0.000      0.000
  Name = 
  9 active torsions:
  status: ('A' for Active; 'I' for Inactive)
    1  A    between atoms: C_4  and  C_34
    2  A    between atoms: C_7  and  C_13
    3  A    between atoms: C_8  and  C_30
    4  A    between atoms: N_9  and  C_13
    5  A    between atoms: N_9  and  C_30
    6  A    between atoms: C_10  and  C_29
    7  A    between atoms: C_15  and  C_16
    8  A    between atoms: C_15  and  C_27
    9  A    between atoms: S_17  and  C_30
                            x       y       z     vdW  Elec       q    Type
                         _______ _______ _______ _____ _____    ______ ____

>  <TORSDO>
F 9

$$$$
=
 OpenBabel11062418523D

 37 40  0  0  1  0  0  0  0  0999 V2000
  190.0490  176.6930  146.5070 C   0  0  1  0  0  3  0  0  0  0  0  0
  190.6680  175.7010  147.4790 C   0  0  0  0  0  2  0  0  0  0  0  0
  191.5580  176.7250  146.7940 C   0  0  1  0  0  3  0  0  0  0  0  0
  190.4600  176.2100  144.1200 O   0  0  0  0  0  0  0  0  0  0  0  0
  187.5200  175.9280  143.6190 C   0  0  2  0  0  3  0  0  0  0  0  0
  188.6010  175.6200  142.5690 C   0  0  2  0  0  3  0  0  0  0  0  0
  185.6610  177.1410  145.5440 C   0  0  0  0  0  2  0  0  0  0  0  0
  187.0350  176.6370  145.9120 C   0  0  0  0  0  0  0  0  0  0  0  0
  186.4200  176.7500  143.1250 N   0  0  0  0  0  2  0  0  0  0  0  0
  184.4740  177.9280  143.6210 O   0  0  0  0  0  0  0  0  0  0  0  0
  189.4170  174.5540  145.4910 C   0  0  0  0  0  1  0  0  0  0  0  0
  185.4740  177.3000  144.0530 C   0  0  0  0  0  0  0  0  0  0  0  0
  188.1100  176.5990  144.8510 C   0  0  1  0  0  3  0  0  0  0  0  0
  189.5220  176.0470  145.1950 C   0  0  1  0  0  0  0  0  0  0  0  0
  189.7030  177.7690  142.5740 O   0  0  0  0  0  1  0  0  0  0  0  0
  187.2590  176.2860  147.0590 O   0  0  0  0  0  0  0  0  0  0  0  0
  189.8910  176.4070  142.8260 C   0  0  1  0  0  3  0  0  0  0  0  0
  188.1370  175.7450  141.1200 C   0  0  0  0  0  2  0  0  0  0  0  0
  188.3980  174.4470  139.1410 O   0  0  0  0  0  0  0  0  0  0  0  0
  188.3910  173.2630  141.1060 O   0  0  0  0  0  1  0  0  0  0  0  0
  188.3130  174.4550  140.3980 C   0  0  0  0  0  0  0  0  0  0  0  0
  193.4100  175.0700  146.5010 C   0  0  0  0  0  2  0  0  0  0  0  0
  194.8370  175.5640  146.2500 C   0  0  2  0  0  3  0  0  0  0  0  0
  192.4550  176.0350  145.7780 C   0  0  2  0  0  3  0  0  0  0  0  0
  193.2870  177.0200  145.1100 N   0  0  0  0  0  2  0  0  0  0  0  0
  194.6410  176.7400  145.3810 C   0  0  0  0  0  0  0  0  0  0  0  0
  195.5800  177.4520  144.9380 O   0  0  0  0  0  0  0  0  0  0  0  0
  195.7020  174.4880  145.5880 C   0  0  0  0  0  2  0  0  0  0  0  0
  195.0330  173.8740  144.4480 N   0  0  0  0  0  2  0  0  0  0  0  0
  195.2960  172.4430  144.5060 C   0  0  2  0  0  3  0  0  0  0  0  0
  191.9810  171.8060  143.2870 C   0  0  0  0  0  0  0  0  0  0  0  0
  193.0160  171.7520  144.0760 C   0  0  0  0  0  0  0  0  0  0  0  0
  194.0510  171.7080  144.8670 C   0  0  0  0  0  3  0  0  0  0  0  0
  191.2820  170.6480  142.9780 O   0  0  0  0  0  1  0  0  0  0  0  0
  191.5430  173.1100  142.7250 C   0  0  0  0  0  1  0  0  0  0  0  0
  197.7630  171.5750  144.4870 C   0  0  0  0  0  1  0  0  0  0  0  0
  196.5750  172.1140  145.7480 S   0  0  0  0  0  0  0  0  0  0  0  0
  1  3  1  0  0  0  0
  1  2  1  1  0  0  0
  3  2  1  1  0  0  0
  4 14  1  0  0  0  0
  5  9  1  6  0  0  0
  5 13  1  0  0  0  0
  6 18  1  6  0  0  0
  6 17  1  0  0  0  0
  6  5  1  0  0  0  0
  7  8  1  0  0  0  0
  8 16  2  0  0  0  0
  9 12  1  0  0  0  0
 10 12  2  0  0  0  0
 12  7  1  0  0  0  0
 13 14  1  0  0  0  0
 13  8  1  1  0  0  0
 14 11  1  1  0  0  0
 14  1  1  0  0  0  0
 17 15  1  1  0  0  0
 17  4  1  0  0  0  0
 19 21  2  0  0  0  0
 21 20  1  0  0  0  0
 21 18  1  0  0  0  0
 23 28  1  6  0  0  0
 23 22  1  0  0  0  0
 24 22  1  1  0  0  0
 24  3  1  0  0  0  0
 25 26  1  0  0  0  0
 25 24  1  0  0  0  0
 26 23  1  0  0  0  0
 27 26  2  0  0  0  0
 29 30  1  0  0  0  0
 29 28  1  0  0  0  0
 30 33  1  1  0  0  0
 30 37  1  0  0  0  0
 31 32  2  0  0  0  0
 32 33  2  0  0  0  0
 34 31  1  0  0  0  0
 35 31  1  0  0  0  0
 36 37  1  0  0  0  0
M  END
>  <MODEL>
2

>  <REMARK>
 VINA RESULT:      -7.1      1.747      2.109
  Name = 
  9 active torsions:
  status: ('A' for Active; 'I' for Inactive)
    1  A    between atoms: C_4  and  C_34
    2  A    between atoms: C_7  and  C_13
    3  A    between atoms: C_8  and  C_30
    4  A    between atoms: N_9  and  C_13
    5  A    between atoms: N_9  and  C_30
    6  A    between atoms: C_10  and  C_29
    7  A    between atoms: C_15  and  C_16
    8  A    between atoms: C_15  and  C_27
    9  A    between atoms: S_17  and  C_30
                            x       y       z     vdW  Elec       q    Type
                         _______ _______ _______ _____ _____    ______ ____

>  <TORSDO>
F 9

$$$$
=
 OpenBabel11062418523D

 37 40  0  0  1  0  0  0  0  0999 V2000
  190.0130  176.7210  146.5890 C   0  0  1  0  0  3  0  0  0  0  0  0
  190.6390  175.7160  147.5430 C   0  0  0  0  0  2  0  0  0  0  0  0
  191.5260  176.7430  146.8590 C   0  0  1  0  0  3  0  0  0  0  0  0
  190.3960  176.2600  144.1930 O   0  0  0  0  0  0  0  0  0  0  0  0
  187.4490  176.0010  143.7200 C   0  0  2  0  0  3  0  0  0  0  0  0
  188.5170  175.6970  142.6560 C   0  0  2  0  0  3  0  0  0  0  0  0
  185.6180  177.2080  145.6770 C   0  0  0  0  0  2  0  0  0  0  0  0
  186.9930  176.6900  146.0260 C   0  0  0  0  0  0  0  0  0  0  0  0
  186.3490  176.8360  143.2470 N   0  0  0  0  0  2  0  0  0  0  0  0
  184.4160  178.0220  143.7750 O   0  0  0  0  0  0  0  0  0  0  0  0
  189.3570  174.5970  145.5580 C   0  0  0  0  0  1  0  0  0  0  0  0
  185.4160  177.3830  144.1900 C   0  0  0  0  0  0  0  0  0  0  0  0
  188.0560  176.6560  144.9530 C   0  0  1  0  0  3  0  0  0  0  0  0
  189.4680  176.0920  145.2760 C   0  0  1  0  0  0  0  0  0  0  0  0
  189.6330  177.8390  142.6710 O   0  0  0  0  0  1  0  0  0  0  0  0
  187.2260  176.3270  147.1670 O   0  0  0  0  0  0  0  0  0  0  0  0
  189.8150  176.4730  142.9070 C   0  0  1  0  0  3  0  0  0  0  0  0
  188.0380  175.8400  141.2130 C   0  0  0  0  0  2  0  0  0  0  0  0
  188.6970  173.5600  141.0380 O   0  0  0  0  0  1  0  0  0  0  0  0
  188.2070  174.6020  139.0540 O   0  0  0  0  0  0  0  0  0  0  0  0
  188.3350  174.6050  140.4360 C   0  0  0  0  0  0  0  0  0  0  0  0
  193.3310  175.0460  146.5220 C   0  0  0  0  0  2  0  0  0  0  0  0
  194.7730  175.5060  146.2920 C   0  0  2  0  0  3  0  0  0  0  0  0
  192.4070  176.0600  145.8250 C   0  0  2  0  0  3  0  0  0  0  0  0
  193.2710  177.0410  145.1920 N   0  0  0  0  0  2  0  0  0  0  0  0
  194.6150  176.7130  145.4590 C   0  0  0  0  0  0  0  0  0  0  0  0
  195.5760  177.4120  145.0430 O   0  0  0  0  0  0  0  0  0  0  0  0
  195.6100  174.4270  145.6000 C   0  0  0  0  0  2  0  0  0  0  0  0
  194.8000  173.2860  145.1910 N   0  0  0  0  0  2  0  0  0  0  0  0
  195.3690  172.7680  143.9530 C   0  0  2  0  0  3  0  0  0  0  0  0
  193.3300  174.9960  142.0140 C   0  0  0  0  0  0  0  0  0  0  0  0
  194.4070  174.4330  142.4820 C   0  0  0  0  0  0  0  0  0  0  0  0
  195.4830  173.8600  142.9460 C   0  0  0  0  0  3  0  0  0  0  0  0
  193.2600  176.3770  141.9050 O   0  0  0  0  0  1  0  0  0  0  0  0
  192.1800  174.1580  141.5870 C   0  0  0  0  0  1  0  0  0  0  0  0
  193.0390  171.7540  144.5680 C   0  0  0  0  0  1  0  0  0  0  0  0
  194.3030  171.4530  143.3020 S   0  0  0  0  0  0  0  0  0  0  0  0
  1  3  1  0  0  0  0
  1  2  1  1  0  0  0
  3  2  1  1  0  0  0
  4 14  1  0  0  0  0
  5  9  1  6  0  0  0
  5 13  1  0  0  0  0
  6 18  1  6  0  0  0
  6 17  1  0  0  0  0
  6  5  1  0  0  0  0
  7  8  1  0  0  0  0
  8 16  2  0  0  0  0
  9 12  1  0  0  0  0
 10 12  2  0  0  0  0
 12  7  1  0  0  0  0
 13 14  1  0  0  0  0
 13  8  1  1  0  0  0
 14 11  1  1  0  0  0
 14  1  1  0  0  0  0
 17 15  1  1  0  0  0
 17  4  1  0  0  0  0
 20 21  2  0  0  0  0
 21 19  1  0  0  0  0
 21 18  1  0  0  0  0
 23 28  1  6  0  0  0
 23 22  1  0  0  0  0
 24 22  1  1  0  0  0
 24  3  1  0  0  0  0
 25 26  1  0  0  0  0
 25 24  1  0  0  0  0
 26 23  1  0  0  0  0
 27 26  2  0  0  0  0
 29 28  1  0  0  0  0
 30 33  1  6  0  0  0
 30 29  1  0  0  0  0
 31 32  2  0  0  0  0
 32 33  2  0  0  0  0
 34 31  1  0  0  0  0
 35 31  1  0  0  0  0
 37 30  1  0  0  0  0
 37 36  1  0  0  0  0
M  END
>  <MODEL>
3

>  <REMARK>
 VINA RESULT:      -7.1      1.530      2.059
  Name = 
  9 active torsions:
  status: ('A' for Active; 'I' for Inactive)
    1  A    between atoms: C_4  and  C_34
    2  A    between atoms: C_7  and  C_13
    3  A    between atoms: C_8  and  C_30
    4  A    between atoms: N_9  and  C_13
    5  A    between atoms: N_9  and  C_30
    6  A    between atoms: C_10  and  C_29
    7  A    between atoms: C_15  and  C_16
    8  A    between atoms: C_15  and  C_27
    9  A    between atoms: S_17  and  C_30
                            x       y       z     vdW  Elec       q    Type
                         _______ _______ _______ _____ _____    ______ ____

>  <TORSDO>
F 9

$$$$
=
 OpenBabel11062418523D

 37 40  0  0  1  0  0  0  0  0999 V2000
  190.1060  176.8530  146.4600 C   0  0  1  0  0  3  0  0  0  0  0  0
  190.6830  175.8790  147.4750 C   0  0  0  0  0  2  0  0  0  0  0  0
  191.6200  176.8030  146.7150 C   0  0  1  0  0  3  0  0  0  0  0  0
  190.4000  176.2720  144.0770 O   0  0  0  0  0  0  0  0  0  0  0  0
  187.4350  176.0340  143.7170 C   0  0  2  0  0  3  0  0  0  0  0  0
  188.4620  175.6640  142.6330 C   0  0  2  0  0  3  0  0  0  0  0  0
  185.6880  177.3590  145.6740 C   0  0  0  0  0  2  0  0  0  0  0  0
  187.0680  176.8390  146.0000 C   0  0  0  0  0  0  0  0  0  0  0  0
  186.3300  176.8610  143.2410 N   0  0  0  0  0  2  0  0  0  0  0  0
  184.4320  178.0980  143.7750 O   0  0  0  0  0  0  0  0  0  0  0  0
  189.3870  174.6910  145.5560 C   0  0  0  0  0  1  0  0  0  0  0  0
  185.4380  177.4660  144.1870 C   0  0  0  0  0  0  0  0  0  0  0  0
  188.0930  176.7380  144.8950 C   0  0  1  0  0  3  0  0  0  0  0  0
  189.5080  176.1700  145.1980 C   0  0  1  0  0  0  0  0  0  0  0  0
  189.6050  177.7860  142.5070 O   0  0  0  0  0  1  0  0  0  0  0  0
  187.3350  176.5280  147.1500 O   0  0  0  0  0  0  0  0  0  0  0  0
  189.7770  176.4320  142.8030 C   0  0  1  0  0  3  0  0  0  0  0  0
  187.9360  175.7440  141.2020 C   0  0  0  0  0  2  0  0  0  0  0  0
  188.8010  173.5350  141.0090 O   0  0  0  0  0  1  0  0  0  0  0  0
  188.3110  174.5810  139.0270 O   0  0  0  0  0  0  0  0  0  0  0  0
  188.3750  174.5590  140.4140 C   0  0  0  0  0  0  0  0  0  0  0  0
  193.3520  175.0140  146.4820 C   0  0  0  0  0  2  0  0  0  0  0  0
  194.8020  175.3960  146.1770 C   0  0  2  0  0  3  0  0  0  0  0  0
  192.4460  175.9990  145.7230 C   0  0  2  0  0  3  0  0  0  0  0  0
  193.3270  176.8880  144.9850 N   0  0  0  0  0  2  0  0  0  0  0  0
  194.6650  176.5320  145.2460 C   0  0  0  0  0  0  0  0  0  0  0  0
  195.6390  177.1550  144.7470 O   0  0  0  0  0  0  0  0  0  0  0  0
  195.5800  174.2300  145.5610 C   0  0  0  0  0  2  0  0  0  0  0  0
  194.7050  173.3050  144.8510 N   0  0  0  0  0  2  0  0  0  0  0  0
  194.7940  172.0160  145.5240 C   0  0  2  0  0  3  0  0  0  0  0  0
  196.8570  169.2730  146.5720 C   0  0  0  0  0  0  0  0  0  0  0  0
  196.5410  170.4740  146.1800 C   0  0  0  0  0  0  0  0  0  0  0  0
  196.2190  171.6780  145.7960 C   0  0  0  0  0  3  0  0  0  0  0  0
  197.9400  168.6180  146.0020 O   0  0  0  0  0  1  0  0  0  0  0  0
  196.0640  168.6070  147.6370 C   0  0  0  0  0  1  0  0  0  0  0  0
  192.5420  171.7000  144.2330 C   0  0  0  0  0  1  0  0  0  0  0  0
  194.0580  170.7340  144.4730 S   0  0  0  0  0  0  0  0  0  0  0  0
  1  3  1  0  0  0  0
  1  2  1  1  0  0  0
  3  2  1  1  0  0  0
  4 14  1  0  0  0  0
  5  9  1  6  0  0  0
  5 13  1  0  0  0  0
  6 18  1  6  0  0  0
  6 17  1  0  0  0  0
  6  5  1  0  0  0  0
  7  8  1  0  0  0  0
  8 16  2  0  0  0  0
  9 12  1  0  0  0  0
 10 12  2  0  0  0  0
 12  7  1  0  0  0  0
 13 14  1  0  0  0  0
 13  8  1  1  0  0  0
 14 11  1  1  0  0  0
 14  1  1  0  0  0  0
 17 15  1  1  0  0  0
 17  4  1  0  0  0  0
 20 21  2  0  0  0  0
 21 19  1  0  0  0  0
 21 18  1  0  0  0  0
 23 28  1  6  0  0  0
 23 22  1  0  0  0  0
 24 22  1  1  0  0  0
 24  3  1  0  0  0  0
 25 26  1  0  0  0  0
 25 24  1  0  0  0  0
 26 23  1  0  0  0  0
 27 26  2  0  0  0  0
 29 30  1  0  0  0  0
 29 28  1  0  0  0  0
 30 33  1  6  0  0  0
 31 35  1  0  0  0  0
 32 31  2  0  0  0  0
 33 32  2  0  0  0  0
 34 31  1  0  0  0  0
 36 37  1  0  0  0  0
 37 30  1  0  0  0  0
M  END
>  <MODEL>
4

>  <REMARK>
 VINA RESULT:      -7.0      2.761      3.352
  Name = 
  9 active torsions:
  status: ('A' for Active; 'I' for Inactive)
    1  A    between atoms: C_4  and  C_34
    2  A    between atoms: C_7  and  C_13
    3  A    between atoms: C_8  and  C_30
    4  A    between atoms: N_9  and  C_13
    5  A    between atoms: N_9  and  C_30
    6  A    between atoms: C_10  and  C_29
    7  A    between atoms: C_15  and  C_16
    8  A    between atoms: C_15  and  C_27
    9  A    between atoms: S_17  and  C_30
                            x       y       z     vdW  Elec       q    Type
                         _______ _______ _______ _____ _____    ______ ____

>  <TORSDO>
F 9

$$$$
=
 OpenBabel11062418523D

 37 40  0  0  1  0  0  0  0  0999 V2000
  192.9440  176.1060  144.2220 C   0  0  1  0  0  3  0  0  0  0  0  0
  192.2520  177.4600  144.2550 C   0  0  0  0  0  2  0  0  0  0  0  0
  191.9120  176.4260  145.3150 C   0  0  1  0  0  3  0  0  0  0  0  0
  191.2930  175.6440  142.4440 O   0  0  0  0  0  0  0  0  0  0  0  0
  192.2340  172.8080  142.2360 C   0  0  2  0  0  3  0  0  0  0  0  0
  191.2080  173.4410  141.2820 C   0  0  2  0  0  3  0  0  0  0  0  0
  193.7100  171.6650  144.5070 C   0  0  0  0  0  2  0  0  0  0  0  0
  193.7200  173.1340  144.1560 C   0  0  0  0  0  0  0  0  0  0  0  0
  191.8490  171.4970  142.7500 N   0  0  0  0  0  2  0  0  0  0  0  0
  192.3270  169.7370  144.1970 O   0  0  0  0  0  0  0  0  0  0  0  0
  193.6260  175.4500  141.9620 C   0  0  0  0  0  1  0  0  0  0  0  0
  192.5990  170.9050  143.8200 C   0  0  0  0  0  0  0  0  0  0  0  0
  192.5390  173.7180  143.4170 C   0  0  1  0  0  3  0  0  0  0  0  0
  192.5420  175.2180  143.0110 C   0  0  1  0  0  0  0  0  0  0  0  0
  189.5930  174.1420  142.9350 O   0  0  0  0  0  1  0  0  0  0  0  0
  194.6700  173.8240  144.4890 O   0  0  0  0  0  0  0  0  0  0  0  0
  190.4560  174.6050  141.9380 C   0  0  1  0  0  3  0  0  0  0  0  0
  190.2550  172.4490  140.6200 C   0  0  0  0  0  2  0  0  0  0  0  0
  188.1900  173.0920  139.6260 O   0  0  0  0  0  1  0  0  0  0  0  0
  190.0770  173.7820  138.5190 O   0  0  0  0  0  0  0  0  0  0  0  0
  189.4470  173.1210  139.5640 C   0  0  0  0  0  0  0  0  0  0  0  0
  189.4840  177.0220  145.3400 C   0  0  0  0  0  2  0  0  0  0  0  0
  188.6090  176.5940  146.5210 C   0  0  2  0  0  3  0  0  0  0  0  0
  190.5040  175.8980  145.0910 C   0  0  2  0  0  3  0  0  0  0  0  0
  190.2130  174.8520  146.0560 N   0  0  0  0  0  2  0  0  0  0  0  0
  189.1290  175.2560  146.8610 C   0  0  0  0  0  0  0  0  0  0  0  0
  188.6800  174.5430  147.7960 O   0  0  0  0  0  0  0  0  0  0  0  0
  187.1250  176.5630  146.1460 C   0  0  0  0  0  2  0  0  0  0  0  0
  186.8140  177.4920  145.0660 N   0  0  0  0  0  2  0  0  0  0  0  0
  185.4200  177.2840  144.6980 C   0  0  2  0  0  3  0  0  0  0  0  0
  187.4150  177.0430  141.7240 C   0  0  0  0  0  0  0  0  0  0  0  0
  186.3490  177.1310  142.4680 C   0  0  0  0  0  0  0  0  0  0  0  0
  185.2850  177.2280  143.2150 C   0  0  0  0  0  3  0  0  0  0  0  0
  187.4530  176.1420  140.6690 O   0  0  0  0  0  1  0  0  0  0  0  0
  188.5860  177.9140  142.0000 C   0  0  0  0  0  1  0  0  0  0  0  0
  185.2190  179.8530  144.2570 C   0  0  0  0  0  1  0  0  0  0  0  0
  184.4150  178.6470  145.3470 S   0  0  0  0  0  0  0  0  0  0  0  0
  1  2  1  6  0  0  0
  1  3  1  0  0  0  0
  3  2  1  6  0  0  0
  4 14  1  0  0  0  0
  5  9  1  1  0  0  0
  5 13  1  0  0  0  0
  6 18  1  1  0  0  0
  6 17  1  0  0  0  0
  6  5  1  0  0  0  0
  8 16  2  0  0  0  0
  8  7  1  0  0  0  0
  9 12  1  0  0  0  0
 12 10  2  0  0  0  0
 12  7  1  0  0  0  0
 13  8  1  6  0  0  0
 14 11  1  6  0  0  0
 14 13  1  0  0  0  0
 14  1  1  0  0  0  0
 17  4  1  0  0  0  0
 17 15  1  1  0  0  0
 20 21  2  0  0  0  0
 21 19  1  0  0  0  0
 21 18  1  0  0  0  0
 22 23  1  0  0  0  0
 23 28  1  6  0  0  0
 23 26  1  0  0  0  0
 24  3  1  0  0  0  0
 24 22  1  1  0  0  0
 24 25  1  0  0  0  0
 25 26  1  0  0  0  0
 26 27  2  0  0  0  0
 29 28  1  0  0  0  0
 30 33  1  6  0  0  0
 30 29  1  0  0  0  0
 30 37  1  0  0  0  0
 31 35  1  0  0  0  0
 31 32  2  0  0  0  0
 32 33  2  0  0  0  0
 34 31  1  0  0  0  0
 36 37  1  0  0  0  0
M  END
>  <MODEL>
5

>  <REMARK>
 VINA RESULT:      -6.8      3.123      7.081
  Name = 
  9 active torsions:
  status: ('A' for Active; 'I' for Inactive)
    1  A    between atoms: C_4  and  C_34
    2  A    between atoms: C_7  and  C_13
    3  A    between atoms: C_8  and  C_30
    4  A    between atoms: N_9  and  C_13
    5  A    between atoms: N_9  and  C_30
    6  A    between atoms: C_10  and  C_29
    7  A    between atoms: C_15  and  C_16
    8  A    between atoms: C_15  and  C_27
    9  A    between atoms: S_17  and  C_30
                            x       y       z     vdW  Elec       q    Type
                         _______ _______ _______ _____ _____    ______ ____

>  <TORSDO>
F 9

$$$$
=
 OpenBabel11062418523D

 37 40  0  0  1  0  0  0  0  0999 V2000
  187.0410  175.5740  142.0330 C   0  0  1  0  0  3  0  0  0  0  0  0
  188.1650  175.7300  141.0210 C   0  0  0  0  0  2  0  0  0  0  0  0
  188.2530  174.6290  142.0650 C   0  0  1  0  0  3  0  0  0  0  0  0
  187.2780  176.3100  144.3790 O   0  0  0  0  0  0  0  0  0  0  0  0
  185.4280  178.6150  143.8950 C   0  0  2  0  0  3  0  0  0  0  0  0
  186.2050  178.4020  145.2040 C   0  0  2  0  0  3  0  0  0  0  0  0
  183.6150  178.4800  141.5860 C   0  0  0  0  0  2  0  0  0  0  0  0
  184.9620  177.8000  141.6330 C   0  0  0  0  0  0  0  0  0  0  0  0
  184.0140  178.9290  144.0790 N   0  0  0  0  0  2  0  0  0  0  0  0
  181.9360  179.2840  143.0900 O   0  0  0  0  0  0  0  0  0  0  0  0
  187.9990  177.7530  142.6160 C   0  0  0  0  0  1  0  0  0  0  0  0
  183.1320  178.9210  142.9480 C   0  0  0  0  0  0  0  0  0  0  0  0
  185.5380  177.4090  142.9730 C   0  0  1  0  0  3  0  0  0  0  0  0
  186.9410  176.7430  143.0520 C   0  0  1  0  0  0  0  0  0  0  0  0
  185.3920  176.1890  145.7270 O   0  0  0  0  0  1  0  0  0  0  0  0
  185.5520  177.5640  140.5910 O   0  0  0  0  0  0  0  0  0  0  0  0
  186.5430  176.9250  145.4360 C   0  0  1  0  0  3  0  0  0  0  0  0
  185.5670  179.0400  146.4360 C   0  0  0  0  0  2  0  0  0  0  0  0
  185.6520  177.7250  148.4190 O   0  0  0  0  0  1  0  0  0  0  0  0
  187.4940  179.0340  148.0210 O   0  0  0  0  0  0  0  0  0  0  0  0
  186.2340  178.5630  147.6800 C   0  0  0  0  0  0  0  0  0  0  0  0
  190.6760  175.1810  142.3440 C   0  0  0  0  0  2  0  0  0  0  0  0
  191.6490  174.1040  142.8300 C   0  0  2  0  0  3  0  0  0  0  0  0
  189.3410  174.9600  143.0750 C   0  0  2  0  0  3  0  0  0  0  0  0
  189.5390  173.8330  143.9690 N   0  0  0  0  0  2  0  0  0  0  0  0
  190.8580  173.3560  143.8250 C   0  0  0  0  0  0  0  0  0  0  0  0
  191.2930  172.3680  144.4720 O   0  0  0  0  0  0  0  0  0  0  0  0
  192.9160  174.7150  143.4340 C   0  0  0  0  0  2  0  0  0  0  0  0
  192.6200  175.5640  144.5820 N   0  0  0  0  0  2  0  0  0  0  0  0
  193.3340  175.0160  145.7270 C   0  0  2  0  0  3  0  0  0  0  0  0
  190.0680  176.0360  146.8100 C   0  0  0  0  0  0  0  0  0  0  0  0
  191.2420  175.4730  146.8550 C   0  0  0  0  0  0  0  0  0  0  0  0
  192.4210  174.9190  146.9010 C   0  0  0  0  0  3  0  0  0  0  0  0
  188.9490  175.3450  147.2550 O   0  0  0  0  0  1  0  0  0  0  0  0
  189.9280  177.4200  146.2890 C   0  0  0  0  0  1  0  0  0  0  0  0
  195.9290  174.9290  145.4190 C   0  0  0  0  0  1  0  0  0  0  0  0
  194.7360  176.0910  146.1370 S   0  0  0  0  0  0  0  0  0  0  0  0
  1  2  1  6  0  0  0
  1  3  1  0  0  0  0
  1 14  1  0  0  0  0
  3  2  1  6  0  0  0
  3 24  1  0  0  0  0
  4 17  1  0  0  0  0
  5  9  1  1  0  0  0
  5  6  1  0  0  0  0
  6 17  1  0  0  0  0
  6 18  1  1  0  0  0
  7  8  1  0  0  0  0
  7 12  1  0  0  0  0
 12 10  2  0  0  0  0
 12  9  1  0  0  0  0
 13  8  1  6  0  0  0
 13 14  1  0  0  0  0
 13  5  1  0  0  0  0
 14 11  1  6  0  0  0
 14  4  1  0  0  0  0
 16  8  2  0  0  0  0
 17 15  1  6  0  0  0
 18 21  1  0  0  0  0
 21 20  2  0  0  0  0
 21 19  1  0  0  0  0
 22 23  1  0  0  0  0
 23 28  1  1  0  0  0
 23 26  1  0  0  0  0
 24 22  1  6  0  0  0
 24 25  1  0  0  0  0
 26 25  1  0  0  0  0
 26 27  2  0  0  0  0
 28 29  1  0  0  0  0
 29 30  1  0  0  0  0
 30 37  1  0  0  0  0
 30 33  1  1  0  0  0
 31 32  2  0  0  0  0
 31 34  1  0  0  0  0
 32 33  2  0  0  0  0
 35 31  1  0  0  0  0
 36 37  1  0  0  0  0
M  END
>  <MODEL>
6

>  <REMARK>
 VINA RESULT:      -6.8      2.359      5.112
  Name = 
  9 active torsions:
  status: ('A' for Active; 'I' for Inactive)
    1  A    between atoms: C_4  and  C_34
    2  A    between atoms: C_7  and  C_13
    3  A    between atoms: C_8  and  C_30
    4  A    between atoms: N_9  and  C_13
    5  A    between atoms: N_9  and  C_30
    6  A    between atoms: C_10  and  C_29
    7  A    between atoms: C_15  and  C_16
    8  A    between atoms: C_15  and  C_27
    9  A    between atoms: S_17  and  C_30
                            x       y       z     vdW  Elec       q    Type
                         _______ _______ _______ _____ _____    ______ ____

>  <TORSDO>
F 9

$$$$
=
 OpenBabel11062418523D

 37 40  0  0  1  0  0  0  0  0999 V2000
  193.0280  176.5010  142.9030 C   0  0  1  0  0  3  0  0  0  0  0  0
  191.9270  177.5400  142.7620 C   0  0  0  0  0  2  0  0  0  0  0  0
  192.4190  177.1620  144.1490 C   0  0  1  0  0  3  0  0  0  0  0  0
  191.1800  174.9840  142.2840 O   0  0  0  0  0  0  0  0  0  0  0  0
  192.7830  172.6010  143.1360 C   0  0  2  0  0  3  0  0  0  0  0  0
  191.4180  172.5080  142.4330 C   0  0  2  0  0  3  0  0  0  0  0  0
  195.0330  173.0280  144.9780 C   0  0  0  0  0  2  0  0  0  0  0  0
  194.5510  174.0640  143.9920 C   0  0  0  0  0  0  0  0  0  0  0  0
  192.9140  171.7460  144.3110 N   0  0  0  0  0  2  0  0  0  0  0  0
  194.2020  171.1100  146.1440 O   0  0  0  0  0  0  0  0  0  0  0  0
  193.2800  174.7990  141.1580 C   0  0  0  0  0  1  0  0  0  0  0  0
  194.0390  171.9080  145.1860 C   0  0  0  0  0  0  0  0  0  0  0  0
  193.1090  174.0320  143.5410 C   0  0  1  0  0  3  0  0  0  0  0  0
  192.5980  175.0640  142.4970 C   0  0  1  0  0  0  0  0  0  0  0  0
  190.1370  173.8230  144.0020 O   0  0  0  0  0  1  0  0  0  0  0  0
  195.3250  174.9180  143.5910 O   0  0  0  0  0  0  0  0  0  0  0  0
  190.5630  173.7580  142.6730 C   0  0  1  0  0  3  0  0  0  0  0  0
  190.6410  171.2240  142.7150 C   0  0  0  0  0  2  0  0  0  0  0  0
  190.4220  170.7860  140.3860 O   0  0  0  0  0  0  0  0  0  0  0  0
  190.9720  168.9770  141.6850 O   0  0  0  0  0  1  0  0  0  0  0  0
  190.6690  170.3220  141.5300 C   0  0  0  0  0  0  0  0  0  0  0  0
  190.0810  177.2280  145.0350 C   0  0  0  0  0  2  0  0  0  0  0  0
  189.8420  177.4260  146.5340 C   0  0  2  0  0  3  0  0  0  0  0  0
  191.3470  176.3680  144.8800 C   0  0  2  0  0  3  0  0  0  0  0  0
  191.8010  176.0520  146.2220 N   0  0  0  0  0  2  0  0  0  0  0  0
  190.9340  176.6540  147.1560 C   0  0  0  0  0  0  0  0  0  0  0  0
  191.1080  176.5560  148.3990 O   0  0  0  0  0  0  0  0  0  0  0  0
  188.4590  176.9250  146.9590 C   0  0  0  0  0  2  0  0  0  0  0  0
  187.7150  176.3600  145.8410 N   0  0  0  0  0  2  0  0  0  0  0  0
  186.3830  176.9480  145.8600 C   0  0  2  0  0  3  0  0  0  0  0  0
  186.8600  178.0050  142.4640 C   0  0  0  0  0  0  0  0  0  0  0  0
  186.6020  178.0910  143.7380 C   0  0  0  0  0  0  0  0  0  0  0  0
  186.3520  178.1750  145.0150 C   0  0  0  0  0  3  0  0  0  0  0  0
  186.0550  178.6650  141.5460 O   0  0  0  0  0  1  0  0  0  0  0  0
  188.0230  177.2080  141.9950 C   0  0  0  0  0  1  0  0  0  0  0  0
  184.7740  178.6560  147.0150 C   0  0  0  0  0  1  0  0  0  0  0  0
  185.9380  177.3780  147.5650 S   0  0  0  0  0  0  0  0  0  0  0  0
  1  2  1  6  0  0  0
  1  3  1  0  0  0  0
  3  2  1  6  0  0  0
  3 24  1  0  0  0  0
  4 14  1  0  0  0  0
  4 17  1  0  0  0  0
  5 13  1  0  0  0  0
  5  9  1  1  0  0  0
  6 17  1  0  0  0  0
  6 18  1  1  0  0  0
  6  5  1  0  0  0  0
  7 12  1  0  0  0  0
  8  7  1  0  0  0  0
  9 12  1  0  0  0  0
 12 10  2  0  0  0  0
 13  8  1  6  0  0  0
 14 11  1  6  0  0  0
 14  1  1  0  0  0  0
 14 13  1  0  0  0  0
 16  8  2  0  0  0  0
 17 15  1  1  0  0  0
 19 21  2  0  0  0  0
 21 20  1  0  0  0  0
 21 18  1  0  0  0  0
 22 23  1  0  0  0  0
 23 28  1  1  0  0  0
 23 26  1  0  0  0  0
 24 22  1  1  0  0  0
 24 25  1  0  0  0  0
 25 26  1  0  0  0  0
 26 27  2  0  0  0  0
 29 30  1  0  0  0  0
 29 28  1  0  0  0  0
 30 33  1  6  0  0  0
 30 37  1  0  0  0  0
 31 32  2  0  0  0  0
 32 33  2  0  0  0  0
 34 31  1  0  0  0  0
 35 31  1  0  0  0  0
 36 37  1  0  0  0  0
M  END
>  <MODEL>
7

>  <REMARK>
 VINA RESULT:      -6.7      3.069      7.342
  Name = 
  9 active torsions:
  status: ('A' for Active; 'I' for Inactive)
    1  A    between atoms: C_4  and  C_34
    2  A    between atoms: C_7  and  C_13
    3  A    between atoms: C_8  and  C_30
    4  A    between atoms: N_9  and  C_13
    5  A    between atoms: N_9  and  C_30
    6  A    between atoms: C_10  and  C_29
    7  A    between atoms: C_15  and  C_16
    8  A    between atoms: C_15  and  C_27
    9  A    between atoms: S_17  and  C_30
                            x       y       z     vdW  Elec       q    Type
                         _______ _______ _______ _____ _____    ______ ____

>  <TORSDO>
F 9

$$$$
=
 OpenBabel11062418523D

 37 40  0  0  1  0  0  0  0  0999 V2000
  189.5020  173.6240  141.5580 C   0  0  1  0  0  3  0  0  0  0  0  0
  188.0800  173.4280  142.0600 C   0  0  0  0  0  2  0  0  0  0  0  0
  188.3700  174.5390  141.0640 C   0  0  1  0  0  3  0  0  0  0  0  0
  190.8420  175.5060  142.4310 O   0  0  0  0  0  0  0  0  0  0  0  0
  192.6880  173.6080  143.8320 C   0  0  2  0  0  3  0  0  0  0  0  0
  192.7520  175.1370  143.9890 C   0  0  2  0  0  3  0  0  0  0  0  0
  192.7690  170.8180  142.9140 C   0  0  0  0  0  2  0  0  0  0  0  0
  191.5490  171.7000  142.8030 C   0  0  0  0  0  0  0  0  0  0  0  0
  193.9810  172.9740  143.5900 N   0  0  0  0  0  2  0  0  0  0  0  0
  195.1470  171.0250  143.0810 O   0  0  0  0  0  0  0  0  0  0  0  0
  189.7250  174.0500  143.9610 C   0  0  0  0  0  1  0  0  0  0  0  0
  194.0330  171.5960  143.1970 C   0  0  0  0  0  0  0  0  0  0  0  0
  191.7330  173.1970  142.7200 C   0  0  1  0  0  3  0  0  0  0  0  0
  190.4920  174.1300  142.6440 C   0  0  1  0  0  0  0  0  0  0  0  0
  193.0220  175.7080  141.6580 O   0  0  0  0  0  1  0  0  0  0  0  0
  190.4410  171.1900  142.7640 O   0  0  0  0  0  0  0  0  0  0  0  0
  192.1830  175.8630  142.7640 C   0  0  1  0  0  3  0  0  0  0  0  0
  194.1210  175.6810  144.3880 C   0  0  0  0  0  2  0  0  0  0  0  0
  194.6660  177.5820  145.7140 O   0  0  0  0  0  0  0  0  0  0  0  0
  193.2080  176.0920  146.6730 O   0  0  0  0  0  1  0  0  0  0  0  0
  194.0190  176.5050  145.6250 C   0  0  0  0  0  0  0  0  0  0  0  0
  187.1560  175.8290  142.8290 C   0  0  0  0  0  2  0  0  0  0  0  0
  186.0560  176.8150  142.4280 C   0  0  2  0  0  3  0  0  0  0  0  0
  188.2480  175.8920  141.7480 C   0  0  2  0  0  3  0  0  0  0  0  0
  187.8220  176.8910  140.7850 N   0  0  0  0  0  2  0  0  0  0  0  0
  186.5750  177.4140  141.1840 C   0  0  0  0  0  0  0  0  0  0  0  0
  185.9640  178.2880  140.5150 O   0  0  0  0  0  0  0  0  0  0  0  0
  185.8050  177.8610  143.5170 C   0  0  0  0  0  2  0  0  0  0  0  0
  185.2060  177.2740  144.7100 N   0  0  0  0  0  2  0  0  0  0  0  0
  185.9250  177.7990  145.8630 C   0  0  2  0  0  3  0  0  0  0  0  0
  189.4240  177.1490  146.3310 C   0  0  0  0  0  0  0  0  0  0  0  0
  188.1360  176.9560  146.3740 C   0  0  0  0  0  0  0  0  0  0  0  0
  186.8470  176.7630  146.4070 C   0  0  0  0  0  3  0  0  0  0  0  0
  190.2050  176.8760  147.4450 O   0  0  0  0  0  1  0  0  0  0  0  0
  190.0570  177.6530  145.0850 C   0  0  0  0  0  1  0  0  0  0  0  0
  185.9280  179.4150  147.9190 C   0  0  0  0  0  1  0  0  0  0  0  0
  184.7380  178.2860  147.1450 S   0  0  0  0  0  0  0  0  0  0  0  0
  1  2  1  1  0  0  0
  1 14  1  0  0  0  0
  3  1  1  0  0  0  0
  3 24  1  0  0  0  0
  3  2  1  1  0  0  0
  4 14  1  0  0  0  0
  4 17  1  0  0  0  0
  5  9  1  6  0  0  0
  5  6  1  0  0  0  0
  6 18  1  6  0  0  0
  7 12  1  0  0  0  0
  8  7  1  0  0  0  0
 10 12  2  0  0  0  0
 12  9  1  0  0  0  0
 13  8  1  1  0  0  0
 13  5  1  0  0  0  0
 14 13  1  0  0  0  0
 14 11  1  1  0  0  0
 16  8  2  0  0  0  0
 17 15  1  6  0  0  0
 17  6  1  0  0  0  0
 18 21  1  0  0  0  0
 21 19  2  0  0  0  0
 21 20  1  0  0  0  0
 23 22  1  0  0  0  0
 23 28  1  1  0  0  0
 24 22  1  1  0  0  0
 25 26  1  0  0  0  0
 25 24  1  0  0  0  0
 26 23  1  0  0  0  0
 27 26  2  0  0  0  0
 28 29  1  0  0  0  0
 29 30  1  0  0  0  0
 30 33  1  1  0  0  0
 30 37  1  0  0  0  0
 31 32  2  0  0  0  0
 31 34  1  0  0  0  0
 32 33  2  0  0  0  0
 35 31  1  0  0  0  0
 37 36  1  0  0  0  0
M  END
>  <MODEL>
8

>  <REMARK>
 VINA RESULT:      -6.7      3.076      8.143
  Name = 
  9 active torsions:
  status: ('A' for Active; 'I' for Inactive)
    1  A    between atoms: C_4  and  C_34
    2  A    between atoms: C_7  and  C_13
    3  A    between atoms: C_8  and  C_30
    4  A    between atoms: N_9  and  C_13
    5  A    between atoms: N_9  and  C_30
    6  A    between atoms: C_10  and  C_29
    7  A    between atoms: C_15  and  C_16
    8  A    between atoms: C_15  and  C_27
    9  A    between atoms: S_17  and  C_30
                            x       y       z     vdW  Elec       q    Type
                         _______ _______ _______ _____ _____    ______ ____

>  <TORSDO>
F 9

$$$$
=
 OpenBabel11062418523D

 37 40  0  0  1  0  0  0  0  0999 V2000
  187.7280  175.1480  142.5050 C   0  0  1  0  0  3  0  0  0  0  0  0
  188.3690  175.0570  141.1290 C   0  0  0  0  0  2  0  0  0  0  0  0
  188.2070  173.7940  141.9580 C   0  0  1  0  0  3  0  0  0  0  0  0
  189.5420  175.0370  144.1770 O   0  0  0  0  0  0  0  0  0  0  0  0
  188.4690  177.4580  145.5770 C   0  0  2  0  0  3  0  0  0  0  0  0
  189.7980  176.7780  145.9420 C   0  0  2  0  0  3  0  0  0  0  0  0
  185.6620  178.1980  145.1150 C   0  0  0  0  0  2  0  0  0  0  0  0
  186.5150  177.4780  144.0990 C   0  0  0  0  0  0  0  0  0  0  0  0
  187.6130  177.7600  146.7210 N   0  0  0  0  0  2  0  0  0  0  0  0
  185.5520  178.5290  147.4830 O   0  0  0  0  0  0  0  0  0  0  0  0
  189.3650  176.9530  142.7600 C   0  0  0  0  0  1  0  0  0  0  0  0
  186.2580  178.1780  146.5040 C   0  0  0  0  0  0  0  0  0  0  0  0
  187.6690  176.6290  144.5820 C   0  0  1  0  0  3  0  0  0  0  0  0
  188.5860  175.9080  143.5550 C   0  0  1  0  0  0  0  0  0  0  0  0
  188.9410  174.5610  146.3690 O   0  0  0  0  0  1  0  0  0  0  0  0
  186.2490  177.5770  142.9130 O   0  0  0  0  0  0  0  0  0  0  0  0
  189.8090  175.2950  145.5560 C   0  0  1  0  0  3  0  0  0  0  0  0
  190.2500  176.9930  147.3840 C   0  0  0  0  0  2  0  0  0  0  0  0
  192.6150  176.7880  147.1990 O   0  0  0  0  0  0  0  0  0  0  0  0
  191.5660  175.1150  148.3660 O   0  0  0  0  0  1  0  0  0  0  0  0
  191.5420  176.2970  147.6400 C   0  0  0  0  0  0  0  0  0  0  0  0
  190.5930  173.4380  141.3020 C   0  0  0  0  0  2  0  0  0  0  0  0
  191.0880  172.0270  140.9740 C   0  0  2  0  0  3  0  0  0  0  0  0
  189.5660  173.3130  142.4400 C   0  0  2  0  0  3  0  0  0  0  0  0
  189.4940  171.9030  142.7810 N   0  0  0  0  0  2  0  0  0  0  0  0
  190.3690  171.1810  141.9440 C   0  0  0  0  0  0  0  0  0  0  0  0
  190.4900  169.9300  142.0130 O   0  0  0  0  0  0  0  0  0  0  0  0
  192.6080  171.9110  141.1150 C   0  0  0  0  0  2  0  0  0  0  0  0
  193.1680  173.0030  141.9030 N   0  0  0  0  0  2  0  0  0  0  0  0
  193.3000  172.5290  143.2740 C   0  0  2  0  0  3  0  0  0  0  0  0
  193.6100  176.0410  143.9430 C   0  0  0  0  0  0  0  0  0  0  0  0
  193.2120  174.8090  144.0830 C   0  0  0  0  0  0  0  0  0  0  0  0
  192.8240  173.5720  144.2250 C   0  0  0  0  0  3  0  0  0  0  0  0
  192.6950  177.0810  144.0370 O   0  0  0  0  0  1  0  0  0  0  0  0
  195.0440  176.3340  143.6920 C   0  0  0  0  0  1  0  0  0  0  0  0
  194.6540  171.5430  145.2820 C   0  0  0  0  0  1  0  0  0  0  0  0
  195.0400  172.1470  143.6160 S   0  0  0  0  0  0  0  0  0  0  0  0
  1  2  1  6  0  0  0
  1 14  1  0  0  0  0
  3  2  1  6  0  0  0
  3 24  1  0  0  0  0
  3  1  1  0  0  0  0
  4 17  1  0  0  0  0
  5  6  1  0  0  0  0
  5  9  1  1  0  0  0
  6 18  1  1  0  0  0
  7 12  1  0  0  0  0
  8  7  1  0  0  0  0
 12  9  1  0  0  0  0
 12 10  2  0  0  0  0
 13  8  1  6  0  0  0
 13  5  1  0  0  0  0
 14 11  1  6  0  0  0
 14  4  1  0  0  0  0
 14 13  1  0  0  0  0
 16  8  2  0  0  0  0
 17  6  1  0  0  0  0
 17 15  1  1  0  0  0
 18 21  1  0  0  0  0
 19 21  2  0  0  0  0
 21 20  1  0  0  0  0
 23 28  1  1  0  0  0
 23 22  1  0  0  0  0
 23 26  1  0  0  0  0
 24 22  1  6  0  0  0
 24 25  1  0  0  0  0
 26 27  2  0  0  0  0
 26 25  1  0  0  0  0
 28 29  1  0  0  0  0
 29 30  1  0  0  0  0
 30 37  1  0  0  0  0
 30 33  1  1  0  0  0
 31 34  1  0  0  0  0
 31 32  2  0  0  0  0
 32 33  2  0  0  0  0
 35 31  1  0  0  0  0
 37 36  1  0  0  0  0
M  END
>  <MODEL>
9

>  <REMARK>
 VINA RESULT:      -6.6      2.458      5.234
  Name = 
  9 active torsions:
  status: ('A' for Active; 'I' for Inactive)
    1  A    between atoms: C_4  and  C_34
    2  A    between atoms: C_7  and  C_13
    3  A    between atoms: C_8  and  C_30
    4  A    between atoms: N_9  and  C_13
    5  A    between atoms: N_9  and  C_30
    6  A    between atoms: C_10  and  C_29
    7  A    between atoms: C_15  and  C_16
    8  A    between atoms: C_15  and  C_27
    9  A    between atoms: S_17  and  C_30
                            x       y       z     vdW  Elec       q    Type
                         _______ _______ _______ _____ _____    ______ ____

>  <TORSDO>
F 9

$$$$
