=
 OpenBabel11062420583D

 31 35  0  0  1  0  0  0  0  0999 V2000
  185.7510  177.3860  141.9120 C   0  0  2  0  0  3  0  0  0  0  0  0
  183.6950  178.4320  142.6360 C   0  0  0  0  0  0  0  0  0  0  0  0
  187.8740  176.2570  141.4700 N   0  0  0  0  0  0  0  0  0  0  0  0
  186.8020  176.8750  146.1440 C   0  0  0  0  0  2  0  0  0  0  0  0
  184.8290  177.8690  142.9700 C   0  0  0  0  0  0  0  0  0  0  0  0
  182.5640  178.9910  142.3000 C   0  0  0  0  0  3  0  0  0  0  0  0
  184.9030  178.2670  146.7760 N   0  0  0  0  0  2  0  0  0  0  0  0
  185.4290  177.4880  140.5620 O   0  0  0  0  0  1  0  0  0  0  0  0
  185.6390  177.0540  147.1160 C   0  0  0  0  0  2  0  0  0  0  0  0
  186.3690  177.0730  144.7150 C   0  0  0  0  0  0  0  0  0  0  0  0
  188.5120  175.9770  143.6760 C   0  0  2  0  0  3  0  0  0  0  0  0
  188.9000  175.7110  142.2680 N   0  0  0  0  0  2  0  0  0  0  0  0
  187.2500  176.7050  143.6420 N   0  0  0  0  0  0  0  0  0  0  0  0
  185.1960  177.6770  144.4070 C   0  0  0  0  0  0  0  0  0  0  0  0
  184.2200  178.0350  145.5040 C   0  0  0  0  0  2  0  0  0  0  0  0
  186.9000  176.8350  142.2970 C   0  0  0  0  0  0  0  0  0  0  0  0
  181.6270  178.3300  141.3890 C   0  0  0  0  0  0  0  0  0  0  0  0
  180.2820  178.1990  141.7210 O   0  0  0  0  0  1  0  0  0  0  0  0
  182.0450  177.8770  140.2930 O   0  0  0  0  0  0  0  0  0  0  0  0
  189.5810  176.8260  144.3480 C   0  0  0  0  0  2  0  0  0  0  0  0
  194.7310  176.6650  144.6190 C   0  0  0  0  0  3  0  0  0  0  0  0
  194.0660  176.2080  143.5400 C   0  0  0  0  0  3  0  0  0  0  0  0
  191.9750  176.2870  144.8420 C   0  0  1  0  0  3  0  0  0  0  0  0
  194.0960  176.6700  145.9590 C   0  0  0  0  0  0  0  0  0  0  0  0
  190.4120  176.3380  146.6390 C   0  0  0  0  0  2  0  0  0  0  0  0
  192.7500  176.0220  146.1120 C   0  0  1  0  0  0  0  0  0  0  0  0
  191.8320  176.6040  147.1640 C   0  0  0  0  0  2  0  0  0  0  0  0
  192.6580  175.6560  143.6300 C   0  0  0  0  0  2  0  0  0  0  0  0
  192.9380  174.5280  146.3840 C   0  0  0  0  0  1  0  0  0  0  0  0
  194.7100  177.1420  146.9520 O   0  0  0  0  0  0  0  0  0  0  0  0
  190.5330  175.9620  145.1600 C   0  0  1  0  0  3  0  0  0  0  0  0
  1  8  1  1  0  0  0
  1 16  1  0  0  0  0
  1  5  1  0  0  0  0
  2  5  2  0  0  0  0
  3 12  1  0  0  0  0
  3 16  2  0  0  0  0
  4  9  1  0  0  0  0
  5 14  1  0  0  0  0
  6  2  2  0  0  0  0
  7  9  1  0  0  0  0
 10  4  1  0  0  0  0
 11 20  1  6  0  0  0
 12 11  1  0  0  0  0
 13 11  1  0  0  0  0
 13 10  1  0  0  0  0
 14 10  2  0  0  0  0
 14 15  1  0  0  0  0
 15  7  1  0  0  0  0
 16 13  1  0  0  0  0
 17 18  1  0  0  0  0
 17  6  1  0  0  0  0
 19 17  2  0  0  0  0
 21 24  1  0  0  0  0
 22 28  1  0  0  0  0
 22 21  2  0  0  0  0
 23 28  1  6  0  0  0
 23 31  1  0  0  0  0
 23 26  1  0  0  0  0
 24 26  1  0  0  0  0
 24 30  2  0  0  0  0
 25 27  1  0  0  0  0
 26 29  1  1  0  0  0
 26 27  1  0  0  0  0
 31 20  1  6  0  0  0
 31 25  1  0  0  0  0
M  END
>  <MODEL>
1

>  <REMARK>
 VINA RESULT:      -8.4      0.000      0.000
  Name = 
  3 active torsions:
  status: ('A' for Active; 'I' for Inactive)
    1  A    between atoms: C_8  and  C_13
    2  A    between atoms: C_17  and  C_23
    3  A    between atoms: C_23  and  C_29
                            x       y       z     vdW  Elec       q    Type
                         _______ _______ _______ _____ _____    ______ ____

>  <TORSDO>
F 3

$$$$
=
 OpenBabel11062420583D

 31 35  0  0  1  0  0  0  0  0999 V2000
  185.9250  178.0260  142.0470 C   0  0  2  0  0  3  0  0  0  0  0  0
  183.7180  178.6030  142.8490 C   0  0  0  0  0  0  0  0  0  0  0  0
  188.2110  177.3410  141.5150 N   0  0  0  0  0  0  0  0  0  0  0  0
  187.0360  177.1420  146.2020 C   0  0  0  0  0  2  0  0  0  0  0  0
  184.9310  178.2010  143.1350 C   0  0  0  0  0  0  0  0  0  0  0  0
  182.5100  179.0030  142.5600 C   0  0  0  0  0  3  0  0  0  0  0  0
  184.9250  178.0960  146.9620 N   0  0  0  0  0  2  0  0  0  0  0  0
  185.5940  178.2500  140.7140 O   0  0  0  0  0  1  0  0  0  0  0  0
  185.8570  176.9910  147.1590 C   0  0  0  0  0  2  0  0  0  0  0  0
  186.5800  177.4530  144.8000 C   0  0  0  0  0  0  0  0  0  0  0  0
  188.8810  176.8830  143.6820 C   0  0  2  0  0  3  0  0  0  0  0  0
  189.3130  176.8760  142.2620 N   0  0  0  0  0  2  0  0  0  0  0  0
  187.5140  177.3850  143.7110 N   0  0  0  0  0  0  0  0  0  0  0  0
  185.3210  177.8840  144.5440 C   0  0  0  0  0  0  0  0  0  0  0  0
  184.2960  177.9230  145.6530 C   0  0  0  0  0  2  0  0  0  0  0  0
  187.1510  177.6310  142.3860 C   0  0  0  0  0  0  0  0  0  0  0  0
  181.7020  178.3200  141.5470 C   0  0  0  0  0  0  0  0  0  0  0  0
  180.3410  178.1070  141.7450 O   0  0  0  0  0  1  0  0  0  0  0  0
  182.2470  177.9220  140.4860 O   0  0  0  0  0  0  0  0  0  0  0  0
  189.7870  177.8030  144.4850 C   0  0  0  0  0  2  0  0  0  0  0  0
  190.8180  172.7530  144.7210 C   0  0  0  0  0  3  0  0  0  0  0  0
  189.7940  173.2970  145.4070 C   0  0  0  0  0  3  0  0  0  0  0  0
  190.7290  175.5330  144.9560 C   0  0  1  0  0  3  0  0  0  0  0  0
  192.0140  173.5560  144.3740 C   0  0  0  0  0  0  0  0  0  0  0  0
  192.2230  177.3110  144.4270 C   0  0  0  0  0  2  0  0  0  0  0  0
  192.1230  174.9480  144.9270 C   0  0  1  0  0  0  0  0  0  0  0  0
  192.8670  175.9590  144.0810 C   0  0  0  0  0  2  0  0  0  0  0  0
  189.8110  174.7360  145.8810 C   0  0  0  0  0  2  0  0  0  0  0  0
  192.7650  174.8900  146.3160 C   0  0  0  0  0  1  0  0  0  0  0  0
  192.9440  173.0500  143.6930 O   0  0  0  0  0  0  0  0  0  0  0  0
  190.9070  177.0200  145.1530 C   0  0  1  0  0  3  0  0  0  0  0  0
  1  8  1  6  0  0  0
  1 16  1  0  0  0  0
  1  5  1  0  0  0  0
  2  5  2  0  0  0  0
  3 12  1  0  0  0  0
  3 16  2  0  0  0  0
  4  9  1  0  0  0  0
  5 14  1  0  0  0  0
  6  2  2  0  0  0  0
  7  9  1  0  0  0  0
 10  4  1  0  0  0  0
 11 13  1  0  0  0  0
 11 20  1  1  0  0  0
 12 11  1  0  0  0  0
 13 10  1  0  0  0  0
 14 10  2  0  0  0  0
 14 15  1  0  0  0  0
 15  7  1  0  0  0  0
 16 13  1  0  0  0  0
 17 18  1  0  0  0  0
 17  6  1  0  0  0  0
 19 17  2  0  0  0  0
 21 22  2  0  0  0  0
 22 28  1  0  0  0  0
 23 31  1  0  0  0  0
 23 28  1  1  0  0  0
 24 21  1  0  0  0  0
 24 26  1  0  0  0  0
 25 31  1  0  0  0  0
 26 23  1  0  0  0  0
 26 29  1  1  0  0  0
 27 25  1  0  0  0  0
 27 26  1  0  0  0  0
 30 24  2  0  0  0  0
 31 20  1  6  0  0  0
M  END
>  <MODEL>
2

>  <REMARK>
 VINA RESULT:      -8.4      1.500      2.248
  Name = 
  3 active torsions:
  status: ('A' for Active; 'I' for Inactive)
    1  A    between atoms: C_8  and  C_13
    2  A    between atoms: C_17  and  C_23
    3  A    between atoms: C_23  and  C_29
                            x       y       z     vdW  Elec       q    Type
                         _______ _______ _______ _____ _____    ______ ____

>  <TORSDO>
F 3

$$$$
=
 OpenBabel11062420583D

 31 35  0  0  1  0  0  0  0  0999 V2000
  193.7360  175.6620  145.7810 C   0  0  0  0  0  0  0  0  0  0  0  0
  195.3650  174.6240  144.3260 C   0  0  0  0  0  0  0  0  0  0  0  0
  191.8830  176.6260  147.0510 N   0  0  0  0  0  0  0  0  0  0  0  0
  190.7550  175.0750  142.6120 C   0  0  0  0  0  2  0  0  0  0  0  0
  194.1310  175.0250  144.5000 C   0  0  0  0  0  0  0  0  0  0  0  0
  196.5960  174.2250  144.1550 C   0  0  0  0  0  3  0  0  0  0  0  0
  192.5270  174.3940  141.0820 N   0  0  0  0  0  2  0  0  0  0  0  0
  194.6430  175.8200  146.8250 O   0  0  0  0  0  1  0  0  0  0  0  0
  191.1690  174.0910  141.5220 C   0  0  0  0  0  2  0  0  0  0  0  0
  191.8290  175.2320  143.6580 C   0  0  0  0  0  0  0  0  0  0  0  0
  190.2620  176.3790  145.4190 C   0  0  2  0  0  3  0  0  0  0  0  0
  190.5120  176.8440  146.8060 N   0  0  0  0  0  0  0  0  0  0  0  0
  191.5360  175.9140  144.8870 N   0  0  0  0  0  0  0  0  0  0  0  0
  193.1000  174.8210  143.4340 C   0  0  0  0  0  0  0  0  0  0  0  0
  193.4370  174.0570  142.1750 C   0  0  0  0  0  2  0  0  0  0  0  0
  192.4750  176.0680  145.9080 C   0  0  0  0  0  0  0  0  0  0  0  0
  197.2510  173.3420  145.1220 C   0  0  0  0  0  0  0  0  0  0  0  0
  197.9410  172.2090  144.7000 O   0  0  0  0  0  0  0  0  0  0  0  0
  197.1900  173.6120  146.3480 O   0  0  0  0  0  1  0  0  0  0  0  0
  189.7420  177.5360  144.5790 C   0  0  0  0  0  2  0  0  0  0  0  0
  185.0730  179.0390  146.1810 C   0  0  0  0  0  3  0  0  0  0  0  0
  185.8000  178.1370  146.8700 C   0  0  0  0  0  3  0  0  0  0  0  0
  187.2900  177.9050  144.9200 C   0  0  1  0  0  3  0  0  0  0  0  0
  185.2440  179.1950  144.7170 C   0  0  0  0  0  0  0  0  0  0  0  0
  188.1620  177.9380  142.7040 C   0  0  0  0  0  2  0  0  0  0  0  0
  186.1390  178.2290  143.9960 C   0  0  1  0  0  0  0  0  0  0  0  0
  186.8600  178.7530  142.7730 C   0  0  0  0  0  2  0  0  0  0  0  0
  186.8030  177.2230  146.1980 C   0  0  0  0  0  2  0  0  0  0  0  0
  185.3310  176.9890  143.6060 C   0  0  0  0  0  1  0  0  0  0  0  0
  184.5930  180.0740  144.0910 O   0  0  0  0  0  0  0  0  0  0  0  0
  188.3430  177.2470  144.0580 C   0  0  1  0  0  3  0  0  0  0  0  0
  1 16  2  0  0  0  0
  1  8  1  0  0  0  0
  2  5  2  0  0  0  0
  4 10  1  0  0  0  0
  5  1  1  0  0  0  0
  6  2  2  0  0  0  0
  6 17  1  0  0  0  0
  7  9  1  0  0  0  0
  7 15  1  0  0  0  0
  9  4  1  0  0  0  0
 10 13  1  0  0  0  0
 11 20  1  6  0  0  0
 11 12  1  0  0  0  0
 12  3  2  0  0  0  0
 13 11  1  0  0  0  0
 13 16  1  0  0  0  0
 14 10  2  0  0  0  0
 14  5  1  0  0  0  0
 15 14  1  0  0  0  0
 16  3  1  0  0  0  0
 17 19  1  0  0  0  0
 18 17  2  0  0  0  0
 21 22  2  0  0  0  0
 23 28  1  1  0  0  0
 24 21  1  0  0  0  0
 25 27  1  0  0  0  0
 25 31  1  0  0  0  0
 26 29  1  6  0  0  0
 26 24  1  0  0  0  0
 26 23  1  0  0  0  0
 27 26  1  0  0  0  0
 28 22  1  0  0  0  0
 30 24  2  0  0  0  0
 31 20  1  1  0  0  0
 31 23  1  0  0  0  0
M  END
>  <MODEL>
3

>  <REMARK>
 VINA RESULT:      -8.3      2.783      9.566
  Name = 
  3 active torsions:
  status: ('A' for Active; 'I' for Inactive)
    1  A    between atoms: C_8  and  C_13
    2  A    between atoms: C_17  and  C_23
    3  A    between atoms: C_23  and  C_29
                            x       y       z     vdW  Elec       q    Type
                         _______ _______ _______ _____ _____    ______ ____

>  <TORSDO>
F 3

$$$$
=
 OpenBabel11062420583D

 31 35  0  0  1  0  0  0  0  0999 V2000
  192.2930  174.6670  143.4180 C   0  0  2  0  0  3  0  0  0  0  0  0
  193.7690  174.7300  145.3310 C   0  0  0  0  0  0  0  0  0  0  0  0
  190.6270  174.7960  141.6340 N   0  0  0  0  0  0  0  0  0  0  0  0
  189.3720  176.9310  145.7870 C   0  0  0  0  0  2  0  0  0  0  0  0
  192.6100  175.0520  144.8150 C   0  0  0  0  0  0  0  0  0  0  0  0
  194.9260  174.4080  145.8430 C   0  0  0  0  0  3  0  0  0  0  0  0
  190.7530  176.6210  147.7720 N   0  0  0  0  0  2  0  0  0  0  0  0
  193.2140  173.9910  142.6210 O   0  0  0  0  0  1  0  0  0  0  0  0
  189.9410  177.5880  147.0420 C   0  0  0  0  0  2  0  0  0  0  0  0
  190.4280  176.1660  145.0320 C   0  0  0  0  0  0  0  0  0  0  0  0
  189.0240  175.9620  142.8280 C   0  0  2  0  0  3  0  0  0  0  0  0
  189.3440  175.3670  141.5050 N   0  0  0  0  0  2  0  0  0  0  0  0
  190.1550  175.6900  143.7050 N   0  0  0  0  0  0  0  0  0  0  0  0
  191.6090  175.8340  145.6060 C   0  0  0  0  0  0  0  0  0  0  0  0
  191.9540  176.3560  146.9810 C   0  0  0  0  0  2  0  0  0  0  0  0
  191.0970  175.0020  142.9390 C   0  0  0  0  0  0  0  0  0  0  0  0
  196.1800  174.7460  145.1670 C   0  0  0  0  0  0  0  0  0  0  0  0
  196.2080  175.6950  144.1490 O   0  0  0  0  0  0  0  0  0  0  0  0
  197.2440  174.1710  145.5100 O   0  0  0  0  0  1  0  0  0  0  0  0
  187.7670  175.3140  143.3870 C   0  0  0  0  0  2  0  0  0  0  0  0
  185.4110  179.1450  145.9170 C   0  0  0  0  0  3  0  0  0  0  0  0
  185.3440  177.8700  146.3460 C   0  0  0  0  0  3  0  0  0  0  0  0
  186.2320  177.1300  144.1690 C   0  0  1  0  0  3  0  0  0  0  0  0
  185.6090  179.4560  144.4810 C   0  0  0  0  0  0  0  0  0  0  0  0
  186.8410  177.0490  141.8670 C   0  0  0  0  0  2  0  0  0  0  0  0
  185.5890  178.3220  143.4970 C   0  0  1  0  0  0  0  0  0  0  0  0
  186.4450  178.4810  142.2600 C   0  0  0  0  0  2  0  0  0  0  0  0
  185.4400  176.6910  145.3990 C   0  0  0  0  0  2  0  0  0  0  0  0
  184.1440  178.0490  143.0730 C   0  0  0  0  0  1  0  0  0  0  0  0
  185.7170  180.6510  144.0990 O   0  0  0  0  0  0  0  0  0  0  0  0
  186.5340  176.1440  143.0640 C   0  0  1  0  0  3  0  0  0  0  0  0
  1  8  1  6  0  0  0
  1  5  1  0  0  0  0
  2  6  2  0  0  0  0
  3 16  2  0  0  0  0
  4  9  1  0  0  0  0
  5  2  2  0  0  0  0
  5 14  1  0  0  0  0
  9  7  1  0  0  0  0
 10 14  2  0  0  0  0
 10  4  1  0  0  0  0
 11 20  1  1  0  0  0
 11 13  1  0  0  0  0
 12  3  1  0  0  0  0
 12 11  1  0  0  0  0
 13 10  1  0  0  0  0
 14 15  1  0  0  0  0
 15  7  1  0  0  0  0
 16  1  1  0  0  0  0
 16 13  1  0  0  0  0
 17 19  1  0  0  0  0
 17  6  1  0  0  0  0
 18 17  2  0  0  0  0
 21 22  2  0  0  0  0
 23 28  1  1  0  0  0
 24 21  1  0  0  0  0
 25 27  1  0  0  0  0
 25 31  1  0  0  0  0
 26 29  1  6  0  0  0
 26 23  1  0  0  0  0
 26 24  1  0  0  0  0
 27 26  1  0  0  0  0
 28 22  1  0  0  0  0
 30 24  2  0  0  0  0
 31 20  1  1  0  0  0
 31 23  1  0  0  0  0
M  END
>  <MODEL>
4

>  <REMARK>
 VINA RESULT:      -8.2      2.608      8.538
  Name = 
  3 active torsions:
  status: ('A' for Active; 'I' for Inactive)
    1  A    between atoms: C_8  and  C_13
    2  A    between atoms: C_17  and  C_23
    3  A    between atoms: C_23  and  C_29
                            x       y       z     vdW  Elec       q    Type
                         _______ _______ _______ _____ _____    ______ ____

>  <TORSDO>
F 3

$$$$
=
 OpenBabel11062420583D

 31 35  0  0  1  0  0  0  0  0999 V2000
  188.0840  177.1840  145.5470 C   0  0  0  0  0  0  0  0  0  0  0  0
  186.7520  176.7860  143.5690 C   0  0  0  0  0  0  0  0  0  0  0  0
  189.6650  177.4920  147.3850 N   0  0  0  0  0  0  0  0  0  0  0  0
  191.4260  175.1960  143.5110 C   0  0  0  0  0  2  0  0  0  0  0  0
  187.9040  176.6480  144.1750 C   0  0  0  0  0  0  0  0  0  0  0  0
  185.6020  176.9260  142.9670 C   0  0  0  0  0  3  0  0  0  0  0  0
  189.9180  174.5050  141.7250 N   0  0  0  0  0  2  0  0  0  0  0  0
  187.0610  177.8630  146.2040 O   0  0  0  0  0  1  0  0  0  0  0  0
  191.2490  175.0330  142.0040 C   0  0  0  0  0  2  0  0  0  0  0  0
  190.2390  175.8760  144.1410 C   0  0  0  0  0  0  0  0  0  0  0  0
  191.4650  176.4310  146.3910 C   0  0  2  0  0  3  0  0  0  0  0  0
  191.0190  177.1620  147.6040 N   0  0  0  0  0  0  0  0  0  0  0  0
  190.3180  176.3440  145.4970 N   0  0  0  0  0  0  0  0  0  0  0  0
  189.0560  175.9840  143.4900 C   0  0  0  0  0  0  0  0  0  0  0  0
  188.9460  175.5480  142.0470 C   0  0  0  0  0  2  0  0  0  0  0  0
  189.2670  177.0080  146.1310 C   0  0  0  0  0  0  0  0  0  0  0  0
  184.9600  178.2360  142.8430 C   0  0  0  0  0  0  0  0  0  0  0  0
  185.5640  179.3780  143.3610 O   0  0  0  0  0  1  0  0  0  0  0  0
  183.8500  178.3290  142.2610 O   0  0  0  0  0  0  0  0  0  0  0  0
  191.9270  175.0340  146.7790 C   0  0  0  0  0  2  0  0  0  0  0  0
  194.9650  172.7680  143.2770 C   0  0  0  0  0  3  0  0  0  0  0  0
  194.2310  172.0470  144.1480 C   0  0  0  0  0  3  0  0  0  0  0  0
  193.8340  174.0990  145.4540 C   0  0  1  0  0  3  0  0  0  0  0  0
  195.4210  174.1370  143.6170 C   0  0  0  0  0  0  0  0  0  0  0  0
  194.0340  176.2880  146.3740 C   0  0  0  0  0  2  0  0  0  0  0  0
  195.1690  174.6480  145.0060 C   0  0  1  0  0  0  0  0  0  0  0  0
  194.9580  176.1390  145.1540 C   0  0  0  0  0  2  0  0  0  0  0  0
  193.8520  172.5730  145.5170 C   0  0  0  0  0  2  0  0  0  0  0  0
  196.3190  174.2140  145.9190 C   0  0  0  0  0  1  0  0  0  0  0  0
  196.0670  174.8190  142.7780 O   0  0  0  0  0  0  0  0  0  0  0  0
  193.4380  174.9080  146.6680 C   0  0  1  0  0  3  0  0  0  0  0  0
  1 16  2  0  0  0  0
  1  8  1  0  0  0  0
  2  5  2  0  0  0  0
  3 12  2  0  0  0  0
  4 10  1  0  0  0  0
  5  1  1  0  0  0  0
  6  2  2  0  0  0  0
  7  9  1  0  0  0  0
  7 15  1  0  0  0  0
  9  4  1  0  0  0  0
 10 13  1  0  0  0  0
 11 20  1  1  0  0  0
 11 12  1  0  0  0  0
 13 16  1  0  0  0  0
 13 11  1  0  0  0  0
 14 10  2  0  0  0  0
 14  5  1  0  0  0  0
 15 14  1  0  0  0  0
 16  3  1  0  0  0  0
 17  6  1  0  0  0  0
 17 18  1  0  0  0  0
 19 17  2  0  0  0  0
 21 24  1  0  0  0  0
 21 22  2  0  0  0  0
 22 28  1  0  0  0  0
 23 28  1  1  0  0  0
 23 31  1  0  0  0  0
 24 26  1  0  0  0  0
 25 31  1  0  0  0  0
 26 27  1  0  0  0  0
 26 23  1  0  0  0  0
 26 29  1  1  0  0  0
 27 25  1  0  0  0  0
 30 24  2  0  0  0  0
 31 20  1  6  0  0  0
M  END
>  <MODEL>
5

>  <REMARK>
 VINA RESULT:      -8.2      2.662      4.661
  Name = 
  3 active torsions:
  status: ('A' for Active; 'I' for Inactive)
    1  A    between atoms: C_8  and  C_13
    2  A    between atoms: C_17  and  C_23
    3  A    between atoms: C_23  and  C_29
                            x       y       z     vdW  Elec       q    Type
                         _______ _______ _______ _____ _____    ______ ____

>  <TORSDO>
F 3

$$$$
=
 OpenBabel11062420583D

 31 35  0  0  1  0  0  0  0  0999 V2000
  191.8500  172.2480  144.1810 C   0  0  2  0  0  3  0  0  0  0  0  0
  193.9430  171.9760  145.3590 C   0  0  0  0  0  0  0  0  0  0  0  0
  189.7890  172.8190  142.9970 N   0  0  0  0  0  0  0  0  0  0  0  0
  192.2350  176.5760  144.8060 C   0  0  0  0  0  2  0  0  0  0  0  0
  193.0200  172.7910  144.9150 C   0  0  0  0  0  0  0  0  0  0  0  0
  194.8640  171.1610  145.8000 C   0  0  0  0  0  3  0  0  0  0  0  0
  194.1250  176.1850  146.2960 N   0  0  0  0  0  2  0  0  0  0  0  0
  191.7190  170.8870  143.9230 O   0  0  0  0  0  1  0  0  0  0  0  0
  193.6290  177.0390  145.2210 C   0  0  0  0  0  2  0  0  0  0  0  0
  192.1770  175.0820  144.6190 C   0  0  0  0  0  0  0  0  0  0  0  0
  189.9060  175.1080  143.3110 C   0  0  2  0  0  3  0  0  0  0  0  0
  189.1120  174.0170  142.6900 N   0  0  0  0  0  2  0  0  0  0  0  0
  191.0320  174.4840  143.9920 N   0  0  0  0  0  0  0  0  0  0  0  0
  193.1430  174.2690  145.1090 C   0  0  0  0  0  0  0  0  0  0  0  0
  194.3860  174.8620  145.7320 C   0  0  0  0  0  2  0  0  0  0  0  0
  190.9270  173.1120  143.7620 C   0  0  0  0  0  0  0  0  0  0  0  0
  195.5110  170.1920  144.9140 C   0  0  0  0  0  0  0  0  0  0  0  0
  196.8730  169.9270  145.0200 O   0  0  0  0  0  1  0  0  0  0  0  0
  194.8270  169.5910  144.0470 O   0  0  0  0  0  0  0  0  0  0  0  0
  189.0430  175.8560  144.3170 C   0  0  0  0  0  2  0  0  0  0  0  0
  185.2780  178.9610  145.9930 C   0  0  0  0  0  3  0  0  0  0  0  0
  185.4580  177.7280  146.5060 C   0  0  0  0  0  3  0  0  0  0  0  0
  186.9540  177.2010  144.6200 C   0  0  1  0  0  3  0  0  0  0  0  0
  185.6900  179.2740  144.6040 C   0  0  0  0  0  0  0  0  0  0  0  0
  188.0430  177.2260  142.5010 C   0  0  0  0  0  2  0  0  0  0  0  0
  186.1810  178.1520  143.7350 C   0  0  1  0  0  0  0  0  0  0  0  0
  187.2100  178.5060  142.6840 C   0  0  0  0  0  2  0  0  0  0  0  0
  186.0610  176.5950  145.7010 C   0  0  0  0  0  2  0  0  0  0  0  0
  184.9840  177.4810  143.0570 C   0  0  0  0  0  1  0  0  0  0  0  0
  185.5600  180.4420  144.1500 O   0  0  0  0  0  0  0  0  0  0  0  0
  187.7350  176.3060  143.6860 C   0  0  1  0  0  3  0  0  0  0  0  0
  1  8  1  6  0  0  0
  1  5  1  0  0  0  0
  2  6  2  0  0  0  0
  3 16  2  0  0  0  0
  4  9  1  0  0  0  0
  5 14  1  0  0  0  0
  5  2  2  0  0  0  0
  9  7  1  0  0  0  0
 10  4  1  0  0  0  0
 10 14  2  0  0  0  0
 11 13  1  0  0  0  0
 11 20  1  1  0  0  0
 12  3  1  0  0  0  0
 12 11  1  0  0  0  0
 13 10  1  0  0  0  0
 14 15  1  0  0  0  0
 15  7  1  0  0  0  0
 16 13  1  0  0  0  0
 16  1  1  0  0  0  0
 17 18  1  0  0  0  0
 17  6  1  0  0  0  0
 19 17  2  0  0  0  0
 21 22  2  0  0  0  0
 23 28  1  6  0  0  0
 24 21  1  0  0  0  0
 25 27  1  0  0  0  0
 25 31  1  0  0  0  0
 26 29  1  6  0  0  0
 26 24  1  0  0  0  0
 26 23  1  0  0  0  0
 27 26  1  0  0  0  0
 28 22  1  0  0  0  0
 30 24  2  0  0  0  0
 31 20  1  1  0  0  0
 31 23  1  0  0  0  0
M  END
>  <MODEL>
6

>  <REMARK>
 VINA RESULT:      -8.0      3.466      9.256
  Name = 
  3 active torsions:
  status: ('A' for Active; 'I' for Inactive)
    1  A    between atoms: C_8  and  C_13
    2  A    between atoms: C_17  and  C_23
    3  A    between atoms: C_23  and  C_29
                            x       y       z     vdW  Elec       q    Type
                         _______ _______ _______ _____ _____    ______ ____

>  <TORSDO>
F 3

$$$$
=
 OpenBabel11062420583D

 31 35  0  0  1  0  0  0  0  0999 V2000
  188.5960  174.3700  141.7630 C   0  0  2  0  0  3  0  0  0  0  0  0
  190.1370  172.9600  142.9810 C   0  0  0  0  0  0  0  0  0  0  0  0
  187.2090  176.0270  140.6200 N   0  0  0  0  0  0  0  0  0  0  0  0
  190.6150  177.8440  143.5310 C   0  0  0  0  0  2  0  0  0  0  0  0
  189.7310  174.1720  142.6990 C   0  0  0  0  0  0  0  0  0  0  0  0
  190.5410  171.7500  143.2590 C   0  0  0  0  0  3  0  0  0  0  0  0
  191.8680  176.3580  145.0030 N   0  0  0  0  0  2  0  0  0  0  0  0
  187.9640  173.2940  141.1470 O   0  0  0  0  0  1  0  0  0  0  0  0
  191.9740  177.5420  144.1570 C   0  0  0  0  0  2  0  0  0  0  0  0
  189.9800  176.6060  142.9540 C   0  0  0  0  0  0  0  0  0  0  0  0
  188.2020  177.9070  141.5340 C   0  0  2  0  0  3  0  0  0  0  0  0
  187.1570  177.4360  140.5900 N   0  0  0  0  0  2  0  0  0  0  0  0
  188.8250  176.7220  142.1080 N   0  0  0  0  0  0  0  0  0  0  0  0
  190.4160  175.3670  143.2840 C   0  0  0  0  0  0  0  0  0  0  0  0
  191.6560  175.2030  144.1320 C   0  0  0  0  0  2  0  0  0  0  0  0
  188.2060  175.6190  141.5180 C   0  0  0  0  0  0  0  0  0  0  0  0
  190.8800  170.7970  142.2010 C   0  0  0  0  0  0  0  0  0  0  0  0
  191.8920  169.8590  142.3820 O   0  0  0  0  0  1  0  0  0  0  0  0
  190.2480  170.8280  141.1150 O   0  0  0  0  0  0  0  0  0  0  0  0
  187.5580  178.7370  142.6330 C   0  0  0  0  0  2  0  0  0  0  0  0
  186.9990  178.2930  147.7440 C   0  0  0  0  0  3  0  0  0  0  0  0
  188.0730  177.7900  147.1040 C   0  0  0  0  0  3  0  0  0  0  0  0
  186.8960  178.0990  144.9610 C   0  0  1  0  0  3  0  0  0  0  0  0
  185.7000  178.4430  147.0450 C   0  0  0  0  0  0  0  0  0  0  0  0
  185.1950  178.3880  143.3190 C   0  0  0  0  0  2  0  0  0  0  0  0
  185.5690  177.8910  145.6550 C   0  0  1  0  0  0  0  0  0  0  0  0
  184.6160  178.6110  144.7260 C   0  0  0  0  0  2  0  0  0  0  0  0
  188.0160  177.3320  145.6610 C   0  0  0  0  0  2  0  0  0  0  0  0
  185.1710  176.4160  145.7340 C   0  0  0  0  0  1  0  0  0  0  0  0
  184.7150  178.9570  147.6390 O   0  0  0  0  0  0  0  0  0  0  0  0
  186.6310  177.8870  143.4880 C   0  0  1  0  0  3  0  0  0  0  0  0
  1  8  1  6  0  0  0
  1  5  1  0  0  0  0
  2  6  2  0  0  0  0
  3 16  2  0  0  0  0
  4  9  1  0  0  0  0
  5  2  2  0  0  0  0
  5 14  1  0  0  0  0
  9  7  1  0  0  0  0
 10 14  2  0  0  0  0
 10  4  1  0  0  0  0
 11 13  1  0  0  0  0
 11 20  1  1  0  0  0
 12  3  1  0  0  0  0
 12 11  1  0  0  0  0
 13 10  1  0  0  0  0
 14 15  1  0  0  0  0
 15  7  1  0  0  0  0
 16  1  1  0  0  0  0
 16 13  1  0  0  0  0
 17 18  1  0  0  0  0
 17  6  1  0  0  0  0
 19 17  2  0  0  0  0
 22 21  2  0  0  0  0
 23 26  1  0  0  0  0
 23 28  1  1  0  0  0
 24 30  2  0  0  0  0
 24 21  1  0  0  0  0
 25 31  1  0  0  0  0
 25 27  1  0  0  0  0
 26 29  1  1  0  0  0
 26 24  1  0  0  0  0
 27 26  1  0  0  0  0
 28 22  1  0  0  0  0
 31 20  1  6  0  0  0
 31 23  1  0  0  0  0
M  END
>  <MODEL>
7

>  <REMARK>
 VINA RESULT:      -8.0      3.464      7.225
  Name = 
  3 active torsions:
  status: ('A' for Active; 'I' for Inactive)
    1  A    between atoms: C_8  and  C_13
    2  A    between atoms: C_17  and  C_23
    3  A    between atoms: C_23  and  C_29
                            x       y       z     vdW  Elec       q    Type
                         _______ _______ _______ _____ _____    ______ ____

>  <TORSDO>
F 3

$$$$
=
 OpenBabel11062420583D

 31 35  0  0  1  0  0  0  0  0999 V2000
  193.3670  176.3700  145.2180 C   0  0  0  0  0  0  0  0  0  0  0  0
  194.4240  175.8060  143.1180 C   0  0  0  0  0  0  0  0  0  0  0  0
  192.1690  176.6690  147.3270 N   0  0  0  0  0  0  0  0  0  0  0  0
  190.9120  172.7570  144.7790 C   0  0  0  0  0  2  0  0  0  0  0  0
  193.5320  175.5000  144.0270 C   0  0  0  0  0  0  0  0  0  0  0  0
  195.3140  176.1120  142.2140 C   0  0  0  0  0  3  0  0  0  0  0  0
  191.7520  172.4710  142.5080 N   0  0  0  0  0  2  0  0  0  0  0  0
  194.1610  177.4960  145.4140 O   0  0  0  0  0  1  0  0  0  0  0  0
  191.4220  171.7620  143.7400 C   0  0  0  0  0  2  0  0  0  0  0  0
  191.7980  173.9730  144.8680 C   0  0  0  0  0  0  0  0  0  0  0  0
  190.8170  174.7990  147.1540 C   0  0  2  0  0  3  0  0  0  0  0  0
  191.1690  175.9540  148.0190 N   0  0  0  0  0  0  0  0  0  0  0  0
  191.6330  174.9010  145.9510 N   0  0  0  0  0  0  0  0  0  0  0  0
  192.6970  174.2660  143.8980 C   0  0  0  0  0  0  0  0  0  0  0  0
  192.9340  173.2920  142.7670 C   0  0  0  0  0  2  0  0  0  0  0  0
  192.4380  176.0300  146.1090 C   0  0  0  0  0  0  0  0  0  0  0  0
  196.7110  176.3650  142.5740 C   0  0  0  0  0  0  0  0  0  0  0  0
  197.7460  175.6920  141.9310 O   0  0  0  0  0  0  0  0  0  0  0  0
  196.9760  177.2010  143.4740 O   0  0  0  0  0  1  0  0  0  0  0  0
  189.3430  174.8680  146.7860 C   0  0  0  0  0  2  0  0  0  0  0  0
  186.8460  175.6530  142.3390 C   0  0  0  0  0  3  0  0  0  0  0  0
  188.0700  175.0890  142.3720 C   0  0  0  0  0  3  0  0  0  0  0  0
  188.3000  175.8140  144.7170 C   0  0  1  0  0  3  0  0  0  0  0  0
  186.4120  176.5900  143.4020 C   0  0  0  0  0  0  0  0  0  0  0  0
  188.0240  176.9750  146.7780 C   0  0  0  0  0  2  0  0  0  0  0  0
  187.4150  177.0070  144.4390 C   0  0  1  0  0  0  0  0  0  0  0  0
  186.8760  177.3230  145.8170 C   0  0  0  0  0  2  0  0  0  0  0  0
  189.0710  175.3910  143.4680 C   0  0  0  0  0  2  0  0  0  0  0  0
  188.2010  178.2140  143.9220 C   0  0  0  0  0  1  0  0  0  0  0  0
  185.2500  177.0750  143.3860 O   0  0  0  0  0  0  0  0  0  0  0  0
  189.0360  176.1320  145.9970 C   0  0  1  0  0  3  0  0  0  0  0  0
  1  8  1  0  0  0  0
  1 16  2  0  0  0  0
  2  5  2  0  0  0  0
  3 12  2  0  0  0  0
  4 10  1  0  0  0  0
  5  1  1  0  0  0  0
  6 17  1  0  0  0  0
  6  2  2  0  0  0  0
  7 15  1  0  0  0  0
  7  9  1  0  0  0  0
  9  4  1  0  0  0  0
 10 13  1  0  0  0  0
 11 20  1  6  0  0  0
 11 12  1  0  0  0  0
 13 16  1  0  0  0  0
 13 11  1  0  0  0  0
 14  5  1  0  0  0  0
 14 10  2  0  0  0  0
 15 14  1  0  0  0  0
 16  3  1  0  0  0  0
 17 19  1  0  0  0  0
 18 17  2  0  0  0  0
 21 22  2  0  0  0  0
 21 24  1  0  0  0  0
 22 28  1  0  0  0  0
 23 28  1  6  0  0  0
 23 31  1  0  0  0  0
 24 26  1  0  0  0  0
 26 29  1  6  0  0  0
 26 23  1  0  0  0  0
 26 27  1  0  0  0  0
 27 25  1  0  0  0  0
 30 24  2  0  0  0  0
 31 25  1  0  0  0  0
 31 20  1  1  0  0  0
M  END
>  <MODEL>
8

>  <REMARK>
 VINA RESULT:      -7.9      3.067      8.704
  Name = 
  3 active torsions:
  status: ('A' for Active; 'I' for Inactive)
    1  A    between atoms: C_8  and  C_13
    2  A    between atoms: C_17  and  C_23
    3  A    between atoms: C_23  and  C_29
                            x       y       z     vdW  Elec       q    Type
                         _______ _______ _______ _____ _____    ______ ____

>  <TORSDO>
F 3

$$$$
=
 OpenBabel11062420583D

 31 35  0  0  1  0  0  0  0  0999 V2000
  187.8790  176.6410  143.0990 C   0  0  2  0  0  3  0  0  0  0  0  0
  186.8820  178.1700  144.6840 C   0  0  0  0  0  0  0  0  0  0  0  0
  189.0620  175.0040  141.7230 N   0  0  0  0  0  0  0  0  0  0  0  0
  190.9110  175.7100  146.1340 C   0  0  0  0  0  2  0  0  0  0  0  0
  187.8360  177.3130  144.4210 C   0  0  0  0  0  0  0  0  0  0  0  0
  185.9290  179.0240  144.9440 C   0  0  0  0  0  3  0  0  0  0  0  0
  190.0740  177.5340  147.5190 N   0  0  0  0  0  2  0  0  0  0  0  0
  186.9070  176.8760  142.1300 O   0  0  0  0  0  1  0  0  0  0  0  0
  190.5540  176.1560  147.5500 C   0  0  0  0  0  2  0  0  0  0  0  0
  189.8300  176.0700  145.1480 C   0  0  0  0  0  0  0  0  0  0  0  0
  190.7120  174.4820  143.2590 C   0  0  2  0  0  3  0  0  0  0  0  0
  190.1880  174.1750  141.9030 N   0  0  0  0  0  2  0  0  0  0  0  0
  189.8600  175.5200  143.8220 N   0  0  0  0  0  0  0  0  0  0  0  0
  188.8690  176.9760  145.4490 C   0  0  0  0  0  0  0  0  0  0  0  0
  188.7750  177.5410  146.8480 C   0  0  0  0  0  2  0  0  0  0  0  0
  188.8760  175.7890  142.8690 C   0  0  0  0  0  0  0  0  0  0  0  0
  184.5190  178.6710  144.7610 C   0  0  0  0  0  0  0  0  0  0  0  0
  184.0350  178.2940  143.5130 O   0  0  0  0  0  0  0  0  0  0  0  0
  183.7390  178.7110  145.7460 O   0  0  0  0  0  1  0  0  0  0  0  0
  192.1420  174.9880  143.1490 C   0  0  0  0  0  2  0  0  0  0  0  0
  197.1800  174.9160  144.2630 C   0  0  0  0  0  3  0  0  0  0  0  0
  196.7270  175.3410  143.0670 C   0  0  0  0  0  3  0  0  0  0  0  0
  194.5250  174.3680  143.5970 C   0  0  1  0  0  3  0  0  0  0  0  0
  196.4120  173.9300  145.0600 C   0  0  0  0  0  0  0  0  0  0  0  0
  192.7920  173.0450  144.5550 C   0  0  0  0  0  2  0  0  0  0  0  0
  195.1930  173.3080  144.4430 C   0  0  1  0  0  0  0  0  0  0  0  0
  194.0780  172.9180  145.3890 C   0  0  0  0  0  2  0  0  0  0  0  0
  195.4370  174.8280  142.4600 C   0  0  0  0  0  2  0  0  0  0  0  0
  195.6100  172.0820  143.6290 C   0  0  0  0  0  1  0  0  0  0  0  0
  196.8220  173.5750  146.1970 O   0  0  0  0  0  0  0  0  0  0  0  0
  193.1380  173.8490  143.2990 C   0  0  1  0  0  3  0  0  0  0  0  0
  1  8  1  1  0  0  0
  1  5  1  0  0  0  0
  2  6  2  0  0  0  0
  3 12  1  0  0  0  0
  3 16  2  0  0  0  0
  4  9  1  0  0  0  0
  5  2  2  0  0  0  0
  5 14  1  0  0  0  0
  7  9  1  0  0  0  0
 10 14  2  0  0  0  0
 10  4  1  0  0  0  0
 11 20  1  6  0  0  0
 11 13  1  0  0  0  0
 12 11  1  0  0  0  0
 13 10  1  0  0  0  0
 14 15  1  0  0  0  0
 15  7  1  0  0  0  0
 16  1  1  0  0  0  0
 16 13  1  0  0  0  0
 17  6  1  0  0  0  0
 17 19  1  0  0  0  0
 18 17  2  0  0  0  0
 21 24  1  0  0  0  0
 22 21  2  0  0  0  0
 23 28  1  6  0  0  0
 23 26  1  0  0  0  0
 24 30  2  0  0  0  0
 25 27  1  0  0  0  0
 26 29  1  6  0  0  0
 26 24  1  0  0  0  0
 26 27  1  0  0  0  0
 28 22  1  0  0  0  0
 31 20  1  1  0  0  0
 31 23  1  0  0  0  0
 31 25  1  0  0  0  0
M  END
>  <MODEL>
9

>  <REMARK>
 VINA RESULT:      -7.8      2.531      3.819
  Name = 
  3 active torsions:
  status: ('A' for Active; 'I' for Inactive)
    1  A    between atoms: C_8  and  C_13
    2  A    between atoms: C_17  and  C_23
    3  A    between atoms: C_23  and  C_29
                            x       y       z     vdW  Elec       q    Type
                         _______ _______ _______ _____ _____    ______ ____

>  <TORSDO>
F 3

$$$$
