=
 OpenBabel11062419403D

 42 43  0  0  1  0  0  0  0  0999 V2000
  188.0790  176.4650  143.2500 C   0  0  0  0  0  3  0  0  0  0  0  0
  188.6020  175.2770  142.9160 C   0  0  0  0  0  0  0  0  0  0  0  0
  190.8880  172.9490  144.8450 C   0  0  0  0  0  3  0  0  0  0  0  0
  192.1430  173.5290  144.6250 C   0  0  0  0  0  0  0  0  0  0  0  0
  189.7450  173.5310  144.2960 C   0  0  0  0  0  3  0  0  0  0  0  0
  191.0930  175.3040  143.3580 C   0  0  0  0  0  3  0  0  0  0  0  0
  192.2390  174.7190  143.8990 C   0  0  0  0  0  3  0  0  0  0  0  0
  189.8350  174.7010  143.5250 C   0  0  0  0  0  0  0  0  0  0  0  0
  193.3910  172.8830  145.1370 C   0  0  0  0  0  2  0  0  0  0  0  0
  194.5160  170.9270  144.3480 O   0  0  0  0  0  1  0  0  0  0  0  0
  194.2210  172.2500  144.0180 C   0  0  2  0  0  3  0  0  0  0  0  0
  196.4940  172.8340  144.4890 O   0  0  0  0  0  0  0  0  0  0  0  0
  195.4850  173.0050  143.7530 C   0  0  0  0  0  0  0  0  0  0  0  0
  195.5190  173.9450  142.6760 N   0  0  0  0  0  2  0  0  0  0  0  0
  196.6250  174.8680  142.4470 C   0  0  2  0  0  3  0  0  0  0  0  0
  195.1360  176.4450  144.9980 O   0  0  0  0  0  0  0  0  0  0  0  0
  195.8690  176.5440  143.9800 C   0  0  0  0  0  0  0  0  0  0  0  0
  197.1420  177.0420  143.2890 N   0  0  0  0  0  2  0  0  0  0  0  0
  196.1490  176.3030  142.6410 C   0  0  1  0  0  3  0  0  0  0  0  0
  197.9370  173.5950  140.7340 O   0  0  0  0  0  1  0  0  0  0  0  0
  196.8720  175.5450  140.1710 O   0  0  0  0  0  0  0  0  0  0  0  0
  197.1650  174.7060  141.0620 C   0  0  0  0  0  0  0  0  0  0  0  0
  188.6120  177.4250  144.2730 C   0  0  0  0  0  2  0  0  0  0  0  0
  188.1040  177.1810  145.7000 C   0  0  2  0  0  3  0  0  0  0  0  0
  186.9550  178.1040  146.1340 C   0  0  2  0  0  3  0  0  0  0  0  0
  185.8570  176.9140  147.8540 O   0  0  0  0  0  0  0  0  0  0  0  0
  186.5480  177.8760  147.5580 C   0  0  0  0  0  3  0  0  0  0  0  0
  185.8570  177.9200  145.2860 O   0  0  0  0  0  0  0  0  0  0  0  0
  185.4400  179.2080  144.9370 C   0  0  0  0  0  2  0  0  0  0  0  0
  185.7140  179.4590  143.4650 C   0  0  0  0  0  2  0  0  0  0  0  0
  185.2450  178.0110  141.6310 O   0  0  0  0  0  0  0  0  0  0  0  0
  184.8000  178.6280  142.6350 C   0  0  0  0  0  0  0  0  0  0  0  0
  183.4630  178.5030  142.9870 O   0  0  0  0  0  1  0  0  0  0  0  0
  189.2270  177.0440  146.7270 C   0  0  0  0  0  2  0  0  0  0  0  0
  189.4080  175.5940  147.1520 C   0  0  0  0  0  2  0  0  0  0  0  0
  191.7550  176.4490  147.2400 C   0  0  0  0  0  1  0  0  0  0  0  0
  190.8140  175.3420  147.6760 C   0  0  0  0  0  2  0  0  0  0  0  0
  187.9130  174.5450  141.8050 C   0  0  0  0  0  2  0  0  0  0  0  0
  188.5300  174.8110  140.5500 O   0  0  0  0  0  0  0  0  0  0  0  0
  188.6840  173.8310  139.5670 C   0  0  0  0  0  0  0  0  0  0  0  0
  189.8230  173.5390  139.1150 O   0  0  0  0  0  0  0  0  0  0  0  0
  187.5900  173.1890  139.0890 F   0  0  0  0  0  0  0  0  0  0  0  0
  1 23  1  0  0  0  0
  2  1  2  0  0  0  0
  2  8  1  0  0  0  0
  4  3  1  0  0  0  0
  4  9  1  0  0  0  0
  5  3  2  0  0  0  0
  6  8  2  0  0  0  0
  6  7  1  0  0  0  0
  7  4  2  0  0  0  0
  8  5  1  0  0  0  0
 11 10  1  1  0  0  0
 11  9  1  0  0  0  0
 13 11  1  0  0  0  0
 13 12  2  0  0  0  0
 14 13  1  0  0  0  0
 15 22  1  6  0  0  0
 15 14  1  0  0  0  0
 17 16  2  0  0  0  0
 18 17  1  0  0  0  0
 19 15  1  1  0  0  0
 19 18  1  0  0  0  0
 19 17  1  0  0  0  0
 20 22  1  0  0  0  0
 21 22  2  0  0  0  0
 24 23  1  6  0  0  0
 24 25  1  0  0  0  0
 24 34  1  0  0  0  0
 25 27  1  1  0  0  0
 27 26  2  0  0  0  0
 28 25  1  0  0  0  0
 29 28  1  0  0  0  0
 30 29  1  0  0  0  0
 31 32  2  0  0  0  0
 32 33  1  0  0  0  0
 32 30  1  0  0  0  0
 34 35  1  0  0  0  0
 35 37  1  0  0  0  0
 36 37  1  0  0  0  0
 38  2  1  0  0  0  0
 39 38  1  0  0  0  0
 40 39  1  0  0  0  0
 41 40  2  0  0  0  0
 42 40  1  0  0  0  0
M  END
>  <MODEL>
1

>  <REMARK>
 VINA RESULT:      -5.7      0.000      0.000
  Name = 
  21 active torsions:
  status: ('A' for Active; 'I' for Inactive)
    1  A    between atoms: C_3  and  O_8
    2  A    between atoms: C_7  and  C_19
    3  A    between atoms: O_8  and  C_33
    4  A    between atoms: C_9  and  C_10
    5  A    between atoms: C_10  and  C_26
    6  A    between atoms: C_12  and  C_41
    7  A    between atoms: C_13  and  C_34
    8  A    between atoms: C_17  and  C_26
    9  A    between atoms: C_18  and  C_23
   10  A    between atoms: C_18  and  N_39
   11  A    between atoms: C_18  and  CA_42
   12  A    between atoms: C_19  and  C_30
   13  A    between atoms: C_20  and  O_37
   14  A    between atoms: C_20  and  C_41
   15  A    between atoms: C_24  and  C_33
   16  A    between atoms: C_24  and  C_38
   17  A    between atoms: C_28  and  C_31
   18  A    between atoms: C_30  and  C_32
   19  A    between atoms: C_31  and  C_32
   20  A    between atoms: C_31  and  O_37
   21  A    between atoms: C_32  and  C_34
                            x       y       z     vdW  Elec       q    Type
                         _______ _______ _______ _____ _____    ______ ____

>  <TORSDO>
F 21

$$$$
=
 OpenBabel11062419403D

 42 43  0  0  1  0  0  0  0  0999 V2000
  189.0450  174.2070  143.9500 C   0  0  0  0  0  3  0  0  0  0  0  0
  189.4860  174.8020  142.8330 C   0  0  0  0  0  0  0  0  0  0  0  0
  192.7610  176.7090  142.7470 C   0  0  0  0  0  3  0  0  0  0  0  0
  193.6240  175.7750  142.1610 C   0  0  0  0  0  0  0  0  0  0  0  0
  191.4190  176.3870  142.9490 C   0  0  0  0  0  3  0  0  0  0  0  0
  191.7780  174.2260  141.9290 C   0  0  0  0  0  3  0  0  0  0  0  0
  193.1240  174.5430  141.7340 C   0  0  0  0  0  3  0  0  0  0  0  0
  190.9150  175.1330  142.5660 C   0  0  0  0  0  0  0  0  0  0  0  0
  195.0830  176.0660  142.0040 C   0  0  0  0  0  2  0  0  0  0  0  0
  196.5880  177.1460  143.5150 O   0  0  0  0  0  1  0  0  0  0  0  0
  195.8390  175.9820  143.3310 C   0  0  2  0  0  3  0  0  0  0  0  0
  197.9410  174.8700  143.0560 O   0  0  0  0  0  0  0  0  0  0  0  0
  196.7310  174.7830  143.4010 C   0  0  0  0  0  0  0  0  0  0  0  0
  196.1830  173.5340  143.8290 N   0  0  0  0  0  2  0  0  0  0  0  0
  196.9050  172.2690  143.7530 C   0  0  2  0  0  3  0  0  0  0  0  0
  195.7780  172.5900  140.6170 O   0  0  0  0  0  0  0  0  0  0  0  0
  196.1930  171.8120  141.5150 C   0  0  0  0  0  0  0  0  0  0  0  0
  197.1070  170.6770  141.9860 N   0  0  0  0  0  2  0  0  0  0  0  0
  196.1790  171.3160  142.8110 C   0  0  1  0  0  3  0  0  0  0  0  0
  197.7990  170.5120  145.3000 O   0  0  0  0  0  0  0  0  0  0  0  0
  196.4420  172.1800  146.0930 O   0  0  0  0  0  1  0  0  0  0  0  0
  197.0140  171.6450  145.1080 C   0  0  0  0  0  0  0  0  0  0  0  0
  189.8740  173.7680  145.1210 C   0  0  0  0  0  2  0  0  0  0  0  0
  189.8810  174.7520  146.2990 C   0  0  2  0  0  3  0  0  0  0  0  0
  188.8590  175.8930  146.1820 C   0  0  2  0  0  3  0  0  0  0  0  0
  189.8730  177.9020  145.4630 O   0  0  0  0  0  0  0  0  0  0  0  0
  189.4800  177.2380  146.4080 C   0  0  0  0  0  3  0  0  0  0  0  0
  187.8160  175.6870  147.0920 O   0  0  0  0  0  0  0  0  0  0  0  0
  187.1040  176.8900  147.1150 C   0  0  0  0  0  2  0  0  0  0  0  0
  185.7980  176.7320  146.3570 C   0  0  0  0  0  2  0  0  0  0  0  0
  185.8200  179.1150  146.3580 O   0  0  0  0  0  1  0  0  0  0  0  0
  185.3360  178.0600  145.8700 C   0  0  0  0  0  0  0  0  0  0  0  0
  184.3950  178.1380  144.8510 O   0  0  0  0  0  0  0  0  0  0  0  0
  191.2840  175.1990  146.7050 C   0  0  0  0  0  2  0  0  0  0  0  0
  192.3500  174.3950  145.9720 C   0  0  0  0  0  2  0  0  0  0  0  0
  193.5570  176.5120  146.5220 C   0  0  0  0  0  1  0  0  0  0  0  0
  193.7050  175.0830  146.0360 C   0  0  0  0  0  2  0  0  0  0  0  0
  188.4360  175.2070  141.8450 C   0  0  0  0  0  2  0  0  0  0  0  0
  187.5040  176.1150  142.4240 O   0  0  0  0  0  0  0  0  0  0  0  0
  187.6960  177.4990  142.4100 C   0  0  0  0  0  0  0  0  0  0  0  0
  188.0630  178.0920  141.3620 O   0  0  0  0  0  0  0  0  0  0  0  0
  187.4880  178.2110  143.5450 F   0  0  0  0  0  0  0  0  0  0  0  0
  1 23  1  0  0  0  0
  2  1  2  0  0  0  0
  3  5  1  0  0  0  0
  4  3  2  0  0  0  0
  6  8  1  0  0  0  0
  7  6  2  0  0  0  0
  7  4  1  0  0  0  0
  8  2  1  0  0  0  0
  8  5  2  0  0  0  0
  9  4  1  0  0  0  0
  9 11  1  0  0  0  0
 11 13  1  0  0  0  0
 11 10  1  6  0  0  0
 12 13  2  0  0  0  0
 13 14  1  0  0  0  0
 15 14  1  1  0  0  0
 15 22  1  0  0  0  0
 16 17  2  0  0  0  0
 17 18  1  0  0  0  0
 17 19  1  0  0  0  0
 18 19  1  0  0  0  0
 19 15  1  1  0  0  0
 22 20  2  0  0  0  0
 22 21  1  0  0  0  0
 24 23  1  6  0  0  0
 24 34  1  0  0  0  0
 25 24  1  0  0  0  0
 25 27  1  1  0  0  0
 25 28  1  0  0  0  0
 26 27  2  0  0  0  0
 28 29  1  0  0  0  0
 30 29  1  0  0  0  0
 32 30  1  0  0  0  0
 32 31  1  0  0  0  0
 33 32  2  0  0  0  0
 35 37  1  0  0  0  0
 35 34  1  0  0  0  0
 37 36  1  0  0  0  0
 38 39  1  0  0  0  0
 38  2  1  0  0  0  0
 40 39  1  0  0  0  0
 40 42  1  0  0  0  0
 41 40  2  0  0  0  0
M  END
>  <MODEL>
2

>  <REMARK>
 VINA RESULT:      -5.5      2.285      4.058
  Name = 
  21 active torsions:
  status: ('A' for Active; 'I' for Inactive)
    1  A    between atoms: C_3  and  O_8
    2  A    between atoms: C_7  and  C_19
    3  A    between atoms: O_8  and  C_33
    4  A    between atoms: C_9  and  C_10
    5  A    between atoms: C_10  and  C_26
    6  A    between atoms: C_12  and  C_41
    7  A    between atoms: C_13  and  C_34
    8  A    between atoms: C_17  and  C_26
    9  A    between atoms: C_18  and  C_23
   10  A    between atoms: C_18  and  N_39
   11  A    between atoms: C_18  and  CA_42
   12  A    between atoms: C_19  and  C_30
   13  A    between atoms: C_20  and  O_37
   14  A    between atoms: C_20  and  C_41
   15  A    between atoms: C_24  and  C_33
   16  A    between atoms: C_24  and  C_38
   17  A    between atoms: C_28  and  C_31
   18  A    between atoms: C_30  and  C_32
   19  A    between atoms: C_31  and  C_32
   20  A    between atoms: C_31  and  O_37
   21  A    between atoms: C_32  and  C_34
                            x       y       z     vdW  Elec       q    Type
                         _______ _______ _______ _____ _____    ______ ____

>  <TORSDO>
F 21

$$$$
=
 OpenBabel11062419403D

 42 43  0  0  1  0  0  0  0  0999 V2000
  188.4190  176.1510  145.0570 C   0  0  0  0  0  3  0  0  0  0  0  0
  189.3450  176.6320  145.8980 C   0  0  0  0  0  0  0  0  0  0  0  0
  192.5240  174.7720  146.7930 C   0  0  0  0  0  3  0  0  0  0  0  0
  193.4450  175.3240  145.8940 C   0  0  0  0  0  0  0  0  0  0  0  0
  191.2000  175.2120  146.7940 C   0  0  0  0  0  3  0  0  0  0  0  0
  191.7210  176.7960  145.0450 C   0  0  0  0  0  3  0  0  0  0  0  0
  193.0440  176.3510  145.0360 C   0  0  0  0  0  3  0  0  0  0  0  0
  190.7750  176.2110  145.9030 C   0  0  0  0  0  0  0  0  0  0  0  0
  194.8490  174.8150  145.8190 C   0  0  0  0  0  2  0  0  0  0  0  0
  194.9400  172.4270  145.8390 O   0  0  0  0  0  1  0  0  0  0  0  0
  194.9620  173.5340  144.9900 C   0  0  2  0  0  3  0  0  0  0  0  0
  197.2170  172.8720  144.5350 O   0  0  0  0  0  0  0  0  0  0  0  0
  196.1990  173.5100  144.1500 C   0  0  0  0  0  0  0  0  0  0  0  0
  196.2210  174.2470  142.9250 N   0  0  0  0  0  2  0  0  0  0  0  0
  197.4260  174.4500  142.1280 C   0  0  2  0  0  3  0  0  0  0  0  0
  195.2950  176.8340  141.1350 O   0  0  0  0  0  0  0  0  0  0  0  0
  196.3640  176.5590  141.7400 C   0  0  0  0  0  0  0  0  0  0  0  0
  197.2830  176.6840  142.9590 N   0  0  0  0  0  2  0  0  0  0  0  0
  197.6000  175.9330  141.8240 C   0  0  1  0  0  3  0  0  0  0  0  0
  196.8230  172.3930  140.8300 O   0  0  0  0  0  1  0  0  0  0  0  0
  197.6840  174.2300  139.7650 O   0  0  0  0  0  0  0  0  0  0  0  0
  197.3420  173.6840  140.8450 C   0  0  0  0  0  0  0  0  0  0  0  0
  188.6280  175.1240  143.9830 C   0  0  0  0  0  2  0  0  0  0  0  0
  189.0000  175.7050  142.6120 C   0  0  2  0  0  3  0  0  0  0  0  0
  187.8410  176.3940  141.8770 C   0  0  2  0  0  3  0  0  0  0  0  0
  189.0450  178.4190  141.7020 O   0  0  0  0  0  0  0  0  0  0  0  0
  187.9630  177.8870  141.8950 C   0  0  0  0  0  3  0  0  0  0  0  0
  186.6230  176.0060  142.4480 O   0  0  0  0  0  0  0  0  0  0  0  0
  185.8900  177.1860  142.5900 C   0  0  0  0  0  2  0  0  0  0  0  0
  185.2180  177.2170  143.9510 C   0  0  0  0  0  2  0  0  0  0  0  0
  185.4060  179.5780  143.6900 O   0  0  0  0  0  0  0  0  0  0  0  0
  184.8800  178.6200  144.3140 C   0  0  0  0  0  0  0  0  0  0  0  0
  183.9550  178.8740  145.3190 O   0  0  0  0  0  1  0  0  0  0  0  0
  189.8130  174.7410  141.7480 C   0  0  0  0  0  2  0  0  0  0  0  0
  191.2920  174.8020  142.1020 C   0  0  0  0  0  2  0  0  0  0  0  0
  191.5070  172.9470  143.7640 C   0  0  0  0  0  1  0  0  0  0  0  0
  191.8570  173.4130  142.3630 C   0  0  0  0  0  2  0  0  0  0  0  0
  188.8540  177.6000  146.9310 C   0  0  0  0  0  2  0  0  0  0  0  0
  187.5340  178.0440  146.6380 O   0  0  0  0  0  0  0  0  0  0  0  0
  186.6070  178.3520  147.6360 C   0  0  0  0  0  0  0  0  0  0  0  0
  185.8760  177.4600  148.1410 O   0  0  0  0  0  0  0  0  0  0  0  0
  186.4890  179.6330  148.0630 F   0  0  0  0  0  0  0  0  0  0  0  0
  1  2  2  0  0  0  0
  2  8  1  0  0  0  0
  2 38  1  0  0  0  0
  3  5  1  0  0  0  0
  4  3  2  0  0  0  0
  6  8  1  0  0  0  0
  7  6  2  0  0  0  0
  7  4  1  0  0  0  0
  8  5  2  0  0  0  0
  9  4  1  0  0  0  0
 11  9  1  0  0  0  0
 11 10  1  1  0  0  0
 13 12  2  0  0  0  0
 13 11  1  0  0  0  0
 14 13  1  0  0  0  0
 15 22  1  6  0  0  0
 15 14  1  0  0  0  0
 16 17  2  0  0  0  0
 17 19  1  0  0  0  0
 17 18  1  0  0  0  0
 19 15  1  1  0  0  0
 19 18  1  0  0  0  0
 20 22  1  0  0  0  0
 21 22  2  0  0  0  0
 23  1  1  0  0  0  0
 24 34  1  6  0  0  0
 24 23  1  0  0  0  0
 25 27  1  1  0  0  0
 25 28  1  0  0  0  0
 25 24  1  0  0  0  0
 26 27  2  0  0  0  0
 28 29  1  0  0  0  0
 29 30  1  0  0  0  0
 30 32  1  0  0  0  0
 31 32  2  0  0  0  0
 32 33  1  0  0  0  0
 34 35  1  0  0  0  0
 35 37  1  0  0  0  0
 37 36  1  0  0  0  0
 39 38  1  0  0  0  0
 39 40  1  0  0  0  0
 40 42  1  0  0  0  0
 40 41  2  0  0  0  0
M  END
>  <MODEL>
3

>  <REMARK>
 VINA RESULT:      -5.5      2.496      4.374
  Name = 
  21 active torsions:
  status: ('A' for Active; 'I' for Inactive)
    1  A    between atoms: C_3  and  O_8
    2  A    between atoms: C_7  and  C_19
    3  A    between atoms: O_8  and  C_33
    4  A    between atoms: C_9  and  C_10
    5  A    between atoms: C_10  and  C_26
    6  A    between atoms: C_12  and  C_41
    7  A    between atoms: C_13  and  C_34
    8  A    between atoms: C_17  and  C_26
    9  A    between atoms: C_18  and  C_23
   10  A    between atoms: C_18  and  N_39
   11  A    between atoms: C_18  and  CA_42
   12  A    between atoms: C_19  and  C_30
   13  A    between atoms: C_20  and  O_37
   14  A    between atoms: C_20  and  C_41
   15  A    between atoms: C_24  and  C_33
   16  A    between atoms: C_24  and  C_38
   17  A    between atoms: C_28  and  C_31
   18  A    between atoms: C_30  and  C_32
   19  A    between atoms: C_31  and  C_32
   20  A    between atoms: C_31  and  O_37
   21  A    between atoms: C_32  and  C_34
                            x       y       z     vdW  Elec       q    Type
                         _______ _______ _______ _____ _____    ______ ____

>  <TORSDO>
F 21

$$$$
=
 OpenBabel11062419403D

 42 43  0  0  1  0  0  0  0  0999 V2000
  194.4070  173.7390  145.4530 C   0  0  0  0  0  3  0  0  0  0  0  0
  193.8010  174.9220  145.6270 C   0  0  0  0  0  0  0  0  0  0  0  0
  190.6150  175.4070  147.6220 C   0  0  0  0  0  3  0  0  0  0  0  0
  189.6490  175.4800  146.6110 C   0  0  0  0  0  0  0  0  0  0  0  0
  191.9570  175.2140  147.2920 C   0  0  0  0  0  3  0  0  0  0  0  0
  191.3710  175.1050  144.9510 C   0  0  0  0  0  3  0  0  0  0  0  0
  190.0290  175.3070  145.2770 C   0  0  0  0  0  3  0  0  0  0  0  0
  192.3560  175.0860  145.9520 C   0  0  0  0  0  0  0  0  0  0  0  0
  188.2170  175.7640  146.9330 C   0  0  0  0  0  2  0  0  0  0  0  0
  187.3300  177.9120  147.4920 O   0  0  0  0  0  1  0  0  0  0  0  0
  187.7640  177.1320  146.4190 C   0  0  2  0  0  3  0  0  0  0  0  0
  185.5450  176.5760  145.7150 O   0  0  0  0  0  0  0  0  0  0  0  0
  186.6800  177.0230  145.3950 C   0  0  0  0  0  0  0  0  0  0  0  0
  186.9600  177.4000  144.0440 N   0  0  0  0  0  2  0  0  0  0  0  0
  186.0460  177.1560  142.9340 C   0  0  2  0  0  3  0  0  0  0  0  0
  188.7860  178.4100  141.4750 O   0  0  0  0  0  0  0  0  0  0  0  0
  188.0650  177.3980  141.6710 C   0  0  0  0  0  0  0  0  0  0  0  0
  187.9000  175.9270  142.0650 N   0  0  0  0  0  2  0  0  0  0  0  0
  186.8360  176.7530  141.6940 C   0  0  1  0  0  3  0  0  0  0  0  0
  185.3610  179.5120  143.4410 O   0  0  0  0  0  1  0  0  0  0  0  0
  184.5030  178.4180  141.6200 O   0  0  0  0  0  0  0  0  0  0  0  0
  185.2430  178.3840  142.6360 C   0  0  0  0  0  0  0  0  0  0  0  0
  193.7720  172.3830  145.5470 C   0  0  0  0  0  2  0  0  0  0  0  0
  194.1600  171.4190  144.4180 C   0  0  2  0  0  3  0  0  0  0  0  0
  193.1320  171.3260  143.2790 C   0  0  2  0  0  3  0  0  0  0  0  0
  193.8760  172.8560  141.6400 O   0  0  0  0  0  0  0  0  0  0  0  0
  193.7220  171.6850  141.9490 C   0  0  0  0  0  3  0  0  0  0  0  0
  192.0410  172.1570  143.5600 O   0  0  0  0  0  0  0  0  0  0  0  0
  190.9110  171.4110  143.2150 C   0  0  0  0  0  2  0  0  0  0  0  0
  189.7910  172.3400  142.7810 C   0  0  0  0  0  2  0  0  0  0  0  0
  189.9170  172.4680  140.4050 O   0  0  0  0  0  0  0  0  0  0  0  0
  190.1640  173.0180  141.5100 C   0  0  0  0  0  0  0  0  0  0  0  0
  190.7520  174.2760  141.5400 O   0  0  0  0  0  1  0  0  0  0  0  0
  194.6680  170.0700  144.9220 C   0  0  0  0  0  2  0  0  0  0  0  0
  195.5050  170.2350  146.1830 C   0  0  0  0  0  2  0  0  0  0  0  0
  197.7470  169.5860  145.2900 C   0  0  0  0  0  1  0  0  0  0  0  0
  196.9110  170.7180  145.8560 C   0  0  0  0  0  2  0  0  0  0  0  0
  194.6520  176.1340  145.4010 C   0  0  0  0  0  2  0  0  0  0  0  0
  194.3260  176.7740  144.1720 O   0  0  0  0  0  0  0  0  0  0  0  0
  194.4620  176.1390  142.9360 C   0  0  0  0  0  0  0  0  0  0  0  0
  195.5660  175.6530  142.5750 O   0  0  0  0  0  0  0  0  0  0  0  0
  193.3910  176.0490  142.1110 F   0  0  0  0  0  0  0  0  0  0  0  0
  1 23  1  0  0  0  0
  1  2  2  0  0  0  0
  2  8  1  0  0  0  0
  4  9  1  0  0  0  0
  4  3  2  0  0  0  0
  5  3  1  0  0  0  0
  6  7  2  0  0  0  0
  6  8  1  0  0  0  0
  7  4  1  0  0  0  0
  8  5  2  0  0  0  0
 11  9  1  0  0  0  0
 11 10  1  1  0  0  0
 13 12  2  0  0  0  0
 13 11  1  0  0  0  0
 14 13  1  0  0  0  0
 15 22  1  6  0  0  0
 15 14  1  0  0  0  0
 16 17  2  0  0  0  0
 17 19  1  0  0  0  0
 17 18  1  0  0  0  0
 19 18  1  0  0  0  0
 19 15  1  1  0  0  0
 21 22  2  0  0  0  0
 22 20  1  0  0  0  0
 24 34  1  1  0  0  0
 24 23  1  0  0  0  0
 25 27  1  6  0  0  0
 25 28  1  0  0  0  0
 25 24  1  0  0  0  0
 26 27  2  0  0  0  0
 29 28  1  0  0  0  0
 30 29  1  0  0  0  0
 31 32  2  0  0  0  0
 32 33  1  0  0  0  0
 32 30  1  0  0  0  0
 34 35  1  0  0  0  0
 36 37  1  0  0  0  0
 37 35  1  0  0  0  0
 38  2  1  0  0  0  0
 39 38  1  0  0  0  0
 40 39  1  0  0  0  0
 41 40  2  0  0  0  0
 42 40  1  0  0  0  0
M  END
>  <MODEL>
4

>  <REMARK>
 VINA RESULT:      -5.3      2.975      8.553
  Name = 
  21 active torsions:
  status: ('A' for Active; 'I' for Inactive)
    1  A    between atoms: C_3  and  O_8
    2  A    between atoms: C_7  and  C_19
    3  A    between atoms: O_8  and  C_33
    4  A    between atoms: C_9  and  C_10
    5  A    between atoms: C_10  and  C_26
    6  A    between atoms: C_12  and  C_41
    7  A    between atoms: C_13  and  C_34
    8  A    between atoms: C_17  and  C_26
    9  A    between atoms: C_18  and  C_23
   10  A    between atoms: C_18  and  N_39
   11  A    between atoms: C_18  and  CA_42
   12  A    between atoms: C_19  and  C_30
   13  A    between atoms: C_20  and  O_37
   14  A    between atoms: C_20  and  C_41
   15  A    between atoms: C_24  and  C_33
   16  A    between atoms: C_24  and  C_38
   17  A    between atoms: C_28  and  C_31
   18  A    between atoms: C_30  and  C_32
   19  A    between atoms: C_31  and  C_32
   20  A    between atoms: C_31  and  O_37
   21  A    between atoms: C_32  and  C_34
                            x       y       z     vdW  Elec       q    Type
                         _______ _______ _______ _____ _____    ______ ____

>  <TORSDO>
F 21

$$$$
=
 OpenBabel11062419403D

 42 43  0  0  1  0  0  0  0  0999 V2000
  187.0860  176.8840  143.8710 C   0  0  0  0  0  3  0  0  0  0  0  0
  188.1440  177.3980  143.2260 C   0  0  0  0  0  0  0  0  0  0  0  0
  191.7750  177.6750  144.2760 C   0  0  0  0  0  3  0  0  0  0  0  0
  192.2210  176.3560  144.1280 C   0  0  0  0  0  0  0  0  0  0  0  0
  190.4550  178.0040  143.9690 C   0  0  0  0  0  3  0  0  0  0  0  0
  190.0340  175.7180  143.3090 C   0  0  0  0  0  3  0  0  0  0  0  0
  191.3520  175.3850  143.6240 C   0  0  0  0  0  3  0  0  0  0  0  0
  189.5600  177.0260  143.5060 C   0  0  0  0  0  0  0  0  0  0  0  0
  193.6080  175.9620  144.5240 C   0  0  0  0  0  2  0  0  0  0  0  0
  195.2540  174.2430  144.2940 O   0  0  0  0  0  1  0  0  0  0  0  0
  194.1640  174.8340  143.6520 C   0  0  2  0  0  3  0  0  0  0  0  0
  195.1070  176.4450  142.1540 O   0  0  0  0  0  0  0  0  0  0  0  0
  194.5680  175.3130  142.2940 C   0  0  0  0  0  0  0  0  0  0  0  0
  194.3050  174.4850  141.1590 N   0  0  0  0  0  2  0  0  0  0  0  0
  194.4800  174.9290  139.7800 C   0  0  2  0  0  3  0  0  0  0  0  0
  193.6750  171.8020  138.8960 O   0  0  0  0  0  0  0  0  0  0  0  0
  193.2760  172.9790  139.0890 C   0  0  0  0  0  0  0  0  0  0  0  0
  192.2920  173.9750  139.7110 N   0  0  0  0  0  2  0  0  0  0  0  0
  193.3710  174.3520  138.9080 C   0  0  1  0  0  3  0  0  0  0  0  0
  196.2200  174.8710  137.9790 O   0  0  0  0  0  0  0  0  0  0  0  0
  196.5860  173.8240  139.9850 O   0  0  0  0  0  1  0  0  0  0  0  0
  195.8090  174.4900  139.2530 C   0  0  0  0  0  0  0  0  0  0  0  0
  187.1140  175.8630  144.9700 C   0  0  0  0  0  2  0  0  0  0  0  0
  187.1090  176.4530  146.3860 C   0  0  2  0  0  3  0  0  0  0  0  0
  186.2260  177.6990  146.5540 C   0  0  2  0  0  3  0  0  0  0  0  0
  186.7780  179.2530  148.2460 O   0  0  0  0  0  0  0  0  0  0  0  0
  186.2180  178.2050  147.9650 C   0  0  0  0  0  3  0  0  0  0  0  0
  184.9200  177.4090  146.1420 O   0  0  0  0  0  0  0  0  0  0  0  0
  184.3250  178.6510  145.9030 C   0  0  0  0  0  2  0  0  0  0  0  0
  184.7900  179.1980  144.5650 C   0  0  0  0  0  2  0  0  0  0  0  0
  184.2690  177.9960  142.5740 O   0  0  0  0  0  0  0  0  0  0  0  0
  183.8600  178.7570  143.4900 C   0  0  0  0  0  0  0  0  0  0  0  0
  182.5290  179.1540  143.5170 O   0  0  0  0  0  1  0  0  0  0  0  0
  188.5060  176.5830  146.9910 C   0  0  0  0  0  2  0  0  0  0  0  0
  189.2620  175.2630  146.9170 C   0  0  0  0  0  2  0  0  0  0  0  0
  190.9840  176.8570  147.7770 C   0  0  0  0  0  1  0  0  0  0  0  0
  190.6870  175.4110  147.4280 C   0  0  0  0  0  2  0  0  0  0  0  0
  187.8440  178.4630  142.2170 C   0  0  0  0  0  2  0  0  0  0  0  0
  188.0010  177.9760  140.8880 O   0  0  0  0  0  0  0  0  0  0  0  0
  187.2030  176.9590  140.3610 C   0  0  0  0  0  0  0  0  0  0  0  0
  186.0860  177.2160  139.8390 O   0  0  0  0  0  0  0  0  0  0  0  0
  187.6350  175.6760  140.4170 F   0  0  0  0  0  0  0  0  0  0  0  0
  1 23  1  0  0  0  0
  2  8  1  0  0  0  0
  2  1  2  0  0  0  0
  4  3  1  0  0  0  0
  4  9  1  0  0  0  0
  5  3  2  0  0  0  0
  6  8  2  0  0  0  0
  6  7  1  0  0  0  0
  7  4  2  0  0  0  0
  8  5  1  0  0  0  0
 11 10  1  1  0  0  0
 11  9  1  0  0  0  0
 12 13  2  0  0  0  0
 13 11  1  0  0  0  0
 14 13  1  0  0  0  0
 15 22  1  6  0  0  0
 15 14  1  0  0  0  0
 16 17  2  0  0  0  0
 17 18  1  0  0  0  0
 19 17  1  0  0  0  0
 19 18  1  0  0  0  0
 19 15  1  1  0  0  0
 20 22  2  0  0  0  0
 22 21  1  0  0  0  0
 24 23  1  6  0  0  0
 24 25  1  0  0  0  0
 24 34  1  0  0  0  0
 25 27  1  1  0  0  0
 27 26  2  0  0  0  0
 28 25  1  0  0  0  0
 29 28  1  0  0  0  0
 30 29  1  0  0  0  0
 31 32  2  0  0  0  0
 32 33  1  0  0  0  0
 32 30  1  0  0  0  0
 35 34  1  0  0  0  0
 35 37  1  0  0  0  0
 37 36  1  0  0  0  0
 38  2  1  0  0  0  0
 39 38  1  0  0  0  0
 40 42  1  0  0  0  0
 40 39  1  0  0  0  0
 41 40  2  0  0  0  0
M  END
>  <MODEL>
5

>  <REMARK>
 VINA RESULT:      -5.3      2.206      3.231
  Name = 
  21 active torsions:
  status: ('A' for Active; 'I' for Inactive)
    1  A    between atoms: C_3  and  O_8
    2  A    between atoms: C_7  and  C_19
    3  A    between atoms: O_8  and  C_33
    4  A    between atoms: C_9  and  C_10
    5  A    between atoms: C_10  and  C_26
    6  A    between atoms: C_12  and  C_41
    7  A    between atoms: C_13  and  C_34
    8  A    between atoms: C_17  and  C_26
    9  A    between atoms: C_18  and  C_23
   10  A    between atoms: C_18  and  N_39
   11  A    between atoms: C_18  and  CA_42
   12  A    between atoms: C_19  and  C_30
   13  A    between atoms: C_20  and  O_37
   14  A    between atoms: C_20  and  C_41
   15  A    between atoms: C_24  and  C_33
   16  A    between atoms: C_24  and  C_38
   17  A    between atoms: C_28  and  C_31
   18  A    between atoms: C_30  and  C_32
   19  A    between atoms: C_31  and  C_32
   20  A    between atoms: C_31  and  O_37
   21  A    between atoms: C_32  and  C_34
                            x       y       z     vdW  Elec       q    Type
                         _______ _______ _______ _____ _____    ______ ____

>  <TORSDO>
F 21

$$$$
=
 OpenBabel11062419403D

 42 43  0  0  1  0  0  0  0  0999 V2000
  188.1430  177.5520  144.4000 C   0  0  0  0  0  3  0  0  0  0  0  0
  188.8320  177.0750  145.4460 C   0  0  0  0  0  0  0  0  0  0  0  0
  192.4490  176.9330  144.3220 C   0  0  0  0  0  3  0  0  0  0  0  0
  193.0380  176.1710  145.3380 C   0  0  0  0  0  0  0  0  0  0  0  0
  191.0830  177.2100  144.3610 C   0  0  0  0  0  3  0  0  0  0  0  0
  190.8740  175.9190  146.3930 C   0  0  0  0  0  3  0  0  0  0  0  0
  192.2420  175.6480  146.3610 C   0  0  0  0  0  3  0  0  0  0  0  0
  190.2810  176.7290  145.4090 C   0  0  0  0  0  0  0  0  0  0  0  0
  194.5130  175.9260  145.3620 C   0  0  0  0  0  2  0  0  0  0  0  0
  196.2080  174.4270  146.1340 O   0  0  0  0  0  1  0  0  0  0  0  0
  194.8600  174.4950  145.7790 C   0  0  2  0  0  3  0  0  0  0  0  0
  194.9320  173.7240  143.5140 O   0  0  0  0  0  0  0  0  0  0  0  0
  194.5640  173.5030  144.7000 C   0  0  0  0  0  0  0  0  0  0  0  0
  193.8310  172.3190  145.0270 N   0  0  0  0  0  2  0  0  0  0  0  0
  193.3250  171.3840  144.0290 C   0  0  2  0  0  3  0  0  0  0  0  0
  191.0040  173.7620  143.6210 O   0  0  0  0  0  0  0  0  0  0  0  0
  191.2850  172.5380  143.5420 C   0  0  0  0  0  0  0  0  0  0  0  0
  191.3010  171.2140  142.7720 N   0  0  0  0  0  2  0  0  0  0  0  0
  191.8010  171.3620  144.0690 C   0  0  1  0  0  3  0  0  0  0  0  0
  192.9850  168.9810  144.6520 O   0  0  0  0  0  1  0  0  0  0  0  0
  195.0720  169.7590  144.1120 O   0  0  0  0  0  0  0  0  0  0  0  0
  193.8500  170.0070  144.2860 C   0  0  0  0  0  0  0  0  0  0  0  0
  188.6740  177.8240  143.0230 C   0  0  0  0  0  2  0  0  0  0  0  0
  188.0720  176.9390  141.9230 C   0  0  2  0  0  3  0  0  0  0  0  0
  186.7290  177.4390  141.3680 C   0  0  2  0  0  3  0  0  0  0  0  0
  186.1710  176.8350  139.1540 O   0  0  0  0  0  0  0  0  0  0  0  0
  186.7590  177.6190  139.8810 C   0  0  0  0  0  3  0  0  0  0  0  0
  186.3810  178.6440  141.9900 O   0  0  0  0  0  0  0  0  0  0  0  0
  185.0080  178.5500  142.2340 C   0  0  0  0  0  2  0  0  0  0  0  0
  184.7670  177.9020  143.5860 C   0  0  0  0  0  2  0  0  0  0  0  0
  185.4790  179.9080  144.6570 O   0  0  0  0  0  0  0  0  0  0  0  0
  184.6600  178.9520  144.6350 C   0  0  0  0  0  0  0  0  0  0  0  0
  183.6340  178.8980  145.5700 O   0  0  0  0  0  1  0  0  0  0  0  0
  188.1010  175.4500  142.2620 C   0  0  0  0  0  2  0  0  0  0  0  0
  188.7610  174.6470  141.1500 C   0  0  0  0  0  2  0  0  0  0  0  0
  188.2920  172.6590  139.7090 C   0  0  0  0  0  1  0  0  0  0  0  0
  188.2470  173.2150  141.1200 C   0  0  0  0  0  2  0  0  0  0  0  0
  188.0420  176.8230  146.6930 C   0  0  0  0  0  2  0  0  0  0  0  0
  187.7850  178.0330  147.3980 O   0  0  0  0  0  0  0  0  0  0  0  0
  186.4980  178.4260  147.7700 C   0  0  0  0  0  0  0  0  0  0  0  0
  185.5810  177.5780  147.9300 O   0  0  0  0  0  0  0  0  0  0  0  0
  186.2310  179.7420  147.9560 F   0  0  0  0  0  0  0  0  0  0  0  0
  1  2  2  0  0  0  0
  2 38  1  0  0  0  0
  3  5  2  0  0  0  0
  3  4  1  0  0  0  0
  4  9  1  0  0  0  0
  4  7  2  0  0  0  0
  5  8  1  0  0  0  0
  7  6  1  0  0  0  0
  8  2  1  0  0  0  0
  8  6  2  0  0  0  0
  9 11  1  0  0  0  0
 11 10  1  6  0  0  0
 12 13  2  0  0  0  0
 13 14  1  0  0  0  0
 13 11  1  0  0  0  0
 15 22  1  1  0  0  0
 15 14  1  0  0  0  0
 17 16  2  0  0  0  0
 17 19  1  0  0  0  0
 18 17  1  0  0  0  0
 18 19  1  0  0  0  0
 19 15  1  6  0  0  0
 21 22  2  0  0  0  0
 22 20  1  0  0  0  0
 23  1  1  0  0  0  0
 24 34  1  1  0  0  0
 24 23  1  0  0  0  0
 25 27  1  6  0  0  0
 25 24  1  0  0  0  0
 25 28  1  0  0  0  0
 26 27  2  0  0  0  0
 28 29  1  0  0  0  0
 29 30  1  0  0  0  0
 30 32  1  0  0  0  0
 32 31  2  0  0  0  0
 32 33  1  0  0  0  0
 35 34  1  0  0  0  0
 36 37  1  0  0  0  0
 37 35  1  0  0  0  0
 38 39  1  0  0  0  0
 39 40  1  0  0  0  0
 40 41  2  0  0  0  0
 40 42  1  0  0  0  0
M  END
>  <MODEL>
6

>  <REMARK>
 VINA RESULT:      -5.3      2.937      5.622
  Name = 
  21 active torsions:
  status: ('A' for Active; 'I' for Inactive)
    1  A    between atoms: C_3  and  O_8
    2  A    between atoms: C_7  and  C_19
    3  A    between atoms: O_8  and  C_33
    4  A    between atoms: C_9  and  C_10
    5  A    between atoms: C_10  and  C_26
    6  A    between atoms: C_12  and  C_41
    7  A    between atoms: C_13  and  C_34
    8  A    between atoms: C_17  and  C_26
    9  A    between atoms: C_18  and  C_23
   10  A    between atoms: C_18  and  N_39
   11  A    between atoms: C_18  and  CA_42
   12  A    between atoms: C_19  and  C_30
   13  A    between atoms: C_20  and  O_37
   14  A    between atoms: C_20  and  C_41
   15  A    between atoms: C_24  and  C_33
   16  A    between atoms: C_24  and  C_38
   17  A    between atoms: C_28  and  C_31
   18  A    between atoms: C_30  and  C_32
   19  A    between atoms: C_31  and  C_32
   20  A    between atoms: C_31  and  O_37
   21  A    between atoms: C_32  and  C_34
                            x       y       z     vdW  Elec       q    Type
                         _______ _______ _______ _____ _____    ______ ____

>  <TORSDO>
F 21

$$$$
=
 OpenBabel11062419403D

 42 43  0  0  1  0  0  0  0  0999 V2000
  188.0960  177.7720  144.7600 C   0  0  0  0  0  3  0  0  0  0  0  0
  189.1750  177.1690  145.2800 C   0  0  0  0  0  0  0  0  0  0  0  0
  192.1220  175.7050  143.3990 C   0  0  0  0  0  3  0  0  0  0  0  0
  191.7190  174.3770  143.2190 C   0  0  0  0  0  0  0  0  0  0  0  0
  191.2840  176.6050  144.0580 C   0  0  0  0  0  3  0  0  0  0  0  0
  189.6150  174.8760  144.3080 C   0  0  0  0  0  3  0  0  0  0  0  0
  190.4550  173.9710  143.6570 C   0  0  0  0  0  3  0  0  0  0  0  0
  190.0310  176.1970  144.5440 C   0  0  0  0  0  0  0  0  0  0  0  0
  192.6300  173.3740  142.5860 C   0  0  0  0  0  2  0  0  0  0  0  0
  193.2770  173.1570  144.8770 O   0  0  0  0  0  1  0  0  0  0  0  0
  193.6410  172.7960  143.5790 C   0  0  2  0  0  3  0  0  0  0  0  0
  196.0100  172.7430  143.9150 O   0  0  0  0  0  0  0  0  0  0  0  0
  195.0370  173.2500  143.2930 C   0  0  0  0  0  0  0  0  0  0  0  0
  195.2480  174.2870  142.3320 N   0  0  0  0  0  2  0  0  0  0  0  0
  196.5360  174.9350  142.1150 C   0  0  2  0  0  3  0  0  0  0  0  0
  195.2650  176.6980  144.6610 O   0  0  0  0  0  0  0  0  0  0  0  0
  196.0850  176.6630  143.7080 C   0  0  0  0  0  0  0  0  0  0  0  0
  197.4970  176.8620  143.1470 N   0  0  0  0  0  2  0  0  0  0  0  0
  196.4130  176.4310  142.3790 C   0  0  1  0  0  3  0  0  0  0  0  0
  197.5650  173.4940  140.3420 O   0  0  0  0  0  1  0  0  0  0  0  0
  196.8400  175.6100  139.8460 O   0  0  0  0  0  0  0  0  0  0  0  0
  197.0060  174.7130  140.7120 C   0  0  0  0  0  0  0  0  0  0  0  0
  187.5500  177.5940  143.3730 C   0  0  0  0  0  2  0  0  0  0  0  0
  186.0940  178.0460  143.2010 C   0  0  2  0  0  3  0  0  0  0  0  0
  185.4450  177.6130  141.8770 C   0  0  2  0  0  3  0  0  0  0  0  0
  186.8260  177.9270  139.9870 O   0  0  0  0  0  0  0  0  0  0  0  0
  186.4570  177.1660  140.8670 C   0  0  0  0  0  3  0  0  0  0  0  0
  184.6840  178.6680  141.3590 O   0  0  0  0  0  0  0  0  0  0  0  0
  183.4410  178.1080  141.0490 C   0  0  0  0  0  2  0  0  0  0  0  0
  182.4040  178.5600  142.0620 C   0  0  0  0  0  2  0  0  0  0  0  0
  180.1590  177.8760  141.6450 O   0  0  0  0  0  1  0  0  0  0  0  0
  181.0790  178.6980  141.3970 C   0  0  0  0  0  0  0  0  0  0  0  0
  180.8450  179.7570  140.5290 O   0  0  0  0  0  0  0  0  0  0  0  0
  185.8690  179.5120  143.5660 C   0  0  0  0  0  2  0  0  0  0  0  0
  184.8070  179.6520  144.6480 C   0  0  0  0  0  2  0  0  0  0  0  0
  184.4320  178.0070  146.4920 C   0  0  0  0  0  1  0  0  0  0  0  0
  185.3110  179.1360  145.9880 C   0  0  0  0  0  2  0  0  0  0  0  0
  189.4610  177.4660  146.7200 C   0  0  0  0  0  2  0  0  0  0  0  0
  189.8620  176.2930  147.4210 O   0  0  0  0  0  0  0  0  0  0  0  0
  191.1750  176.0860  147.8500 C   0  0  0  0  0  0  0  0  0  0  0  0
  191.6350  174.9230  147.9930 O   0  0  0  0  0  0  0  0  0  0  0  0
  191.9630  177.1550  148.1210 F   0  0  0  0  0  0  0  0  0  0  0  0
  1  2  2  0  0  0  0
  2 38  1  0  0  0  0
  3  5  1  0  0  0  0
  4  3  2  0  0  0  0
  4  7  1  0  0  0  0
  5  8  2  0  0  0  0
  6  8  1  0  0  0  0
  7  6  2  0  0  0  0
  8  2  1  0  0  0  0
  9  4  1  0  0  0  0
  9 11  1  0  0  0  0
 11 10  1  1  0  0  0
 13 11  1  0  0  0  0
 13 12  2  0  0  0  0
 14 13  1  0  0  0  0
 15 22  1  6  0  0  0
 15 14  1  0  0  0  0
 17 16  2  0  0  0  0
 18 17  1  0  0  0  0
 19 15  1  1  0  0  0
 19 18  1  0  0  0  0
 19 17  1  0  0  0  0
 20 22  1  0  0  0  0
 21 22  2  0  0  0  0
 23  1  1  0  0  0  0
 24 23  1  6  0  0  0
 24 34  1  0  0  0  0
 25 27  1  6  0  0  0
 25 24  1  0  0  0  0
 26 27  2  0  0  0  0
 28 25  1  0  0  0  0
 29 28  1  0  0  0  0
 29 30  1  0  0  0  0
 32 31  1  0  0  0  0
 32 30  1  0  0  0  0
 33 32  2  0  0  0  0
 34 35  1  0  0  0  0
 35 37  1  0  0  0  0
 37 36  1  0  0  0  0
 38 39  1  0  0  0  0
 39 40  1  0  0  0  0
 40 41  2  0  0  0  0
 40 42  1  0  0  0  0
M  END
>  <MODEL>
7

>  <REMARK>
 VINA RESULT:      -5.1      2.531      4.524
  Name = 
  21 active torsions:
  status: ('A' for Active; 'I' for Inactive)
    1  A    between atoms: C_3  and  O_8
    2  A    between atoms: C_7  and  C_19
    3  A    between atoms: O_8  and  C_33
    4  A    between atoms: C_9  and  C_10
    5  A    between atoms: C_10  and  C_26
    6  A    between atoms: C_12  and  C_41
    7  A    between atoms: C_13  and  C_34
    8  A    between atoms: C_17  and  C_26
    9  A    between atoms: C_18  and  C_23
   10  A    between atoms: C_18  and  N_39
   11  A    between atoms: C_18  and  CA_42
   12  A    between atoms: C_19  and  C_30
   13  A    between atoms: C_20  and  O_37
   14  A    between atoms: C_20  and  C_41
   15  A    between atoms: C_24  and  C_33
   16  A    between atoms: C_24  and  C_38
   17  A    between atoms: C_28  and  C_31
   18  A    between atoms: C_30  and  C_32
   19  A    between atoms: C_31  and  C_32
   20  A    between atoms: C_31  and  O_37
   21  A    between atoms: C_32  and  C_34
                            x       y       z     vdW  Elec       q    Type
                         _______ _______ _______ _____ _____    ______ ____

>  <TORSDO>
F 21

$$$$
=
 OpenBabel11062419403D

 42 43  0  0  1  0  0  0  0  0999 V2000
  194.7880  173.4960  145.4660 C   0  0  0  0  0  3  0  0  0  0  0  0
  194.1410  174.6530  145.6720 C   0  0  0  0  0  0  0  0  0  0  0  0
  190.9770  175.5430  147.5590 C   0  0  0  0  0  3  0  0  0  0  0  0
  189.9830  175.0490  146.7060 C   0  0  0  0  0  0  0  0  0  0  0  0
  192.3220  175.3980  147.2200 C   0  0  0  0  0  3  0  0  0  0  0  0
  191.6930  174.2160  145.2090 C   0  0  0  0  0  3  0  0  0  0  0  0
  190.3460  174.3670  145.5420 C   0  0  0  0  0  3  0  0  0  0  0  0
  192.6980  174.7560  146.0280 C   0  0  0  0  0  0  0  0  0  0  0  0
  188.5330  175.2600  147.0080 C   0  0  0  0  0  2  0  0  0  0  0  0
  186.8340  176.9030  147.3630 O   0  0  0  0  0  1  0  0  0  0  0  0
  188.1030  176.7160  146.8140 C   0  0  2  0  0  3  0  0  0  0  0  0
  188.8640  178.0410  144.9720 O   0  0  0  0  0  0  0  0  0  0  0  0
  188.1030  177.1200  145.3740 C   0  0  0  0  0  0  0  0  0  0  0  0
  187.2050  176.4690  144.4710 N   0  0  0  0  0  2  0  0  0  0  0  0
  186.9850  176.9100  143.0980 C   0  0  2  0  0  3  0  0  0  0  0  0
  184.9610  179.4190  143.9990 O   0  0  0  0  0  0  0  0  0  0  0  0
  185.1920  178.4930  143.1790 C   0  0  0  0  0  0  0  0  0  0  0  0
  185.3360  177.9800  141.7430 N   0  0  0  0  0  2  0  0  0  0  0  0
  185.5010  177.1750  142.8730 C   0  0  1  0  0  3  0  0  0  0  0  0
  187.0590  174.5450  142.2740 O   0  0  0  0  0  1  0  0  0  0  0  0
  188.1710  176.2040  141.1500 O   0  0  0  0  0  0  0  0  0  0  0  0
  187.4580  175.8700  142.1310 C   0  0  0  0  0  0  0  0  0  0  0  0
  194.2070  172.1150  145.5520 C   0  0  0  0  0  2  0  0  0  0  0  0
  194.7390  171.1350  144.4990 C   0  0  2  0  0  3  0  0  0  0  0  0
  193.8610  171.0090  143.2440 C   0  0  2  0  0  3  0  0  0  0  0  0
  195.3920  172.4400  142.1530 O   0  0  0  0  0  0  0  0  0  0  0  0
  194.2660  171.9690  142.1670 C   0  0  0  0  0  3  0  0  0  0  0  0
  192.5190  171.2110  143.5870 O   0  0  0  0  0  0  0  0  0  0  0  0
  191.7850  170.4860  142.6440 C   0  0  0  0  0  2  0  0  0  0  0  0
  190.4240  171.1290  142.4430 C   0  0  0  0  0  2  0  0  0  0  0  0
  189.7390  173.0000  141.1360 O   0  0  0  0  0  1  0  0  0  0  0  0
  190.4360  171.9540  141.2040 C   0  0  0  0  0  0  0  0  0  0  0  0
  191.2440  171.5900  140.1340 O   0  0  0  0  0  0  0  0  0  0  0  0
  195.1930  169.8010  145.0890 C   0  0  0  0  0  2  0  0  0  0  0  0
  196.4570  169.9710  145.9210 C   0  0  0  0  0  2  0  0  0  0  0  0
  194.9360  168.7310  147.4680 C   0  0  0  0  0  1  0  0  0  0  0  0
  196.3500  169.2340  147.2480 C   0  0  0  0  0  2  0  0  0  0  0  0
  194.9400  175.9000  145.4480 C   0  0  0  0  0  2  0  0  0  0  0  0
  195.8850  175.7280  144.3970 O   0  0  0  0  0  0  0  0  0  0  0  0
  195.5630  175.9440  143.0550 C   0  0  0  0  0  0  0  0  0  0  0  0
  196.4270  175.7990  142.1500 O   0  0  0  0  0  0  0  0  0  0  0  0
  194.3040  176.3200  142.7240 F   0  0  0  0  0  0  0  0  0  0  0  0
  1 23  1  0  0  0  0
  1  2  2  0  0  0  0
  2  8  1  0  0  0  0
  4  9  1  0  0  0  0
  4  3  2  0  0  0  0
  5  3  1  0  0  0  0
  6  7  2  0  0  0  0
  6  8  1  0  0  0  0
  7  4  1  0  0  0  0
  8  5  2  0  0  0  0
 11  9  1  0  0  0  0
 11 10  1  6  0  0  0
 12 13  2  0  0  0  0
 13 11  1  0  0  0  0
 14 13  1  0  0  0  0
 15 22  1  6  0  0  0
 15 14  1  0  0  0  0
 17 16  2  0  0  0  0
 18 19  1  0  0  0  0
 18 17  1  0  0  0  0
 19 15  1  1  0  0  0
 19 17  1  0  0  0  0
 21 22  2  0  0  0  0
 22 20  1  0  0  0  0
 24 34  1  1  0  0  0
 24 23  1  0  0  0  0
 25 27  1  6  0  0  0
 25 28  1  0  0  0  0
 25 24  1  0  0  0  0
 26 27  2  0  0  0  0
 29 28  1  0  0  0  0
 30 29  1  0  0  0  0
 31 32  1  0  0  0  0
 32 30  1  0  0  0  0
 33 32  2  0  0  0  0
 34 35  1  0  0  0  0
 35 37  1  0  0  0  0
 37 36  1  0  0  0  0
 38  2  1  0  0  0  0
 39 38  1  0  0  0  0
 40 39  1  0  0  0  0
 41 40  2  0  0  0  0
 42 40  1  0  0  0  0
M  END
>  <MODEL>
8

>  <REMARK>
 VINA RESULT:      -5.1      3.297      8.712
  Name = 
  21 active torsions:
  status: ('A' for Active; 'I' for Inactive)
    1  A    between atoms: C_3  and  O_8
    2  A    between atoms: C_7  and  C_19
    3  A    between atoms: O_8  and  C_33
    4  A    between atoms: C_9  and  C_10
    5  A    between atoms: C_10  and  C_26
    6  A    between atoms: C_12  and  C_41
    7  A    between atoms: C_13  and  C_34
    8  A    between atoms: C_17  and  C_26
    9  A    between atoms: C_18  and  C_23
   10  A    between atoms: C_18  and  N_39
   11  A    between atoms: C_18  and  CA_42
   12  A    between atoms: C_19  and  C_30
   13  A    between atoms: C_20  and  O_37
   14  A    between atoms: C_20  and  C_41
   15  A    between atoms: C_24  and  C_33
   16  A    between atoms: C_24  and  C_38
   17  A    between atoms: C_28  and  C_31
   18  A    between atoms: C_30  and  C_32
   19  A    between atoms: C_31  and  C_32
   20  A    between atoms: C_31  and  O_37
   21  A    between atoms: C_32  and  C_34
                            x       y       z     vdW  Elec       q    Type
                         _______ _______ _______ _____ _____    ______ ____

>  <TORSDO>
F 21

$$$$
=
 OpenBabel11062419403D

 42 43  0  0  1  0  0  0  0  0999 V2000
  189.9200  175.6270  147.0450 C   0  0  0  0  0  3  0  0  0  0  0  0
  190.8810  174.9820  146.3690 C   0  0  0  0  0  0  0  0  0  0  0  0
  189.6050  172.4930  143.8110 C   0  0  0  0  0  3  0  0  0  0  0  0
  190.1730  172.9780  142.6270 C   0  0  0  0  0  0  0  0  0  0  0  0
  189.8510  173.1430  145.0200 C   0  0  0  0  0  3  0  0  0  0  0  0
  191.2780  174.7270  143.8840 C   0  0  0  0  0  3  0  0  0  0  0  0
  191.0260  174.0840  142.6710 C   0  0  0  0  0  3  0  0  0  0  0  0
  190.6700  174.2830  145.0690 C   0  0  0  0  0  0  0  0  0  0  0  0
  189.8620  172.3460  141.3070 C   0  0  0  0  0  2  0  0  0  0  0  0
  191.8770  171.1070  141.6490 O   0  0  0  0  0  1  0  0  0  0  0  0
  190.5920  171.0160  141.1120 C   0  0  2  0  0  3  0  0  0  0  0  0
  190.5810  169.4020  139.3440 O   0  0  0  0  0  0  0  0  0  0  0  0
  190.6660  170.6160  139.6720 C   0  0  0  0  0  0  0  0  0  0  0  0
  190.8690  171.6270  138.6810 N   0  0  0  0  0  2  0  0  0  0  0  0
  191.1450  171.3350  137.2790 C   0  0  2  0  0  3  0  0  0  0  0  0
  192.2050  174.5100  137.2110 O   0  0  0  0  0  0  0  0  0  0  0  0
  192.5190  173.2950  137.3040 C   0  0  0  0  0  0  0  0  0  0  0  0
  193.2700  172.1550  137.9970 N   0  0  0  0  0  2  0  0  0  0  0  0
  192.4650  171.9780  136.8690 C   0  0  1  0  0  3  0  0  0  0  0  0
  189.0410  172.6530  136.9460 O   0  0  0  0  0  1  0  0  0  0  0  0
  190.0610  171.6220  135.1720 O   0  0  0  0  0  0  0  0  0  0  0  0
  190.0460  171.8550  136.4080 C   0  0  0  0  0  0  0  0  0  0  0  0
  188.4820  175.7710  146.6420 C   0  0  0  0  0  2  0  0  0  0  0  0
  188.1900  176.9880  145.7530 C   0  0  2  0  0  3  0  0  0  0  0  0
  187.0760  177.9070  146.2770 C   0  0  2  0  0  3  0  0  0  0  0  0
  185.5270  177.5990  148.0330 O   0  0  0  0  0  0  0  0  0  0  0  0
  186.6990  177.5950  147.6930 C   0  0  0  0  0  3  0  0  0  0  0  0
  185.9530  177.8050  145.4480 O   0  0  0  0  0  0  0  0  0  0  0  0
  185.5590  179.1220  145.1970 C   0  0  0  0  0  2  0  0  0  0  0  0
  185.5390  179.3790  143.7010 C   0  0  0  0  0  2  0  0  0  0  0  0
  183.4180  178.6290  142.9130 O   0  0  0  0  0  1  0  0  0  0  0  0
  184.6490  178.3910  143.0330 C   0  0  0  0  0  0  0  0  0  0  0  0
  185.1810  177.2200  142.5080 O   0  0  0  0  0  0  0  0  0  0  0  0
  188.0760  176.6390  144.2700 C   0  0  0  0  0  2  0  0  0  0  0  0
  189.0120  177.4970  143.4300 C   0  0  0  0  0  2  0  0  0  0  0  0
  191.3530  178.3550  143.6030 C   0  0  0  0  0  1  0  0  0  0  0  0
  190.0110  178.2430  144.3020 C   0  0  0  0  0  2  0  0  0  0  0  0
  192.2230  174.9220  147.0320 C   0  0  0  0  0  2  0  0  0  0  0  0
  192.9120  176.1630  146.9200 O   0  0  0  0  0  0  0  0  0  0  0  0
  194.1510  176.2800  146.2860 C   0  0  0  0  0  0  0  0  0  0  0  0
  194.3980  177.2460  145.5180 O   0  0  0  0  0  0  0  0  0  0  0  0
  195.0990  175.3340  146.4980 F   0  0  0  0  0  0  0  0  0  0  0  0
  2 38  1  0  0  0  0
  2  1  2  0  0  0  0
  3  5  1  0  0  0  0
  4  7  1  0  0  0  0
  4  3  2  0  0  0  0
  5  8  2  0  0  0  0
  6  8  1  0  0  0  0
  7  6  2  0  0  0  0
  8  2  1  0  0  0  0
  9  4  1  0  0  0  0
 11  9  1  0  0  0  0
 11 10  1  6  0  0  0
 12 13  2  0  0  0  0
 13 11  1  0  0  0  0
 14 13  1  0  0  0  0
 15 22  1  6  0  0  0
 15 14  1  0  0  0  0
 16 17  2  0  0  0  0
 17 18  1  0  0  0  0
 19 15  1  1  0  0  0
 19 17  1  0  0  0  0
 19 18  1  0  0  0  0
 21 22  2  0  0  0  0
 22 20  1  0  0  0  0
 23  1  1  0  0  0  0
 24 34  1  6  0  0  0
 24 25  1  0  0  0  0
 24 23  1  0  0  0  0
 25 27  1  1  0  0  0
 27 26  2  0  0  0  0
 28 25  1  0  0  0  0
 29 28  1  0  0  0  0
 30 29  1  0  0  0  0
 31 32  1  0  0  0  0
 32 30  1  0  0  0  0
 33 32  2  0  0  0  0
 35 34  1  0  0  0  0
 35 37  1  0  0  0  0
 36 37  1  0  0  0  0
 39 38  1  0  0  0  0
 40 42  1  0  0  0  0
 40 39  1  0  0  0  0
 41 40  2  0  0  0  0
M  END
>  <MODEL>
9

>  <REMARK>
 VINA RESULT:      -5.1      3.519      5.663
  Name = 
  21 active torsions:
  status: ('A' for Active; 'I' for Inactive)
    1  A    between atoms: C_3  and  O_8
    2  A    between atoms: C_7  and  C_19
    3  A    between atoms: O_8  and  C_33
    4  A    between atoms: C_9  and  C_10
    5  A    between atoms: C_10  and  C_26
    6  A    between atoms: C_12  and  C_41
    7  A    between atoms: C_13  and  C_34
    8  A    between atoms: C_17  and  C_26
    9  A    between atoms: C_18  and  C_23
   10  A    between atoms: C_18  and  N_39
   11  A    between atoms: C_18  and  CA_42
   12  A    between atoms: C_19  and  C_30
   13  A    between atoms: C_20  and  O_37
   14  A    between atoms: C_20  and  C_41
   15  A    between atoms: C_24  and  C_33
   16  A    between atoms: C_24  and  C_38
   17  A    between atoms: C_28  and  C_31
   18  A    between atoms: C_30  and  C_32
   19  A    between atoms: C_31  and  C_32
   20  A    between atoms: C_31  and  O_37
   21  A    between atoms: C_32  and  C_34
                            x       y       z     vdW  Elec       q    Type
                         _______ _______ _______ _____ _____    ______ ____

>  <TORSDO>
F 21

$$$$
