=
 OpenBabel11072409383D

 63 70  0  0  1  0  0  0  0  0999 V2000
  192.5630  172.1690  141.2790 N   0  0  0  0  0  2  0  0  0  0  0  0
  190.4040  176.8910  146.1680 C   0  0  0  0  0  2  0  0  0  0  0  0
  189.3960  175.1620  145.2800 C   0  0  2  0  0  3  0  0  0  0  0  0
  187.3260  175.5840  139.0550 O   0  0  0  0  0  1  0  0  0  0  0  0
  191.4470  170.0460  141.9720 C   0  0  0  0  0  0  0  0  0  0  0  0
  194.1360  173.1310  143.0880 C   0  0  0  0  0  2  0  0  0  0  0  0
  190.2700  176.6440  143.5900 C   0  0  1  0  0  3  0  0  0  0  0  0
  191.6850  168.8850  142.7130 O   0  0  0  0  0  1  0  0  0  0  0  0
  189.0990  173.7060  141.8070 C   0  0  2  0  0  3  0  0  0  0  0  0
  187.6670  175.2470  140.3680 C   0  0  2  0  0  3  0  0  0  0  0  0
  189.9700  175.1420  143.8550 C   0  0  2  0  0  0  0  0  0  0  0  0
  188.8190  174.7930  142.8810 C   0  0  1  0  0  3  0  0  0  0  0  0
  191.2770  174.3110  143.7050 C   0  0  2  0  0  3  0  0  0  0  0  0
  188.4810  176.2380  140.9250 O   0  0  0  0  0  0  0  0  0  0  0  0
  188.3850  173.8960  140.4480 C   0  0  1  0  0  3  0  0  0  0  0  0
  192.3450  172.3280  144.7110 C   0  0  0  0  0  3  0  0  0  0  0  0
  188.8420  172.4300  142.3280 O   0  0  0  0  0  0  0  0  0  0  0  0
  188.9940  177.2650  143.0140 C   0  0  1  0  0  3  0  0  0  0  0  0
  190.5860  175.4500  146.1160 N   0  0  2  0  0  0  0  0  0  0  0  0
  190.8820  177.4380  144.7970 C   0  0  0  0  0  2  0  0  0  0  0  0
  189.7280  171.5720  141.6650 C   0  0  0  0  0  2  0  0  0  0  0  0
  189.5970  174.4360  146.5160 C   0  0  1  0  0  3  0  0  0  0  0  0
  193.6800  172.9950  144.5480 C   0  0  1  0  0  3  0  0  0  0  0  0
  188.2780  176.1260  142.3070 C   0  0  2  0  0  3  0  0  0  0  0  0
  191.9290  174.3780  142.3100 C   0  0  0  0  0  2  0  0  0  0  0  0
  193.0320  173.3480  142.0280 C   0  0  2  0  0  3  0  0  0  0  0  0
  191.1490  169.6610  140.6520 O   0  0  0  0  0  1  0  0  0  0  0  0
  192.7320  170.9070  142.0070 C   0  0  1  0  0  3  0  0  0  0  0  0
  190.3580  170.7190  142.5850 O   0  0  0  0  0  0  0  0  0  0  0  0
  191.2230  172.9360  144.3140 C   0  0  0  0  0  3  0  0  0  0  0  0
  188.6990  174.9690  147.6230 C   0  0  0  0  0  2  0  0  0  0  0  0
  187.6610  175.8290  147.0650 N   0  0  0  0  0  1  0  0  0  0  0  0
  193.8900  170.1370  141.4330 C   0  0  0  0  0  3  0  0  0  0  0  0
  194.6540  170.6360  140.4620 C   0  0  0  0  0  2  0  0  0  0  0  0
  194.7370  172.2220  145.3140 C   0  0  0  0  0  2  0  0  0  0  0  0
  196.1370  172.7190  144.9840 C   0  0  2  0  0  3  0  0  0  0  0  0
  197.1220  171.8480  145.5380 O   0  0  0  0  0  0  0  0  0  0  0  0
  197.1840  170.1490  143.9690 O   0  0  0  0  0  0  0  0  0  0  0  0
  197.2120  170.4990  145.1810 C   0  0  0  0  0  0  0  0  0  0  0  0
  197.3030  169.5240  146.1740 O   0  0  0  0  0  0  0  0  0  0  0  0
  195.3660  168.7400  146.7860 C   0  0  0  0  0  1  0  0  0  0  0  0
  196.4520  169.5100  147.2090 O   0  0  0  0  0  0  0  0  0  0  0  0
  196.2900  174.1460  145.5240 C   0  0  0  0  0  2  0  0  0  0  0  0
  195.9640  175.1750  144.5300 N   0  0  0  0  0  0  0  0  0  0  0  0
  194.1400  176.7790  144.6480 C   0  0  0  0  0  2  0  0  0  0  0  0
  194.1910  176.0460  145.9710 C   0  0  0  0  0  2  0  0  0  0  0  0
  195.4800  176.3640  145.2300 C   0  0  0  0  0  3  0  0  0  0  0  0
  197.1420  175.5340  143.7210 C   0  0  0  0  0  2  0  0  0  0  0  0
  197.2230  174.8060  142.3760 C   0  0  0  0  0  2  0  0  0  0  0  0
  197.2590  175.0540  139.9990 C   0  0  0  0  0  2  0  0  0  0  0  0
  194.9070  176.2000  140.9850 C   0  0  0  0  0  2  0  0  0  0  0  0
  197.3450  175.7650  141.2830 N   0  0  0  0  0  0  0  0  0  0  0  0
  196.0110  174.4210  139.8440 O   0  0  0  0  0  0  0  0  0  0  0  0
  195.0730  175.4470  139.6740 C   0  0  0  0  0  2  0  0  0  0  0  0
  196.2680  176.7630  141.3910 C   0  0  0  0  0  2  0  0  0  0  0  0
  188.0770  177.8400  144.0950 C   0  0  0  0  0  2  0  0  0  0  0  0
  186.6260  177.4770  143.8380 C   0  0  0  0  0  2  0  0  0  0  0  0
  185.4690  178.5460  141.8700 N   0  0  0  0  0  1  0  0  0  0  0  0
  185.9180  178.6300  143.2190 C   0  0  0  0  0  0  0  0  0  0  0  0
  185.6830  179.6660  143.8960 O   0  0  0  0  0  0  0  0  0  0  0  0
  189.4290  173.7460  139.3420 C   0  0  0  0  0  2  0  0  0  0  0  0
  188.9730  172.7390  138.2920 C   0  0  0  0  0  2  0  0  0  0  0  0
  189.2580  173.2570  136.8940 C   0  0  0  0  0  1  0  0  0  0  0  0
  1 28  1  0  0  0  0
  1 26  1  0  0  0  0
  3 19  1  0  0  0  0
  3 22  1  0  0  0  0
  4 10  1  0  0  0  0
  5 28  1  0  0  0  0
  5 29  1  0  0  0  0
  5  8  1  0  0  0  0
  6 23  1  0  0  0  0
  7 11  1  0  0  0  0
  7 20  1  0  0  0  0
  9 17  1  0  0  0  0
  9 12  1  0  0  0  0
 10 15  1  0  0  0  0
 10 14  1  0  0  0  0
 11  3  1  0  0  0  0
 12 11  1  0  0  0  0
 13 11  1  0  0  0  0
 13 30  1  0  0  0  0
 14 24  1  0  0  0  0
 15  9  1  0  0  0  0
 18  7  1  0  0  0  0
 18 56  1  0  0  0  0
 19  2  1  0  0  0  0
 19 22  1  0  0  0  0
 20  2  1  0  0  0  0
 21 17  1  0  0  0  0
 21 29  1  0  0  0  0
 22 31  1  0  0  0  0
 23 16  1  0  0  0  0
 23 35  1  0  0  0  0
 24 12  1  0  0  0  0
 24 18  1  0  0  0  0
 25 13  1  0  0  0  0
 26 25  1  0  0  0  0
 26  6  1  0  0  0  0
 27  5  1  0  0  0  0
 30 16  2  0  0  0  0
 32 31  1  0  0  0  0
 33 28  1  0  0  0  0
 34 33  2  0  0  0  0
 36 35  1  0  0  0  0
 36 43  1  0  0  0  0
 36 37  1  0  0  0  0
 38 39  2  0  0  0  0
 39 37  1  0  0  0  0
 39 40  1  0  0  0  0
 40 42  1  0  0  0  0
 41 42  1  0  0  0  0
 44 47  1  0  0  0  0
 44 43  1  0  0  0  0
 45 47  1  0  0  0  0
 45 46  1  0  0  0  0
 47 46  1  0  0  0  0
 48 44  1  0  0  0  0
 49 48  1  0  0  0  0
 50 52  1  0  0  0  0
 51 55  1  0  0  0  0
 52 55  1  0  0  0  0
 52 49  1  0  0  0  0
 53 50  1  0  0  0  0
 54 53  1  0  0  0  0
 54 51  1  0  0  0  0
 57 56  1  0  0  0  0
 58 59  1  0  0  0  0
 59 57  1  0  0  0  0
 59 60  2  0  0  0  0
 61 15  1  0  0  0  0
 62 61  1  0  0  0  0
 63 62  1  0  0  0  0
M  END
>  <MODEL>
1

>  <REMARK>
 VINA RESULT:      -6.7      0.000      0.000
  Name = 
  19 active torsions:
  status: ('A' for Active; 'I' for Inactive)
    1  A    between atoms: C_1  and  C_44
    2  A    between atoms: C_7  and  C_27
    3  A    between atoms: C_7  and  N_60
    4  A    between atoms: C_12  and  C_34
    5  A    between atoms: C_12  and  C_43
    6  A    between atoms: C_13  and  O_21
    7  A    between atoms: C_13  and  O_56
    8  A    between atoms: N_18  and  C_27
    9  A    between atoms: C_20  and  C_24
   10  A    between atoms: C_20  and  C_55
   11  A    between atoms: O_21  and  O_23
   12  A    between atoms: C_24  and  C_37
   13  A    between atoms: C_25  and  C_40
   14  A    between atoms: C_25  and  N_60
   15  A    between atoms: C_29  and  C_40
   16  A    between atoms: C_29  and  C_45
   17  A    between atoms: C_39  and  C_59
   18  A    between atoms: C_40  and  O_56
   19  A    between atoms: C_54  and  N_60
                            x       y       z     vdW  Elec       q    Type
                         _______ _______ _______ _____ _____    ______ ____

>  <TORSDO>
F 19

$$$$
=
 OpenBabel11072409383D

 63 70  0  0  1  0  0  0  0  0999 V2000
  191.2020  176.5320  144.7080 N   0  0  0  0  0  2  0  0  0  0  0  0
  192.0060  172.9120  138.6160 C   0  0  0  0  0  2  0  0  0  0  0  0
  192.3350  172.3300  140.7010 C   0  0  2  0  0  3  0  0  0  0  0  0
  197.5480  174.7870  143.8640 O   0  0  0  0  0  1  0  0  0  0  0  0
  190.4760  174.7900  146.3410 C   0  0  0  0  0  0  0  0  0  0  0  0
  189.5910  176.7860  142.7040 C   0  0  0  0  0  2  0  0  0  0  0  0
  193.4940  174.3750  140.1560 C   0  0  1  0  0  3  0  0  0  0  0  0
  189.3180  174.2420  146.9030 O   0  0  0  0  0  1  0  0  0  0  0  0
  193.8680  173.9620  143.7440 C   0  0  2  0  0  3  0  0  0  0  0  0
  196.3900  174.1420  143.4220 C   0  0  2  0  0  3  0  0  0  0  0  0
  192.7980  173.6480  141.3410 C   0  0  2  0  0  0  0  0  0  0  0  0
  193.9440  173.3230  142.3300 C   0  0  1  0  0  3  0  0  0  0  0  0
  191.6410  174.5310  141.8910 C   0  0  2  0  0  3  0  0  0  0  0  0
  196.0200  174.6210  142.1620 O   0  0  0  0  0  0  0  0  0  0  0  0
  195.2220  174.3250  144.3970 C   0  0  1  0  0  3  0  0  0  0  0  0
  189.3930  174.2510  142.8690 C   0  0  0  0  0  3  0  0  0  0  0  0
  193.1030  173.1580  144.6000 O   0  0  0  0  0  0  0  0  0  0  0  0
  194.9570  173.9230  140.1460 C   0  0  1  0  0  3  0  0  0  0  0  0
  191.2170  172.7580  139.8260 N   0  0  2  0  0  0  0  0  0  0  0  0
  192.7750  174.2510  138.7660 C   0  0  0  0  0  2  0  0  0  0  0  0
  192.5070  174.0430  145.5070 C   0  0  0  0  0  2  0  0  0  0  0  0
  191.1220  171.5410  140.6510 C   0  0  1  0  0  3  0  0  0  0  0  0
  188.9560  175.4990  142.1570 C   0  0  1  0  0  3  0  0  0  0  0  0
  195.2800  173.5780  141.5900 C   0  0  2  0  0  3  0  0  0  0  0  0
  192.0770  175.9070  142.4300 C   0  0  0  0  0  2  0  0  0  0  0  0
  191.0330  176.6770  143.2500 C   0  0  2  0  0  3  0  0  0  0  0  0
  191.2580  175.3090  147.3870 O   0  0  0  0  0  1  0  0  0  0  0  0
  190.0480  175.9190  145.3730 C   0  0  1  0  0  3  0  0  0  0  0  0
  191.1420  173.7440  145.6510 O   0  0  0  0  0  0  0  0  0  0  0  0
  190.6460  173.8000  142.7520 C   0  0  0  0  0  3  0  0  0  0  0  0
  191.3070  170.2970  139.7950 C   0  0  0  0  0  2  0  0  0  0  0  0
  190.9990  169.0990  140.5670 N   0  0  0  0  0  1  0  0  0  0  0  0
  189.2670  176.9700  146.1130 C   0  0  0  0  0  3  0  0  0  0  0  0
  189.8150  177.6990  147.0850 C   0  0  0  0  0  2  0  0  0  0  0  0
  187.4470  175.6340  142.2360 C   0  0  0  0  0  2  0  0  0  0  0  0
  186.9250  176.6470  141.2280 C   0  0  2  0  0  3  0  0  0  0  0  0
  187.6590  176.5650  140.0080 O   0  0  0  0  0  0  0  0  0  0  0  0
  186.1070  176.7070  138.2990 O   0  0  0  0  0  0  0  0  0  0  0  0
  187.0840  176.1040  138.8200 C   0  0  0  0  0  0  0  0  0  0  0  0
  187.5750  174.9460  138.2170 O   0  0  0  0  0  0  0  0  0  0  0  0
  188.1070  172.9120  138.7860 C   0  0  0  0  0  1  0  0  0  0  0  0
  188.5590  174.2340  138.7840 O   0  0  0  0  0  0  0  0  0  0  0  0
  187.0260  178.0480  141.8450 C   0  0  0  0  0  2  0  0  0  0  0  0
  185.7200  178.6960  142.0180 N   0  0  0  0  0  0  0  0  0  0  0  0
  183.3150  178.3370  141.9760 C   0  0  0  0  0  2  0  0  0  0  0  0
  183.8020  178.3470  140.5420 C   0  0  0  0  0  2  0  0  0  0  0  0
  184.6750  177.7490  141.6350 C   0  0  0  0  0  3  0  0  0  0  0  0
  185.5090  179.1130  143.4150 C   0  0  0  0  0  2  0  0  0  0  0  0
  185.9240  178.0640  144.4510 C   0  0  0  0  0  2  0  0  0  0  0  0
  185.1600  176.6300  146.2030 C   0  0  0  0  0  2  0  0  0  0  0  0
  185.7190  179.1480  147.2840 C   0  0  0  0  0  2  0  0  0  0  0  0
  184.8310  177.8030  145.3810 N   0  0  0  0  0  0  0  0  0  0  0  0
  186.3090  176.8560  146.9850 O   0  0  0  0  0  0  0  0  0  0  0  0
  185.9410  177.7990  147.9530 C   0  0  0  0  0  2  0  0  0  0  0  0
  184.6230  178.9860  146.2310 C   0  0  0  0  0  2  0  0  0  0  0  0
  195.1890  172.6900  139.2710 C   0  0  0  0  0  2  0  0  0  0  0  0
  196.3580  172.8970  138.3250 C   0  0  0  0  0  2  0  0  0  0  0  0
  196.5410  171.5200  136.2200 N   0  0  0  0  0  1  0  0  0  0  0  0
  196.6830  171.6190  137.6350 C   0  0  0  0  0  0  0  0  0  0  0  0
  197.1160  170.6370  138.2930 O   0  0  0  0  0  0  0  0  0  0  0  0
  195.1290  175.7640  144.9040 C   0  0  0  0  0  2  0  0  0  0  0  0
  194.8200  175.8000  146.3970 C   0  0  0  0  0  2  0  0  0  0  0  0
  194.1580  177.1120  146.7750 C   0  0  0  0  0  1  0  0  0  0  0  0
  1 28  1  0  0  0  0
  2 20  1  0  0  0  0
  2 19  1  0  0  0  0
  3 11  1  0  0  0  0
  5  8  1  0  0  0  0
  5 27  1  0  0  0  0
  6 26  1  0  0  0  0
  7 11  1  0  0  0  0
  9 15  1  0  0  0  0
  9 17  1  0  0  0  0
 10  4  1  0  0  0  0
 10 15  1  0  0  0  0
 11 13  1  0  0  0  0
 11 12  1  0  0  0  0
 12  9  1  0  0  0  0
 13 25  1  0  0  0  0
 13 30  1  0  0  0  0
 14 10  1  0  0  0  0
 15 61  1  0  0  0  0
 17 21  1  0  0  0  0
 18  7  1  0  0  0  0
 18 24  1  0  0  0  0
 19 22  1  0  0  0  0
 19  3  1  0  0  0  0
 20  7  1  0  0  0  0
 21 29  1  0  0  0  0
 22  3  1  0  0  0  0
 23 35  1  0  0  0  0
 23  6  1  0  0  0  0
 23 16  1  0  0  0  0
 24 14  1  0  0  0  0
 24 12  1  0  0  0  0
 25 26  1  0  0  0  0
 26  1  1  0  0  0  0
 28 33  1  0  0  0  0
 28  5  1  0  0  0  0
 29  5  1  0  0  0  0
 30 16  2  0  0  0  0
 31 32  1  0  0  0  0
 31 22  1  0  0  0  0
 33 34  2  0  0  0  0
 36 43  1  0  0  0  0
 36 35  1  0  0  0  0
 37 36  1  0  0  0  0
 38 39  2  0  0  0  0
 39 37  1  0  0  0  0
 40 42  1  0  0  0  0
 40 39  1  0  0  0  0
 42 41  1  0  0  0  0
 43 44  1  0  0  0  0
 44 48  1  0  0  0  0
 46 47  1  0  0  0  0
 46 45  1  0  0  0  0
 47 45  1  0  0  0  0
 47 44  1  0  0  0  0
 48 49  1  0  0  0  0
 49 52  1  0  0  0  0
 50 53  1  0  0  0  0
 51 54  1  0  0  0  0
 52 50  1  0  0  0  0
 52 55  1  0  0  0  0
 53 54  1  0  0  0  0
 55 51  1  0  0  0  0
 56 18  1  0  0  0  0
 57 56  1  0  0  0  0
 58 59  1  0  0  0  0
 59 60  2  0  0  0  0
 59 57  1  0  0  0  0
 61 62  1  0  0  0  0
 62 63  1  0  0  0  0
M  END
>  <MODEL>
2

>  <REMARK>
 VINA RESULT:      -6.5      2.760      9.689
  Name = 
  19 active torsions:
  status: ('A' for Active; 'I' for Inactive)
    1  A    between atoms: C_1  and  C_44
    2  A    between atoms: C_7  and  C_27
    3  A    between atoms: C_7  and  N_60
    4  A    between atoms: C_12  and  C_34
    5  A    between atoms: C_12  and  C_43
    6  A    between atoms: C_13  and  O_21
    7  A    between atoms: C_13  and  O_56
    8  A    between atoms: N_18  and  C_27
    9  A    between atoms: C_20  and  C_24
   10  A    between atoms: C_20  and  C_55
   11  A    between atoms: O_21  and  O_23
   12  A    between atoms: C_24  and  C_37
   13  A    between atoms: C_25  and  C_40
   14  A    between atoms: C_25  and  N_60
   15  A    between atoms: C_29  and  C_40
   16  A    between atoms: C_29  and  C_45
   17  A    between atoms: C_39  and  C_59
   18  A    between atoms: C_40  and  O_56
   19  A    between atoms: C_54  and  N_60
                            x       y       z     vdW  Elec       q    Type
                         _______ _______ _______ _____ _____    ______ ____

>  <TORSDO>
F 19

$$$$
=
 OpenBabel11072409383D

 63 70  0  0  1  0  0  0  0  0999 V2000
  196.2090  173.4410  141.8800 N   0  0  0  0  0  2  0  0  0  0  0  0
  189.2310  172.4020  142.9320 C   0  0  0  0  0  2  0  0  0  0  0  0
  190.3650  174.1990  142.4030 C   0  0  2  0  0  3  0  0  0  0  0  0
  194.0730  177.0490  147.0230 O   0  0  0  0  0  1  0  0  0  0  0  0
  196.2860  175.1960  140.1080 C   0  0  0  0  0  0  0  0  0  0  0  0
  194.9840  171.2920  141.1350 C   0  0  0  0  0  2  0  0  0  0  0  0
  191.2720  173.1210  144.3610 C   0  0  1  0  0  3  0  0  0  0  0  0
  196.3960  175.3360  138.7210 O   0  0  0  0  0  1  0  0  0  0  0  0
  193.6280  175.7490  143.5080 C   0  0  2  0  0  3  0  0  0  0  0  0
  193.3750  176.6380  145.8840 C   0  0  2  0  0  3  0  0  0  0  0  0
  191.6980  173.9750  143.1330 C   0  0  2  0  0  0  0  0  0  0  0  0
  192.1490  175.3280  143.7320 C   0  0  1  0  0  3  0  0  0  0  0  0
  192.7600  173.2000  142.2990 C   0  0  2  0  0  3  0  0  0  0  0  0
  192.7850  175.3900  146.1030 O   0  0  0  0  0  0  0  0  0  0  0  0
  194.2820  176.5620  144.6500 C   0  0  1  0  0  3  0  0  0  0  0  0
  193.4150  172.9050  139.9400 C   0  0  0  0  0  3  0  0  0  0  0  0
  193.7620  176.4180  142.2830 O   0  0  0  0  0  0  0  0  0  0  0  0
  190.8820  174.0970  145.4760 C   0  0  1  0  0  3  0  0  0  0  0  0
  190.0650  172.8630  141.8350 N   0  0  2  0  0  0  0  0  0  0  0  0
  190.2010  172.0100  144.0780 C   0  0  0  0  0  2  0  0  0  0  0  0
  195.0590  176.1270  141.8410 C   0  0  0  0  0  2  0  0  0  0  0  0
  189.8640  174.0920  141.0490 C   0  0  1  0  0  3  0  0  0  0  0  0
  193.7500  171.4720  140.2380 C   0  0  1  0  0  3  0  0  0  0  0  0
  191.7020  175.3510  145.2140 C   0  0  2  0  0  3  0  0  0  0  0  0
  194.0580  172.8630  143.0580 C   0  0  0  0  0  2  0  0  0  0  0  0
  195.2370  172.3800  142.2030 C   0  0  2  0  0  3  0  0  0  0  0  0
  197.3660  175.8780  140.6960 O   0  0  0  0  0  1  0  0  0  0  0  0
  196.3510  173.6860  140.4420 C   0  0  1  0  0  3  0  0  0  0  0  0
  195.0380  175.7550  140.4870 O   0  0  0  0  0  0  0  0  0  0  0  0
  192.9590  173.7150  140.9000 C   0  0  0  0  0  3  0  0  0  0  0  0
  188.3860  174.4460  140.9770 C   0  0  0  0  0  2  0  0  0  0  0  0
  188.1350  175.7180  141.6450 N   0  0  0  0  0  1  0  0  0  0  0  0
  197.6460  173.1010  139.9490 C   0  0  0  0  0  3  0  0  0  0  0  0
  197.6820  172.2000  138.9680 C   0  0  0  0  0  2  0  0  0  0  0  0
  193.9800  170.7170  138.9420 C   0  0  0  0  0  2  0  0  0  0  0  0
  192.7270  170.6960  138.0790 C   0  0  2  0  0  3  0  0  0  0  0  0
  191.7880  169.7470  138.5810 O   0  0  0  0  0  0  0  0  0  0  0  0
  189.8070  170.8850  138.9390 O   0  0  0  0  0  0  0  0  0  0  0  0
  190.7060  170.1200  139.3830 C   0  0  0  0  0  0  0  0  0  0  0  0
  190.6300  169.6660  140.7000 O   0  0  0  0  0  0  0  0  0  0  0  0
  191.9480  169.2220  142.3760 C   0  0  0  0  0  1  0  0  0  0  0  0
  191.4720  168.7300  141.1580 O   0  0  0  0  0  0  0  0  0  0  0  0
  193.1320  170.3700  136.6370 C   0  0  0  0  0  2  0  0  0  0  0  0
  194.4070  170.9810  136.2440 N   0  0  0  0  0  0  0  0  0  0  0  0
  196.5600  170.5800  135.1870 C   0  0  0  0  0  2  0  0  0  0  0  0
  196.5050  169.7400  136.4450 C   0  0  0  0  0  2  0  0  0  0  0  0
  195.2440  169.9560  135.6220 C   0  0  0  0  0  3  0  0  0  0  0  0
  194.2030  172.0850  135.2910 C   0  0  0  0  0  2  0  0  0  0  0  0
  193.1500  173.1060  135.7320 C   0  0  0  0  0  2  0  0  0  0  0  0
  191.8780  175.0290  135.1020 C   0  0  0  0  0  2  0  0  0  0  0  0
  194.4690  175.8450  135.7650 C   0  0  0  0  0  2  0  0  0  0  0  0
  192.9830  174.1390  134.7150 N   0  0  0  0  0  0  0  0  0  0  0  0
  192.1530  175.6940  136.3120 O   0  0  0  0  0  0  0  0  0  0  0  0
  193.1780  176.6050  136.0310 C   0  0  0  0  0  2  0  0  0  0  0  0
  194.2350  174.9000  134.5860 C   0  0  0  0  0  2  0  0  0  0  0  0
  189.3960  174.4550  145.4550 C   0  0  0  0  0  2  0  0  0  0  0  0
  188.9570  175.0650  146.7740 C   0  0  0  0  0  2  0  0  0  0  0  0
  186.9860  176.6030  147.1010 N   0  0  0  0  0  1  0  0  0  0  0  0
  188.2670  176.3600  146.5280 C   0  0  0  0  0  0  0  0  0  0  0  0
  188.8290  177.2560  145.8440 O   0  0  0  0  0  0  0  0  0  0  0  0
  195.6270  175.9150  144.9780 C   0  0  0  0  0  2  0  0  0  0  0  0
  195.4420  174.4770  145.4510 C   0  0  0  0  0  2  0  0  0  0  0  0
  196.7700  173.8790  145.8790 C   0  0  0  0  0  1  0  0  0  0  0  0
  1 26  1  0  0  0  0
  2 20  1  0  0  0  0
  3 11  1  0  0  0  0
  5 28  1  0  0  0  0
  5 29  1  0  0  0  0
  5 27  1  0  0  0  0
  6 26  1  0  0  0  0
  7 18  1  0  0  0  0
  8  5  1  0  0  0  0
  9 12  1  0  0  0  0
  9 15  1  0  0  0  0
 10 14  1  0  0  0  0
 10  4  1  0  0  0  0
 11 12  1  0  0  0  0
 11  7  1  0  0  0  0
 12 24  1  0  0  0  0
 13 25  1  0  0  0  0
 13 11  1  0  0  0  0
 15 61  1  0  0  0  0
 15 10  1  0  0  0  0
 16 23  1  0  0  0  0
 16 30  2  0  0  0  0
 17  9  1  0  0  0  0
 19  3  1  0  0  0  0
 19  2  1  0  0  0  0
 20  7  1  0  0  0  0
 21 17  1  0  0  0  0
 22 19  1  0  0  0  0
 22  3  1  0  0  0  0
 23  6  1  0  0  0  0
 24 18  1  0  0  0  0
 24 14  1  0  0  0  0
 26 25  1  0  0  0  0
 28  1  1  0  0  0  0
 29 21  1  0  0  0  0
 30 13  1  0  0  0  0
 31 22  1  0  0  0  0
 31 32  1  0  0  0  0
 33 28  1  0  0  0  0
 34 33  2  0  0  0  0
 35 23  1  0  0  0  0
 36 37  1  0  0  0  0
 36 35  1  0  0  0  0
 37 39  1  0  0  0  0
 38 39  2  0  0  0  0
 39 40  1  0  0  0  0
 40 42  1  0  0  0  0
 42 41  1  0  0  0  0
 43 36  1  0  0  0  0
 44 43  1  0  0  0  0
 45 47  1  0  0  0  0
 45 46  1  0  0  0  0
 47 44  1  0  0  0  0
 47 46  1  0  0  0  0
 48 49  1  0  0  0  0
 48 44  1  0  0  0  0
 50 53  1  0  0  0  0
 51 54  1  0  0  0  0
 52 50  1  0  0  0  0
 52 49  1  0  0  0  0
 54 53  1  0  0  0  0
 55 52  1  0  0  0  0
 55 51  1  0  0  0  0
 56 18  1  0  0  0  0
 56 57  1  0  0  0  0
 59 57  1  0  0  0  0
 59 58  1  0  0  0  0
 60 59  2  0  0  0  0
 61 62  1  0  0  0  0
 62 63  1  0  0  0  0
M  END
>  <MODEL>
3

>  <REMARK>
 VINA RESULT:      -6.0      2.963      6.930
  Name = 
  19 active torsions:
  status: ('A' for Active; 'I' for Inactive)
    1  A    between atoms: C_1  and  C_44
    2  A    between atoms: C_7  and  C_27
    3  A    between atoms: C_7  and  N_60
    4  A    between atoms: C_12  and  C_34
    5  A    between atoms: C_12  and  C_43
    6  A    between atoms: C_13  and  O_21
    7  A    between atoms: C_13  and  O_56
    8  A    between atoms: N_18  and  C_27
    9  A    between atoms: C_20  and  C_24
   10  A    between atoms: C_20  and  C_55
   11  A    between atoms: O_21  and  O_23
   12  A    between atoms: C_24  and  C_37
   13  A    between atoms: C_25  and  C_40
   14  A    between atoms: C_25  and  N_60
   15  A    between atoms: C_29  and  C_40
   16  A    between atoms: C_29  and  C_45
   17  A    between atoms: C_39  and  C_59
   18  A    between atoms: C_40  and  O_56
   19  A    between atoms: C_54  and  N_60
                            x       y       z     vdW  Elec       q    Type
                         _______ _______ _______ _____ _____    ______ ____

>  <TORSDO>
F 19

$$$$
=
 OpenBabel11072409383D

 63 70  0  0  1  0  0  0  0  0999 V2000
  191.1450  171.4920  139.1710 N   0  0  0  0  0  2  0  0  0  0  0  0
  193.6880  173.9140  145.3780 C   0  0  0  0  0  2  0  0  0  0  0  0
  194.5270  173.9500  143.3560 C   0  0  2  0  0  3  0  0  0  0  0  0
  196.7510  168.3270  140.7760 O   0  0  0  0  0  1  0  0  0  0  0  0
  192.0190  173.1230  137.4960 C   0  0  0  0  0  0  0  0  0  0  0  0
  189.6450  172.5840  140.9690 C   0  0  0  0  0  2  0  0  0  0  0  0
  193.8450  171.7260  143.9950 C   0  0  1  0  0  3  0  0  0  0  0  0
  191.6470  174.2850  136.8130 O   0  0  0  0  0  1  0  0  0  0  0  0
  194.7390  171.5060  140.4830 C   0  0  2  0  0  3  0  0  0  0  0  0
  196.3520  169.6290  141.0920 C   0  0  2  0  0  3  0  0  0  0  0  0
  193.9830  172.6470  142.7500 C   0  0  2  0  0  0  0  0  0  0  0  0
  195.1100  172.0040  141.9070 C   0  0  1  0  0  3  0  0  0  0  0  0
  192.5980  172.7970  142.0540 C   0  0  2  0  0  3  0  0  0  0  0  0
  195.6350  169.6370  142.2920 O   0  0  0  0  0  0  0  0  0  0  0  0
  195.4950  170.2520  139.9850 C   0  0  1  0  0  3  0  0  0  0  0  0
  191.3110  174.5060  140.8270 C   0  0  0  0  0  3  0  0  0  0  0  0
  194.8510  172.5540  139.5580 O   0  0  0  0  0  0  0  0  0  0  0  0
  195.1910  171.0180  144.1840 C   0  0  1  0  0  3  0  0  0  0  0  0
  193.3570  174.4940  144.0870 N   0  0  2  0  0  0  0  0  0  0  0  0
  193.2960  172.4150  145.2940 C   0  0  0  0  0  2  0  0  0  0  0  0
  193.8940  172.2830  138.5720 C   0  0  0  0  0  2  0  0  0  0  0  0
  194.2270  175.3640  143.2790 C   0  0  1  0  0  3  0  0  0  0  0  0
  190.0560  173.9800  141.4610 C   0  0  1  0  0  3  0  0  0  0  0  0
  195.7980  170.9360  142.7920 C   0  0  2  0  0  3  0  0  0  0  0  0
  191.9850  171.4780  141.5460 C   0  0  0  0  0  2  0  0  0  0  0  0
  190.7860  171.6100  140.5960 C   0  0  2  0  0  3  0  0  0  0  0  0
  192.3020  172.1320  136.5380 O   0  0  0  0  0  1  0  0  0  0  0  0
  190.8300  172.6910  138.3870 C   0  0  1  0  0  3  0  0  0  0  0  0
  193.1600  173.4430  138.2760 O   0  0  0  0  0  0  0  0  0  0  0  0
  192.4980  173.9530  141.0960 C   0  0  0  0  0  3  0  0  0  0  0  0
  195.1540  176.1750  144.1720 C   0  0  0  0  0  2  0  0  0  0  0  0
  196.5390  175.7580  143.9800 N   0  0  0  0  0  1  0  0  0  0  0  0
  189.6100  172.4440  137.5420 C   0  0  0  0  0  3  0  0  0  0  0  0
  188.4320  172.9960  137.8290 C   0  0  0  0  0  2  0  0  0  0  0  0
  188.9080  174.9390  141.2050 C   0  0  0  0  0  2  0  0  0  0  0  0
  188.1960  175.3120  142.4960 C   0  0  2  0  0  3  0  0  0  0  0  0
  186.9340  175.9150  142.2170 O   0  0  0  0  0  0  0  0  0  0  0  0
  187.1140  177.2490  140.3360 O   0  0  0  0  0  0  0  0  0  0  0  0
  186.8230  177.1440  141.5590 C   0  0  0  0  0  0  0  0  0  0  0  0
  186.4130  178.2740  142.2650 O   0  0  0  0  0  0  0  0  0  0  0  0
  184.3270  178.2280  141.6420 C   0  0  0  0  0  1  0  0  0  0  0  0
  185.1670  178.3740  142.7490 O   0  0  0  0  0  0  0  0  0  0  0  0
  189.0990  176.2580  143.2980 C   0  0  0  0  0  2  0  0  0  0  0  0
  189.0240  176.0350  144.7460 N   0  0  0  0  0  0  0  0  0  0  0  0
  189.9500  174.6750  146.5360 C   0  0  0  0  0  2  0  0  0  0  0  0
  189.8540  173.8040  145.3020 C   0  0  0  0  0  2  0  0  0  0  0  0
  190.2020  175.2780  145.1640 C   0  0  0  0  0  3  0  0  0  0  0  0
  188.9800  177.3090  145.4840 C   0  0  0  0  0  2  0  0  0  0  0  0
  187.5700  177.8860  145.6540 C   0  0  0  0  0  2  0  0  0  0  0  0
  186.5740  177.6570  147.8140 C   0  0  0  0  0  2  0  0  0  0  0  0
  184.5440  177.9980  145.9220 C   0  0  0  0  0  2  0  0  0  0  0  0
  186.7620  177.0180  146.5040 N   0  0  0  0  0  0  0  0  0  0  0  0
  185.8740  178.8720  147.6980 O   0  0  0  0  0  0  0  0  0  0  0  0
  184.5620  178.5340  147.3460 C   0  0  0  0  0  2  0  0  0  0  0  0
  185.4630  176.7780  145.8570 C   0  0  0  0  0  2  0  0  0  0  0  0
  196.1410  171.7890  145.1010 C   0  0  0  0  0  2  0  0  0  0  0  0
  197.4550  171.0500  145.2810 C   0  0  0  0  0  2  0  0  0  0  0  0
  196.5290  169.5830  147.1100 N   0  0  0  0  0  1  0  0  0  0  0  0
  197.2030  169.7040  145.8610 C   0  0  0  0  0  0  0  0  0  0  0  0
  197.5530  168.6690  145.2340 O   0  0  0  0  0  0  0  0  0  0  0  0
  194.4630  169.2630  139.4450 C   0  0  0  0  0  2  0  0  0  0  0  0
  193.6150  168.6870  140.5740 C   0  0  0  0  0  2  0  0  0  0  0  0
  192.2920  168.1690  140.0400 C   0  0  0  0  0  1  0  0  0  0  0  0
  1 26  1  0  0  0  0
  3 19  1  0  0  0  0
  4 10  1  0  0  0  0
  5 29  1  0  0  0  0
  5 28  1  0  0  0  0
  6 23  1  0  0  0  0
  7 18  1  0  0  0  0
  7 20  1  0  0  0  0
  8  5  1  0  0  0  0
  9 12  1  0  0  0  0
 10 14  1  0  0  0  0
 11  3  1  0  0  0  0
 11  7  1  0  0  0  0
 12 11  1  0  0  0  0
 12 24  1  0  0  0  0
 13 11  1  0  0  0  0
 14 24  1  0  0  0  0
 15  9  1  0  0  0  0
 15 10  1  0  0  0  0
 16 30  2  0  0  0  0
 16 23  1  0  0  0  0
 17  9  1  0  0  0  0
 18 56  1  0  0  0  0
 19  2  1  0  0  0  0
 20  2  1  0  0  0  0
 21 17  1  0  0  0  0
 22  3  1  0  0  0  0
 22 19  1  0  0  0  0
 22 31  1  0  0  0  0
 24 18  1  0  0  0  0
 25 13  1  0  0  0  0
 26  6  1  0  0  0  0
 26 25  1  0  0  0  0
 27  5  1  0  0  0  0
 28  1  1  0  0  0  0
 29 21  1  0  0  0  0
 30 13  1  0  0  0  0
 32 31  1  0  0  0  0
 33 34  2  0  0  0  0
 33 28  1  0  0  0  0
 35 23  1  0  0  0  0
 35 36  1  0  0  0  0
 36 43  1  0  0  0  0
 37 36  1  0  0  0  0
 38 39  2  0  0  0  0
 39 37  1  0  0  0  0
 39 40  1  0  0  0  0
 40 42  1  0  0  0  0
 41 42  1  0  0  0  0
 43 44  1  0  0  0  0
 44 47  1  0  0  0  0
 44 48  1  0  0  0  0
 46 45  1  0  0  0  0
 47 46  1  0  0  0  0
 47 45  1  0  0  0  0
 48 49  1  0  0  0  0
 49 52  1  0  0  0  0
 51 54  1  0  0  0  0
 52 50  1  0  0  0  0
 53 50  1  0  0  0  0
 54 53  1  0  0  0  0
 55 51  1  0  0  0  0
 55 52  1  0  0  0  0
 56 57  1  0  0  0  0
 57 59  1  0  0  0  0
 59 58  1  0  0  0  0
 60 59  2  0  0  0  0
 61 15  1  0  0  0  0
 61 62  1  0  0  0  0
 63 62  1  0  0  0  0
M  END
>  <MODEL>
4

>  <REMARK>
 VINA RESULT:      -6.0      2.255      9.042
  Name = 
  19 active torsions:
  status: ('A' for Active; 'I' for Inactive)
    1  A    between atoms: C_1  and  C_44
    2  A    between atoms: C_7  and  C_27
    3  A    between atoms: C_7  and  N_60
    4  A    between atoms: C_12  and  C_34
    5  A    between atoms: C_12  and  C_43
    6  A    between atoms: C_13  and  O_21
    7  A    between atoms: C_13  and  O_56
    8  A    between atoms: N_18  and  C_27
    9  A    between atoms: C_20  and  C_24
   10  A    between atoms: C_20  and  C_55
   11  A    between atoms: O_21  and  O_23
   12  A    between atoms: C_24  and  C_37
   13  A    between atoms: C_25  and  C_40
   14  A    between atoms: C_25  and  N_60
   15  A    between atoms: C_29  and  C_40
   16  A    between atoms: C_29  and  C_45
   17  A    between atoms: C_39  and  C_59
   18  A    between atoms: C_40  and  O_56
   19  A    between atoms: C_54  and  N_60
                            x       y       z     vdW  Elec       q    Type
                         _______ _______ _______ _____ _____    ______ ____

>  <TORSDO>
F 19

$$$$
=
 OpenBabel11072409383D

 63 70  0  0  1  0  0  0  0  0999 V2000
  194.5250  173.1020  145.3130 N   0  0  0  0  0  2  0  0  0  0  0  0
  189.1190  172.2180  140.7470 C   0  0  0  0  0  2  0  0  0  0  0  0
  190.6390  173.7850  140.9050 C   0  0  2  0  0  3  0  0  0  0  0  0
  190.1970  178.1040  145.8420 O   0  0  0  0  0  1  0  0  0  0  0  0
  196.2960  174.1910  143.9310 C   0  0  0  0  0  0  0  0  0  0  0  0
  193.8130  170.7870  144.4160 C   0  0  0  0  0  2  0  0  0  0  0  0
  189.5060  173.4320  143.0050 C   0  0  1  0  0  3  0  0  0  0  0  0
  197.4270  173.8790  143.1710 O   0  0  0  0  0  1  0  0  0  0  0  0
  192.2280  175.7230  143.7330 C   0  0  2  0  0  3  0  0  0  0  0  0
  190.5100  177.3230  144.7270 C   0  0  2  0  0  3  0  0  0  0  0  0
  190.8830  173.8560  142.4200 C   0  0  2  0  0  0  0  0  0  0  0  0
  191.0340  175.3450  142.8120 C   0  0  1  0  0  3  0  0  0  0  0  0
  191.9910  172.8900  142.9340 C   0  0  2  0  0  3  0  0  0  0  0  0
  189.6880  176.1930  144.6820 O   0  0  0  0  0  0  0  0  0  0  0  0
  191.9780  176.8830  144.7250 C   0  0  1  0  0  3  0  0  0  0  0  0
  194.0870  171.8710  142.1270 C   0  0  0  0  0  3  0  0  0  0  0  0
  193.3760  175.9630  142.9660 O   0  0  0  0  0  0  0  0  0  0  0  0
  188.6590  174.7010  143.1320 C   0  0  1  0  0  3  0  0  0  0  0  0
  190.5640  172.3280  140.6450 N   0  0  2  0  0  0  0  0  0  0  0  0
  188.7860  172.2520  142.2610 C   0  0  0  0  0  2  0  0  0  0  0  0
  194.4520  175.5900  143.7810 C   0  0  0  0  0  2  0  0  0  0  0  0
  191.3050  173.2290  139.7460 C   0  0  1  0  0  3  0  0  0  0  0  0
  193.7450  170.6240  142.8900 C   0  0  1  0  0  3  0  0  0  0  0  0
  189.6580  175.8310  143.3280 C   0  0  2  0  0  3  0  0  0  0  0  0
  192.1650  172.8630  144.4650 C   0  0  0  0  0  2  0  0  0  0  0  0
  193.4300  172.1700  144.9900 C   0  0  2  0  0  3  0  0  0  0  0  0
  196.6950  175.0640  144.9590 O   0  0  0  0  0  1  0  0  0  0  0  0
  195.7400  172.8740  144.5230 C   0  0  1  0  0  3  0  0  0  0  0  0
  195.3590  174.8000  143.0560 O   0  0  0  0  0  0  0  0  0  0  0  0
  193.2750  172.9320  142.1500 C   0  0  0  0  0  3  0  0  0  0  0  0
  190.5110  173.4890  138.4740 C   0  0  0  0  0  2  0  0  0  0  0  0
  191.3060  173.1480  137.3010 N   0  0  0  0  0  1  0  0  0  0  0  0
  196.7850  172.2060  145.3750 C   0  0  0  0  0  3  0  0  0  0  0  0
  197.4310  171.1140  144.9680 C   0  0  0  0  0  2  0  0  0  0  0  0
  194.6780  169.4990  142.4830 C   0  0  0  0  0  2  0  0  0  0  0  0
  194.7060  169.3190  140.9720 C   0  0  2  0  0  3  0  0  0  0  0  0
  193.6290  168.4870  140.5450 O   0  0  0  0  0  0  0  0  0  0  0  0
  191.3360  168.5720  140.2570 O   0  0  0  0  0  0  0  0  0  0  0  0
  192.4780  169.0050  139.9440 C   0  0  0  0  0  0  0  0  0  0  0  0
  192.5910  169.9920  138.9640 O   0  0  0  0  0  0  0  0  0  0  0  0
  192.1930  168.7850  137.1960 C   0  0  0  0  0  1  0  0  0  0  0  0
  193.0840  169.7070  137.7500 O   0  0  0  0  0  0  0  0  0  0  0  0
  196.0610  168.7210  140.5760 C   0  0  0  0  0  2  0  0  0  0  0  0
  196.7090  169.4430  139.4750 N   0  0  0  0  0  0  0  0  0  0  0  0
  196.5930  169.5740  137.0490 C   0  0  0  0  0  2  0  0  0  0  0  0
  197.8350  168.7850  137.4070 C   0  0  0  0  0  2  0  0  0  0  0  0
  196.5810  168.6480  138.2550 C   0  0  0  0  0  3  0  0  0  0  0  0
  196.0910  170.7630  139.2610 C   0  0  0  0  0  2  0  0  0  0  0  0
  197.0090  171.9450  139.5870 C   0  0  0  0  0  2  0  0  0  0  0  0
  195.6480  173.4320  138.3030 C   0  0  0  0  0  2  0  0  0  0  0  0
  197.3930  174.9470  139.8780 C   0  0  0  0  0  2  0  0  0  0  0  0
  197.0090  172.9090  138.4920 N   0  0  0  0  0  0  0  0  0  0  0  0
  195.1990  174.1200  139.4460 O   0  0  0  0  0  0  0  0  0  0  0  0
  195.9570  175.2950  139.5170 C   0  0  0  0  0  2  0  0  0  0  0  0
  197.9410  174.0030  138.8090 C   0  0  0  0  0  2  0  0  0  0  0  0
  187.8230  174.9820  141.8830 C   0  0  0  0  0  2  0  0  0  0  0  0
  187.9470  176.4310  141.4500 C   0  0  0  0  0  2  0  0  0  0  0  0
  185.8830  176.7310  142.8660 N   0  0  0  0  0  1  0  0  0  0  0  0
  186.6980  177.1680  141.7830 C   0  0  0  0  0  0  0  0  0  0  0  0
  186.3790  178.1980  141.1330 O   0  0  0  0  0  0  0  0  0  0  0  0
  192.4310  176.4240  146.1100 C   0  0  0  0  0  2  0  0  0  0  0  0
  191.7130  175.1440  146.5250 C   0  0  0  0  0  2  0  0  0  0  0  0
  191.1420  175.2800  147.9250 C   0  0  0  0  0  1  0  0  0  0  0  0
  2 20  1  0  0  0  0
  3 11  1  0  0  0  0
  5 28  1  0  0  0  0
  5 27  1  0  0  0  0
  6 26  1  0  0  0  0
  7 18  1  0  0  0  0
  8  5  1  0  0  0  0
  9 15  1  0  0  0  0
 10  4  1  0  0  0  0
 11 12  1  0  0  0  0
 11 13  1  0  0  0  0
 11  7  1  0  0  0  0
 12 24  1  0  0  0  0
 12  9  1  0  0  0  0
 13 25  1  0  0  0  0
 14 10  1  0  0  0  0
 15 10  1  0  0  0  0
 15 61  1  0  0  0  0
 16 30  2  0  0  0  0
 16 23  1  0  0  0  0
 17  9  1  0  0  0  0
 17 21  1  0  0  0  0
 18 24  1  0  0  0  0
 19  2  1  0  0  0  0
 19  3  1  0  0  0  0
 20  7  1  0  0  0  0
 22 19  1  0  0  0  0
 22  3  1  0  0  0  0
 23  6  1  0  0  0  0
 24 14  1  0  0  0  0
 25 26  1  0  0  0  0
 26  1  1  0  0  0  0
 28  1  1  0  0  0  0
 28 33  1  0  0  0  0
 29 21  1  0  0  0  0
 29  5  1  0  0  0  0
 30 13  1  0  0  0  0
 31 22  1  0  0  0  0
 32 31  1  0  0  0  0
 34 33  2  0  0  0  0
 35 23  1  0  0  0  0
 36 35  1  0  0  0  0
 37 36  1  0  0  0  0
 39 38  2  0  0  0  0
 39 37  1  0  0  0  0
 40 39  1  0  0  0  0
 41 42  1  0  0  0  0
 42 40  1  0  0  0  0
 43 36  1  0  0  0  0
 44 43  1  0  0  0  0
 45 46  1  0  0  0  0
 45 47  1  0  0  0  0
 46 47  1  0  0  0  0
 47 44  1  0  0  0  0
 48 44  1  0  0  0  0
 48 49  1  0  0  0  0
 50 52  1  0  0  0  0
 50 53  1  0  0  0  0
 52 55  1  0  0  0  0
 52 49  1  0  0  0  0
 53 54  1  0  0  0  0
 54 51  1  0  0  0  0
 55 51  1  0  0  0  0
 56 18  1  0  0  0  0
 57 59  1  0  0  0  0
 57 56  1  0  0  0  0
 59 58  1  0  0  0  0
 60 59  2  0  0  0  0
 61 62  1  0  0  0  0
 62 63  1  0  0  0  0
M  END
>  <MODEL>
5

>  <REMARK>
 VINA RESULT:      -5.8      2.443      6.212
  Name = 
  19 active torsions:
  status: ('A' for Active; 'I' for Inactive)
    1  A    between atoms: C_1  and  C_44
    2  A    between atoms: C_7  and  C_27
    3  A    between atoms: C_7  and  N_60
    4  A    between atoms: C_12  and  C_34
    5  A    between atoms: C_12  and  C_43
    6  A    between atoms: C_13  and  O_21
    7  A    between atoms: C_13  and  O_56
    8  A    between atoms: N_18  and  C_27
    9  A    between atoms: C_20  and  C_24
   10  A    between atoms: C_20  and  C_55
   11  A    between atoms: O_21  and  O_23
   12  A    between atoms: C_24  and  C_37
   13  A    between atoms: C_25  and  C_40
   14  A    between atoms: C_25  and  N_60
   15  A    between atoms: C_29  and  C_40
   16  A    between atoms: C_29  and  C_45
   17  A    between atoms: C_39  and  C_59
   18  A    between atoms: C_40  and  O_56
   19  A    between atoms: C_54  and  N_60
                            x       y       z     vdW  Elec       q    Type
                         _______ _______ _______ _____ _____    ______ ____

>  <TORSDO>
F 19

$$$$
=
 OpenBabel11072409383D

 63 70  0  0  1  0  0  0  0  0999 V2000
  191.8100  172.6610  139.9380 N   0  0  0  0  0  2  0  0  0  0  0  0
  190.9720  176.4230  145.9380 C   0  0  0  0  0  2  0  0  0  0  0  0
  189.6540  174.9980  144.9270 C   0  0  2  0  0  3  0  0  0  0  0  0
  186.7020  176.8560  139.3540 O   0  0  0  0  0  1  0  0  0  0  0  0
  190.5880  170.5340  140.3970 C   0  0  0  0  0  0  0  0  0  0  0  0
  193.7410  173.1040  141.5950 C   0  0  0  0  0  2  0  0  0  0  0  0
  190.4130  176.7250  143.4240 C   0  0  1  0  0  3  0  0  0  0  0  0
  190.8080  169.2300  140.8500 O   0  0  0  0  0  1  0  0  0  0  0  0
  188.6620  174.3180  141.3450 C   0  0  2  0  0  3  0  0  0  0  0  0
  187.2030  176.2300  140.4990 C   0  0  2  0  0  3  0  0  0  0  0  0
  189.9930  175.2290  143.4460 C   0  0  2  0  0  0  0  0  0  0  0  0
  188.6740  175.1790  142.6390 C   0  0  1  0  0  3  0  0  0  0  0  0
  191.1620  174.3480  142.9150 C   0  0  2  0  0  3  0  0  0  0  0  0
  188.1980  177.0180  141.0850 O   0  0  0  0  0  0  0  0  0  0  0  0
  187.7710  174.8400  140.1930 C   0  0  1  0  0  3  0  0  0  0  0  0
  192.1470  172.1240  143.3220 C   0  0  0  0  0  3  0  0  0  0  0  0
  188.3500  172.9860  141.6500 O   0  0  0  0  0  0  0  0  0  0  0  0
  189.1390  177.5490  143.2100 C   0  0  1  0  0  3  0  0  0  0  0  0
  190.9840  175.0150  145.5820 N   0  0  2  0  0  0  0  0  0  0  0  0
  191.2890  177.2030  144.6360 C   0  0  0  0  0  2  0  0  0  0  0  0
  189.0210  172.2180  140.6910 C   0  0  0  0  0  2  0  0  0  0  0  0
  189.9620  174.0190  145.9470 C   0  0  1  0  0  3  0  0  0  0  0  0
  193.5060  172.7050  143.0590 C   0  0  1  0  0  3  0  0  0  0  0  0
  188.2010  176.6390  142.4340 C   0  0  2  0  0  3  0  0  0  0  0  0
  191.5930  174.6520  141.4660 C   0  0  0  0  0  2  0  0  0  0  0  0
  192.5180  173.6210  140.8050 C   0  0  2  0  0  3  0  0  0  0  0  0
  190.0470  170.4530  139.1010 O   0  0  0  0  0  1  0  0  0  0  0  0
  191.9500  171.2670  140.3710 C   0  0  1  0  0  3  0  0  0  0  0  0
  189.6890  171.1470  141.3070 O   0  0  0  0  0  0  0  0  0  0  0  0
  191.0510  172.8850  143.2500 C   0  0  0  0  0  3  0  0  0  0  0  0
  189.3120  174.3800  147.2750 C   0  0  0  0  0  2  0  0  0  0  0  0
  188.2040  175.3050  147.0630 N   0  0  0  0  0  1  0  0  0  0  0  0
  192.9120  170.5450  139.4680 C   0  0  0  0  0  3  0  0  0  0  0  0
  193.2640  171.0360  138.2790 C   0  0  0  0  0  2  0  0  0  0  0  0
  194.5780  171.7120  143.4670 C   0  0  0  0  0  2  0  0  0  0  0  0
  195.6140  171.5280  142.3680 C   0  0  2  0  0  3  0  0  0  0  0  0
  195.5610  170.2030  141.8450 O   0  0  0  0  0  0  0  0  0  0  0  0
  197.2110  168.5820  141.8820 O   0  0  0  0  0  0  0  0  0  0  0  0
  196.6830  169.5690  141.3010 C   0  0  0  0  0  0  0  0  0  0  0  0
  197.2450  170.0490  140.1180 O   0  0  0  0  0  0  0  0  0  0  0  0
  197.4730  171.7790  138.8160 C   0  0  0  0  0  1  0  0  0  0  0  0
  196.5490  170.8480  139.2970 O   0  0  0  0  0  0  0  0  0  0  0  0
  196.9990  171.8440  142.9440 C   0  0  0  0  0  2  0  0  0  0  0  0
  196.9880  172.9710  143.8850 N   0  0  0  0  0  0  0  0  0  0  0  0
  197.1950  173.4990  146.2500 C   0  0  0  0  0  2  0  0  0  0  0  0
  196.5020  172.1580  146.1390 C   0  0  0  0  0  2  0  0  0  0  0  0
  197.5890  172.5340  145.1440 C   0  0  0  0  0  3  0  0  0  0  0  0
  197.7470  174.1180  143.3580 C   0  0  0  0  0  2  0  0  0  0  0  0
  197.1050  174.7860  142.1380 C   0  0  0  0  0  2  0  0  0  0  0  0
  196.1760  176.8030  141.2550 C   0  0  0  0  0  2  0  0  0  0  0  0
  194.7230  176.0670  143.5280 C   0  0  0  0  0  2  0  0  0  0  0  0
  196.9290  176.2160  142.3720 N   0  0  0  0  0  0  0  0  0  0  0  0
  194.8860  176.2480  141.1550 O   0  0  0  0  0  0  0  0  0  0  0  0
  194.1750  176.7170  142.2660 C   0  0  0  0  0  2  0  0  0  0  0  0
  196.2070  176.4140  143.6390 C   0  0  0  0  0  2  0  0  0  0  0  0
  188.4710  177.9570  144.5230 C   0  0  0  0  0  2  0  0  0  0  0  0
  186.9990  178.2670  144.3200 C   0  0  0  0  0  2  0  0  0  0  0  0
  186.7370  178.2860  146.8270 N   0  0  0  0  0  1  0  0  0  0  0  0
  186.2340  177.9170  145.5470 C   0  0  0  0  0  0  0  0  0  0  0  0
  185.1260  177.3250  145.4540 O   0  0  0  0  0  0  0  0  0  0  0  0
  188.6070  174.8410  138.9140 C   0  0  0  0  0  2  0  0  0  0  0  0
  188.0540  173.8490  137.8970 C   0  0  0  0  0  2  0  0  0  0  0  0
  189.1770  173.2320  137.0840 C   0  0  0  0  0  1  0  0  0  0  0  0
  1 28  1  0  0  0  0
  1 26  1  0  0  0  0
  3 19  1  0  0  0  0
  3 22  1  0  0  0  0
  4 10  1  0  0  0  0
  5  8  1  0  0  0  0
  5 29  1  0  0  0  0
  6 23  1  0  0  0  0
  7 11  1  0  0  0  0
  7 20  1  0  0  0  0
  9 17  1  0  0  0  0
  9 12  1  0  0  0  0
 10 14  1  0  0  0  0
 11  3  1  0  0  0  0
 12 11  1  0  0  0  0
 13 30  1  0  0  0  0
 13 11  1  0  0  0  0
 14 24  1  0  0  0  0
 15 10  1  0  0  0  0
 15  9  1  0  0  0  0
 18  7  1  0  0  0  0
 18 56  1  0  0  0  0
 19  2  1  0  0  0  0
 19 22  1  0  0  0  0
 20  2  1  0  0  0  0
 21 29  1  0  0  0  0
 21 17  1  0  0  0  0
 22 31  1  0  0  0  0
 23 16  1  0  0  0  0
 23 35  1  0  0  0  0
 24 12  1  0  0  0  0
 24 18  1  0  0  0  0
 25 13  1  0  0  0  0
 26 25  1  0  0  0  0
 26  6  1  0  0  0  0
 27  5  1  0  0  0  0
 28  5  1  0  0  0  0
 30 16  2  0  0  0  0
 32 31  1  0  0  0  0
 33 28  1  0  0  0  0
 34 33  2  0  0  0  0
 36 43  1  0  0  0  0
 36 35  1  0  0  0  0
 37 36  1  0  0  0  0
 39 37  1  0  0  0  0
 39 38  2  0  0  0  0
 40 39  1  0  0  0  0
 41 42  1  0  0  0  0
 42 40  1  0  0  0  0
 43 44  1  0  0  0  0
 44 47  1  0  0  0  0
 46 45  1  0  0  0  0
 47 46  1  0  0  0  0
 47 45  1  0  0  0  0
 48 44  1  0  0  0  0
 49 52  1  0  0  0  0
 49 48  1  0  0  0  0
 50 52  1  0  0  0  0
 51 55  1  0  0  0  0
 52 55  1  0  0  0  0
 53 50  1  0  0  0  0
 53 54  1  0  0  0  0
 54 51  1  0  0  0  0
 57 56  1  0  0  0  0
 57 59  1  0  0  0  0
 59 58  1  0  0  0  0
 60 59  2  0  0  0  0
 61 15  1  0  0  0  0
 62 61  1  0  0  0  0
 63 62  1  0  0  0  0
M  END
>  <MODEL>
6

>  <REMARK>
 VINA RESULT:      -5.7      1.900      2.684
  Name = 
  19 active torsions:
  status: ('A' for Active; 'I' for Inactive)
    1  A    between atoms: C_1  and  C_44
    2  A    between atoms: C_7  and  C_27
    3  A    between atoms: C_7  and  N_60
    4  A    between atoms: C_12  and  C_34
    5  A    between atoms: C_12  and  C_43
    6  A    between atoms: C_13  and  O_21
    7  A    between atoms: C_13  and  O_56
    8  A    between atoms: N_18  and  C_27
    9  A    between atoms: C_20  and  C_24
   10  A    between atoms: C_20  and  C_55
   11  A    between atoms: O_21  and  O_23
   12  A    between atoms: C_24  and  C_37
   13  A    between atoms: C_25  and  C_40
   14  A    between atoms: C_25  and  N_60
   15  A    between atoms: C_29  and  C_40
   16  A    between atoms: C_29  and  C_45
   17  A    between atoms: C_39  and  C_59
   18  A    between atoms: C_40  and  O_56
   19  A    between atoms: C_54  and  N_60
                            x       y       z     vdW  Elec       q    Type
                         _______ _______ _______ _____ _____    ______ ____

>  <TORSDO>
F 19

$$$$
=
 OpenBabel11072409383D

 63 70  0  0  1  0  0  0  0  0999 V2000
  191.0970  176.8940  144.9390 N   0  0  0  0  0  2  0  0  0  0  0  0
  190.8790  172.6570  139.2060 C   0  0  0  0  0  2  0  0  0  0  0  0
  191.4910  172.2680  141.2720 C   0  0  2  0  0  3  0  0  0  0  0  0
  197.1900  174.7750  143.3850 O   0  0  0  0  0  1  0  0  0  0  0  0
  190.5620  175.3580  146.8320 C   0  0  0  0  0  0  0  0  0  0  0  0
  189.2190  177.0250  143.1710 C   0  0  0  0  0  2  0  0  0  0  0  0
  192.6240  174.1920  140.3570 C   0  0  1  0  0  3  0  0  0  0  0  0
  189.4820  174.9240  147.6070 O   0  0  0  0  0  1  0  0  0  0  0  0
  193.5070  174.1180  143.8790 C   0  0  2  0  0  3  0  0  0  0  0  0
  195.9590  174.1460  143.1830 C   0  0  2  0  0  3  0  0  0  0  0  0
  192.0870  173.6190  141.6990 C   0  0  2  0  0  0  0  0  0  0  0  0
  193.3530  173.3390  142.5430 C   0  0  1  0  0  3  0  0  0  0  0  0
  191.0520  174.6060  142.3140 C   0  0  2  0  0  3  0  0  0  0  0  0
  195.4240  174.5150  141.9450 O   0  0  0  0  0  0  0  0  0  0  0  0
  194.9530  174.4780  144.2910 C   0  0  1  0  0  3  0  0  0  0  0  0
  188.9640  174.5320  143.6250 C   0  0  0  0  0  3  0  0  0  0  0  0
  192.8500  173.4390  144.9150 O   0  0  0  0  0  0  0  0  0  0  0  0
  194.0550  173.6720  140.1850 C   0  0  1  0  0  3  0  0  0  0  0  0
  190.2720  172.6600  140.5260 N   0  0  2  0  0  0  0  0  0  0  0  0
  191.7050  173.9670  139.1050 C   0  0  0  0  0  2  0  0  0  0  0  0
  192.4230  174.4360  145.8000 C   0  0  0  0  0  2  0  0  0  0  0  0
  190.2600  171.5370  141.4790 C   0  0  1  0  0  3  0  0  0  0  0  0
  188.4680  175.7220  142.8570 C   0  0  1  0  0  3  0  0  0  0  0  0
  194.5740  173.4560  141.5970 C   0  0  2  0  0  3  0  0  0  0  0  0
  191.6070  176.0070  142.6370 C   0  0  0  0  0  2  0  0  0  0  0  0
  190.7200  176.9020  143.5130 C   0  0  2  0  0  3  0  0  0  0  0  0
  191.5060  175.9400  147.6960 O   0  0  0  0  0  1  0  0  0  0  0  0
  190.0330  176.4050  145.8220 C   0  0  1  0  0  3  0  0  0  0  0  0
  191.0850  174.2190  146.1670 O   0  0  0  0  0  0  0  0  0  0  0  0
  190.1710  174.0120  143.3790 C   0  0  0  0  0  3  0  0  0  0  0  0
  190.2760  170.2070  140.7400 C   0  0  0  0  0  2  0  0  0  0  0  0
  190.8150  169.1570  141.5960 N   0  0  0  0  0  1  0  0  0  0  0  0
  189.4050  177.5600  146.5530 C   0  0  0  0  0  3  0  0  0  0  0  0
  188.1080  177.5760  146.8610 C   0  0  0  0  0  2  0  0  0  0  0  0
  186.9920  175.9360  143.1360 C   0  0  0  0  0  2  0  0  0  0  0  0
  186.2880  176.5770  141.9490 C   0  0  2  0  0  3  0  0  0  0  0  0
  187.1710  176.6730  140.8330 O   0  0  0  0  0  0  0  0  0  0  0  0
  185.7630  177.5500  139.2220 O   0  0  0  0  0  0  0  0  0  0  0  0
  186.7060  176.7660  139.5180 C   0  0  0  0  0  0  0  0  0  0  0  0
  187.2680  175.9650  138.5250 O   0  0  0  0  0  0  0  0  0  0  0  0
  188.1340  174.1600  137.6680 C   0  0  0  0  0  1  0  0  0  0  0  0
  188.0430  174.9170  138.8380 O   0  0  0  0  0  0  0  0  0  0  0  0
  185.7750  177.9590  142.3720 C   0  0  0  0  0  2  0  0  0  0  0  0
  184.3820  177.9380  142.8340 N   0  0  0  0  0  0  0  0  0  0  0  0
  184.6660  178.2630  145.2270 C   0  0  0  0  0  2  0  0  0  0  0  0
  185.5950  179.2270  144.5210 C   0  0  0  0  0  2  0  0  0  0  0  0
  184.2350  178.9060  143.9190 C   0  0  0  0  0  3  0  0  0  0  0  0
  183.4500  178.2840  141.7460 C   0  0  0  0  0  2  0  0  0  0  0  0
  182.0460  178.6680  142.2230 C   0  0  0  0  0  2  0  0  0  0  0  0
  179.7890  177.8850  142.1600 C   0  0  0  0  0  2  0  0  0  0  0  0
  180.0080  180.1270  140.5030 C   0  0  0  0  0  2  0  0  0  0  0  0
  181.0320  178.0320  141.3890 N   0  0  0  0  0  0  0  0  0  0  0  0
  179.2700  179.1360  142.5430 O   0  0  0  0  0  0  0  0  0  0  0  0
  178.8150  179.7450  141.3670 C   0  0  0  0  0  2  0  0  0  0  0  0
  180.8010  178.8580  140.1930 C   0  0  0  0  0  2  0  0  0  0  0  0
  194.1150  172.3500  139.4200 C   0  0  0  0  0  2  0  0  0  0  0  0
  195.2070  171.4470  139.9650 C   0  0  0  0  0  2  0  0  0  0  0  0
  194.9930  169.1800  138.8820 N   0  0  0  0  0  1  0  0  0  0  0  0
  194.7320  170.0370  139.9890 C   0  0  0  0  0  0  0  0  0  0  0  0
  194.1310  169.5890  141.0020 O   0  0  0  0  0  0  0  0  0  0  0  0
  194.9830  175.9630  144.6520 C   0  0  0  0  0  2  0  0  0  0  0  0
  194.9420  176.1590  146.1640 C   0  0  0  0  0  2  0  0  0  0  0  0
  194.4270  177.5440  146.5100 C   0  0  0  0  0  1  0  0  0  0  0  0
  1 28  1  0  0  0  0
  2 19  1  0  0  0  0
  3 22  1  0  0  0  0
  3 11  1  0  0  0  0
  5  8  1  0  0  0  0
  5 27  1  0  0  0  0
  6 26  1  0  0  0  0
  7 11  1  0  0  0  0
  9 15  1  0  0  0  0
  9 17  1  0  0  0  0
 10  4  1  0  0  0  0
 10 15  1  0  0  0  0
 11 13  1  0  0  0  0
 11 12  1  0  0  0  0
 12  9  1  0  0  0  0
 13 25  1  0  0  0  0
 13 30  1  0  0  0  0
 14 10  1  0  0  0  0
 15 61  1  0  0  0  0
 17 21  1  0  0  0  0
 18  7  1  0  0  0  0
 18 24  1  0  0  0  0
 19  3  1  0  0  0  0
 19 22  1  0  0  0  0
 20  2  1  0  0  0  0
 20  7  1  0  0  0  0
 21 29  1  0  0  0  0
 23 35  1  0  0  0  0
 23  6  1  0  0  0  0
 23 16  1  0  0  0  0
 24 14  1  0  0  0  0
 24 12  1  0  0  0  0
 25 26  1  0  0  0  0
 26  1  1  0  0  0  0
 28 33  1  0  0  0  0
 28  5  1  0  0  0  0
 29  5  1  0  0  0  0
 30 16  2  0  0  0  0
 31 22  1  0  0  0  0
 31 32  1  0  0  0  0
 33 34  2  0  0  0  0
 36 43  1  0  0  0  0
 36 35  1  0  0  0  0
 37 36  1  0  0  0  0
 38 39  2  0  0  0  0
 39 37  1  0  0  0  0
 40 42  1  0  0  0  0
 40 39  1  0  0  0  0
 41 42  1  0  0  0  0
 43 44  1  0  0  0  0
 44 47  1  0  0  0  0
 46 45  1  0  0  0  0
 47 46  1  0  0  0  0
 47 45  1  0  0  0  0
 48 49  1  0  0  0  0
 48 44  1  0  0  0  0
 50 53  1  0  0  0  0
 51 54  1  0  0  0  0
 52 50  1  0  0  0  0
 52 49  1  0  0  0  0
 54 53  1  0  0  0  0
 55 51  1  0  0  0  0
 55 52  1  0  0  0  0
 56 57  1  0  0  0  0
 56 18  1  0  0  0  0
 57 59  1  0  0  0  0
 58 59  1  0  0  0  0
 59 60  2  0  0  0  0
 61 62  1  0  0  0  0
 62 63  1  0  0  0  0
M  END
>  <MODEL>
7

>  <REMARK>
 VINA RESULT:      -5.7      2.986     10.245
  Name = 
  19 active torsions:
  status: ('A' for Active; 'I' for Inactive)
    1  A    between atoms: C_1  and  C_44
    2  A    between atoms: C_7  and  C_27
    3  A    between atoms: C_7  and  N_60
    4  A    between atoms: C_12  and  C_34
    5  A    between atoms: C_12  and  C_43
    6  A    between atoms: C_13  and  O_21
    7  A    between atoms: C_13  and  O_56
    8  A    between atoms: N_18  and  C_27
    9  A    between atoms: C_20  and  C_24
   10  A    between atoms: C_20  and  C_55
   11  A    between atoms: O_21  and  O_23
   12  A    between atoms: C_24  and  C_37
   13  A    between atoms: C_25  and  C_40
   14  A    between atoms: C_25  and  N_60
   15  A    between atoms: C_29  and  C_40
   16  A    between atoms: C_29  and  C_45
   17  A    between atoms: C_39  and  C_59
   18  A    between atoms: C_40  and  O_56
   19  A    between atoms: C_54  and  N_60
                            x       y       z     vdW  Elec       q    Type
                         _______ _______ _______ _____ _____    ______ ____

>  <TORSDO>
F 19

$$$$
=
 OpenBabel11072409383D

 63 70  0  0  1  0  0  0  0  0999 V2000
  191.9160  171.7640  138.6280 N   0  0  0  0  0  2  0  0  0  0  0  0
  193.9740  172.6480  145.3990 C   0  0  0  0  0  2  0  0  0  0  0  0
  194.9140  173.2350  143.5110 C   0  0  2  0  0  3  0  0  0  0  0  0
  197.6160  168.5610  139.7590 O   0  0  0  0  0  1  0  0  0  0  0  0
  192.7740  173.8050  137.4760 C   0  0  0  0  0  0  0  0  0  0  0  0
  190.2590  172.2930  140.5380 C   0  0  0  0  0  2  0  0  0  0  0  0
  194.3400  170.8920  143.5250 C   0  0  1  0  0  3  0  0  0  0  0  0
  192.3670  175.0840  137.0830 O   0  0  0  0  0  1  0  0  0  0  0  0
  195.4280  171.6130  140.1370 C   0  0  2  0  0  3  0  0  0  0  0  0
  197.1200  169.7200  140.3630 C   0  0  2  0  0  3  0  0  0  0  0  0
  194.4850  172.1040  142.5630 C   0  0  2  0  0  0  0  0  0  0  0  0
  195.6920  171.7490  141.6620 C   0  0  1  0  0  3  0  0  0  0  0  0
  193.1320  172.3610  141.8360 C   0  0  2  0  0  3  0  0  0  0  0  0
  196.3420  169.3890  141.4770 O   0  0  0  0  0  0  0  0  0  0  0  0
  196.2860  170.5630  139.3930 C   0  0  1  0  0  3  0  0  0  0  0  0
  191.8070  174.2640  140.9940 C   0  0  0  0  0  3  0  0  0  0  0  0
  195.5230  172.8650  139.5140 O   0  0  0  0  0  0  0  0  0  0  0  0
  195.7140  170.2240  143.6200 C   0  0  1  0  0  3  0  0  0  0  0  0
  193.6770  173.5200  144.2750 N   0  0  2  0  0  0  0  0  0  0  0  0
  193.6810  171.2030  144.9160 C   0  0  0  0  0  2  0  0  0  0  0  0
  194.6380  172.8090  138.4300 C   0  0  0  0  0  2  0  0  0  0  0  0
  194.5320  174.6070  143.7700 C   0  0  1  0  0  3  0  0  0  0  0  0
  190.5560  173.5360  141.3910 C   0  0  1  0  0  3  0  0  0  0  0  0
  196.3970  170.5250  142.2950 C   0  0  2  0  0  3  0  0  0  0  0  0
  192.6290  171.1870  140.9740 C   0  0  0  0  0  2  0  0  0  0  0  0
  191.4760  171.5000  140.0100 C   0  0  2  0  0  3  0  0  0  0  0  0
  193.1670  173.1050  136.3220 O   0  0  0  0  0  1  0  0  0  0  0  0
  191.5690  173.1070  138.1500 C   0  0  1  0  0  3  0  0  0  0  0  0
  193.8500  173.9700  138.3860 O   0  0  0  0  0  0  0  0  0  0  0  0
  193.0100  173.7170  141.1940 C   0  0  0  0  0  3  0  0  0  0  0  0
  195.3590  175.2070  144.8980 C   0  0  0  0  0  2  0  0  0  0  0  0
  195.1200  176.6430  144.9950 N   0  0  0  0  0  1  0  0  0  0  0  0
  190.4130  173.0250  137.1910 C   0  0  0  0  0  3  0  0  0  0  0  0
  189.6000  174.0600  136.9800 C   0  0  0  0  0  2  0  0  0  0  0  0
  189.3660  174.4730  141.3070 C   0  0  0  0  0  2  0  0  0  0  0  0
  189.2440  175.3310  142.5580 C   0  0  2  0  0  3  0  0  0  0  0  0
  189.8790  174.6960  143.6660 O   0  0  0  0  0  0  0  0  0  0  0  0
  190.1310  175.3020  145.8840 O   0  0  0  0  0  0  0  0  0  0  0  0
  190.5040  175.4200  144.6850 C   0  0  0  0  0  0  0  0  0  0  0  0
  191.5350  176.3070  144.3730 O   0  0  0  0  0  0  0  0  0  0  0  0
  190.8160  178.2410  143.6770 C   0  0  0  0  0  1  0  0  0  0  0  0
  191.4690  177.5970  144.7300 O   0  0  0  0  0  0  0  0  0  0  0  0
  187.7570  175.5810  142.8370 C   0  0  0  0  0  2  0  0  0  0  0  0
  187.3150  176.9220  142.4380 N   0  0  0  0  0  0  0  0  0  0  0  0
  185.6600  178.1210  141.1190 C   0  0  0  0  0  2  0  0  0  0  0  0
  186.7710  177.6960  140.1830 C   0  0  0  0  0  2  0  0  0  0  0  0
  186.3630  176.7910  141.3350 C   0  0  0  0  0  3  0  0  0  0  0  0
  186.6660  177.6290  143.5560 C   0  0  0  0  0  2  0  0  0  0  0  0
  187.2460  177.2880  144.9320 C   0  0  0  0  0  2  0  0  0  0  0  0
  186.7040  176.7780  147.2030 C   0  0  0  0  0  2  0  0  0  0  0  0
  185.2590  179.0420  146.4220 C   0  0  0  0  0  2  0  0  0  0  0  0
  186.1950  176.8090  145.8240 N   0  0  0  0  0  0  0  0  0  0  0  0
  187.0560  178.0660  147.6500 O   0  0  0  0  0  0  0  0  0  0  0  0
  185.8550  178.7700  147.7960 C   0  0  0  0  0  2  0  0  0  0  0  0
  185.0300  177.7010  145.7250 C   0  0  0  0  0  2  0  0  0  0  0  0
  196.5660  170.7800  144.7620 C   0  0  0  0  0  2  0  0  0  0  0  0
  197.3250  169.6750  145.4730 C   0  0  0  0  0  2  0  0  0  0  0  0
  195.3340  168.3460  146.2630 N   0  0  0  0  0  1  0  0  0  0  0  0
  196.4930  169.1140  146.5710 C   0  0  0  0  0  0  0  0  0  0  0  0
  196.8320  169.2870  147.7720 O   0  0  0  0  0  0  0  0  0  0  0  0
  195.3470  169.6960  138.5550 C   0  0  0  0  0  2  0  0  0  0  0  0
  195.7110  169.7650  137.0760 C   0  0  0  0  0  2  0  0  0  0  0  0
  196.0700  168.3870  136.5480 C   0  0  0  0  0  1  0  0  0  0  0  0
  1 26  1  0  0  0  0
  3 22  1  0  0  0  0
  3 19  1  0  0  0  0
  4 10  1  0  0  0  0
  5 28  1  0  0  0  0
  5 29  1  0  0  0  0
  6 23  1  0  0  0  0
  7 18  1  0  0  0  0
  7 20  1  0  0  0  0
  8  5  1  0  0  0  0
  9 12  1  0  0  0  0
 10 14  1  0  0  0  0
 11  3  1  0  0  0  0
 11  7  1  0  0  0  0
 12 24  1  0  0  0  0
 12 11  1  0  0  0  0
 13 11  1  0  0  0  0
 14 24  1  0  0  0  0
 15  9  1  0  0  0  0
 15 10  1  0  0  0  0
 16 30  2  0  0  0  0
 16 23  1  0  0  0  0
 17  9  1  0  0  0  0
 18 56  1  0  0  0  0
 19  2  1  0  0  0  0
 20  2  1  0  0  0  0
 21 17  1  0  0  0  0
 22 19  1  0  0  0  0
 22 31  1  0  0  0  0
 24 18  1  0  0  0  0
 25 13  1  0  0  0  0
 26  6  1  0  0  0  0
 26 25  1  0  0  0  0
 27  5  1  0  0  0  0
 28  1  1  0  0  0  0
 29 21  1  0  0  0  0
 30 13  1  0  0  0  0
 31 32  1  0  0  0  0
 33 28  1  0  0  0  0
 34 33  2  0  0  0  0
 35 23  1  0  0  0  0
 35 36  1  0  0  0  0
 36 43  1  0  0  0  0
 36 37  1  0  0  0  0
 37 39  1  0  0  0  0
 39 38  2  0  0  0  0
 40 39  1  0  0  0  0
 40 42  1  0  0  0  0
 41 42  1  0  0  0  0
 44 43  1  0  0  0  0
 44 48  1  0  0  0  0
 45 47  1  0  0  0  0
 46 45  1  0  0  0  0
 46 47  1  0  0  0  0
 47 44  1  0  0  0  0
 48 49  1  0  0  0  0
 49 52  1  0  0  0  0
 50 53  1  0  0  0  0
 51 54  1  0  0  0  0
 52 50  1  0  0  0  0
 53 54  1  0  0  0  0
 55 52  1  0  0  0  0
 55 51  1  0  0  0  0
 56 57  1  0  0  0  0
 57 59  1  0  0  0  0
 58 59  1  0  0  0  0
 59 60  2  0  0  0  0
 61 15  1  0  0  0  0
 62 61  1  0  0  0  0
 63 62  1  0  0  0  0
M  END
>  <MODEL>
8

>  <REMARK>
 VINA RESULT:      -5.5      2.675      8.876
  Name = 
  19 active torsions:
  status: ('A' for Active; 'I' for Inactive)
    1  A    between atoms: C_1  and  C_44
    2  A    between atoms: C_7  and  C_27
    3  A    between atoms: C_7  and  N_60
    4  A    between atoms: C_12  and  C_34
    5  A    between atoms: C_12  and  C_43
    6  A    between atoms: C_13  and  O_21
    7  A    between atoms: C_13  and  O_56
    8  A    between atoms: N_18  and  C_27
    9  A    between atoms: C_20  and  C_24
   10  A    between atoms: C_20  and  C_55
   11  A    between atoms: O_21  and  O_23
   12  A    between atoms: C_24  and  C_37
   13  A    between atoms: C_25  and  C_40
   14  A    between atoms: C_25  and  N_60
   15  A    between atoms: C_29  and  C_40
   16  A    between atoms: C_29  and  C_45
   17  A    between atoms: C_39  and  C_59
   18  A    between atoms: C_40  and  O_56
   19  A    between atoms: C_54  and  N_60
                            x       y       z     vdW  Elec       q    Type
                         _______ _______ _______ _____ _____    ______ ____

>  <TORSDO>
F 19

$$$$
=
 OpenBabel11072409383D

 63 70  0  0  1  0  0  0  0  0999 V2000
  191.9950  172.6610  144.0220 N   0  0  0  0  0  2  0  0  0  0  0  0
  185.9880  176.2910  142.7580 C   0  0  0  0  0  2  0  0  0  0  0  0
  188.0910  176.8930  142.6630 C   0  0  2  0  0  3  0  0  0  0  0  0
  191.3850  177.7010  148.2950 O   0  0  0  0  0  1  0  0  0  0  0  0
  193.6300  173.6400  142.4110 C   0  0  0  0  0  0  0  0  0  0  0  0
  189.9370  171.6060  142.8720 C   0  0  0  0  0  2  0  0  0  0  0  0
  187.5540  175.8730  144.7830 C   0  0  1  0  0  3  0  0  0  0  0  0
  194.1620  173.4240  141.1360 O   0  0  0  0  0  1  0  0  0  0  0  0
  191.1580  176.3140  144.7930 C   0  0  2  0  0  3  0  0  0  0  0  0
  190.9160  177.5950  146.9830 C   0  0  2  0  0  3  0  0  0  0  0  0
  188.7270  176.0460  143.7770 C   0  0  2  0  0  0  0  0  0  0  0  0
  189.7570  176.9280  144.5210 C   0  0  1  0  0  3  0  0  0  0  0  0
  189.2250  174.6470  143.3080 C   0  0  2  0  0  3  0  0  0  0  0  0
  189.6370  177.0300  146.9710 O   0  0  0  0  0  0  0  0  0  0  0  0
  191.8500  176.7570  146.1030 C   0  0  1  0  0  3  0  0  0  0  0  0
  190.1330  173.5830  141.2770 C   0  0  0  0  0  3  0  0  0  0  0  0
  192.0010  176.5210  143.6920 O   0  0  0  0  0  0  0  0  0  0  0  0
  187.5980  177.0710  145.7370 C   0  0  1  0  0  3  0  0  0  0  0  0
  187.1740  175.9370  141.9970 N   0  0  2  0  0  0  0  0  0  0  0  0
  186.1440  175.6130  144.1450 C   0  0  0  0  0  2  0  0  0  0  0  0
  192.8750  175.4270  143.6820 C   0  0  0  0  0  2  0  0  0  0  0  0
  188.0140  176.8630  141.2180 C   0  0  1  0  0  3  0  0  0  0  0  0
  189.3880  172.3280  141.6320 C   0  0  1  0  0  3  0  0  0  0  0  0
  189.0580  177.4930  145.7820 C   0  0  2  0  0  3  0  0  0  0  0  0
  189.7570  173.7400  144.4350 C   0  0  0  0  0  2  0  0  0  0  0  0
  190.5310  172.4910  143.9910 C   0  0  2  0  0  3  0  0  0  0  0  0
  194.6940  173.6200  143.3300 O   0  0  0  0  0  1  0  0  0  0  0  0
  192.6320  172.4970  142.7110 C   0  0  1  0  0  3  0  0  0  0  0  0
  192.9780  174.9000  142.3840 O   0  0  0  0  0  0  0  0  0  0  0  0
  190.0640  174.6640  142.0590 C   0  0  0  0  0  3  0  0  0  0  0  0
  187.1830  178.0210  140.6850 C   0  0  0  0  0  2  0  0  0  0  0  0
  186.8010  178.9150  141.7720 N   0  0  0  0  0  1  0  0  0  0  0  0
  193.3310  171.1660  142.6460 C   0  0  0  0  0  3  0  0  0  0  0  0
  193.6630  170.4910  143.7450 C   0  0  0  0  0  2  0  0  0  0  0  0
  189.4170  171.3640  140.4610 C   0  0  0  0  0  2  0  0  0  0  0  0
  189.7350  172.0820  139.1570 C   0  0  2  0  0  3  0  0  0  0  0  0
  188.5560  172.6620  138.6020 O   0  0  0  0  0  0  0  0  0  0  0  0
  189.6350  174.1690  137.2190 O   0  0  0  0  0  0  0  0  0  0  0  0
  188.5880  173.8300  137.8360 C   0  0  0  0  0  0  0  0  0  0  0  0
  187.4610  174.6500  137.7730 O   0  0  0  0  0  0  0  0  0  0  0  0
  186.3240  176.4200  137.2120 C   0  0  0  0  0  1  0  0  0  0  0  0
  187.2920  175.5180  136.7650 O   0  0  0  0  0  0  0  0  0  0  0  0
  190.3690  171.0760  138.1880 C   0  0  0  0  0  2  0  0  0  0  0  0
  191.7940  170.8430  138.4510 N   0  0  0  0  0  0  0  0  0  0  0  0
  193.4250  169.1310  139.0160 C   0  0  0  0  0  2  0  0  0  0  0  0
  192.2070  168.9070  139.8870 C   0  0  0  0  0  2  0  0  0  0  0  0
  192.0380  169.4020  138.4580 C   0  0  0  0  0  3  0  0  0  0  0  0
  192.6410  171.4730  137.4230 C   0  0  0  0  0  2  0  0  0  0  0  0
  193.3080  172.7760  137.8750 C   0  0  0  0  0  2  0  0  0  0  0  0
  193.4280  175.1390  137.5400 C   0  0  0  0  0  2  0  0  0  0  0  0
  195.1110  173.8850  135.6920 C   0  0  0  0  0  2  0  0  0  0  0  0
  192.9670  173.8660  136.9670 N   0  0  0  0  0  0  0  0  0  0  0  0
  194.8280  175.1600  137.6870 O   0  0  0  0  0  0  0  0  0  0  0  0
  195.3550  175.2140  136.3910 C   0  0  0  0  0  2  0  0  0  0  0  0
  193.6050  173.6280  135.6620 C   0  0  0  0  0  2  0  0  0  0  0  0
  186.7500  178.2460  145.2490 C   0  0  0  0  0  2  0  0  0  0  0  0
  186.0530  178.9400  146.4050 C   0  0  0  0  0  2  0  0  0  0  0  0
  185.5510  177.5190  148.4270 N   0  0  0  0  0  1  0  0  0  0  0  0
  185.1840  177.9720  147.1270 C   0  0  0  0  0  0  0  0  0  0  0  0
  184.1060  177.5800  146.6060 O   0  0  0  0  0  0  0  0  0  0  0  0
  192.3310  175.5010  146.8290 C   0  0  0  0  0  2  0  0  0  0  0  0
  193.8540  175.4510  146.8850 C   0  0  0  0  0  2  0  0  0  0  0  0
  194.4480  176.8010  146.5250 C   0  0  0  0  0  1  0  0  0  0  0  0
  2 20  1  0  0  0  0
  3 11  1  0  0  0  0
  5 28  1  0  0  0  0
  5 27  1  0  0  0  0
  6 26  1  0  0  0  0
  7 18  1  0  0  0  0
  8  5  1  0  0  0  0
  9 15  1  0  0  0  0
 10  4  1  0  0  0  0
 11 12  1  0  0  0  0
 11  7  1  0  0  0  0
 12  9  1  0  0  0  0
 12 24  1  0  0  0  0
 13 11  1  0  0  0  0
 13 25  1  0  0  0  0
 14 10  1  0  0  0  0
 15 61  1  0  0  0  0
 15 10  1  0  0  0  0
 16 23  1  0  0  0  0
 16 30  2  0  0  0  0
 17  9  1  0  0  0  0
 18 24  1  0  0  0  0
 19  3  1  0  0  0  0
 19  2  1  0  0  0  0
 20  7  1  0  0  0  0
 21 17  1  0  0  0  0
 22 19  1  0  0  0  0
 22  3  1  0  0  0  0
 23  6  1  0  0  0  0
 24 14  1  0  0  0  0
 26  1  1  0  0  0  0
 26 25  1  0  0  0  0
 28  1  1  0  0  0  0
 29  5  1  0  0  0  0
 29 21  1  0  0  0  0
 30 13  1  0  0  0  0
 31 22  1  0  0  0  0
 31 32  1  0  0  0  0
 33 28  1  0  0  0  0
 33 34  2  0  0  0  0
 35 23  1  0  0  0  0
 36 35  1  0  0  0  0
 37 36  1  0  0  0  0
 38 39  2  0  0  0  0
 39 37  1  0  0  0  0
 40 39  1  0  0  0  0
 42 41  1  0  0  0  0
 42 40  1  0  0  0  0
 43 44  1  0  0  0  0
 43 36  1  0  0  0  0
 44 47  1  0  0  0  0
 45 46  1  0  0  0  0
 47 45  1  0  0  0  0
 47 46  1  0  0  0  0
 48 49  1  0  0  0  0
 48 44  1  0  0  0  0
 50 53  1  0  0  0  0
 51 54  1  0  0  0  0
 52 50  1  0  0  0  0
 52 49  1  0  0  0  0
 54 53  1  0  0  0  0
 55 51  1  0  0  0  0
 55 52  1  0  0  0  0
 56 18  1  0  0  0  0
 56 57  1  0  0  0  0
 57 59  1  0  0  0  0
 59 58  1  0  0  0  0
 60 59  2  0  0  0  0
 61 62  1  0  0  0  0
 63 62  1  0  0  0  0
M  END
>  <MODEL>
9

>  <REMARK>
 VINA RESULT:      -5.2      2.955      7.057
  Name = 
  19 active torsions:
  status: ('A' for Active; 'I' for Inactive)
    1  A    between atoms: C_1  and  C_44
    2  A    between atoms: C_7  and  C_27
    3  A    between atoms: C_7  and  N_60
    4  A    between atoms: C_12  and  C_34
    5  A    between atoms: C_12  and  C_43
    6  A    between atoms: C_13  and  O_21
    7  A    between atoms: C_13  and  O_56
    8  A    between atoms: N_18  and  C_27
    9  A    between atoms: C_20  and  C_24
   10  A    between atoms: C_20  and  C_55
   11  A    between atoms: O_21  and  O_23
   12  A    between atoms: C_24  and  C_37
   13  A    between atoms: C_25  and  C_40
   14  A    between atoms: C_25  and  N_60
   15  A    between atoms: C_29  and  C_40
   16  A    between atoms: C_29  and  C_45
   17  A    between atoms: C_39  and  C_59
   18  A    between atoms: C_40  and  O_56
   19  A    between atoms: C_54  and  N_60
                            x       y       z     vdW  Elec       q    Type
                         _______ _______ _______ _____ _____    ______ ____

>  <TORSDO>
F 19

$$$$
