=
 OpenBabel11062422123D

 44 49  0  0  1  0  0  0  0  0999 V2000
  190.8710  173.7410  145.1280 C   0  0  2  0  0  3  0  0  0  0  0  0
  192.1520  176.2710  146.5820 C   0  0  0  0  0  2  0  0  0  0  0  0
  193.9100  175.9100  145.0480 O   0  0  0  0  0  0  0  0  0  0  0  0
  189.8370  175.7800  146.5940 C   0  0  2  0  0  0  0  0  0  0  0  0
  192.1820  174.3410  144.8310 N   0  0  0  0  0  0  0  0  0  0  0  0
  190.8620  172.4010  144.4130 C   0  0  0  0  0  2  0  0  0  0  0  0
  191.9630  172.4890  143.3700 C   0  0  0  0  0  2  0  0  0  0  0  0
  188.9330  175.3410  145.6190 O   0  0  0  0  0  0  0  0  0  0  0  0
  192.9370  173.5260  143.8890 C   0  0  2  0  0  3  0  0  0  0  0  0
  189.8100  177.1210  146.9990 O   0  0  0  0  0  0  0  0  0  0  0  0
  192.7940  175.5000  145.4640 C   0  0  0  0  0  0  0  0  0  0  0  0
  190.8190  176.7550  146.0730 C   0  0  1  0  0  3  0  0  0  0  0  0
  189.6460  174.5820  144.6400 C   0  0  1  0  0  3  0  0  0  0  0  0
  190.1250  174.9150  147.6610 O   0  0  0  0  0  1  0  0  0  0  0  0
  194.0660  172.8120  144.6200 C   0  0  0  0  0  2  0  0  0  0  0  0
  195.2280  172.5270  143.6720 C   0  0  2  0  0  3  0  0  0  0  0  0
  196.4820  172.0000  144.3850 C   0  0  2  0  0  3  0  0  0  0  0  0
  196.7590  170.6920  143.9830 O   0  0  0  0  0  1  0  0  0  0  0  0
  197.1070  173.2520  146.3440 O   0  0  0  0  0  1  0  0  0  0  0  0
  196.4460  172.1040  145.9110 C   0  0  0  0  0  2  0  0  0  0  0  0
  195.5320  173.7190  142.7640 C   0  0  0  0  0  2  0  0  0  0  0  0
  196.5020  174.5470  143.3390 O   0  0  0  0  0  0  0  0  0  0  0  0
  196.5170  175.9560  142.3930 P   0  0  0  0  0  0  0  0  0  0  0  0
  195.1110  176.2980  141.9560 O   0  0  0  0  0  1  0  0  0  0  0  0
  197.1700  177.2500  143.2700 O   0  0  0  0  0  1  0  0  0  0  0  0
  197.4690  175.6830  141.0190 O   0  0  0  0  0  0  0  0  0  0  0  0
  189.9170  175.5330  143.1040 S   0  0  0  0  0  0  0  0  0  0  0  0
  187.2820  175.8630  142.4780 C   0  0  1  0  0  3  0  0  0  0  0  0
  187.4050  176.4100  141.1870 O   0  0  0  0  0  0  0  0  0  0  0  0
  187.1740  178.5520  142.4010 C   0  0  1  0  0  3  0  0  0  0  0  0
  185.9270  177.8680  142.8410 N   0  0  0  0  0  0  0  0  0  0  0  0
  188.5120  177.8480  142.7200 C   0  0  1  0  0  3  0  0  0  0  0  0
  188.3730  176.4680  143.3090 C   0  0  2  0  0  3  0  0  0  0  0  0
  186.0030  176.4160  143.0750 C   0  0  0  0  0  2  0  0  0  0  0  0
  187.9200  177.7210  141.3370 C   0  0  1  0  0  3  0  0  0  0  0  0
  183.7530  178.5620  144.1490 O   0  0  0  0  0  0  0  0  0  0  0  0
  185.6220  180.1160  144.2020 O   0  0  0  0  0  0  0  0  0  0  0  0
  185.2480  178.6620  144.2340 S   0  0  0  0  0  0  0  0  0  0  0  0
  185.2740  176.6540  145.8670 F   0  0  0  0  0  0  0  0  0  0  0  0
  185.7580  177.9490  145.8000 C   0  0  0  0  0  0  0  0  0  0  0  0
  187.1370  177.8960  145.8740 F   0  0  0  0  0  0  0  0  0  0  0  0
  183.9320  178.5130  147.3760 F   0  0  0  0  0  0  0  0  0  0  0  0
  185.8930  179.5580  147.5350 O   0  0  0  0  0  0  0  0  0  0  0  0
  185.2080  178.7280  146.9600 C   0  0  0  0  0  0  0  0  0  0  0  0
  1  6  1  6  0  0  0
  3 11  2  0  0  0  0
  4 10  1  0  0  0  0
  4 14  1  1  0  0  0
  5  1  1  0  0  0  0
  5 11  1  0  0  0  0
  7  9  1  0  0  0  0
  7  6  1  0  0  0  0
  8  4  1  0  0  0  0
  9 15  1  1  0  0  0
  9  5  1  0  0  0  0
 11  2  1  0  0  0  0
 12  2  1  1  0  0  0
 12  4  1  0  0  0  0
 12 10  1  0  0  0  0
 13 27  1  6  0  0  0
 13  1  1  0  0  0  0
 13  8  1  0  0  0  0
 16 21  1  1  0  0  0
 16 17  1  0  0  0  0
 16 15  1  0  0  0  0
 17 18  1  1  0  0  0
 17 20  1  0  0  0  0
 20 19  1  0  0  0  0
 21 22  1  0  0  0  0
 23 25  1  0  0  0  0
 23 22  1  0  0  0  0
 24 23  1  0  0  0  0
 26 23  2  0  0  0  0
 27 33  1  0  0  0  0
 28 34  1  1  0  0  0
 28 33  1  0  0  0  0
 29 35  1  0  0  0  0
 29 28  1  0  0  0  0
 30 32  1  0  0  0  0
 30 31  1  1  0  0  0
 31 34  1  0  0  0  0
 31 38  1  0  0  0  0
 32 33  1  0  0  0  0
 35 30  1  0  0  0  0
 35 32  1  0  0  0  0
 36 38  2  0  0  0  0
 37 38  2  0  0  0  0
 38 40  1  0  0  0  0
 40 39  1  0  0  0  0
 40 41  1  0  0  0  0
 40 44  1  0  0  0  0
 44 42  1  0  0  0  0
 44 43  2  0  0  0  0
M  END
>  <MODEL>
1

>  <REMARK>
 VINA RESULT:      -7.9      0.000      0.000
  Name = 
  12 active torsions:
  status: ('A' for Active; 'I' for Inactive)
    1  A    between atoms: C_5  and  C_19
    2  A    between atoms: C_5  and  C_31
    3  A    between atoms: C_6  and  C_19
    4  A    between atoms: C_6  and  C_24
    5  A    between atoms: C_14  and  C_19
    6  A    between atoms: C_14  and  O_37
    7  A    between atoms: C_15  and  C_23
    8  A    between atoms: C_15  and  S_41
    9  A    between atoms: S_17  and  C_32
   10  A    between atoms: S_17  and  C_42
   11  A    between atoms: N_21  and  S_41
   12  A    between atoms: P_26  and  O_37
                            x       y       z     vdW  Elec       q    Type
                         _______ _______ _______ _____ _____    ______ ____

>  <TORSDO>
F 12

$$$$
=
 OpenBabel11062422123D

 44 49  0  0  1  0  0  0  0  0999 V2000
  191.8610  175.0050  142.1220 C   0  0  2  0  0  3  0  0  0  0  0  0
  191.7570  171.9340  141.2740 C   0  0  0  0  0  2  0  0  0  0  0  0
  193.5330  171.7380  142.8170 O   0  0  0  0  0  0  0  0  0  0  0  0
  189.9420  173.4310  141.0180 C   0  0  2  0  0  0  0  0  0  0  0  0
  192.7490  173.9380  142.6130 N   0  0  0  0  0  0  0  0  0  0  0  0
  192.5050  176.3080  142.5590 C   0  0  0  0  0  2  0  0  0  0  0  0
  193.4730  175.9320  143.6670 C   0  0  0  0  0  2  0  0  0  0  0  0
  189.3830  174.4270  141.8290 O   0  0  0  0  0  0  0  0  0  0  0  0
  193.8300  174.4800  143.4240 C   0  0  2  0  0  3  0  0  0  0  0  0
  189.2760  172.2060  140.8820 O   0  0  0  0  0  0  0  0  0  0  0  0
  192.7250  172.5260  142.2590 C   0  0  0  0  0  0  0  0  0  0  0  0
  190.3720  172.2390  141.7810 C   0  0  1  0  0  3  0  0  0  0  0  0
  190.4030  174.9480  142.6850 C   0  0  1  0  0  3  0  0  0  0  0  0
  190.5630  173.8270  139.8240 O   0  0  0  0  0  1  0  0  0  0  0  0
  195.1350  174.4230  142.6420 C   0  0  0  0  0  2  0  0  0  0  0  0
  196.2020  175.2890  143.3060 C   0  0  2  0  0  3  0  0  0  0  0  0
  197.0240  176.1170  142.3090 C   0  0  2  0  0  3  0  0  0  0  0  0
  196.1940  176.9760  141.5860 O   0  0  0  0  0  1  0  0  0  0  0  0
  197.7930  175.7530  140.0570 O   0  0  0  0  0  1  0  0  0  0  0  0
  197.9110  175.2980  141.3690 C   0  0  0  0  0  2  0  0  0  0  0  0
  197.0840  174.4800  144.2570 C   0  0  0  0  0  2  0  0  0  0  0  0
  196.8960  173.1070  144.0640 O   0  0  0  0  0  0  0  0  0  0  0  0
  196.5550  172.4730  145.6010 P   0  0  0  0  0  0  0  0  0  0  0  0
  197.0850  173.4000  146.6700 O   0  0  0  0  0  1  0  0  0  0  0  0
  194.8850  172.2720  145.7990 O   0  0  0  0  0  1  0  0  0  0  0  0
  197.3140  170.9670  145.7520 O   0  0  0  0  0  0  0  0  0  0  0  0
  190.2520  174.3120  144.3910 S   0  0  0  0  0  0  0  0  0  0  0  0
  189.4810  176.9280  144.4540 C   0  0  1  0  0  3  0  0  0  0  0  0
  190.2800  177.3920  145.5160 O   0  0  0  0  0  0  0  0  0  0  0  0
  188.2360  176.9700  146.8410 C   0  0  1  0  0  3  0  0  0  0  0  0
  187.6910  177.8980  145.8130 N   0  0  0  0  0  0  0  0  0  0  0  0
  188.8780  175.6580  146.3350 C   0  0  1  0  0  3  0  0  0  0  0  0
  189.0080  175.5580  144.8370 C   0  0  2  0  0  3  0  0  0  0  0  0
  188.2210  177.7720  144.4440 C   0  0  0  0  0  2  0  0  0  0  0  0
  189.7650  176.8230  146.7060 C   0  0  1  0  0  3  0  0  0  0  0  0
  185.4510  178.0690  147.1820 O   0  0  0  0  0  0  0  0  0  0  0  0
  185.5150  176.4660  145.3560 O   0  0  0  0  0  0  0  0  0  0  0  0
  185.9510  177.8360  145.7860 S   0  0  0  0  0  0  0  0  0  0  0  0
  183.9110  179.3080  145.1770 F   0  0  0  0  0  0  0  0  0  0  0  0
  185.1950  179.0650  144.7190 C   0  0  0  0  0  0  0  0  0  0  0  0
  185.9020  180.2500  144.7780 F   0  0  0  0  0  0  0  0  0  0  0  0
  186.0290  179.0030  142.3870 F   0  0  0  0  0  0  0  0  0  0  0  0
  184.2330  177.8120  142.9520 O   0  0  0  0  0  0  0  0  0  0  0  0
  185.1140  178.5810  143.3000 C   0  0  0  0  0  0  0  0  0  0  0  0
  1  6  1  1  0  0  0
  1  5  1  0  0  0  0
  1 13  1  0  0  0  0
  2 11  1  0  0  0  0
  4 14  1  6  0  0  0
  4 12  1  0  0  0  0
  4  8  1  0  0  0  0
  5  9  1  0  0  0  0
  6  7  1  0  0  0  0
  8 13  1  0  0  0  0
  9 15  1  6  0  0  0
  9  7  1  0  0  0  0
 10  4  1  0  0  0  0
 10 12  1  0  0  0  0
 11  5  1  0  0  0  0
 11  3  2  0  0  0  0
 12  2  1  6  0  0  0
 13 27  1  1  0  0  0
 16 15  1  6  0  0  0
 16 21  1  0  0  0  0
 17 18  1  6  0  0  0
 17 16  1  0  0  0  0
 19 20  1  0  0  0  0
 20 17  1  0  0  0  0
 22 21  1  0  0  0  0
 22 23  1  0  0  0  0
 23 26  2  0  0  0  0
 23 25  1  0  0  0  0
 23 24  1  0  0  0  0
 27 33  1  0  0  0  0
 28 34  1  1  0  0  0
 28 33  1  0  0  0  0
 28 29  1  0  0  0  0
 29 35  1  0  0  0  0
 30 31  1  6  0  0  0
 32 35  1  0  0  0  0
 32 30  1  0  0  0  0
 33 32  1  0  0  0  0
 34 31  1  0  0  0  0
 35 30  1  0  0  0  0
 37 38  2  0  0  0  0
 38 31  1  0  0  0  0
 38 36  2  0  0  0  0
 40 41  1  0  0  0  0
 40 39  1  0  0  0  0
 40 38  1  0  0  0  0
 42 44  1  0  0  0  0
 43 44  2  0  0  0  0
 44 40  1  0  0  0  0
M  END
>  <MODEL>
2

>  <REMARK>
 VINA RESULT:      -7.0      2.450      4.604
  Name = 
  12 active torsions:
  status: ('A' for Active; 'I' for Inactive)
    1  A    between atoms: C_5  and  C_19
    2  A    between atoms: C_5  and  C_31
    3  A    between atoms: C_6  and  C_19
    4  A    between atoms: C_6  and  C_24
    5  A    between atoms: C_14  and  C_19
    6  A    between atoms: C_14  and  O_37
    7  A    between atoms: C_15  and  C_23
    8  A    between atoms: C_15  and  S_41
    9  A    between atoms: S_17  and  C_32
   10  A    between atoms: S_17  and  C_42
   11  A    between atoms: N_21  and  S_41
   12  A    between atoms: P_26  and  O_37
                            x       y       z     vdW  Elec       q    Type
                         _______ _______ _______ _____ _____    ______ ____

>  <TORSDO>
F 12

$$$$
=
 OpenBabel11062422123D

 44 49  0  0  1  0  0  0  0  0999 V2000
  191.0230  174.0900  145.0190 C   0  0  2  0  0  3  0  0  0  0  0  0
  194.0370  174.8890  144.3570 C   0  0  0  0  0  2  0  0  0  0  0  0
  193.8230  173.2140  142.7070 O   0  0  0  0  0  0  0  0  0  0  0  0
  192.5170  176.3120  145.4810 C   0  0  2  0  0  0  0  0  0  0  0  0
  191.8800  173.4730  143.9930 N   0  0  0  0  0  0  0  0  0  0  0  0
  189.8270  173.1680  145.1630 C   0  0  0  0  0  2  0  0  0  0  0  0
  189.8130  172.3180  143.9040 C   0  0  0  0  0  2  0  0  0  0  0  0
  191.1660  176.6330  145.2920 O   0  0  0  0  0  0  0  0  0  0  0  0
  191.2440  172.3020  143.4060 C   0  0  2  0  0  3  0  0  0  0  0  0
  193.4990  177.2390  145.1110 O   0  0  0  0  0  0  0  0  0  0  0  0
  193.2530  173.8170  143.6540 C   0  0  0  0  0  0  0  0  0  0  0  0
  193.2600  176.1710  144.2100 C   0  0  1  0  0  3  0  0  0  0  0  0
  190.5150  175.5260  144.6640 C   0  0  1  0  0  3  0  0  0  0  0  0
  192.8690  175.6090  146.6440 O   0  0  0  0  0  1  0  0  0  0  0  0
  191.9230  171.0390  143.9180 C   0  0  0  0  0  2  0  0  0  0  0  0
  192.2160  170.0780  142.7700 C   0  0  2  0  0  3  0  0  0  0  0  0
  193.5910  169.4040  142.8720 C   0  0  2  0  0  3  0  0  0  0  0  0
  194.3910  170.0660  143.8060 O   0  0  0  0  0  1  0  0  0  0  0  0
  195.6690  169.6020  141.6720 O   0  0  0  0  0  1  0  0  0  0  0  0
  194.3290  169.2410  141.5410 C   0  0  0  0  0  2  0  0  0  0  0  0
  191.9870  170.7290  141.4060 C   0  0  0  0  0  2  0  0  0  0  0  0
  190.9990  170.0460  140.6880 O   0  0  0  0  0  0  0  0  0  0  0  0
  190.5690  171.0780  139.4100 P   0  0  0  0  0  0  0  0  0  0  0  0
  191.8050  171.4980  138.6490 O   0  0  0  0  0  1  0  0  0  0  0  0
  189.4920  170.3000  138.3600 O   0  0  0  0  0  0  0  0  0  0  0  0
  189.8200  172.4560  140.0490 O   0  0  0  0  0  1  0  0  0  0  0  0
  190.2180  175.8290  142.8870 S   0  0  0  0  0  0  0  0  0  0  0  0
  187.5120  175.8340  142.5390 C   0  0  1  0  0  3  0  0  0  0  0  0
  187.4380  176.2900  141.2090 O   0  0  0  0  0  0  0  0  0  0  0  0
  187.0970  178.4830  142.2990 C   0  0  1  0  0  3  0  0  0  0  0  0
  185.9870  177.7100  142.9200 N   0  0  0  0  0  0  0  0  0  0  0  0
  188.5310  177.9490  142.5120 C   0  0  1  0  0  3  0  0  0  0  0  0
  188.6090  176.6120  143.2010 C   0  0  2  0  0  3  0  0  0  0  0  0
  186.2480  176.2960  143.2390 C   0  0  0  0  0  2  0  0  0  0  0  0
  187.8150  177.6560  141.2150 C   0  0  1  0  0  3  0  0  0  0  0  0
  183.8740  178.4350  144.3100 O   0  0  0  0  0  0  0  0  0  0  0  0
  185.7450  179.9860  144.2460 O   0  0  0  0  0  0  0  0  0  0  0  0
  185.3720  178.5340  144.3250 S   0  0  0  0  0  0  0  0  0  0  0  0
  185.5340  176.5360  145.9630 F   0  0  0  0  0  0  0  0  0  0  0  0
  185.9520  177.8530  145.8810 C   0  0  0  0  0  0  0  0  0  0  0  0
  187.3330  177.8680  145.9240 F   0  0  0  0  0  0  0  0  0  0  0  0
  184.0800  178.4710  147.3800 F   0  0  0  0  0  0  0  0  0  0  0  0
  186.1000  179.3490  147.7130 O   0  0  0  0  0  0  0  0  0  0  0  0
  185.3910  178.6080  147.0510 C   0  0  0  0  0  0  0  0  0  0  0  0
  1  6  1  6  0  0  0
  3 11  2  0  0  0  0
  4 14  1  1  0  0  0
  5  1  1  0  0  0  0
  7  6  1  0  0  0  0
  8  4  1  0  0  0  0
  9  7  1  0  0  0  0
  9 15  1  1  0  0  0
  9  5  1  0  0  0  0
 10  4  1  0  0  0  0
 11  5  1  0  0  0  0
 11  2  1  0  0  0  0
 12  2  1  1  0  0  0
 12 10  1  0  0  0  0
 12  4  1  0  0  0  0
 13 27  1  6  0  0  0
 13  1  1  0  0  0  0
 13  8  1  0  0  0  0
 16 21  1  6  0  0  0
 16 17  1  0  0  0  0
 16 15  1  0  0  0  0
 17 18  1  1  0  0  0
 20 19  1  0  0  0  0
 20 17  1  0  0  0  0
 22 21  1  0  0  0  0
 23 26  1  0  0  0  0
 23 22  1  0  0  0  0
 24 23  1  0  0  0  0
 25 23  2  0  0  0  0
 27 33  1  0  0  0  0
 28 33  1  0  0  0  0
 28 34  1  1  0  0  0
 29 35  1  0  0  0  0
 29 28  1  0  0  0  0
 30 32  1  0  0  0  0
 30 31  1  1  0  0  0
 31 34  1  0  0  0  0
 31 38  1  0  0  0  0
 32 33  1  0  0  0  0
 35 30  1  0  0  0  0
 35 32  1  0  0  0  0
 36 38  2  0  0  0  0
 37 38  2  0  0  0  0
 38 40  1  0  0  0  0
 40 41  1  0  0  0  0
 40 39  1  0  0  0  0
 40 44  1  0  0  0  0
 44 42  1  0  0  0  0
 44 43  2  0  0  0  0
M  END
>  <MODEL>
3

>  <REMARK>
 VINA RESULT:      -6.9      2.705      3.720
  Name = 
  12 active torsions:
  status: ('A' for Active; 'I' for Inactive)
    1  A    between atoms: C_5  and  C_19
    2  A    between atoms: C_5  and  C_31
    3  A    between atoms: C_6  and  C_19
    4  A    between atoms: C_6  and  C_24
    5  A    between atoms: C_14  and  C_19
    6  A    between atoms: C_14  and  O_37
    7  A    between atoms: C_15  and  C_23
    8  A    between atoms: C_15  and  S_41
    9  A    between atoms: S_17  and  C_32
   10  A    between atoms: S_17  and  C_42
   11  A    between atoms: N_21  and  S_41
   12  A    between atoms: P_26  and  O_37
                            x       y       z     vdW  Elec       q    Type
                         _______ _______ _______ _____ _____    ______ ____

>  <TORSDO>
F 12

$$$$
=
 OpenBabel11062422123D

 44 49  0  0  1  0  0  0  0  0999 V2000
  191.5890  175.6620  143.8430 C   0  0  2  0  0  3  0  0  0  0  0  0
  192.2390  176.2990  146.8980 C   0  0  0  0  0  2  0  0  0  0  0  0
  189.9640  175.7490  147.2050 O   0  0  0  0  0  0  0  0  0  0  0  0
  193.8830  175.7170  145.2980 C   0  0  2  0  0  0  0  0  0  0  0  0
  190.6340  175.6150  144.9620 N   0  0  0  0  0  0  0  0  0  0  0  0
  190.7470  175.6010  142.5820 C   0  0  0  0  0  2  0  0  0  0  0  0
  189.3970  175.0580  143.0190 C   0  0  0  0  0  2  0  0  0  0  0  0
  193.9480  174.7620  144.2760 O   0  0  0  0  0  0  0  0  0  0  0  0
  189.2730  175.4070  144.4880 C   0  0  2  0  0  3  0  0  0  0  0  0
  194.6010  175.5040  146.4810 O   0  0  0  0  0  0  0  0  0  0  0  0
  190.8950  175.8860  146.3680 C   0  0  0  0  0  0  0  0  0  0  0  0
  193.2140  175.2150  146.5170 C   0  0  1  0  0  3  0  0  0  0  0  0
  192.6210  174.4870  143.8190 C   0  0  1  0  0  3  0  0  0  0  0  0
  193.8660  177.0720  144.9310 O   0  0  0  0  0  1  0  0  0  0  0  0
  188.4840  176.7040  144.6160 C   0  0  0  0  0  2  0  0  0  0  0  0
  187.0430  176.5080  144.1520 C   0  0  2  0  0  3  0  0  0  0  0  0
  186.6780  177.3460  142.9200 C   0  0  2  0  0  3  0  0  0  0  0  0
  186.3820  176.5180  141.8350 O   0  0  0  0  0  1  0  0  0  0  0  0
  188.3540  178.0540  141.3430 O   0  0  0  0  0  1  0  0  0  0  0  0
  187.7150  178.4030  142.5310 C   0  0  0  0  0  2  0  0  0  0  0  0
  186.0440  176.6890  145.2960 C   0  0  0  0  0  2  0  0  0  0  0  0
  186.5970  177.4660  146.3200 O   0  0  0  0  0  0  0  0  0  0  0  0
  185.5570  178.7960  146.4960 P   0  0  0  0  0  0  0  0  0  0  0  0
  184.1310  178.3170  146.6530 O   0  0  0  0  0  1  0  0  0  0  0  0
  185.9990  179.7160  147.8470 O   0  0  0  0  0  1  0  0  0  0  0  0
  185.6640  179.7620  145.1090 O   0  0  0  0  0  0  0  0  0  0  0  0
  191.9980  172.8920  144.4550 S   0  0  0  0  0  0  0  0  0  0  0  0
  191.4850  170.7630  142.8270 C   0  0  1  0  0  3  0  0  0  0  0  0
  192.7640  170.1760  142.7830 O   0  0  0  0  0  0  0  0  0  0  0  0
  192.9560  171.4730  140.6860 C   0  0  1  0  0  3  0  0  0  0  0  0
  191.7280  170.6850  140.3930 N   0  0  0  0  0  0  0  0  0  0  0  0
  192.9240  172.3880  141.9310 C   0  0  1  0  0  3  0  0  0  0  0  0
  191.6910  172.2480  142.7840 C   0  0  2  0  0  3  0  0  0  0  0  0
  190.8020  170.4400  141.5120 C   0  0  0  0  0  2  0  0  0  0  0  0
  193.5930  171.0370  142.0210 C   0  0  1  0  0  3  0  0  0  0  0  0
  189.7750  170.4150  138.6510 O   0  0  0  0  0  0  0  0  0  0  0  0
  191.8030  171.5150  137.8820 O   0  0  0  0  0  0  0  0  0  0  0  0
  190.8640  171.3700  139.0450 S   0  0  0  0  0  0  0  0  0  0  0  0
  189.2960  172.8150  140.5140 F   0  0  0  0  0  0  0  0  0  0  0  0
  190.1030  172.9570  139.3970 C   0  0  0  0  0  0  0  0  0  0  0  0
  191.0720  173.8980  139.6860 F   0  0  0  0  0  0  0  0  0  0  0  0
  187.9380  173.0940  138.2020 F   0  0  0  0  0  0  0  0  0  0  0  0
  189.7360  174.0960  137.3520 O   0  0  0  0  0  0  0  0  0  0  0  0
  189.2550  173.4230  138.2490 C   0  0  0  0  0  0  0  0  0  0  0  0
  1  6  1  6  0  0  0
  1  5  1  0  0  0  0
  4 14  1  6  0  0  0
  4 10  1  0  0  0  0
  4 12  1  0  0  0  0
  5 11  1  0  0  0  0
  6  7  1  0  0  0  0
  7  9  1  0  0  0  0
  8  4  1  0  0  0  0
  9 15  1  6  0  0  0
  9  5  1  0  0  0  0
 10 12  1  0  0  0  0
 11  2  1  0  0  0  0
 11  3  2  0  0  0  0
 12  2  1  1  0  0  0
 13  1  1  0  0  0  0
 13  8  1  0  0  0  0
 13 27  1  1  0  0  0
 16 15  1  1  0  0  0
 16 21  1  0  0  0  0
 17 18  1  6  0  0  0
 17 16  1  0  0  0  0
 19 20  1  0  0  0  0
 20 17  1  0  0  0  0
 21 22  1  0  0  0  0
 22 23  1  0  0  0  0
 23 24  1  0  0  0  0
 23 25  1  0  0  0  0
 26 23  2  0  0  0  0
 28 34  1  6  0  0  0
 29 28  1  0  0  0  0
 30 31  1  1  0  0  0
 30 32  1  0  0  0  0
 30 35  1  0  0  0  0
 31 34  1  0  0  0  0
 32 35  1  0  0  0  0
 32 33  1  0  0  0  0
 33 28  1  0  0  0  0
 33 27  1  0  0  0  0
 35 29  1  0  0  0  0
 36 38  2  0  0  0  0
 37 38  2  0  0  0  0
 38 40  1  0  0  0  0
 38 31  1  0  0  0  0
 40 41  1  0  0  0  0
 40 39  1  0  0  0  0
 42 44  1  0  0  0  0
 43 44  2  0  0  0  0
 44 40  1  0  0  0  0
M  END
>  <MODEL>
4

>  <REMARK>
 VINA RESULT:      -6.9      4.016      8.551
  Name = 
  12 active torsions:
  status: ('A' for Active; 'I' for Inactive)
    1  A    between atoms: C_5  and  C_19
    2  A    between atoms: C_5  and  C_31
    3  A    between atoms: C_6  and  C_19
    4  A    between atoms: C_6  and  C_24
    5  A    between atoms: C_14  and  C_19
    6  A    between atoms: C_14  and  O_37
    7  A    between atoms: C_15  and  C_23
    8  A    between atoms: C_15  and  S_41
    9  A    between atoms: S_17  and  C_32
   10  A    between atoms: S_17  and  C_42
   11  A    between atoms: N_21  and  S_41
   12  A    between atoms: P_26  and  O_37
                            x       y       z     vdW  Elec       q    Type
                         _______ _______ _______ _____ _____    ______ ____

>  <TORSDO>
F 12

$$$$
=
 OpenBabel11062422123D

 44 49  0  0  1  0  0  0  0  0999 V2000
  192.5170  174.1130  142.2990 C   0  0  2  0  0  3  0  0  0  0  0  0
  191.6300  171.1040  141.7350 C   0  0  0  0  0  2  0  0  0  0  0  0
  192.9170  170.6590  143.6630 O   0  0  0  0  0  0  0  0  0  0  0  0
  190.4590  172.9940  140.9240 C   0  0  2  0  0  0  0  0  0  0  0  0
  192.9140  172.9300  143.0800 N   0  0  0  0  0  0  0  0  0  0  0  0
  193.4360  175.2320  142.7550 C   0  0  0  0  0  2  0  0  0  0  0  0
  194.0020  174.7770  144.0890 C   0  0  0  0  0  2  0  0  0  0  0  0
  190.0910  174.2230  141.4870 O   0  0  0  0  0  0  0  0  0  0  0  0
  193.9280  173.2640  144.0700 C   0  0  2  0  0  3  0  0  0  0  0  0
  189.4850  172.0030  140.7470 O   0  0  0  0  0  0  0  0  0  0  0  0
  192.5210  171.5460  142.8610 C   0  0  0  0  0  0  0  0  0  0  0  0
  190.3370  171.8660  141.8720 C   0  0  1  0  0  3  0  0  0  0  0  0
  191.0340  174.5620  142.5060 C   0  0  1  0  0  3  0  0  0  0  0  0
  191.3950  173.0040  139.8780 O   0  0  0  0  0  1  0  0  0  0  0  0
  195.2770  172.7160  143.6250 C   0  0  0  0  0  2  0  0  0  0  0  0
  196.1420  172.3600  144.8320 C   0  0  2  0  0  3  0  0  0  0  0  0
  197.3340  173.3060  145.0300 C   0  0  2  0  0  3  0  0  0  0  0  0
  197.1040  174.1610  146.1100 O   0  0  0  0  0  1  0  0  0  0  0  0
  197.3260  175.4250  143.8870 O   0  0  0  0  0  1  0  0  0  0  0  0
  197.7410  174.0980  143.7860 C   0  0  0  0  0  2  0  0  0  0  0  0
  196.5610  170.8900  144.8210 C   0  0  0  0  0  2  0  0  0  0  0  0
  196.9140  170.4630  146.1060 O   0  0  0  0  0  0  0  0  0  0  0  0
  195.9400  169.1090  146.4200 P   0  0  0  0  0  0  0  0  0  0  0  0
  194.5840  169.5540  146.9170 O   0  0  0  0  0  1  0  0  0  0  0  0
  195.7550  168.1770  145.0180 O   0  0  0  0  0  0  0  0  0  0  0  0
  196.6830  168.1670  147.6160 O   0  0  0  0  0  1  0  0  0  0  0  0
  190.3600  174.2730  144.1800 S   0  0  0  0  0  0  0  0  0  0  0  0
  189.8480  176.9110  143.7080 C   0  0  1  0  0  3  0  0  0  0  0  0
  190.2510  177.4620  144.9400 O   0  0  0  0  0  0  0  0  0  0  0  0
  187.8390  177.2970  145.4590 C   0  0  1  0  0  3  0  0  0  0  0  0
  187.7820  178.1190  144.2200 N   0  0  0  0  0  0  0  0  0  0  0  0
  188.5030  175.9050  145.3490 C   0  0  1  0  0  3  0  0  0  0  0  0
  189.1520  175.6200  144.0200 C   0  0  2  0  0  3  0  0  0  0  0  0
  188.7540  177.8050  143.1580 C   0  0  0  0  0  2  0  0  0  0  0  0
  189.2950  177.0640  145.9080 C   0  0  1  0  0  3  0  0  0  0  0  0
  185.5970  176.7530  143.6880 O   0  0  0  0  0  0  0  0  0  0  0  0
  186.2350  178.4850  142.1060 O   0  0  0  0  0  0  0  0  0  0  0  0
  186.1680  178.1360  143.5640 S   0  0  0  0  0  0  0  0  0  0  0  0
  185.5570  180.5510  144.2650 F   0  0  0  0  0  0  0  0  0  0  0  0
  185.0540  179.2680  144.3980 C   0  0  0  0  0  0  0  0  0  0  0  0
  183.8060  179.2340  143.8060 F   0  0  0  0  0  0  0  0  0  0  0  0
  185.7990  179.5160  146.7480 F   0  0  0  0  0  0  0  0  0  0  0  0
  184.0870  178.1740  146.2650 O   0  0  0  0  0  0  0  0  0  0  0  0
  184.9410  178.9470  145.8600 C   0  0  0  0  0  0  0  0  0  0  0  0
  1 13  1  0  0  0  0
  1  6  1  1  0  0  0
  1  5  1  0  0  0  0
  2 11  1  0  0  0  0
  4 14  1  6  0  0  0
  4  8  1  0  0  0  0
  4 12  1  0  0  0  0
  5  9  1  0  0  0  0
  6  7  1  0  0  0  0
  8 13  1  0  0  0  0
  9 15  1  6  0  0  0
  9  7  1  0  0  0  0
 10  4  1  0  0  0  0
 10 12  1  0  0  0  0
 11  5  1  0  0  0  0
 11  3  2  0  0  0  0
 12  2  1  6  0  0  0
 13 27  1  1  0  0  0
 16 15  1  6  0  0  0
 16 17  1  0  0  0  0
 17 18  1  1  0  0  0
 20 19  1  0  0  0  0
 20 17  1  0  0  0  0
 21 16  1  0  0  0  0
 21 22  1  0  0  0  0
 22 23  1  0  0  0  0
 23 24  1  0  0  0  0
 23 26  1  0  0  0  0
 25 23  2  0  0  0  0
 28 34  1  1  0  0  0
 28 33  1  0  0  0  0
 28 29  1  0  0  0  0
 29 35  1  0  0  0  0
 30 31  1  6  0  0  0
 30 35  1  0  0  0  0
 32 30  1  0  0  0  0
 32 35  1  0  0  0  0
 33 27  1  0  0  0  0
 33 32  1  0  0  0  0
 34 31  1  0  0  0  0
 37 38  2  0  0  0  0
 38 36  2  0  0  0  0
 38 31  1  0  0  0  0
 38 40  1  0  0  0  0
 39 40  1  0  0  0  0
 40 44  1  0  0  0  0
 41 40  1  0  0  0  0
 44 43  2  0  0  0  0
 44 42  1  0  0  0  0
M  END
>  <MODEL>
5

>  <REMARK>
 VINA RESULT:      -6.6      2.737      4.666
  Name = 
  12 active torsions:
  status: ('A' for Active; 'I' for Inactive)
    1  A    between atoms: C_5  and  C_19
    2  A    between atoms: C_5  and  C_31
    3  A    between atoms: C_6  and  C_19
    4  A    between atoms: C_6  and  C_24
    5  A    between atoms: C_14  and  C_19
    6  A    between atoms: C_14  and  O_37
    7  A    between atoms: C_15  and  C_23
    8  A    between atoms: C_15  and  S_41
    9  A    between atoms: S_17  and  C_32
   10  A    between atoms: S_17  and  C_42
   11  A    between atoms: N_21  and  S_41
   12  A    between atoms: P_26  and  O_37
                            x       y       z     vdW  Elec       q    Type
                         _______ _______ _______ _____ _____    ______ ____

>  <TORSDO>
F 12

$$$$
=
 OpenBabel11062422123D

 44 49  0  0  1  0  0  0  0  0999 V2000
  191.0310  174.2910  144.2750 C   0  0  2  0  0  3  0  0  0  0  0  0
  192.5700  176.4160  146.0870 C   0  0  0  0  0  2  0  0  0  0  0  0
  194.1170  176.3960  144.3030 O   0  0  0  0  0  0  0  0  0  0  0  0
  190.2570  175.9540  146.2790 C   0  0  2  0  0  0  0  0  0  0  0  0
  192.3190  174.9320  143.9590 N   0  0  0  0  0  0  0  0  0  0  0  0
  190.8880  173.1490  143.2860 C   0  0  0  0  0  2  0  0  0  0  0  0
  191.8580  173.4610  142.1600 C   0  0  0  0  0  2  0  0  0  0  0  0
  189.2260  175.7550  145.3510 O   0  0  0  0  0  0  0  0  0  0  0  0
  192.9240  174.3460  142.7710 C   0  0  2  0  0  3  0  0  0  0  0  0
  190.3280  177.1690  146.9730 O   0  0  0  0  0  0  0  0  0  0  0  0
  193.0450  175.9120  144.7530 C   0  0  0  0  0  0  0  0  0  0  0  0
  191.2040  177.0140  145.8700 C   0  0  1  0  0  3  0  0  0  0  0  0
  189.7880  175.2310  144.1460 C   0  0  1  0  0  3  0  0  0  0  0  0
  190.6390  174.8670  147.0800 O   0  0  0  0  0  1  0  0  0  0  0  0
  194.1060  173.4750  143.1760 C   0  0  0  0  0  2  0  0  0  0  0  0
  195.2070  173.5310  142.1200 C   0  0  2  0  0  3  0  0  0  0  0  0
  196.6220  173.4420  142.7070 C   0  0  2  0  0  3  0  0  0  0  0  0
  197.1490  172.1620  142.5240 O   0  0  0  0  0  1  0  0  0  0  0  0
  197.1750  175.1950  144.2630 O   0  0  0  0  0  1  0  0  0  0  0  0
  196.7390  173.8740  144.1710 C   0  0  0  0  0  2  0  0  0  0  0  0
  195.0390  174.7260  141.1820 C   0  0  0  0  0  2  0  0  0  0  0  0
  196.0630  174.7580  140.2290 O   0  0  0  0  0  0  0  0  0  0  0  0
  195.3460  174.2610  138.7730 P   0  0  0  0  0  0  0  0  0  0  0  0
  194.8330  172.8450  138.9080 O   0  0  0  0  0  1  0  0  0  0  0  0
  194.0670  175.2930  138.3630 O   0  0  0  0  0  1  0  0  0  0  0  0
  196.5110  174.3100  137.5440 O   0  0  0  0  0  0  0  0  0  0  0  0
  189.9080  176.5030  142.8400 S   0  0  0  0  0  0  0  0  0  0  0  0
  187.2150  176.0750  142.7390 C   0  0  1  0  0  3  0  0  0  0  0  0
  186.9910  176.2570  141.3610 O   0  0  0  0  0  0  0  0  0  0  0  0
  186.3930  178.5500  142.0700 C   0  0  1  0  0  3  0  0  0  0  0  0
  185.4530  177.7640  142.9140 N   0  0  0  0  0  0  0  0  0  0  0  0
  187.9020  178.2650  142.2460 C   0  0  1  0  0  3  0  0  0  0  0  0
  188.2230  177.1060  143.1520 C   0  0  2  0  0  3  0  0  0  0  0  0
  185.9430  176.4840  143.4550 C   0  0  0  0  0  2  0  0  0  0  0  0
  187.1590  177.6380  141.0900 C   0  0  1  0  0  3  0  0  0  0  0  0
  183.3710  179.0400  143.8920 O   0  0  0  0  0  0  0  0  0  0  0  0
  185.5550  180.0500  144.2410 O   0  0  0  0  0  0  0  0  0  0  0  0
  184.8100  178.7470  144.2000 S   0  0  0  0  0  0  0  0  0  0  0  0
  183.7290  178.3030  146.5090 F   0  0  0  0  0  0  0  0  0  0  0  0
  184.8800  177.9690  145.8160 C   0  0  0  0  0  0  0  0  0  0  0  0
  184.9160  176.5940  145.6840 F   0  0  0  0  0  0  0  0  0  0  0  0
  187.3100  177.9860  146.2950 F   0  0  0  0  0  0  0  0  0  0  0  0
  185.9330  179.2410  147.5160 O   0  0  0  0  0  0  0  0  0  0  0  0
  186.0670  178.4450  146.6000 C   0  0  0  0  0  0  0  0  0  0  0  0
  1  6  1  6  0  0  0
  3 11  2  0  0  0  0
  4 10  1  0  0  0  0
  4 14  1  1  0  0  0
  5  1  1  0  0  0  0
  5 11  1  0  0  0  0
  7  9  1  0  0  0  0
  7  6  1  0  0  0  0
  8  4  1  0  0  0  0
  9 15  1  1  0  0  0
  9  5  1  0  0  0  0
 11  2  1  0  0  0  0
 12  2  1  1  0  0  0
 12  4  1  0  0  0  0
 12 10  1  0  0  0  0
 13 27  1  6  0  0  0
 13  1  1  0  0  0  0
 13  8  1  0  0  0  0
 16 21  1  1  0  0  0
 16 17  1  0  0  0  0
 16 15  1  0  0  0  0
 17 18  1  1  0  0  0
 17 20  1  0  0  0  0
 20 19  1  0  0  0  0
 22 21  1  0  0  0  0
 23 24  1  0  0  0  0
 23 22  1  0  0  0  0
 25 23  1  0  0  0  0
 26 23  2  0  0  0  0
 27 33  1  0  0  0  0
 28 33  1  0  0  0  0
 28 34  1  1  0  0  0
 29 28  1  0  0  0  0
 30 32  1  0  0  0  0
 30 31  1  1  0  0  0
 31 34  1  0  0  0  0
 31 38  1  0  0  0  0
 32 33  1  0  0  0  0
 35 29  1  0  0  0  0
 35 30  1  0  0  0  0
 35 32  1  0  0  0  0
 36 38  2  0  0  0  0
 38 37  2  0  0  0  0
 38 40  1  0  0  0  0
 40 39  1  0  0  0  0
 40 44  1  0  0  0  0
 41 40  1  0  0  0  0
 42 44  1  0  0  0  0
 44 43  2  0  0  0  0
M  END
>  <MODEL>
6

>  <REMARK>
 VINA RESULT:      -6.6      1.565      2.017
  Name = 
  12 active torsions:
  status: ('A' for Active; 'I' for Inactive)
    1  A    between atoms: C_5  and  C_19
    2  A    between atoms: C_5  and  C_31
    3  A    between atoms: C_6  and  C_19
    4  A    between atoms: C_6  and  C_24
    5  A    between atoms: C_14  and  C_19
    6  A    between atoms: C_14  and  O_37
    7  A    between atoms: C_15  and  C_23
    8  A    between atoms: C_15  and  S_41
    9  A    between atoms: S_17  and  C_32
   10  A    between atoms: S_17  and  C_42
   11  A    between atoms: N_21  and  S_41
   12  A    between atoms: P_26  and  O_37
                            x       y       z     vdW  Elec       q    Type
                         _______ _______ _______ _____ _____    ______ ____

>  <TORSDO>
F 12

$$$$
=
 OpenBabel11062422123D

 44 49  0  0  1  0  0  0  0  0999 V2000
  193.9760  173.9770  144.1570 C   0  0  2  0  0  3  0  0  0  0  0  0
  196.4900  174.7370  142.3510 C   0  0  0  0  0  2  0  0  0  0  0  0
  195.4360  173.3210  140.7830 O   0  0  0  0  0  0  0  0  0  0  0  0
  195.7330  176.0480  144.1700 C   0  0  2  0  0  0  0  0  0  0  0  0
  194.2540  173.4760  142.8010 N   0  0  0  0  0  0  0  0  0  0  0  0
  192.8690  173.0930  144.7020 C   0  0  0  0  0  2  0  0  0  0  0  0
  192.2410  172.4300  143.4870 C   0  0  0  0  0  2  0  0  0  0  0  0
  194.4680  176.4470  144.6190 O   0  0  0  0  0  0  0  0  0  0  0  0
  193.3180  172.4260  142.4220 C   0  0  2  0  0  3  0  0  0  0  0  0
  196.5520  176.9770  143.5160 O   0  0  0  0  0  0  0  0  0  0  0  0
  195.3810  173.8080  141.9430 C   0  0  0  0  0  0  0  0  0  0  0  0
  195.8520  176.0570  142.6960 C   0  0  1  0  0  3  0  0  0  0  0  0
  193.5080  175.4680  144.2170 C   0  0  1  0  0  3  0  0  0  0  0  0
  196.4740  175.1740  144.9820 O   0  0  0  0  0  1  0  0  0  0  0  0
  194.0250  171.0770  142.4490 C   0  0  0  0  0  2  0  0  0  0  0  0
  193.0580  169.9680  142.8550 C   0  0  2  0  0  3  0  0  0  0  0  0
  193.6540  168.9790  143.8660 C   0  0  2  0  0  3  0  0  0  0  0  0
  192.6880  168.5890  144.7960 O   0  0  0  0  0  1  0  0  0  0  0  0
  194.6200  169.9920  145.8250 O   0  0  0  0  0  1  0  0  0  0  0  0
  194.9220  169.4650  144.5710 C   0  0  0  0  0  2  0  0  0  0  0  0
  192.4510  169.2650  141.6410 C   0  0  0  0  0  2  0  0  0  0  0  0
  191.0910  169.5710  141.5170 O   0  0  0  0  0  0  0  0  0  0  0  0
  190.9320  170.3380  140.0110 P   0  0  0  0  0  0  0  0  0  0  0  0
  190.1460  171.6200  140.1660 O   0  0  0  0  0  1  0  0  0  0  0  0
  192.4570  170.6810  139.3590 O   0  0  0  0  0  1  0  0  0  0  0  0
  190.1000  169.3060  138.9580 O   0  0  0  0  0  0  0  0  0  0  0  0
  192.5180  176.0300  142.7870 S   0  0  0  0  0  0  0  0  0  0  0  0
  189.8460  175.5750  143.0950 C   0  0  1  0  0  3  0  0  0  0  0  0
  189.3310  176.5400  142.2080 O   0  0  0  0  0  0  0  0  0  0  0  0
  189.1310  177.8900  144.2700 C   0  0  1  0  0  3  0  0  0  0  0  0
  188.3380  176.6940  144.6650 N   0  0  0  0  0  0  0  0  0  0  0  0
  190.6060  177.6560  143.8730 C   0  0  1  0  0  3  0  0  0  0  0  0
  191.0140  176.2080  143.7900 C   0  0  2  0  0  3  0  0  0  0  0  0
  188.8150  175.3830  144.1900 C   0  0  0  0  0  2  0  0  0  0  0  0
  189.5630  177.8100  142.7920 C   0  0  1  0  0  3  0  0  0  0  0  0
  189.0120  177.6710  147.0130 O   0  0  0  0  0  0  0  0  0  0  0  0
  188.4930  175.2980  146.9060 O   0  0  0  0  0  0  0  0  0  0  0  0
  188.1020  176.6520  146.3900 S   0  0  0  0  0  0  0  0  0  0  0  0
  185.5510  176.4150  146.0210 F   0  0  0  0  0  0  0  0  0  0  0  0
  186.4240  177.0250  146.9060 C   0  0  0  0  0  0  0  0  0  0  0  0
  186.1860  176.5110  148.1650 F   0  0  0  0  0  0  0  0  0  0  0  0
  186.2920  179.2240  148.0390 F   0  0  0  0  0  0  0  0  0  0  0  0
  185.8360  179.0710  145.8630 O   0  0  0  0  0  0  0  0  0  0  0  0
  186.1640  178.5040  146.8930 C   0  0  0  0  0  0  0  0  0  0  0  0
  1 13  1  0  0  0  0
  1  6  1  6  0  0  0
  3 11  2  0  0  0  0
  4  8  1  0  0  0  0
  4 14  1  1  0  0  0
  5  1  1  0  0  0  0
  7  6  1  0  0  0  0
  9 15  1  1  0  0  0
  9  5  1  0  0  0  0
  9  7  1  0  0  0  0
 10  4  1  0  0  0  0
 11  2  1  0  0  0  0
 11  5  1  0  0  0  0
 12  2  1  1  0  0  0
 12 10  1  0  0  0  0
 12  4  1  0  0  0  0
 13 27  1  6  0  0  0
 13  8  1  0  0  0  0
 15 16  1  0  0  0  0
 16 21  1  6  0  0  0
 16 17  1  0  0  0  0
 17 20  1  0  0  0  0
 17 18  1  1  0  0  0
 20 19  1  0  0  0  0
 22 21  1  0  0  0  0
 23 24  1  0  0  0  0
 23 22  1  0  0  0  0
 25 23  1  0  0  0  0
 26 23  2  0  0  0  0
 27 33  1  0  0  0  0
 28 33  1  0  0  0  0
 28 34  1  1  0  0  0
 29 35  1  0  0  0  0
 29 28  1  0  0  0  0
 30 31  1  1  0  0  0
 31 38  1  0  0  0  0
 32 30  1  0  0  0  0
 33 32  1  0  0  0  0
 34 31  1  0  0  0  0
 35 32  1  0  0  0  0
 35 30  1  0  0  0  0
 38 37  2  0  0  0  0
 38 40  1  0  0  0  0
 38 36  2  0  0  0  0
 39 40  1  0  0  0  0
 40 41  1  0  0  0  0
 43 44  2  0  0  0  0
 44 40  1  0  0  0  0
 44 42  1  0  0  0  0
M  END
>  <MODEL>
7

>  <REMARK>
 VINA RESULT:      -6.6      3.189      4.767
  Name = 
  12 active torsions:
  status: ('A' for Active; 'I' for Inactive)
    1  A    between atoms: C_5  and  C_19
    2  A    between atoms: C_5  and  C_31
    3  A    between atoms: C_6  and  C_19
    4  A    between atoms: C_6  and  C_24
    5  A    between atoms: C_14  and  C_19
    6  A    between atoms: C_14  and  O_37
    7  A    between atoms: C_15  and  C_23
    8  A    between atoms: C_15  and  S_41
    9  A    between atoms: S_17  and  C_32
   10  A    between atoms: S_17  and  C_42
   11  A    between atoms: N_21  and  S_41
   12  A    between atoms: P_26  and  O_37
                            x       y       z     vdW  Elec       q    Type
                         _______ _______ _______ _____ _____    ______ ____

>  <TORSDO>
F 12

$$$$
=
 OpenBabel11062422123D

 44 49  0  0  1  0  0  0  0  0999 V2000
  189.5260  173.1640  142.2220 C   0  0  2  0  0  3  0  0  0  0  0  0
  192.5770  172.8450  143.0890 C   0  0  0  0  0  2  0  0  0  0  0  0
  192.9810  173.3190  140.8120 O   0  0  0  0  0  0  0  0  0  0  0  0
  190.8260  173.3470  144.6010 C   0  0  2  0  0  0  0  0  0  0  0  0
  190.6970  173.2730  141.3360 N   0  0  0  0  0  0  0  0  0  0  0  0
  188.3230  173.0700  141.3020 C   0  0  0  0  0  2  0  0  0  0  0  0
  188.7970  173.5900  139.9560 C   0  0  0  0  0  2  0  0  0  0  0  0
  189.7200  174.2050  144.5540 O   0  0  0  0  0  0  0  0  0  0  0  0
  190.2960  173.3740  139.9400 C   0  0  2  0  0  3  0  0  0  0  0  0
  191.9360  173.7020  145.3780 O   0  0  0  0  0  0  0  0  0  0  0  0
  192.1010  173.1450  141.6960 C   0  0  0  0  0  0  0  0  0  0  0  0
  192.0360  173.9310  143.9830 C   0  0  1  0  0  3  0  0  0  0  0  0
  189.3290  174.3760  143.1900 C   0  0  1  0  0  3  0  0  0  0  0  0
  190.5850  171.9640  144.6290 O   0  0  0  0  0  1  0  0  0  0  0  0
  190.5920  172.0620  139.2260 C   0  0  0  0  0  2  0  0  0  0  0  0
  190.8060  172.2940  137.7330 C   0  0  2  0  0  3  0  0  0  0  0  0
  190.7620  171.0040  136.9020 C   0  0  2  0  0  3  0  0  0  0  0  0
  189.6500  171.0050  136.0570 O   0  0  0  0  0  1  0  0  0  0  0  0
  192.0800  169.1150  137.6020 O   0  0  0  0  0  1  0  0  0  0  0  0
  190.8250  169.7110  137.7170 C   0  0  0  0  0  2  0  0  0  0  0  0
  192.0620  173.1210  137.4570 C   0  0  0  0  0  2  0  0  0  0  0  0
  191.7680  174.2070  136.6230 O   0  0  0  0  0  0  0  0  0  0  0  0
  193.1750  175.1570  136.6000 P   0  0  0  0  0  0  0  0  0  0  0  0
  192.8570  176.5350  136.0660 O   0  0  0  0  0  1  0  0  0  0  0  0
  193.8250  175.2870  138.1580 O   0  0  0  0  0  1  0  0  0  0  0  0
  194.3140  174.4220  135.5850 O   0  0  0  0  0  0  0  0  0  0  0  0
  189.8570  175.9950  142.5280 S   0  0  0  0  0  0  0  0  0  0  0  0
  187.1300  176.0100  142.4520 C   0  0  1  0  0  3  0  0  0  0  0  0
  186.9250  176.4450  141.1280 O   0  0  0  0  0  0  0  0  0  0  0  0
  186.7030  178.6570  142.2110 C   0  0  1  0  0  3  0  0  0  0  0  0
  185.6580  177.9000  142.9520 N   0  0  0  0  0  0  0  0  0  0  0  0
  188.1500  178.1180  142.2880 C   0  0  1  0  0  3  0  0  0  0  0  0
  188.2910  176.7920  142.9880 C   0  0  2  0  0  3  0  0  0  0  0  0
  185.9440  176.4890  143.2660 C   0  0  0  0  0  2  0  0  0  0  0  0
  187.3070  177.8080  141.0740 C   0  0  1  0  0  3  0  0  0  0  0  0
  183.6970  178.6650  144.5300 O   0  0  0  0  0  0  0  0  0  0  0  0
  185.5660  180.1960  144.2610 O   0  0  0  0  0  0  0  0  0  0  0  0
  185.1900  178.7490  144.3980 S   0  0  0  0  0  0  0  0  0  0  0  0
  185.4810  176.7780  146.0500 F   0  0  0  0  0  0  0  0  0  0  0  0
  185.9130  178.0850  145.9000 C   0  0  0  0  0  0  0  0  0  0  0  0
  187.2910  178.0710  145.8010 F   0  0  0  0  0  0  0  0  0  0  0  0
  186.3110  179.8280  147.6140 F   0  0  0  0  0  0  0  0  0  0  0  0
  184.4120  178.6640  147.6400 O   0  0  0  0  0  0  0  0  0  0  0  0
  185.4890  178.8730  147.1050 C   0  0  0  0  0  0  0  0  0  0  0  0
  1  6  1  6  0  0  0
  1 13  1  0  0  0  0
  3 11  2  0  0  0  0
  4 14  1  6  0  0  0
  4 10  1  0  0  0  0
  5 11  1  0  0  0  0
  5  1  1  0  0  0  0
  7  6  1  0  0  0  0
  8  4  1  0  0  0  0
  9 15  1  6  0  0  0
  9  7  1  0  0  0  0
  9  5  1  0  0  0  0
 11  2  1  0  0  0  0
 12  2  1  6  0  0  0
 12  4  1  0  0  0  0
 12 10  1  0  0  0  0
 13 27  1  6  0  0  0
 13  8  1  0  0  0  0
 16 21  1  1  0  0  0
 16 15  1  0  0  0  0
 17 18  1  1  0  0  0
 17 20  1  0  0  0  0
 17 16  1  0  0  0  0
 19 20  1  0  0  0  0
 22 21  1  0  0  0  0
 23 22  1  0  0  0  0
 23 25  1  0  0  0  0
 24 23  1  0  0  0  0
 26 23  2  0  0  0  0
 27 33  1  0  0  0  0
 28 33  1  0  0  0  0
 28 34  1  1  0  0  0
 29 28  1  0  0  0  0
 30 32  1  0  0  0  0
 30 31  1  1  0  0  0
 31 34  1  0  0  0  0
 31 38  1  0  0  0  0
 32 33  1  0  0  0  0
 35 29  1  0  0  0  0
 35 30  1  0  0  0  0
 35 32  1  0  0  0  0
 37 38  2  0  0  0  0
 38 36  2  0  0  0  0
 38 40  1  0  0  0  0
 40 39  1  0  0  0  0
 40 44  1  0  0  0  0
 41 40  1  0  0  0  0
 44 42  1  0  0  0  0
 44 43  2  0  0  0  0
M  END
>  <MODEL>
8

>  <REMARK>
 VINA RESULT:      -6.5      3.729      4.855
  Name = 
  12 active torsions:
  status: ('A' for Active; 'I' for Inactive)
    1  A    between atoms: C_5  and  C_19
    2  A    between atoms: C_5  and  C_31
    3  A    between atoms: C_6  and  C_19
    4  A    between atoms: C_6  and  C_24
    5  A    between atoms: C_14  and  C_19
    6  A    between atoms: C_14  and  O_37
    7  A    between atoms: C_15  and  C_23
    8  A    between atoms: C_15  and  S_41
    9  A    between atoms: S_17  and  C_32
   10  A    between atoms: S_17  and  C_42
   11  A    between atoms: N_21  and  S_41
   12  A    between atoms: P_26  and  O_37
                            x       y       z     vdW  Elec       q    Type
                         _______ _______ _______ _____ _____    ______ ____

>  <TORSDO>
F 12

$$$$
=
 OpenBabel11062422123D

 44 49  0  0  1  0  0  0  0  0999 V2000
  190.2830  173.6330  143.6480 C   0  0  2  0  0  3  0  0  0  0  0  0
  193.4150  174.0810  143.2660 C   0  0  0  0  0  2  0  0  0  0  0  0
  192.9860  173.2490  141.0990 O   0  0  0  0  0  0  0  0  0  0  0  0
  192.1170  175.1970  144.9000 C   0  0  2  0  0  0  0  0  0  0  0  0
  191.0630  173.3250  142.4380 N   0  0  0  0  0  0  0  0  0  0  0  0
  188.9390  172.9540  143.4530 C   0  0  0  0  0  2  0  0  0  0  0  0
  188.8330  172.6800  141.9630 C   0  0  0  0  0  2  0  0  0  0  0  0
  190.8520  175.7990  144.8900 O   0  0  0  0  0  0  0  0  0  0  0  0
  190.2600  172.6070  141.4580 C   0  0  2  0  0  3  0  0  0  0  0  0
  193.2610  176.0060  144.8940 O   0  0  0  0  0  0  0  0  0  0  0  0
  192.4880  173.5250  142.2220 C   0  0  0  0  0  0  0  0  0  0  0  0
  192.8790  175.4340  143.6550 C   0  0  1  0  0  3  0  0  0  0  0  0
  190.0470  175.1590  143.8980 C   0  0  1  0  0  3  0  0  0  0  0  0
  192.2910  174.0460  145.6850 O   0  0  0  0  0  1  0  0  0  0  0  0
  190.6870  171.1460  141.4160 C   0  0  0  0  0  2  0  0  0  0  0  0
  190.7810  170.6510  139.9760 C   0  0  2  0  0  3  0  0  0  0  0  0
  191.9930  169.7450  139.7180 C   0  0  2  0  0  3  0  0  0  0  0  0
  192.9260  169.8740  140.7490 O   0  0  0  0  0  1  0  0  0  0  0  0
  193.9150  170.5220  138.4950 O   0  0  0  0  0  1  0  0  0  0  0  0
  192.6600  169.9350  138.3540 C   0  0  0  0  0  2  0  0  0  0  0  0
  190.6870  171.7970  138.9690 C   0  0  0  0  0  2  0  0  0  0  0  0
  189.5100  171.7040  138.2170 O   0  0  0  0  0  0  0  0  0  0  0  0
  189.8320  172.5190  136.7630 P   0  0  0  0  0  0  0  0  0  0  0  0
  189.0790  173.8290  136.7300 O   0  0  0  0  0  1  0  0  0  0  0  0
  191.4930  172.8140  136.6070 O   0  0  0  0  0  1  0  0  0  0  0  0
  189.3180  171.5550  135.4690 O   0  0  0  0  0  0  0  0  0  0  0  0
  189.8840  176.1780  142.3900 S   0  0  0  0  0  0  0  0  0  0  0  0
  187.1610  176.0330  142.4870 C   0  0  1  0  0  3  0  0  0  0  0  0
  186.8490  176.4320  141.1740 O   0  0  0  0  0  0  0  0  0  0  0  0
  186.5650  178.6460  142.2380 C   0  0  1  0  0  3  0  0  0  0  0  0
  185.6140  177.8430  143.0540 N   0  0  0  0  0  0  0  0  0  0  0  0
  188.0430  178.1940  142.2310 C   0  0  1  0  0  3  0  0  0  0  0  0
  188.3050  176.8900  142.9380 C   0  0  2  0  0  3  0  0  0  0  0  0
  186.0030  176.4560  143.3680 C   0  0  0  0  0  2  0  0  0  0  0  0
  187.1450  177.8150  141.0770 C   0  0  1  0  0  3  0  0  0  0  0  0
  183.6940  178.6560  144.6580 O   0  0  0  0  0  0  0  0  0  0  0  0
  185.6160  180.1220  144.3960 O   0  0  0  0  0  0  0  0  0  0  0  0
  185.1880  178.6880  144.5150 S   0  0  0  0  0  0  0  0  0  0  0  0
  185.4410  176.6750  146.1230 F   0  0  0  0  0  0  0  0  0  0  0  0
  185.8970  177.9760  146.0020 C   0  0  0  0  0  0  0  0  0  0  0  0
  187.2750  177.9390  145.9040 F   0  0  0  0  0  0  0  0  0  0  0  0
  184.2070  178.6650  147.6770 F   0  0  0  0  0  0  0  0  0  0  0  0
  186.2890  179.4430  147.8220 O   0  0  0  0  0  0  0  0  0  0  0  0
  185.4860  178.7440  147.2250 C   0  0  0  0  0  0  0  0  0  0  0  0
  1  6  1  6  0  0  0
  1 13  1  0  0  0  0
  3 11  2  0  0  0  0
  4 14  1  1  0  0  0
  5  1  1  0  0  0  0
  7  6  1  0  0  0  0
  8  4  1  0  0  0  0
  9 15  1  1  0  0  0
  9  7  1  0  0  0  0
  9  5  1  0  0  0  0
 10  4  1  0  0  0  0
 11  5  1  0  0  0  0
 11  2  1  0  0  0  0
 12  2  1  1  0  0  0
 12 10  1  0  0  0  0
 12  4  1  0  0  0  0
 13 27  1  6  0  0  0
 13  8  1  0  0  0  0
 16 21  1  6  0  0  0
 16 15  1  0  0  0  0
 17 16  1  0  0  0  0
 17 18  1  1  0  0  0
 20 19  1  0  0  0  0
 20 17  1  0  0  0  0
 22 21  1  0  0  0  0
 23 22  1  0  0  0  0
 24 23  1  0  0  0  0
 25 23  1  0  0  0  0
 26 23  2  0  0  0  0
 27 33  1  0  0  0  0
 28 33  1  0  0  0  0
 28 34  1  1  0  0  0
 29 28  1  0  0  0  0
 30 31  1  1  0  0  0
 31 34  1  0  0  0  0
 31 38  1  0  0  0  0
 32 30  1  0  0  0  0
 32 33  1  0  0  0  0
 35 29  1  0  0  0  0
 35 32  1  0  0  0  0
 35 30  1  0  0  0  0
 37 38  2  0  0  0  0
 38 36  2  0  0  0  0
 38 40  1  0  0  0  0
 40 39  1  0  0  0  0
 40 44  1  0  0  0  0
 41 40  1  0  0  0  0
 44 42  1  0  0  0  0
 44 43  2  0  0  0  0
M  END
>  <MODEL>
9

>  <REMARK>
 VINA RESULT:      -6.5      3.359      4.615
  Name = 
  12 active torsions:
  status: ('A' for Active; 'I' for Inactive)
    1  A    between atoms: C_5  and  C_19
    2  A    between atoms: C_5  and  C_31
    3  A    between atoms: C_6  and  C_19
    4  A    between atoms: C_6  and  C_24
    5  A    between atoms: C_14  and  C_19
    6  A    between atoms: C_14  and  O_37
    7  A    between atoms: C_15  and  C_23
    8  A    between atoms: C_15  and  S_41
    9  A    between atoms: S_17  and  C_32
   10  A    between atoms: S_17  and  C_42
   11  A    between atoms: N_21  and  S_41
   12  A    between atoms: P_26  and  O_37
                            x       y       z     vdW  Elec       q    Type
                         _______ _______ _______ _____ _____    ______ ____

>  <TORSDO>
F 12

$$$$
