=
 OpenBabel11062422083D

 27 29  0  0  1  0  0  0  0  0999 V2000
  184.3760  178.0860  141.0820 N   0  0  0  0  0  0  0  0  0  0  0  0
  186.2790  178.2820  142.5250 C   0  0  0  0  0  0  0  0  0  0  0  0
  185.4150  178.4900  143.6140 C   0  0  0  0  0  0  0  0  0  0  0  0
  185.7240  178.0790  141.2530 C   0  0  0  0  0  3  0  0  0  0  0  0
  183.5280  178.2860  142.1250 C   0  0  0  0  0  3  0  0  0  0  0  0
  184.0330  178.4900  143.4090 C   0  0  0  0  0  3  0  0  0  0  0  0
  187.7000  178.2690  142.7190 N   0  0  0  0  0  2  0  0  0  0  0  0
  190.3480  175.0160  142.1780 C   0  0  1  0  0  3  0  0  0  0  0  0
  188.5550  177.1550  142.3350 C   0  0  2  0  0  3  0  0  0  0  0  0
  188.0930  175.8860  143.0450 C   0  0  0  0  0  2  0  0  0  0  0  0
  190.0190  177.4770  142.6710 C   0  0  0  0  0  2  0  0  0  0  0  0
  188.9110  174.6670  142.5970 C   0  0  0  0  0  2  0  0  0  0  0  0
  190.8790  176.2340  142.9340 C   0  0  0  0  0  2  0  0  0  0  0  0
  191.2470  173.8390  142.3590 C   0  0  0  0  0  0  0  0  0  0  0  0
  192.4260  173.8580  141.9130 O   0  0  0  0  0  0  0  0  0  0  0  0
  190.7860  172.7220  143.0420 O   0  0  0  0  0  1  0  0  0  0  0  0
  185.9430  178.7190  144.9960 C   0  0  0  0  0  2  0  0  0  0  0  0
  186.1610  177.4060  145.7390 C   0  0  0  0  0  2  0  0  0  0  0  0
  187.3960  177.4490  146.5900 C   0  0  0  0  0  0  0  0  0  0  0  0
  187.4440  178.1940  147.5550 O   0  0  0  0  0  0  0  0  0  0  0  0
  190.9020  174.7910  146.0770 C   0  0  0  0  0  2  0  0  0  0  0  0
  188.5930  176.6190  146.2460 C   0  0  0  0  0  3  0  0  0  0  0  0
  190.7720  176.8750  147.5950 C   0  0  0  0  0  2  0  0  0  0  0  0
  191.5550  175.6160  147.1900 C   0  0  0  0  0  2  0  0  0  0  0  0
  189.5240  174.2340  146.4430 C   0  0  0  0  0  2  0  0  0  0  0  0
  189.8870  177.4280  146.4720 C   0  0  0  0  0  2  0  0  0  0  0  0
  188.5410  175.2750  146.9890 C   0  0  0  0  0  2  0  0  0  0  0  0
  1  4  2  0  0  0  0
  1  5  1  0  0  0  0
  2  7  1  0  0  0  0
  2  3  2  0  0  0  0
  3 17  1  0  0  0  0
  4  2  1  0  0  0  0
  5  6  2  0  0  0  0
  6  3  1  0  0  0  0
  8 14  1  1  0  0  0
  8 12  1  0  0  0  0
  8 13  1  0  0  0  0
  9 11  1  0  0  0  0
  9  7  1  1  0  0  0
  9 10  1  0  0  0  0
 11 13  1  0  0  0  0
 12 10  1  0  0  0  0
 14 16  1  0  0  0  0
 15 14  2  0  0  0  0
 17 18  1  0  0  0  0
 18 19  1  0  0  0  0
 19 20  2  0  0  0  0
 21 25  1  0  0  0  0
 21 24  1  0  0  0  0
 22 26  1  0  0  0  0
 22 19  1  0  0  0  0
 22 27  1  0  0  0  0
 24 23  1  0  0  0  0
 25 27  1  0  0  0  0
 26 23  1  0  0  0  0
M  END
>  <MODEL>
1

>  <REMARK>
 VINA RESULT:      -6.9      0.000      0.000
  Name = 
  7 active torsions:
  status: ('A' for Active; 'I' for Inactive)
    1  A    between atoms: C_1  and  C_7
    2  A    between atoms: N_2  and  C_5
    3  A    between atoms: N_2  and  C_10
    4  A    between atoms: C_4  and  C_8
    5  A    between atoms: C_4  and  C_27
    6  A    between atoms: C_9  and  C_19
    7  A    between atoms: C_19  and  C_27
                            x       y       z     vdW  Elec       q    Type
                         _______ _______ _______ _____ _____    ______ ____

>  <TORSDO>
F 7

$$$$
=
 OpenBabel11062422083D

 27 29  0  0  1  0  0  0  0  0999 V2000
  194.6100  176.7260  144.8850 N   0  0  0  0  0  0  0  0  0  0  0  0
  192.5550  175.4990  144.9990 C   0  0  0  0  0  0  0  0  0  0  0  0
  192.4190  175.8760  146.3460 C   0  0  0  0  0  0  0  0  0  0  0  0
  193.6750  175.9440  144.2830 C   0  0  0  0  0  3  0  0  0  0  0  0
  194.4930  177.1000  146.1870 C   0  0  0  0  0  3  0  0  0  0  0  0
  193.3940  176.6820  146.9390 C   0  0  0  0  0  3  0  0  0  0  0  0
  191.5580  174.6810  144.3720 N   0  0  0  0  0  2  0  0  0  0  0  0
  188.5050  176.2550  141.9050 C   0  0  1  0  0  3  0  0  0  0  0  0
  190.6290  175.1720  143.3650 C   0  0  2  0  0  3  0  0  0  0  0  0
  190.4560  176.6800  143.5200 C   0  0  0  0  0  2  0  0  0  0  0  0
  189.2830  174.4420  143.4920 C   0  0  0  0  0  2  0  0  0  0  0  0
  189.5540  177.2540  142.4180 C   0  0  0  0  0  2  0  0  0  0  0  0
  188.0870  175.2630  142.9900 C   0  0  0  0  0  2  0  0  0  0  0  0
  187.3210  176.9760  141.3540 C   0  0  0  0  0  0  0  0  0  0  0  0
  187.4410  177.7340  140.3540 O   0  0  0  0  0  0  0  0  0  0  0  0
  186.0740  176.7940  141.9360 O   0  0  0  0  0  1  0  0  0  0  0  0
  191.2500  175.4300  147.1680 C   0  0  0  0  0  2  0  0  0  0  0  0
  190.0980  176.4240  147.0950 C   0  0  0  0  0  2  0  0  0  0  0  0
  188.7700  175.7300  147.0100 C   0  0  0  0  0  0  0  0  0  0  0  0
  188.6680  174.5670  147.3660 O   0  0  0  0  0  0  0  0  0  0  0  0
  185.4970  178.2720  145.4480 C   0  0  0  0  0  2  0  0  0  0  0  0
  187.5720  176.4320  146.4520 C   0  0  0  0  0  3  0  0  0  0  0  0
  186.2650  178.1080  147.9070 C   0  0  0  0  0  2  0  0  0  0  0  0
  185.4160  178.8520  146.8640 C   0  0  0  0  0  2  0  0  0  0  0  0
  186.9010  178.3140  144.8390 C   0  0  0  0  0  2  0  0  0  0  0  0
  186.5110  176.6370  147.5540 C   0  0  0  0  0  2  0  0  0  0  0  0
  187.9980  177.7190  145.7280 C   0  0  0  0  0  2  0  0  0  0  0  0
  1  5  1  0  0  0  0
  2  3  2  0  0  0  0
  3  6  1  0  0  0  0
  3 17  1  0  0  0  0
  4  1  2  0  0  0  0
  4  2  1  0  0  0  0
  5  6  2  0  0  0  0
  7  2  1  0  0  0  0
  8 14  1  1  0  0  0
  8 12  1  0  0  0  0
  8 13  1  0  0  0  0
  9 11  1  0  0  0  0
  9 10  1  0  0  0  0
  9  7  1  1  0  0  0
 12 10  1  0  0  0  0
 13 11  1  0  0  0  0
 14 16  1  0  0  0  0
 15 14  2  0  0  0  0
 18 17  1  0  0  0  0
 19 18  1  0  0  0  0
 19 20  2  0  0  0  0
 21 24  1  0  0  0  0
 22 19  1  0  0  0  0
 22 26  1  0  0  0  0
 24 23  1  0  0  0  0
 25 21  1  0  0  0  0
 25 27  1  0  0  0  0
 26 23  1  0  0  0  0
 27 22  1  0  0  0  0
M  END
>  <MODEL>
2

>  <REMARK>
 VINA RESULT:      -6.9      2.984      6.037
  Name = 
  7 active torsions:
  status: ('A' for Active; 'I' for Inactive)
    1  A    between atoms: C_1  and  C_7
    2  A    between atoms: N_2  and  C_5
    3  A    between atoms: N_2  and  C_10
    4  A    between atoms: C_4  and  C_8
    5  A    between atoms: C_4  and  C_27
    6  A    between atoms: C_9  and  C_19
    7  A    between atoms: C_19  and  C_27
                            x       y       z     vdW  Elec       q    Type
                         _______ _______ _______ _____ _____    ______ ____

>  <TORSDO>
F 7

$$$$
=
 OpenBabel11062422083D

 27 29  0  0  1  0  0  0  0  0999 V2000
  195.1290  176.5940  144.9580 N   0  0  0  0  0  0  0  0  0  0  0  0
  193.4900  174.9020  145.3970 C   0  0  0  0  0  0  0  0  0  0  0  0
  193.0100  175.6650  146.4750 C   0  0  0  0  0  0  0  0  0  0  0  0
  194.5650  175.3980  144.6450 C   0  0  0  0  0  3  0  0  0  0  0  0
  194.6770  177.3430  145.9980 C   0  0  0  0  0  3  0  0  0  0  0  0
  193.6080  176.8920  146.7740 C   0  0  0  0  0  3  0  0  0  0  0  0
  192.8810  173.6450  145.0700 N   0  0  0  0  0  2  0  0  0  0  0  0
  189.5780  173.4660  142.4360 C   0  0  1  0  0  3  0  0  0  0  0  0
  191.8700  173.4850  144.0350 C   0  0  2  0  0  3  0  0  0  0  0  0
  191.4520  174.8540  143.5090 C   0  0  0  0  0  2  0  0  0  0  0  0
  190.6650  172.7120  144.5940 C   0  0  0  0  0  2  0  0  0  0  0  0
  190.4540  174.7260  142.3510 C   0  0  0  0  0  2  0  0  0  0  0  0
  189.3430  173.0340  143.8830 C   0  0  0  0  0  2  0  0  0  0  0  0
  188.2830  173.6790  141.7240 C   0  0  0  0  0  0  0  0  0  0  0  0
  187.4400  174.5070  142.1630 O   0  0  0  0  0  1  0  0  0  0  0  0
  188.0160  172.9730  140.5600 O   0  0  0  0  0  0  0  0  0  0  0  0
  191.8700  175.1900  147.3210 C   0  0  0  0  0  2  0  0  0  0  0  0
  190.6990  176.1640  147.2860 C   0  0  0  0  0  2  0  0  0  0  0  0
  189.4160  175.4770  146.9200 C   0  0  0  0  0  0  0  0  0  0  0  0
  189.1160  174.4230  147.4580 O   0  0  0  0  0  0  0  0  0  0  0  0
  186.9880  177.6370  143.9110 C   0  0  0  0  0  2  0  0  0  0  0  0
  188.5150  176.0450  145.8690 C   0  0  0  0  0  3  0  0  0  0  0  0
  186.8350  177.9010  146.4740 C   0  0  0  0  0  2  0  0  0  0  0  0
  186.4330  178.4390  145.0920 C   0  0  0  0  0  2  0  0  0  0  0  0
  188.5180  177.6170  143.8390 C   0  0  0  0  0  2  0  0  0  0  0  0
  187.1420  176.3990  146.4760 C   0  0  0  0  0  2  0  0  0  0  0  0
  189.2110  177.2060  145.1410 C   0  0  0  0  0  2  0  0  0  0  0  0
  1  5  1  0  0  0  0
  2  3  2  0  0  0  0
  3  6  1  0  0  0  0
  3 17  1  0  0  0  0
  4  1  2  0  0  0  0
  4  2  1  0  0  0  0
  5  6  2  0  0  0  0
  7  2  1  0  0  0  0
  8 14  1  1  0  0  0
  8 13  1  0  0  0  0
  9 11  1  0  0  0  0
  9  7  1  1  0  0  0
 10  9  1  0  0  0  0
 12  8  1  0  0  0  0
 12 10  1  0  0  0  0
 13 11  1  0  0  0  0
 14 15  1  0  0  0  0
 16 14  2  0  0  0  0
 18 17  1  0  0  0  0
 19 18  1  0  0  0  0
 19 20  2  0  0  0  0
 21 24  1  0  0  0  0
 22 26  1  0  0  0  0
 22 19  1  0  0  0  0
 23 26  1  0  0  0  0
 24 23  1  0  0  0  0
 25 21  1  0  0  0  0
 25 27  1  0  0  0  0
 27 22  1  0  0  0  0
M  END
>  <MODEL>
3

>  <REMARK>
 VINA RESULT:      -6.6      3.224      6.182
  Name = 
  7 active torsions:
  status: ('A' for Active; 'I' for Inactive)
    1  A    between atoms: C_1  and  C_7
    2  A    between atoms: N_2  and  C_5
    3  A    between atoms: N_2  and  C_10
    4  A    between atoms: C_4  and  C_8
    5  A    between atoms: C_4  and  C_27
    6  A    between atoms: C_9  and  C_19
    7  A    between atoms: C_19  and  C_27
                            x       y       z     vdW  Elec       q    Type
                         _______ _______ _______ _____ _____    ______ ____

>  <TORSDO>
F 7

$$$$
=
 OpenBabel11062422083D

 27 29  0  0  1  0  0  0  0  0999 V2000
  190.9850  172.0800  142.4470 N   0  0  0  0  0  0  0  0  0  0  0  0
  190.6200  174.3510  143.1190 C   0  0  0  0  0  0  0  0  0  0  0  0
  190.7360  173.9580  144.4630 C   0  0  0  0  0  0  0  0  0  0  0  0
  190.7510  173.3770  142.1180 C   0  0  0  0  0  3  0  0  0  0  0  0
  191.1000  171.6840  143.7430 C   0  0  0  0  0  3  0  0  0  0  0  0
  190.9790  172.6170  144.7730 C   0  0  0  0  0  3  0  0  0  0  0  0
  190.3810  175.7240  142.7830 N   0  0  0  0  0  2  0  0  0  0  0  0
  186.6570  177.1880  141.4150 C   0  0  1  0  0  3  0  0  0  0  0  0
  189.1710  176.1930  142.1230 C   0  0  2  0  0  3  0  0  0  0  0  0
  188.9710  177.6780  142.4130 C   0  0  0  0  0  2  0  0  0  0  0  0
  187.9630  175.3680  142.5920 C   0  0  0  0  0  2  0  0  0  0  0  0
  187.7560  178.2340  141.6590 C   0  0  0  0  0  2  0  0  0  0  0  0
  186.6310  176.1250  142.5120 C   0  0  0  0  0  2  0  0  0  0  0  0
  185.3260  177.8490  141.2770 C   0  0  0  0  0  0  0  0  0  0  0  0
  185.0610  178.5530  140.2660 O   0  0  0  0  0  0  0  0  0  0  0  0
  184.3660  177.6700  142.2630 O   0  0  0  0  0  1  0  0  0  0  0  0
  190.6000  174.9460  145.5790 C   0  0  0  0  0  2  0  0  0  0  0  0
  189.1520  175.0880  146.0320 C   0  0  0  0  0  2  0  0  0  0  0  0
  188.7370  176.5280  146.1210 C   0  0  0  0  0  0  0  0  0  0  0  0
  189.5700  177.3870  146.3610 O   0  0  0  0  0  0  0  0  0  0  0  0
  184.6490  178.2010  145.7910 C   0  0  0  0  0  2  0  0  0  0  0  0
  187.3030  176.9230  145.9620 C   0  0  0  0  0  3  0  0  0  0  0  0
  185.9940  177.8690  147.9690 C   0  0  0  0  0  2  0  0  0  0  0  0
  184.7610  178.4880  147.2910 C   0  0  0  0  0  2  0  0  0  0  0  0
  185.8110  178.7590  144.9630 C   0  0  0  0  0  2  0  0  0  0  0  0
  186.5170  176.6180  147.2540 C   0  0  0  0  0  2  0  0  0  0  0  0
  187.2020  178.3800  145.4810 C   0  0  0  0  0  2  0  0  0  0  0  0
  1  5  1  0  0  0  0
  2  3  2  0  0  0  0
  3  6  1  0  0  0  0
  3 17  1  0  0  0  0
  4  1  2  0  0  0  0
  4  2  1  0  0  0  0
  5  6  2  0  0  0  0
  7  2  1  0  0  0  0
  8 14  1  1  0  0  0
  8 12  1  0  0  0  0
  8 13  1  0  0  0  0
  9 10  1  0  0  0  0
  9 11  1  0  0  0  0
  9  7  1  1  0  0  0
 12 10  1  0  0  0  0
 13 11  1  0  0  0  0
 14 16  1  0  0  0  0
 15 14  2  0  0  0  0
 17 18  1  0  0  0  0
 18 19  1  0  0  0  0
 19 20  2  0  0  0  0
 21 24  1  0  0  0  0
 22 19  1  0  0  0  0
 22 26  1  0  0  0  0
 24 23  1  0  0  0  0
 25 27  1  0  0  0  0
 25 21  1  0  0  0  0
 26 23  1  0  0  0  0
 27 22  1  0  0  0  0
M  END
>  <MODEL>
4

>  <REMARK>
 VINA RESULT:      -6.6      2.797      5.881
  Name = 
  7 active torsions:
  status: ('A' for Active; 'I' for Inactive)
    1  A    between atoms: C_1  and  C_7
    2  A    between atoms: N_2  and  C_5
    3  A    between atoms: N_2  and  C_10
    4  A    between atoms: C_4  and  C_8
    5  A    between atoms: C_4  and  C_27
    6  A    between atoms: C_9  and  C_19
    7  A    between atoms: C_19  and  C_27
                            x       y       z     vdW  Elec       q    Type
                         _______ _______ _______ _____ _____    ______ ____

>  <TORSDO>
F 7

$$$$
=
 OpenBabel11062422083D

 27 29  0  0  1  0  0  0  0  0999 V2000
  185.7820  177.9890  140.3180 N   0  0  0  0  0  0  0  0  0  0  0  0
  186.8540  176.5660  141.9200 C   0  0  0  0  0  0  0  0  0  0  0  0
  185.9440  177.0020  142.8980 C   0  0  0  0  0  0  0  0  0  0  0  0
  186.7490  177.0830  140.6210 C   0  0  0  0  0  3  0  0  0  0  0  0
  184.8940  178.4210  141.2530 C   0  0  0  0  0  3  0  0  0  0  0  0
  184.9590  177.9330  142.5590 C   0  0  0  0  0  3  0  0  0  0  0  0
  187.8650  175.6030  142.2480 N   0  0  0  0  0  2  0  0  0  0  0  0
  191.6480  176.3860  143.9690 C   0  0  1  0  0  3  0  0  0  0  0  0
  189.0630  175.9210  143.0110 C   0  0  2  0  0  3  0  0  0  0  0  0
  189.7640  177.1240  142.3880 C   0  0  0  0  0  2  0  0  0  0  0  0
  189.9940  174.6990  143.0600 C   0  0  0  0  0  2  0  0  0  0  0  0
  190.9830  177.5500  143.2160 C   0  0  0  0  0  2  0  0  0  0  0  0
  191.4760  175.0600  143.2290 C   0  0  0  0  0  2  0  0  0  0  0  0
  193.0900  176.6780  144.2170 C   0  0  0  0  0  0  0  0  0  0  0  0
  193.4650  177.1660  145.3170 O   0  0  0  0  0  1  0  0  0  0  0  0
  194.0270  176.3920  143.2350 O   0  0  0  0  0  0  0  0  0  0  0  0
  186.0070  176.4940  144.3040 C   0  0  0  0  0  2  0  0  0  0  0  0
  185.7360  177.6010  145.3150 C   0  0  0  0  0  2  0  0  0  0  0  0
  186.7050  177.5570  146.4610 C   0  0  0  0  0  0  0  0  0  0  0  0
  186.5140  178.2520  147.4460 O   0  0  0  0  0  0  0  0  0  0  0  0
  190.3020  174.9960  146.8090 C   0  0  0  0  0  2  0  0  0  0  0  0
  187.9300  176.7010  146.3950 C   0  0  0  0  0  3  0  0  0  0  0  0
  190.0930  177.4520  147.5750 C   0  0  0  0  0  2  0  0  0  0  0  0
  190.9210  176.1570  147.5930 C   0  0  0  0  0  2  0  0  0  0  0  0
  188.9410  174.5410  147.3440 C   0  0  0  0  0  2  0  0  0  0  0  0
  189.1950  177.5830  146.3390 C   0  0  0  0  0  2  0  0  0  0  0  0
  187.9210  175.6680  147.5320 C   0  0  0  0  0  2  0  0  0  0  0  0
  1  4  2  0  0  0  0
  1  5  1  0  0  0  0
  2  7  1  0  0  0  0
  2  3  2  0  0  0  0
  3 17  1  0  0  0  0
  4  2  1  0  0  0  0
  5  6  2  0  0  0  0
  6  3  1  0  0  0  0
  8 14  1  6  0  0  0
  9  7  1  6  0  0  0
  9 11  1  0  0  0  0
 10  9  1  0  0  0  0
 10 12  1  0  0  0  0
 11 13  1  0  0  0  0
 12  8  1  0  0  0  0
 13  8  1  0  0  0  0
 14 15  1  0  0  0  0
 16 14  2  0  0  0  0
 17 18  1  0  0  0  0
 18 19  1  0  0  0  0
 19 20  2  0  0  0  0
 21 25  1  0  0  0  0
 21 24  1  0  0  0  0
 22 19  1  0  0  0  0
 22 27  1  0  0  0  0
 23 24  1  0  0  0  0
 25 27  1  0  0  0  0
 26 22  1  0  0  0  0
 26 23  1  0  0  0  0
M  END
>  <MODEL>
5

>  <REMARK>
 VINA RESULT:      -6.4      1.695      2.239
  Name = 
  7 active torsions:
  status: ('A' for Active; 'I' for Inactive)
    1  A    between atoms: C_1  and  C_7
    2  A    between atoms: N_2  and  C_5
    3  A    between atoms: N_2  and  C_10
    4  A    between atoms: C_4  and  C_8
    5  A    between atoms: C_4  and  C_27
    6  A    between atoms: C_9  and  C_19
    7  A    between atoms: C_19  and  C_27
                            x       y       z     vdW  Elec       q    Type
                         _______ _______ _______ _____ _____    ______ ____

>  <TORSDO>
F 7

$$$$
=
 OpenBabel11062422083D

 27 29  0  0  1  0  0  0  0  0999 V2000
  190.0280  172.6150  141.6200 N   0  0  0  0  0  0  0  0  0  0  0  0
  189.9100  174.9750  142.0170 C   0  0  0  0  0  0  0  0  0  0  0  0
  188.6000  174.9820  141.5080 C   0  0  0  0  0  0  0  0  0  0  0  0
  190.6100  173.7610  142.0620 C   0  0  0  0  0  3  0  0  0  0  0  0
  188.7620  172.6050  141.1250 C   0  0  0  0  0  3  0  0  0  0  0  0
  188.0260  173.7890  141.0620 C   0  0  0  0  0  3  0  0  0  0  0  0
  190.5110  176.1890  142.4880 N   0  0  0  0  0  2  0  0  0  0  0  0
  190.9840  176.6010  146.6700 C   0  0  1  0  0  3  0  0  0  0  0  0
  190.6380  176.5310  143.8970 C   0  0  2  0  0  3  0  0  0  0  0  0
  192.0630  176.2510  144.3670 C   0  0  0  0  0  2  0  0  0  0  0  0
  189.6150  175.7380  144.7240 C   0  0  0  0  0  2  0  0  0  0  0  0
  192.2640  176.6840  145.8240 C   0  0  0  0  0  2  0  0  0  0  0  0
  190.0490  175.4980  146.1770 C   0  0  0  0  0  2  0  0  0  0  0  0
  191.3190  176.4130  148.1120 C   0  0  0  0  0  0  0  0  0  0  0  0
  191.5250  177.4090  148.8570 O   0  0  0  0  0  1  0  0  0  0  0  0
  191.3870  175.1320  148.6400 O   0  0  0  0  0  0  0  0  0  0  0  0
  187.8010  176.2460  141.4270 C   0  0  0  0  0  2  0  0  0  0  0  0
  186.8060  176.3570  142.5750 C   0  0  0  0  0  2  0  0  0  0  0  0
  186.7310  177.7570  143.1110 C   0  0  0  0  0  0  0  0  0  0  0  0
  186.7810  178.7050  142.3440 O   0  0  0  0  0  0  0  0  0  0  0  0
  186.0750  178.1240  147.4760 C   0  0  0  0  0  2  0  0  0  0  0  0
  186.6400  178.0110  144.5820 C   0  0  0  0  0  3  0  0  0  0  0  0
  184.4270  178.8260  145.6170 C   0  0  0  0  0  2  0  0  0  0  0  0
  184.6550  178.5740  147.1160 C   0  0  0  0  0  2  0  0  0  0  0  0
  186.4840  176.7930  146.8380 C   0  0  0  0  0  2  0  0  0  0  0  0
  185.7060  179.2060  144.8620 C   0  0  0  0  0  2  0  0  0  0  0  0
  186.2640  176.7180  145.3240 C   0  0  0  0  0  2  0  0  0  0  0  0
  1  4  1  0  0  0  0
  2  4  2  0  0  0  0
  2  7  1  0  0  0  0
  3  2  1  0  0  0  0
  5  1  2  0  0  0  0
  6  5  1  0  0  0  0
  6  3  2  0  0  0  0
  8 14  1  1  0  0  0
  9  7  1  6  0  0  0
  9 10  1  0  0  0  0
  9 11  1  0  0  0  0
 10 12  1  0  0  0  0
 11 13  1  0  0  0  0
 12  8  1  0  0  0  0
 13  8  1  0  0  0  0
 14 16  2  0  0  0  0
 14 15  1  0  0  0  0
 17  3  1  0  0  0  0
 17 18  1  0  0  0  0
 18 19  1  0  0  0  0
 19 22  1  0  0  0  0
 20 19  2  0  0  0  0
 22 26  1  0  0  0  0
 22 27  1  0  0  0  0
 23 24  1  0  0  0  0
 24 21  1  0  0  0  0
 25 21  1  0  0  0  0
 26 23  1  0  0  0  0
 27 25  1  0  0  0  0
M  END
>  <MODEL>
6

>  <REMARK>
 VINA RESULT:      -6.4      2.792      5.366
  Name = 
  7 active torsions:
  status: ('A' for Active; 'I' for Inactive)
    1  A    between atoms: C_1  and  C_7
    2  A    between atoms: N_2  and  C_5
    3  A    between atoms: N_2  and  C_10
    4  A    between atoms: C_4  and  C_8
    5  A    between atoms: C_4  and  C_27
    6  A    between atoms: C_9  and  C_19
    7  A    between atoms: C_19  and  C_27
                            x       y       z     vdW  Elec       q    Type
                         _______ _______ _______ _____ _____    ______ ____

>  <TORSDO>
F 7

$$$$
=
 OpenBabel11062422083D

 27 29  0  0  1  0  0  0  0  0999 V2000
  189.1490  172.4120  141.0880 N   0  0  0  0  0  0  0  0  0  0  0  0
  189.1890  174.2190  142.6610 C   0  0  0  0  0  0  0  0  0  0  0  0
  188.6000  175.0540  141.6960 C   0  0  0  0  0  0  0  0  0  0  0  0
  189.4560  172.8840  142.3250 C   0  0  0  0  0  3  0  0  0  0  0  0
  188.5790  173.2070  140.1440 C   0  0  0  0  0  3  0  0  0  0  0  0
  188.2930  174.5410  140.4330 C   0  0  0  0  0  3  0  0  0  0  0  0
  189.5000  174.7260  143.9660 N   0  0  0  0  0  2  0  0  0  0  0  0
  193.3430  176.0760  145.1010 C   0  0  1  0  0  3  0  0  0  0  0  0
  190.8550  174.9990  144.4210 C   0  0  2  0  0  3  0  0  0  0  0  0
  190.8190  176.0080  145.5650 C   0  0  0  0  0  2  0  0  0  0  0  0
  191.7090  175.5140  143.2520 C   0  0  0  0  0  2  0  0  0  0  0  0
  192.2210  176.2540  146.1360 C   0  0  0  0  0  2  0  0  0  0  0  0
  192.8710  176.4160  143.6880 C   0  0  0  0  0  2  0  0  0  0  0  0
  194.5370  176.8890  145.4770 C   0  0  0  0  0  0  0  0  0  0  0  0
  195.5100  177.0040  144.6840 O   0  0  0  0  0  0  0  0  0  0  0  0
  194.5660  177.5390  146.7030 O   0  0  0  0  0  1  0  0  0  0  0  0
  188.2950  176.4900  141.9890 C   0  0  0  0  0  2  0  0  0  0  0  0
  186.8820  176.6660  142.5340 C   0  0  0  0  0  2  0  0  0  0  0  0
  186.6810  178.0320  143.1220 C   0  0  0  0  0  0  0  0  0  0  0  0
  186.5710  179.0000  142.3870 O   0  0  0  0  0  0  0  0  0  0  0  0
  186.2850  178.1820  147.5310 C   0  0  0  0  0  2  0  0  0  0  0  0
  186.6550  178.2320  144.6050 C   0  0  0  0  0  3  0  0  0  0  0  0
  184.4190  178.6570  145.8110 C   0  0  0  0  0  2  0  0  0  0  0  0
  184.7900  178.4080  147.2820 C   0  0  0  0  0  2  0  0  0  0  0  0
  186.8530  176.9500  146.8210 C   0  0  0  0  0  2  0  0  0  0  0  0
  185.5650  179.2550  144.9880 C   0  0  0  0  0  2  0  0  0  0  0  0
  186.5410  176.8780  145.3230 C   0  0  0  0  0  2  0  0  0  0  0  0
  1  4  1  0  0  0  0
  2  7  1  0  0  0  0
  3 17  1  0  0  0  0
  3  2  1  0  0  0  0
  4  2  2  0  0  0  0
  5  6  1  0  0  0  0
  5  1  2  0  0  0  0
  6  3  2  0  0  0  0
  8 14  1  1  0  0  0
  8 12  1  0  0  0  0
  9  7  1  6  0  0  0
  9 10  1  0  0  0  0
 10 12  1  0  0  0  0
 11 13  1  0  0  0  0
 11  9  1  0  0  0  0
 13  8  1  0  0  0  0
 14 16  1  0  0  0  0
 15 14  2  0  0  0  0
 17 18  1  0  0  0  0
 18 19  1  0  0  0  0
 19 22  1  0  0  0  0
 20 19  2  0  0  0  0
 22 26  1  0  0  0  0
 22 27  1  0  0  0  0
 23 24  1  0  0  0  0
 24 21  1  0  0  0  0
 25 21  1  0  0  0  0
 26 23  1  0  0  0  0
 27 25  1  0  0  0  0
M  END
>  <MODEL>
7

>  <REMARK>
 VINA RESULT:      -6.3      2.905      5.162
  Name = 
  7 active torsions:
  status: ('A' for Active; 'I' for Inactive)
    1  A    between atoms: C_1  and  C_7
    2  A    between atoms: N_2  and  C_5
    3  A    between atoms: N_2  and  C_10
    4  A    between atoms: C_4  and  C_8
    5  A    between atoms: C_4  and  C_27
    6  A    between atoms: C_9  and  C_19
    7  A    between atoms: C_19  and  C_27
                            x       y       z     vdW  Elec       q    Type
                         _______ _______ _______ _____ _____    ______ ____

>  <TORSDO>
F 7

$$$$
=
 OpenBabel11062422083D

 27 29  0  0  1  0  0  0  0  0999 V2000
  188.8480  173.3490  142.4400 N   0  0  0  0  0  0  0  0  0  0  0  0
  189.3850  175.3610  143.6250 C   0  0  0  0  0  0  0  0  0  0  0  0
  188.8280  176.1120  142.5760 C   0  0  0  0  0  0  0  0  0  0  0  0
  189.3810  173.9620  143.5300 C   0  0  0  0  0  3  0  0  0  0  0  0
  188.3060  174.0610  141.4170 C   0  0  0  0  0  3  0  0  0  0  0  0
  188.2860  175.4550  141.4680 C   0  0  0  0  0  3  0  0  0  0  0  0
  189.9370  176.0180  144.7740 N   0  0  0  0  0  2  0  0  0  0  0  0
  194.1140  175.6820  145.3400 C   0  0  1  0  0  3  0  0  0  0  0  0
  191.3640  176.0890  145.0530 C   0  0  2  0  0  3  0  0  0  0  0  0
  192.1440  176.0800  143.7420 C   0  0  0  0  0  2  0  0  0  0  0  0
  191.7810  174.9180  145.9560 C   0  0  0  0  0  2  0  0  0  0  0  0
  193.6490  176.2470  143.9880 C   0  0  0  0  0  2  0  0  0  0  0  0
  193.2500  174.5050  145.7900 C   0  0  0  0  0  2  0  0  0  0  0  0
  195.5540  175.2960  145.2790 C   0  0  0  0  0  0  0  0  0  0  0  0
  196.0450  174.5120  146.1360 O   0  0  0  0  0  1  0  0  0  0  0  0
  196.3540  175.7890  144.2580 O   0  0  0  0  0  0  0  0  0  0  0  0
  188.8060  177.6080  142.6130 C   0  0  0  0  0  2  0  0  0  0  0  0
  187.4900  178.1650  142.0860 C   0  0  0  0  0  2  0  0  0  0  0  0
  186.3460  177.8500  143.0050 C   0  0  0  0  0  0  0  0  0  0  0  0
  185.3040  177.4050  142.5500 O   0  0  0  0  0  0  0  0  0  0  0  0
  186.3180  178.2060  147.4200 C   0  0  0  0  0  2  0  0  0  0  0  0
  186.4480  178.1150  144.4740 C   0  0  0  0  0  3  0  0  0  0  0  0
  184.3330  178.6700  145.8360 C   0  0  0  0  0  2  0  0  0  0  0  0
  184.8160  178.4720  147.2810 C   0  0  0  0  0  2  0  0  0  0  0  0
  186.7880  176.9250  146.7240 C   0  0  0  0  0  2  0  0  0  0  0  0
  185.4260  179.1910  144.8960 C   0  0  0  0  0  2  0  0  0  0  0  0
  186.3510  176.7990  145.2610 C   0  0  0  0  0  2  0  0  0  0  0  0
  1  4  1  0  0  0  0
  2  7  1  0  0  0  0
  3 17  1  0  0  0  0
  3  2  1  0  0  0  0
  4  2  2  0  0  0  0
  5  6  1  0  0  0  0
  5  1  2  0  0  0  0
  6  3  2  0  0  0  0
  8 14  1  6  0  0  0
  8 13  1  0  0  0  0
  9  7  1  6  0  0  0
  9 11  1  0  0  0  0
 10 12  1  0  0  0  0
 10  9  1  0  0  0  0
 12  8  1  0  0  0  0
 13 11  1  0  0  0  0
 14 15  1  0  0  0  0
 16 14  2  0  0  0  0
 18 17  1  0  0  0  0
 18 19  1  0  0  0  0
 19 22  1  0  0  0  0
 20 19  2  0  0  0  0
 22 26  1  0  0  0  0
 22 27  1  0  0  0  0
 23 24  1  0  0  0  0
 24 21  1  0  0  0  0
 25 21  1  0  0  0  0
 26 23  1  0  0  0  0
 27 25  1  0  0  0  0
M  END
>  <MODEL>
8

>  <REMARK>
 VINA RESULT:      -6.3      2.860      5.092
  Name = 
  7 active torsions:
  status: ('A' for Active; 'I' for Inactive)
    1  A    between atoms: C_1  and  C_7
    2  A    between atoms: N_2  and  C_5
    3  A    between atoms: N_2  and  C_10
    4  A    between atoms: C_4  and  C_8
    5  A    between atoms: C_4  and  C_27
    6  A    between atoms: C_9  and  C_19
    7  A    between atoms: C_19  and  C_27
                            x       y       z     vdW  Elec       q    Type
                         _______ _______ _______ _____ _____    ______ ____

>  <TORSDO>
F 7

$$$$
=
 OpenBabel11062422083D

 27 29  0  0  1  0  0  0  0  0999 V2000
  194.6640  176.9430  146.0160 N   0  0  0  0  0  0  0  0  0  0  0  0
  192.7100  175.5730  145.7950 C   0  0  0  0  0  0  0  0  0  0  0  0
  192.9940  175.4110  144.4290 C   0  0  0  0  0  0  0  0  0  0  0  0
  193.5740  176.3550  146.5760 C   0  0  0  0  0  3  0  0  0  0  0  0
  194.9520  176.7960  144.6960 C   0  0  0  0  0  3  0  0  0  0  0  0
  194.1220  176.0260  143.8800 C   0  0  0  0  0  3  0  0  0  0  0  0
  191.5620  174.9410  146.3770 N   0  0  0  0  0  2  0  0  0  0  0  0
  187.6590  176.5490  146.6290 C   0  0  1  0  0  3  0  0  0  0  0  0
  190.2090  175.4640  146.2610 C   0  0  2  0  0  3  0  0  0  0  0  0
  190.1960  176.9430  146.6360 C   0  0  0  0  0  2  0  0  0  0  0  0
  189.2550  174.6560  147.1550 C   0  0  0  0  0  2  0  0  0  0  0  0
  188.8040  177.5560  146.4380 C   0  0  0  0  0  2  0  0  0  0  0  0
  188.0290  175.4520  147.6250 C   0  0  0  0  0  2  0  0  0  0  0  0
  186.4090  177.2500  147.0440 C   0  0  0  0  0  0  0  0  0  0  0  0
  186.4630  178.3640  147.6320 O   0  0  0  0  0  1  0  0  0  0  0  0
  185.1760  176.6790  146.7630 O   0  0  0  0  0  0  0  0  0  0  0  0
  192.1090  174.5950  143.5390 C   0  0  0  0  0  2  0  0  0  0  0  0
  191.3130  175.4720  142.5790 C   0  0  0  0  0  2  0  0  0  0  0  0
  189.8640  175.0830  142.5430 C   0  0  0  0  0  0  0  0  0  0  0  0
  189.5380  173.9960  142.0950 O   0  0  0  0  0  0  0  0  0  0  0  0
  186.4780  177.7880  143.4540 C   0  0  0  0  0  2  0  0  0  0  0  0
  188.8050  176.0300  143.0110 C   0  0  0  0  0  3  0  0  0  0  0  0
  188.3040  178.1720  141.6710 C   0  0  0  0  0  2  0  0  0  0  0  0
  186.9500  178.6090  142.2500 C   0  0  0  0  0  2  0  0  0  0  0  0
  186.2550  176.3050  143.1450 C   0  0  0  0  0  2  0  0  0  0  0  0
  189.2120  177.4850  142.6990 C   0  0  0  0  0  2  0  0  0  0  0  0
  187.4350  175.6150  142.4520 C   0  0  0  0  0  2  0  0  0  0  0  0
  1  4  1  0  0  0  0
  2  7  1  0  0  0  0
  2  4  2  0  0  0  0
  3  2  1  0  0  0  0
  5  1  2  0  0  0  0
  6  3  2  0  0  0  0
  6  5  1  0  0  0  0
  8 14  1  1  0  0  0
  8 13  1  0  0  0  0
  9  7  1  1  0  0  0
  9 10  1  0  0  0  0
  9 11  1  0  0  0  0
 11 13  1  0  0  0  0
 12  8  1  0  0  0  0
 12 10  1  0  0  0  0
 14 15  1  0  0  0  0
 16 14  2  0  0  0  0
 17  3  1  0  0  0  0
 18 17  1  0  0  0  0
 19 18  1  0  0  0  0
 19 22  1  0  0  0  0
 20 19  2  0  0  0  0
 23 24  1  0  0  0  0
 23 26  1  0  0  0  0
 24 21  1  0  0  0  0
 25 21  1  0  0  0  0
 26 22  1  0  0  0  0
 27 22  1  0  0  0  0
 27 25  1  0  0  0  0
M  END
>  <MODEL>
9

>  <REMARK>
 VINA RESULT:      -6.3      2.621      7.148
  Name = 
  7 active torsions:
  status: ('A' for Active; 'I' for Inactive)
    1  A    between atoms: C_1  and  C_7
    2  A    between atoms: N_2  and  C_5
    3  A    between atoms: N_2  and  C_10
    4  A    between atoms: C_4  and  C_8
    5  A    between atoms: C_4  and  C_27
    6  A    between atoms: C_9  and  C_19
    7  A    between atoms: C_19  and  C_27
                            x       y       z     vdW  Elec       q    Type
                         _______ _______ _______ _____ _____    ______ ____

>  <TORSDO>
F 7

$$$$
