=
 OpenBabel11062420343D

 32 37  0  0  1  0  0  0  0  0999 V2000
  188.5970  175.6260  147.1970 C   0  0  0  0  0  3  0  0  0  0  0  0
  186.8870  176.8910  143.4570 C   0  0  0  0  0  0  0  0  0  0  0  0
  185.2820  178.0550  141.9350 C   0  0  0  0  0  3  0  0  0  0  0  0
  185.5670  177.9460  139.6080 N   0  0  0  0  0  0  0  0  0  0  0  0
  184.9790  178.0430  147.1020 C   0  0  0  0  0  0  0  0  0  0  0  0
  186.4190  177.2620  142.1560 C   0  0  0  0  0  0  0  0  0  0  0  0
  185.0630  178.0710  144.6910 C   0  0  0  0  0  3  0  0  0  0  0  0
  186.2320  177.2860  144.6770 C   0  0  0  0  0  0  0  0  0  0  0  0
  189.7700  174.9240  145.1530 C   0  0  0  0  0  3  0  0  0  0  0  0
  186.7640  176.8850  145.9320 C   0  0  0  0  0  0  0  0  0  0  0  0
  188.2200  176.0560  141.1410 N   0  0  0  0  0  0  0  0  0  0  0  0
  186.1340  177.2660  147.1270 C   0  0  0  0  0  3  0  0  0  0  0  0
  188.5550  175.7190  144.8230 C   0  0  0  0  0  0  0  0  0  0  0  0
  187.9170  176.1110  145.9690 C   0  0  0  0  0  0  0  0  0  0  0  0
  184.8900  178.3730  140.6740 N   0  0  0  0  0  0  0  0  0  0  0  0
  186.6760  177.1770  139.7430 C   0  0  0  0  0  3  0  0  0  0  0  0
  188.7170  175.6720  142.3410 C   0  0  0  0  0  0  0  0  0  0  0  0
  184.3800  178.4050  148.2610 F   0  0  0  0  0  0  0  0  0  0  0  0
  184.4420  178.4460  145.8830 C   0  0  0  0  0  3  0  0  0  0  0  0
  187.1190  176.8250  141.0160 C   0  0  1  0  0  3  0  0  0  0  0  0
  189.7860  174.8250  146.6780 C   0  0  0  0  0  3  0  0  0  0  0  0
  188.0710  176.0810  143.5400 C   0  0  0  0  0  0  0  0  0  0  0  0
  191.1010  175.5450  142.3250 O   0  0  0  0  0  1  0  0  0  0  0  0
  189.9290  174.7840  142.3270 C   0  0  2  0  0  3  0  0  0  0  0  0
  191.0060  173.7160  140.3070 C   0  0  0  0  0  3  0  0  0  0  0  0
  190.9530  172.8470  139.2140 C   0  0  0  0  0  3  0  0  0  0  0  0
  189.9040  173.8380  141.1660 C   0  0  0  0  0  0  0  0  0  0  0  0
  188.6940  172.2250  139.8210 C   0  0  0  0  0  3  0  0  0  0  0  0
  188.7470  173.0940  140.9150 C   0  0  0  0  0  3  0  0  0  0  0  0
  189.7990  172.0960  138.9640 C   0  0  0  0  0  0  0  0  0  0  0  0
  189.6930  169.8220  137.9960 C   0  0  0  0  0  1  0  0  0  0  0  0
  189.7770  171.2350  137.8640 O   0  0  0  0  0  0  0  0  0  0  0  0
  2 22  1  0  0  0  0
  2  8  1  0  0  0  0
  3  6  1  0  0  0  0
  4 16  2  0  0  0  0
  4 15  1  0  0  0  0
  5 12  1  0  0  0  0
  5 18  1  0  0  0  0
  6  2  2  0  0  0  0
  7 19  1  0  0  0  0
  8  7  2  0  0  0  0
  8 10  1  0  0  0  0
  9 21  2  0  0  0  0
 10 14  1  0  0  0  0
 10 12  2  0  0  0  0
 11 17  2  0  0  0  0
 13  9  1  0  0  0  0
 13 14  1  0  0  0  0
 14  1  2  0  0  0  0
 15  3  2  0  0  0  0
 17 22  1  0  0  0  0
 19  5  2  0  0  0  0
 20 16  1  6  0  0  0
 20 11  1  0  0  0  0
 20  6  1  0  0  0  0
 21  1  1  0  0  0  0
 22 13  2  0  0  0  0
 24 23  1  6  0  0  0
 24 17  1  0  0  0  0
 25 27  1  0  0  0  0
 26 25  2  0  0  0  0
 27 24  1  0  0  0  0
 28 29  1  0  0  0  0
 29 27  2  0  0  0  0
 30 26  1  0  0  0  0
 30 28  2  0  0  0  0
 32 31  1  0  0  0  0
 32 30  1  0  0  0  0
M  END
>  <MODEL>
1

>  <REMARK>
 VINA RESULT:      -9.0      0.000      0.000
  Name = 
  3 active torsions:
  status: ('A' for Active; 'I' for Inactive)
    1  A    between atoms: O_16  and  C_25
    2  A    between atoms: C_20  and  C_29
    3  A    between atoms: C_23  and  C_29
                            x       y       z     vdW  Elec       q    Type
                         _______ _______ _______ _____ _____    ______ ____

>  <TORSDO>
F 3

$$$$
=
 OpenBabel11062420343D

 32 37  0  0  1  0  0  0  0  0999 V2000
  189.2430  174.3660  141.2390 C   0  0  0  0  0  3  0  0  0  0  0  0
  187.3800  176.9510  144.1310 C   0  0  0  0  0  0  0  0  0  0  0  0
  185.8440  178.7320  144.9760 C   0  0  0  0  0  3  0  0  0  0  0  0
  185.7730  179.2440  147.2650 N   0  0  0  0  0  0  0  0  0  0  0  0
  186.3010  177.3300  140.0140 C   0  0  0  0  0  0  0  0  0  0  0  0
  186.8190  177.7440  145.1820 C   0  0  0  0  0  0  0  0  0  0  0  0
  186.0570  178.0340  142.3090 C   0  0  0  0  0  3  0  0  0  0  0  0
  187.0070  177.0910  142.7470 C   0  0  0  0  0  0  0  0  0  0  0  0
  189.9190  174.0670  143.5840 C   0  0  0  0  0  3  0  0  0  0  0  0
  187.6030  176.2590  141.7620 C   0  0  2  0  0  3  0  0  0  0  0  0
  188.1850  176.6150  146.7910 N   0  0  0  0  0  0  0  0  0  0  0  0
  187.2460  176.3860  140.4100 C   0  0  0  0  0  3  0  0  0  0  0  0
  188.9190  175.1630  143.4540 C   0  0  0  0  0  0  0  0  0  0  0  0
  188.5450  175.3130  142.1460 C   0  0  0  0  0  0  0  0  0  0  0  0
  185.3510  179.4510  146.0170 N   0  0  0  0  0  0  0  0  0  0  0  0
  186.7130  178.3070  147.5410 C   0  0  0  0  0  3  0  0  0  0  0  0
  188.7540  175.8300  145.8440 C   0  0  0  0  0  0  0  0  0  0  0  0
  185.9640  177.4450  138.7080 F   0  0  0  0  0  0  0  0  0  0  0  0
  185.7060  178.1560  140.9640 C   0  0  0  0  0  3  0  0  0  0  0  0
  187.2480  177.5430  146.5070 C   0  0  0  0  0  0  0  0  0  0  0  0
  190.1640  173.5730  142.1590 C   0  0  0  0  0  3  0  0  0  0  0  0
  188.3670  175.9660  144.4830 C   0  0  0  0  0  0  0  0  0  0  0  0
  189.6440  174.5490  147.6510 O   0  0  0  0  0  1  0  0  0  0  0  0
  189.8120  174.8650  146.3010 C   0  0  2  0  0  3  0  0  0  0  0  0
  191.3800  176.6640  145.4720 C   0  0  0  0  0  3  0  0  0  0  0  0
  192.6710  177.1320  145.2160 C   0  0  0  0  0  3  0  0  0  0  0  0
  191.1880  175.3980  146.0440 C   0  0  0  0  0  0  0  0  0  0  0  0
  193.5890  175.0690  146.0880 C   0  0  0  0  0  3  0  0  0  0  0  0
  192.2970  174.6010  146.3450 C   0  0  0  0  0  3  0  0  0  0  0  0
  193.7840  176.3400  145.5230 C   0  0  0  0  0  0  0  0  0  0  0  0
  195.8220  176.4330  144.1250 C   0  0  0  0  0  1  0  0  0  0  0  0
  195.0620  176.8360  145.2560 O   0  0  0  0  0  0  0  0  0  0  0  0
  1 14  2  0  0  0  0
  1 21  1  0  0  0  0
  2 22  1  0  0  0  0
  2  6  1  0  0  0  0
  3  6  2  0  0  0  0
  3 15  1  0  0  0  0
  4 16  1  0  0  0  0
  5 12  2  0  0  0  0
  5 19  1  0  0  0  0
  6 20  1  0  0  0  0
  7  8  1  0  0  0  0
  8  2  2  0  0  0  0
 10 12  1  1  0  0  0
 10 14  1  0  0  0  0
 10  8  1  0  0  0  0
 13  9  1  0  0  0  0
 13 22  2  0  0  0  0
 14 13  1  0  0  0  0
 15  4  2  0  0  0  0
 17 24  1  0  0  0  0
 17 11  2  0  0  0  0
 18  5  1  0  0  0  0
 19  7  2  0  0  0  0
 20 11  1  0  0  0  0
 20 16  2  0  0  0  0
 21  9  2  0  0  0  0
 22 17  1  0  0  0  0
 24 23  1  1  0  0  0
 25 27  1  0  0  0  0
 26 25  2  0  0  0  0
 26 30  1  0  0  0  0
 27 24  1  0  0  0  0
 27 29  2  0  0  0  0
 28 29  1  0  0  0  0
 30 28  2  0  0  0  0
 31 32  1  0  0  0  0
 32 30  1  0  0  0  0
M  END
>  <MODEL>
2

>  <REMARK>
 VINA RESULT:      -8.8      3.617      6.054
  Name = 
  3 active torsions:
  status: ('A' for Active; 'I' for Inactive)
    1  A    between atoms: O_16  and  C_25
    2  A    between atoms: C_20  and  C_29
    3  A    between atoms: C_23  and  C_29
                            x       y       z     vdW  Elec       q    Type
                         _______ _______ _______ _____ _____    ______ ____

>  <TORSDO>
F 3

$$$$
=
 OpenBabel11062420343D

 32 37  0  0  1  0  0  0  0  0999 V2000
  194.5950  176.7130  145.6830 C   0  0  0  0  0  3  0  0  0  0  0  0
  191.9000  174.8330  142.9050 C   0  0  0  0  0  0  0  0  0  0  0  0
  191.1670  173.7910  140.7550 C   0  0  0  0  0  2  0  0  0  0  0  0
  188.9800  172.9700  140.5240 N   0  0  0  0  0  0  0  0  0  0  0  0
  195.8840  175.7280  141.6450 C   0  0  0  0  0  0  0  0  0  0  0  0
  190.9220  174.1970  142.0760 C   0  0  0  0  0  0  0  0  0  0  0  0
  193.6980  174.8220  141.1700 C   0  0  0  0  0  3  0  0  0  0  0  0
  193.2400  175.1280  142.4660 C   0  0  0  0  0  0  0  0  0  0  0  0
  192.3280  176.2270  146.5010 C   0  0  0  0  0  3  0  0  0  0  0  0
  194.1570  175.7530  143.3520 C   0  0  0  0  0  0  0  0  0  0  0  0
  189.3150  174.3140  143.8460 N   0  0  0  0  0  0  0  0  0  0  0  0
  195.4650  176.0460  142.9350 C   0  0  0  0  0  3  0  0  0  0  0  0
  192.4830  175.8050  145.0820 C   0  0  0  0  0  0  0  0  0  0  0  0
  193.7510  176.0730  144.6420 C   0  0  0  0  0  0  0  0  0  0  0  0
  190.1950  173.1920  140.0200 N   0  0  0  0  0  0  0  0  0  0  0  0
  188.6700  173.3350  141.7920 C   0  0  0  0  0  3  0  0  0  0  0  0
  190.1940  174.9160  144.6840 C   0  0  0  0  0  0  0  0  0  0  0  0
  197.1480  176.0140  141.2530 F   0  0  0  0  0  0  0  0  0  0  0  0
  195.0000  175.1160  140.7610 C   0  0  0  0  0  3  0  0  0  0  0  0
  189.6340  173.9520  142.5870 C   0  0  0  0  0  0  0  0  0  0  0  0
  193.6690  176.8490  146.8870 C   0  0  0  0  0  3  0  0  0  0  0  0
  191.5190  175.1900  144.2440 C   0  0  0  0  0  0  0  0  0  0  0  0
  189.3160  174.1650  146.7720 O   0  0  0  0  0  1  0  0  0  0  0  0
  189.6890  175.2980  146.0460 C   0  0  2  0  0  3  0  0  0  0  0  0
  187.5040  176.2480  146.8850 C   0  0  0  0  0  3  0  0  0  0  0  0
  186.4430  177.1500  146.7690 C   0  0  0  0  0  3  0  0  0  0  0  0
  188.5560  176.2740  145.9580 C   0  0  0  0  0  0  0  0  0  0  0  0
  187.4700  178.1030  144.7960 C   0  0  0  0  0  3  0  0  0  0  0  0
  188.5320  177.2000  144.9110 C   0  0  0  0  0  3  0  0  0  0  0  0
  186.4190  178.0830  145.7270 C   0  0  0  0  0  0  0  0  0  0  0  0
  184.0500  178.6650  146.1380 C   0  0  0  0  0  1  0  0  0  0  0  0
  185.3450  178.9730  145.6400 O   0  0  0  0  0  0  0  0  0  0  0  0
  1 21  1  0  0  0  0
  2 22  1  0  0  0  0
  3  6  1  0  0  0  0
  4 16  1  0  0  0  0
  5 12  1  0  0  0  0
  6 20  1  0  0  0  0
  6  2  2  0  0  0  0
  7  8  2  0  0  0  0
  8  2  1  0  0  0  0
  8 10  1  0  0  0  0
  9 21  2  0  0  0  0
 10 14  1  0  0  0  0
 11 17  2  0  0  0  0
 12 10  2  0  0  0  0
 13  9  1  0  0  0  0
 14 13  1  0  0  0  0
 14  1  2  0  0  0  0
 15  4  2  0  0  0  0
 15  3  1  0  0  0  0
 16 20  2  0  0  0  0
 17 24  1  0  0  0  0
 18  5  1  0  0  0  0
 19  7  1  0  0  0  0
 19  5  2  0  0  0  0
 20 11  1  0  0  0  0
 22 17  1  0  0  0  0
 22 13  2  0  0  0  0
 24 23  1  6  0  0  0
 26 25  1  0  0  0  0
 27 24  1  0  0  0  0
 27 25  2  0  0  0  0
 28 29  2  0  0  0  0
 28 30  1  0  0  0  0
 29 27  1  0  0  0  0
 30 26  2  0  0  0  0
 32 30  1  0  0  0  0
 32 31  1  0  0  0  0
M  END
>  <MODEL>
3

>  <REMARK>
 VINA RESULT:      -8.6      4.163      7.857
  Name = 
  3 active torsions:
  status: ('A' for Active; 'I' for Inactive)
    1  A    between atoms: O_16  and  C_25
    2  A    between atoms: C_20  and  C_29
    3  A    between atoms: C_23  and  C_29
                            x       y       z     vdW  Elec       q    Type
                         _______ _______ _______ _____ _____    ______ ____

>  <TORSDO>
F 3

$$$$
=
 OpenBabel11062420343D

 32 37  0  0  1  0  0  0  0  0999 V2000
  189.0720  176.7870  147.6420 C   0  0  0  0  0  3  0  0  0  0  0  0
  187.2530  177.2040  143.7650 C   0  0  0  0  0  0  0  0  0  0  0  0
  185.5070  177.8520  142.0980 C   0  0  0  0  0  3  0  0  0  0  0  0
  185.8580  177.4700  139.8090 N   0  0  0  0  0  0  0  0  0  0  0  0
  185.0990  178.5100  147.2160 C   0  0  0  0  0  0  0  0  0  0  0  0
  186.7580  177.3050  142.4260 C   0  0  0  0  0  0  0  0  0  0  0  0
  185.2290  178.2150  144.8250 C   0  0  0  0  0  3  0  0  0  0  0  0
  186.5150  177.6480  144.9190 C   0  0  0  0  0  0  0  0  0  0  0  0
  190.3920  176.0180  145.7160 C   0  0  0  0  0  3  0  0  0  0  0  0
  187.0790  177.5230  146.2170 C   0  0  0  0  0  0  0  0  0  0  0  0
  188.7600  176.2960  141.5870 N   0  0  0  0  0  0  0  0  0  0  0  0
  186.3690  177.9530  147.3480 C   0  0  0  0  0  3  0  0  0  0  0  0
  189.0670  176.5390  145.2800 C   0  0  0  0  0  0  0  0  0  0  0  0
  188.3460  176.9710  146.3600 C   0  0  0  0  0  0  0  0  0  0  0  0
  185.0950  177.9180  140.8060 N   0  0  0  0  0  0  0  0  0  0  0  0
  187.0780  176.9280  140.0490 C   0  0  0  0  0  3  0  0  0  0  0  0
  189.2890  176.1740  142.8290 C   0  0  0  0  0  0  0  0  0  0  0  0
  184.4210  178.9210  148.3140 F   0  0  0  0  0  0  0  0  0  0  0  0
  184.5270  178.6400  145.9540 C   0  0  0  0  0  3  0  0  0  0  0  0
  187.5470  176.8390  141.3580 C   0  0  1  0  0  3  0  0  0  0  0  0
  190.3910  176.1370  147.2390 C   0  0  0  0  0  3  0  0  0  0  0  0
  188.5570  176.6290  143.9600 C   0  0  0  0  0  0  0  0  0  0  0  0
  191.5760  176.1760  142.1450 O   0  0  0  0  0  1  0  0  0  0  0  0
  190.6350  175.5140  142.9370 C   0  0  2  0  0  3  0  0  0  0  0  0
  189.6890  173.1940  143.2550 C   0  0  0  0  0  3  0  0  0  0  0  0
  189.6570  171.8360  142.9270 C   0  0  0  0  0  3  0  0  0  0  0  0
  190.5640  174.0610  142.5830 C   0  0  0  0  0  0  0  0  0  0  0  0
  191.3790  172.1970  141.2660 C   0  0  0  0  0  3  0  0  0  0  0  0
  191.4110  173.5560  141.5930 C   0  0  0  0  0  3  0  0  0  0  0  0
  190.4990  171.3290  141.9310 C   0  0  0  0  0  0  0  0  0  0  0  0
  190.9380  169.4310  140.4060 C   0  0  0  0  0  1  0  0  0  0  0  0
  190.4420  169.9660  141.6260 O   0  0  0  0  0  0  0  0  0  0  0  0
  2 22  1  0  0  0  0
  2  8  1  0  0  0  0
  3  6  1  0  0  0  0
  4 16  2  0  0  0  0
  4 15  1  0  0  0  0
  5 12  1  0  0  0  0
  5 18  1  0  0  0  0
  6  2  2  0  0  0  0
  7  8  2  0  0  0  0
  7 19  1  0  0  0  0
  8 10  1  0  0  0  0
  9 21  2  0  0  0  0
 10 14  1  0  0  0  0
 10 12  2  0  0  0  0
 11 17  2  0  0  0  0
 13  9  1  0  0  0  0
 13 14  1  0  0  0  0
 14  1  2  0  0  0  0
 15  3  2  0  0  0  0
 17 24  1  0  0  0  0
 17 22  1  0  0  0  0
 19  5  2  0  0  0  0
 20 16  1  1  0  0  0
 20 11  1  0  0  0  0
 20  6  1  0  0  0  0
 21  1  1  0  0  0  0
 22 13  2  0  0  0  0
 24 23  1  6  0  0  0
 26 25  1  0  0  0  0
 27 24  1  0  0  0  0
 27 25  2  0  0  0  0
 28 29  2  0  0  0  0
 28 30  1  0  0  0  0
 29 27  1  0  0  0  0
 30 26  2  0  0  0  0
 31 32  1  0  0  0  0
 32 30  1  0  0  0  0
M  END
>  <MODEL>
4

>  <REMARK>
 VINA RESULT:      -8.4      1.495      1.738
  Name = 
  3 active torsions:
  status: ('A' for Active; 'I' for Inactive)
    1  A    between atoms: O_16  and  C_25
    2  A    between atoms: C_20  and  C_29
    3  A    between atoms: C_23  and  C_29
                            x       y       z     vdW  Elec       q    Type
                         _______ _______ _______ _____ _____    ______ ____

>  <TORSDO>
F 3

$$$$
=
 OpenBabel11062420343D

 32 37  0  0  1  0  0  0  0  0999 V2000
  189.6080  171.5750  142.1800 C   0  0  0  0  0  3  0  0  0  0  0  0
  192.2870  174.1220  144.3820 C   0  0  0  0  0  0  0  0  0  0  0  0
  194.2910  174.7210  145.7510 C   0  0  0  0  0  3  0  0  0  0  0  0
  194.6640  176.9490  146.3890 N   0  0  0  0  0  0  0  0  0  0  0  0
  193.1150  169.9350  144.1680 C   0  0  0  0  0  0  0  0  0  0  0  0
  193.1120  175.0670  145.0720 C   0  0  1  0  0  3  0  0  0  0  0  0
  193.7050  172.1420  144.9450 C   0  0  0  0  0  3  0  0  0  0  0  0
  192.5790  172.7130  144.3190 C   0  0  0  0  0  0  0  0  0  0  0  0
  189.0560  173.9700  142.2380 C   0  0  0  0  0  3  0  0  0  0  0  0
  191.7160  171.8390  143.6060 C   0  0  0  0  0  0  0  0  0  0  0  0
  191.6250  176.8410  144.4610 N   0  0  0  0  0  0  0  0  0  0  0  0
  191.9910  170.4640  143.5380 C   0  0  0  0  0  3  0  0  0  0  0  0
  190.2930  173.6900  143.0190 C   0  0  0  0  0  0  0  0  0  0  0  0
  190.5930  172.3560  142.9710 C   0  0  0  0  0  0  0  0  0  0  0  0
  195.0300  175.6670  146.3870 N   0  0  0  0  0  0  0  0  0  0  0  0
  193.5370  177.3570  145.7550 C   0  0  0  0  0  3  0  0  0  0  0  0
  190.8040  176.0000  143.7880 C   0  0  0  0  0  0  0  0  0  0  0  0
  193.3710  168.6080  144.0960 F   0  0  0  0  0  0  0  0  0  0  0  0
  193.9720  170.7750  144.8740 C   0  0  0  0  0  3  0  0  0  0  0  0
  192.7460  176.4250  145.0870 C   0  0  0  0  0  0  0  0  0  0  0  0
  188.5850  172.6100  141.7250 C   0  0  0  0  0  3  0  0  0  0  0  0
  191.1090  174.6130  143.7200 C   0  0  0  0  0  0  0  0  0  0  0  0
  189.8900  177.7300  142.4200 O   0  0  0  0  0  1  0  0  0  0  0  0
  189.5700  176.5960  143.1720 C   0  0  2  0  0  3  0  0  0  0  0  0
  188.4440  176.1690  145.3920 C   0  0  0  0  0  3  0  0  0  0  0  0
  187.4570  176.4670  146.3350 C   0  0  0  0  0  3  0  0  0  0  0  0
  188.5380  176.9170  144.2090 C   0  0  0  0  0  0  0  0  0  0  0  0
  186.6440  178.2520  144.9180 C   0  0  0  0  0  3  0  0  0  0  0  0
  187.6310  177.9540  143.9740 C   0  0  0  0  0  3  0  0  0  0  0  0
  186.5520  177.5100  146.1060 C   0  0  0  0  0  0  0  0  0  0  0  0
  184.2760  178.2460  146.7350 C   0  0  0  0  0  1  0  0  0  0  0  0
  185.5780  177.7840  147.0690 O   0  0  0  0  0  0  0  0  0  0  0  0
  1 14  1  0  0  0  0
  2  6  1  0  0  0  0
  3 15  2  0  0  0  0
  5 19  1  0  0  0  0
  6 20  1  0  0  0  0
  6  3  1  6  0  0  0
  8  2  2  0  0  0  0
  8  7  1  0  0  0  0
  9 13  2  0  0  0  0
 10  8  1  0  0  0  0
 11 20  2  0  0  0  0
 12 10  1  0  0  0  0
 12  5  2  0  0  0  0
 13 22  1  0  0  0  0
 14 13  1  0  0  0  0
 14 10  2  0  0  0  0
 15  4  1  0  0  0  0
 16  4  2  0  0  0  0
 17 11  1  0  0  0  0
 18  5  1  0  0  0  0
 19  7  2  0  0  0  0
 20 16  1  0  0  0  0
 21  1  2  0  0  0  0
 21  9  1  0  0  0  0
 22 17  2  0  0  0  0
 22  2  1  0  0  0  0
 24 23  1  1  0  0  0
 24 17  1  0  0  0  0
 24 27  1  0  0  0  0
 25 26  1  0  0  0  0
 27 25  2  0  0  0  0
 28 30  1  0  0  0  0
 29 27  1  0  0  0  0
 29 28  2  0  0  0  0
 30 26  2  0  0  0  0
 30 32  1  0  0  0  0
 31 32  1  0  0  0  0
M  END
>  <MODEL>
5

>  <REMARK>
 VINA RESULT:      -7.9      4.568      8.360
  Name = 
  3 active torsions:
  status: ('A' for Active; 'I' for Inactive)
    1  A    between atoms: O_16  and  C_25
    2  A    between atoms: C_20  and  C_29
    3  A    between atoms: C_23  and  C_29
                            x       y       z     vdW  Elec       q    Type
                         _______ _______ _______ _____ _____    ______ ____

>  <TORSDO>
F 3

$$$$
=
 OpenBabel11062420343D

 32 37  0  0  1  0  0  0  0  0999 V2000
  189.6650  177.2370  147.2760 C   0  0  0  0  0  3  0  0  0  0  0  0
  190.2410  175.2860  143.4850 C   0  0  0  0  0  0  0  0  0  0  0  0
  189.6230  174.4180  141.2240 C   0  0  0  0  0  2  0  0  0  0  0  0
  191.2320  173.3600  139.8830 N   0  0  0  0  0  0  0  0  0  0  0  0
  186.3650  176.7860  144.4760 C   0  0  0  0  0  0  0  0  0  0  0  0
  190.5550  174.6320  142.2510 C   0  0  0  0  0  0  0  0  0  0  0  0
  187.8350  175.6640  142.9260 C   0  0  0  0  0  3  0  0  0  0  0  0
  188.9290  175.7850  143.8050 C   0  0  0  0  0  0  0  0  0  0  0  0
  191.9310  176.4170  146.7910 C   0  0  0  0  0  3  0  0  0  0  0  0
  188.6970  176.4320  145.0490 C   0  0  0  0  0  0  0  0  0  0  0  0
  192.8210  174.3330  142.9630 N   0  0  0  0  0  0  0  0  0  0  0  0
  187.4230  176.9230  145.3710 C   0  0  0  0  0  3  0  0  0  0  0  0
  191.0010  176.1070  145.6690 C   0  0  0  0  0  0  0  0  0  0  0  0
  189.7460  176.5770  145.9490 C   0  0  0  0  0  0  0  0  0  0  0  0
  189.9850  173.7910  140.0750 N   0  0  0  0  0  0  0  0  0  0  0  0
  192.1870  173.5310  140.8300 C   0  0  0  0  0  3  0  0  0  0  0  0
  192.5910  174.9440  144.1500 C   0  0  0  0  0  0  0  0  0  0  0  0
  185.1390  177.2630  144.7970 F   0  0  0  0  0  0  0  0  0  0  0  0
  186.5700  176.1540  143.2530 C   0  0  0  0  0  3  0  0  0  0  0  0
  191.8650  174.1700  142.0260 C   0  0  0  0  0  0  0  0  0  0  0  0
  191.0730  177.1100  147.8480 C   0  0  0  0  0  3  0  0  0  0  0  0
  191.2950  175.4470  144.4500 C   0  0  0  0  0  0  0  0  0  0  0  0
  194.6710  175.9780  144.7010 O   0  0  0  0  0  1  0  0  0  0  0  0
  193.7410  175.0210  145.1140 C   0  0  2  0  0  3  0  0  0  0  0  0
  195.7890  173.5600  145.3360 C   0  0  0  0  0  3  0  0  0  0  0  0
  196.3790  172.3010  145.4830 C   0  0  0  0  0  3  0  0  0  0  0  0
  194.3930  173.6850  145.2990 C   0  0  0  0  0  0  0  0  0  0  0  0
  194.1840  171.2830  145.5430 C   0  0  0  0  0  3  0  0  0  0  0  0
  193.5940  172.5420  145.3970 C   0  0  0  0  0  3  0  0  0  0  0  0
  195.5820  171.1560  145.5890 C   0  0  0  0  0  0  0  0  0  0  0  0
  196.4840  169.3410  147.0060 C   0  0  0  0  0  1  0  0  0  0  0  0
  196.2010  169.9120  145.7360 O   0  0  0  0  0  0  0  0  0  0  0  0
  1 21  1  0  0  0  0
  2  8  1  0  0  0  0
  2 22  1  0  0  0  0
  3  6  1  0  0  0  0
  4 15  2  0  0  0  0
  4 16  1  0  0  0  0
  5 18  1  0  0  0  0
  5 12  1  0  0  0  0
  6  2  2  0  0  0  0
  7 19  1  0  0  0  0
  7  8  2  0  0  0  0
  8 10  1  0  0  0  0
  9 21  2  0  0  0  0
 10 12  2  0  0  0  0
 10 14  1  0  0  0  0
 11 17  2  0  0  0  0
 13 14  1  0  0  0  0
 13  9  1  0  0  0  0
 14  1  2  0  0  0  0
 15  3  1  0  0  0  0
 16 20  2  0  0  0  0
 17 22  1  0  0  0  0
 17 24  1  0  0  0  0
 19  5  2  0  0  0  0
 20  6  1  0  0  0  0
 20 11  1  0  0  0  0
 22 13  2  0  0  0  0
 24 23  1  6  0  0  0
 24 27  1  0  0  0  0
 25 26  1  0  0  0  0
 26 30  2  0  0  0  0
 27 25  2  0  0  0  0
 27 29  1  0  0  0  0
 28 30  1  0  0  0  0
 29 28  2  0  0  0  0
 30 32  1  0  0  0  0
 32 31  1  0  0  0  0
M  END
>  <MODEL>
6

>  <REMARK>
 VINA RESULT:      -7.9      3.993      5.667
  Name = 
  3 active torsions:
  status: ('A' for Active; 'I' for Inactive)
    1  A    between atoms: O_16  and  C_25
    2  A    between atoms: C_20  and  C_29
    3  A    between atoms: C_23  and  C_29
                            x       y       z     vdW  Elec       q    Type
                         _______ _______ _______ _____ _____    ______ ____

>  <TORSDO>
F 3

$$$$
=
 OpenBabel11062420343D

 32 37  0  0  1  0  0  0  0  0999 V2000
  189.0730  172.5000  139.9290 C   0  0  0  0  0  3  0  0  0  0  0  0
  190.7860  174.1510  143.5140 C   0  0  0  0  0  0  0  0  0  0  0  0
  192.1900  174.2080  145.5810 C   0  0  0  0  0  3  0  0  0  0  0  0
  192.2750  176.1480  146.9000 N   0  0  0  0  0  0  0  0  0  0  0  0
  191.7280  170.1270  142.4300 C   0  0  0  0  0  0  0  0  0  0  0  0
  191.3060  174.8110  144.6730 C   0  0  1  0  0  3  0  0  0  0  0  0
  191.9700  171.9930  143.9410 C   0  0  0  0  0  3  0  0  0  0  0  0
  191.1130  172.7940  143.1620 C   0  0  0  0  0  0  0  0  0  0  0  0
  188.4820  174.8250  140.4640 C   0  0  0  0  0  3  0  0  0  0  0  0
  190.5640  172.2110  141.9880 C   0  0  0  0  0  0  0  0  0  0  0  0
  190.0780  176.7910  144.1220 N   0  0  0  0  0  0  0  0  0  0  0  0
  190.8750  170.8890  141.6360 C   0  0  0  0  0  3  0  0  0  0  0  0
  189.3850  174.2530  141.5010 C   0  0  0  0  0  0  0  0  0  0  0  0
  189.7120  172.9620  141.1870 C   0  0  0  0  0  0  0  0  0  0  0  0
  192.6480  174.8900  146.6630 N   0  0  0  0  0  0  0  0  0  0  0  0
  191.4230  176.7950  146.0670 C   0  0  0  0  0  3  0  0  0  0  0  0
  189.5530  176.2260  143.0070 C   0  0  0  0  0  0  0  0  0  0  0  0
  192.0220  168.8520  142.0810 F   0  0  0  0  0  0  0  0  0  0  0  0
  192.2760  170.6790  143.5850 C   0  0  0  0  0  3  0  0  0  0  0  0
  190.9270  176.1400  144.9420 C   0  0  0  0  0  0  0  0  0  0  0  0
  188.2440  173.6930  139.4660 C   0  0  0  0  0  3  0  0  0  0  0  0
  189.8940  174.8890  142.6620 C   0  0  0  0  0  0  0  0  0  0  0  0
  189.2230  178.1920  141.6950 O   0  0  0  0  0  1  0  0  0  0  0  0
  188.5900  177.0570  142.2080 C   0  0  2  0  0  3  0  0  0  0  0  0
  186.7820  178.6920  142.8710 C   0  0  0  0  0  3  0  0  0  0  0  0
  185.6760  179.0350  143.6530 C   0  0  0  0  0  3  0  0  0  0  0  0
  187.3870  177.4350  143.0170 C   0  0  0  0  0  0  0  0  0  0  0  0
  185.7800  176.8760  144.7420 C   0  0  0  0  0  3  0  0  0  0  0  0
  186.8860  176.5320  143.9580 C   0  0  0  0  0  3  0  0  0  0  0  0
  185.1670  178.1300  144.5920 C   0  0  0  0  0  0  0  0  0  0  0  0
  184.0350  178.3920  146.7760 C   0  0  0  0  0  1  0  0  0  0  0  0
  184.0600  178.5020  145.3590 O   0  0  0  0  0  0  0  0  0  0  0  0
  1 14  1  0  0  0  0
  2  6  1  0  0  0  0
  3 15  2  0  0  0  0
  5 19  1  0  0  0  0
  6 20  1  0  0  0  0
  6  3  1  6  0  0  0
  8  2  2  0  0  0  0
  8  7  1  0  0  0  0
  9 13  2  0  0  0  0
 10  8  1  0  0  0  0
 11 20  2  0  0  0  0
 12 10  1  0  0  0  0
 12  5  2  0  0  0  0
 13 22  1  0  0  0  0
 14 13  1  0  0  0  0
 14 10  2  0  0  0  0
 15  4  1  0  0  0  0
 16  4  2  0  0  0  0
 17 11  1  0  0  0  0
 18  5  1  0  0  0  0
 19  7  2  0  0  0  0
 20 16  1  0  0  0  0
 21  1  2  0  0  0  0
 21  9  1  0  0  0  0
 22 17  2  0  0  0  0
 22  2  1  0  0  0  0
 24 23  1  1  0  0  0
 24 17  1  0  0  0  0
 24 27  1  0  0  0  0
 25 27  2  0  0  0  0
 25 26  1  0  0  0  0
 26 30  2  0  0  0  0
 27 29  1  0  0  0  0
 29 28  2  0  0  0  0
 30 28  1  0  0  0  0
 30 32  1  0  0  0  0
 32 31  1  0  0  0  0
M  END
>  <MODEL>
7

>  <REMARK>
 VINA RESULT:      -7.8      3.928      7.982
  Name = 
  3 active torsions:
  status: ('A' for Active; 'I' for Inactive)
    1  A    between atoms: O_16  and  C_25
    2  A    between atoms: C_20  and  C_29
    3  A    between atoms: C_23  and  C_29
                            x       y       z     vdW  Elec       q    Type
                         _______ _______ _______ _____ _____    ______ ____

>  <TORSDO>
F 3

$$$$
=
 OpenBabel11062420343D

 32 37  0  0  1  0  0  0  0  0999 V2000
  187.5080  174.8110  141.6250 C   0  0  0  0  0  3  0  0  0  0  0  0
  189.1710  176.4500  145.2390 C   0  0  0  0  0  0  0  0  0  0  0  0
  189.2770  177.8890  147.2790 C   0  0  0  0  0  3  0  0  0  0  0  0
  191.1140  177.7490  148.7320 N   0  0  0  0  0  0  0  0  0  0  0  0
  185.4140  177.9220  143.8330 C   0  0  0  0  0  0  0  0  0  0  0  0
  189.8150  176.9070  146.4330 C   0  0  1  0  0  3  0  0  0  0  0  0
  187.1930  177.9590  145.4640 C   0  0  0  0  0  3  0  0  0  0  0  0
  187.9050  176.9560  144.7770 C   0  0  0  0  0  0  0  0  0  0  0  0
  189.6670  173.8940  142.3610 C   0  0  0  0  0  3  0  0  0  0  0  0
  187.3250  176.4440  143.5860 C   0  0  0  0  0  0  0  0  0  0  0  0
  191.6440  175.4130  146.0440 N   0  0  0  0  0  0  0  0  0  0  0  0
  186.0910  176.9300  143.1270 C   0  0  0  0  0  3  0  0  0  0  0  0
  189.1950  174.9570  143.2910 C   0  0  0  0  0  0  0  0  0  0  0  0
  187.9900  175.4520  142.8740 C   0  0  0  0  0  0  0  0  0  0  0  0
  189.9380  178.2800  148.3990 N   0  0  0  0  0  0  0  0  0  0  0  0
  191.6960  176.7950  147.9630 C   0  0  0  0  0  3  0  0  0  0  0  0
  191.0880  174.9340  144.9050 C   0  0  0  0  0  0  0  0  0  0  0  0
  184.2240  178.3840  143.3820 F   0  0  0  0  0  0  0  0  0  0  0  0
  185.9660  178.4390  145.0020 C   0  0  0  0  0  3  0  0  0  0  0  0
  191.0560  176.3600  146.8050 C   0  0  0  0  0  0  0  0  0  0  0  0
  188.6070  173.8180  141.2630 C   0  0  0  0  0  3  0  0  0  0  0  0
  189.8300  175.4310  144.4670 C   0  0  0  0  0  0  0  0  0  0  0  0
  192.1200  172.7820  144.9280 O   0  0  0  0  0  1  0  0  0  0  0  0
  191.8740  173.9080  144.1390 C   0  0  2  0  0  3  0  0  0  0  0  0
  194.3960  174.0470  144.0960 C   0  0  0  0  0  3  0  0  0  0  0  0
  195.5770  174.6120  143.6070 C   0  0  0  0  0  3  0  0  0  0  0  0
  193.1530  174.4800  143.6090 C   0  0  0  0  0  0  0  0  0  0  0  0
  194.2850  176.0530  142.1540 C   0  0  0  0  0  3  0  0  0  0  0  0
  193.1030  175.4880  142.6420 C   0  0  0  0  0  3  0  0  0  0  0  0
  195.5300  175.6160  142.6330 C   0  0  0  0  0  0  0  0  0  0  0  0
  197.8300  176.4420  143.0170 C   0  0  0  0  0  1  0  0  0  0  0  0
  196.7290  176.1590  142.1640 O   0  0  0  0  0  0  0  0  0  0  0  0
  1 14  1  0  0  0  0
  2  6  1  0  0  0  0
  3 15  2  0  0  0  0
  5 19  1  0  0  0  0
  6 20  1  0  0  0  0
  6  3  1  1  0  0  0
  8  2  2  0  0  0  0
  8  7  1  0  0  0  0
  9 13  2  0  0  0  0
 10  8  1  0  0  0  0
 11 20  2  0  0  0  0
 12 10  1  0  0  0  0
 12  5  2  0  0  0  0
 13 22  1  0  0  0  0
 14 13  1  0  0  0  0
 14 10  2  0  0  0  0
 15  4  1  0  0  0  0
 16  4  2  0  0  0  0
 17 11  1  0  0  0  0
 18  5  1  0  0  0  0
 19  7  2  0  0  0  0
 20 16  1  0  0  0  0
 21  1  2  0  0  0  0
 21  9  1  0  0  0  0
 22 17  2  0  0  0  0
 22  2  1  0  0  0  0
 24 17  1  0  0  0  0
 24 23  1  1  0  0  0
 26 25  2  0  0  0  0
 27 25  1  0  0  0  0
 27 24  1  0  0  0  0
 28 30  2  0  0  0  0
 28 29  1  0  0  0  0
 29 27  2  0  0  0  0
 30 26  1  0  0  0  0
 32 30  1  0  0  0  0
 32 31  1  0  0  0  0
M  END
>  <MODEL>
8

>  <REMARK>
 VINA RESULT:      -7.8      3.840      5.881
  Name = 
  3 active torsions:
  status: ('A' for Active; 'I' for Inactive)
    1  A    between atoms: O_16  and  C_25
    2  A    between atoms: C_20  and  C_29
    3  A    between atoms: C_23  and  C_29
                            x       y       z     vdW  Elec       q    Type
                         _______ _______ _______ _____ _____    ______ ____

>  <TORSDO>
F 3

$$$$
=
 OpenBabel11062420343D

 32 37  0  0  1  0  0  0  0  0999 V2000
  190.7290  171.3490  141.7450 C   0  0  0  0  0  3  0  0  0  0  0  0
  188.4400  174.9860  141.5350 C   0  0  0  0  0  0  0  0  0  0  0  0
  187.0370  176.7670  140.4830 C   0  0  0  0  0  3  0  0  0  0  0  0
  186.2490  178.5650  141.7680 N   0  0  0  0  0  0  0  0  0  0  0  0
  188.9750  172.6670  137.9860 C   0  0  0  0  0  0  0  0  0  0  0  0
  187.6890  176.2030  141.5910 C   0  0  0  0  0  0  0  0  0  0  0  0
  188.0580  174.6040  139.0960 C   0  0  0  0  0  2  0  0  0  0  0  0
  188.6120  174.2150  140.3310 C   0  0  0  0  0  0  0  0  0  0  0  0
  190.4670  172.6090  143.8390 C   0  0  0  0  0  3  0  0  0  0  0  0
  189.3650  173.0110  140.3580 C   0  0  0  0  0  0  0  0  0  0  0  0
  188.1770  176.4220  143.9240 N   0  0  0  0  0  0  0  0  0  0  0  0
  189.5390  172.2520  139.1910 C   0  0  0  0  0  3  0  0  0  0  0  0
  189.7840  173.3020  142.7110 C   0  0  0  0  0  0  0  0  0  0  0  0
  189.9310  172.5860  141.5540 C   0  0  0  0  0  0  0  0  0  0  0  0
  186.3390  177.9260  140.6020 N   0  0  0  0  0  0  0  0  0  0  0  0
  186.8520  178.0810  142.8820 C   0  0  0  0  0  3  0  0  0  0  0  0
  188.8990  175.2760  143.9410 C   0  0  0  0  0  0  0  0  0  0  0  0
  189.1490  171.9280  136.8660 F   0  0  0  0  0  0  0  0  0  0  0  0
  188.2350  173.8450  137.9380 C   0  0  0  0  0  3  0  0  0  0  0  0
  187.5780  176.8940  142.8120 C   0  0  0  0  0  0  0  0  0  0  0  0
  191.1120  171.3700  143.2200 C   0  0  0  0  0  3  0  0  0  0  0  0
  189.0510  174.5150  142.7490 C   0  0  0  0  0  0  0  0  0  0  0  0
  188.7670  175.3190  146.3230 O   0  0  0  0  0  1  0  0  0  0  0  0
  189.5420  174.8910  145.2430 C   0  0  2  0  0  3  0  0  0  0  0  0
  191.4630  176.2730  144.3610 C   0  0  0  0  0  3  0  0  0  0  0  0
  192.7780  176.7370  144.4600 C   0  0  0  0  0  3  0  0  0  0  0  0
  190.9390  175.4220  145.3440 C   0  0  0  0  0  0  0  0  0  0  0  0
  193.0590  175.4930  146.5160 C   0  0  0  0  0  3  0  0  0  0  0  0
  191.7440  175.0290  146.4180 C   0  0  0  0  0  3  0  0  0  0  0  0
  193.5840  176.3520  145.5370 C   0  0  0  0  0  0  0  0  0  0  0  0
  195.7930  176.7770  144.5100 C   0  0  0  0  0  1  0  0  0  0  0  0
  194.8930  176.8330  145.6080 O   0  0  0  0  0  0  0  0  0  0  0  0
  1 21  1  0  0  0  0
  2  6  1  0  0  0  0
  2 22  1  0  0  0  0
  3 15  2  0  0  0  0
  3  6  1  0  0  0  0
  4 16  2  0  0  0  0
  5 12  1  0  0  0  0
  6 20  2  0  0  0  0
  7  8  1  0  0  0  0
  8 10  1  0  0  0  0
  8  2  2  0  0  0  0
 10 14  1  0  0  0  0
 11 17  2  0  0  0  0
 12 10  2  0  0  0  0
 13 22  2  0  0  0  0
 13  9  1  0  0  0  0
 14  1  2  0  0  0  0
 14 13  1  0  0  0  0
 15  4  1  0  0  0  0
 17 24  1  0  0  0  0
 18  5  1  0  0  0  0
 19  5  2  0  0  0  0
 19  7  1  0  0  0  0
 20 16  1  0  0  0  0
 20 11  1  0  0  0  0
 21  9  2  0  0  0  0
 22 17  1  0  0  0  0
 24 27  1  0  0  0  0
 24 23  1  1  0  0  0
 25 26  2  0  0  0  0
 25 27  1  0  0  0  0
 26 30  1  0  0  0  0
 27 29  2  0  0  0  0
 29 28  1  0  0  0  0
 30 32  1  0  0  0  0
 30 28  2  0  0  0  0
 31 32  1  0  0  0  0
M  END
>  <MODEL>
9

>  <REMARK>
 VINA RESULT:      -7.7      3.679      6.635
  Name = 
  3 active torsions:
  status: ('A' for Active; 'I' for Inactive)
    1  A    between atoms: O_16  and  C_25
    2  A    between atoms: C_20  and  C_29
    3  A    between atoms: C_23  and  C_29
                            x       y       z     vdW  Elec       q    Type
                         _______ _______ _______ _____ _____    ______ ____

>  <TORSDO>
F 3

$$$$
