=
 OpenBabel11072409183D

 39 42  0  0  1  0  0  0  0  0999 V2000
  186.3210  177.6800  145.8740 C   0  0  0  0  0  0  0  0  0  0  0  0
  186.5730  177.8300  144.5750 C   0  0  0  0  0  3  0  0  0  0  0  0
  185.0000  178.3740  147.7250 O   0  0  0  0  0  0  0  0  0  0  0  0
  184.6240  179.4330  144.3960 C   0  0  0  0  0  3  0  0  0  0  0  0
  184.3820  179.2610  145.6610 N   0  0  0  0  0  0  0  0  0  0  0  0
  185.8460  178.8430  143.7270 C   0  0  2  0  0  3  0  0  0  0  0  0
  185.2240  178.4500  146.4880 C   0  0  0  0  0  0  0  0  0  0  0  0
  187.0840  176.6660  146.6570 C   0  0  0  0  0  2  0  0  0  0  0  0
  188.5630  177.0120  146.6550 C   0  0  0  0  0  2  0  0  0  0  0  0
  189.3710  175.8890  146.0250 C   0  0  0  0  0  2  0  0  0  0  0  0
  190.0720  177.8740  144.6480 C   0  0  0  0  0  1  0  0  0  0  0  0
  190.4010  176.4420  145.0370 C   0  0  1  0  0  3  0  0  0  0  0  0
  191.8620  176.3490  145.5140 C   0  0  1  0  0  0  0  0  0  0  0  0
  192.9490  176.9980  144.6610 C   0  0  0  0  0  2  0  0  0  0  0  0
  192.0850  176.4960  146.8850 O   0  0  0  0  0  1  0  0  0  0  0  0
  192.8720  175.4800  144.7790 C   0  0  2  0  0  0  0  0  0  0  0  0
  192.4080  174.8400  143.6280 O   0  0  0  0  0  1  0  0  0  0  0  0
  195.3690  175.3650  145.3710 C   0  0  2  0  0  3  0  0  0  0  0  0
  193.9760  174.8060  145.5970 C   0  0  2  0  0  3  0  0  0  0  0  0
  195.2820  173.0170  145.7950 C   0  0  2  0  0  3  0  0  0  0  0  0
  194.0120  173.4280  145.3540 O   0  0  0  0  0  0  0  0  0  0  0  0
  195.5750  175.6810  144.0270 O   0  0  0  0  0  1  0  0  0  0  0  0
  196.2370  174.1960  145.7270 C   0  0  0  0  0  2  0  0  0  0  0  0
  197.2510  171.6260  145.2350 C   0  0  0  0  0  2  0  0  0  0  0  0
  195.7940  171.8890  144.9180 C   0  0  0  0  0  3  0  0  0  0  0  0
  196.1810  170.7090  145.7860 C   0  0  0  0  0  2  0  0  0  0  0  0
  185.5670  178.3000  142.3210 C   0  0  1  0  0  3  0  0  0  0  0  0
  186.1970  176.9300  142.0520 C   0  0  0  0  0  2  0  0  0  0  0  0
  187.3810  177.0530  141.2130 N   0  0  0  0  0  2  0  0  0  0  0  0
  188.3950  176.1590  141.7510 C   0  0  0  0  0  2  0  0  0  0  0  0
  187.7480  174.8990  142.3170 C   0  0  0  0  0  2  0  0  0  0  0  0
  188.7130  173.8080  142.3770 N   0  0  0  0  0  0  0  0  0  0  0  0
  189.7780  171.8300  141.4210 O   0  0  0  0  0  1  0  0  0  0  0  0
  188.1610  172.9670  140.2650 O   0  0  0  0  0  0  0  0  0  0  0  0
  189.4410  173.6510  143.5030 F   0  0  0  0  0  0  0  0  0  0  0  0
  188.8590  172.8670  141.3080 C   0  0  0  0  0  0  0  0  0  0  0  0
  184.1940  178.2840  142.0530 O   0  0  0  0  0  0  0  0  0  0  0  0
  182.7480  177.8600  140.2150 C   0  0  0  0  0  1  0  0  0  0  0  0
  184.0980  178.3770  140.6640 C   0  0  0  0  0  2  0  0  0  0  0  0
  1  7  1  0  0  0  0
  1  8  1  0  0  0  0
  2  1  2  0  0  0  0
  4  5  2  0  0  0  0
  5  7  1  0  0  0  0
  6 27  1  6  0  0  0
  6  4  1  0  0  0  0
  6  2  1  0  0  0  0
  7  3  2  0  0  0  0
  9  8  1  0  0  0  0
 10  9  1  0  0  0  0
 12 11  1  1  0  0  0
 12 13  1  0  0  0  0
 12 10  1  0  0  0  0
 13 15  1  1  0  0  0
 14 16  1  0  0  0  0
 14 13  1  0  0  0  0
 16 17  1  6  0  0  0
 16 13  1  0  0  0  0
 16 19  1  0  0  0  0
 18 22  1  6  0  0  0
 18 19  1  0  0  0  0
 18 23  1  0  0  0  0
 19 21  1  6  0  0  0
 20 25  1  6  0  0  0
 21 20  1  0  0  0  0
 23 20  1  0  0  0  0
 24 26  1  0  0  0  0
 25 24  1  0  0  0  0
 25 26  1  0  0  0  0
 27 28  1  1  0  0  0
 29 30  1  0  0  0  0
 29 28  1  0  0  0  0
 30 31  1  0  0  0  0
 31 32  1  0  0  0  0
 32 35  1  0  0  0  0
 34 36  2  0  0  0  0
 36 33  1  0  0  0  0
 36 32  1  0  0  0  0
 37 27  1  0  0  0  0
 38 39  1  0  0  0  0
 39 37  1  0  0  0  0
M  END
>  <MODEL>
1

>  <REMARK>
 VINA RESULT:      -7.1      0.000      0.000
  Name = 
  15 active torsions:
  status: ('A' for Active; 'I' for Inactive)
    1  A    between atoms: C_3  and  C_13
    2  A    between atoms: C_5  and  C_7
    3  A    between atoms: C_5  and  C_13
    4  A    between atoms: C_7  and  C_38
    5  A    between atoms: C_8  and  C_38
    6  A    between atoms: C_9  and  C_32
    7  A    between atoms: C_14  and  C_22
    8  A    between atoms: C_14  and  O_25
    9  A    between atoms: C_14  and  C_36
   10  A    between atoms: C_15  and  N_16
   11  A    between atoms: C_15  and  C_18
   12  A    between atoms: C_17  and  C_26
   13  A    between atoms: C_18  and  N_27
   14  A    between atoms: C_19  and  O_25
   15  A    between atoms: C_22  and  N_27
                            x       y       z     vdW  Elec       q    Type
                         _______ _______ _______ _____ _____    ______ ____

>  <TORSDO>
F 15

$$$$
=
 OpenBabel11072409183D

 39 42  0  0  1  0  0  0  0  0999 V2000
  187.1980  177.5440  145.9900 C   0  0  0  0  0  0  0  0  0  0  0  0
  187.1620  178.1310  144.7950 C   0  0  0  0  0  3  0  0  0  0  0  0
  185.9410  176.7990  147.8650 O   0  0  0  0  0  0  0  0  0  0  0  0
  184.6360  178.1840  144.9120 C   0  0  0  0  0  3  0  0  0  0  0  0
  184.6890  177.5940  146.0690 N   0  0  0  0  0  0  0  0  0  0  0  0
  185.8820  178.6550  144.1960 C   0  0  2  0  0  3  0  0  0  0  0  0
  185.9340  177.2980  146.7090 C   0  0  0  0  0  0  0  0  0  0  0  0
  188.5000  177.0580  146.5300 C   0  0  0  0  0  2  0  0  0  0  0  0
  189.4550  176.7530  145.3880 C   0  0  0  0  0  2  0  0  0  0  0  0
  190.2770  175.5130  145.6990 C   0  0  0  0  0  2  0  0  0  0  0  0
  191.2380  175.3570  148.0190 C   0  0  0  0  0  1  0  0  0  0  0  0
  191.4660  175.8550  146.6010 C   0  0  1  0  0  3  0  0  0  0  0  0
  192.8280  175.3600  146.0810 C   0  0  1  0  0  0  0  0  0  0  0  0
  194.0750  176.1730  146.4210 C   0  0  0  0  0  2  0  0  0  0  0  0
  193.0500  173.9820  146.1160 O   0  0  0  0  0  1  0  0  0  0  0  0
  193.5680  176.1120  144.9850 C   0  0  2  0  0  0  0  0  0  0  0  0
  192.9700  177.2930  144.5380 O   0  0  0  0  0  1  0  0  0  0  0  0
  195.8840  175.6820  143.9610 C   0  0  2  0  0  3  0  0  0  0  0  0
  194.4150  175.3030  143.9990 C   0  0  2  0  0  3  0  0  0  0  0  0
  194.9630  175.0030  141.8650 C   0  0  2  0  0  3  0  0  0  0  0  0
  193.9040  175.3990  142.7000 O   0  0  0  0  0  0  0  0  0  0  0  0
  196.0530  177.0630  144.0740 O   0  0  0  0  0  1  0  0  0  0  0  0
  196.2800  175.2620  142.5780 C   0  0  0  0  0  2  0  0  0  0  0  0
  196.1020  175.4020  139.7040 C   0  0  0  0  0  2  0  0  0  0  0  0
  194.9180  175.7870  140.5660 C   0  0  0  0  0  3  0  0  0  0  0  0
  194.7330  174.8310  139.4050 C   0  0  0  0  0  2  0  0  0  0  0  0
  185.8370  178.4230  142.6810 C   0  0  1  0  0  3  0  0  0  0  0  0
  187.1650  177.9370  142.0910 C   0  0  0  0  0  2  0  0  0  0  0  0
  187.1210  176.5090  141.8080 N   0  0  0  0  0  2  0  0  0  0  0  0
  188.4900  176.0560  141.6230 C   0  0  0  0  0  2  0  0  0  0  0  0
  188.5130  174.6800  140.9680 C   0  0  0  0  0  2  0  0  0  0  0  0
  188.9050  173.6570  141.9300 N   0  0  0  0  0  0  0  0  0  0  0  0
  189.7360  171.4270  142.4720 O   0  0  0  0  0  1  0  0  0  0  0  0
  189.5190  172.1010  140.2950 O   0  0  0  0  0  0  0  0  0  0  0  0
  188.7390  173.9110  143.2460 F   0  0  0  0  0  0  0  0  0  0  0  0
  189.3950  172.3770  141.5170 C   0  0  0  0  0  0  0  0  0  0  0  0
  184.7890  177.5630  142.3360 O   0  0  0  0  0  0  0  0  0  0  0  0
  182.6520  178.2750  141.5770 C   0  0  0  0  0  1  0  0  0  0  0  0
  184.1350  178.2000  141.2810 C   0  0  0  0  0  2  0  0  0  0  0  0
  1  8  1  0  0  0  0
  1  7  1  0  0  0  0
  2  1  2  0  0  0  0
  4  5  2  0  0  0  0
  5  7  1  0  0  0  0
  6 27  1  6  0  0  0
  6  2  1  0  0  0  0
  6  4  1  0  0  0  0
  7  3  2  0  0  0  0
  9 10  1  0  0  0  0
  9  8  1  0  0  0  0
 10 12  1  0  0  0  0
 12 11  1  1  0  0  0
 13 15  1  6  0  0  0
 13 14  1  0  0  0  0
 13 12  1  0  0  0  0
 16 17  1  6  0  0  0
 16 13  1  0  0  0  0
 16 14  1  0  0  0  0
 18 19  1  0  0  0  0
 18 22  1  6  0  0  0
 19 21  1  6  0  0  0
 19 16  1  0  0  0  0
 20 25  1  6  0  0  0
 20 23  1  0  0  0  0
 20 21  1  0  0  0  0
 23 18  1  0  0  0  0
 24 25  1  0  0  0  0
 26 24  1  0  0  0  0
 26 25  1  0  0  0  0
 27 28  1  1  0  0  0
 29 28  1  0  0  0  0
 30 29  1  0  0  0  0
 31 30  1  0  0  0  0
 31 32  1  0  0  0  0
 32 35  1  0  0  0  0
 34 36  2  0  0  0  0
 36 32  1  0  0  0  0
 36 33  1  0  0  0  0
 37 27  1  0  0  0  0
 39 38  1  0  0  0  0
 39 37  1  0  0  0  0
M  END
>  <MODEL>
2

>  <REMARK>
 VINA RESULT:      -6.8      2.078      2.619
  Name = 
  15 active torsions:
  status: ('A' for Active; 'I' for Inactive)
    1  A    between atoms: C_3  and  C_13
    2  A    between atoms: C_5  and  C_7
    3  A    between atoms: C_5  and  C_13
    4  A    between atoms: C_7  and  C_38
    5  A    between atoms: C_8  and  C_38
    6  A    between atoms: C_9  and  C_32
    7  A    between atoms: C_14  and  C_22
    8  A    between atoms: C_14  and  O_25
    9  A    between atoms: C_14  and  C_36
   10  A    between atoms: C_15  and  N_16
   11  A    between atoms: C_15  and  C_18
   12  A    between atoms: C_17  and  C_26
   13  A    between atoms: C_18  and  N_27
   14  A    between atoms: C_19  and  O_25
   15  A    between atoms: C_22  and  N_27
                            x       y       z     vdW  Elec       q    Type
                         _______ _______ _______ _____ _____    ______ ____

>  <TORSDO>
F 15

$$$$
=
 OpenBabel11072409183D

 39 42  0  0  1  0  0  0  0  0999 V2000
  193.3760  172.3280  144.3870 C   0  0  0  0  0  0  0  0  0  0  0  0
  193.6010  173.5050  143.8050 C   0  0  0  0  0  3  0  0  0  0  0  0
  194.2860  170.5630  145.6940 O   0  0  0  0  0  0  0  0  0  0  0  0
  195.9120  173.5550  144.8320 C   0  0  0  0  0  3  0  0  0  0  0  0
  195.6690  172.4150  145.4070 N   0  0  0  0  0  0  0  0  0  0  0  0
  194.9520  174.1730  143.8400 C   0  0  2  0  0  3  0  0  0  0  0  0
  194.4480  171.7020  145.1830 C   0  0  0  0  0  0  0  0  0  0  0  0
  192.0180  171.7170  144.3060 C   0  0  0  0  0  2  0  0  0  0  0  0
  190.9550  172.7830  144.5090 C   0  0  0  0  0  2  0  0  0  0  0  0
  189.6860  172.4180  143.7560 C   0  0  0  0  0  2  0  0  0  0  0  0
  189.9820  171.8100  141.3330 C   0  0  0  0  0  1  0  0  0  0  0  0
  189.7330  172.9400  142.3180 C   0  0  1  0  0  3  0  0  0  0  0  0
  188.4950  173.7490  141.8890 C   0  0  1  0  0  0  0  0  0  0  0  0
  188.6140  174.6750  140.6820 C   0  0  0  0  0  2  0  0  0  0  0  0
  187.2640  173.0930  141.9520 O   0  0  0  0  0  1  0  0  0  0  0  0
  188.4400  175.2580  142.0790 C   0  0  2  0  0  0  0  0  0  0  0  0
  189.5920  175.8530  142.5980 O   0  0  0  0  0  1  0  0  0  0  0  0
  186.6380  176.9510  141.3860 C   0  0  2  0  0  3  0  0  0  0  0  0
  187.0840  175.8980  142.3850 C   0  0  2  0  0  3  0  0  0  0  0  0
  185.9900  177.3660  143.6470 C   0  0  2  0  0  3  0  0  0  0  0  0
  187.0750  176.4730  143.6610 O   0  0  0  0  0  0  0  0  0  0  0  0
  187.7130  177.7350  140.9630 O   0  0  0  0  0  1  0  0  0  0  0  0
  185.7240  177.8010  142.2160 C   0  0  0  0  0  2  0  0  0  0  0  0
  185.2390  179.6330  144.2990 C   0  0  0  0  0  2  0  0  0  0  0  0
  186.3080  178.5790  144.5030 C   0  0  0  0  0  3  0  0  0  0  0  0
  185.2180  178.7660  145.5390 C   0  0  0  0  0  2  0  0  0  0  0  0
  194.8210  175.6940  143.9860 C   0  0  1  0  0  3  0  0  0  0  0  0
  195.1240  176.2060  145.3980 C   0  0  0  0  0  2  0  0  0  0  0  0
  193.9510  176.8380  145.9880 N   0  0  0  0  0  2  0  0  0  0  0  0
  193.1510  175.7890  146.6020 C   0  0  0  0  0  2  0  0  0  0  0  0
  191.6780  175.9670  146.2500 C   0  0  0  0  0  2  0  0  0  0  0  0
  190.8300  175.3030  147.2320 N   0  0  0  0  0  0  0  0  0  0  0  0
  188.6810  174.3920  147.9450 O   0  0  0  0  0  1  0  0  0  0  0  0
  188.9370  175.2990  145.8580 O   0  0  0  0  0  0  0  0  0  0  0  0
  191.3490  175.0190  148.4460 F   0  0  0  0  0  0  0  0  0  0  0  0
  189.4550  175.0060  146.9680 C   0  0  0  0  0  0  0  0  0  0  0  0
  195.6000  176.3570  143.0320 O   0  0  0  0  0  0  0  0  0  0  0  0
  195.9970  176.0290  140.7120 C   0  0  0  0  0  1  0  0  0  0  0  0
  194.9630  176.1120  141.8150 C   0  0  0  0  0  2  0  0  0  0  0  0
  1  7  1  0  0  0  0
  2  6  1  0  0  0  0
  2  1  2  0  0  0  0
  4  5  2  0  0  0  0
  6 27  1  1  0  0  0
  6  4  1  0  0  0  0
  7  5  1  0  0  0  0
  7  3  2  0  0  0  0
  8  1  1  0  0  0  0
  8  9  1  0  0  0  0
 10  9  1  0  0  0  0
 12 11  1  6  0  0  0
 12 10  1  0  0  0  0
 13 15  1  1  0  0  0
 13 16  1  0  0  0  0
 13 12  1  0  0  0  0
 14 13  1  0  0  0  0
 14 16  1  0  0  0  0
 16 19  1  0  0  0  0
 16 17  1  1  0  0  0
 18 22  1  1  0  0  0
 18 23  1  0  0  0  0
 18 19  1  0  0  0  0
 19 21  1  1  0  0  0
 20 21  1  0  0  0  0
 20 25  1  1  0  0  0
 23 20  1  0  0  0  0
 24 25  1  0  0  0  0
 24 26  1  0  0  0  0
 25 26  1  0  0  0  0
 27 28  1  1  0  0  0
 28 29  1  0  0  0  0
 29 30  1  0  0  0  0
 31 30  1  0  0  0  0
 31 32  1  0  0  0  0
 32 35  1  0  0  0  0
 34 36  2  0  0  0  0
 36 32  1  0  0  0  0
 36 33  1  0  0  0  0
 37 27  1  0  0  0  0
 38 39  1  0  0  0  0
 39 37  1  0  0  0  0
M  END
>  <MODEL>
3

>  <REMARK>
 VINA RESULT:      -6.6      3.039      9.098
  Name = 
  15 active torsions:
  status: ('A' for Active; 'I' for Inactive)
    1  A    between atoms: C_3  and  C_13
    2  A    between atoms: C_5  and  C_7
    3  A    between atoms: C_5  and  C_13
    4  A    between atoms: C_7  and  C_38
    5  A    between atoms: C_8  and  C_38
    6  A    between atoms: C_9  and  C_32
    7  A    between atoms: C_14  and  C_22
    8  A    between atoms: C_14  and  O_25
    9  A    between atoms: C_14  and  C_36
   10  A    between atoms: C_15  and  N_16
   11  A    between atoms: C_15  and  C_18
   12  A    between atoms: C_17  and  C_26
   13  A    between atoms: C_18  and  N_27
   14  A    between atoms: C_19  and  O_25
   15  A    between atoms: C_22  and  N_27
                            x       y       z     vdW  Elec       q    Type
                         _______ _______ _______ _____ _____    ______ ____

>  <TORSDO>
F 15

$$$$
=
 OpenBabel11072409183D

 39 42  0  0  1  0  0  0  0  0999 V2000
  192.1500  174.8180  145.9270 C   0  0  0  0  0  0  0  0  0  0  0  0
  193.2760  174.2900  145.4520 C   0  0  0  0  0  3  0  0  0  0  0  0
  191.1730  176.5530  147.2270 O   0  0  0  0  0  0  0  0  0  0  0  0
  194.5790  176.2290  146.4230 C   0  0  0  0  0  3  0  0  0  0  0  0
  193.4670  176.7390  146.8640 N   0  0  0  0  0  0  0  0  0  0  0  0
  194.6320  174.8600  145.7820 C   0  0  2  0  0  3  0  0  0  0  0  0
  192.2140  176.0630  146.7150 C   0  0  0  0  0  0  0  0  0  0  0  0
  190.8410  174.1980  145.5700 C   0  0  0  0  0  2  0  0  0  0  0  0
  191.0610  173.0190  144.6380 C   0  0  0  0  0  2  0  0  0  0  0  0
  189.7540  172.6070  143.9830 C   0  0  0  0  0  2  0  0  0  0  0  0
  189.9220  171.7140  141.6370 C   0  0  0  0  0  1  0  0  0  0  0  0
  189.7530  172.9590  142.4930 C   0  0  1  0  0  3  0  0  0  0  0  0
  188.5250  173.7590  142.0220 C   0  0  1  0  0  0  0  0  0  0  0  0
  188.6690  174.6600  140.7990 C   0  0  0  0  0  2  0  0  0  0  0  0
  187.2920  173.1040  142.0740 O   0  0  0  0  0  1  0  0  0  0  0  0
  188.4670  175.2710  142.1810 C   0  0  2  0  0  0  0  0  0  0  0  0
  189.6090  175.8770  142.7110 O   0  0  0  0  0  1  0  0  0  0  0  0
  186.6860  176.9590  141.4240 C   0  0  2  0  0  3  0  0  0  0  0  0
  187.1060  175.9180  142.4460 C   0  0  2  0  0  3  0  0  0  0  0  0
  185.9850  177.4040  143.6630 C   0  0  2  0  0  3  0  0  0  0  0  0
  187.0670  176.5090  143.7140 O   0  0  0  0  0  0  0  0  0  0  0  0
  187.7730  177.7350  141.0170 O   0  0  0  0  0  1  0  0  0  0  0  0
  185.7540  177.8210  142.2210 C   0  0  0  0  0  2  0  0  0  0  0  0
  185.1800  179.6460  144.3330 C   0  0  0  0  0  2  0  0  0  0  0  0
  186.2850  178.6260  144.5120 C   0  0  0  0  0  3  0  0  0  0  0  0
  185.2140  178.7790  145.5730 C   0  0  0  0  0  2  0  0  0  0  0  0
  195.5780  174.7900  144.5780 C   0  0  1  0  0  3  0  0  0  0  0  0
  196.1990  173.4060  144.3610 C   0  0  0  0  0  2  0  0  0  0  0  0
  196.7650  172.8860  145.5980 N   0  0  0  0  0  2  0  0  0  0  0  0
  197.2540  171.5440  145.3270 C   0  0  0  0  0  2  0  0  0  0  0  0
  196.1130  170.6440  144.8630 C   0  0  0  0  0  2  0  0  0  0  0  0
  195.2230  170.3270  145.9740 N   0  0  0  0  0  0  0  0  0  0  0  0
  194.5070  168.8780  147.8030 O   0  0  0  0  0  1  0  0  0  0  0  0
  196.3410  168.3510  146.5380 O   0  0  0  0  0  0  0  0  0  0  0  0
  194.1730  171.1420  146.2130 F   0  0  0  0  0  0  0  0  0  0  0  0
  195.3940  169.1490  146.7680 C   0  0  0  0  0  0  0  0  0  0  0  0
  194.9460  175.2450  143.4160 O   0  0  0  0  0  0  0  0  0  0  0  0
  195.3500  176.4970  141.4370 C   0  0  0  0  0  1  0  0  0  0  0  0
  195.9350  175.9360  142.7160 C   0  0  0  0  0  2  0  0  0  0  0  0
  1  7  1  0  0  0  0
  2  6  1  0  0  0  0
  2  1  2  0  0  0  0
  4  5  2  0  0  0  0
  6 27  1  6  0  0  0
  6  4  1  0  0  0  0
  7  5  1  0  0  0  0
  7  3  2  0  0  0  0
  8  1  1  0  0  0  0
  9  8  1  0  0  0  0
 10  9  1  0  0  0  0
 12 11  1  6  0  0  0
 12 10  1  0  0  0  0
 13 15  1  1  0  0  0
 13 16  1  0  0  0  0
 13 12  1  0  0  0  0
 14 13  1  0  0  0  0
 14 16  1  0  0  0  0
 16 19  1  0  0  0  0
 16 17  1  1  0  0  0
 18 22  1  1  0  0  0
 18 23  1  0  0  0  0
 18 19  1  0  0  0  0
 19 21  1  1  0  0  0
 20 21  1  0  0  0  0
 20 25  1  1  0  0  0
 23 20  1  0  0  0  0
 24 25  1  0  0  0  0
 24 26  1  0  0  0  0
 25 26  1  0  0  0  0
 27 28  1  6  0  0  0
 28 29  1  0  0  0  0
 30 29  1  0  0  0  0
 31 30  1  0  0  0  0
 31 32  1  0  0  0  0
 32 35  1  0  0  0  0
 32 36  1  0  0  0  0
 34 36  2  0  0  0  0
 36 33  1  0  0  0  0
 37 27  1  0  0  0  0
 38 39  1  0  0  0  0
 39 37  1  0  0  0  0
M  END
>  <MODEL>
4

>  <REMARK>
 VINA RESULT:      -6.5      3.254      9.127
  Name = 
  15 active torsions:
  status: ('A' for Active; 'I' for Inactive)
    1  A    between atoms: C_3  and  C_13
    2  A    between atoms: C_5  and  C_7
    3  A    between atoms: C_5  and  C_13
    4  A    between atoms: C_7  and  C_38
    5  A    between atoms: C_8  and  C_38
    6  A    between atoms: C_9  and  C_32
    7  A    between atoms: C_14  and  C_22
    8  A    between atoms: C_14  and  O_25
    9  A    between atoms: C_14  and  C_36
   10  A    between atoms: C_15  and  N_16
   11  A    between atoms: C_15  and  C_18
   12  A    between atoms: C_17  and  C_26
   13  A    between atoms: C_18  and  N_27
   14  A    between atoms: C_19  and  O_25
   15  A    between atoms: C_22  and  N_27
                            x       y       z     vdW  Elec       q    Type
                         _______ _______ _______ _____ _____    ______ ____

>  <TORSDO>
F 15

$$$$
=
 OpenBabel11072409183D

 39 42  0  0  1  0  0  0  0  0999 V2000
  186.1330  178.1400  145.9830 C   0  0  0  0  0  0  0  0  0  0  0  0
  186.5510  178.4030  144.7460 C   0  0  0  0  0  3  0  0  0  0  0  0
  184.3450  178.2990  147.5420 O   0  0  0  0  0  0  0  0  0  0  0  0
  184.2460  179.2690  144.1660 C   0  0  0  0  0  3  0  0  0  0  0  0
  183.8500  178.9890  145.3730 N   0  0  0  0  0  0  0  0  0  0  0  0
  185.6930  179.1400  143.7490 C   0  0  2  0  0  3  0  0  0  0  0  0
  184.7500  178.4820  146.3640 C   0  0  0  0  0  0  0  0  0  0  0  0
  187.0360  177.4150  146.9240 C   0  0  0  0  0  2  0  0  0  0  0  0
  188.4800  177.5660  146.4790 C   0  0  0  0  0  2  0  0  0  0  0  0
  189.1380  176.2040  146.3390 C   0  0  0  0  0  2  0  0  0  0  0  0
  190.0560  177.3430  144.2920 C   0  0  0  0  0  1  0  0  0  0  0  0
  189.7010  176.0090  144.9280 C   0  0  1  0  0  3  0  0  0  0  0  0
  190.9010  175.0490  144.8430 C   0  0  1  0  0  0  0  0  0  0  0  0
  191.5090  174.5280  146.1410 C   0  0  0  0  0  2  0  0  0  0  0  0
  190.8610  174.0830  143.8350 O   0  0  0  0  0  1  0  0  0  0  0  0
  192.2930  175.4950  145.2630 C   0  0  2  0  0  0  0  0  0  0  0  0
  192.3930  176.7880  145.7820 O   0  0  0  0  0  1  0  0  0  0  0  0
  194.6400  174.4610  145.4030 C   0  0  2  0  0  3  0  0  0  0  0  0
  193.4950  174.9120  144.5150 C   0  0  2  0  0  3  0  0  0  0  0  0
  195.2970  175.3710  143.2950 C   0  0  2  0  0  3  0  0  0  0  0  0
  193.9980  175.8250  143.5810 O   0  0  0  0  0  0  0  0  0  0  0  0
  194.8290  175.3410  146.4720 O   0  0  0  0  0  1  0  0  0  0  0  0
  195.8150  174.5720  144.4790 C   0  0  0  0  0  2  0  0  0  0  0  0
  197.5470  176.0520  142.5220 C   0  0  0  0  0  2  0  0  0  0  0  0
  196.2110  176.5530  143.0310 C   0  0  0  0  0  3  0  0  0  0  0  0
  196.5350  176.6220  141.5520 C   0  0  0  0  0  2  0  0  0  0  0  0
  185.8700  178.5760  142.3340 C   0  0  1  0  0  3  0  0  0  0  0  0
  187.1900  177.8270  142.1280 C   0  0  0  0  0  2  0  0  0  0  0  0
  186.9730  176.3870  142.0830 N   0  0  0  0  0  2  0  0  0  0  0  0
  188.1040  175.7960  141.3850 C   0  0  0  0  0  2  0  0  0  0  0  0
  188.1360  174.2870  141.6040 C   0  0  0  0  0  2  0  0  0  0  0  0
  188.5180  173.5970  140.3790 N   0  0  0  0  0  0  0  0  0  0  0  0
  189.7000  171.8170  139.1970 O   0  0  0  0  0  0  0  0  0  0  0  0
  189.7560  171.9460  141.4820 O   0  0  0  0  0  1  0  0  0  0  0  0
  188.1290  174.1180  139.1950 F   0  0  0  0  0  0  0  0  0  0  0  0
  189.3440  172.4280  140.3940 C   0  0  0  0  0  0  0  0  0  0  0  0
  184.7780  177.7800  141.9710 O   0  0  0  0  0  0  0  0  0  0  0  0
  182.8570  178.2230  140.6440 C   0  0  0  0  0  1  0  0  0  0  0  0
  184.3680  178.2760  140.7330 C   0  0  0  0  0  2  0  0  0  0  0  0
  1  7  1  0  0  0  0
  1  8  1  0  0  0  0
  2  1  2  0  0  0  0
  4  5  2  0  0  0  0
  5  7  1  0  0  0  0
  6 27  1  6  0  0  0
  6  4  1  0  0  0  0
  6  2  1  0  0  0  0
  7  3  2  0  0  0  0
  9  8  1  0  0  0  0
 10  9  1  0  0  0  0
 12 11  1  1  0  0  0
 12 10  1  0  0  0  0
 13 15  1  6  0  0  0
 13 12  1  0  0  0  0
 13 16  1  0  0  0  0
 13 14  1  0  0  0  0
 16 17  1  1  0  0  0
 16 14  1  0  0  0  0
 18 22  1  1  0  0  0
 19 21  1  6  0  0  0
 19 16  1  0  0  0  0
 19 18  1  0  0  0  0
 20 25  1  1  0  0  0
 20 21  1  0  0  0  0
 20 23  1  0  0  0  0
 23 18  1  0  0  0  0
 24 25  1  0  0  0  0
 26 24  1  0  0  0  0
 26 25  1  0  0  0  0
 27 28  1  1  0  0  0
 29 28  1  0  0  0  0
 30 31  1  0  0  0  0
 30 29  1  0  0  0  0
 32 36  1  0  0  0  0
 32 31  1  0  0  0  0
 33 36  2  0  0  0  0
 35 32  1  0  0  0  0
 36 34  1  0  0  0  0
 37 27  1  0  0  0  0
 38 39  1  0  0  0  0
 39 37  1  0  0  0  0
M  END
>  <MODEL>
5

>  <REMARK>
 VINA RESULT:      -6.5      1.648      2.389
  Name = 
  15 active torsions:
  status: ('A' for Active; 'I' for Inactive)
    1  A    between atoms: C_3  and  C_13
    2  A    between atoms: C_5  and  C_7
    3  A    between atoms: C_5  and  C_13
    4  A    between atoms: C_7  and  C_38
    5  A    between atoms: C_8  and  C_38
    6  A    between atoms: C_9  and  C_32
    7  A    between atoms: C_14  and  C_22
    8  A    between atoms: C_14  and  O_25
    9  A    between atoms: C_14  and  C_36
   10  A    between atoms: C_15  and  N_16
   11  A    between atoms: C_15  and  C_18
   12  A    between atoms: C_17  and  C_26
   13  A    between atoms: C_18  and  N_27
   14  A    between atoms: C_19  and  O_25
   15  A    between atoms: C_22  and  N_27
                            x       y       z     vdW  Elec       q    Type
                         _______ _______ _______ _____ _____    ______ ____

>  <TORSDO>
F 15

$$$$
=
 OpenBabel11072409183D

 39 42  0  0  1  0  0  0  0  0999 V2000
  187.0630  177.2780  146.0430 C   0  0  0  0  0  0  0  0  0  0  0  0
  187.0990  177.6090  144.7530 C   0  0  0  0  0  3  0  0  0  0  0  0
  185.8320  177.3690  148.0740 O   0  0  0  0  0  0  0  0  0  0  0  0
  184.7550  178.5420  144.9420 C   0  0  0  0  0  3  0  0  0  0  0  0
  184.7310  178.1950  146.1950 N   0  0  0  0  0  0  0  0  0  0  0  0
  186.0060  178.4170  144.1010 C   0  0  2  0  0  3  0  0  0  0  0  0
  185.8700  177.6160  146.8400 C   0  0  0  0  0  0  0  0  0  0  0  0
  188.1830  176.4850  146.6280 C   0  0  0  0  0  2  0  0  0  0  0  0
  189.4130  177.3620  146.7890 C   0  0  0  0  0  2  0  0  0  0  0  0
  190.6500  176.6410  146.2810 C   0  0  0  0  0  2  0  0  0  0  0  0
  190.5530  178.1220  144.2500 C   0  0  0  0  0  1  0  0  0  0  0  0
  190.7300  176.6990  144.7530 C   0  0  1  0  0  3  0  0  0  0  0  0
  192.0070  176.0830  144.1540 C   0  0  1  0  0  0  0  0  0  0  0  0
  191.9110  175.3820  142.8020 C   0  0  0  0  0  2  0  0  0  0  0  0
  193.1870  176.8150  144.3050 O   0  0  0  0  0  1  0  0  0  0  0  0
  192.1830  174.5750  144.0650 C   0  0  2  0  0  0  0  0  0  0  0  0
  191.1000  173.8040  144.4960 O   0  0  0  0  0  1  0  0  0  0  0  0
  194.0990  173.2290  143.0100 C   0  0  2  0  0  3  0  0  0  0  0  0
  193.5940  174.0010  144.2160 C   0  0  2  0  0  3  0  0  0  0  0  0
  194.8360  172.3950  145.1230 C   0  0  2  0  0  3  0  0  0  0  0  0
  193.6820  173.1690  145.3370 O   0  0  0  0  0  0  0  0  0  0  0  0
  193.0810  172.4660  142.4350 O   0  0  0  0  0  1  0  0  0  0  0  0
  195.1000  172.3020  143.6300 C   0  0  0  0  0  2  0  0  0  0  0  0
  195.4510  170.0090  144.8980 C   0  0  0  0  0  2  0  0  0  0  0  0
  194.6400  171.0050  145.7000 C   0  0  0  0  0  3  0  0  0  0  0  0
  195.9600  170.4910  146.2390 C   0  0  0  0  0  2  0  0  0  0  0  0
  185.7320  177.9370  142.6710 C   0  0  1  0  0  3  0  0  0  0  0  0
  184.2490  177.9570  142.2860 C   0  0  0  0  0  2  0  0  0  0  0  0
  184.0790  178.2680  140.8740 N   0  0  0  0  0  2  0  0  0  0  0  0
  182.6780  178.0550  140.5440 C   0  0  0  0  0  2  0  0  0  0  0  0
  181.7850  178.5070  141.6940 C   0  0  0  0  0  2  0  0  0  0  0  0
  180.5740  179.1410  141.1860 N   0  0  0  0  0  0  0  0  0  0  0  0
  178.1620  179.1710  140.8140 O   0  0  0  0  0  0  0  0  0  0  0  0
  179.1550  177.4360  141.9300 O   0  0  0  0  0  1  0  0  0  0  0  0
  180.6900  180.3000  140.5030 F   0  0  0  0  0  0  0  0  0  0  0  0
  179.2840  178.5380  141.3340 C   0  0  0  0  0  0  0  0  0  0  0  0
  186.5010  178.6530  141.7470 O   0  0  0  0  0  0  0  0  0  0  0  0
  187.3580  176.5270  141.1170 C   0  0  0  0  0  1  0  0  0  0  0  0
  187.6810  177.9190  141.6170 C   0  0  0  0  0  2  0  0  0  0  0  0
  1  8  1  0  0  0  0
  1  7  1  0  0  0  0
  2  1  2  0  0  0  0
  4  5  2  0  0  0  0
  5  7  1  0  0  0  0
  6 27  1  6  0  0  0
  6  2  1  0  0  0  0
  6  4  1  0  0  0  0
  7  3  2  0  0  0  0
  8  9  1  0  0  0  0
 10  9  1  0  0  0  0
 12 11  1  1  0  0  0
 12 10  1  0  0  0  0
 13 15  1  1  0  0  0
 13 12  1  0  0  0  0
 14 16  1  0  0  0  0
 14 13  1  0  0  0  0
 16 13  1  0  0  0  0
 16 19  1  0  0  0  0
 16 17  1  1  0  0  0
 18 22  1  1  0  0  0
 18 23  1  0  0  0  0
 18 19  1  0  0  0  0
 19 21  1  1  0  0  0
 20 21  1  0  0  0  0
 20 25  1  6  0  0  0
 23 20  1  0  0  0  0
 24 25  1  0  0  0  0
 24 26  1  0  0  0  0
 25 26  1  0  0  0  0
 27 28  1  6  0  0  0
 29 28  1  0  0  0  0
 30 29  1  0  0  0  0
 30 31  1  0  0  0  0
 32 36  1  0  0  0  0
 32 31  1  0  0  0  0
 33 36  2  0  0  0  0
 35 32  1  0  0  0  0
 36 34  1  0  0  0  0
 37 27  1  0  0  0  0
 38 39  1  0  0  0  0
 39 37  1  0  0  0  0
M  END
>  <MODEL>
6

>  <REMARK>
 VINA RESULT:      -6.4      2.890      4.745
  Name = 
  15 active torsions:
  status: ('A' for Active; 'I' for Inactive)
    1  A    between atoms: C_3  and  C_13
    2  A    between atoms: C_5  and  C_7
    3  A    between atoms: C_5  and  C_13
    4  A    between atoms: C_7  and  C_38
    5  A    between atoms: C_8  and  C_38
    6  A    between atoms: C_9  and  C_32
    7  A    between atoms: C_14  and  C_22
    8  A    between atoms: C_14  and  O_25
    9  A    between atoms: C_14  and  C_36
   10  A    between atoms: C_15  and  N_16
   11  A    between atoms: C_15  and  C_18
   12  A    between atoms: C_17  and  C_26
   13  A    between atoms: C_18  and  N_27
   14  A    between atoms: C_19  and  O_25
   15  A    between atoms: C_22  and  N_27
                            x       y       z     vdW  Elec       q    Type
                         _______ _______ _______ _____ _____    ______ ____

>  <TORSDO>
F 15

$$$$
=
 OpenBabel11072409183D

 39 42  0  0  1  0  0  0  0  0999 V2000
  191.2830  174.3900  145.6260 C   0  0  0  0  0  0  0  0  0  0  0  0
  192.5380  174.0030  145.4050 C   0  0  0  0  0  3  0  0  0  0  0  0
  189.8610  176.0160  146.6180 O   0  0  0  0  0  0  0  0  0  0  0  0
  193.3710  176.1250  146.5020 C   0  0  0  0  0  3  0  0  0  0  0  0
  192.1390  176.4960  146.6930 N   0  0  0  0  0  0  0  0  0  0  0  0
  193.7200  174.7580  145.9580 C   0  0  2  0  0  3  0  0  0  0  0  0
  191.0350  175.6540  146.3430 C   0  0  0  0  0  0  0  0  0  0  0  0
  190.1590  173.5910  145.0580 C   0  0  0  0  0  2  0  0  0  0  0  0
  190.7010  172.3670  144.3400 C   0  0  0  0  0  2  0  0  0  0  0  0
  189.7230  171.9000  143.2740 C   0  0  0  0  0  2  0  0  0  0  0  0
  190.2100  171.9570  140.8060 C   0  0  0  0  0  1  0  0  0  0  0  0
  189.8160  172.7780  142.0230 C   0  0  1  0  0  3  0  0  0  0  0  0
  188.5490  173.5970  141.7180 C   0  0  1  0  0  0  0  0  0  0  0  0
  188.5680  174.5520  140.5280 C   0  0  0  0  0  2  0  0  0  0  0  0
  187.3260  172.9400  141.8690 O   0  0  0  0  0  1  0  0  0  0  0  0
  188.5130  175.1000  141.9490 C   0  0  2  0  0  0  0  0  0  0  0  0
  189.7060  175.6830  142.3840 O   0  0  0  0  0  1  0  0  0  0  0  0
  186.6890  176.8450  141.4770 C   0  0  2  0  0  3  0  0  0  0  0  0
  187.1890  175.7340  142.3820 C   0  0  2  0  0  3  0  0  0  0  0  0
  186.2010  177.1370  143.7960 C   0  0  2  0  0  3  0  0  0  0  0  0
  187.2740  176.2350  143.6860 O   0  0  0  0  0  0  0  0  0  0  0  0
  187.7420  177.6430  141.0260 O   0  0  0  0  0  1  0  0  0  0  0  0
  185.8430  177.6540  142.4140 C   0  0  0  0  0  2  0  0  0  0  0  0
  185.5870  179.4180  144.5330 C   0  0  0  0  0  2  0  0  0  0  0  0
  186.5910  178.2960  144.6960 C   0  0  0  0  0  3  0  0  0  0  0  0
  185.5140  178.5090  145.7410 C   0  0  0  0  0  2  0  0  0  0  0  0
  194.8870  174.7790  144.9630 C   0  0  1  0  0  3  0  0  0  0  0  0
  194.8040  175.9160  143.9390 C   0  0  0  0  0  2  0  0  0  0  0  0
  196.0500  176.6680  143.8900 N   0  0  0  0  0  2  0  0  0  0  0  0
  196.7610  176.2600  142.6890 C   0  0  0  0  0  2  0  0  0  0  0  0
  196.0560  176.7890  141.4450 C   0  0  0  0  0  2  0  0  0  0  0  0
  196.3350  175.9410  140.2930 N   0  0  0  0  0  0  0  0  0  0  0  0
  195.6920  174.2100  138.6960 O   0  0  0  0  0  0  0  0  0  0  0  0
  194.2320  174.9170  140.3130 O   0  0  0  0  0  1  0  0  0  0  0  0
  197.5650  175.9920  139.7360 F   0  0  0  0  0  0  0  0  0  0  0  0
  195.3710  175.0140  139.7840 C   0  0  0  0  0  0  0  0  0  0  0  0
  196.1150  174.7930  145.6320 O   0  0  0  0  0  0  0  0  0  0  0  0
  196.5830  172.7800  144.4580 C   0  0  0  0  0  1  0  0  0  0  0  0
  196.4430  173.4490  145.8090 C   0  0  0  0  0  2  0  0  0  0  0  0
  1  7  1  0  0  0  0
  2  1  2  0  0  0  0
  2  6  1  0  0  0  0
  4  5  2  0  0  0  0
  6 27  1  6  0  0  0
  6  4  1  0  0  0  0
  7  3  2  0  0  0  0
  7  5  1  0  0  0  0
  8  1  1  0  0  0  0
  9  8  1  0  0  0  0
 10  9  1  0  0  0  0
 12 11  1  6  0  0  0
 12 10  1  0  0  0  0
 13 15  1  1  0  0  0
 13 16  1  0  0  0  0
 13 12  1  0  0  0  0
 14 13  1  0  0  0  0
 14 16  1  0  0  0  0
 16 19  1  0  0  0  0
 16 17  1  1  0  0  0
 18 22  1  1  0  0  0
 18 19  1  0  0  0  0
 18 23  1  0  0  0  0
 19 21  1  1  0  0  0
 20 25  1  1  0  0  0
 21 20  1  0  0  0  0
 23 20  1  0  0  0  0
 24 25  1  0  0  0  0
 24 26  1  0  0  0  0
 25 26  1  0  0  0  0
 27 28  1  1  0  0  0
 27 37  1  0  0  0  0
 29 28  1  0  0  0  0
 30 29  1  0  0  0  0
 31 30  1  0  0  0  0
 32 31  1  0  0  0  0
 33 36  2  0  0  0  0
 35 32  1  0  0  0  0
 36 32  1  0  0  0  0
 36 34  1  0  0  0  0
 37 39  1  0  0  0  0
 38 39  1  0  0  0  0
M  END
>  <MODEL>
7

>  <REMARK>
 VINA RESULT:      -6.4      3.464      8.836
  Name = 
  15 active torsions:
  status: ('A' for Active; 'I' for Inactive)
    1  A    between atoms: C_3  and  C_13
    2  A    between atoms: C_5  and  C_7
    3  A    between atoms: C_5  and  C_13
    4  A    between atoms: C_7  and  C_38
    5  A    between atoms: C_8  and  C_38
    6  A    between atoms: C_9  and  C_32
    7  A    between atoms: C_14  and  C_22
    8  A    between atoms: C_14  and  O_25
    9  A    between atoms: C_14  and  C_36
   10  A    between atoms: C_15  and  N_16
   11  A    between atoms: C_15  and  C_18
   12  A    between atoms: C_17  and  C_26
   13  A    between atoms: C_18  and  N_27
   14  A    between atoms: C_19  and  O_25
   15  A    between atoms: C_22  and  N_27
                            x       y       z     vdW  Elec       q    Type
                         _______ _______ _______ _____ _____    ______ ____

>  <TORSDO>
F 15

$$$$
=
 OpenBabel11072409183D

 39 42  0  0  1  0  0  0  0  0999 V2000
  186.9580  177.1150  145.9730 C   0  0  0  0  0  0  0  0  0  0  0  0
  186.8840  177.5350  144.7110 C   0  0  0  0  0  3  0  0  0  0  0  0
  185.8780  177.0050  148.0870 O   0  0  0  0  0  0  0  0  0  0  0  0
  184.5220  178.3360  145.1310 C   0  0  0  0  0  3  0  0  0  0  0  0
  184.6050  177.9030  146.3540 N   0  0  0  0  0  0  0  0  0  0  0  0
  185.7110  178.3310  144.1980 C   0  0  2  0  0  3  0  0  0  0  0  0
  185.8140  177.3380  146.8740 C   0  0  0  0  0  0  0  0  0  0  0  0
  188.1530  176.3400  146.4180 C   0  0  0  0  0  2  0  0  0  0  0  0
  189.2970  177.2860  146.7380 C   0  0  0  0  0  2  0  0  0  0  0  0
  190.6090  176.7320  146.2080 C   0  0  0  0  0  2  0  0  0  0  0  0
  190.7110  178.3380  144.2750 C   0  0  0  0  0  1  0  0  0  0  0  0
  190.6900  176.8750  144.6860 C   0  0  1  0  0  3  0  0  0  0  0  0
  191.8670  176.1280  144.0330 C   0  0  1  0  0  0  0  0  0  0  0  0
  191.6670  175.5280  142.6450 C   0  0  0  0  0  2  0  0  0  0  0  0
  193.1370  176.6830  144.2080 O   0  0  0  0  0  1  0  0  0  0  0  0
  191.8350  174.6180  143.8550 C   0  0  2  0  0  0  0  0  0  0  0  0
  190.6600  173.9770  144.2570 O   0  0  0  0  0  1  0  0  0  0  0  0
  193.4780  173.3070  145.3320 C   0  0  2  0  0  3  0  0  0  0  0  0
  193.1560  173.8510  143.9510 C   0  0  2  0  0  3  0  0  0  0  0  0
  195.3710  174.0150  144.0600 C   0  0  2  0  0  3  0  0  0  0  0  0
  194.2300  174.6430  143.5310 O   0  0  0  0  0  0  0  0  0  0  0  0
  193.1090  174.2120  146.3300 O   0  0  0  0  0  1  0  0  0  0  0  0
  194.9740  173.2220  145.2930 C   0  0  0  0  0  2  0  0  0  0  0  0
  197.7960  174.4790  144.2340 C   0  0  0  0  0  2  0  0  0  0  0  0
  196.4100  175.0580  144.4300 C   0  0  0  0  0  3  0  0  0  0  0  0
  197.2190  175.4240  143.2020 C   0  0  0  0  0  2  0  0  0  0  0  0
  185.3540  177.9380  142.7590 C   0  0  1  0  0  3  0  0  0  0  0  0
  183.8670  178.1000  142.4260 C   0  0  0  0  0  2  0  0  0  0  0  0
  183.6720  178.3280  141.0010 N   0  0  0  0  0  2  0  0  0  0  0  0
  182.2730  178.0630  140.7030 C   0  0  0  0  0  2  0  0  0  0  0  0
  181.3690  178.8250  141.6650 C   0  0  0  0  0  2  0  0  0  0  0  0
  179.9670  178.6370  141.3130 N   0  0  0  0  0  0  0  0  0  0  0  0
  177.8520  179.4560  140.4090 O   0  0  0  0  0  0  0  0  0  0  0  0
  179.7110  180.7930  140.4410 O   0  0  0  0  0  1  0  0  0  0  0  0
  179.3730  177.4660  141.6280 F   0  0  0  0  0  0  0  0  0  0  0  0
  179.1920  179.6770  140.7070 C   0  0  0  0  0  0  0  0  0  0  0  0
  186.1530  178.6240  141.8390 O   0  0  0  0  0  0  0  0  0  0  0  0
  188.4030  177.9440  141.4830 C   0  0  0  0  0  1  0  0  0  0  0  0
  186.9390  177.6390  141.2410 C   0  0  0  0  0  2  0  0  0  0  0  0
  1  8  1  0  0  0  0
  1  7  1  0  0  0  0
  2  1  2  0  0  0  0
  4  5  2  0  0  0  0
  5  7  1  0  0  0  0
  6 27  1  6  0  0  0
  6  2  1  0  0  0  0
  6  4  1  0  0  0  0
  7  3  2  0  0  0  0
  8  9  1  0  0  0  0
 10  9  1  0  0  0  0
 12 11  1  1  0  0  0
 12 10  1  0  0  0  0
 13 15  1  1  0  0  0
 13 12  1  0  0  0  0
 14 16  1  0  0  0  0
 14 13  1  0  0  0  0
 16 19  1  0  0  0  0
 16 13  1  0  0  0  0
 16 17  1  1  0  0  0
 18 22  1  1  0  0  0
 19 21  1  1  0  0  0
 19 18  1  0  0  0  0
 20 25  1  1  0  0  0
 20 23  1  0  0  0  0
 21 20  1  0  0  0  0
 23 18  1  0  0  0  0
 24 25  1  0  0  0  0
 26 24  1  0  0  0  0
 26 25  1  0  0  0  0
 27 28  1  6  0  0  0
 29 28  1  0  0  0  0
 30 29  1  0  0  0  0
 30 31  1  0  0  0  0
 32 35  1  0  0  0  0
 32 31  1  0  0  0  0
 33 36  2  0  0  0  0
 34 36  1  0  0  0  0
 36 32  1  0  0  0  0
 37 27  1  0  0  0  0
 39 38  1  0  0  0  0
 39 37  1  0  0  0  0
M  END
>  <MODEL>
8

>  <REMARK>
 VINA RESULT:      -6.4      2.970      5.040
  Name = 
  15 active torsions:
  status: ('A' for Active; 'I' for Inactive)
    1  A    between atoms: C_3  and  C_13
    2  A    between atoms: C_5  and  C_7
    3  A    between atoms: C_5  and  C_13
    4  A    between atoms: C_7  and  C_38
    5  A    between atoms: C_8  and  C_38
    6  A    between atoms: C_9  and  C_32
    7  A    between atoms: C_14  and  C_22
    8  A    between atoms: C_14  and  O_25
    9  A    between atoms: C_14  and  C_36
   10  A    between atoms: C_15  and  N_16
   11  A    between atoms: C_15  and  C_18
   12  A    between atoms: C_17  and  C_26
   13  A    between atoms: C_18  and  N_27
   14  A    between atoms: C_19  and  O_25
   15  A    between atoms: C_22  and  N_27
                            x       y       z     vdW  Elec       q    Type
                         _______ _______ _______ _____ _____    ______ ____

>  <TORSDO>
F 15

$$$$
=
 OpenBabel11072409183D

 39 42  0  0  1  0  0  0  0  0999 V2000
  186.1640  177.6320  145.9270 C   0  0  0  0  0  0  0  0  0  0  0  0
  186.2490  177.6220  144.5980 C   0  0  0  0  0  3  0  0  0  0  0  0
  185.0200  178.4840  147.8290 O   0  0  0  0  0  0  0  0  0  0  0  0
  184.1730  179.0610  144.4680 C   0  0  0  0  0  3  0  0  0  0  0  0
  184.0950  179.0450  145.7660 N   0  0  0  0  0  0  0  0  0  0  0  0
  185.3500  178.4640  143.7300 C   0  0  2  0  0  3  0  0  0  0  0  0
  185.0900  178.4070  146.5740 C   0  0  0  0  0  0  0  0  0  0  0  0
  187.0920  176.7810  146.7280 C   0  0  0  0  0  2  0  0  0  0  0  0
  188.4150  177.5000  146.9290 C   0  0  0  0  0  2  0  0  0  0  0  0
  189.2710  177.3980  145.6780 C   0  0  0  0  0  2  0  0  0  0  0  0
  190.8580  176.4910  147.4050 C   0  0  0  0  0  1  0  0  0  0  0  0
  190.5050  176.5270  145.9280 C   0  0  1  0  0  3  0  0  0  0  0  0
  190.4020  175.0940  145.3750 C   0  0  1  0  0  0  0  0  0  0  0  0
  191.6910  174.3270  145.0970 C   0  0  0  0  0  2  0  0  0  0  0  0
  189.3930  174.2880  145.9080 O   0  0  0  0  0  1  0  0  0  0  0  0
  190.8030  174.7750  143.9430 C   0  0  2  0  0  0  0  0  0  0  0  0
  191.3230  175.8380  143.2000 O   0  0  0  0  0  1  0  0  0  0  0  0
  190.9060  172.5630  142.6430 C   0  0  2  0  0  3  0  0  0  0  0  0
  190.0380  173.6730  143.2070 C   0  0  2  0  0  3  0  0  0  0  0  0
  188.9860  173.1070  141.3310 C   0  0  2  0  0  3  0  0  0  0  0  0
  189.2720  174.2040  142.1620 O   0  0  0  0  0  0  0  0  0  0  0  0
  192.0980  173.0690  142.1200 O   0  0  0  0  0  1  0  0  0  0  0  0
  190.0660  172.0540  141.5110 C   0  0  0  0  0  2  0  0  0  0  0  0
  189.7080  172.5710  139.0250 C   0  0  0  0  0  2  0  0  0  0  0  0
  188.9410  173.5560  139.8810 C   0  0  0  0  0  3  0  0  0  0  0  0
  188.1960  172.5260  139.0560 C   0  0  0  0  0  2  0  0  0  0  0  0
  184.9510  177.7210  142.4490 C   0  0  1  0  0  3  0  0  0  0  0  0
  184.3780  178.6330  141.3590 C   0  0  0  0  0  2  0  0  0  0  0  0
  183.2750  177.9860  140.6630 N   0  0  0  0  0  2  0  0  0  0  0  0
  182.0580  178.2750  141.4060 C   0  0  0  0  0  2  0  0  0  0  0  0
  181.0310  178.9520  140.5060 C   0  0  0  0  0  2  0  0  0  0  0  0
  179.8790  179.3950  141.2800 N   0  0  0  0  0  0  0  0  0  0  0  0
  177.6920  180.4670  141.4530 O   0  0  0  0  0  1  0  0  0  0  0  0
  178.7290  180.2360  139.4250 O   0  0  0  0  0  0  0  0  0  0  0  0
  179.9050  179.2420  142.6220 F   0  0  0  0  0  0  0  0  0  0  0  0
  178.7580  180.0430  140.6690 C   0  0  0  0  0  0  0  0  0  0  0  0
  186.0180  176.9610  141.9580 O   0  0  0  0  0  0  0  0  0  0  0  0
  188.1360  177.9540  141.5380 C   0  0  0  0  0  1  0  0  0  0  0  0
  186.6970  177.8140  141.0880 C   0  0  0  0  0  2  0  0  0  0  0  0
  1  7  1  0  0  0  0
  1  8  1  0  0  0  0
  2  1  2  0  0  0  0
  4  5  2  0  0  0  0
  5  7  1  0  0  0  0
  6 27  1  6  0  0  0
  6  4  1  0  0  0  0
  6  2  1  0  0  0  0
  7  3  2  0  0  0  0
  8  9  1  0  0  0  0
 10 12  1  0  0  0  0
 10  9  1  0  0  0  0
 12 11  1  1  0  0  0
 13 15  1  1  0  0  0
 13 12  1  0  0  0  0
 14 13  1  0  0  0  0
 16 17  1  6  0  0  0
 16 14  1  0  0  0  0
 16 13  1  0  0  0  0
 18 22  1  6  0  0  0
 18 19  1  0  0  0  0
 19 21  1  6  0  0  0
 19 16  1  0  0  0  0
 20 25  1  6  0  0  0
 20 23  1  0  0  0  0
 20 21  1  0  0  0  0
 23 18  1  0  0  0  0
 24 26  1  0  0  0  0
 24 25  1  0  0  0  0
 26 25  1  0  0  0  0
 27 28  1  6  0  0  0
 29 28  1  0  0  0  0
 29 30  1  0  0  0  0
 31 32  1  0  0  0  0
 31 30  1  0  0  0  0
 32 35  1  0  0  0  0
 34 36  2  0  0  0  0
 36 32  1  0  0  0  0
 36 33  1  0  0  0  0
 37 27  1  0  0  0  0
 39 38  1  0  0  0  0
 39 37  1  0  0  0  0
M  END
>  <MODEL>
9

>  <REMARK>
 VINA RESULT:      -6.4      3.365      6.190
  Name = 
  15 active torsions:
  status: ('A' for Active; 'I' for Inactive)
    1  A    between atoms: C_3  and  C_13
    2  A    between atoms: C_5  and  C_7
    3  A    between atoms: C_5  and  C_13
    4  A    between atoms: C_7  and  C_38
    5  A    between atoms: C_8  and  C_38
    6  A    between atoms: C_9  and  C_32
    7  A    between atoms: C_14  and  C_22
    8  A    between atoms: C_14  and  O_25
    9  A    between atoms: C_14  and  C_36
   10  A    between atoms: C_15  and  N_16
   11  A    between atoms: C_15  and  C_18
   12  A    between atoms: C_17  and  C_26
   13  A    between atoms: C_18  and  N_27
   14  A    between atoms: C_19  and  O_25
   15  A    between atoms: C_22  and  N_27
                            x       y       z     vdW  Elec       q    Type
                         _______ _______ _______ _____ _____    ______ ____

>  <TORSDO>
F 15

$$$$
