=
 OpenBabel11062422313D

 43 47  0  0  1  0  0  0  0  0999 V2000
  189.2480  171.9090  143.1920 C   0  0  1  0  0  3  0  0  0  0  0  0
  190.5600  172.8900  141.2100 N   0  0  0  0  0  0  0  0  0  0  0  0
  189.5930  173.7690  141.7410 C   0  0  0  0  0  0  0  0  0  0  0  0
  188.8160  173.2420  142.7960 N   0  0  0  0  0  2  0  0  0  0  0  0
  189.4290  174.9420  141.3090 O   0  0  0  0  0  0  0  0  0  0  0  0
  190.4430  171.2820  141.9350 S   0  0  0  0  0  0  0  0  0  0  0  0
  189.9090  171.9840  144.5550 C   0  0  0  0  0  2  0  0  0  0  0  0
  192.0090  174.6740  145.6280 C   0  0  0  0  0  0  0  0  0  0  0  0
  190.9120  174.0210  145.3660 C   0  0  0  0  0  0  0  0  0  0  0  0
  193.3950  176.2670  146.9900 C   0  0  0  0  0  3  0  0  0  0  0  0
  193.2310  174.3430  144.8840 C   0  0  0  0  0  3  0  0  0  0  0  0
  194.3910  174.9150  145.2070 C   0  0  0  0  0  3  0  0  0  0  0  0
  192.0050  175.7890  146.6430 C   0  0  1  0  0  3  0  0  0  0  0  0
  194.4800  175.8790  146.3180 C   0  0  0  0  0  3  0  0  0  0  0  0
  189.8220  173.3650  145.0950 C   0  0  0  0  0  3  0  0  0  0  0  0
  191.2140  176.9080  146.1500 N   0  0  0  0  0  2  0  0  0  0  0  0
  189.9770  178.0520  147.7620 O   0  0  0  0  0  1  0  0  0  0  0  0
  189.9750  176.9470  146.9140 C   0  0  1  0  0  3  0  0  0  0  0  0
  185.0100  177.0250  146.2570 C   0  0  0  0  0  1  0  0  0  0  0  0
  188.7840  177.0020  146.0100 C   0  0  0  0  0  0  0  0  0  0  0  0
  185.2330  177.2580  143.1670 Cl  0  0  0  0  0  0  0  0  0  0  0  0
  187.4820  176.9670  146.5280 C   0  0  0  0  0  3  0  0  0  0  0  0
  186.5820  177.1550  144.2870 C   0  0  0  0  0  0  0  0  0  0  0  0
  187.8820  177.1870  143.7740 C   0  0  0  0  0  3  0  0  0  0  0  0
  188.9780  177.1080  144.6320 C   0  0  0  0  0  3  0  0  0  0  0  0
  186.3810  177.0360  145.6710 C   0  0  0  0  0  0  0  0  0  0  0  0
  191.6480  173.3260  140.3400 C   0  0  2  0  0  3  0  0  0  0  0  0
  189.7080  172.5560  136.5580 C   0  0  0  0  0  2  0  0  0  0  0  0
  192.0440  172.2260  139.4720 N   0  0  0  0  0  2  0  0  0  0  0  0
  190.4140  172.7240  137.8290 N   0  0  0  0  0  0  0  0  0  0  0  0
  191.2400  169.3370  135.6020 O   0  0  0  0  0  1  0  0  0  0  0  0
  189.7250  171.1050  136.1040 C   0  0  0  0  0  2  0  0  0  0  0  0
  191.3790  171.9490  138.2390 C   0  0  0  0  0  0  0  0  0  0  0  0
  191.1720  170.6410  136.0870 C   0  0  1  0  0  3  0  0  0  0  0  0
  191.7370  170.6820  137.5050 C   0  0  0  0  0  2  0  0  0  0  0  0
  193.6540  174.8400  140.3740 C   0  0  0  0  0  2  0  0  0  0  0  0
  192.8500  173.8240  141.1410 C   0  0  2  0  0  3  0  0  0  0  0  0
  195.0860  174.6150  140.8290 C   0  0  2  0  0  3  0  0  0  0  0  0
  195.1680  173.3030  141.4670 N   0  0  0  0  0  2  0  0  0  0  0  0
  193.8370  172.7080  141.3840 C   0  0  0  0  0  2  0  0  0  0  0  0
  196.7570  175.2230  142.5990 C   0  0  0  0  0  1  0  0  0  0  0  0
  195.5570  175.6960  141.8040 C   0  0  1  0  0  3  0  0  0  0  0  0
  195.8670  176.8790  141.1320 O   0  0  0  0  0  1  0  0  0  0  0  0
  1  7  1  1  0  0  0
  2  3  1  0  0  0  0
  2  6  1  0  0  0  0
  3  4  1  0  0  0  0
  4  1  1  0  0  0  0
  5  3  2  0  0  0  0
  6  1  1  0  0  0  0
  7 15  1  0  0  0  0
  8 13  1  0  0  0  0
  9  8  2  0  0  0  0
 11 12  2  0  0  0  0
 11  8  1  0  0  0  0
 12 14  1  0  0  0  0
 13 16  1  6  0  0  0
 13 10  1  0  0  0  0
 14 10  2  0  0  0  0
 15  9  2  0  0  0  0
 16 18  1  0  0  0  0
 18 17  1  1  0  0  0
 20 22  1  0  0  0  0
 20 18  1  0  0  0  0
 21 23  1  0  0  0  0
 23 26  1  0  0  0  0
 24 23  2  0  0  0  0
 24 25  1  0  0  0  0
 25 20  2  0  0  0  0
 26 19  1  0  0  0  0
 26 22  2  0  0  0  0
 27 29  1  1  0  0  0
 27  2  1  0  0  0  0
 28 30  1  0  0  0  0
 30 33  2  0  0  0  0
 32 28  1  0  0  0  0
 33 29  1  0  0  0  0
 34 31  1  1  0  0  0
 34 32  1  0  0  0  0
 34 35  1  0  0  0  0
 35 33  1  0  0  0  0
 36 38  1  0  0  0  0
 36 37  1  0  0  0  0
 37 27  1  6  0  0  0
 37 40  1  0  0  0  0
 38 39  1  0  0  0  0
 38 42  1  1  0  0  0
 40 39  1  0  0  0  0
 42 41  1  6  0  0  0
 43 42  1  0  0  0  0
M  END
>  <MODEL>
1

>  <REMARK>
 VINA RESULT:      -7.7      0.000      0.000
  Name = 
  9 active torsions:
  status: ('A' for Active; 'I' for Inactive)
    1  A    between atoms: C_1  and  C_7
    2  A    between atoms: C_7  and  C_43
    3  A    between atoms: N_8  and  C_10
    4  A    between atoms: C_10  and  N_17
    5  A    between atoms: C_10  and  C_19
    6  A    between atoms: C_13  and  C_29
    7  A    between atoms: C_29  and  N_30
    8  A    between atoms: N_30  and  C_38
    9  A    between atoms: C_31  and  C_37
                            x       y       z     vdW  Elec       q    Type
                         _______ _______ _______ _____ _____    ______ ____

>  <TORSDO>
F 9

$$$$
=
 OpenBabel11062422313D

 43 47  0  0  1  0  0  0  0  0999 V2000
  188.7610  173.9180  141.1070 C   0  0  1  0  0  3  0  0  0  0  0  0
  191.2950  173.7920  140.6910 N   0  0  0  0  0  0  0  0  0  0  0  0
  190.5210  173.6720  139.5180 C   0  0  0  0  0  0  0  0  0  0  0  0
  189.1230  173.6820  139.7160 N   0  0  0  0  0  2  0  0  0  0  0  0
  191.0340  173.5620  138.3720 O   0  0  0  0  0  0  0  0  0  0  0  0
  190.2830  173.7860  142.1400 S   0  0  0  0  0  0  0  0  0  0  0  0
  188.1560  175.3030  141.2360 C   0  0  0  0  0  2  0  0  0  0  0  0
  186.0960  177.3350  143.3410 C   0  0  0  0  0  0  0  0  0  0  0  0
  187.0350  176.4940  143.0080 C   0  0  0  0  0  0  0  0  0  0  0  0
  185.1580  179.2090  144.7270 C   0  0  0  0  0  3  0  0  0  0  0  0
  184.9160  177.4660  142.4770 C   0  0  0  0  0  3  0  0  0  0  0  0
  183.9960  178.3940  142.7310 C   0  0  0  0  0  3  0  0  0  0  0  0
  186.2010  178.1210  144.6230 C   0  0  1  0  0  3  0  0  0  0  0  0
  184.1410  179.3170  143.8710 C   0  0  0  0  0  3  0  0  0  0  0  0
  187.9640  175.6500  142.6680 C   0  0  0  0  0  3  0  0  0  0  0  0
  186.0880  177.2260  145.7660 N   0  0  0  0  0  2  0  0  0  0  0  0
  186.7590  177.3150  147.9980 O   0  0  0  0  0  1  0  0  0  0  0  0
  187.1710  177.5420  146.6870 C   0  0  1  0  0  3  0  0  0  0  0  0
  191.6760  177.0710  144.5510 C   0  0  0  0  0  1  0  0  0  0  0  0
  188.3890  176.7270  146.3890 C   0  0  0  0  0  0  0  0  0  0  0  0
  192.0870  174.1800  145.6130 Cl  0  0  0  0  0  0  0  0  0  0  0  0
  189.4340  177.2470  145.6110 C   0  0  0  0  0  3  0  0  0  0  0  0
  190.6740  175.1840  145.8930 C   0  0  0  0  0  0  0  0  0  0  0  0
  189.6290  174.6680  146.6650 C   0  0  0  0  0  3  0  0  0  0  0  0
  188.4900  175.4350  146.9090 C   0  0  0  0  0  3  0  0  0  0  0  0
  190.5720  176.4770  145.3560 C   0  0  0  0  0  0  0  0  0  0  0  0
  192.7220  174.1030  140.6810 C   0  0  2  0  0  3  0  0  0  0  0  0
  195.6710  174.8470  137.6140 C   0  0  0  0  0  2  0  0  0  0  0  0
  193.4470  173.0260  140.0210 N   0  0  0  0  0  2  0  0  0  0  0  0
  194.6770  174.4930  138.6270 N   0  0  0  0  0  0  0  0  0  0  0  0
  196.3850  171.4180  136.4500 O   0  0  0  0  0  1  0  0  0  0  0  0
  195.8410  173.7320  136.5940 C   0  0  0  0  0  2  0  0  0  0  0  0
  194.3950  173.2700  138.9810 C   0  0  0  0  0  0  0  0  0  0  0  0
  196.1450  172.4520  137.3530 C   0  0  1  0  0  3  0  0  0  0  0  0
  194.9530  172.0860  138.2330 C   0  0  0  0  0  2  0  0  0  0  0  0
  194.3410  175.3690  142.1270 C   0  0  0  0  0  2  0  0  0  0  0  0
  193.2660  174.3160  142.0920 C   0  0  2  0  0  3  0  0  0  0  0  0
  195.2820  174.9170  143.2300 C   0  0  2  0  0  3  0  0  0  0  0  0
  195.0200  173.5070  143.5130 N   0  0  0  0  0  2  0  0  0  0  0  0
  193.9710  173.0790  142.5920 C   0  0  0  0  0  2  0  0  0  0  0  0
  195.5990  174.9750  145.7190 C   0  0  0  0  0  1  0  0  0  0  0  0
  195.1120  175.7420  144.5070 C   0  0  1  0  0  3  0  0  0  0  0  0
  195.7870  176.9600  144.4120 O   0  0  0  0  0  1  0  0  0  0  0  0
  1  7  1  6  0  0  0
  1  6  1  0  0  0  0
  2  6  1  0  0  0  0
  3  4  1  0  0  0  0
  3  2  1  0  0  0  0
  4  1  1  0  0  0  0
  5  3  2  0  0  0  0
  7 15  1  0  0  0  0
  8 13  1  0  0  0  0
  9  8  2  0  0  0  0
 11 12  2  0  0  0  0
 11  8  1  0  0  0  0
 12 14  1  0  0  0  0
 13 10  1  0  0  0  0
 13 16  1  1  0  0  0
 14 10  2  0  0  0  0
 15  9  2  0  0  0  0
 16 18  1  0  0  0  0
 18 17  1  1  0  0  0
 19 26  1  0  0  0  0
 20 18  1  0  0  0  0
 20 25  1  0  0  0  0
 21 23  1  0  0  0  0
 22 20  2  0  0  0  0
 23 24  1  0  0  0  0
 24 25  2  0  0  0  0
 26 22  1  0  0  0  0
 26 23  2  0  0  0  0
 27 29  1  1  0  0  0
 27  2  1  0  0  0  0
 28 30  1  0  0  0  0
 30 33  2  0  0  0  0
 32 34  1  0  0  0  0
 32 28  1  0  0  0  0
 33 29  1  0  0  0  0
 34 31  1  6  0  0  0
 34 35  1  0  0  0  0
 35 33  1  0  0  0  0
 36 38  1  0  0  0  0
 37 27  1  6  0  0  0
 37 36  1  0  0  0  0
 37 40  1  0  0  0  0
 38 39  1  0  0  0  0
 38 42  1  1  0  0  0
 40 39  1  0  0  0  0
 42 41  1  1  0  0  0
 43 42  1  0  0  0  0
M  END
>  <MODEL>
2

>  <REMARK>
 VINA RESULT:      -7.5      2.768      5.040
  Name = 
  9 active torsions:
  status: ('A' for Active; 'I' for Inactive)
    1  A    between atoms: C_1  and  C_7
    2  A    between atoms: C_7  and  C_43
    3  A    between atoms: N_8  and  C_10
    4  A    between atoms: C_10  and  N_17
    5  A    between atoms: C_10  and  C_19
    6  A    between atoms: C_13  and  C_29
    7  A    between atoms: C_29  and  N_30
    8  A    between atoms: N_30  and  C_38
    9  A    between atoms: C_31  and  C_37
                            x       y       z     vdW  Elec       q    Type
                         _______ _______ _______ _____ _____    ______ ____

>  <TORSDO>
F 9

$$$$
=
 OpenBabel11062422313D

 43 47  0  0  1  0  0  0  0  0999 V2000
  189.8030  173.1210  141.9200 C   0  0  1  0  0  3  0  0  0  0  0  0
  192.2890  172.5120  142.1590 N   0  0  0  0  0  0  0  0  0  0  0  0
  191.8110  172.4340  140.8340 C   0  0  0  0  0  0  0  0  0  0  0  0
  190.4350  172.7100  140.6740 N   0  0  0  0  0  2  0  0  0  0  0  0
  192.5530  172.1400  139.8590 O   0  0  0  0  0  0  0  0  0  0  0  0
  190.9780  172.8070  143.3070 S   0  0  0  0  0  0  0  0  0  0  0  0
  189.4640  174.5970  141.8420 C   0  0  0  0  0  2  0  0  0  0  0  0
  187.0170  176.8660  143.1320 C   0  0  0  0  0  0  0  0  0  0  0  0
  187.9600  175.9680  143.1370 C   0  0  0  0  0  0  0  0  0  0  0  0
  185.8370  178.8790  144.0660 C   0  0  0  0  0  3  0  0  0  0  0  0
  186.1380  176.9720  141.9600 C   0  0  0  0  0  3  0  0  0  0  0  0
  185.2390  177.9510  141.8790 C   0  0  0  0  0  3  0  0  0  0  0  0
  186.8020  177.7480  144.3350 C   0  0  1  0  0  3  0  0  0  0  0  0
  185.1110  178.9560  142.9500 C   0  0  0  0  0  3  0  0  0  0  0  0
  188.8960  175.0640  143.1330 C   0  0  0  0  0  3  0  0  0  0  0  0
  186.3190  176.9520  145.4560 N   0  0  0  0  0  2  0  0  0  0  0  0
  186.4840  176.8830  147.7800 O   0  0  0  0  0  1  0  0  0  0  0  0
  187.1400  177.2710  146.6140 C   0  0  1  0  0  3  0  0  0  0  0  0
  191.9760  177.3360  145.3130 C   0  0  0  0  0  1  0  0  0  0  0  0
  188.4740  176.5980  146.5330 C   0  0  0  0  0  0  0  0  0  0  0  0
  192.5050  174.4790  146.4140 Cl  0  0  0  0  0  0  0  0  0  0  0  0
  189.5760  177.2450  145.9580 C   0  0  0  0  0  3  0  0  0  0  0  0
  190.9640  175.3190  146.4430 C   0  0  0  0  0  0  0  0  0  0  0  0
  189.8620  174.6760  147.0140 C   0  0  0  0  0  3  0  0  0  0  0  0
  188.6210  175.3110  147.0560 C   0  0  0  0  0  3  0  0  0  0  0  0
  190.8180  176.6080  145.9050 C   0  0  0  0  0  0  0  0  0  0  0  0
  193.7090  172.5620  142.4970 C   0  0  2  0  0  3  0  0  0  0  0  0
  195.6490  168.9280  143.7980 C   0  0  0  0  0  2  0  0  0  0  0  0
  193.8830  172.2340  143.9050 N   0  0  0  0  0  2  0  0  0  0  0  0
  194.9610  170.1740  143.4570 N   0  0  0  0  0  0  0  0  0  0  0  0
  195.0360  169.0440  147.4360 O   0  0  0  0  0  1  0  0  0  0  0  0
  195.1940  168.3980  145.1490 C   0  0  0  0  0  2  0  0  0  0  0  0
  194.4910  171.0150  144.3350 C   0  0  0  0  0  0  0  0  0  0  0  0
  195.3690  169.5120  146.1660 C   0  0  1  0  0  3  0  0  0  0  0  0
  194.4560  170.6810  145.8050 C   0  0  0  0  0  2  0  0  0  0  0  0
  195.7580  174.0120  142.6220 C   0  0  0  0  0  2  0  0  0  0  0  0
  194.3160  173.9310  142.1970 C   0  0  2  0  0  3  0  0  0  0  0  0
  195.9510  175.4590  143.0410 C   0  0  2  0  0  3  0  0  0  0  0  0
  194.6360  176.0580  143.2580 N   0  0  0  0  0  2  0  0  0  0  0  0
  193.6480  175.0090  143.0160 C   0  0  0  0  0  2  0  0  0  0  0  0
  197.5730  175.3580  141.1290 C   0  0  0  0  0  1  0  0  0  0  0  0
  196.7210  176.2650  141.9930 C   0  0  1  0  0  3  0  0  0  0  0  0
  195.8520  177.0070  141.1920 O   0  0  0  0  0  1  0  0  0  0  0  0
  1  7  1  6  0  0  0
  1  6  1  0  0  0  0
  2 27  1  0  0  0  0
  2  6  1  0  0  0  0
  3  2  1  0  0  0  0
  4  3  1  0  0  0  0
  4  1  1  0  0  0  0
  5  3  2  0  0  0  0
  7 15  1  0  0  0  0
  8  9  2  0  0  0  0
  8 13  1  0  0  0  0
 10 13  1  0  0  0  0
 11  8  1  0  0  0  0
 12 11  2  0  0  0  0
 12 14  1  0  0  0  0
 13 16  1  1  0  0  0
 14 10  2  0  0  0  0
 15  9  2  0  0  0  0
 16 18  1  0  0  0  0
 18 17  1  1  0  0  0
 19 26  1  0  0  0  0
 20 18  1  0  0  0  0
 20 25  1  0  0  0  0
 21 23  1  0  0  0  0
 22 20  2  0  0  0  0
 23 24  1  0  0  0  0
 24 25  2  0  0  0  0
 26 22  1  0  0  0  0
 26 23  2  0  0  0  0
 27 29  1  1  0  0  0
 28 32  1  0  0  0  0
 29 33  1  0  0  0  0
 30 28  1  0  0  0  0
 30 33  2  0  0  0  0
 32 34  1  0  0  0  0
 33 35  1  0  0  0  0
 34 31  1  1  0  0  0
 35 34  1  0  0  0  0
 36 38  1  0  0  0  0
 37 27  1  1  0  0  0
 37 36  1  0  0  0  0
 37 40  1  0  0  0  0
 38 42  1  6  0  0  0
 38 39  1  0  0  0  0
 40 39  1  0  0  0  0
 42 41  1  6  0  0  0
 43 42  1  0  0  0  0
M  END
>  <MODEL>
3

>  <REMARK>
 VINA RESULT:      -7.5      3.255      5.930
  Name = 
  9 active torsions:
  status: ('A' for Active; 'I' for Inactive)
    1  A    between atoms: C_1  and  C_7
    2  A    between atoms: C_7  and  C_43
    3  A    between atoms: N_8  and  C_10
    4  A    between atoms: C_10  and  N_17
    5  A    between atoms: C_10  and  C_19
    6  A    between atoms: C_13  and  C_29
    7  A    between atoms: C_29  and  N_30
    8  A    between atoms: N_30  and  C_38
    9  A    between atoms: C_31  and  C_37
                            x       y       z     vdW  Elec       q    Type
                         _______ _______ _______ _____ _____    ______ ____

>  <TORSDO>
F 9

$$$$
=
 OpenBabel11062422313D

 43 47  0  0  1  0  0  0  0  0999 V2000
  189.0650  173.1430  140.2560 C   0  0  1  0  0  3  0  0  0  0  0  0
  188.8200  174.2710  142.5530 N   0  0  0  0  0  0  0  0  0  0  0  0
  188.9760  172.8700  142.6230 C   0  0  0  0  0  0  0  0  0  0  0  0
  189.0590  172.2120  141.3760 N   0  0  0  0  0  2  0  0  0  0  0  0
  189.0360  172.2460  143.7160 O   0  0  0  0  0  0  0  0  0  0  0  0
  188.6300  174.8210  140.8850 S   0  0  0  0  0  0  0  0  0  0  0  0
  190.4470  173.1580  139.6300 C   0  0  0  0  0  2  0  0  0  0  0  0
  193.7650  174.4960  139.6840 C   0  0  0  0  0  0  0  0  0  0  0  0
  192.6000  174.1210  140.1320 C   0  0  0  0  0  0  0  0  0  0  0  0
  196.2520  174.7910  139.8870 C   0  0  0  0  0  3  0  0  0  0  0  0
  193.8950  174.8860  138.2750 C   0  0  0  0  0  3  0  0  0  0  0  0
  195.0920  175.1660  137.7620 C   0  0  0  0  0  3  0  0  0  0  0  0
  194.9470  174.5760  140.6160 C   0  0  1  0  0  3  0  0  0  0  0  0
  196.3120  175.0800  138.5860 C   0  0  0  0  0  3  0  0  0  0  0  0
  191.4320  173.7530  140.5700 C   0  0  0  0  0  3  0  0  0  0  0  0
  194.7470  175.6460  141.5830 N   0  0  0  0  0  2  0  0  0  0  0  0
  195.7780  176.6250  143.4310 O   0  0  0  0  0  1  0  0  0  0  0  0
  195.7310  175.4780  142.6430 C   0  0  1  0  0  3  0  0  0  0  0  0
  192.4530  172.0900  144.3320 C   0  0  0  0  0  1  0  0  0  0  0  0
  195.4120  174.2900  143.4930 C   0  0  0  0  0  0  0  0  0  0  0  0
  194.5760  170.6190  146.0590 Cl  0  0  0  0  0  0  0  0  0  0  0  0
  194.1140  173.7630  143.5400 C   0  0  0  0  0  3  0  0  0  0  0  0
  194.8670  172.0350  145.0640 C   0  0  0  0  0  0  0  0  0  0  0  0
  196.1600  172.5660  145.0170 C   0  0  0  0  0  3  0  0  0  0  0  0
  196.4300  173.6900  144.2370 C   0  0  0  0  0  3  0  0  0  0  0  0
  193.8370  172.6420  144.3280 C   0  0  0  0  0  0  0  0  0  0  0  0
  189.0150  175.1560  143.6980 C   0  0  2  0  0  3  0  0  0  0  0  0
  186.0750  177.0170  146.2590 C   0  0  0  0  0  2  0  0  0  0  0  0
  188.4400  176.4620  143.4030 N   0  0  0  0  0  2  0  0  0  0  0  0
  187.0500  176.4620  145.3190 N   0  0  0  0  0  0  0  0  0  0  0  0
  185.0990  179.9430  144.2310 O   0  0  0  0  0  1  0  0  0  0  0  0
  185.1140  177.9660  145.5590 C   0  0  0  0  0  2  0  0  0  0  0  0
  187.4400  177.0610  144.2290 C   0  0  0  0  0  0  0  0  0  0  0  0
  185.9420  179.0060  144.8240 C   0  0  1  0  0  3  0  0  0  0  0  0
  186.7740  178.3220  143.7420 C   0  0  0  0  0  2  0  0  0  0  0  0
  190.6810  175.7490  145.4830 C   0  0  0  0  0  2  0  0  0  0  0  0
  190.4920  175.3010  144.0580 C   0  0  2  0  0  3  0  0  0  0  0  0
  191.9410  176.5970  145.4520 C   0  0  2  0  0  3  0  0  0  0  0  0
  192.2130  176.9700  144.0650 N   0  0  0  0  0  2  0  0  0  0  0  0
  191.1380  176.4040  143.2560 C   0  0  0  0  0  2  0  0  0  0  0  0
  194.1640  176.8340  146.5910 C   0  0  0  0  0  1  0  0  0  0  0  0
  193.1470  175.8590  146.0360 C   0  0  1  0  0  3  0  0  0  0  0  0
  192.7540  174.9630  147.0320 O   0  0  0  0  0  1  0  0  0  0  0  0
  1  7  1  1  0  0  0
  1  6  1  0  0  0  0
  1  4  1  0  0  0  0
  2  3  1  0  0  0  0
  2 27  1  0  0  0  0
  3  5  2  0  0  0  0
  4  3  1  0  0  0  0
  6  2  1  0  0  0  0
  7 15  1  0  0  0  0
  8  9  2  0  0  0  0
  8 13  1  0  0  0  0
  9 15  2  0  0  0  0
 10 13  1  0  0  0  0
 11  8  1  0  0  0  0
 12 11  2  0  0  0  0
 12 14  1  0  0  0  0
 13 16  1  1  0  0  0
 14 10  2  0  0  0  0
 16 18  1  0  0  0  0
 18 17  1  1  0  0  0
 18 20  1  0  0  0  0
 20 22  2  0  0  0  0
 20 25  1  0  0  0  0
 22 26  1  0  0  0  0
 23 21  1  0  0  0  0
 24 23  1  0  0  0  0
 25 24  2  0  0  0  0
 26 19  1  0  0  0  0
 26 23  2  0  0  0  0
 27 29  1  6  0  0  0
 29 33  1  0  0  0  0
 30 28  1  0  0  0  0
 32 28  1  0  0  0  0
 33 30  2  0  0  0  0
 34 31  1  6  0  0  0
 34 32  1  0  0  0  0
 35 33  1  0  0  0  0
 35 34  1  0  0  0  0
 37 27  1  6  0  0  0
 37 36  1  0  0  0  0
 38 36  1  0  0  0  0
 38 42  1  6  0  0  0
 39 38  1  0  0  0  0
 40 37  1  0  0  0  0
 40 39  1  0  0  0  0
 42 41  1  1  0  0  0
 42 43  1  0  0  0  0
M  END
>  <MODEL>
4

>  <REMARK>
 VINA RESULT:      -7.5      3.173      7.669
  Name = 
  9 active torsions:
  status: ('A' for Active; 'I' for Inactive)
    1  A    between atoms: C_1  and  C_7
    2  A    between atoms: C_7  and  C_43
    3  A    between atoms: N_8  and  C_10
    4  A    between atoms: C_10  and  N_17
    5  A    between atoms: C_10  and  C_19
    6  A    between atoms: C_13  and  C_29
    7  A    between atoms: C_29  and  N_30
    8  A    between atoms: N_30  and  C_38
    9  A    between atoms: C_31  and  C_37
                            x       y       z     vdW  Elec       q    Type
                         _______ _______ _______ _____ _____    ______ ____

>  <TORSDO>
F 9

$$$$
=
 OpenBabel11062422313D

 43 47  0  0  1  0  0  0  0  0999 V2000
  188.0960  174.6480  141.4910 C   0  0  1  0  0  3  0  0  0  0  0  0
  190.3290  173.4200  141.1510 N   0  0  0  0  0  0  0  0  0  0  0  0
  189.7530  173.8910  139.9520 C   0  0  0  0  0  0  0  0  0  0  0  0
  188.4980  174.5240  140.0970 N   0  0  0  0  0  2  0  0  0  0  0  0
  190.3120  173.7610  138.8300 O   0  0  0  0  0  0  0  0  0  0  0  0
  189.2370  173.6310  142.5240 S   0  0  0  0  0  0  0  0  0  0  0  0
  188.1730  176.1050  141.9030 C   0  0  0  0  0  2  0  0  0  0  0  0
  187.3840  176.8780  145.3070 C   0  0  0  0  0  0  0  0  0  0  0  0
  188.1080  176.5590  144.2710 C   0  0  0  0  0  0  0  0  0  0  0  0
  187.0050  178.0500  147.4970 C   0  0  0  0  0  3  0  0  0  0  0  0
  185.9550  176.5400  145.3110 C   0  0  0  0  0  3  0  0  0  0  0  0
  185.1690  176.9520  146.3040 C   0  0  0  0  0  3  0  0  0  0  0  0
  188.0210  177.5390  146.5030 C   0  0  1  0  0  3  0  0  0  0  0  0
  185.7050  177.7630  147.4120 C   0  0  0  0  0  3  0  0  0  0  0  0
  188.8220  176.2320  143.2340 C   0  0  0  0  0  3  0  0  0  0  0  0
  188.9230  176.6060  147.1650 N   0  0  0  0  0  2  0  0  0  0  0  0
  190.6480  177.6050  148.3740 O   0  0  0  0  0  1  0  0  0  0  0  0
  190.2640  177.1700  147.1080 C   0  0  1  0  0  3  0  0  0  0  0  0
  194.9890  175.8060  146.1590 C   0  0  0  0  0  1  0  0  0  0  0  0
  191.2500  176.1690  146.5940 C   0  0  0  0  0  0  0  0  0  0  0  0
  194.1650  173.0120  145.0790 Cl  0  0  0  0  0  0  0  0  0  0  0  0
  192.6250  176.4440  146.5900 C   0  0  0  0  0  3  0  0  0  0  0  0
  193.0660  174.2480  145.6660 C   0  0  0  0  0  0  0  0  0  0  0  0
  191.6940  173.9780  145.6690 C   0  0  0  0  0  3  0  0  0  0  0  0
  190.7900  174.9360  146.1270 C   0  0  0  0  0  3  0  0  0  0  0  0
  193.5330  175.4910  146.1220 C   0  0  0  0  0  0  0  0  0  0  0  0
  191.7280  173.0180  141.2620 C   0  0  2  0  0  3  0  0  0  0  0  0
  193.1430  168.9430  141.5170 C   0  0  0  0  0  2  0  0  0  0  0  0
  191.9380  172.3440  142.5370 N   0  0  0  0  0  2  0  0  0  0  0  0
  192.6430  170.3190  141.5340 N   0  0  0  0  0  0  0  0  0  0  0  0
  192.7920  168.2810  145.1310 O   0  0  0  0  0  1  0  0  0  0  0  0
  192.6970  168.1790  142.7530 C   0  0  0  0  0  2  0  0  0  0  0  0
  192.3700  170.9850  142.6210 C   0  0  0  0  0  0  0  0  0  0  0  0
  193.1130  168.9850  143.9720 C   0  0  1  0  0  3  0  0  0  0  0  0
  192.3770  170.3220  143.9740 C   0  0  0  0  0  2  0  0  0  0  0  0
  194.1040  173.8240  141.4000 C   0  0  0  0  0  2  0  0  0  0  0  0
  192.6740  174.2100  141.1350 C   0  0  2  0  0  3  0  0  0  0  0  0
  194.7200  175.0570  142.0380 C   0  0  2  0  0  3  0  0  0  0  0  0
  193.6410  175.9260  142.5040 N   0  0  0  0  0  2  0  0  0  0  0  0
  192.3870  175.2430  142.1990 C   0  0  0  0  0  2  0  0  0  0  0  0
  196.9340  176.1930  141.7140 C   0  0  0  0  0  1  0  0  0  0  0  0
  195.6170  175.8230  141.0630 C   0  0  1  0  0  3  0  0  0  0  0  0
  195.8500  175.0810  139.9050 O   0  0  0  0  0  1  0  0  0  0  0  0
  1  7  1  1  0  0  0
  1  6  1  0  0  0  0
  2 27  1  0  0  0  0
  2  6  1  0  0  0  0
  3  4  1  0  0  0  0
  3  2  1  0  0  0  0
  4  1  1  0  0  0  0
  5  3  2  0  0  0  0
  7 15  1  0  0  0  0
  8 11  1  0  0  0  0
  8 13  1  0  0  0  0
  9  8  2  0  0  0  0
 11 12  2  0  0  0  0
 12 14  1  0  0  0  0
 13 16  1  1  0  0  0
 13 10  1  0  0  0  0
 14 10  2  0  0  0  0
 15  9  2  0  0  0  0
 18 16  1  0  0  0  0
 18 17  1  1  0  0  0
 20 18  1  0  0  0  0
 21 23  1  0  0  0  0
 22 20  1  0  0  0  0
 23 24  2  0  0  0  0
 23 26  1  0  0  0  0
 24 25  1  0  0  0  0
 25 20  2  0  0  0  0
 26 19  1  0  0  0  0
 26 22  2  0  0  0  0
 27 29  1  1  0  0  0
 28 30  1  0  0  0  0
 28 32  1  0  0  0  0
 29 33  1  0  0  0  0
 30 33  2  0  0  0  0
 32 34  1  0  0  0  0
 33 35  1  0  0  0  0
 34 35  1  0  0  0  0
 34 31  1  1  0  0  0
 36 38  1  0  0  0  0
 37 27  1  1  0  0  0
 37 36  1  0  0  0  0
 37 40  1  0  0  0  0
 38 42  1  6  0  0  0
 38 39  1  0  0  0  0
 40 39  1  0  0  0  0
 42 41  1  1  0  0  0
 43 42  1  0  0  0  0
M  END
>  <MODEL>
5

>  <REMARK>
 VINA RESULT:      -7.4      2.813      5.298
  Name = 
  9 active torsions:
  status: ('A' for Active; 'I' for Inactive)
    1  A    between atoms: C_1  and  C_7
    2  A    between atoms: C_7  and  C_43
    3  A    between atoms: N_8  and  C_10
    4  A    between atoms: C_10  and  N_17
    5  A    between atoms: C_10  and  C_19
    6  A    between atoms: C_13  and  C_29
    7  A    between atoms: C_29  and  N_30
    8  A    between atoms: N_30  and  C_38
    9  A    between atoms: C_31  and  C_37
                            x       y       z     vdW  Elec       q    Type
                         _______ _______ _______ _____ _____    ______ ____

>  <TORSDO>
F 9

$$$$
=
 OpenBabel11062422313D

 43 47  0  0  1  0  0  0  0  0999 V2000
  189.8380  172.1890  143.1710 C   0  0  1  0  0  3  0  0  0  0  0  0
  191.0870  173.2450  141.1880 N   0  0  0  0  0  0  0  0  0  0  0  0
  190.3750  174.1780  141.9720 C   0  0  0  0  0  0  0  0  0  0  0  0
  189.6330  173.6240  143.0380 N   0  0  0  0  0  2  0  0  0  0  0  0
  190.3960  175.4170  141.7410 O   0  0  0  0  0  0  0  0  0  0  0  0
  190.7400  171.5840  141.6810 S   0  0  0  0  0  0  0  0  0  0  0  0
  190.6490  171.9150  144.4230 C   0  0  0  0  0  2  0  0  0  0  0  0
  193.9850  173.1410  144.8350 C   0  0  0  0  0  0  0  0  0  0  0  0
  192.6820  173.1430  144.8430 C   0  0  0  0  0  0  0  0  0  0  0  0
  196.2310  173.7820  145.7630 C   0  0  0  0  0  3  0  0  0  0  0  0
  194.6910  172.2440  143.9110 C   0  0  0  0  0  3  0  0  0  0  0  0
  196.0190  172.1390  143.9580 C   0  0  0  0  0  3  0  0  0  0  0  0
  194.7510  174.0850  145.7260 C   0  0  1  0  0  3  0  0  0  0  0  0
  196.8080  172.9050  144.9390 C   0  0  0  0  0  3  0  0  0  0  0  0
  191.3810  173.1390  144.8400 C   0  0  0  0  0  3  0  0  0  0  0  0
  194.5460  175.4590  145.2870 N   0  0  0  0  0  2  0  0  0  0  0  0
  194.5270  177.5350  146.3490 O   0  0  0  0  0  1  0  0  0  0  0  0
  194.0660  176.2230  146.4300 C   0  0  1  0  0  3  0  0  0  0  0  0
  189.6130  177.4020  144.4640 C   0  0  0  0  0  1  0  0  0  0  0  0
  192.5720  176.2130  146.4970 C   0  0  0  0  0  0  0  0  0  0  0  0
  188.0270  176.0500  146.7680 Cl  0  0  0  0  0  0  0  0  0  0  0  0
  191.7990  176.8130  145.4930 C   0  0  0  0  0  3  0  0  0  0  0  0
  189.7760  176.1310  146.6380 C   0  0  0  0  0  0  0  0  0  0  0  0
  190.5490  175.5370  147.6390 C   0  0  0  0  0  3  0  0  0  0  0  0
  191.9410  175.5800  147.5700 C   0  0  0  0  0  3  0  0  0  0  0  0
  190.4040  176.7800  145.5630 C   0  0  0  0  0  0  0  0  0  0  0  0
  192.1360  173.6250  140.2460 C   0  0  2  0  0  3  0  0  0  0  0  0
  190.0540  174.0270  136.4810 C   0  0  0  0  0  2  0  0  0  0  0  0
  192.2280  172.6220  139.1940 N   0  0  0  0  0  2  0  0  0  0  0  0
  190.7810  173.7910  137.7290 N   0  0  0  0  0  0  0  0  0  0  0  0
  190.6870  170.7290  134.9500 O   0  0  0  0  0  1  0  0  0  0  0  0
  189.6890  172.7170  135.7990 C   0  0  0  0  0  2  0  0  0  0  0  0
  191.5100  172.7360  137.9640 C   0  0  0  0  0  0  0  0  0  0  0  0
  190.9640  171.9060  135.6420 C   0  0  1  0  0  3  0  0  0  0  0  0
  191.5230  171.5610  137.0200 C   0  0  0  0  0  2  0  0  0  0  0  0
  194.0130  175.1950  140.8160 C   0  0  0  0  0  2  0  0  0  0  0  0
  193.4870  173.7890  140.9370 C   0  0  2  0  0  3  0  0  0  0  0  0
  195.5220  175.0330  140.7560 C   0  0  2  0  0  3  0  0  0  0  0  0
  195.8260  173.6420  140.4290 N   0  0  0  0  0  2  0  0  0  0  0  0
  194.5480  172.9590  140.2540 C   0  0  0  0  0  2  0  0  0  0  0  0
  197.6720  175.0760  142.0500 C   0  0  0  0  0  1  0  0  0  0  0  0
  196.1950  175.4140  142.0760 C   0  0  1  0  0  3  0  0  0  0  0  0
  196.0220  176.7700  142.3570 O   0  0  0  0  0  1  0  0  0  0  0  0
  1  7  1  1  0  0  0
  2  6  1  0  0  0  0
  2  3  1  0  0  0  0
  3  4  1  0  0  0  0
  4  1  1  0  0  0  0
  5  3  2  0  0  0  0
  6  1  1  0  0  0  0
  7 15  1  0  0  0  0
  8  9  2  0  0  0  0
  8 13  1  0  0  0  0
 11 12  2  0  0  0  0
 11  8  1  0  0  0  0
 12 14  1  0  0  0  0
 13 16  1  6  0  0  0
 13 10  1  0  0  0  0
 14 10  2  0  0  0  0
 15  9  2  0  0  0  0
 16 18  1  0  0  0  0
 18 17  1  6  0  0  0
 18 20  1  0  0  0  0
 19 26  1  0  0  0  0
 20 25  1  0  0  0  0
 22 26  1  0  0  0  0
 22 20  2  0  0  0  0
 23 21  1  0  0  0  0
 23 24  1  0  0  0  0
 25 24  2  0  0  0  0
 26 23  2  0  0  0  0
 27 29  1  6  0  0  0
 27  2  1  0  0  0  0
 28 30  1  0  0  0  0
 30 33  2  0  0  0  0
 32 28  1  0  0  0  0
 33 29  1  0  0  0  0
 34 31  1  1  0  0  0
 34 32  1  0  0  0  0
 34 35  1  0  0  0  0
 35 33  1  0  0  0  0
 36 37  1  0  0  0  0
 37 27  1  6  0  0  0
 38 36  1  0  0  0  0
 38 42  1  1  0  0  0
 39 38  1  0  0  0  0
 40 39  1  0  0  0  0
 40 37  1  0  0  0  0
 42 41  1  6  0  0  0
 42 43  1  0  0  0  0
M  END
>  <MODEL>
6

>  <REMARK>
 VINA RESULT:      -7.3      1.878      2.710
  Name = 
  9 active torsions:
  status: ('A' for Active; 'I' for Inactive)
    1  A    between atoms: C_1  and  C_7
    2  A    between atoms: C_7  and  C_43
    3  A    between atoms: N_8  and  C_10
    4  A    between atoms: C_10  and  N_17
    5  A    between atoms: C_10  and  C_19
    6  A    between atoms: C_13  and  C_29
    7  A    between atoms: C_29  and  N_30
    8  A    between atoms: N_30  and  C_38
    9  A    between atoms: C_31  and  C_37
                            x       y       z     vdW  Elec       q    Type
                         _______ _______ _______ _____ _____    ______ ____

>  <TORSDO>
F 9

$$$$
=
 OpenBabel11062422313D

 43 47  0  0  1  0  0  0  0  0999 V2000
  189.9780  176.4180  147.3120 C   0  0  1  0  0  3  0  0  0  0  0  0
  189.0000  176.4410  144.9340 N   0  0  0  0  0  0  0  0  0  0  0  0
  190.1290  177.2710  145.0910 C   0  0  0  0  0  0  0  0  0  0  0  0
  190.6600  177.3250  146.3990 N   0  0  0  0  0  2  0  0  0  0  0  0
  190.6340  177.9220  144.1370 O   0  0  0  0  0  0  0  0  0  0  0  0
  188.4580  175.7820  146.4830 S   0  0  0  0  0  0  0  0  0  0  0  0
  190.9060  175.2700  147.6590 C   0  0  0  0  0  2  0  0  0  0  0  0
  193.6260  174.0220  145.6970 C   0  0  0  0  0  0  0  0  0  0  0  0
  192.9690  174.8160  146.4960 C   0  0  0  0  0  0  0  0  0  0  0  0
  195.7110  172.8590  144.9140 C   0  0  0  0  0  3  0  0  0  0  0  0
  192.8790  173.1960  144.7400 C   0  0  0  0  0  3  0  0  0  0  0  0
  193.5130  172.2950  143.9910 C   0  0  0  0  0  3  0  0  0  0  0  0
  195.1330  173.9960  145.7240 C   0  0  1  0  0  3  0  0  0  0  0  0
  194.9690  172.0970  144.1090 C   0  0  0  0  0  3  0  0  0  0  0  0
  192.3050  175.6070  147.2860 C   0  0  0  0  0  3  0  0  0  0  0  0
  195.6610  175.2610  145.2330 N   0  0  0  0  0  2  0  0  0  0  0  0
  194.4110  177.0560  144.4260 O   0  0  0  0  0  1  0  0  0  0  0  0
  194.7740  175.7350  144.1800 C   0  0  1  0  0  3  0  0  0  0  0  0
  194.4400  175.1820  139.2130 C   0  0  0  0  0  1  0  0  0  0  0  0
  195.4250  175.6290  142.8370 C   0  0  0  0  0  0  0  0  0  0  0  0
  197.5100  175.4000  138.7930 Cl  0  0  0  0  0  0  0  0  0  0  0  0
  194.6610  175.4370  141.6770 C   0  0  0  0  0  3  0  0  0  0  0  0
  196.6790  175.4810  140.3370 C   0  0  0  0  0  0  0  0  0  0  0  0
  197.4380  175.6690  141.4960 C   0  0  0  0  0  3  0  0  0  0  0  0
  196.8140  175.7390  142.7410 C   0  0  0  0  0  3  0  0  0  0  0  0
  195.2840  175.3570  140.4290 C   0  0  0  0  0  0  0  0  0  0  0  0
  188.4930  176.0150  143.6330 C   0  0  2  0  0  3  0  0  0  0  0  0
  189.2630  172.0380  142.1300 C   0  0  0  0  0  2  0  0  0  0  0  0
  189.6140  175.7190  142.7510 N   0  0  0  0  0  2  0  0  0  0  0  0
  189.0970  173.4130  142.6020 N   0  0  0  0  0  0  0  0  0  0  0  0
  192.5310  172.5090  140.4800 O   0  0  0  0  0  1  0  0  0  0  0  0
  190.7200  171.7340  141.8190 C   0  0  0  0  0  2  0  0  0  0  0  0
  189.8900  174.3980  142.2840 C   0  0  0  0  0  0  0  0  0  0  0  0
  191.2190  172.7950  140.8530 C   0  0  1  0  0  3  0  0  0  0  0  0
  191.1740  174.1620  141.5310 C   0  0  0  0  0  2  0  0  0  0  0  0
  186.2490  176.5080  142.6140 C   0  0  0  0  0  2  0  0  0  0  0  0
  187.5900  177.0720  143.0020 C   0  0  2  0  0  3  0  0  0  0  0  0
  185.8490  177.2920  141.3770 C   0  0  2  0  0  3  0  0  0  0  0  0
  187.0400  177.9450  140.8370 N   0  0  0  0  0  2  0  0  0  0  0  0
  188.1590  177.5540  141.6890 C   0  0  0  0  0  2  0  0  0  0  0  0
  183.8040  178.4720  140.5260 C   0  0  0  0  0  1  0  0  0  0  0  0
  184.7760  178.3390  141.6800 C   0  0  1  0  0  3  0  0  0  0  0  0
  184.0850  178.0270  142.8510 O   0  0  0  0  0  1  0  0  0  0  0  0
  1  7  1  6  0  0  0
  2  3  1  0  0  0  0
  2  6  1  0  0  0  0
  3  4  1  0  0  0  0
  4  1  1  0  0  0  0
  5  3  2  0  0  0  0
  6  1  1  0  0  0  0
  8 13  1  0  0  0  0
  8  9  2  0  0  0  0
  9 15  2  0  0  0  0
 10 13  1  0  0  0  0
 11  8  1  0  0  0  0
 12 14  1  0  0  0  0
 12 11  2  0  0  0  0
 13 16  1  6  0  0  0
 14 10  2  0  0  0  0
 15  7  1  0  0  0  0
 18 17  1  1  0  0  0
 18 16  1  0  0  0  0
 19 26  1  0  0  0  0
 20 18  1  0  0  0  0
 21 23  1  0  0  0  0
 22 20  2  0  0  0  0
 23 26  2  0  0  0  0
 23 24  1  0  0  0  0
 24 25  2  0  0  0  0
 25 20  1  0  0  0  0
 26 22  1  0  0  0  0
 27 29  1  6  0  0  0
 27  2  1  0  0  0  0
 28 30  1  0  0  0  0
 32 28  1  0  0  0  0
 33 30  2  0  0  0  0
 33 29  1  0  0  0  0
 34 31  1  1  0  0  0
 34 35  1  0  0  0  0
 34 32  1  0  0  0  0
 35 33  1  0  0  0  0
 36 37  1  0  0  0  0
 37 27  1  6  0  0  0
 38 42  1  1  0  0  0
 38 36  1  0  0  0  0
 39 38  1  0  0  0  0
 39 40  1  0  0  0  0
 40 37  1  0  0  0  0
 42 41  1  6  0  0  0
 42 43  1  0  0  0  0
M  END
>  <MODEL>
7

>  <REMARK>
 VINA RESULT:      -7.3      3.576      7.287
  Name = 
  9 active torsions:
  status: ('A' for Active; 'I' for Inactive)
    1  A    between atoms: C_1  and  C_7
    2  A    between atoms: C_7  and  C_43
    3  A    between atoms: N_8  and  C_10
    4  A    between atoms: C_10  and  N_17
    5  A    between atoms: C_10  and  C_19
    6  A    between atoms: C_13  and  C_29
    7  A    between atoms: C_29  and  N_30
    8  A    between atoms: N_30  and  C_38
    9  A    between atoms: C_31  and  C_37
                            x       y       z     vdW  Elec       q    Type
                         _______ _______ _______ _____ _____    ______ ____

>  <TORSDO>
F 9

$$$$
=
 OpenBabel11062422313D

 43 47  0  0  1  0  0  0  0  0999 V2000
  192.3210  176.2960  146.2880 C   0  0  1  0  0  3  0  0  0  0  0  0
  190.3480  176.6520  144.6780 N   0  0  0  0  0  0  0  0  0  0  0  0
  191.5950  177.0290  144.1380 C   0  0  0  0  0  0  0  0  0  0  0  0
  192.6950  176.8970  145.0150 N   0  0  0  0  0  2  0  0  0  0  0  0
  191.7260  177.4540  142.9590 O   0  0  0  0  0  0  0  0  0  0  0  0
  190.4800  176.2360  146.3910 S   0  0  0  0  0  0  0  0  0  0  0  0
  192.8970  174.8950  146.3650 C   0  0  0  0  0  2  0  0  0  0  0  0
  195.4050  172.5580  145.3400 C   0  0  0  0  0  0  0  0  0  0  0  0
  194.6730  173.6360  145.3270 C   0  0  0  0  0  0  0  0  0  0  0  0
  197.5640  171.3150  145.0100 C   0  0  0  0  0  3  0  0  0  0  0  0
  194.8660  171.3360  145.9490 C   0  0  0  0  0  3  0  0  0  0  0  0
  195.6310  170.2540  146.0770 C   0  0  0  0  0  3  0  0  0  0  0  0
  196.7670  172.5580  144.6920 C   0  0  1  0  0  3  0  0  0  0  0  0
  197.0340  170.2570  145.6260 C   0  0  0  0  0  3  0  0  0  0  0  0
  193.9320  174.7050  145.3150 C   0  0  0  0  0  3  0  0  0  0  0  0
  196.6300  172.6940  143.2480 N   0  0  0  0  0  2  0  0  0  0  0  0
  197.9380  174.5850  142.8610 O   0  0  0  0  0  1  0  0  0  0  0  0
  196.6290  174.1150  142.9340 C   0  0  1  0  0  3  0  0  0  0  0  0
  192.4710  173.9890  140.1450 C   0  0  0  0  0  1  0  0  0  0  0  0
  195.9210  174.3830  141.6450 C   0  0  0  0  0  0  0  0  0  0  0  0
  193.8460  175.3190  137.6970 Cl  0  0  0  0  0  0  0  0  0  0  0  0
  194.5680  174.0540  141.4810 C   0  0  0  0  0  3  0  0  0  0  0  0
  194.6190  174.9440  139.2280 C   0  0  0  0  0  0  0  0  0  0  0  0
  195.9690  175.2690  139.3940 C   0  0  0  0  0  3  0  0  0  0  0  0
  196.6170  174.9860  140.5960 C   0  0  0  0  0  3  0  0  0  0  0  0
  193.9170  174.3260  140.2750 C   0  0  0  0  0  0  0  0  0  0  0  0
  189.1570  176.4270  143.8640 C   0  0  2  0  0  3  0  0  0  0  0  0
  185.9360  179.3020  144.0310 C   0  0  0  0  0  2  0  0  0  0  0  0
  188.0020  176.2530  144.7330 N   0  0  0  0  0  2  0  0  0  0  0  0
  186.9850  178.2820  144.0590 N   0  0  0  0  0  0  0  0  0  0  0  0
  183.9520  178.0000  146.8580 O   0  0  0  0  0  1  0  0  0  0  0  0
  185.1960  179.3690  145.3570 C   0  0  0  0  0  2  0  0  0  0  0  0
  186.9550  177.2210  144.8160 C   0  0  0  0  0  0  0  0  0  0  0  0
  184.7040  177.9690  145.6850 C   0  0  1  0  0  3  0  0  0  0  0  0
  185.9010  177.0410  145.8780 C   0  0  0  0  0  2  0  0  0  0  0  0
  188.0640  174.9370  142.1610 C   0  0  0  0  0  2  0  0  0  0  0  0
  189.3160  175.2150  142.9490 C   0  0  2  0  0  3  0  0  0  0  0  0
  188.0390  173.4270  142.0030 C   0  0  2  0  0  3  0  0  0  0  0  0
  188.9540  172.8440  142.9830 N   0  0  0  0  0  2  0  0  0  0  0  0
  189.5090  173.9520  143.7550 C   0  0  0  0  0  2  0  0  0  0  0  0
  188.5630  174.1800  139.6680 C   0  0  0  0  0  1  0  0  0  0  0  0
  188.4410  172.9880  140.5940 C   0  0  1  0  0  3  0  0  0  0  0  0
  189.6400  172.2750  140.6120 O   0  0  0  0  0  1  0  0  0  0  0  0
  1  7  1  6  0  0  0
  1  6  1  0  0  0  0
  2  6  1  0  0  0  0
  3  2  1  0  0  0  0
  3  4  1  0  0  0  0
  4  1  1  0  0  0  0
  5  3  2  0  0  0  0
  8 11  1  0  0  0  0
  9  8  2  0  0  0  0
 10 14  2  0  0  0  0
 11 12  2  0  0  0  0
 13 16  1  6  0  0  0
 13 10  1  0  0  0  0
 13  8  1  0  0  0  0
 14 12  1  0  0  0  0
 15  9  2  0  0  0  0
 15  7  1  0  0  0  0
 18 17  1  6  0  0  0
 18 16  1  0  0  0  0
 19 26  1  0  0  0  0
 20 18  1  0  0  0  0
 21 23  1  0  0  0  0
 22 20  1  0  0  0  0
 23 24  2  0  0  0  0
 23 26  1  0  0  0  0
 24 25  1  0  0  0  0
 25 20  2  0  0  0  0
 26 22  2  0  0  0  0
 27  2  1  0  0  0  0
 27 29  1  1  0  0  0
 28 30  1  0  0  0  0
 28 32  1  0  0  0  0
 29 33  1  0  0  0  0
 30 33  2  0  0  0  0
 32 34  1  0  0  0  0
 33 35  1  0  0  0  0
 34 35  1  0  0  0  0
 34 31  1  1  0  0  0
 36 37  1  0  0  0  0
 37 40  1  0  0  0  0
 37 27  1  1  0  0  0
 38 42  1  6  0  0  0
 38 36  1  0  0  0  0
 38 39  1  0  0  0  0
 39 40  1  0  0  0  0
 42 41  1  6  0  0  0
 42 43  1  0  0  0  0
M  END
>  <MODEL>
8

>  <REMARK>
 VINA RESULT:      -7.3      3.230      8.156
  Name = 
  9 active torsions:
  status: ('A' for Active; 'I' for Inactive)
    1  A    between atoms: C_1  and  C_7
    2  A    between atoms: C_7  and  C_43
    3  A    between atoms: N_8  and  C_10
    4  A    between atoms: C_10  and  N_17
    5  A    between atoms: C_10  and  C_19
    6  A    between atoms: C_13  and  C_29
    7  A    between atoms: C_29  and  N_30
    8  A    between atoms: N_30  and  C_38
    9  A    between atoms: C_31  and  C_37
                            x       y       z     vdW  Elec       q    Type
                         _______ _______ _______ _____ _____    ______ ____

>  <TORSDO>
F 9

$$$$
=
 OpenBabel11062422313D

 43 47  0  0  1  0  0  0  0  0999 V2000
  189.2970  171.9180  143.2490 C   0  0  1  0  0  3  0  0  0  0  0  0
  190.5270  172.7750  141.1600 N   0  0  0  0  0  0  0  0  0  0  0  0
  189.5570  173.6720  141.6550 C   0  0  0  0  0  0  0  0  0  0  0  0
  188.8250  173.2090  142.7700 N   0  0  0  0  0  2  0  0  0  0  0  0
  189.3540  174.8050  141.1430 O   0  0  0  0  0  0  0  0  0  0  0  0
  190.4680  171.2230  142.0040 S   0  0  0  0  0  0  0  0  0  0  0  0
  189.9970  172.1060  144.5810 C   0  0  0  0  0  2  0  0  0  0  0  0
  191.8150  174.9710  145.7170 C   0  0  0  0  0  0  0  0  0  0  0  0
  190.7900  174.2280  145.4090 C   0  0  0  0  0  0  0  0  0  0  0  0
  192.9940  176.6880  147.1230 C   0  0  0  0  0  3  0  0  0  0  0  0
  193.0990  174.7300  145.0460 C   0  0  0  0  0  3  0  0  0  0  0  0
  194.1890  175.3960  145.4190 C   0  0  0  0  0  3  0  0  0  0  0  0
  191.6670  176.0950  146.7110 C   0  0  1  0  0  3  0  0  0  0  0  0
  194.1410  176.3800  146.5160 C   0  0  0  0  0  3  0  0  0  0  0  0
  189.7720  173.4830  145.0910 C   0  0  0  0  0  3  0  0  0  0  0  0
  190.8170  177.1400  146.1560 N   0  0  0  0  0  2  0  0  0  0  0  0
  189.6970  178.2720  147.8590 O   0  0  0  0  0  1  0  0  0  0  0  0
  189.6100  177.2070  146.9670 C   0  0  1  0  0  3  0  0  0  0  0  0
  184.6420  177.6460  146.5050 C   0  0  0  0  0  1  0  0  0  0  0  0
  188.3920  177.3600  146.1110 C   0  0  0  0  0  0  0  0  0  0  0  0
  184.7630  177.9080  143.4120 Cl  0  0  0  0  0  0  0  0  0  0  0  0
  187.1110  177.4090  146.6790 C   0  0  0  0  0  3  0  0  0  0  0  0
  186.1420  177.6930  144.4770 C   0  0  0  0  0  0  0  0  0  0  0  0
  187.4210  177.6410  143.9140 C   0  0  0  0  0  3  0  0  0  0  0  0
  188.5400  177.4710  144.7280 C   0  0  0  0  0  3  0  0  0  0  0  0
  185.9860  177.5690  145.8660 C   0  0  0  0  0  0  0  0  0  0  0  0
  191.5790  173.1670  140.2260 C   0  0  2  0  0  3  0  0  0  0  0  0
  195.7630  173.2270  141.3040 C   0  0  0  0  0  2  0  0  0  0  0  0
  192.2390  174.3690  140.7180 N   0  0  0  0  0  2  0  0  0  0  0  0
  194.3360  173.3020  140.9840 N   0  0  0  0  0  0  0  0  0  0  0  0
  196.0740  176.5850  142.8050 O   0  0  0  0  0  1  0  0  0  0  0  0
  196.1430  174.2450  142.3680 C   0  0  0  0  0  2  0  0  0  0  0  0
  193.6130  174.3790  141.1100 C   0  0  0  0  0  0  0  0  0  0  0  0
  195.6760  175.6100  141.8930 C   0  0  1  0  0  3  0  0  0  0  0  0
  194.1530  175.6170  141.7800 C   0  0  0  0  0  2  0  0  0  0  0  0
  190.6860  172.1160  138.1260 C   0  0  0  0  0  2  0  0  0  0  0  0
  191.0310  173.4060  138.8210 C   0  0  2  0  0  3  0  0  0  0  0  0
  190.9690  172.3870  136.6580 C   0  0  2  0  0  3  0  0  0  0  0  0
  191.8140  173.5750  136.5610 N   0  0  0  0  0  2  0  0  0  0  0  0
  192.0830  174.0160  137.9270 C   0  0  0  0  0  2  0  0  0  0  0  0
  189.7270  173.9090  135.0970 C   0  0  0  0  0  1  0  0  0  0  0  0
  189.6840  172.5980  135.8540 C   0  0  1  0  0  3  0  0  0  0  0  0
  189.4680  171.5430  134.9660 O   0  0  0  0  0  1  0  0  0  0  0  0
  1  7  1  1  0  0  0
  2  3  1  0  0  0  0
  2  6  1  0  0  0  0
  3  4  1  0  0  0  0
  4  1  1  0  0  0  0
  5  3  2  0  0  0  0
  6  1  1  0  0  0  0
  7 15  1  0  0  0  0
  8 13  1  0  0  0  0
  9  8  2  0  0  0  0
 11 12  2  0  0  0  0
 11  8  1  0  0  0  0
 12 14  1  0  0  0  0
 13 16  1  6  0  0  0
 13 10  1  0  0  0  0
 14 10  2  0  0  0  0
 15  9  2  0  0  0  0
 16 18  1  0  0  0  0
 18 17  1  1  0  0  0
 20 22  1  0  0  0  0
 20 18  1  0  0  0  0
 21 23  1  0  0  0  0
 23 26  1  0  0  0  0
 24 23  2  0  0  0  0
 24 25  1  0  0  0  0
 25 20  2  0  0  0  0
 26 19  1  0  0  0  0
 26 22  2  0  0  0  0
 27 29  1  1  0  0  0
 27  2  1  0  0  0  0
 28 32  1  0  0  0  0
 29 33  1  0  0  0  0
 30 33  2  0  0  0  0
 30 28  1  0  0  0  0
 33 35  1  0  0  0  0
 34 32  1  0  0  0  0
 34 31  1  1  0  0  0
 35 34  1  0  0  0  0
 36 37  1  0  0  0  0
 37 27  1  1  0  0  0
 38 42  1  6  0  0  0
 38 36  1  0  0  0  0
 39 38  1  0  0  0  0
 39 40  1  0  0  0  0
 40 37  1  0  0  0  0
 42 41  1  6  0  0  0
 43 42  1  0  0  0  0
M  END
>  <MODEL>
9

>  <REMARK>
 VINA RESULT:      -7.2      1.065      4.518
  Name = 
  9 active torsions:
  status: ('A' for Active; 'I' for Inactive)
    1  A    between atoms: C_1  and  C_7
    2  A    between atoms: C_7  and  C_43
    3  A    between atoms: N_8  and  C_10
    4  A    between atoms: C_10  and  N_17
    5  A    between atoms: C_10  and  C_19
    6  A    between atoms: C_13  and  C_29
    7  A    between atoms: C_29  and  N_30
    8  A    between atoms: N_30  and  C_38
    9  A    between atoms: C_31  and  C_37
                            x       y       z     vdW  Elec       q    Type
                         _______ _______ _______ _____ _____    ______ ____

>  <TORSDO>
F 9

$$$$
