=
 OpenBabel11062419543D

 28 31  0  0  1  0  0  0  0  0999 V2000
  186.4390  177.2730  146.4510 C   0  0  0  0  0  0  0  0  0  0  0  0
  186.9280  176.7320  145.1420 C   0  0  2  0  0  3  0  0  0  0  0  0
  189.7340  177.7240  147.1230 N   0  0  0  0  0  2  0  0  0  0  0  0
  184.1160  178.2880  143.1700 N   0  0  0  0  0  0  0  0  0  0  0  0
  185.7080  177.4230  141.6120 C   0  0  0  0  0  0  0  0  0  0  0  0
  186.5130  177.0140  142.6730 C   0  0  0  0  0  3  0  0  0  0  0  0
  188.4040  177.1300  145.1540 C   0  0  1  0  0  3  0  0  0  0  0  0
  184.3770  178.0830  145.5950 C   0  0  0  0  0  3  0  0  0  0  0  0
  184.5070  178.0920  141.8810 C   0  0  0  0  0  0  0  0  0  0  0  0
  187.3790  177.5450  147.2930 N   0  0  0  0  0  0  0  0  0  0  0  0
  184.8750  177.8890  144.2210 C   0  0  0  0  0  0  0  0  0  0  0  0
  186.0820  177.1280  140.3400 F   0  0  0  0  0  0  0  0  0  0  0  0
  188.6090  177.3450  146.6130 C   0  0  0  0  0  0  0  0  0  0  0  0
  186.1270  177.2750  143.9930 C   0  0  0  0  0  0  0  0  0  0  0  0
  185.1160  177.7890  146.6220 N   0  0  0  0  0  0  0  0  0  0  0  0
  183.8340  177.6590  139.6840 F   0  0  0  0  0  0  0  0  0  0  0  0
  183.5900  178.4810  140.7690 C   0  0  1  0  0  3  0  0  0  0  0  0
  182.1440  178.3530  141.2120 C   0  0  0  0  0  1  0  0  0  0  0  0
  189.2440  176.0380  144.6870 N   0  0  0  0  0  2  0  0  0  0  0  0
  191.9780  177.2350  144.1150 N   0  0  0  0  0  0  0  0  0  0  0  0
  192.2690  176.0130  143.8320 C   0  0  0  0  0  0  0  0  0  0  0  0
  194.3480  177.1460  145.5540 O   0  0  0  0  0  0  0  0  0  0  0  0
  195.3400  175.0310  145.9820 C   0  0  0  0  0  1  0  0  0  0  0  0
  194.3280  175.9080  145.3340 C   0  0  0  0  0  0  0  0  0  0  0  0
  193.3470  175.3180  144.4740 N   0  0  0  0  0  2  0  0  0  0  0  0
  190.7080  177.6780  143.5810 C   0  0  0  0  0  2  0  0  0  0  0  0
  191.0260  175.1260  142.9030 S   0  0  0  0  0  0  0  0  0  0  0  0
  189.8550  176.4230  143.4130 C   0  0  1  0  0  3  0  0  0  0  0  0
  1 15  1  0  0  0  0
  1 10  2  0  0  0  0
  2 14  1  6  0  0  0
  2  7  1  0  0  0  0
  2  1  1  0  0  0  0
  4 11  1  0  0  0  0
  5  9  1  0  0  0  0
  5  6  2  0  0  0  0
  6 14  1  0  0  0  0
  7 19  1  1  0  0  0
  7 13  1  0  0  0  0
  8 15  2  0  0  0  0
  9  4  2  0  0  0  0
 11  8  1  0  0  0  0
 12  5  1  0  0  0  0
 13  3  2  0  0  0  0
 13 10  1  0  0  0  0
 14 11  2  0  0  0  0
 16 17  1  0  0  0  0
 17 18  1  1  0  0  0
 17  9  1  0  0  0  0
 21 20  2  0  0  0  0
 21 25  1  0  0  0  0
 24 22  2  0  0  0  0
 24 23  1  0  0  0  0
 25 24  1  0  0  0  0
 26 20  1  0  0  0  0
 27 28  1  0  0  0  0
 27 21  1  0  0  0  0
 28 26  1  0  0  0  0
 28 19  1  1  0  0  0
M  END
>  <MODEL>
1

>  <REMARK>
 VINA RESULT:      -8.2      0.000      0.000
  Name = 
  3 active torsions:
  status: ('A' for Active; 'I' for Inactive)
    1  A    between atoms: C_14  and  N_28
    2  A    between atoms: C_17  and  C_24
    3  A    between atoms: C_22  and  N_28
                            x       y       z     vdW  Elec       q    Type
                         _______ _______ _______ _____ _____    ______ ____

>  <TORSDO>
F 3

$$$$
=
 OpenBabel11062419543D

 28 31  0  0  1  0  0  0  0  0999 V2000
  188.0660  176.0290  141.4540 C   0  0  0  0  0  0  0  0  0  0  0  0
  188.7310  176.1540  142.7910 C   0  0  2  0  0  3  0  0  0  0  0  0
  189.6920  173.0570  141.2850 N   0  0  0  0  0  2  0  0  0  0  0  0
  185.7200  177.7410  144.4140 N   0  0  0  0  0  0  0  0  0  0  0  0
  187.2910  177.2210  146.1390 C   0  0  0  0  0  0  0  0  0  0  0  0
  188.1460  176.6720  145.1860 C   0  0  0  0  0  3  0  0  0  0  0  0
  189.2890  174.7480  143.0100 C   0  0  1  0  0  3  0  0  0  0  0  0
  186.1510  177.3050  142.0450 C   0  0  0  0  0  3  0  0  0  0  0  0
  186.0520  177.7350  145.7350 C   0  0  0  0  0  0  0  0  0  0  0  0
  188.4440  175.0020  140.7700 N   0  0  0  0  0  0  0  0  0  0  0  0
  186.5400  177.2250  143.4650 C   0  0  0  0  0  0  0  0  0  0  0  0
  187.6910  177.2840  147.4350 F   0  0  0  0  0  0  0  0  0  0  0  0
  189.3040  174.2460  141.6080 C   0  0  0  0  0  0  0  0  0  0  0  0
  187.7660  176.6320  143.8380 C   0  0  0  0  0  0  0  0  0  0  0  0
  186.8730  176.7460  141.1210 N   0  0  0  0  0  0  0  0  0  0  0  0
  185.7690  179.5190  147.2190 F   0  0  0  0  0  0  0  0  0  0  0  0
  185.1440  178.3900  146.7210 C   0  0  1  0  0  3  0  0  0  0  0  0
  183.8310  178.7650  146.0590 C   0  0  0  0  0  1  0  0  0  0  0  0
  190.6430  174.7990  143.5370 N   0  0  0  0  0  2  0  0  0  0  0  0
  192.9690  176.4200  144.6330 N   0  0  0  0  0  0  0  0  0  0  0  0
  193.6470  175.6860  143.8210 C   0  0  0  0  0  0  0  0  0  0  0  0
  194.9740  175.7540  146.4300 O   0  0  0  0  0  0  0  0  0  0  0  0
  196.4470  173.9740  145.8800 C   0  0  0  0  0  1  0  0  0  0  0  0
  195.3530  174.9290  145.5590 C   0  0  0  0  0  0  0  0  0  0  0  0
  194.7510  174.8840  144.2610 N   0  0  0  0  0  2  0  0  0  0  0  0
  191.7380  176.9380  144.0740 C   0  0  0  0  0  2  0  0  0  0  0  0
  192.8950  175.4200  142.2210 S   0  0  0  0  0  0  0  0  0  0  0  0
  191.3280  175.9630  142.9720 C   0  0  1  0  0  3  0  0  0  0  0  0
  2  1  1  6  0  0  0
  2  7  1  0  0  0  0
  2 14  1  0  0  0  0
  3 13  2  0  0  0  0
  4  9  1  0  0  0  0
  5 12  1  0  0  0  0
  6  5  1  0  0  0  0
  7 19  1  6  0  0  0
  8 11  1  0  0  0  0
  9  5  2  0  0  0  0
  9 17  1  0  0  0  0
 10  1  2  0  0  0  0
 10 13  1  0  0  0  0
 11 14  1  0  0  0  0
 11  4  2  0  0  0  0
 13  7  1  0  0  0  0
 14  6  2  0  0  0  0
 15  1  1  0  0  0  0
 15  8  2  0  0  0  0
 17 18  1  6  0  0  0
 17 16  1  0  0  0  0
 21 25  1  0  0  0  0
 21 20  2  0  0  0  0
 24 23  1  0  0  0  0
 24 22  2  0  0  0  0
 25 24  1  0  0  0  0
 26 20  1  0  0  0  0
 27 28  1  0  0  0  0
 27 21  1  0  0  0  0
 28 19  1  1  0  0  0
 28 26  1  0  0  0  0
M  END
>  <MODEL>
2

>  <REMARK>
 VINA RESULT:      -7.9      2.801      4.269
  Name = 
  3 active torsions:
  status: ('A' for Active; 'I' for Inactive)
    1  A    between atoms: C_14  and  N_28
    2  A    between atoms: C_17  and  C_24
    3  A    between atoms: C_22  and  N_28
                            x       y       z     vdW  Elec       q    Type
                         _______ _______ _______ _____ _____    ______ ____

>  <TORSDO>
F 3

$$$$
=
 OpenBabel11062419543D

 28 31  0  0  1  0  0  0  0  0999 V2000
  188.3690  175.1520  141.2850 C   0  0  0  0  0  0  0  0  0  0  0  0
  187.6580  175.6100  142.5210 C   0  0  2  0  0  3  0  0  0  0  0  0
  186.4190  177.4360  139.7090 N   0  0  0  0  0  2  0  0  0  0  0  0
  190.7490  175.4050  144.6710 N   0  0  0  0  0  0  0  0  0  0  0  0
  189.0460  176.4950  145.9440 C   0  0  0  0  0  0  0  0  0  0  0  0
  188.1810  176.3990  144.8560 C   0  0  0  0  0  3  0  0  0  0  0  0
  186.9300  176.8620  142.0340 C   0  0  1  0  0  3  0  0  0  0  0  0
  190.3880  174.5770  142.3960 C   0  0  0  0  0  3  0  0  0  0  0  0
  190.3540  176.0100  145.8250 C   0  0  0  0  0  0  0  0  0  0  0  0
  187.9080  175.6610  140.1920 N   0  0  0  0  0  0  0  0  0  0  0  0
  189.9230  175.2870  143.6020 C   0  0  0  0  0  0  0  0  0  0  0  0
  188.5920  177.0200  147.1120 F   0  0  0  0  0  0  0  0  0  0  0  0
  186.9260  176.6130  140.5660 C   0  0  0  0  0  0  0  0  0  0  0  0
  188.6190  175.8270  143.6550 C   0  0  0  0  0  0  0  0  0  0  0  0
  189.6520  174.5200  141.3270 N   0  0  0  0  0  0  0  0  0  0  0  0
  190.7360  175.2780  148.0120 F   0  0  0  0  0  0  0  0  0  0  0  0
  191.2830  176.0370  146.9930 C   0  0  1  0  0  3  0  0  0  0  0  0
  192.6400  175.4850  146.5980 C   0  0  0  0  0  1  0  0  0  0  0  0
  185.5660  176.9040  142.5380 N   0  0  0  0  0  2  0  0  0  0  0  0
  184.2740  178.6860  144.6340 N   0  0  0  0  0  0  0  0  0  0  0  0
  185.4620  179.1790  144.7070 C   0  0  0  0  0  0  0  0  0  0  0  0
  184.4410  178.6650  147.4030 O   0  0  0  0  0  0  0  0  0  0  0  0
  186.5660  178.9790  148.4160 C   0  0  0  0  0  1  0  0  0  0  0  0
  185.6560  178.9470  147.2400 C   0  0  0  0  0  0  0  0  0  0  0  0
  186.1880  179.2340  145.9420 N   0  0  0  0  0  2  0  0  0  0  0  0
  183.8100  178.4610  143.2810 C   0  0  0  0  0  2  0  0  0  0  0  0
  186.2890  179.4150  143.1400 S   0  0  0  0  0  0  0  0  0  0  0  0
  185.0620  178.2750  142.4270 C   0  0  1  0  0  3  0  0  0  0  0  0
  1 15  1  0  0  0  0
  2  1  1  6  0  0  0
  2 14  1  0  0  0  0
  3 13  2  0  0  0  0
  4  9  1  0  0  0  0
  5 12  1  0  0  0  0
  6  5  1  0  0  0  0
  7  2  1  0  0  0  0
  7 19  1  1  0  0  0
  8 11  1  0  0  0  0
  9  5  2  0  0  0  0
  9 17  1  0  0  0  0
 10 13  1  0  0  0  0
 10  1  2  0  0  0  0
 11 14  1  0  0  0  0
 11  4  2  0  0  0  0
 13  7  1  0  0  0  0
 14  6  2  0  0  0  0
 15  8  2  0  0  0  0
 17 18  1  6  0  0  0
 17 16  1  0  0  0  0
 20 21  2  0  0  0  0
 21 25  1  0  0  0  0
 24 22  2  0  0  0  0
 24 23  1  0  0  0  0
 25 24  1  0  0  0  0
 26 20  1  0  0  0  0
 27 21  1  0  0  0  0
 28 19  1  1  0  0  0
 28 27  1  0  0  0  0
 28 26  1  0  0  0  0
M  END
>  <MODEL>
3

>  <REMARK>
 VINA RESULT:      -7.8      3.820      7.468
  Name = 
  3 active torsions:
  status: ('A' for Active; 'I' for Inactive)
    1  A    between atoms: C_14  and  N_28
    2  A    between atoms: C_17  and  C_24
    3  A    between atoms: C_22  and  N_28
                            x       y       z     vdW  Elec       q    Type
                         _______ _______ _______ _____ _____    ______ ____

>  <TORSDO>
F 3

$$$$
=
 OpenBabel11062419543D

 28 31  0  0  1  0  0  0  0  0999 V2000
  187.4950  176.5630  141.1910 C   0  0  0  0  0  0  0  0  0  0  0  0
  188.4370  176.6650  142.3530 C   0  0  2  0  0  3  0  0  0  0  0  0
  189.2060  173.7230  140.4740 N   0  0  0  0  0  2  0  0  0  0  0  0
  185.7850  177.9560  144.7020 N   0  0  0  0  0  0  0  0  0  0  0  0
  187.7300  177.4590  145.9990 C   0  0  0  0  0  0  0  0  0  0  0  0
  188.3780  177.0200  144.8460 C   0  0  0  0  0  3  0  0  0  0  0  0
  189.1080  175.2920  142.3510 C   0  0  1  0  0  3  0  0  0  0  0  0
  185.6950  177.6710  142.2730 C   0  0  0  0  0  3  0  0  0  0  0  0
  186.4050  177.9060  145.9130 C   0  0  0  0  0  0  0  0  0  0  0  0
  187.7670  175.6010  140.3760 N   0  0  0  0  0  0  0  0  0  0  0  0
  186.3980  177.5470  143.5630 C   0  0  0  0  0  0  0  0  0  0  0  0
  188.4080  177.4840  147.1760 F   0  0  0  0  0  0  0  0  0  0  0  0
  188.8350  174.8640  140.9510 C   0  0  0  0  0  0  0  0  0  0  0  0
  187.7080  177.0220  143.6170 C   0  0  0  0  0  0  0  0  0  0  0  0
  186.2200  177.2110  141.1780 N   0  0  0  0  0  0  0  0  0  0  0  0
  186.0900  179.7630  147.2980 F   0  0  0  0  0  0  0  0  0  0  0  0
  185.7080  178.4460  147.1170 C   0  0  1  0  0  3  0  0  0  0  0  0
  184.2030  178.3560  146.9370 C   0  0  0  0  0  1  0  0  0  0  0  0
  190.5410  175.4100  142.5680 N   0  0  0  0  0  2  0  0  0  0  0  0
  192.4620  174.9570  144.8780 N   0  0  0  0  0  0  0  0  0  0  0  0
  191.3690  174.7730  145.5330 C   0  0  0  0  0  0  0  0  0  0  0  0
  193.1300  176.5610  147.0400 O   0  0  0  0  0  0  0  0  0  0  0  0
  191.4170  177.1910  148.5610 C   0  0  0  0  0  1  0  0  0  0  0  0
  191.9330  176.4200  147.3980 C   0  0  0  0  0  0  0  0  0  0  0  0
  191.0470  175.5320  146.7070 N   0  0  0  0  0  2  0  0  0  0  0  0
  192.4920  174.3070  143.5850 C   0  0  0  0  0  2  0  0  0  0  0  0
  190.1200  173.8180  144.6830 S   0  0  0  0  0  0  0  0  0  0  0  0
  191.0370  174.1600  143.1490 C   0  0  1  0  0  3  0  0  0  0  0  0
  2  1  1  6  0  0  0
  2 14  1  0  0  0  0
  3 13  2  0  0  0  0
  4  9  1  0  0  0  0
  5 12  1  0  0  0  0
  6  5  1  0  0  0  0
  7  2  1  0  0  0  0
  7 19  1  6  0  0  0
  8 11  1  0  0  0  0
  9  5  2  0  0  0  0
  9 17  1  0  0  0  0
 10 13  1  0  0  0  0
 10  1  2  0  0  0  0
 11 14  1  0  0  0  0
 11  4  2  0  0  0  0
 13  7  1  0  0  0  0
 14  6  2  0  0  0  0
 15  1  1  0  0  0  0
 15  8  2  0  0  0  0
 17 18  1  6  0  0  0
 17 16  1  0  0  0  0
 20 21  2  0  0  0  0
 21 25  1  0  0  0  0
 22 24  2  0  0  0  0
 24 23  1  0  0  0  0
 25 24  1  0  0  0  0
 26 20  1  0  0  0  0
 27 21  1  0  0  0  0
 28 19  1  1  0  0  0
 28 26  1  0  0  0  0
 28 27  1  0  0  0  0
M  END
>  <MODEL>
4

>  <REMARK>
 VINA RESULT:      -7.8      3.009      4.650
  Name = 
  3 active torsions:
  status: ('A' for Active; 'I' for Inactive)
    1  A    between atoms: C_14  and  N_28
    2  A    between atoms: C_17  and  C_24
    3  A    between atoms: C_22  and  N_28
                            x       y       z     vdW  Elec       q    Type
                         _______ _______ _______ _____ _____    ______ ____

>  <TORSDO>
F 3

$$$$
=
 OpenBabel11062419543D

 28 31  0  0  1  0  0  0  0  0999 V2000
  189.2740  172.8030  142.0540 C   0  0  0  0  0  0  0  0  0  0  0  0
  188.6570  174.0340  142.6460 C   0  0  2  0  0  3  0  0  0  0  0  0
  188.4960  174.2380  139.0810 N   0  0  0  0  0  2  0  0  0  0  0  0
  191.2000  174.2710  145.4200 N   0  0  0  0  0  0  0  0  0  0  0  0
  189.9000  176.2770  145.4480 C   0  0  0  0  0  0  0  0  0  0  0  0
  189.1830  175.8190  144.3440 C   0  0  0  0  0  3  0  0  0  0  0  0
  188.5040  174.9420  141.4260 C   0  0  1  0  0  3  0  0  0  0  0  0
  190.8020  172.4470  143.8370 C   0  0  0  0  0  3  0  0  0  0  0  0
  190.9390  175.4920  145.9650 C   0  0  0  0  0  0  0  0  0  0  0  0
  189.1560  172.7180  140.7720 N   0  0  0  0  0  0  0  0  0  0  0  0
  190.5090  173.7970  144.3540 C   0  0  0  0  0  0  0  0  0  0  0  0
  189.5520  177.4560  146.0250 F   0  0  0  0  0  0  0  0  0  0  0  0
  188.5650  173.9320  140.3340 C   0  0  0  0  0  0  0  0  0  0  0  0
  189.5020  174.5880  143.7570 C   0  0  0  0  0  0  0  0  0  0  0  0
  190.2170  171.9980  142.7680 N   0  0  0  0  0  0  0  0  0  0  0  0
  191.5430  174.9460  148.1570 F   0  0  0  0  0  0  0  0  0  0  0  0
  191.6790  175.9230  147.1870 C   0  0  1  0  0  3  0  0  0  0  0  0
  193.1450  176.1400  146.8630 C   0  0  0  0  0  1  0  0  0  0  0  0
  187.2090  175.6030  141.4250 N   0  0  0  0  0  2  0  0  0  0  0  0
  185.7300  178.1660  142.1190 N   0  0  0  0  0  0  0  0  0  0  0  0
  186.7760  178.3780  142.8390 C   0  0  0  0  0  0  0  0  0  0  0  0
  184.3680  178.9250  144.4130 O   0  0  0  0  0  0  0  0  0  0  0  0
  185.5660  179.0370  146.4610 C   0  0  0  0  0  1  0  0  0  0  0  0
  185.4870  178.8650  144.9860 C   0  0  0  0  0  0  0  0  0  0  0  0
  186.6910  178.6300  144.2480 N   0  0  0  0  0  2  0  0  0  0  0  0
  186.0190  177.6630  140.7930 C   0  0  0  0  0  2  0  0  0  0  0  0
  188.3330  177.9500  142.0720 S   0  0  0  0  0  0  0  0  0  0  0  0
  187.3690  176.9570  140.8900 C   0  0  1  0  0  3  0  0  0  0  0  0
  1 15  1  0  0  0  0
  2  1  1  6  0  0  0
  2 14  1  0  0  0  0
  3 13  2  0  0  0  0
  4  9  1  0  0  0  0
  5  9  2  0  0  0  0
  5 12  1  0  0  0  0
  6  5  1  0  0  0  0
  7 19  1  1  0  0  0
  7  2  1  0  0  0  0
  8 11  1  0  0  0  0
  9 17  1  0  0  0  0
 10  1  2  0  0  0  0
 11  4  2  0  0  0  0
 13 10  1  0  0  0  0
 13  7  1  0  0  0  0
 14  6  2  0  0  0  0
 14 11  1  0  0  0  0
 15  8  2  0  0  0  0
 17 18  1  6  0  0  0
 17 16  1  0  0  0  0
 20 21  2  0  0  0  0
 21 25  1  0  0  0  0
 22 24  2  0  0  0  0
 24 23  1  0  0  0  0
 25 24  1  0  0  0  0
 26 28  1  0  0  0  0
 26 20  1  0  0  0  0
 27 21  1  0  0  0  0
 28 19  1  1  0  0  0
 28 27  1  0  0  0  0
M  END
>  <MODEL>
5

>  <REMARK>
 VINA RESULT:      -7.6      4.174      7.668
  Name = 
  3 active torsions:
  status: ('A' for Active; 'I' for Inactive)
    1  A    between atoms: C_14  and  N_28
    2  A    between atoms: C_17  and  C_24
    3  A    between atoms: C_22  and  N_28
                            x       y       z     vdW  Elec       q    Type
                         _______ _______ _______ _____ _____    ______ ____

>  <TORSDO>
F 3

$$$$
=
 OpenBabel11062419543D

 28 31  0  0  1  0  0  0  0  0999 V2000
  189.1340  172.9600  142.4390 C   0  0  0  0  0  0  0  0  0  0  0  0
  188.5950  174.2630  142.9450 C   0  0  2  0  0  3  0  0  0  0  0  0
  188.3920  174.2140  139.3760 N   0  0  0  0  0  2  0  0  0  0  0  0
  191.1890  174.5590  145.6650 N   0  0  0  0  0  0  0  0  0  0  0  0
  190.0030  176.6310  145.5590 C   0  0  0  0  0  0  0  0  0  0  0  0
  189.2450  176.1350  144.5000 C   0  0  0  0  0  3  0  0  0  0  0  0
  188.4750  175.0860  141.6630 C   0  0  1  0  0  3  0  0  0  0  0  0
  190.6660  172.6490  144.2260 C   0  0  0  0  0  3  0  0  0  0  0  0
  191.0040  175.8280  146.1210 C   0  0  0  0  0  0  0  0  0  0  0  0
  188.9920  172.7880  141.1680 N   0  0  0  0  0  0  0  0  0  0  0  0
  190.4560  174.0470  144.6450 C   0  0  0  0  0  0  0  0  0  0  0  0
  189.7300  177.8670  146.0520 F   0  0  0  0  0  0  0  0  0  0  0  0
  188.4630  173.9970  140.6470 C   0  0  0  0  0  0  0  0  0  0  0  0
  189.4870  174.8480  144.0030 C   0  0  0  0  0  0  0  0  0  0  0  0
  190.0410  172.1570  143.2000 N   0  0  0  0  0  0  0  0  0  0  0  0
  191.6030  175.4160  148.3440 F   0  0  0  0  0  0  0  0  0  0  0  0
  191.7860  176.3050  147.3000 C   0  0  1  0  0  3  0  0  0  0  0  0
  193.2580  176.4060  146.9470 C   0  0  0  0  0  1  0  0  0  0  0  0
  187.2190  175.8180  141.6270 N   0  0  0  0  0  2  0  0  0  0  0  0
  185.4260  177.7150  140.0700 N   0  0  0  0  0  0  0  0  0  0  0  0
  185.2200  178.2140  141.2390 C   0  0  0  0  0  0  0  0  0  0  0  0
  182.6640  177.8560  139.8570 O   0  0  0  0  0  0  0  0  0  0  0  0
  181.3900  178.2350  141.8260 C   0  0  0  0  0  1  0  0  0  0  0  0
  182.6750  178.1310  141.0850 C   0  0  0  0  0  0  0  0  0  0  0  0
  183.9030  178.3440  141.7910 N   0  0  0  0  0  2  0  0  0  0  0  0
  186.8140  177.4100  139.7940 C   0  0  0  0  0  2  0  0  0  0  0  0
  186.6700  178.3620  142.2740 S   0  0  0  0  0  0  0  0  0  0  0  0
  187.4770  177.1790  141.1500 C   0  0  1  0  0  3  0  0  0  0  0  0
  1 15  1  0  0  0  0
  2  1  1  6  0  0  0
  2 14  1  0  0  0  0
  3 13  2  0  0  0  0
  4  9  1  0  0  0  0
  5 12  1  0  0  0  0
  5  9  2  0  0  0  0
  6  5  1  0  0  0  0
  7 19  1  1  0  0  0
  7  2  1  0  0  0  0
  8 11  1  0  0  0  0
  9 17  1  0  0  0  0
 10  1  2  0  0  0  0
 11  4  2  0  0  0  0
 13 10  1  0  0  0  0
 13  7  1  0  0  0  0
 14  6  2  0  0  0  0
 14 11  1  0  0  0  0
 15  8  2  0  0  0  0
 17 18  1  6  0  0  0
 17 16  1  0  0  0  0
 20 21  2  0  0  0  0
 21 25  1  0  0  0  0
 21 27  1  0  0  0  0
 22 24  2  0  0  0  0
 24 25  1  0  0  0  0
 24 23  1  0  0  0  0
 26 20  1  0  0  0  0
 26 28  1  0  0  0  0
 28 19  1  1  0  0  0
 28 27  1  0  0  0  0
M  END
>  <MODEL>
6

>  <REMARK>
 VINA RESULT:      -7.5      4.444      8.371
  Name = 
  3 active torsions:
  status: ('A' for Active; 'I' for Inactive)
    1  A    between atoms: C_14  and  N_28
    2  A    between atoms: C_17  and  C_24
    3  A    between atoms: C_22  and  N_28
                            x       y       z     vdW  Elec       q    Type
                         _______ _______ _______ _____ _____    ______ ____

>  <TORSDO>
F 3

$$$$
=
 OpenBabel11062419543D

 28 31  0  0  1  0  0  0  0  0999 V2000
  189.5950  174.9810  145.7470 C   0  0  0  0  0  0  0  0  0  0  0  0
  189.1860  175.4410  144.3810 C   0  0  2  0  0  3  0  0  0  0  0  0
  192.7200  174.9060  144.4290 N   0  0  0  0  0  2  0  0  0  0  0  0
  186.6370  177.8860  145.7030 N   0  0  0  0  0  0  0  0  0  0  0  0
  186.8760  178.2770  143.3570 C   0  0  0  0  0  0  0  0  0  0  0  0
  187.8440  177.2770  143.2960 C   0  0  0  0  0  3  0  0  0  0  0  0
  190.5300  175.7450  143.7220 C   0  0  1  0  0  3  0  0  0  0  0  0
  187.8650  176.1350  146.8930 C   0  0  0  0  0  3  0  0  0  0  0  0
  186.2920  178.5920  144.5910 C   0  0  0  0  0  0  0  0  0  0  0  0
  190.8360  174.6380  145.8380 N   0  0  0  0  0  0  0  0  0  0  0  0
  187.5680  176.9000  145.6680 C   0  0  0  0  0  0  0  0  0  0  0  0
  186.4860  178.8980  142.2130 F   0  0  0  0  0  0  0  0  0  0  0  0
  191.4390  174.9470  144.5910 C   0  0  0  0  0  0  0  0  0  0  0  0
  188.2320  176.6000  144.4580 C   0  0  0  0  0  0  0  0  0  0  0  0
  188.8090  175.2430  146.9130 N   0  0  0  0  0  0  0  0  0  0  0  0
  185.5820  180.7270  143.9560 F   0  0  0  0  0  0  0  0  0  0  0  0
  185.2040  179.6090  144.6770 C   0  0  1  0  0  3  0  0  0  0  0  0
  183.9090  179.0410  144.1250 C   0  0  0  0  0  1  0  0  0  0  0  0
  190.5710  175.2400  142.3590 N   0  0  0  0  0  2  0  0  0  0  0  0
  189.1650  173.9610  139.9870 N   0  0  0  0  0  0  0  0  0  0  0  0
  190.2220  173.2240  139.9710 C   0  0  0  0  0  0  0  0  0  0  0  0
  189.6320  174.1630  137.2600 O   0  0  0  0  0  0  0  0  0  0  0  0
  191.7400  173.4670  136.4130 C   0  0  0  0  0  1  0  0  0  0  0  0
  190.7350  173.6070  137.5010 C   0  0  0  0  0  0  0  0  0  0  0  0
  191.0500  173.1070  138.8060 N   0  0  0  0  0  2  0  0  0  0  0  0
  188.6160  174.1740  141.3090 C   0  0  0  0  0  2  0  0  0  0  0  0
  190.8050  172.6870  141.5720 S   0  0  0  0  0  0  0  0  0  0  0  0
  189.7780  174.0100  142.2850 C   0  0  1  0  0  3  0  0  0  0  0  0
  1 10  2  0  0  0  0
  1 15  1  0  0  0  0
  2 14  1  1  0  0  0
  2  1  1  0  0  0  0
  3 13  2  0  0  0  0
  5  9  1  0  0  0  0
  6  5  2  0  0  0  0
  6 14  1  0  0  0  0
  7 19  1  6  0  0  0
  7  2  1  0  0  0  0
  7 13  1  0  0  0  0
  8 15  2  0  0  0  0
  9 17  1  0  0  0  0
  9  4  2  0  0  0  0
 11  4  1  0  0  0  0
 11  8  1  0  0  0  0
 12  5  1  0  0  0  0
 13 10  1  0  0  0  0
 14 11  2  0  0  0  0
 16 17  1  0  0  0  0
 17 18  1  6  0  0  0
 20 26  1  0  0  0  0
 21 20  2  0  0  0  0
 21 27  1  0  0  0  0
 22 24  2  0  0  0  0
 23 24  1  0  0  0  0
 24 25  1  0  0  0  0
 25 21  1  0  0  0  0
 26 28  1  0  0  0  0
 27 28  1  0  0  0  0
 28 19  1  6  0  0  0
M  END
>  <MODEL>
7

>  <REMARK>
 VINA RESULT:      -7.5      3.806      4.946
  Name = 
  3 active torsions:
  status: ('A' for Active; 'I' for Inactive)
    1  A    between atoms: C_14  and  N_28
    2  A    between atoms: C_17  and  C_24
    3  A    between atoms: C_22  and  N_28
                            x       y       z     vdW  Elec       q    Type
                         _______ _______ _______ _____ _____    ______ ____

>  <TORSDO>
F 3

$$$$
=
 OpenBabel11062419543D

 28 31  0  0  1  0  0  0  0  0999 V2000
  190.1520  172.0610  143.1650 C   0  0  0  0  0  0  0  0  0  0  0  0
  190.0170  173.5010  143.5570 C   0  0  2  0  0  3  0  0  0  0  0  0
  188.2690  172.9500  140.4880 N   0  0  0  0  0  2  0  0  0  0  0  0
  193.5540  173.7380  144.8400 N   0  0  0  0  0  0  0  0  0  0  0  0
  192.6460  175.9480  144.7910 C   0  0  0  0  0  0  0  0  0  0  0  0
  191.4580  175.4410  144.2700 C   0  0  0  0  0  3  0  0  0  0  0  0
  189.4270  174.1290  142.2950 C   0  0  1  0  0  3  0  0  0  0  0  0
  192.2740  171.7570  144.1870 C   0  0  0  0  0  3  0  0  0  0  0  0
  193.7100  175.0740  145.0500 C   0  0  0  0  0  0  0  0  0  0  0  0
  189.4520  171.7270  142.1340 N   0  0  0  0  0  0  0  0  0  0  0  0
  192.4040  173.2170  144.3460 C   0  0  0  0  0  0  0  0  0  0  0  0
  192.7360  177.2730  145.0770 F   0  0  0  0  0  0  0  0  0  0  0  0
  188.8680  172.9190  141.6320 C   0  0  0  0  0  0  0  0  0  0  0  0
  191.3320  174.0720  144.0040 C   0  0  0  0  0  0  0  0  0  0  0  0
  191.2190  171.2340  143.6390 N   0  0  0  0  0  0  0  0  0  0  0  0
  194.6690  176.1230  146.9060 F   0  0  0  0  0  0  0  0  0  0  0  0
  194.9700  175.5770  145.6720 C   0  0  1  0  0  3  0  0  0  0  0  0
  195.9670  174.4440  145.8270 C   0  0  0  0  0  1  0  0  0  0  0  0
  188.3580  175.0590  142.6230 N   0  0  0  0  0  2  0  0  0  0  0  0
  186.3910  177.2720  141.9370 N   0  0  0  0  0  0  0  0  0  0  0  0
  186.9460  177.8500  142.9450 C   0  0  0  0  0  0  0  0  0  0  0  0
  184.0340  178.0660  143.1640 O   0  0  0  0  0  0  0  0  0  0  0  0
  184.1210  178.8130  145.4170 C   0  0  0  0  0  1  0  0  0  0  0  0
  184.7570  178.3760  144.1450 C   0  0  0  0  0  0  0  0  0  0  0  0
  186.1860  178.3130  144.0690 N   0  0  0  0  0  2  0  0  0  0  0  0
  187.3260  176.6320  141.0360 C   0  0  0  0  0  2  0  0  0  0  0  0
  188.7230  177.6820  143.0410 S   0  0  0  0  0  0  0  0  0  0  0  0
  188.5610  176.2990  141.8700 C   0  0  1  0  0  3  0  0  0  0  0  0
  1 15  1  0  0  0  0
  2  1  1  6  0  0  0
  2 14  1  0  0  0  0
  3 13  2  0  0  0  0
  4  9  1  0  0  0  0
  5  9  2  0  0  0  0
  5 12  1  0  0  0  0
  6  5  1  0  0  0  0
  7 19  1  1  0  0  0
  7  2  1  0  0  0  0
  8 11  1  0  0  0  0
  9 17  1  0  0  0  0
 10  1  2  0  0  0  0
 11  4  2  0  0  0  0
 13 10  1  0  0  0  0
 13  7  1  0  0  0  0
 14  6  2  0  0  0  0
 14 11  1  0  0  0  0
 15  8  2  0  0  0  0
 17 18  1  1  0  0  0
 17 16  1  0  0  0  0
 20 21  2  0  0  0  0
 21 27  1  0  0  0  0
 21 25  1  0  0  0  0
 22 24  2  0  0  0  0
 24 23  1  0  0  0  0
 25 24  1  0  0  0  0
 26 28  1  0  0  0  0
 26 20  1  0  0  0  0
 28 19  1  1  0  0  0
 28 27  1  0  0  0  0
M  END
>  <MODEL>
8

>  <REMARK>
 VINA RESULT:      -7.4      4.235      8.529
  Name = 
  3 active torsions:
  status: ('A' for Active; 'I' for Inactive)
    1  A    between atoms: C_14  and  N_28
    2  A    between atoms: C_17  and  C_24
    3  A    between atoms: C_22  and  N_28
                            x       y       z     vdW  Elec       q    Type
                         _______ _______ _______ _____ _____    ______ ____

>  <TORSDO>
F 3

$$$$
=
 OpenBabel11062419543D

 28 31  0  0  1  0  0  0  0  0999 V2000
  189.3190  175.1570  146.5700 C   0  0  0  0  0  0  0  0  0  0  0  0
  189.3170  175.2030  145.0720 C   0  0  2  0  0  3  0  0  0  0  0  0
  192.6830  174.8810  146.2310 N   0  0  0  0  0  2  0  0  0  0  0  0
  186.5730  177.7840  144.9140 N   0  0  0  0  0  0  0  0  0  0  0  0
  187.4610  177.5280  142.7100 C   0  0  0  0  0  0  0  0  0  0  0  0
  188.3800  176.6000  143.1970 C   0  0  0  0  0  3  0  0  0  0  0  0
  190.8000  175.3820  144.7480 C   0  0  1  0  0  3  0  0  0  0  0  0
  187.3730  176.4920  146.8320 C   0  0  0  0  0  3  0  0  0  0  0  0
  186.5680  178.1400  143.6000 C   0  0  0  0  0  0  0  0  0  0  0  0
  190.4770  174.9160  147.0880 N   0  0  0  0  0  0  0  0  0  0  0  0
  187.4490  176.8750  145.4100 C   0  0  0  0  0  0  0  0  0  0  0  0
  187.4210  177.7900  141.3780 F   0  0  0  0  0  0  0  0  0  0  0  0
  191.4090  174.9000  146.0190 C   0  0  0  0  0  0  0  0  0  0  0  0
  188.4120  176.2880  144.5610 C   0  0  0  0  0  0  0  0  0  0  0  0
  188.2500  175.6900  147.3560 N   0  0  0  0  0  0  0  0  0  0  0  0
  184.5980  178.3730  142.3630 F   0  0  0  0  0  0  0  0  0  0  0  0
  185.5280  179.0850  143.0990 C   0  0  1  0  0  3  0  0  0  0  0  0
  184.8510  179.7860  144.2630 C   0  0  0  0  0  1  0  0  0  0  0  0
  191.2010  174.5250  143.6440 N   0  0  0  0  0  2  0  0  0  0  0  0
  193.5320  176.4150  143.1690 N   0  0  0  0  0  0  0  0  0  0  0  0
  193.9960  175.4110  142.5090 C   0  0  0  0  0  0  0  0  0  0  0  0
  196.0800  176.4850  144.2630 O   0  0  0  0  0  0  0  0  0  0  0  0
  197.5060  174.6120  143.9430 C   0  0  0  0  0  1  0  0  0  0  0  0
  196.2570  175.3780  143.6910 C   0  0  0  0  0  0  0  0  0  0  0  0
  195.2750  174.8330  142.8020 N   0  0  0  0  0  2  0  0  0  0  0  0
  192.1320  176.6860  142.9230 C   0  0  0  0  0  2  0  0  0  0  0  0
  192.8050  174.5460  141.4960 S   0  0  0  0  0  0  0  0  0  0  0  0
  191.5120  175.3620  142.4830 C   0  0  1  0  0  3  0  0  0  0  0  0
  1 10  2  0  0  0  0
  1 15  1  0  0  0  0
  2 14  1  1  0  0  0
  2  1  1  0  0  0  0
  4 11  1  0  0  0  0
  5  6  2  0  0  0  0
  5  9  1  0  0  0  0
  6 14  1  0  0  0  0
  7 19  1  6  0  0  0
  7  2  1  0  0  0  0
  7 13  1  0  0  0  0
  8 15  2  0  0  0  0
  9  4  2  0  0  0  0
 11  8  1  0  0  0  0
 12  5  1  0  0  0  0
 13  3  2  0  0  0  0
 13 10  1  0  0  0  0
 14 11  2  0  0  0  0
 16 17  1  0  0  0  0
 17  9  1  0  0  0  0
 17 18  1  1  0  0  0
 21 25  1  0  0  0  0
 21 20  2  0  0  0  0
 24 23  1  0  0  0  0
 24 22  2  0  0  0  0
 25 24  1  0  0  0  0
 26 20  1  0  0  0  0
 27 28  1  0  0  0  0
 27 21  1  0  0  0  0
 28 26  1  0  0  0  0
 28 19  1  1  0  0  0
M  END
>  <MODEL>
9

>  <REMARK>
 VINA RESULT:      -7.3      2.152      2.949
  Name = 
  3 active torsions:
  status: ('A' for Active; 'I' for Inactive)
    1  A    between atoms: C_14  and  N_28
    2  A    between atoms: C_17  and  C_24
    3  A    between atoms: C_22  and  N_28
                            x       y       z     vdW  Elec       q    Type
                         _______ _______ _______ _____ _____    ______ ____

>  <TORSDO>
F 3

$$$$
