=
 OpenBabel11062422463D

 29 31  0  0  1  0  0  0  0  0999 V2000
  188.5810  175.1130  143.5930 O   0  0  0  0  0  0  0  0  0  0  0  0
  187.7050  175.5770  142.5910 C   0  0  2  0  0  3  0  0  0  0  0  0
  187.4250  174.5370  141.7070 O   0  0  0  0  0  1  0  0  0  0  0  0
  187.7920  177.0480  145.0200 C   0  0  2  0  0  3  0  0  0  0  0  0
  188.9120  176.1060  144.5670 C   0  0  2  0  0  0  0  0  0  0  0  0
  188.3460  176.7210  141.8390 C   0  0  0  0  0  2  0  0  0  0  0  0
  188.9390  177.5870  144.1540 C   0  0  1  0  0  3  0  0  0  0  0  0
  188.3770  177.9170  142.7690 C   0  0  0  0  0  2  0  0  0  0  0  0
  189.9660  175.6850  145.6100 C   0  0  1  0  0  3  0  0  0  0  0  0
  189.0340  174.4580  147.5370 C   0  0  0  0  0  2  0  0  0  0  0  0
  189.5710  174.4230  146.3200 C   0  0  0  0  0  3  0  0  0  0  0  0
  191.3930  175.5490  145.0620 C   0  0  2  0  0  3  0  0  0  0  0  0
  191.8330  173.8130  144.7090 S   0  0  0  0  0  0  0  0  0  0  0  0
  191.8910  174.1170  142.9220 C   0  0  0  0  0  1  0  0  0  0  0  0
  193.0820  175.4550  146.7890 O   0  0  0  0  0  1  0  0  0  0  0  0
  192.4680  176.3000  145.8610 C   0  0  1  0  0  3  0  0  0  0  0  0
  193.5230  176.8860  144.9360 C   0  0  0  0  0  2  0  0  0  0  0  0
  195.1010  175.3060  144.1140 O   0  0  0  0  0  0  0  0  0  0  0  0
  195.7840  176.5330  144.0560 C   0  0  0  0  0  2  0  0  0  0  0  0
  194.8630  176.2100  145.1650 C   0  0  1  0  0  3  0  0  0  0  0  0
  187.9790  177.7000  146.7150 S   0  0  0  0  0  0  0  0  0  0  0  0
  186.2790  178.2590  146.7620 C   0  0  0  0  0  0  0  0  0  0  0  0
  185.9420  179.1990  147.5670 N   0  0  0  0  0  2  0  0  0  0  0  0
  185.2590  177.5900  145.8870 C   0  0  1  0  0  3  0  0  0  0  0  0
  184.5410  176.6260  146.6010 O   0  0  0  0  0  1  0  0  0  0  0  0
  184.3190  178.5870  145.2030 C   0  0  0  0  0  2  0  0  0  0  0  0
  185.5950  180.4050  144.0560 O   0  0  0  0  0  1  0  0  0  0  0  0
  184.7950  178.6170  142.8660 O   0  0  0  0  0  0  0  0  0  0  0  0
  184.9080  179.2010  143.9740 C   0  0  0  0  0  0  0  0  0  0  0  0
  1  5  1  0  0  0  0
  2  3  1  6  0  0  0
  2  1  1  0  0  0  0
  4 21  1  1  0  0  0
  5  4  1  0  0  0  0
  5  9  1  1  0  0  0
  6  2  1  0  0  0  0
  6  8  1  0  0  0  0
  7  8  1  6  0  0  0
  7  5  1  0  0  0  0
  7  4  1  0  0  0  0
  9 11  1  6  0  0  0
 11 10  2  0  0  0  0
 12 13  1  1  0  0  0
 12  9  1  0  0  0  0
 12 16  1  0  0  0  0
 14 13  1  0  0  0  0
 16 15  1  1  0  0  0
 17 16  1  0  0  0  0
 18 20  1  0  0  0  0
 19 18  1  0  0  0  0
 19 20  1  0  0  0  0
 20 17  1  6  0  0  0
 21 22  1  0  0  0  0
 22 23  2  0  0  0  0
 24 25  1  1  0  0  0
 24 22  1  0  0  0  0
 26 24  1  0  0  0  0
 28 29  2  0  0  0  0
 29 27  1  0  0  0  0
 29 26  1  0  0  0  0
M  END
>  <MODEL>
1

>  <REMARK>
 VINA RESULT:      -5.8      0.000      0.000
  Name = 
  12 active torsions:
  status: ('A' for Active; 'I' for Inactive)
    1  A    between atoms: C_1  and  C_18
    2  A    between atoms: C_1  and  C_23
    3  A    between atoms: S_2  and  C_16
    4  A    between atoms: C_10  and  S_28
    5  A    between atoms: C_11  and  C_12
    6  A    between atoms: C_11  and  S_28
    7  A    between atoms: C_12  and  C_21
    8  A    between atoms: C_13  and  C_16
    9  A    between atoms: C_13  and  C_17
   10  A    between atoms: C_13  and  C_19
   11  A    between atoms: C_16  and  C_23
   12  A    between atoms: C_21  and  C_22
                            x       y       z     vdW  Elec       q    Type
                         _______ _______ _______ _____ _____    ______ ____

>  <TORSDO>
F 12

$$$$
=
 OpenBabel11062422463D

 29 31  0  0  1  0  0  0  0  0999 V2000
  189.7520  174.5230  142.7450 O   0  0  0  0  0  0  0  0  0  0  0  0
  190.0690  173.1790  142.4620 C   0  0  2  0  0  3  0  0  0  0  0  0
  189.8160  172.9200  141.1160 O   0  0  0  0  0  1  0  0  0  0  0  0
  191.2640  174.3340  144.7650 C   0  0  2  0  0  3  0  0  0  0  0  0
  190.0010  174.8930  144.1030 C   0  0  2  0  0  0  0  0  0  0  0  0
  189.2300  172.2610  143.3190 C   0  0  0  0  0  2  0  0  0  0  0  0
  189.8850  173.8300  145.2090 C   0  0  1  0  0  3  0  0  0  0  0  0
  189.7340  172.3800  144.7430 C   0  0  0  0  0  2  0  0  0  0  0  0
  189.5500  176.3150  144.4950 C   0  0  1  0  0  3  0  0  0  0  0  0
  190.9930  178.2030  143.8310 C   0  0  0  0  0  2  0  0  0  0  0  0
  190.0310  177.3400  143.5110 C   0  0  0  0  0  3  0  0  0  0  0  0
  188.0390  176.4720  144.7130 C   0  0  2  0  0  3  0  0  0  0  0  0
  187.3010  177.6900  143.5720 S   0  0  0  0  0  0  0  0  0  0  0  0
  186.1310  176.4710  142.9140 C   0  0  0  0  0  1  0  0  0  0  0  0
  188.7260  176.8330  147.0010 O   0  0  0  0  0  1  0  0  0  0  0  0
  187.6120  176.6690  146.1750 C   0  0  1  0  0  3  0  0  0  0  0  0
  186.6960  177.8740  146.3170 C   0  0  0  0  0  2  0  0  0  0  0  0
  184.7310  178.4760  147.5160 O   0  0  0  0  0  0  0  0  0  0  0  0
  184.2900  178.3320  146.1890 C   0  0  0  0  0  2  0  0  0  0  0  0
  185.3140  177.4370  146.7690 C   0  0  1  0  0  3  0  0  0  0  0  0
  191.9610  175.3800  146.0900 S   0  0  0  0  0  0  0  0  0  0  0  0
  193.5740  174.6190  145.9370 C   0  0  0  0  0  0  0  0  0  0  0  0
  193.6630  173.3580  145.7180 N   0  0  0  0  0  2  0  0  0  0  0  0
  194.8060  175.4590  146.1100 C   0  0  1  0  0  3  0  0  0  0  0  0
  195.9630  174.7030  145.8990 O   0  0  0  0  0  1  0  0  0  0  0  0
  194.7960  176.7140  145.2320 C   0  0  0  0  0  2  0  0  0  0  0  0
  196.6410  176.9640  143.5640 O   0  0  0  0  0  1  0  0  0  0  0  0
  194.7220  175.8400  143.0130 O   0  0  0  0  0  0  0  0  0  0  0  0
  195.3750  176.4840  143.8730 C   0  0  0  0  0  0  0  0  0  0  0  0
  1  5  1  0  0  0  0
  2  3  1  6  0  0  0
  2  1  1  0  0  0  0
  2  6  1  0  0  0  0
  4  7  1  0  0  0  0
  4 21  1  1  0  0  0
  5  9  1  1  0  0  0
  5  4  1  0  0  0  0
  5  7  1  0  0  0  0
  6  8  1  0  0  0  0
  7  8  1  6  0  0  0
  9 11  1  6  0  0  0
  9 12  1  0  0  0  0
 11 10  2  0  0  0  0
 12 13  1  6  0  0  0
 12 16  1  0  0  0  0
 14 13  1  0  0  0  0
 16 17  1  0  0  0  0
 16 15  1  1  0  0  0
 19 20  1  0  0  0  0
 19 18  1  0  0  0  0
 20 17  1  6  0  0  0
 20 18  1  0  0  0  0
 22 21  1  0  0  0  0
 22 24  1  0  0  0  0
 23 22  2  0  0  0  0
 24 25  1  6  0  0  0
 26 24  1  0  0  0  0
 27 29  1  0  0  0  0
 28 29  2  0  0  0  0
 29 26  1  0  0  0  0
M  END
>  <MODEL>
2

>  <REMARK>
 VINA RESULT:      -5.7      2.756      7.436
  Name = 
  12 active torsions:
  status: ('A' for Active; 'I' for Inactive)
    1  A    between atoms: C_1  and  C_18
    2  A    between atoms: C_1  and  C_23
    3  A    between atoms: S_2  and  C_16
    4  A    between atoms: C_10  and  S_28
    5  A    between atoms: C_11  and  C_12
    6  A    between atoms: C_11  and  S_28
    7  A    between atoms: C_12  and  C_21
    8  A    between atoms: C_13  and  C_16
    9  A    between atoms: C_13  and  C_17
   10  A    between atoms: C_13  and  C_19
   11  A    between atoms: C_16  and  C_23
   12  A    between atoms: C_21  and  C_22
                            x       y       z     vdW  Elec       q    Type
                         _______ _______ _______ _____ _____    ______ ____

>  <TORSDO>
F 12

$$$$
=
 OpenBabel11062422463D

 29 31  0  0  1  0  0  0  0  0999 V2000
  189.5530  174.5690  142.5570 O   0  0  0  0  0  0  0  0  0  0  0  0
  189.8480  173.2550  142.1400 C   0  0  2  0  0  3  0  0  0  0  0  0
  189.4520  173.0930  140.8130 O   0  0  0  0  0  1  0  0  0  0  0  0
  191.2780  174.2530  144.3820 C   0  0  2  0  0  3  0  0  0  0  0  0
  189.9460  174.8410  143.9050 C   0  0  2  0  0  0  0  0  0  0  0  0
  189.1130  172.2630  143.0110 C   0  0  0  0  0  2  0  0  0  0  0  0
  189.9580  173.6960  144.9320 C   0  0  1  0  0  3  0  0  0  0  0  0
  189.7680  172.2820  144.3770 C   0  0  0  0  0  2  0  0  0  0  0  0
  189.5300  176.2220  144.4500 C   0  0  1  0  0  3  0  0  0  0  0  0
  190.8120  178.2440  143.8520 C   0  0  0  0  0  2  0  0  0  0  0  0
  189.9100  177.3270  143.5080 C   0  0  0  0  0  3  0  0  0  0  0  0
  188.0460  176.3450  144.8230 C   0  0  2  0  0  3  0  0  0  0  0  0
  187.1720  177.5630  143.7830 S   0  0  0  0  0  0  0  0  0  0  0  0
  186.3370  176.2610  142.8360 C   0  0  0  0  0  1  0  0  0  0  0  0
  188.5710  177.5160  146.8700 O   0  0  0  0  0  1  0  0  0  0  0  0
  187.7680  176.5130  146.3240 C   0  0  1  0  0  3  0  0  0  0  0  0
  186.3050  176.8440  146.5720 C   0  0  0  0  0  2  0  0  0  0  0  0
  185.7690  179.1600  146.6760 O   0  0  0  0  0  0  0  0  0  0  0  0
  184.7840  178.5460  147.4680 C   0  0  0  0  0  2  0  0  0  0  0  0
  186.1830  178.0690  147.4600 C   0  0  1  0  0  3  0  0  0  0  0  0
  192.1070  175.2080  145.6990 S   0  0  0  0  0  0  0  0  0  0  0  0
  193.4570  175.6630  144.6150 C   0  0  0  0  0  0  0  0  0  0  0  0
  193.3110  175.5650  143.3450 N   0  0  0  0  0  2  0  0  0  0  0  0
  194.7590  176.1150  145.2090 C   0  0  1  0  0  3  0  0  0  0  0  0
  194.6270  177.3710  145.8100 O   0  0  0  0  0  1  0  0  0  0  0  0
  195.3540  175.0940  146.1830 C   0  0  0  0  0  2  0  0  0  0  0  0
  196.6620  172.9680  146.0490 O   0  0  0  0  0  1  0  0  0  0  0  0
  197.0920  174.6900  144.5990 O   0  0  0  0  0  0  0  0  0  0  0  0
  196.4210  174.2480  145.5670 C   0  0  0  0  0  0  0  0  0  0  0  0
  1  5  1  0  0  0  0
  2  3  1  6  0  0  0
  2  1  1  0  0  0  0
  2  6  1  0  0  0  0
  4  7  1  0  0  0  0
  4 21  1  1  0  0  0
  5  4  1  0  0  0  0
  5  9  1  1  0  0  0
  5  7  1  0  0  0  0
  6  8  1  0  0  0  0
  7  8  1  6  0  0  0
  9 11  1  6  0  0  0
  9 12  1  0  0  0  0
 11 10  2  0  0  0  0
 12 13  1  6  0  0  0
 12 16  1  0  0  0  0
 14 13  1  0  0  0  0
 16 17  1  0  0  0  0
 16 15  1  6  0  0  0
 18 20  1  0  0  0  0
 18 19  1  0  0  0  0
 20 17  1  6  0  0  0
 20 19  1  0  0  0  0
 22 24  1  0  0  0  0
 22 21  1  0  0  0  0
 23 22  2  0  0  0  0
 24 25  1  1  0  0  0
 24 26  1  0  0  0  0
 28 29  2  0  0  0  0
 29 27  1  0  0  0  0
 29 26  1  0  0  0  0
M  END
>  <MODEL>
3

>  <REMARK>
 VINA RESULT:      -5.6      2.719      7.648
  Name = 
  12 active torsions:
  status: ('A' for Active; 'I' for Inactive)
    1  A    between atoms: C_1  and  C_18
    2  A    between atoms: C_1  and  C_23
    3  A    between atoms: S_2  and  C_16
    4  A    between atoms: C_10  and  S_28
    5  A    between atoms: C_11  and  C_12
    6  A    between atoms: C_11  and  S_28
    7  A    between atoms: C_12  and  C_21
    8  A    between atoms: C_13  and  C_16
    9  A    between atoms: C_13  and  C_17
   10  A    between atoms: C_13  and  C_19
   11  A    between atoms: C_16  and  C_23
   12  A    between atoms: C_21  and  C_22
                            x       y       z     vdW  Elec       q    Type
                         _______ _______ _______ _____ _____    ______ ____

>  <TORSDO>
F 12

$$$$
=
 OpenBabel11062422463D

 29 31  0  0  1  0  0  0  0  0999 V2000
  191.2310  176.6770  146.2260 O   0  0  0  0  0  0  0  0  0  0  0  0
  190.7360  176.5880  147.5420 C   0  0  2  0  0  3  0  0  0  0  0  0
  191.6700  177.1290  148.4240 O   0  0  0  0  0  1  0  0  0  0  0  0
  188.8390  176.4580  145.4320 C   0  0  2  0  0  3  0  0  0  0  0  0
  190.3310  176.1660  145.2410 C   0  0  2  0  0  0  0  0  0  0  0  0
  190.4840  175.1410  147.8980 C   0  0  0  0  0  2  0  0  0  0  0  0
  189.3650  175.0300  145.6190 C   0  0  1  0  0  3  0  0  0  0  0  0
  189.2780  174.6790  147.1060 C   0  0  0  0  0  2  0  0  0  0  0  0
  190.8780  176.1250  143.8000 C   0  0  1  0  0  3  0  0  0  0  0  0
  191.1210  178.5540  143.4470 C   0  0  0  0  0  2  0  0  0  0  0  0
  191.6840  177.3480  143.4780 C   0  0  0  0  0  3  0  0  0  0  0  0
  191.6860  174.8650  143.4570 C   0  0  2  0  0  3  0  0  0  0  0  0
  193.4290  175.0010  143.9780 S   0  0  0  0  0  0  0  0  0  0  0  0
  193.1970  173.7970  145.3140 C   0  0  0  0  0  1  0  0  0  0  0  0
  191.9750  173.0470  141.8910 O   0  0  0  0  0  1  0  0  0  0  0  0
  191.5180  174.3610  142.0160 C   0  0  1  0  0  3  0  0  0  0  0  0
  190.0630  174.4340  141.5800 C   0  0  0  0  0  2  0  0  0  0  0  0
  188.7360  172.7600  140.5310 O   0  0  0  0  0  0  0  0  0  0  0  0
  188.5180  173.9090  139.7500 C   0  0  0  0  0  2  0  0  0  0  0  0
  189.8430  173.6040  140.3290 C   0  0  1  0  0  3  0  0  0  0  0  0
  187.8690  176.5290  143.8870 S   0  0  0  0  0  0  0  0  0  0  0  0
  186.4520  177.2310  144.7270 C   0  0  0  0  0  0  0  0  0  0  0  0
  186.0250  176.6910  145.8090 N   0  0  0  0  0  2  0  0  0  0  0  0
  185.7540  178.4190  144.1310 C   0  0  1  0  0  3  0  0  0  0  0  0
  185.8590  179.5340  144.9670 O   0  0  0  0  0  1  0  0  0  0  0  0
  186.2380  178.7410  142.7140 C   0  0  0  0  0  2  0  0  0  0  0  0
  183.9690  177.9770  141.9960 O   0  0  0  0  0  1  0  0  0  0  0  0
  185.6250  178.3120  140.4480 O   0  0  0  0  0  0  0  0  0  0  0  0
  185.2680  178.3270  141.6540 C   0  0  0  0  0  0  0  0  0  0  0  0
  1  2  1  0  0  0  0
  2  6  1  0  0  0  0
  2  3  1  1  0  0  0
  4 21  1  6  0  0  0
  4  7  1  0  0  0  0
  5  9  1  6  0  0  0
  5  4  1  0  0  0  0
  5  7  1  0  0  0  0
  5  1  1  0  0  0  0
  7  8  1  1  0  0  0
  8  6  1  0  0  0  0
  9 11  1  1  0  0  0
 10 11  2  0  0  0  0
 12  9  1  0  0  0  0
 12 13  1  6  0  0  0
 13 14  1  0  0  0  0
 16 15  1  1  0  0  0
 16 12  1  0  0  0  0
 17 16  1  0  0  0  0
 19 20  1  0  0  0  0
 19 18  1  0  0  0  0
 20 18  1  0  0  0  0
 20 17  1  1  0  0  0
 21 22  1  0  0  0  0
 22 23  2  0  0  0  0
 24 22  1  0  0  0  0
 24 25  1  1  0  0  0
 26 24  1  0  0  0  0
 28 29  2  0  0  0  0
 29 27  1  0  0  0  0
 29 26  1  0  0  0  0
M  END
>  <MODEL>
4

>  <REMARK>
 VINA RESULT:      -5.5      2.382      4.682
  Name = 
  12 active torsions:
  status: ('A' for Active; 'I' for Inactive)
    1  A    between atoms: C_1  and  C_18
    2  A    between atoms: C_1  and  C_23
    3  A    between atoms: S_2  and  C_16
    4  A    between atoms: C_10  and  S_28
    5  A    between atoms: C_11  and  C_12
    6  A    between atoms: C_11  and  S_28
    7  A    between atoms: C_12  and  C_21
    8  A    between atoms: C_13  and  C_16
    9  A    between atoms: C_13  and  C_17
   10  A    between atoms: C_13  and  C_19
   11  A    between atoms: C_16  and  C_23
   12  A    between atoms: C_21  and  C_22
                            x       y       z     vdW  Elec       q    Type
                         _______ _______ _______ _____ _____    ______ ____

>  <TORSDO>
F 12

$$$$
=
 OpenBabel11062422463D

 29 31  0  0  1  0  0  0  0  0999 V2000
  188.8830  173.9960  143.1440 O   0  0  0  0  0  0  0  0  0  0  0  0
  187.8610  173.9850  142.1740 C   0  0  2  0  0  3  0  0  0  0  0  0
  187.6110  172.6710  141.7820 O   0  0  0  0  0  1  0  0  0  0  0  0
  188.0300  176.2690  143.8540 C   0  0  2  0  0  3  0  0  0  0  0  0
  189.1970  175.3030  143.6280 C   0  0  2  0  0  0  0  0  0  0  0  0
  188.2840  174.7980  140.9730 C   0  0  0  0  0  2  0  0  0  0  0  0
  189.0100  176.5160  142.7000 C   0  0  1  0  0  3  0  0  0  0  0  0
  188.2740  176.2570  141.3830 C   0  0  0  0  0  2  0  0  0  0  0  0
  190.3950  175.3820  144.5960 C   0  0  1  0  0  3  0  0  0  0  0  0
  190.1170  174.9860  147.0150 C   0  0  0  0  0  2  0  0  0  0  0  0
  190.2070  174.4860  145.7840 C   0  0  0  0  0  3  0  0  0  0  0  0
  191.7600  175.1090  143.9490 C   0  0  2  0  0  3  0  0  0  0  0  0
  192.5720  173.6330  144.6510 S   0  0  0  0  0  0  0  0  0  0  0  0
  192.4840  172.7470  143.0700 C   0  0  0  0  0  1  0  0  0  0  0  0
  192.1230  177.4350  144.4960 O   0  0  0  0  0  1  0  0  0  0  0  0
  192.6880  176.3290  143.8570 C   0  0  1  0  0  3  0  0  0  0  0  0
  194.0460  176.0290  144.4720 C   0  0  0  0  0  2  0  0  0  0  0  0
  196.1820  176.8720  143.8500 O   0  0  0  0  0  0  0  0  0  0  0  0
  196.3780  175.4830  143.9480 C   0  0  0  0  0  2  0  0  0  0  0  0
  195.1270  176.0550  143.4080 C   0  0  1  0  0  3  0  0  0  0  0  0
  188.3150  177.5260  145.1470 S   0  0  0  0  0  0  0  0  0  0  0  0
  186.8000  177.0960  145.9980 C   0  0  0  0  0  0  0  0  0  0  0  0
  186.8540  176.4180  147.0860 N   0  0  0  0  0  2  0  0  0  0  0  0
  185.4810  177.4970  145.4050 C   0  0  1  0  0  3  0  0  0  0  0  0
  184.4870  177.5540  146.3860 O   0  0  0  0  0  1  0  0  0  0  0  0
  185.5590  178.8080  144.6180 C   0  0  0  0  0  2  0  0  0  0  0  0
  184.0020  178.1770  142.7660 O   0  0  0  0  0  1  0  0  0  0  0  0
  186.1150  178.9330  142.3010 O   0  0  0  0  0  0  0  0  0  0  0  0
  185.2500  178.6400  143.1650 C   0  0  0  0  0  0  0  0  0  0  0  0
  1  5  1  0  0  0  0
  2  3  1  6  0  0  0
  2  1  1  0  0  0  0
  4 21  1  1  0  0  0
  5  4  1  0  0  0  0
  5  9  1  1  0  0  0
  6  8  1  0  0  0  0
  6  2  1  0  0  0  0
  7  8  1  6  0  0  0
  7  5  1  0  0  0  0
  7  4  1  0  0  0  0
  9 11  1  1  0  0  0
 11 10  2  0  0  0  0
 12  9  1  0  0  0  0
 12 13  1  1  0  0  0
 14 13  1  0  0  0  0
 16 12  1  0  0  0  0
 16 17  1  0  0  0  0
 16 15  1  1  0  0  0
 18 19  1  0  0  0  0
 20 18  1  0  0  0  0
 20 19  1  0  0  0  0
 20 17  1  1  0  0  0
 21 22  1  0  0  0  0
 22 23  2  0  0  0  0
 24 22  1  0  0  0  0
 24 25  1  1  0  0  0
 26 24  1  0  0  0  0
 27 29  1  0  0  0  0
 28 29  2  0  0  0  0
 29 26  1  0  0  0  0
M  END
>  <MODEL>
5

>  <REMARK>
 VINA RESULT:      -5.5      1.542      1.710
  Name = 
  12 active torsions:
  status: ('A' for Active; 'I' for Inactive)
    1  A    between atoms: C_1  and  C_18
    2  A    between atoms: C_1  and  C_23
    3  A    between atoms: S_2  and  C_16
    4  A    between atoms: C_10  and  S_28
    5  A    between atoms: C_11  and  C_12
    6  A    between atoms: C_11  and  S_28
    7  A    between atoms: C_12  and  C_21
    8  A    between atoms: C_13  and  C_16
    9  A    between atoms: C_13  and  C_17
   10  A    between atoms: C_13  and  C_19
   11  A    between atoms: C_16  and  C_23
   12  A    between atoms: C_21  and  C_22
                            x       y       z     vdW  Elec       q    Type
                         _______ _______ _______ _____ _____    ______ ____

>  <TORSDO>
F 12

$$$$
=
 OpenBabel11062422463D

 29 31  0  0  1  0  0  0  0  0999 V2000
  191.1010  176.7180  146.0660 O   0  0  0  0  0  0  0  0  0  0  0  0
  190.4330  176.5370  147.2930 C   0  0  2  0  0  3  0  0  0  0  0  0
  191.1200  177.2160  148.2970 O   0  0  0  0  0  1  0  0  0  0  0  0
  188.9260  176.1160  144.9220 C   0  0  2  0  0  3  0  0  0  0  0  0
  190.4570  176.0740  144.9640 C   0  0  2  0  0  0  0  0  0  0  0  0
  190.3700  175.0650  147.6310 C   0  0  0  0  0  2  0  0  0  0  0  0
  189.6450  174.7910  145.2100 C   0  0  1  0  0  3  0  0  0  0  0  0
  189.3910  174.4180  146.6730 C   0  0  0  0  0  2  0  0  0  0  0  0
  191.2170  176.1360  143.6240 C   0  0  1  0  0  3  0  0  0  0  0  0
  191.1560  178.5980  143.4770 C   0  0  0  0  0  2  0  0  0  0  0  0
  191.8650  177.4730  143.4150 C   0  0  0  0  0  3  0  0  0  0  0  0
  192.2510  175.0200  143.4210 C   0  0  2  0  0  3  0  0  0  0  0  0
  193.8740  175.4460  144.1370 S   0  0  0  0  0  0  0  0  0  0  0  0
  193.6780  174.2410  145.4780 C   0  0  0  0  0  1  0  0  0  0  0  0
  193.2130  173.3840  141.9250 O   0  0  0  0  0  1  0  0  0  0  0  0
  192.3410  174.4740  141.9890 C   0  0  1  0  0  3  0  0  0  0  0  0
  190.9720  174.0560  141.4780 C   0  0  0  0  0  2  0  0  0  0  0  0
  189.1230  172.6850  142.0830 O   0  0  0  0  0  0  0  0  0  0  0  0
  189.8440  171.9010  141.1650 C   0  0  0  0  0  2  0  0  0  0  0  0
  190.5260  172.7700  142.1480 C   0  0  1  0  0  3  0  0  0  0  0  0
  188.2050  176.0400  143.2460 S   0  0  0  0  0  0  0  0  0  0  0  0
  186.6800  176.8020  143.7930 C   0  0  0  0  0  0  0  0  0  0  0  0
  185.6680  176.8330  143.0060 N   0  0  0  0  0  2  0  0  0  0  0  0
  186.6170  177.4330  145.1540 C   0  0  1  0  0  3  0  0  0  0  0  0
  186.6980  178.8260  145.0640 O   0  0  0  0  0  1  0  0  0  0  0  0
  185.3860  177.0000  145.9530 C   0  0  0  0  0  2  0  0  0  0  0  0
  184.8340  178.6700  147.7300 O   0  0  0  0  0  1  0  0  0  0  0  0
  183.6890  178.6640  145.7450 O   0  0  0  0  0  0  0  0  0  0  0  0
  184.5830  178.1520  146.4660 C   0  0  0  0  0  0  0  0  0  0  0  0
  1  2  1  0  0  0  0
  2  6  1  0  0  0  0
  2  3  1  1  0  0  0
  4 21  1  6  0  0  0
  4  5  1  0  0  0  0
  4  7  1  0  0  0  0
  5  9  1  6  0  0  0
  5  7  1  0  0  0  0
  5  1  1  0  0  0  0
  7  8  1  1  0  0  0
  8  6  1  0  0  0  0
  9 11  1  1  0  0  0
 11 10  2  0  0  0  0
 12  9  1  0  0  0  0
 12 13  1  6  0  0  0
 13 14  1  0  0  0  0
 16 15  1  1  0  0  0
 16 12  1  0  0  0  0
 17 16  1  0  0  0  0
 18 20  1  0  0  0  0
 19 18  1  0  0  0  0
 19 20  1  0  0  0  0
 20 17  1  6  0  0  0
 21 22  1  0  0  0  0
 22 24  1  0  0  0  0
 23 22  2  0  0  0  0
 24 25  1  6  0  0  0
 24 26  1  0  0  0  0
 26 29  1  0  0  0  0
 28 29  2  0  0  0  0
 29 27  1  0  0  0  0
M  END
>  <MODEL>
6

>  <REMARK>
 VINA RESULT:      -5.4      2.383      4.585
  Name = 
  12 active torsions:
  status: ('A' for Active; 'I' for Inactive)
    1  A    between atoms: C_1  and  C_18
    2  A    between atoms: C_1  and  C_23
    3  A    between atoms: S_2  and  C_16
    4  A    between atoms: C_10  and  S_28
    5  A    between atoms: C_11  and  C_12
    6  A    between atoms: C_11  and  S_28
    7  A    between atoms: C_12  and  C_21
    8  A    between atoms: C_13  and  C_16
    9  A    between atoms: C_13  and  C_17
   10  A    between atoms: C_13  and  C_19
   11  A    between atoms: C_16  and  C_23
   12  A    between atoms: C_21  and  C_22
                            x       y       z     vdW  Elec       q    Type
                         _______ _______ _______ _____ _____    ______ ____

>  <TORSDO>
F 12

$$$$
=
 OpenBabel11062422463D

 29 31  0  0  1  0  0  0  0  0999 V2000
  188.6750  173.7270  143.0230 O   0  0  0  0  0  0  0  0  0  0  0  0
  187.6870  173.5800  142.0280 C   0  0  2  0  0  3  0  0  0  0  0  0
  187.4420  172.2240  141.8200 O   0  0  0  0  0  1  0  0  0  0  0  0
  187.8150  176.0810  143.3680 C   0  0  2  0  0  3  0  0  0  0  0  0
  188.9820  175.0900  143.3260 C   0  0  2  0  0  0  0  0  0  0  0  0
  188.1600  174.2110  140.7390 C   0  0  0  0  0  2  0  0  0  0  0  0
  188.8380  176.1570  142.2280 C   0  0  1  0  0  3  0  0  0  0  0  0
  188.1470  175.7130  140.9360 C   0  0  0  0  0  2  0  0  0  0  0  0
  190.1460  175.3030  144.3150 C   0  0  1  0  0  3  0  0  0  0  0  0
  189.3990  174.7390  146.5980 C   0  0  0  0  0  2  0  0  0  0  0  0
  190.0480  174.3790  145.4930 C   0  0  0  0  0  3  0  0  0  0  0  0
  191.5440  175.2040  143.6910 C   0  0  2  0  0  3  0  0  0  0  0  0
  192.4290  173.6970  144.2160 S   0  0  0  0  0  0  0  0  0  0  0  0
  193.7800  173.9960  143.0450 C   0  0  0  0  0  1  0  0  0  0  0  0
  191.7450  177.5630  143.2040 O   0  0  0  0  0  1  0  0  0  0  0  0
  192.3940  176.4790  143.8000 C   0  0  1  0  0  3  0  0  0  0  0  0
  192.6970  176.8080  145.2530 C   0  0  0  0  0  2  0  0  0  0  0  0
  194.4420  177.1890  146.8260 O   0  0  0  0  0  0  0  0  0  0  0  0
  194.6660  175.8760  146.3780 C   0  0  0  0  0  2  0  0  0  0  0  0
  194.1950  176.9370  145.4640 C   0  0  1  0  0  3  0  0  0  0  0  0
  188.0650  177.5100  144.4770 S   0  0  0  0  0  0  0  0  0  0  0  0
  186.3940  178.0960  144.2130 C   0  0  0  0  0  0  0  0  0  0  0  0
  185.6550  177.5290  143.3310 N   0  0  0  0  0  2  0  0  0  0  0  0
  185.8910  179.2720  144.9990 C   0  0  1  0  0  3  0  0  0  0  0  0
  185.2490  180.1930  144.1660 O   0  0  0  0  0  1  0  0  0  0  0  0
  184.9940  178.8630  146.1700 C   0  0  0  0  0  2  0  0  0  0  0  0
  186.1870  179.9670  148.0690 O   0  0  0  0  0  1  0  0  0  0  0  0
  185.9000  177.6940  148.0420 O   0  0  0  0  0  0  0  0  0  0  0  0
  185.7220  178.8020  147.4740 C   0  0  0  0  0  0  0  0  0  0  0  0
  1  5  1  0  0  0  0
  2  3  1  6  0  0  0
  2  1  1  0  0  0  0
  4 21  1  1  0  0  0
  5  4  1  0  0  0  0
  5  9  1  1  0  0  0
  6  8  1  0  0  0  0
  6  2  1  0  0  0  0
  7  8  1  6  0  0  0
  7  5  1  0  0  0  0
  7  4  1  0  0  0  0
  9 11  1  1  0  0  0
 11 10  2  0  0  0  0
 12 16  1  0  0  0  0
 12 13  1  1  0  0  0
 12  9  1  0  0  0  0
 14 13  1  0  0  0  0
 16 15  1  1  0  0  0
 16 17  1  0  0  0  0
 19 18  1  0  0  0  0
 20 17  1  1  0  0  0
 20 19  1  0  0  0  0
 20 18  1  0  0  0  0
 22 21  1  0  0  0  0
 22 24  1  0  0  0  0
 23 22  2  0  0  0  0
 24 25  1  6  0  0  0
 24 26  1  0  0  0  0
 26 29  1  0  0  0  0
 29 28  2  0  0  0  0
 29 27  1  0  0  0  0
M  END
>  <MODEL>
7

>  <REMARK>
 VINA RESULT:      -5.3      1.986      2.685
  Name = 
  12 active torsions:
  status: ('A' for Active; 'I' for Inactive)
    1  A    between atoms: C_1  and  C_18
    2  A    between atoms: C_1  and  C_23
    3  A    between atoms: S_2  and  C_16
    4  A    between atoms: C_10  and  S_28
    5  A    between atoms: C_11  and  C_12
    6  A    between atoms: C_11  and  S_28
    7  A    between atoms: C_12  and  C_21
    8  A    between atoms: C_13  and  C_16
    9  A    between atoms: C_13  and  C_17
   10  A    between atoms: C_13  and  C_19
   11  A    between atoms: C_16  and  C_23
   12  A    between atoms: C_21  and  C_22
                            x       y       z     vdW  Elec       q    Type
                         _______ _______ _______ _____ _____    ______ ____

>  <TORSDO>
F 12

$$$$
=
 OpenBabel11062422463D

 29 31  0  0  1  0  0  0  0  0999 V2000
  190.9970  176.8650  146.2200 O   0  0  0  0  0  0  0  0  0  0  0  0
  190.8380  176.7530  147.6160 C   0  0  2  0  0  3  0  0  0  0  0  0
  191.9200  177.3590  148.2530 O   0  0  0  0  0  1  0  0  0  0  0  0
  188.5030  176.4890  146.0200 C   0  0  2  0  0  3  0  0  0  0  0  0
  189.9210  176.2910  145.4750 C   0  0  2  0  0  0  0  0  0  0  0  0
  190.7710  175.2950  148.0100 C   0  0  0  0  0  2  0  0  0  0  0  0
  189.1480  175.0980  146.0640 C   0  0  1  0  0  3  0  0  0  0  0  0
  189.4420  174.7530  147.5260 C   0  0  0  0  0  2  0  0  0  0  0  0
  190.1090  176.2740  143.9450 C   0  0  1  0  0  3  0  0  0  0  0  0
  189.3510  178.0660  142.4280 C   0  0  0  0  0  2  0  0  0  0  0  0
  190.1880  177.6620  143.3810 C   0  0  0  0  0  3  0  0  0  0  0  0
  191.3040  175.4450  143.4550 C   0  0  2  0  0  3  0  0  0  0  0  0
  190.9480  174.5840  141.8860 S   0  0  0  0  0  0  0  0  0  0  0  0
  189.1910  174.4070  142.3000 C   0  0  0  0  0  1  0  0  0  0  0  0
  191.4030  173.2510  144.4640 O   0  0  0  0  0  1  0  0  0  0  0  0
  191.9430  174.5390  144.5170 C   0  0  1  0  0  3  0  0  0  0  0  0
  193.4500  174.4630  144.3340 C   0  0  0  0  0  2  0  0  0  0  0  0
  194.0660  175.5880  146.3390 O   0  0  0  0  0  0  0  0  0  0  0  0
  195.2940  175.2730  145.7320 C   0  0  0  0  0  2  0  0  0  0  0  0
  194.1190  175.6850  144.9360 C   0  0  1  0  0  3  0  0  0  0  0  0
  187.1890  176.4870  144.7530 S   0  0  0  0  0  0  0  0  0  0  0  0
  185.9910  177.1710  145.8950 C   0  0  0  0  0  0  0  0  0  0  0  0
  186.1090  176.9400  147.1510 N   0  0  0  0  0  2  0  0  0  0  0  0
  184.8380  177.9710  145.3630 C   0  0  1  0  0  3  0  0  0  0  0  0
  184.1060  178.5490  146.4050 O   0  0  0  0  0  1  0  0  0  0  0  0
  185.2680  179.0230  144.3380 C   0  0  0  0  0  2  0  0  0  0  0  0
  183.6540  178.2800  142.5790 O   0  0  0  0  0  1  0  0  0  0  0  0
  185.8550  178.6470  142.0560 O   0  0  0  0  0  0  0  0  0  0  0  0
  184.9500  178.6350  142.9290 C   0  0  0  0  0  0  0  0  0  0  0  0
  1  2  1  0  0  0  0
  2  6  1  0  0  0  0
  2  3  1  1  0  0  0
  4 21  1  6  0  0  0
  4  7  1  0  0  0  0
  5  9  1  6  0  0  0
  5  4  1  0  0  0  0
  5  7  1  0  0  0  0
  5  1  1  0  0  0  0
  7  8  1  1  0  0  0
  8  6  1  0  0  0  0
  9 11  1  1  0  0  0
 10 11  2  0  0  0  0
 12 13  1  6  0  0  0
 12  9  1  0  0  0  0
 12 16  1  0  0  0  0
 13 14  1  0  0  0  0
 16 15  1  6  0  0  0
 17 16  1  0  0  0  0
 19 18  1  0  0  0  0
 20 17  1  6  0  0  0
 20 19  1  0  0  0  0
 20 18  1  0  0  0  0
 21 22  1  0  0  0  0
 22 23  2  0  0  0  0
 24 22  1  0  0  0  0
 24 25  1  1  0  0  0
 26 24  1  0  0  0  0
 27 29  1  0  0  0  0
 28 29  2  0  0  0  0
 29 26  1  0  0  0  0
M  END
>  <MODEL>
8

>  <REMARK>
 VINA RESULT:      -5.3      1.909      3.560
  Name = 
  12 active torsions:
  status: ('A' for Active; 'I' for Inactive)
    1  A    between atoms: C_1  and  C_18
    2  A    between atoms: C_1  and  C_23
    3  A    between atoms: S_2  and  C_16
    4  A    between atoms: C_10  and  S_28
    5  A    between atoms: C_11  and  C_12
    6  A    between atoms: C_11  and  S_28
    7  A    between atoms: C_12  and  C_21
    8  A    between atoms: C_13  and  C_16
    9  A    between atoms: C_13  and  C_17
   10  A    between atoms: C_13  and  C_19
   11  A    between atoms: C_16  and  C_23
   12  A    between atoms: C_21  and  C_22
                            x       y       z     vdW  Elec       q    Type
                         _______ _______ _______ _____ _____    ______ ____

>  <TORSDO>
F 12

$$$$
=
 OpenBabel11062422463D

 29 31  0  0  1  0  0  0  0  0999 V2000
  190.1950  173.5330  144.2200 O   0  0  0  0  0  0  0  0  0  0  0  0
  189.2370  173.0700  143.2960 C   0  0  2  0  0  3  0  0  0  0  0  0
  189.1710  171.6800  143.3590 O   0  0  0  0  0  1  0  0  0  0  0  0
  189.0360  175.7800  144.1250 C   0  0  2  0  0  3  0  0  0  0  0  0
  190.3220  174.9570  144.2470 C   0  0  2  0  0  0  0  0  0  0  0  0
  189.6270  173.4950  141.8980 C   0  0  0  0  0  2  0  0  0  0  0  0
  190.0430  175.7630  142.9670 C   0  0  1  0  0  3  0  0  0  0  0  0
  189.4180  174.9920  141.8020 C   0  0  0  0  0  2  0  0  0  0  0  0
  191.4460  175.5050  145.1490 C   0  0  1  0  0  3  0  0  0  0  0  0
  191.3510  175.8970  147.5830 C   0  0  0  0  0  2  0  0  0  0  0  0
  191.2960  175.0390  146.5670 C   0  0  0  0  0  3  0  0  0  0  0  0
  192.8680  175.2100  144.6530 C   0  0  2  0  0  3  0  0  0  0  0  0
  193.6450  173.8340  145.5650 S   0  0  0  0  0  0  0  0  0  0  0  0
  193.6930  172.7870  144.0850 C   0  0  0  0  0  1  0  0  0  0  0  0
  194.4790  176.6750  145.7030 O   0  0  0  0  0  1  0  0  0  0  0  0
  193.7750  176.4420  144.5190 C   0  0  1  0  0  3  0  0  0  0  0  0
  194.7580  176.2720  143.3710 C   0  0  0  0  0  2  0  0  0  0  0  0
  196.8780  175.2920  143.8250 O   0  0  0  0  0  0  0  0  0  0  0  0
  197.1340  176.1860  142.7710 C   0  0  0  0  0  2  0  0  0  0  0  0
  196.1780  176.5110  143.8500 C   0  0  1  0  0  3  0  0  0  0  0  0
  189.0960  177.4170  144.9310 S   0  0  0  0  0  0  0  0  0  0  0  0
  187.6290  177.0710  145.8980 C   0  0  0  0  0  0  0  0  0  0  0  0
  187.6780  176.1950  146.8330 N   0  0  0  0  0  2  0  0  0  0  0  0
  186.3470  177.7820  145.5730 C   0  0  1  0  0  3  0  0  0  0  0  0
  186.0480  178.7440  146.5430 O   0  0  0  0  0  1  0  0  0  0  0  0
  186.3460  178.3920  144.1690 C   0  0  0  0  0  2  0  0  0  0  0  0
  184.1800  177.9420  143.0040 O   0  0  0  0  0  1  0  0  0  0  0  0
  186.0370  176.6850  142.5310 O   0  0  0  0  0  0  0  0  0  0  0  0
  185.5170  177.6190  143.1940 C   0  0  0  0  0  0  0  0  0  0  0  0
  1  5  1  0  0  0  0
  2  3  1  6  0  0  0
  2  1  1  0  0  0  0
  4  5  1  0  0  0  0
  4 21  1  1  0  0  0
  5  9  1  1  0  0  0
  6  2  1  0  0  0  0
  7  8  1  6  0  0  0
  7  4  1  0  0  0  0
  7  5  1  0  0  0  0
  8  6  1  0  0  0  0
  9 11  1  1  0  0  0
 11 10  2  0  0  0  0
 12  9  1  0  0  0  0
 12 13  1  1  0  0  0
 14 13  1  0  0  0  0
 16 12  1  0  0  0  0
 16 15  1  1  0  0  0
 17 16  1  0  0  0  0
 18 20  1  0  0  0  0
 19 18  1  0  0  0  0
 19 20  1  0  0  0  0
 20 17  1  6  0  0  0
 21 22  1  0  0  0  0
 22 23  2  0  0  0  0
 24 22  1  0  0  0  0
 24 25  1  1  0  0  0
 26 24  1  0  0  0  0
 27 29  1  0  0  0  0
 28 29  2  0  0  0  0
 29 26  1  0  0  0  0
M  END
>  <MODEL>
9

>  <REMARK>
 VINA RESULT:      -5.2      1.989      2.392
  Name = 
  12 active torsions:
  status: ('A' for Active; 'I' for Inactive)
    1  A    between atoms: C_1  and  C_18
    2  A    between atoms: C_1  and  C_23
    3  A    between atoms: S_2  and  C_16
    4  A    between atoms: C_10  and  S_28
    5  A    between atoms: C_11  and  C_12
    6  A    between atoms: C_11  and  S_28
    7  A    between atoms: C_12  and  C_21
    8  A    between atoms: C_13  and  C_16
    9  A    between atoms: C_13  and  C_17
   10  A    between atoms: C_13  and  C_19
   11  A    between atoms: C_16  and  C_23
   12  A    between atoms: C_21  and  C_22
                            x       y       z     vdW  Elec       q    Type
                         _______ _______ _______ _____ _____    ______ ____

>  <TORSDO>
F 12

$$$$
