=
 OpenBabel11062421243D

 31 34  0  0  1  0  0  0  0  0999 V2000
  189.8620  175.1810  143.3150 C   0  0  1  0  0  3  0  0  0  0  0  0
  187.6290  177.4020  145.6310 C   0  0  0  0  0  3  0  0  0  0  0  0
  186.1320  179.0070  144.5120 C   0  0  0  0  0  2  0  0  0  0  0  0
  186.4290  177.9890  145.5790 C   0  0  0  0  0  0  0  0  0  0  0  0
  185.0760  178.5680  142.4430 O   0  0  0  0  0  0  0  0  0  0  0  0
  189.2680  176.3380  142.4780 C   0  0  2  0  0  3  0  0  0  0  0  0
  187.2280  177.5860  142.5940 C   0  0  0  0  0  0  0  0  0  0  0  0
  187.1490  176.9960  140.9110 S   0  0  0  0  0  0  0  0  0  0  0  0
  186.1010  178.3820  143.1490 C   0  0  0  0  0  0  0  0  0  0  0  0
  188.3280  177.2140  143.2600 C   0  0  0  0  0  0  0  0  0  0  0  0
  188.6910  177.7300  144.6260 C   0  0  0  0  0  2  0  0  0  0  0  0
  188.4520  175.7980  141.3050 C   0  0  0  0  0  2  0  0  0  0  0  0
  185.3900  177.6050  146.5880 C   0  0  0  0  0  3  0  0  0  0  0  0
  184.1060  178.3810  146.3610 C   0  0  0  0  0  1  0  0  0  0  0  0
  185.8950  177.8380  147.9990 C   0  0  0  0  0  1  0  0  0  0  0  0
  190.3670  170.5350  142.2800 N   0  0  0  0  0  1  0  0  0  0  0  0
  193.5060  174.7150  139.9790 N   0  0  0  0  0  1  0  0  0  0  0  0
  193.0300  172.7230  141.1070 N   0  0  0  0  0  0  0  0  0  0  0  0
  192.7410  173.9760  140.9230 C   0  0  0  0  0  0  0  0  0  0  0  0
  190.2730  172.9100  142.5640 C   0  0  0  0  0  3  0  0  0  0  0  0
  190.6440  174.1900  142.4920 C   0  0  0  0  0  0  0  0  0  0  0  0
  192.3960  171.8290  142.0610 C   0  0  0  0  0  2  0  0  0  0  0  0
  191.7170  174.6710  141.6590 N   0  0  0  0  0  2  0  0  0  0  0  0
  190.9070  171.7970  141.8110 C   0  0  1  0  0  3  0  0  0  0  0  0
  190.6690  175.6810  144.5290 C   0  0  1  0  0  3  0  0  0  0  0  0
  191.4880  175.1920  146.8580 C   0  0  0  0  0  2  0  0  0  0  0  0
  190.7150  174.6450  145.6610 C   0  0  1  0  0  3  0  0  0  0  0  0
  192.8940  175.6110  146.4410 C   0  0  0  0  0  2  0  0  0  0  0  0
  189.4190  174.3240  146.0670 O   0  0  0  0  0  1  0  0  0  0  0  0
  192.8170  176.6850  145.3620 C   0  0  0  0  0  2  0  0  0  0  0  0
  192.0800  176.1450  144.1420 C   0  0  0  0  0  2  0  0  0  0  0  0
  1 21  1  6  0  0  0
  3  4  1  0  0  0  0
  4  2  2  0  0  0  0
  4 13  1  0  0  0  0
  5  9  2  0  0  0  0
  6 10  1  0  0  0  0
  6  1  1  1  0  0  0
  7  9  1  0  0  0  0
  7 10  2  0  0  0  0
  8 12  1  0  0  0  0
  8  7  1  0  0  0  0
  9  3  1  0  0  0  0
 10 11  1  0  0  0  0
 11  2  1  0  0  0  0
 12  6  1  0  0  0  0
 13 15  1  0  0  0  0
 14 13  1  0  0  0  0
 17 19  1  0  0  0  0
 18 22  1  0  0  0  0
 19 18  2  0  0  0  0
 19 23  1  0  0  0  0
 21 20  2  0  0  0  0
 23 21  1  0  0  0  0
 24 22  1  0  0  0  0
 24 16  1  1  0  0  0
 24 20  1  0  0  0  0
 25  1  1  6  0  0  0
 25 27  1  0  0  0  0
 27 29  1  1  0  0  0
 27 26  1  0  0  0  0
 28 26  1  0  0  0  0
 30 28  1  0  0  0  0
 31 25  1  0  0  0  0
 31 30  1  0  0  0  0
M  END
>  <MODEL>
1

>  <REMARK>
 VINA RESULT:      -8.1      0.000      0.000
  Name = 
  4 active torsions:
  status: ('A' for Active; 'I' for Inactive)
    1  A    between atoms: C_3  and  C_6
    2  A    between atoms: C_6  and  C_17
    3  A    between atoms: C_6  and  C_25
    4  A    between atoms: C_8  and  C_11
                            x       y       z     vdW  Elec       q    Type
                         _______ _______ _______ _____ _____    ______ ____

>  <TORSDO>
F 4

$$$$
=
 OpenBabel11062421243D

 31 34  0  0  1  0  0  0  0  0999 V2000
  189.8800  175.1750  143.3190 C   0  0  1  0  0  3  0  0  0  0  0  0
  187.6480  177.3870  145.6430 C   0  0  0  0  0  3  0  0  0  0  0  0
  186.1450  178.9910  144.5300 C   0  0  0  0  0  2  0  0  0  0  0  0
  186.4470  177.9720  145.5950 C   0  0  0  0  0  0  0  0  0  0  0  0
  185.0850  178.5520  142.4630 O   0  0  0  0  0  0  0  0  0  0  0  0
  189.2820  176.3320  142.4850 C   0  0  2  0  0  3  0  0  0  0  0  0
  187.2390  177.5750  142.6080 C   0  0  0  0  0  0  0  0  0  0  0  0
  187.1580  176.9870  140.9240 S   0  0  0  0  0  0  0  0  0  0  0  0
  186.1120  178.3680  143.1670 C   0  0  0  0  0  0  0  0  0  0  0  0
  188.3420  177.2040  143.2710 C   0  0  0  0  0  0  0  0  0  0  0  0
  188.7070  177.7190  144.6360 C   0  0  0  0  0  2  0  0  0  0  0  0
  188.4650  175.7920  141.3130 C   0  0  0  0  0  2  0  0  0  0  0  0
  185.4110  177.5840  146.6060 C   0  0  0  0  0  3  0  0  0  0  0  0
  184.1170  178.3420  146.3710 C   0  0  0  0  0  1  0  0  0  0  0  0
  185.9110  177.8350  148.0160 C   0  0  0  0  0  1  0  0  0  0  0  0
  193.4670  174.7610  140.1770 N   0  0  0  0  0  1  0  0  0  0  0  0
  190.4150  170.3720  142.1880 N   0  0  0  0  0  1  0  0  0  0  0  0
  191.3920  171.8020  140.6170 N   0  0  0  0  0  0  0  0  0  0  0  0
  190.7510  171.6790  141.7400 C   0  0  0  0  0  0  0  0  0  0  0  0
  191.6960  174.6840  141.7850 C   0  0  0  0  0  3  0  0  0  0  0  0
  190.6760  174.1960  142.4950 C   0  0  0  0  0  0  0  0  0  0  0  0
  191.7700  173.0530  139.9800 C   0  0  0  0  0  2  0  0  0  0  0  0
  190.3190  172.8000  142.5340 N   0  0  0  0  0  2  0  0  0  0  0  0
  192.6040  173.8730  140.9330 C   0  0  1  0  0  3  0  0  0  0  0  0
  190.6770  175.6750  144.5410 C   0  0  1  0  0  3  0  0  0  0  0  0
  191.5090  175.1690  146.8610 C   0  0  0  0  0  2  0  0  0  0  0  0
  190.7480  174.6220  145.6560 C   0  0  1  0  0  3  0  0  0  0  0  0
  192.9040  175.6280  146.4500 C   0  0  0  0  0  2  0  0  0  0  0  0
  189.4600  174.2640  146.0570 O   0  0  0  0  0  1  0  0  0  0  0  0
  192.8010  176.7160  145.3880 C   0  0  0  0  0  2  0  0  0  0  0  0
  192.0750  176.1790  144.1600 C   0  0  0  0  0  2  0  0  0  0  0  0
  1 21  1  6  0  0  0
  3  4  1  0  0  0  0
  4  2  2  0  0  0  0
  4 13  1  0  0  0  0
  5  9  2  0  0  0  0
  6 10  1  0  0  0  0
  6  1  1  1  0  0  0
  7  9  1  0  0  0  0
  7 10  2  0  0  0  0
  8 12  1  0  0  0  0
  8  7  1  0  0  0  0
  9  3  1  0  0  0  0
 10 11  1  0  0  0  0
 11  2  1  0  0  0  0
 12  6  1  0  0  0  0
 13 15  1  0  0  0  0
 14 13  1  0  0  0  0
 18 19  2  0  0  0  0
 19 17  1  0  0  0  0
 19 23  1  0  0  0  0
 20 21  2  0  0  0  0
 21 23  1  0  0  0  0
 22 18  1  0  0  0  0
 22 24  1  0  0  0  0
 24 16  1  6  0  0  0
 24 20  1  0  0  0  0
 25  1  1  6  0  0  0
 25 27  1  0  0  0  0
 27 29  1  1  0  0  0
 27 26  1  0  0  0  0
 28 26  1  0  0  0  0
 30 28  1  0  0  0  0
 31 25  1  0  0  0  0
 31 30  1  0  0  0  0
M  END
>  <MODEL>
2

>  <REMARK>
 VINA RESULT:      -7.9      0.669      1.841
  Name = 
  4 active torsions:
  status: ('A' for Active; 'I' for Inactive)
    1  A    between atoms: C_3  and  C_6
    2  A    between atoms: C_6  and  C_17
    3  A    between atoms: C_6  and  C_25
    4  A    between atoms: C_8  and  C_11
                            x       y       z     vdW  Elec       q    Type
                         _______ _______ _______ _____ _____    ______ ____

>  <TORSDO>
F 4

$$$$
=
 OpenBabel11062421243D

 31 34  0  0  1  0  0  0  0  0999 V2000
  191.0120  174.9530  143.8180 C   0  0  1  0  0  3  0  0  0  0  0  0
  188.5530  177.2500  145.8070 C   0  0  0  0  0  3  0  0  0  0  0  0
  186.7550  178.3260  144.5120 C   0  0  0  0  0  2  0  0  0  0  0  0
  187.2700  177.6200  145.7360 C   0  0  0  0  0  0  0  0  0  0  0  0
  185.6880  177.2940  142.6720 O   0  0  0  0  0  0  0  0  0  0  0  0
  190.1910  175.7970  142.8140 C   0  0  2  0  0  3  0  0  0  0  0  0
  187.9790  176.7100  142.8420 C   0  0  0  0  0  0  0  0  0  0  0  0
  187.9190  175.7670  141.3270 S   0  0  0  0  0  0  0  0  0  0  0  0
  186.7630  177.4250  143.3140 C   0  0  0  0  0  0  0  0  0  0  0  0
  189.1570  176.6650  143.4760 C   0  0  0  0  0  0  0  0  0  0  0  0
  189.4940  177.5130  144.6710 C   0  0  0  0  0  2  0  0  0  0  0  0
  189.4220  174.8970  141.8480 C   0  0  0  0  0  2  0  0  0  0  0  0
  186.3610  177.3080  146.8860 C   0  0  0  0  0  3  0  0  0  0  0  0
  184.9540  177.0190  146.3970 C   0  0  0  0  0  1  0  0  0  0  0  0
  186.3400  178.4490  147.8840 C   0  0  0  0  0  1  0  0  0  0  0  0
  192.4680  170.4010  144.0880 N   0  0  0  0  0  1  0  0  0  0  0  0
  194.0400  174.0560  139.9890 N   0  0  0  0  0  1  0  0  0  0  0  0
  194.2690  172.5080  141.7270 N   0  0  0  0  0  0  0  0  0  0  0  0
  193.6520  173.5530  141.2620 C   0  0  0  0  0  0  0  0  0  0  0  0
  191.8390  172.6750  143.6830 C   0  0  0  0  0  3  0  0  0  0  0  0
  191.8640  173.9010  143.1550 C   0  0  0  0  0  0  0  0  0  0  0  0
  194.0460  171.8890  143.0230 C   0  0  0  0  0  2  0  0  0  0  0  0
  192.6280  174.2580  141.9870 N   0  0  0  0  0  2  0  0  0  0  0  0
  192.5920  171.5070  143.1570 C   0  0  1  0  0  3  0  0  0  0  0  0
  191.8290  175.8220  144.7940 C   0  0  1  0  0  3  0  0  0  0  0  0
  192.7850  176.0550  147.1100 C   0  0  0  0  0  2  0  0  0  0  0  0
  192.0060  175.1470  146.1620 C   0  0  1  0  0  3  0  0  0  0  0  0
  194.1340  176.4290  146.5050 C   0  0  0  0  0  2  0  0  0  0  0  0
  190.7580  174.8710  146.7210 O   0  0  0  0  0  1  0  0  0  0  0  0
  193.9260  177.1520  145.1790 C   0  0  0  0  0  2  0  0  0  0  0  0
  193.1810  176.2480  144.2050 C   0  0  0  0  0  2  0  0  0  0  0  0
  1 21  1  6  0  0  0
  3  4  1  0  0  0  0
  4  2  2  0  0  0  0
  4 13  1  0  0  0  0
  5  9  2  0  0  0  0
  6 10  1  0  0  0  0
  6  1  1  1  0  0  0
  7  9  1  0  0  0  0
  7 10  2  0  0  0  0
  8 12  1  0  0  0  0
  8  7  1  0  0  0  0
  9  3  1  0  0  0  0
 10 11  1  0  0  0  0
 11  2  1  0  0  0  0
 12  6  1  0  0  0  0
 13 15  1  0  0  0  0
 14 13  1  0  0  0  0
 17 19  1  0  0  0  0
 18 22  1  0  0  0  0
 19 18  2  0  0  0  0
 19 23  1  0  0  0  0
 21 20  2  0  0  0  0
 22 24  1  0  0  0  0
 23 21  1  0  0  0  0
 24 20  1  0  0  0  0
 24 16  1  1  0  0  0
 25  1  1  6  0  0  0
 25 27  1  0  0  0  0
 27 29  1  1  0  0  0
 27 26  1  0  0  0  0
 28 26  1  0  0  0  0
 30 28  1  0  0  0  0
 31 25  1  0  0  0  0
 31 30  1  0  0  0  0
M  END
>  <MODEL>
3

>  <REMARK>
 VINA RESULT:      -7.5      1.283      1.403
  Name = 
  4 active torsions:
  status: ('A' for Active; 'I' for Inactive)
    1  A    between atoms: C_3  and  C_6
    2  A    between atoms: C_6  and  C_17
    3  A    between atoms: C_6  and  C_25
    4  A    between atoms: C_8  and  C_11
                            x       y       z     vdW  Elec       q    Type
                         _______ _______ _______ _____ _____    ______ ____

>  <TORSDO>
F 4

$$$$
=
 OpenBabel11062421243D

 31 34  0  0  1  0  0  0  0  0999 V2000
  191.8700  174.4960  143.7900 C   0  0  1  0  0  3  0  0  0  0  0  0
  189.4700  177.4420  144.7080 C   0  0  0  0  0  3  0  0  0  0  0  0
  187.7510  178.0260  143.0420 C   0  0  0  0  0  2  0  0  0  0  0  0
  188.2070  177.8020  144.4580 C   0  0  0  0  0  0  0  0  0  0  0  0
  186.6830  176.4270  141.6680 O   0  0  0  0  0  0  0  0  0  0  0  0
  191.1110  174.9400  142.5170 C   0  0  2  0  0  3  0  0  0  0  0  0
  188.9410  175.8710  142.1250 C   0  0  0  0  0  0  0  0  0  0  0  0
  188.8740  174.4400  141.0600 S   0  0  0  0  0  0  0  0  0  0  0  0
  187.7470  176.7480  142.2570 C   0  0  0  0  0  0  0  0  0  0  0  0
  190.1010  176.0230  142.7760 C   0  0  0  0  0  0  0  0  0  0  0  0
  190.4480  177.2390  143.5910 C   0  0  0  0  0  2  0  0  0  0  0  0
  190.3250  173.7740  141.9190 C   0  0  0  0  0  2  0  0  0  0  0  0
  187.2580  177.9630  145.6070 C   0  0  0  0  0  3  0  0  0  0  0  0
  186.8890  176.6140  146.1950 C   0  0  0  0  0  1  0  0  0  0  0  0
  186.0060  178.7020  145.1740 C   0  0  0  0  0  1  0  0  0  0  0  0
  196.0620  172.9980  145.5490 N   0  0  0  0  0  1  0  0  0  0  0  0
  195.5080  176.8010  141.3230 N   0  0  0  0  0  1  0  0  0  0  0  0
  196.2030  175.9130  143.3720 N   0  0  0  0  0  0  0  0  0  0  0  0
  195.2410  176.0690  142.5130 C   0  0  0  0  0  0  0  0  0  0  0  0
  194.1160  173.8530  144.4480 C   0  0  0  0  0  3  0  0  0  0  0  0
  193.3660  174.6390  143.6720 C   0  0  0  0  0  0  0  0  0  0  0  0
  196.1020  175.2440  144.6580 C   0  0  0  0  0  2  0  0  0  0  0  0
  193.9030  175.5800  142.7230 N   0  0  0  0  0  2  0  0  0  0  0  0
  195.6010  173.8350  144.4570 C   0  0  1  0  0  3  0  0  0  0  0  0
  191.3290  175.1700  145.0670 C   0  0  1  0  0  3  0  0  0  0  0  0
  189.9600  174.9130  147.1630 C   0  0  0  0  0  2  0  0  0  0  0  0
  190.5110  174.1990  145.9310 C   0  0  1  0  0  3  0  0  0  0  0  0
  191.0920  175.5420  147.9680 C   0  0  0  0  0  2  0  0  0  0  0  0
  189.4460  173.6840  145.1910 O   0  0  0  0  0  1  0  0  0  0  0  0
  191.8470  176.5460  147.1040 C   0  0  0  0  0  2  0  0  0  0  0  0
  192.4370  175.8450  145.8860 C   0  0  0  0  0  2  0  0  0  0  0  0
  1 21  1  6  0  0  0
  3  4  1  0  0  0  0
  4  2  2  0  0  0  0
  4 13  1  0  0  0  0
  5  9  2  0  0  0  0
  6 10  1  0  0  0  0
  6  1  1  1  0  0  0
  7  9  1  0  0  0  0
  7 10  2  0  0  0  0
  8 12  1  0  0  0  0
  8  7  1  0  0  0  0
  9  3  1  0  0  0  0
 10 11  1  0  0  0  0
 11  2  1  0  0  0  0
 12  6  1  0  0  0  0
 13 14  1  0  0  0  0
 15 13  1  0  0  0  0
 17 19  1  0  0  0  0
 18 22  1  0  0  0  0
 19 23  1  0  0  0  0
 19 18  2  0  0  0  0
 20 24  1  0  0  0  0
 21 20  2  0  0  0  0
 23 21  1  0  0  0  0
 24 22  1  0  0  0  0
 24 16  1  1  0  0  0
 25  1  1  6  0  0  0
 25 31  1  0  0  0  0
 25 27  1  0  0  0  0
 26 28  1  0  0  0  0
 27 29  1  6  0  0  0
 27 26  1  0  0  0  0
 30 28  1  0  0  0  0
 31 30  1  0  0  0  0
M  END
>  <MODEL>
4

>  <REMARK>
 VINA RESULT:      -7.4      2.271      3.170
  Name = 
  4 active torsions:
  status: ('A' for Active; 'I' for Inactive)
    1  A    between atoms: C_3  and  C_6
    2  A    between atoms: C_6  and  C_17
    3  A    between atoms: C_6  and  C_25
    4  A    between atoms: C_8  and  C_11
                            x       y       z     vdW  Elec       q    Type
                         _______ _______ _______ _____ _____    ______ ____

>  <TORSDO>
F 4

$$$$
=
 OpenBabel11062421243D

 31 34  0  0  1  0  0  0  0  0999 V2000
  190.8140  175.3030  144.6470 C   0  0  1  0  0  3  0  0  0  0  0  0
  187.8550  177.2480  146.3020 C   0  0  0  0  0  3  0  0  0  0  0  0
  186.5010  178.6730  144.8160 C   0  0  0  0  0  2  0  0  0  0  0  0
  186.6440  177.6930  145.9490 C   0  0  0  0  0  0  0  0  0  0  0  0
  186.0310  178.1190  142.5660 O   0  0  0  0  0  0  0  0  0  0  0  0
  190.3130  176.3860  143.6630 C   0  0  2  0  0  3  0  0  0  0  0  0
  188.1790  177.3900  143.2540 C   0  0  0  0  0  0  0  0  0  0  0  0
  188.5750  176.7990  141.6170 S   0  0  0  0  0  0  0  0  0  0  0  0
  186.8700  178.0510  143.5020 C   0  0  0  0  0  0  0  0  0  0  0  0
  189.1210  177.1460  144.1740 C   0  0  0  0  0  0  0  0  0  0  0  0
  189.0830  177.6980  145.5720 C   0  0  0  0  0  2  0  0  0  0  0  0
  189.8700  175.7580  142.3420 C   0  0  0  0  0  2  0  0  0  0  0  0
  185.4420  177.1910  146.6890 C   0  0  0  0  0  3  0  0  0  0  0  0
  184.4270  178.3010  146.8850 C   0  0  0  0  0  1  0  0  0  0  0  0
  185.8390  176.6060  148.0310 C   0  0  0  0  0  1  0  0  0  0  0  0
  192.8150  170.9710  144.2710 N   0  0  0  0  0  1  0  0  0  0  0  0
  187.5920  172.2890  142.3730 N   0  0  0  0  0  1  0  0  0  0  0  0
  189.7920  171.5000  142.3120 N   0  0  0  0  0  0  0  0  0  0  0  0
  188.9650  172.4170  142.7180 C   0  0  0  0  0  0  0  0  0  0  0  0
  191.5650  173.0090  144.3950 C   0  0  0  0  0  3  0  0  0  0  0  0
  190.6010  173.8980  144.1460 C   0  0  0  0  0  0  0  0  0  0  0  0
  191.2300  171.4900  142.5230 C   0  0  0  0  0  2  0  0  0  0  0  0
  189.3740  173.5810  143.4590 N   0  0  0  0  0  2  0  0  0  0  0  0
  191.5250  171.5770  144.0010 C   0  0  1  0  0  3  0  0  0  0  0  0
  192.2700  175.5370  145.0950 C   0  0  1  0  0  3  0  0  0  0  0  0
  194.5270  176.4790  144.5030 C   0  0  0  0  0  2  0  0  0  0  0  0
  193.0840  176.3020  144.0410 C   0  0  1  0  0  3  0  0  0  0  0  0
  194.5750  177.1880  145.8520 C   0  0  0  0  0  2  0  0  0  0  0  0
  193.0760  175.6030  142.8330 O   0  0  0  0  0  1  0  0  0  0  0  0
  193.8120  176.3760  146.8920 C   0  0  0  0  0  2  0  0  0  0  0  0
  192.3580  176.2190  146.4670 C   0  0  0  0  0  2  0  0  0  0  0  0
  1 21  1  6  0  0  0
  3  4  1  0  0  0  0
  4  2  2  0  0  0  0
  4 13  1  0  0  0  0
  5  9  2  0  0  0  0
  6 10  1  0  0  0  0
  6  1  1  1  0  0  0
  7  9  1  0  0  0  0
  7 10  2  0  0  0  0
  8 12  1  0  0  0  0
  8  7  1  0  0  0  0
  9  3  1  0  0  0  0
 10 11  1  0  0  0  0
 11  2  1  0  0  0  0
 12  6  1  0  0  0  0
 13 14  1  0  0  0  0
 13 15  1  0  0  0  0
 17 19  1  0  0  0  0
 18 22  1  0  0  0  0
 18 19  2  0  0  0  0
 19 23  1  0  0  0  0
 21 20  2  0  0  0  0
 22 24  1  0  0  0  0
 23 21  1  0  0  0  0
 24 16  1  6  0  0  0
 24 20  1  0  0  0  0
 25  1  1  6  0  0  0
 25 31  1  0  0  0  0
 26 28  1  0  0  0  0
 27 29  1  6  0  0  0
 27 26  1  0  0  0  0
 27 25  1  0  0  0  0
 28 30  1  0  0  0  0
 31 30  1  0  0  0  0
M  END
>  <MODEL>
5

>  <REMARK>
 VINA RESULT:      -7.1      1.962      2.572
  Name = 
  4 active torsions:
  status: ('A' for Active; 'I' for Inactive)
    1  A    between atoms: C_3  and  C_6
    2  A    between atoms: C_6  and  C_17
    3  A    between atoms: C_6  and  C_25
    4  A    between atoms: C_8  and  C_11
                            x       y       z     vdW  Elec       q    Type
                         _______ _______ _______ _____ _____    ______ ____

>  <TORSDO>
F 4

$$$$
=
 OpenBabel11062421243D

 31 34  0  0  1  0  0  0  0  0999 V2000
  190.5420  175.5080  144.1620 C   0  0  1  0  0  3  0  0  0  0  0  0
  186.9440  177.0150  144.3970 C   0  0  0  0  0  3  0  0  0  0  0  0
  186.2150  177.7950  146.6180 C   0  0  0  0  0  2  0  0  0  0  0  0
  186.3040  177.9380  145.1230 C   0  0  0  0  0  0  0  0  0  0  0  0
  187.6790  178.7850  148.1870 O   0  0  0  0  0  0  0  0  0  0  0  0
  190.1380  175.6130  145.6520 C   0  0  2  0  0  3  0  0  0  0  0  0
  188.7370  177.1110  146.8850 C   0  0  0  0  0  0  0  0  0  0  0  0
  190.2590  177.2640  147.8060 S   0  0  0  0  0  0  0  0  0  0  0  0
  187.5600  177.9380  147.2640 C   0  0  0  0  0  0  0  0  0  0  0  0
  188.7940  176.2530  145.8590 C   0  0  0  0  0  0  0  0  0  0  0  0
  187.5950  175.8360  145.0520 C   0  0  0  0  0  2  0  0  0  0  0  0
  191.1340  176.4760  146.4260 C   0  0  0  0  0  2  0  0  0  0  0  0
  185.6940  179.1160  144.4250 C   0  0  0  0  0  3  0  0  0  0  0  0
  184.2050  179.1970  144.7040 C   0  0  0  0  0  1  0  0  0  0  0  0
  185.9390  179.0440  142.9290 C   0  0  0  0  0  1  0  0  0  0  0  0
  194.4800  176.4160  141.5980 N   0  0  0  0  0  1  0  0  0  0  0  0
  194.1680  172.5210  145.7640 N   0  0  0  0  0  1  0  0  0  0  0  0
  194.5720  173.3990  143.6340 N   0  0  0  0  0  0  0  0  0  0  0  0
  193.7910  173.3510  144.6730 C   0  0  0  0  0  0  0  0  0  0  0  0
  192.6830  175.8220  143.0630 C   0  0  0  0  0  3  0  0  0  0  0  0
  191.9860  175.1230  143.9620 C   0  0  0  0  0  0  0  0  0  0  0  0
  194.3250  174.1460  142.4120 C   0  0  0  0  0  2  0  0  0  0  0  0
  192.5400  174.0570  144.7570 N   0  0  0  0  0  2  0  0  0  0  0  0
  194.1180  175.6040  142.7440 C   0  0  1  0  0  3  0  0  0  0  0  0
  189.5910  174.6050  143.3530 C   0  0  1  0  0  3  0  0  0  0  0  0
  188.5320  174.1310  141.1200 C   0  0  0  0  0  2  0  0  0  0  0  0
  189.5130  175.0220  141.8770 C   0  0  1  0  0  3  0  0  0  0  0  0
  188.9270  172.6640  141.2550 C   0  0  0  0  0  2  0  0  0  0  0  0
  189.0900  176.3480  141.7780 O   0  0  0  0  0  1  0  0  0  0  0  0
  188.9350  172.2620  142.7250 C   0  0  0  0  0  2  0  0  0  0  0  0
  189.9360  173.1170  143.4930 C   0  0  0  0  0  2  0  0  0  0  0  0
  1 21  1  1  0  0  0
  2 11  1  0  0  0  0
  2  4  2  0  0  0  0
  3  9  1  0  0  0  0
  4  3  1  0  0  0  0
  6  1  1  6  0  0  0
  6 10  1  0  0  0  0
  6 12  1  0  0  0  0
  7  9  1  0  0  0  0
  7  8  1  0  0  0  0
  9  5  2  0  0  0  0
 10  7  2  0  0  0  0
 11 10  1  0  0  0  0
 12  8  1  0  0  0  0
 13 14  1  0  0  0  0
 13  4  1  0  0  0  0
 15 13  1  0  0  0  0
 18 19  2  0  0  0  0
 19 23  1  0  0  0  0
 19 17  1  0  0  0  0
 20 21  2  0  0  0  0
 21 23  1  0  0  0  0
 22 24  1  0  0  0  0
 22 18  1  0  0  0  0
 24 16  1  6  0  0  0
 24 20  1  0  0  0  0
 25 31  1  0  0  0  0
 25  1  1  1  0  0  0
 26 28  1  0  0  0  0
 26 27  1  0  0  0  0
 27 29  1  1  0  0  0
 27 25  1  0  0  0  0
 28 30  1  0  0  0  0
 30 31  1  0  0  0  0
M  END
>  <MODEL>
6

>  <REMARK>
 VINA RESULT:      -6.9      2.619      4.454
  Name = 
  4 active torsions:
  status: ('A' for Active; 'I' for Inactive)
    1  A    between atoms: C_3  and  C_6
    2  A    between atoms: C_6  and  C_17
    3  A    between atoms: C_6  and  C_25
    4  A    between atoms: C_8  and  C_11
                            x       y       z     vdW  Elec       q    Type
                         _______ _______ _______ _____ _____    ______ ____

>  <TORSDO>
F 4

$$$$
=
 OpenBabel11062421243D

 31 34  0  0  1  0  0  0  0  0999 V2000
  190.2940  175.7740  143.9960 C   0  0  1  0  0  3  0  0  0  0  0  0
  186.5030  176.7150  144.1170 C   0  0  0  0  0  3  0  0  0  0  0  0
  185.6100  177.4280  146.2990 C   0  0  0  0  0  2  0  0  0  0  0  0
  185.7120  177.5460  144.8030 C   0  0  0  0  0  0  0  0  0  0  0  0
  186.8670  178.6720  147.8680 O   0  0  0  0  0  0  0  0  0  0  0  0
  189.8440  175.8520  145.4740 C   0  0  2  0  0  3  0  0  0  0  0  0
  188.2000  177.1480  146.6360 C   0  0  0  0  0  0  0  0  0  0  0  0
  189.6590  177.5560  147.5810 S   0  0  0  0  0  0  0  0  0  0  0  0
  186.9020  177.7930  146.9680 C   0  0  0  0  0  0  0  0  0  0  0  0
  188.4130  176.2840  145.6360 C   0  0  0  0  0  0  0  0  0  0  0  0
  187.3110  175.6670  144.8180 C   0  0  0  0  0  2  0  0  0  0  0  0
  190.6760  176.8780  146.2420 C   0  0  0  0  0  2  0  0  0  0  0  0
  184.9460  178.5980  144.0600 C   0  0  0  0  0  3  0  0  0  0  0  0
  184.8780  178.2710  142.5800 C   0  0  0  0  0  1  0  0  0  0  0  0
  185.5690  179.9650  144.2620 C   0  0  0  0  0  1  0  0  0  0  0  0
  193.8170  173.0560  145.7610 N   0  0  0  0  0  1  0  0  0  0  0  0
  194.3780  176.5650  141.2890 N   0  0  0  0  0  1  0  0  0  0  0  0
  194.8280  175.6180  143.3800 N   0  0  0  0  0  0  0  0  0  0  0  0
  193.9360  176.0380  142.5330 C   0  0  0  0  0  0  0  0  0  0  0  0
  192.2220  174.4510  144.6470 C   0  0  0  0  0  3  0  0  0  0  0  0
  191.7440  175.3960  143.8340 C   0  0  0  0  0  0  0  0  0  0  0  0
  194.5670  175.0990  144.7120 C   0  0  0  0  0  2  0  0  0  0  0  0
  192.5220  176.0420  142.8080 N   0  0  0  0  0  2  0  0  0  0  0  0
  193.6140  173.9320  144.6230 C   0  0  1  0  0  3  0  0  0  0  0  0
  189.3710  174.8820  143.1430 C   0  0  1  0  0  3  0  0  0  0  0  0
  188.3160  174.4930  140.8920 C   0  0  0  0  0  2  0  0  0  0  0  0
  189.2680  175.3760  141.6920 C   0  0  1  0  0  3  0  0  0  0  0  0
  188.7650  173.0360  140.9440 C   0  0  0  0  0  2  0  0  0  0  0  0
  188.7970  176.6900  141.6680 O   0  0  0  0  0  1  0  0  0  0  0  0
  188.7970  172.5550  142.3900 C   0  0  0  0  0  2  0  0  0  0  0  0
  189.7710  173.4020  143.1990 C   0  0  0  0  0  2  0  0  0  0  0  0
  1 21  1  1  0  0  0
  2  4  2  0  0  0  0
  2 11  1  0  0  0  0
  3  9  1  0  0  0  0
  4  3  1  0  0  0  0
  6  1  1  6  0  0  0
  6 10  1  0  0  0  0
  6 12  1  0  0  0  0
  7  9  1  0  0  0  0
  7  8  1  0  0  0  0
  9  5  2  0  0  0  0
 10  7  2  0  0  0  0
 11 10  1  0  0  0  0
 12  8  1  0  0  0  0
 13 15  1  0  0  0  0
 13  4  1  0  0  0  0
 14 13  1  0  0  0  0
 17 19  1  0  0  0  0
 18 22  1  0  0  0  0
 19 23  1  0  0  0  0
 19 18  2  0  0  0  0
 21 20  2  0  0  0  0
 23 21  1  0  0  0  0
 24 20  1  0  0  0  0
 24 22  1  0  0  0  0
 24 16  1  1  0  0  0
 25 31  1  0  0  0  0
 25  1  1  1  0  0  0
 26 28  1  0  0  0  0
 26 27  1  0  0  0  0
 27 29  1  1  0  0  0
 27 25  1  0  0  0  0
 28 30  1  0  0  0  0
 30 31  1  0  0  0  0
M  END
>  <MODEL>
7

>  <REMARK>
 VINA RESULT:      -6.9      2.655      4.209
  Name = 
  4 active torsions:
  status: ('A' for Active; 'I' for Inactive)
    1  A    between atoms: C_3  and  C_6
    2  A    between atoms: C_6  and  C_17
    3  A    between atoms: C_6  and  C_25
    4  A    between atoms: C_8  and  C_11
                            x       y       z     vdW  Elec       q    Type
                         _______ _______ _______ _____ _____    ______ ____

>  <TORSDO>
F 4

$$$$
=
 OpenBabel11062421243D

 31 34  0  0  1  0  0  0  0  0999 V2000
  192.7790  174.6450  144.4650 C   0  0  1  0  0  3  0  0  0  0  0  0
  188.9580  175.4240  144.2030 C   0  0  0  0  0  3  0  0  0  0  0  0
  187.8920  176.4040  146.1960 C   0  0  0  0  0  2  0  0  0  0  0  0
  188.0930  176.3090  144.7080 C   0  0  0  0  0  0  0  0  0  0  0  0
  188.9930  177.9160  147.6420 O   0  0  0  0  0  0  0  0  0  0  0  0
  192.2250  174.9160  145.8830 C   0  0  2  0  0  3  0  0  0  0  0  0
  190.4600  176.2910  146.7340 C   0  0  0  0  0  0  0  0  0  0  0  0
  191.8340  176.8960  147.7010 S   0  0  0  0  0  0  0  0  0  0  0  0
  189.1200  176.9190  146.8850 C   0  0  0  0  0  0  0  0  0  0  0  0
  190.7720  175.3010  145.8880 C   0  0  0  0  0  0  0  0  0  0  0  0
  189.7520  174.5250  145.1010 C   0  0  0  0  0  2  0  0  0  0  0  0
  192.9650  176.0770  146.5440 C   0  0  0  0  0  2  0  0  0  0  0  0
  187.3450  177.2080  143.7710 C   0  0  0  0  0  3  0  0  0  0  0  0
  186.6240  178.3030  144.5330 C   0  0  0  0  0  1  0  0  0  0  0  0
  186.3540  176.4160  142.9390 C   0  0  0  0  0  1  0  0  0  0  0  0
  196.2570  176.7910  141.9720 N   0  0  0  0  0  1  0  0  0  0  0  0
  197.1370  173.4400  146.5130 N   0  0  0  0  0  1  0  0  0  0  0  0
  197.3360  174.2260  144.3200 N   0  0  0  0  0  0  0  0  0  0  0  0
  196.5570  173.9650  145.3260 C   0  0  0  0  0  0  0  0  0  0  0  0
  194.7160  175.6710  143.4210 C   0  0  0  0  0  3  0  0  0  0  0  0
  194.2710  174.8340  144.3620 C   0  0  0  0  0  0  0  0  0  0  0  0
  196.9180  174.7150  143.0160 C   0  0  0  0  0  2  0  0  0  0  0  0
  195.1270  174.1360  145.2870 N   0  0  0  0  0  2  0  0  0  0  0  0
  196.1450  176.0000  143.1840 C   0  0  1  0  0  3  0  0  0  0  0  0
  192.3350  173.2780  143.9060 C   0  0  1  0  0  3  0  0  0  0  0  0
  191.9370  171.8710  141.8590 C   0  0  0  0  0  2  0  0  0  0  0  0
  192.4220  173.2230  142.3740 C   0  0  1  0  0  3  0  0  0  0  0  0
  192.7360  170.7370  142.4940 C   0  0  0  0  0  2  0  0  0  0  0  0
  191.6350  174.2310  141.8150 O   0  0  0  0  0  1  0  0  0  0  0  0
  192.5810  170.7800  144.0100 C   0  0  0  0  0  2  0  0  0  0  0  0
  193.0940  172.1090  144.5490 C   0  0  0  0  0  2  0  0  0  0  0  0
  1 21  1  1  0  0  0
  2  4  2  0  0  0  0
  2 11  1  0  0  0  0
  3  9  1  0  0  0  0
  4  3  1  0  0  0  0
  6  1  1  6  0  0  0
  6 10  1  0  0  0  0
  6 12  1  0  0  0  0
  7  9  1  0  0  0  0
  7  8  1  0  0  0  0
  9  5  2  0  0  0  0
 10  7  2  0  0  0  0
 11 10  1  0  0  0  0
 12  8  1  0  0  0  0
 13 14  1  0  0  0  0
 13  4  1  0  0  0  0
 15 13  1  0  0  0  0
 18 19  2  0  0  0  0
 19 17  1  0  0  0  0
 20 21  2  0  0  0  0
 21 23  1  0  0  0  0
 22 24  1  0  0  0  0
 22 18  1  0  0  0  0
 23 19  1  0  0  0  0
 24 16  1  6  0  0  0
 24 20  1  0  0  0  0
 25  1  1  1  0  0  0
 25 31  1  0  0  0  0
 26 27  1  0  0  0  0
 26 28  1  0  0  0  0
 27 29  1  6  0  0  0
 27 25  1  0  0  0  0
 28 30  1  0  0  0  0
 30 31  1  0  0  0  0
M  END
>  <MODEL>
8

>  <REMARK>
 VINA RESULT:      -6.8      3.298      5.301
  Name = 
  4 active torsions:
  status: ('A' for Active; 'I' for Inactive)
    1  A    between atoms: C_3  and  C_6
    2  A    between atoms: C_6  and  C_17
    3  A    between atoms: C_6  and  C_25
    4  A    between atoms: C_8  and  C_11
                            x       y       z     vdW  Elec       q    Type
                         _______ _______ _______ _____ _____    ______ ____

>  <TORSDO>
F 4

$$$$
=
 OpenBabel11062421243D

 31 34  0  0  1  0  0  0  0  0999 V2000
  191.4520  174.5490  143.9210 C   0  0  1  0  0  3  0  0  0  0  0  0
  195.1590  175.5330  144.6730 C   0  0  0  0  0  3  0  0  0  0  0  0
  196.6060  173.7640  145.5950 C   0  0  0  0  0  2  0  0  0  0  0  0
  196.3560  174.9380  144.6870 C   0  0  0  0  0  0  0  0  0  0  0  0
  196.4140  171.4880  144.9880 O   0  0  0  0  0  0  0  0  0  0  0  0
  192.0950  173.4480  144.7980 C   0  0  2  0  0  3  0  0  0  0  0  0
  194.3230  172.6010  145.0200 C   0  0  0  0  0  0  0  0  0  0  0  0
  193.4390  171.0930  144.6560 S   0  0  0  0  0  0  0  0  0  0  0  0
  195.8000  172.5690  145.1820 C   0  0  0  0  0  0  0  0  0  0  0  0
  193.5500  173.6930  145.0840 C   0  0  0  0  0  0  0  0  0  0  0  0
  194.0440  175.0380  145.5420 C   0  0  0  0  0  2  0  0  0  0  0  0
  192.0310  172.0910  144.1000 C   0  0  0  0  0  2  0  0  0  0  0  0
  197.4310  175.4500  143.7770 C   0  0  0  0  0  3  0  0  0  0  0  0
  197.0200  176.7660  143.1430 C   0  0  0  0  0  1  0  0  0  0  0  0
  197.7580  174.4340  142.7000 C   0  0  0  0  0  1  0  0  0  0  0  0
  187.5780  172.6780  141.8240 N   0  0  0  0  0  1  0  0  0  0  0  0
  192.5140  173.7150  139.1450 N   0  0  0  0  0  1  0  0  0  0  0  0
  190.6650  172.5000  139.9030 N   0  0  0  0  0  0  0  0  0  0  0  0
  191.5900  173.3730  140.1700 C   0  0  0  0  0  0  0  0  0  0  0  0
  189.6150  173.6600  142.6070 C   0  0  0  0  0  3  0  0  0  0  0  0
  190.8990  174.0260  142.6200 C   0  0  0  0  0  0  0  0  0  0  0  0
  189.6720  171.9920  140.8350 C   0  0  0  0  0  2  0  0  0  0  0  0
  191.7600  173.9760  141.4660 N   0  0  0  0  0  2  0  0  0  0  0  0
  188.8900  173.1440  141.4180 C   0  0  1  0  0  3  0  0  0  0  0  0
  190.4130  175.3880  144.6900 C   0  0  1  0  0  3  0  0  0  0  0  0
  189.0540  175.6420  146.7930 C   0  0  0  0  0  2  0  0  0  0  0  0
  190.1150  174.8070  146.0810 C   0  0  1  0  0  3  0  0  0  0  0  0
  189.4940  177.0980  146.8900 C   0  0  0  0  0  2  0  0  0  0  0  0
  189.6560  173.4950  145.9610 O   0  0  0  0  0  1  0  0  0  0  0  0
  189.7220  177.6660  145.4940 C   0  0  0  0  0  2  0  0  0  0  0  0
  190.8050  176.8680  144.7780 C   0  0  0  0  0  2  0  0  0  0  0  0
  1 21  1  6  0  0  0
  2  4  2  0  0  0  0
  2 11  1  0  0  0  0
  4  3  1  0  0  0  0
  5  9  2  0  0  0  0
  6  1  1  6  0  0  0
  6 10  1  0  0  0  0
  7 10  2  0  0  0  0
  7  9  1  0  0  0  0
  8  7  1  0  0  0  0
  9  3  1  0  0  0  0
 10 11  1  0  0  0  0
 12  8  1  0  0  0  0
 12  6  1  0  0  0  0
 13  4  1  0  0  0  0
 14 13  1  0  0  0  0
 15 13  1  0  0  0  0
 17 19  1  0  0  0  0
 18 19  2  0  0  0  0
 18 22  1  0  0  0  0
 19 23  1  0  0  0  0
 20 21  2  0  0  0  0
 22 24  1  0  0  0  0
 23 21  1  0  0  0  0
 24 16  1  1  0  0  0
 24 20  1  0  0  0  0
 25  1  1  1  0  0  0
 25 31  1  0  0  0  0
 25 27  1  0  0  0  0
 26 28  1  0  0  0  0
 27 29  1  6  0  0  0
 27 26  1  0  0  0  0
 30 28  1  0  0  0  0
 31 30  1  0  0  0  0
M  END
>  <MODEL>
9

>  <REMARK>
 VINA RESULT:      -6.6      3.418      7.020
  Name = 
  4 active torsions:
  status: ('A' for Active; 'I' for Inactive)
    1  A    between atoms: C_3  and  C_6
    2  A    between atoms: C_6  and  C_17
    3  A    between atoms: C_6  and  C_25
    4  A    between atoms: C_8  and  C_11
                            x       y       z     vdW  Elec       q    Type
                         _______ _______ _______ _____ _____    ______ ____

>  <TORSDO>
F 4

$$$$
