=
 OpenBabel11072408263D

 34 36  0  0  1  0  0  0  0  0999 V2000
  191.5840  174.6190  145.6200 C   0  0  0  0  0  3  0  0  0  0  0  0
  193.6100  175.7580  146.4710 C   0  0  0  0  0  3  0  0  0  0  0  0
  190.6920  176.1630  147.3390 C   0  0  0  0  0  3  0  0  0  0  0  0
  192.9020  174.4530  146.3060 C   0  0  2  0  0  3  0  0  0  0  0  0
  191.6410  177.5000  149.0050 O   0  0  0  0  0  1  0  0  0  0  0  0
  190.5830  175.3650  146.0920 C   0  0  0  0  0  0  0  0  0  0  0  0
  193.1080  176.7630  147.1870 C   0  0  0  0  0  3  0  0  0  0  0  0
  191.7830  176.7630  147.8370 C   0  0  0  0  0  0  0  0  0  0  0  0
  193.6680  171.1400  144.6730 C   0  0  0  0  0  3  0  0  0  0  0  0
  193.1070  172.3300  144.8750 C   0  0  0  0  0  3  0  0  0  0  0  0
  195.0650  173.7340  145.4950 C   0  0  0  0  0  3  0  0  0  0  0  0
  195.0170  170.7860  145.2240 C   0  0  2  0  0  3  0  0  0  0  0  0
  196.0850  172.9390  144.7820 C   0  0  0  0  0  3  0  0  0  0  0  0
  196.0360  171.6500  144.6300 N   0  0  0  0  0  0  0  0  0  0  0  0
  193.7550  173.4630  145.5780 C   0  0  0  0  0  0  0  0  0  0  0  0
  195.3310  169.3700  144.9700 N   0  0  0  0  0  0  0  0  0  0  0  0
  194.1440  168.7010  144.4340 C   0  0  0  0  0  1  0  0  0  0  0  0
  197.1570  169.1100  146.6850 C   0  0  0  0  0  1  0  0  0  0  0  0
  195.7570  168.7070  146.2180 C   0  0  0  0  0  3  0  0  0  0  0  0
  194.7400  168.9140  147.3260 C   0  0  0  0  0  1  0  0  0  0  0  0
  189.5140  177.3450  144.1780 O   0  0  0  0  0  0  0  0  0  0  0  0
  188.8570  176.3020  144.4380 C   0  0  0  0  0  0  0  0  0  0  0  0
  189.3470  175.3250  145.3660 N   0  0  0  0  0  2  0  0  0  0  0  0
  187.5450  176.0800  143.7590 C   0  0  0  0  0  2  0  0  0  0  0  0
  184.6010  178.5100  147.2810 Cl  0  0  0  0  0  0  0  0  0  0  0  0
  185.2390  178.3850  145.6570 C   0  0  0  0  0  0  0  0  0  0  0  0
  186.6070  177.2150  144.0250 C   0  0  0  0  0  0  0  0  0  0  0  0
  185.4210  179.2430  143.4060 C   0  0  0  0  0  3  0  0  0  0  0  0
  186.2680  178.1830  143.0430 C   0  0  0  0  0  0  0  0  0  0  0  0
  184.9100  179.3450  144.7020 C   0  0  0  0  0  3  0  0  0  0  0  0
  186.0860  177.3300  145.3200 C   0  0  0  0  0  3  0  0  0  0  0  0
  186.7640  178.1340  141.6460 C   0  0  0  0  0  0  0  0  0  0  0  0
  185.9480  178.0070  140.6940 O   0  0  0  0  0  0  0  0  0  0  0  0
  188.1210  178.2010  141.3560 O   0  0  0  0  0  1  0  0  0  0  0  0
  1  6  2  0  0  0  0
  1  4  1  0  0  0  0
  2  7  2  0  0  0  0
  3  8  2  0  0  0  0
  4 15  1  6  0  0  0
  4  2  1  0  0  0  0
  6  3  1  0  0  0  0
  7  8  1  0  0  0  0
  8  5  1  0  0  0  0
  9 10  2  0  0  0  0
  9 12  1  0  0  0  0
 10 15  1  0  0  0  0
 11 15  2  0  0  0  0
 12 16  1  6  0  0  0
 13 11  1  0  0  0  0
 14 13  2  0  0  0  0
 14 12  1  0  0  0  0
 16 19  1  0  0  0  0
 17 16  1  0  0  0  0
 19 18  1  0  0  0  0
 19 20  1  0  0  0  0
 21 22  2  0  0  0  0
 22 23  1  0  0  0  0
 23  6  1  0  0  0  0
 24 27  1  0  0  0  0
 24 22  1  0  0  0  0
 26 25  1  0  0  0  0
 27 31  2  0  0  0  0
 28 30  1  0  0  0  0
 29 28  2  0  0  0  0
 29 27  1  0  0  0  0
 30 26  2  0  0  0  0
 31 26  1  0  0  0  0
 32 29  1  0  0  0  0
 33 32  2  0  0  0  0
 34 32  1  0  0  0  0
M  END
>  <MODEL>
1

>  <REMARK>
 VINA RESULT:      -8.0      0.000      0.000
  Name = 
  7 active torsions:
  status: ('A' for Active; 'I' for Inactive)
    1  A    between atoms: N_3  and  C_17
    2  A    between atoms: N_3  and  C_30
    3  A    between atoms: C_7  and  C_29
    4  A    between atoms: C_12  and  C_15
    5  A    between atoms: C_14  and  C_15
    6  A    between atoms: C_19  and  C_28
    7  A    between atoms: C_21  and  N_32
                            x       y       z     vdW  Elec       q    Type
                         _______ _______ _______ _____ _____    ______ ____

>  <TORSDO>
F 7

$$$$
=
 OpenBabel11072408263D

 34 36  0  0  1  0  0  0  0  0999 V2000
  190.0950  174.2920  142.1080 C   0  0  0  0  0  3  0  0  0  0  0  0
  189.0520  174.2230  139.8650 C   0  0  0  0  0  3  0  0  0  0  0  0
  190.7500  172.0670  141.2420 C   0  0  0  0  0  3  0  0  0  0  0  0
  188.8150  174.3290  141.3370 C   0  0  2  0  0  3  0  0  0  0  0  0
  190.1230  170.7630  139.4060 O   0  0  0  0  0  1  0  0  0  0  0  0
  190.9530  173.2700  142.0870 C   0  0  0  0  0  0  0  0  0  0  0  0
  189.6230  173.1590  139.3040 C   0  0  0  0  0  3  0  0  0  0  0  0
  190.1620  171.9980  140.0390 C   0  0  0  0  0  0  0  0  0  0  0  0
  186.8930  176.6540  143.6010 C   0  0  0  0  0  3  0  0  0  0  0  0
  187.9200  175.9810  143.0880 C   0  0  0  0  0  3  0  0  0  0  0  0
  187.5800  176.2910  140.6430 C   0  0  0  0  0  3  0  0  0  0  0  0
  185.6730  176.9910  142.7980 C   0  0  2  0  0  3  0  0  0  0  0  0
  186.8390  177.5650  140.7280 C   0  0  0  0  0  3  0  0  0  0  0  0
  186.0360  177.8840  141.6990 N   0  0  0  0  0  0  0  0  0  0  0  0
  188.0320  175.5600  141.6710 C   0  0  0  0  0  0  0  0  0  0  0  0
  184.6410  177.6110  143.6460 N   0  0  0  0  0  0  0  0  0  0  0  0
  183.7910  178.4710  142.8200 C   0  0  0  0  0  1  0  0  0  0  0  0
  185.3780  179.8990  144.3960 C   0  0  0  0  0  1  0  0  0  0  0  0
  185.2680  178.4080  144.7180 C   0  0  0  0  0  3  0  0  0  0  0  0
  184.5630  178.1940  146.0460 C   0  0  0  0  0  1  0  0  0  0  0  0
  191.4320  171.7640  144.5830 O   0  0  0  0  0  0  0  0  0  0  0  0
  192.2830  172.6000  144.1790 C   0  0  0  0  0  0  0  0  0  0  0  0
  192.0770  173.3500  142.9740 N   0  0  0  0  0  2  0  0  0  0  0  0
  193.5320  172.8070  144.9710 C   0  0  0  0  0  2  0  0  0  0  0  0
  190.9970  176.3890  147.7480 Cl  0  0  0  0  0  0  0  0  0  0  0  0
  192.4190  175.8700  146.8710 C   0  0  0  0  0  0  0  0  0  0  0  0
  193.5730  174.1830  145.5560 C   0  0  0  0  0  0  0  0  0  0  0  0
  194.6670  176.2850  146.0920 C   0  0  0  0  0  3  0  0  0  0  0  0
  194.7080  175.0300  145.4610 C   0  0  0  0  0  0  0  0  0  0  0  0
  193.5330  176.7030  146.7920 C   0  0  0  0  0  3  0  0  0  0  0  0
  192.4420  174.6160  146.2610 C   0  0  0  0  0  3  0  0  0  0  0  0
  195.9420  174.6590  144.7270 C   0  0  0  0  0  0  0  0  0  0  0  0
  196.9310  174.1940  145.3550 O   0  0  0  0  0  1  0  0  0  0  0  0
  196.0490  174.8340  143.3530 O   0  0  0  0  0  0  0  0  0  0  0  0
  2  4  1  0  0  0  0
  3  6  1  0  0  0  0
  4 15  1  6  0  0  0
  4  1  1  0  0  0  0
  5  8  1  0  0  0  0
  6  1  2  0  0  0  0
  6 23  1  0  0  0  0
  7  2  2  0  0  0  0
  7  8  1  0  0  0  0
  8  3  2  0  0  0  0
 10  9  2  0  0  0  0
 11 13  1  0  0  0  0
 11 15  2  0  0  0  0
 12  9  1  0  0  0  0
 12 16  1  1  0  0  0
 13 14  2  0  0  0  0
 14 12  1  0  0  0  0
 15 10  1  0  0  0  0
 16 19  1  0  0  0  0
 17 16  1  0  0  0  0
 18 19  1  0  0  0  0
 19 20  1  0  0  0  0
 22 21  2  0  0  0  0
 22 24  1  0  0  0  0
 23 22  1  0  0  0  0
 24 27  1  0  0  0  0
 26 25  1  0  0  0  0
 27 31  1  0  0  0  0
 28 30  2  0  0  0  0
 29 27  2  0  0  0  0
 29 28  1  0  0  0  0
 30 26  1  0  0  0  0
 31 26  2  0  0  0  0
 32 33  1  0  0  0  0
 32 29  1  0  0  0  0
 34 32  2  0  0  0  0
M  END
>  <MODEL>
2

>  <REMARK>
 VINA RESULT:      -7.7      3.808      9.662
  Name = 
  7 active torsions:
  status: ('A' for Active; 'I' for Inactive)
    1  A    between atoms: N_3  and  C_17
    2  A    between atoms: N_3  and  C_30
    3  A    between atoms: C_7  and  C_29
    4  A    between atoms: C_12  and  C_15
    5  A    between atoms: C_14  and  C_15
    6  A    between atoms: C_19  and  C_28
    7  A    between atoms: C_21  and  N_32
                            x       y       z     vdW  Elec       q    Type
                         _______ _______ _______ _____ _____    ______ ____

>  <TORSDO>
F 7

$$$$
=
 OpenBabel11072408263D

 34 36  0  0  1  0  0  0  0  0999 V2000
  192.0940  176.9830  143.8520 C   0  0  0  0  0  3  0  0  0  0  0  0
  193.5860  176.4610  145.7570 C   0  0  0  0  0  3  0  0  0  0  0  0
  190.5200  176.3070  145.6400 C   0  0  0  0  0  3  0  0  0  0  0  0
  193.2010  176.1130  144.3550 C   0  0  2  0  0  3  0  0  0  0  0  0
  190.7450  175.3170  147.7450 O   0  0  0  0  0  1  0  0  0  0  0  0
  190.8840  177.0550  144.4100 C   0  0  0  0  0  0  0  0  0  0  0  0
  192.7390  176.3640  146.7790 C   0  0  0  0  0  3  0  0  0  0  0  0
  191.3160  175.9860  146.6710 C   0  0  0  0  0  0  0  0  0  0  0  0
  194.9730  175.8850  141.0330 C   0  0  0  0  0  3  0  0  0  0  0  0
  194.1570  176.3390  141.9820 C   0  0  0  0  0  3  0  0  0  0  0  0
  195.5930  176.2140  144.0100 C   0  0  0  0  0  3  0  0  0  0  0  0
  196.1910  175.0690  141.3450 C   0  0  2  0  0  3  0  0  0  0  0  0
  196.8910  176.3350  143.3150 C   0  0  0  0  0  3  0  0  0  0  0  0
  197.1340  175.8670  142.1280 N   0  0  0  0  0  0  0  0  0  0  0  0
  194.3820  176.1770  143.4390 C   0  0  0  0  0  0  0  0  0  0  0  0
  196.8280  174.5850  140.1100 N   0  0  0  0  0  0  0  0  0  0  0  0
  197.7410  175.6110  139.6030 C   0  0  0  0  0  1  0  0  0  0  0  0
  196.1300  174.8310  137.7020 C   0  0  0  0  0  1  0  0  0  0  0  0
  195.8060  174.2770  139.0910 C   0  0  0  0  0  3  0  0  0  0  0  0
  195.5260  172.7860  139.0240 C   0  0  0  0  0  1  0  0  0  0  0  0
  188.5440  176.1550  142.8480 O   0  0  0  0  0  0  0  0  0  0  0  0
  188.7740  177.3850  142.9840 C   0  0  0  0  0  0  0  0  0  0  0  0
  189.9040  177.8530  143.7330 N   0  0  0  0  0  2  0  0  0  0  0  0
  187.8460  178.3740  142.3580 C   0  0  0  0  0  2  0  0  0  0  0  0
  185.5400  178.9500  146.9770 Cl  0  0  0  0  0  0  0  0  0  0  0  0
  185.4410  178.7220  145.2450 C   0  0  0  0  0  0  0  0  0  0  0  0
  186.5480  178.4320  143.1010 C   0  0  0  0  0  0  0  0  0  0  0  0
  184.1230  178.4760  143.2360 C   0  0  0  0  0  3  0  0  0  0  0  0
  185.2850  178.3560  142.4570 C   0  0  0  0  0  0  0  0  0  0  0  0
  184.1980  178.6580  144.6190 C   0  0  0  0  0  3  0  0  0  0  0  0
  186.6090  178.6140  144.4880 C   0  0  0  0  0  3  0  0  0  0  0  0
  185.1270  178.1540  140.9960 C   0  0  0  0  0  0  0  0  0  0  0  0
  184.1710  178.7040  140.3860 O   0  0  0  0  0  1  0  0  0  0  0  0
  185.9990  177.3470  140.2770 O   0  0  0  0  0  0  0  0  0  0  0  0
  1  4  1  0  0  0  0
  1  6  2  0  0  0  0
  2  7  2  0  0  0  0
  3  8  2  0  0  0  0
  4 15  1  6  0  0  0
  4  2  1  0  0  0  0
  6  3  1  0  0  0  0
  8  7  1  0  0  0  0
  8  5  1  0  0  0  0
  9 12  1  0  0  0  0
  9 10  2  0  0  0  0
 10 15  1  0  0  0  0
 12 16  1  6  0  0  0
 12 14  1  0  0  0  0
 13 11  1  0  0  0  0
 14 13  2  0  0  0  0
 15 11  2  0  0  0  0
 17 16  1  0  0  0  0
 18 19  1  0  0  0  0
 19 16  1  0  0  0  0
 20 19  1  0  0  0  0
 21 22  2  0  0  0  0
 22 23  1  0  0  0  0
 23  6  1  0  0  0  0
 24 22  1  0  0  0  0
 24 27  1  0  0  0  0
 26 25  1  0  0  0  0
 27 31  1  0  0  0  0
 28 30  2  0  0  0  0
 29 27  2  0  0  0  0
 29 28  1  0  0  0  0
 30 26  1  0  0  0  0
 31 26  2  0  0  0  0
 32 29  1  0  0  0  0
 33 32  1  0  0  0  0
 34 32  2  0  0  0  0
M  END
>  <MODEL>
3

>  <REMARK>
 VINA RESULT:      -7.5      3.699      4.405
  Name = 
  7 active torsions:
  status: ('A' for Active; 'I' for Inactive)
    1  A    between atoms: N_3  and  C_17
    2  A    between atoms: N_3  and  C_30
    3  A    between atoms: C_7  and  C_29
    4  A    between atoms: C_12  and  C_15
    5  A    between atoms: C_14  and  C_15
    6  A    between atoms: C_19  and  C_28
    7  A    between atoms: C_21  and  N_32
                            x       y       z     vdW  Elec       q    Type
                         _______ _______ _______ _____ _____    ______ ____

>  <TORSDO>
F 7

$$$$
=
 OpenBabel11072408263D

 34 36  0  0  1  0  0  0  0  0999 V2000
  191.6610  174.7960  145.6010 C   0  0  0  0  0  3  0  0  0  0  0  0
  193.6410  175.9740  146.5060 C   0  0  0  0  0  3  0  0  0  0  0  0
  190.7090  176.2220  147.3870 C   0  0  0  0  0  3  0  0  0  0  0  0
  192.9850  174.6500  146.2800 C   0  0  2  0  0  3  0  0  0  0  0  0
  191.6050  177.5180  149.1140 O   0  0  0  0  0  1  0  0  0  0  0  0
  190.6310  175.4790  146.1050 C   0  0  0  0  0  0  0  0  0  0  0  0
  193.0990  176.9240  147.2660 C   0  0  0  0  0  3  0  0  0  0  0  0
  191.7760  176.8420  147.9140 C   0  0  0  0  0  0  0  0  0  0  0  0
  196.1140  173.6880  144.4080 C   0  0  0  0  0  3  0  0  0  0  0  0
  195.3250  174.0320  145.4230 C   0  0  0  0  0  3  0  0  0  0  0  0
  193.3270  172.5990  145.0430 C   0  0  0  0  0  3  0  0  0  0  0  0
  195.5880  173.0140  143.1760 C   0  0  2  0  0  3  0  0  0  0  0  0
  194.0210  171.5210  144.3100 C   0  0  0  0  0  3  0  0  0  0  0  0
  195.0390  171.7040  143.5250 N   0  0  0  0  0  0  0  0  0  0  0  0
  193.8770  173.7300  145.5090 C   0  0  0  0  0  0  0  0  0  0  0  0
  196.6470  172.8750  142.1620 N   0  0  0  0  0  0  0  0  0  0  0  0
  197.9410  172.7360  142.8320 C   0  0  0  0  0  1  0  0  0  0  0  0
  197.9410  174.8920  141.3880 C   0  0  0  0  0  1  0  0  0  0  0  0
  196.6660  174.0540  141.2750 C   0  0  0  0  0  3  0  0  0  0  0  0
  196.4060  173.6610  139.8320 C   0  0  0  0  0  1  0  0  0  0  0  0
  189.5600  177.4240  144.1570 O   0  0  0  0  0  0  0  0  0  0  0  0
  188.9070  176.3830  144.4310 C   0  0  0  0  0  0  0  0  0  0  0  0
  189.3980  175.4220  145.3750 N   0  0  0  0  0  2  0  0  0  0  0  0
  187.5980  176.1460  143.7520 C   0  0  0  0  0  2  0  0  0  0  0  0
  184.7050  178.5050  147.3630 Cl  0  0  0  0  0  0  0  0  0  0  0  0
  185.2890  178.3910  145.7170 C   0  0  0  0  0  0  0  0  0  0  0  0
  186.6350  177.2530  144.0440 C   0  0  0  0  0  0  0  0  0  0  0  0
  185.3670  179.2400  143.4580 C   0  0  0  0  0  3  0  0  0  0  0  0
  186.2330  178.2050  143.0710 C   0  0  0  0  0  0  0  0  0  0  0  0
  184.8980  179.3340  144.7700 C   0  0  0  0  0  3  0  0  0  0  0  0
  186.1570  177.3590  145.3570 C   0  0  0  0  0  3  0  0  0  0  0  0
  186.6820  178.1630  141.6570 C   0  0  0  0  0  0  0  0  0  0  0  0
  185.8320  178.0770  140.7310 O   0  0  0  0  0  0  0  0  0  0  0  0
  188.0290  178.1920  141.3230 O   0  0  0  0  0  1  0  0  0  0  0  0
  1  6  2  0  0  0  0
  1  4  1  0  0  0  0
  2  7  2  0  0  0  0
  3  8  2  0  0  0  0
  4 15  1  6  0  0  0
  4  2  1  0  0  0  0
  6  3  1  0  0  0  0
  7  8  1  0  0  0  0
  8  5  1  0  0  0  0
  9 10  2  0  0  0  0
 10 15  1  0  0  0  0
 11 15  2  0  0  0  0
 12 16  1  6  0  0  0
 12 14  1  0  0  0  0
 12  9  1  0  0  0  0
 13 11  1  0  0  0  0
 14 13  2  0  0  0  0
 16 17  1  0  0  0  0
 19 18  1  0  0  0  0
 19 16  1  0  0  0  0
 20 19  1  0  0  0  0
 21 22  2  0  0  0  0
 22 23  1  0  0  0  0
 23  6  1  0  0  0  0
 24 27  1  0  0  0  0
 24 22  1  0  0  0  0
 26 25  1  0  0  0  0
 27 31  2  0  0  0  0
 28 30  1  0  0  0  0
 29 28  2  0  0  0  0
 29 27  1  0  0  0  0
 30 26  2  0  0  0  0
 31 26  1  0  0  0  0
 32 29  1  0  0  0  0
 33 32  2  0  0  0  0
 34 32  1  0  0  0  0
M  END
>  <MODEL>
4

>  <REMARK>
 VINA RESULT:      -7.5      1.533      2.952
  Name = 
  7 active torsions:
  status: ('A' for Active; 'I' for Inactive)
    1  A    between atoms: N_3  and  C_17
    2  A    between atoms: N_3  and  C_30
    3  A    between atoms: C_7  and  C_29
    4  A    between atoms: C_12  and  C_15
    5  A    between atoms: C_14  and  C_15
    6  A    between atoms: C_19  and  C_28
    7  A    between atoms: C_21  and  N_32
                            x       y       z     vdW  Elec       q    Type
                         _______ _______ _______ _____ _____    ______ ____

>  <TORSDO>
F 7

$$$$
=
 OpenBabel11072408263D

 34 36  0  0  1  0  0  0  0  0999 V2000
  185.9790  177.5650  144.0810 C   0  0  0  0  0  3  0  0  0  0  0  0
  184.1390  178.1530  145.6290 C   0  0  0  0  0  3  0  0  0  0  0  0
  187.1430  177.9410  146.2340 C   0  0  0  0  0  3  0  0  0  0  0  0
  184.8810  178.5320  144.3880 C   0  0  2  0  0  3  0  0  0  0  0  0
  186.5270  178.8280  148.3070 O   0  0  0  0  0  1  0  0  0  0  0  0
  187.0060  177.3150  144.8940 C   0  0  0  0  0  0  0  0  0  0  0  0
  184.7240  178.0880  146.8230 C   0  0  0  0  0  3  0  0  0  0  0  0
  186.1630  178.2970  147.0780 C   0  0  0  0  0  0  0  0  0  0  0  0
  181.5620  179.1630  142.7090 C   0  0  0  0  0  3  0  0  0  0  0  0
  182.6770  179.4020  143.3960 C   0  0  0  0  0  3  0  0  0  0  0  0
  184.3920  178.2150  142.0390 C   0  0  0  0  0  3  0  0  0  0  0  0
  181.4530  178.0390  141.7230 C   0  0  2  0  0  3  0  0  0  0  0  0
  183.6790  178.2910  140.7480 C   0  0  0  0  0  3  0  0  0  0  0  0
  182.3870  178.2560  140.6200 N   0  0  0  0  0  0  0  0  0  0  0  0
  183.9520  178.6650  143.2230 C   0  0  0  0  0  0  0  0  0  0  0  0
  180.0760  177.9190  141.2170 N   0  0  0  0  0  0  0  0  0  0  0  0
  179.8730  178.8880  140.1380 C   0  0  0  0  0  1  0  0  0  0  0  0
  178.0570  179.2270  141.9620 C   0  0  0  0  0  1  0  0  0  0  0  0
  179.1060  178.1660  142.3010 C   0  0  0  0  0  3  0  0  0  0  0  0
  178.4410  176.8760  142.7490 C   0  0  0  0  0  1  0  0  0  0  0  0
  189.7780  177.9910  144.1300 O   0  0  0  0  0  0  0  0  0  0  0  0
  189.3720  176.8030  144.0360 C   0  0  0  0  0  0  0  0  0  0  0  0
  188.0310  176.4440  144.3960 N   0  0  0  0  0  2  0  0  0  0  0  0
  190.3100  175.7490  143.5480 C   0  0  0  0  0  2  0  0  0  0  0  0
  195.3350  176.7910  144.3470 Cl  0  0  0  0  0  0  0  0  0  0  0  0
  193.8220  176.0950  144.8830 C   0  0  0  0  0  0  0  0  0  0  0  0
  191.4780  175.6030  144.4720 C   0  0  0  0  0  0  0  0  0  0  0  0
  192.5260  174.9400  146.5610 C   0  0  0  0  0  3  0  0  0  0  0  0
  191.3840  174.9790  145.7430 C   0  0  0  0  0  0  0  0  0  0  0  0
  193.7350  175.4940  146.1360 C   0  0  0  0  0  3  0  0  0  0  0  0
  192.6980  176.1530  144.0580 C   0  0  0  0  0  3  0  0  0  0  0  0
  190.1370  174.3610  146.2580 C   0  0  0  0  0  0  0  0  0  0  0  0
  189.5110  174.9060  147.2050 O   0  0  0  0  0  1  0  0  0  0  0  0
  189.6480  173.1710  145.7340 O   0  0  0  0  0  0  0  0  0  0  0  0
  1  4  1  0  0  0  0
  1  6  2  0  0  0  0
  2  7  2  0  0  0  0
  3  8  2  0  0  0  0
  4 15  1  6  0  0  0
  4  2  1  0  0  0  0
  6  3  1  0  0  0  0
  7  8  1  0  0  0  0
  8  5  1  0  0  0  0
  9 10  2  0  0  0  0
 11 15  2  0  0  0  0
 12 16  1  6  0  0  0
 12  9  1  0  0  0  0
 13 11  1  0  0  0  0
 14 13  2  0  0  0  0
 14 12  1  0  0  0  0
 15 10  1  0  0  0  0
 16 19  1  0  0  0  0
 17 16  1  0  0  0  0
 18 19  1  0  0  0  0
 19 20  1  0  0  0  0
 22 21  2  0  0  0  0
 22 23  1  0  0  0  0
 23  6  1  0  0  0  0
 24 22  1  0  0  0  0
 24 27  1  0  0  0  0
 25 26  1  0  0  0  0
 26 30  1  0  0  0  0
 27 29  2  0  0  0  0
 29 32  1  0  0  0  0
 29 28  1  0  0  0  0
 30 28  2  0  0  0  0
 31 27  1  0  0  0  0
 31 26  2  0  0  0  0
 32 33  1  0  0  0  0
 34 32  2  0  0  0  0
M  END
>  <MODEL>
5

>  <REMARK>
 VINA RESULT:      -7.4      4.447     11.211
  Name = 
  7 active torsions:
  status: ('A' for Active; 'I' for Inactive)
    1  A    between atoms: N_3  and  C_17
    2  A    between atoms: N_3  and  C_30
    3  A    between atoms: C_7  and  C_29
    4  A    between atoms: C_12  and  C_15
    5  A    between atoms: C_14  and  C_15
    6  A    between atoms: C_19  and  C_28
    7  A    between atoms: C_21  and  N_32
                            x       y       z     vdW  Elec       q    Type
                         _______ _______ _______ _____ _____    ______ ____

>  <TORSDO>
F 7

$$$$
=
 OpenBabel11072408263D

 34 36  0  0  1  0  0  0  0  0999 V2000
  185.0150  177.8460  143.1310 C   0  0  0  0  0  3  0  0  0  0  0  0
  186.9100  176.5870  142.1570 C   0  0  0  0  0  3  0  0  0  0  0  0
  184.8070  178.2910  140.7040 C   0  0  0  0  0  3  0  0  0  0  0  0
  186.5000  177.6880  143.0800 C   0  0  2  0  0  3  0  0  0  0  0  0
  186.1640  177.9150  138.8380 O   0  0  0  0  0  1  0  0  0  0  0  0
  184.2550  178.1390  142.0740 C   0  0  0  0  0  0  0  0  0  0  0  0
  186.6390  176.6040  140.8530 C   0  0  0  0  0  3  0  0  0  0  0  0
  185.8500  177.6440  140.1630 C   0  0  0  0  0  0  0  0  0  0  0  0
  189.2430  177.3540  145.6470 C   0  0  0  0  0  3  0  0  0  0  0  0
  188.4440  177.9160  144.7430 C   0  0  0  0  0  3  0  0  0  0  0  0
  186.2140  177.0180  145.3870 C   0  0  0  0  0  3  0  0  0  0  0  0
  188.8440  176.1360  146.4250 C   0  0  2  0  0  3  0  0  0  0  0  0
  186.5210  176.7900  146.8140 C   0  0  0  0  0  3  0  0  0  0  0  0
  187.6890  176.4440  147.2670 N   0  0  0  0  0  0  0  0  0  0  0  0
  187.0570  177.4780  144.4530 C   0  0  0  0  0  0  0  0  0  0  0  0
  189.9640  175.6480  147.2460 N   0  0  0  0  0  0  0  0  0  0  0  0
  190.8330  176.7740  147.5960 C   0  0  0  0  0  1  0  0  0  0  0  0
  189.9480  173.9450  145.3910 C   0  0  0  0  0  1  0  0  0  0  0  0
  190.7370  174.6310  146.5080 C   0  0  0  0  0  3  0  0  0  0  0  0
  192.0360  175.2080  145.9730 C   0  0  0  0  0  1  0  0  0  0  0  0
  181.9970  177.9160  140.1830 O   0  0  0  0  0  0  0  0  0  0  0  0
  181.7850  178.2450  141.3800 C   0  0  0  0  0  0  0  0  0  0  0  0
  182.8610  178.3660  142.3210 N   0  0  0  0  0  2  0  0  0  0  0  0
  180.3840  178.5060  141.8260 C   0  0  0  0  0  2  0  0  0  0  0  0
  179.7300  182.8100  138.9940 Cl  0  0  0  0  0  0  0  0  0  0  0  0
  179.2800  181.1660  139.3900 C   0  0  0  0  0  0  0  0  0  0  0  0
  179.5950  179.1740  140.7450 C   0  0  0  0  0  0  0  0  0  0  0  0
  177.9130  179.2150  138.9920 C   0  0  0  0  0  3  0  0  0  0  0  0
  178.5590  178.5200  140.0280 C   0  0  0  0  0  0  0  0  0  0  0  0
  178.2700  180.5270  138.6740 C   0  0  0  0  0  3  0  0  0  0  0  0
  179.9410  180.4910  140.4160 C   0  0  0  0  0  3  0  0  0  0  0  0
  178.1200  177.1320  140.3150 C   0  0  0  0  0  0  0  0  0  0  0  0
  178.0850  176.2800  139.3880 O   0  0  0  0  0  0  0  0  0  0  0  0
  177.7180  176.7490  141.5880 O   0  0  0  0  0  1  0  0  0  0  0  0
  2  4  1  0  0  0  0
  3  6  1  0  0  0  0
  4  1  1  0  0  0  0
  4 15  1  1  0  0  0
  5  8  1  0  0  0  0
  6 23  1  0  0  0  0
  6  1  2  0  0  0  0
  7  2  2  0  0  0  0
  8  3  2  0  0  0  0
  8  7  1  0  0  0  0
  9 12  1  0  0  0  0
 10  9  2  0  0  0  0
 11 13  1  0  0  0  0
 12 16  1  1  0  0  0
 12 14  1  0  0  0  0
 13 14  2  0  0  0  0
 15 10  1  0  0  0  0
 15 11  2  0  0  0  0
 16 17  1  0  0  0  0
 18 19  1  0  0  0  0
 19 16  1  0  0  0  0
 20 19  1  0  0  0  0
 21 22  2  0  0  0  0
 22 24  1  0  0  0  0
 22 23  1  0  0  0  0
 25 26  1  0  0  0  0
 26 31  1  0  0  0  0
 27 24  1  0  0  0  0
 28 29  2  0  0  0  0
 29 32  1  0  0  0  0
 29 27  1  0  0  0  0
 30 28  1  0  0  0  0
 30 26  2  0  0  0  0
 31 27  2  0  0  0  0
 32 34  1  0  0  0  0
 33 32  2  0  0  0  0
M  END
>  <MODEL>
6

>  <REMARK>
 VINA RESULT:      -7.3      4.970      8.741
  Name = 
  7 active torsions:
  status: ('A' for Active; 'I' for Inactive)
    1  A    between atoms: N_3  and  C_17
    2  A    between atoms: N_3  and  C_30
    3  A    between atoms: C_7  and  C_29
    4  A    between atoms: C_12  and  C_15
    5  A    between atoms: C_14  and  C_15
    6  A    between atoms: C_19  and  C_28
    7  A    between atoms: C_21  and  N_32
                            x       y       z     vdW  Elec       q    Type
                         _______ _______ _______ _____ _____    ______ ____

>  <TORSDO>
F 7

$$$$
=
 OpenBabel11072408263D

 34 36  0  0  1  0  0  0  0  0999 V2000
  190.6750  174.9560  142.7020 C   0  0  0  0  0  3  0  0  0  0  0  0
  189.4040  173.9240  140.8460 C   0  0  0  0  0  3  0  0  0  0  0  0
  191.6420  172.6820  142.5440 C   0  0  0  0  0  3  0  0  0  0  0  0
  189.3290  174.5300  142.2100 C   0  0  2  0  0  3  0  0  0  0  0  0
  191.0650  170.7210  141.4100 O   0  0  0  0  0  1  0  0  0  0  0  0
  191.7060  174.1270  142.8760 C   0  0  0  0  0  0  0  0  0  0  0  0
  190.1000  172.8180  140.5880 C   0  0  0  0  0  3  0  0  0  0  0  0
  190.9380  172.0950  141.5650 C   0  0  0  0  0  0  0  0  0  0  0  0
  187.0590  177.0520  143.8570 C   0  0  0  0  0  3  0  0  0  0  0  0
  188.1810  176.4280  143.5040 C   0  0  0  0  0  3  0  0  0  0  0  0
  187.8210  176.0420  141.0720 C   0  0  0  0  0  3  0  0  0  0  0  0
  185.8100  176.9870  143.0300 C   0  0  2  0  0  3  0  0  0  0  0  0
  186.8970  177.1720  140.8490 C   0  0  0  0  0  3  0  0  0  0  0  0
  186.0460  177.6090  141.7280 N   0  0  0  0  0  0  0  0  0  0  0  0
  188.3680  175.6760  142.2400 C   0  0  0  0  0  0  0  0  0  0  0  0
  184.6900  177.6460  143.7200 N   0  0  0  0  0  0  0  0  0  0  0  0
  183.8740  178.3640  142.7390 C   0  0  0  0  0  1  0  0  0  0  0  0
  185.1920  180.0500  144.2810 C   0  0  0  0  0  1  0  0  0  0  0  0
  185.1960  178.5890  144.7360 C   0  0  0  0  0  3  0  0  0  0  0  0
  184.4510  178.4330  146.0510 C   0  0  0  0  0  1  0  0  0  0  0  0
  192.3410  174.4860  145.7390 O   0  0  0  0  0  0  0  0  0  0  0  0
  193.1720  174.8390  144.8610 C   0  0  0  0  0  0  0  0  0  0  0  0
  192.8910  174.6820  143.4630 N   0  0  0  0  0  2  0  0  0  0  0  0
  194.4770  175.4270  145.2880 C   0  0  0  0  0  2  0  0  0  0  0  0
  196.8720  170.8950  146.1310 Cl  0  0  0  0  0  0  0  0  0  0  0  0
  196.7430  172.4100  145.2650 C   0  0  0  0  0  0  0  0  0  0  0  0
  195.6150  174.5330  144.9080 C   0  0  0  0  0  0  0  0  0  0  0  0
  197.5350  173.9170  143.5520 C   0  0  0  0  0  3  0  0  0  0  0  0
  196.5320  174.8480  143.8710 C   0  0  0  0  0  0  0  0  0  0  0  0
  197.6410  172.7080  144.2420 C   0  0  0  0  0  3  0  0  0  0  0  0
  195.7340  173.3160  145.5910 C   0  0  0  0  0  3  0  0  0  0  0  0
  196.4880  176.1160  143.1020 C   0  0  0  0  0  0  0  0  0  0  0  0
  195.8280  176.1790  142.0310 O   0  0  0  0  0  0  0  0  0  0  0  0
  197.1830  177.2430  143.5220 O   0  0  0  0  0  1  0  0  0  0  0  0
  1  6  2  0  0  0  0
  2  4  1  0  0  0  0
  3  6  1  0  0  0  0
  4 15  1  6  0  0  0
  4  1  1  0  0  0  0
  5  8  1  0  0  0  0
  6 23  1  0  0  0  0
  7  2  2  0  0  0  0
  7  8  1  0  0  0  0
  8  3  2  0  0  0  0
 10  9  2  0  0  0  0
 11 15  2  0  0  0  0
 12 16  1  1  0  0  0
 12  9  1  0  0  0  0
 13 11  1  0  0  0  0
 13 14  2  0  0  0  0
 14 12  1  0  0  0  0
 15 10  1  0  0  0  0
 16 19  1  0  0  0  0
 17 16  1  0  0  0  0
 18 19  1  0  0  0  0
 19 20  1  0  0  0  0
 22 24  1  0  0  0  0
 22 21  2  0  0  0  0
 23 22  1  0  0  0  0
 26 31  1  0  0  0  0
 26 25  1  0  0  0  0
 27 24  1  0  0  0  0
 27 31  2  0  0  0  0
 28 29  2  0  0  0  0
 28 30  1  0  0  0  0
 29 27  1  0  0  0  0
 30 26  2  0  0  0  0
 32 34  1  0  0  0  0
 32 29  1  0  0  0  0
 33 32  2  0  0  0  0
M  END
>  <MODEL>
7

>  <REMARK>
 VINA RESULT:      -7.3      4.240     10.212
  Name = 
  7 active torsions:
  status: ('A' for Active; 'I' for Inactive)
    1  A    between atoms: N_3  and  C_17
    2  A    between atoms: N_3  and  C_30
    3  A    between atoms: C_7  and  C_29
    4  A    between atoms: C_12  and  C_15
    5  A    between atoms: C_14  and  C_15
    6  A    between atoms: C_19  and  C_28
    7  A    between atoms: C_21  and  N_32
                            x       y       z     vdW  Elec       q    Type
                         _______ _______ _______ _____ _____    ______ ____

>  <TORSDO>
F 7

$$$$
=
 OpenBabel11072408263D

 34 36  0  0  1  0  0  0  0  0999 V2000
  189.7780  174.2810  141.9420 C   0  0  0  0  0  3  0  0  0  0  0  0
  190.7690  172.4070  140.6650 C   0  0  0  0  0  3  0  0  0  0  0  0
  188.3750  174.1750  139.9040 C   0  0  0  0  0  3  0  0  0  0  0  0
  190.9990  173.7620  141.2540 C   0  0  2  0  0  3  0  0  0  0  0  0
  188.5220  173.0500  137.8600 O   0  0  0  0  0  1  0  0  0  0  0  0
  188.6070  174.4900  141.3350 C   0  0  0  0  0  0  0  0  0  0  0  0
  189.8620  172.1800  139.7170 C   0  0  0  0  0  3  0  0  0  0  0  0
  188.9230  173.1850  139.1820 C   0  0  0  0  0  0  0  0  0  0  0  0
  193.2160  175.1420  143.9740 C   0  0  0  0  0  3  0  0  0  0  0  0
  192.1400  174.6250  143.3860 C   0  0  0  0  0  3  0  0  0  0  0  0
  193.1310  172.8540  141.9470 C   0  0  0  0  0  3  0  0  0  0  0  0
  194.5980  174.9630  143.4210 C   0  0  2  0  0  3  0  0  0  0  0  0
  194.3430  172.6240  142.7590 C   0  0  0  0  0  3  0  0  0  0  0  0
  194.9570  173.5460  143.4380 N   0  0  0  0  0  0  0  0  0  0  0  0
  192.1690  173.7550  142.1860 C   0  0  0  0  0  0  0  0  0  0  0  0
  195.5760  175.7520  144.1870 N   0  0  0  0  0  0  0  0  0  0  0  0
  194.8720  176.7820  144.9530 C   0  0  0  0  0  1  0  0  0  0  0  0
  197.8680  175.6160  143.1510 C   0  0  0  0  0  1  0  0  0  0  0  0
  196.5510  176.3840  143.2770 C   0  0  0  0  0  3  0  0  0  0  0  0
  195.9430  176.6380  141.9090 C   0  0  0  0  0  1  0  0  0  0  0  0
  188.1330  177.3630  141.8360 O   0  0  0  0  0  0  0  0  0  0  0  0
  187.3650  176.5010  142.3390 C   0  0  0  0  0  0  0  0  0  0  0  0
  187.5720  175.0990  142.1190 N   0  0  0  0  0  2  0  0  0  0  0  0
  186.2140  176.9520  143.1770 C   0  0  0  0  0  2  0  0  0  0  0  0
  189.2550  175.2280  147.0180 Cl  0  0  0  0  0  0  0  0  0  0  0  0
  188.0530  176.3470  146.4150 C   0  0  0  0  0  0  0  0  0  0  0  0
  186.6250  177.1180  144.6060 C   0  0  0  0  0  0  0  0  0  0  0  0
  186.6090  178.2530  146.7540 C   0  0  0  0  0  3  0  0  0  0  0  0
  186.1190  178.1480  145.4410 C   0  0  0  0  0  0  0  0  0  0  0  0
  187.5680  177.3610  147.2380 C   0  0  0  0  0  3  0  0  0  0  0  0
  187.5870  176.2300  145.1050 C   0  0  0  0  0  3  0  0  0  0  0  0
  185.0930  179.1250  145.0000 C   0  0  0  0  0  0  0  0  0  0  0  0
  183.8950  178.9820  145.3600 O   0  0  0  0  0  1  0  0  0  0  0  0
  185.4170  180.1910  144.1710 O   0  0  0  0  0  0  0  0  0  0  0  0
  2  4  1  0  0  0  0
  3  6  1  0  0  0  0
  4  1  1  0  0  0  0
  4 15  1  1  0  0  0
  5  8  1  0  0  0  0
  6  1  2  0  0  0  0
  6 23  1  0  0  0  0
  7  2  2  0  0  0  0
  8  7  1  0  0  0  0
  8  3  2  0  0  0  0
 10  9  2  0  0  0  0
 11 15  2  0  0  0  0
 11 13  1  0  0  0  0
 12 14  1  0  0  0  0
 12  9  1  0  0  0  0
 12 16  1  1  0  0  0
 13 14  2  0  0  0  0
 15 10  1  0  0  0  0
 16 17  1  0  0  0  0
 18 19  1  0  0  0  0
 19 16  1  0  0  0  0
 20 19  1  0  0  0  0
 21 22  2  0  0  0  0
 22 24  1  0  0  0  0
 23 22  1  0  0  0  0
 24 27  1  0  0  0  0
 26 25  1  0  0  0  0
 26 30  1  0  0  0  0
 27 31  1  0  0  0  0
 27 29  2  0  0  0  0
 28 30  2  0  0  0  0
 29 28  1  0  0  0  0
 31 26  2  0  0  0  0
 32 33  1  0  0  0  0
 32 29  1  0  0  0  0
 34 32  2  0  0  0  0
M  END
>  <MODEL>
8

>  <REMARK>
 VINA RESULT:      -7.3      3.516      5.735
  Name = 
  7 active torsions:
  status: ('A' for Active; 'I' for Inactive)
    1  A    between atoms: N_3  and  C_17
    2  A    between atoms: N_3  and  C_30
    3  A    between atoms: C_7  and  C_29
    4  A    between atoms: C_12  and  C_15
    5  A    between atoms: C_14  and  C_15
    6  A    between atoms: C_19  and  C_28
    7  A    between atoms: C_21  and  N_32
                            x       y       z     vdW  Elec       q    Type
                         _______ _______ _______ _____ _____    ______ ____

>  <TORSDO>
F 7

$$$$
=
 OpenBabel11072408263D

 34 36  0  0  1  0  0  0  0  0999 V2000
  185.7680  177.4330  143.9320 C   0  0  0  0  0  3  0  0  0  0  0  0
  184.0400  178.2310  145.5140 C   0  0  0  0  0  3  0  0  0  0  0  0
  187.0430  177.8290  146.0180 C   0  0  0  0  0  3  0  0  0  0  0  0
  184.7550  178.4920  144.2280 C   0  0  2  0  0  3  0  0  0  0  0  0
  186.5780  178.8620  148.0620 O   0  0  0  0  0  1  0  0  0  0  0  0
  186.8070  177.1490  144.7190 C   0  0  0  0  0  0  0  0  0  0  0  0
  184.6670  178.1830  146.6880 C   0  0  0  0  0  3  0  0  0  0  0  0
  186.1260  178.2980  146.8770 C   0  0  0  0  0  0  0  0  0  0  0  0
  181.3970  179.1750  142.6540 C   0  0  0  0  0  3  0  0  0  0  0  0
  182.5380  179.3980  143.3020 C   0  0  0  0  0  3  0  0  0  0  0  0
  184.1840  178.1680  141.9000 C   0  0  0  0  0  3  0  0  0  0  0  0
  181.2330  178.0470  141.6810 C   0  0  2  0  0  3  0  0  0  0  0  0
  183.4310  178.2490  140.6320 C   0  0  0  0  0  3  0  0  0  0  0  0
  182.1350  178.2380  140.5460 N   0  0  0  0  0  0  0  0  0  0  0  0
  183.7920  178.6350  143.0930 C   0  0  0  0  0  0  0  0  0  0  0  0
  179.8390  177.9490  141.2200 N   0  0  0  0  0  0  0  0  0  0  0  0
  179.6080  178.9420  140.1680 C   0  0  0  0  0  1  0  0  0  0  0  0
  177.8150  179.2080  142.0350 C   0  0  0  0  0  1  0  0  0  0  0  0
  178.9090  178.1840  142.3420 C   0  0  0  0  0  3  0  0  0  0  0  0
  178.3050  176.8820  142.8370 C   0  0  0  0  0  1  0  0  0  0  0  0
  189.3970  177.6170  143.3780 O   0  0  0  0  0  0  0  0  0  0  0  0
  188.9990  176.4410  143.5850 C   0  0  0  0  0  0  0  0  0  0  0  0
  187.7450  176.1810  144.2300 N   0  0  0  0  0  2  0  0  0  0  0  0
  189.8570  175.2960  143.1550 C   0  0  0  0  0  2  0  0  0  0  0  0
  191.3420  175.2990  148.1320 Cl  0  0  0  0  0  0  0  0  0  0  0  0
  191.7010  175.0540  146.4370 C   0  0  0  0  0  0  0  0  0  0  0  0
  190.9840  175.0820  144.1160 C   0  0  0  0  0  0  0  0  0  0  0  0
  193.2520  174.4310  144.6940 C   0  0  0  0  0  3  0  0  0  0  0  0
  192.2760  174.6570  143.7090 C   0  0  0  0  0  0  0  0  0  0  0  0
  192.9680  174.6270  146.0470 C   0  0  0  0  0  3  0  0  0  0  0  0
  190.7140  175.2750  145.4770 C   0  0  0  0  0  3  0  0  0  0  0  0
  192.6530  174.4390  142.2910 C   0  0  0  0  0  0  0  0  0  0  0  0
  193.1420  175.3850  141.6180 O   0  0  0  0  0  0  0  0  0  0  0  0
  192.4560  173.2120  141.6700 O   0  0  0  0  0  1  0  0  0  0  0  0
  1  4  1  0  0  0  0
  1  6  2  0  0  0  0
  2  7  2  0  0  0  0
  3  8  2  0  0  0  0
  4 15  1  6  0  0  0
  4  2  1  0  0  0  0
  6  3  1  0  0  0  0
  7  8  1  0  0  0  0
  8  5  1  0  0  0  0
  9 10  2  0  0  0  0
 11 15  2  0  0  0  0
 12 16  1  6  0  0  0
 12  9  1  0  0  0  0
 13 11  1  0  0  0  0
 14 13  2  0  0  0  0
 14 12  1  0  0  0  0
 15 10  1  0  0  0  0
 16 19  1  0  0  0  0
 17 16  1  0  0  0  0
 18 19  1  0  0  0  0
 19 20  1  0  0  0  0
 21 22  2  0  0  0  0
 22 23  1  0  0  0  0
 23  6  1  0  0  0  0
 24 22  1  0  0  0  0
 24 27  1  0  0  0  0
 26 25  1  0  0  0  0
 27 31  1  0  0  0  0
 28 30  2  0  0  0  0
 29 27  2  0  0  0  0
 29 28  1  0  0  0  0
 30 26  1  0  0  0  0
 31 26  2  0  0  0  0
 32 29  1  0  0  0  0
 33 32  2  0  0  0  0
 34 32  1  0  0  0  0
M  END
>  <MODEL>
9

>  <REMARK>
 VINA RESULT:      -7.1      4.342     11.161
  Name = 
  7 active torsions:
  status: ('A' for Active; 'I' for Inactive)
    1  A    between atoms: N_3  and  C_17
    2  A    between atoms: N_3  and  C_30
    3  A    between atoms: C_7  and  C_29
    4  A    between atoms: C_12  and  C_15
    5  A    between atoms: C_14  and  C_15
    6  A    between atoms: C_19  and  C_28
    7  A    between atoms: C_21  and  N_32
                            x       y       z     vdW  Elec       q    Type
                         _______ _______ _______ _____ _____    ______ ____

>  <TORSDO>
F 7

$$$$
