=
 OpenBabel11062418273D

 48 54  0  0  1  0  0  0  0  0999 V2000
  194.9030  176.3670  145.2170 N   0  0  0  0  0  0  0  0  0  0  0  0
  191.5360  175.4900  142.1720 C   0  0  0  0  0  2  0  0  0  0  0  0
  196.6760  176.7360  143.4000 C   0  0  0  0  0  3  0  0  0  0  0  0
  196.8110  176.2390  141.9590 C   0  0  0  0  0  3  0  0  0  0  0  0
  191.9380  176.3020  147.1420 C   0  0  0  0  0  3  0  0  0  0  0  0
  193.1820  176.5850  146.8580 N   0  0  0  0  0  0  0  0  0  0  0  0
  192.6750  176.4740  144.4550 C   0  0  0  0  0  2  0  0  0  0  0  0
  195.5600  174.5010  140.6000 C   0  0  0  0  0  0  0  0  0  0  0  0
  190.9510  175.8300  146.0810 C   0  0  2  0  0  3  0  0  0  0  0  0
  194.9120  175.2650  142.9530 C   0  0  0  0  0  0  0  0  0  0  0  0
  195.7460  175.2630  141.7990 N   0  0  0  0  0  0  0  0  0  0  0  0
  189.4090  177.6610  145.1420 C   0  0  0  0  0  2  0  0  0  0  0  0
  195.3720  172.3880  141.6420 O   0  0  0  0  0  0  0  0  0  0  0  0
  193.7260  174.3260  143.1150 C   0  0  0  0  0  2  0  0  0  0  0  0
  195.5860  175.1070  139.3770 N   0  0  0  0  0  0  0  0  0  0  0  0
  193.6480  176.5590  145.5050 C   0  0  0  0  0  0  0  0  0  0  0  0
  195.3310  173.8300  138.3560 S   0  0  0  0  0  0  0  0  0  0  0  0
  195.2170  172.5370  139.3680 N   0  0  0  0  0  0  0  0  0  0  0  0
  189.0280  177.1480  143.7260 C   0  0  1  0  0  3  0  0  0  0  0  0
  190.7550  175.3570  143.5140 C   0  0  2  0  0  3  0  0  0  0  0  0
  189.3110  175.7060  143.4940 N   0  0  0  0  0  0  0  0  0  0  0  0
  192.6510  174.4260  142.0020 C   0  0  0  0  0  2  0  0  0  0  0  0
  195.4180  176.0980  143.8850 C   0  0  0  0  0  0  0  0  0  0  0  0
  191.4930  175.9450  144.6800 C   0  0  2  0  0  3  0  0  0  0  0  0
  195.3720  173.0880  140.5950 C   0  0  0  0  0  0  0  0  0  0  0  0
  189.6000  176.5550  146.1980 C   0  0  0  0  0  2  0  0  0  0  0  0
  194.1340  171.1220  137.8740 O   0  0  0  0  0  1  0  0  0  0  0  0
  194.9280  171.1580  139.0200 C   0  0  0  0  0  2  0  0  0  0  0  0
  187.5540  177.5100  143.4680 C   0  0  0  0  0  2  0  0  0  0  0  0
  186.1210  179.2960  143.9330 C   0  0  0  0  0  2  0  0  0  0  0  0
  184.9000  179.3530  144.6240 O   0  0  0  0  0  0  0  0  0  0  0  0
  186.9950  178.3110  144.5510 N   0  0  0  0  0  0  0  0  0  0  0  0
  186.0980  177.4690  145.3090 C   0  0  0  0  0  2  0  0  0  0  0  0
  184.7320  178.0740  145.1580 C   0  0  1  0  0  3  0  0  0  0  0  0
  184.0700  178.1560  146.4930 C   0  0  0  0  0  3  0  0  0  0  0  0
  184.6990  178.5330  147.4680 O   0  0  0  0  0  0  0  0  0  0  0  0
  188.7280  175.2620  142.2250 C   0  0  0  0  0  2  0  0  0  0  0  0
  187.8890  174.0140  142.4400 C   0  0  0  0  0  2  0  0  0  0  0  0
  189.3600  173.2740  140.5960 C   0  0  0  0  0  2  0  0  0  0  0  0
  189.9950  172.0820  139.8780 C   0  0  1  0  0  3  0  0  0  0  0  0
  188.8840  171.6350  143.8870 F   0  0  0  0  0  0  0  0  0  0  0  0
  191.0190  172.5950  138.8820 C   0  0  0  0  0  1  0  0  0  0  0  0
  190.6100  171.0630  140.8210 C   0  0  0  0  0  0  0  0  0  0  0  0
  188.5770  172.8110  141.8180 C   0  0  1  0  0  3  0  0  0  0  0  0
  189.5570  172.1690  142.8030 C   0  0  2  0  0  3  0  0  0  0  0  0
  190.3580  171.0820  142.1410 C   0  0  0  0  0  3  0  0  0  0  0  0
  190.5400  169.0890  139.5090 O   0  0  0  0  0  1  0  0  0  0  0  0
  191.3830  169.9130  140.2560 C   0  0  0  0  0  2  0  0  0  0  0  0
  1 16  2  0  0  0  0
  3 23  1  0  0  0  0
  4  3  2  0  0  0  0
  6  5  2  0  0  0  0
  7 16  1  0  0  0  0
  8 11  1  0  0  0  0
  9 26  1  6  0  0  0
  9  5  1  0  0  0  0
 10 14  1  0  0  0  0
 10 23  2  0  0  0  0
 11  4  1  0  0  0  0
 11 10  1  0  0  0  0
 12 26  1  0  0  0  0
 15  8  2  0  0  0  0
 16  6  1  0  0  0  0
 17 18  1  0  0  0  0
 17 15  1  0  0  0  0
 18 25  1  0  0  0  0
 19 29  1  1  0  0  0
 19 12  1  0  0  0  0
 20  2  1  6  0  0  0
 20 24  1  0  0  0  0
 21 20  1  0  0  0  0
 21 19  1  0  0  0  0
 22  2  1  0  0  0  0
 22 14  1  0  0  0  0
 23  1  1  0  0  0  0
 24  7  1  1  0  0  0
 24  9  1  0  0  0  0
 25  8  1  0  0  0  0
 25 13  2  0  0  0  0
 27 28  1  0  0  0  0
 28 18  1  0  0  0  0
 29 32  1  0  0  0  0
 30 32  1  0  0  0  0
 30 31  1  0  0  0  0
 31 34  1  0  0  0  0
 32 33  1  0  0  0  0
 34 33  1  0  0  0  0
 34 35  1  1  0  0  0
 35 36  2  0  0  0  0
 37 38  1  0  0  0  0
 37 21  1  0  0  0  0
 39 44  1  0  0  0  0
 40 42  1  6  0  0  0
 40 39  1  0  0  0  0
 40 43  1  0  0  0  0
 43 46  2  0  0  0  0
 44 38  1  1  0  0  0
 44 45  1  0  0  0  0
 45 41  1  1  0  0  0
 46 45  1  0  0  0  0
 47 48  1  0  0  0  0
 48 43  1  0  0  0  0
M  END
>  <MODEL>
1

>  <REMARK>
 VINA RESULT:      -8.2      0.000      0.000
  Name = 
  8 active torsions:
  status: ('A' for Active; 'I' for Inactive)
    1  A    between atoms: C_2  and  C_42
    2  A    between atoms: C_16  and  N_28
    3  A    between atoms: C_16  and  C_33
    4  A    between atoms: C_21  and  C_23
    5  A    between atoms: C_21  and  N_37
    6  A    between atoms: C_23  and  C_29
    7  A    between atoms: C_27  and  C_40
    8  A    between atoms: N_32  and  C_38
                            x       y       z     vdW  Elec       q    Type
                         _______ _______ _______ _____ _____    ______ ____

>  <TORSDO>
F 8

$$$$
=
 OpenBabel11062418273D

 48 54  0  0  1  0  0  0  0  0999 V2000
  195.2770  176.5430  144.8470 N   0  0  0  0  0  0  0  0  0  0  0  0
  191.6530  175.0000  142.4240 C   0  0  0  0  0  2  0  0  0  0  0  0
  196.7400  176.8680  142.7640 C   0  0  0  0  0  3  0  0  0  0  0  0
  196.7350  176.2230  141.3770 C   0  0  0  0  0  3  0  0  0  0  0  0
  192.6210  176.4150  147.1770 C   0  0  0  0  0  3  0  0  0  0  0  0
  193.7770  176.7820  146.6890 N   0  0  0  0  0  0  0  0  0  0  0  0
  192.9700  176.3460  144.4080 C   0  0  0  0  0  2  0  0  0  0  0  0
  195.5160  174.2280  140.3950 C   0  0  0  0  0  0  0  0  0  0  0  0
  191.5600  175.7320  146.3230 C   0  0  2  0  0  3  0  0  0  0  0  0
  195.1060  175.1920  142.7280 C   0  0  0  0  0  0  0  0  0  0  0  0
  195.7750  175.1370  141.4710 N   0  0  0  0  0  0  0  0  0  0  0  0
  189.7130  177.2850  145.4370 C   0  0  0  0  0  2  0  0  0  0  0  0
  195.7050  172.2410  141.6610 O   0  0  0  0  0  0  0  0  0  0  0  0
  194.0650  174.1690  143.1530 C   0  0  0  0  0  2  0  0  0  0  0  0
  195.3110  174.6890  139.1260 N   0  0  0  0  0  0  0  0  0  0  0  0
  194.0580  176.6450  145.2920 C   0  0  0  0  0  0  0  0  0  0  0  0
  195.0650  173.2830  138.2870 S   0  0  0  0  0  0  0  0  0  0  0  0
  195.2320  172.1120  139.4300 N   0  0  0  0  0  0  0  0  0  0  0  0
  189.2060  176.5780  144.1500 C   0  0  1  0  0  3  0  0  0  0  0  0
  191.0770  174.9490  143.8720 C   0  0  2  0  0  3  0  0  0  0  0  0
  189.6130  175.1530  144.0260 N   0  0  0  0  0  0  0  0  0  0  0  0
  192.8460  174.0360  142.2040 C   0  0  0  0  0  2  0  0  0  0  0  0
  195.6360  176.1730  143.4880 C   0  0  0  0  0  0  0  0  0  0  0  0
  191.8940  175.7350  144.8540 C   0  0  2  0  0  3  0  0  0  0  0  0
  195.4870  172.8120  140.5590 C   0  0  0  0  0  0  0  0  0  0  0  0
  190.1640  176.3320  146.5610 C   0  0  0  0  0  2  0  0  0  0  0  0
  193.7940  170.3090  139.7350 O   0  0  0  0  0  1  0  0  0  0  0  0
  195.0550  170.6790  139.2680 C   0  0  0  0  0  2  0  0  0  0  0  0
  187.6790  176.7650  144.0720 C   0  0  0  0  0  2  0  0  0  0  0  0
  188.2380  177.8260  142.0680 C   0  0  0  0  0  2  0  0  0  0  0  0
  187.5340  177.9650  140.8610 O   0  0  0  0  0  0  0  0  0  0  0  0
  187.3120  177.8660  143.1890 N   0  0  0  0  0  0  0  0  0  0  0  0
  186.0300  177.5550  142.6000 C   0  0  0  0  0  2  0  0  0  0  0  0
  186.2690  177.4340  141.1220 C   0  0  1  0  0  3  0  0  0  0  0  0
  185.2250  178.2010  140.3820 C   0  0  0  0  0  3  0  0  0  0  0  0
  184.0610  178.1620  140.7450 O   0  0  0  0  0  0  0  0  0  0  0  0
  188.9200  174.5110  142.9060 C   0  0  0  0  0  2  0  0  0  0  0  0
  188.9470  173.0010  143.0670 C   0  0  0  0  0  2  0  0  0  0  0  0
  188.6500  173.3880  140.6440 C   0  0  0  0  0  2  0  0  0  0  0  0
  188.5350  172.7460  139.2600 C   0  0  1  0  0  3  0  0  0  0  0  0
  190.5540  170.6520  142.2670 F   0  0  0  0  0  0  0  0  0  0  0  0
  188.5820  173.8370  138.2050 C   0  0  0  0  0  1  0  0  0  0  0  0
  189.5850  171.6820  138.9950 C   0  0  0  0  0  0  0  0  0  0  0  0
  188.9360  172.3320  141.7040 C   0  0  1  0  0  3  0  0  0  0  0  0
  190.2920  171.6930  141.3950 C   0  0  2  0  0  3  0  0  0  0  0  0
  190.3380  171.1740  139.9850 C   0  0  0  0  0  3  0  0  0  0  0  0
  189.5890  169.6750  137.7330 O   0  0  0  0  0  1  0  0  0  0  0  0
  189.6780  171.0640  137.6350 C   0  0  0  0  0  2  0  0  0  0  0  0
  1 16  2  0  0  0  0
  3 23  1  0  0  0  0
  4 11  1  0  0  0  0
  4  3  2  0  0  0  0
  6  5  2  0  0  0  0
  7 16  1  0  0  0  0
  8 25  1  0  0  0  0
  8 11  1  0  0  0  0
  9 26  1  6  0  0  0
  9  5  1  0  0  0  0
 10 14  1  0  0  0  0
 10 23  2  0  0  0  0
 11 10  1  0  0  0  0
 12 26  1  0  0  0  0
 15  8  2  0  0  0  0
 16  6  1  0  0  0  0
 17 15  1  0  0  0  0
 17 18  1  0  0  0  0
 18 25  1  0  0  0  0
 19 29  1  1  0  0  0
 19 12  1  0  0  0  0
 20  2  1  6  0  0  0
 20 21  1  0  0  0  0
 20 24  1  0  0  0  0
 21 19  1  0  0  0  0
 22  2  1  0  0  0  0
 22 14  1  0  0  0  0
 23  1  1  0  0  0  0
 24  7  1  1  0  0  0
 24  9  1  0  0  0  0
 25 13  2  0  0  0  0
 28 18  1  0  0  0  0
 28 27  1  0  0  0  0
 30 32  1  0  0  0  0
 31 34  1  0  0  0  0
 31 30  1  0  0  0  0
 32 29  1  0  0  0  0
 33 32  1  0  0  0  0
 34 35  1  6  0  0  0
 34 33  1  0  0  0  0
 35 36  2  0  0  0  0
 37 38  1  0  0  0  0
 37 21  1  0  0  0  0
 39 44  1  0  0  0  0
 40 42  1  6  0  0  0
 40 39  1  0  0  0  0
 43 40  1  0  0  0  0
 43 46  2  0  0  0  0
 44 38  1  1  0  0  0
 45 44  1  0  0  0  0
 45 41  1  1  0  0  0
 46 45  1  0  0  0  0
 48 47  1  0  0  0  0
 48 43  1  0  0  0  0
M  END
>  <MODEL>
2

>  <REMARK>
 VINA RESULT:      -7.9      1.703      2.086
  Name = 
  8 active torsions:
  status: ('A' for Active; 'I' for Inactive)
    1  A    between atoms: C_2  and  C_42
    2  A    between atoms: C_16  and  N_28
    3  A    between atoms: C_16  and  C_33
    4  A    between atoms: C_21  and  C_23
    5  A    between atoms: C_21  and  N_37
    6  A    between atoms: C_23  and  C_29
    7  A    between atoms: C_27  and  C_40
    8  A    between atoms: N_32  and  C_38
                            x       y       z     vdW  Elec       q    Type
                         _______ _______ _______ _____ _____    ______ ____

>  <TORSDO>
F 8

$$$$
=
 OpenBabel11062418273D

 48 54  0  0  1  0  0  0  0  0999 V2000
  190.3430  170.7640  140.6020 N   0  0  0  0  0  0  0  0  0  0  0  0
  191.3170  173.2110  144.4030 C   0  0  0  0  0  2  0  0  0  0  0  0
  191.0440  168.5330  141.6580 C   0  0  0  0  0  3  0  0  0  0  0  0
  192.0070  168.1750  142.7920 C   0  0  0  0  0  3  0  0  0  0  0  0
  189.0350  173.9860  139.9620 C   0  0  0  0  0  3  0  0  0  0  0  0
  189.1770  172.6940  139.8170 N   0  0  0  0  0  0  0  0  0  0  0  0
  189.9480  172.5020  142.1440 C   0  0  0  0  0  2  0  0  0  0  0  0
  193.7310  169.5070  144.0910 C   0  0  0  0  0  0  0  0  0  0  0  0
  189.5710  174.7290  141.1800 C   0  0  2  0  0  3  0  0  0  0  0  0
  192.0970  170.4920  142.3880 C   0  0  0  0  0  0  0  0  0  0  0  0
  192.6860  169.4180  143.1140 N   0  0  0  0  0  0  0  0  0  0  0  0
  187.8330  175.2080  143.0120 C   0  0  0  0  0  2  0  0  0  0  0  0
  195.2650  170.7020  142.7480 O   0  0  0  0  0  0  0  0  0  0  0  0
  192.6070  171.9230  142.4740 C   0  0  0  0  0  2  0  0  0  0  0  0
  193.5880  168.9260  145.3190 N   0  0  0  0  0  0  0  0  0  0  0  0
  189.7630  171.9020  140.8550 C   0  0  0  0  0  0  0  0  0  0  0  0
  195.0270  169.3050  146.0460 S   0  0  0  0  0  0  0  0  0  0  0  0
  195.8410  170.1410  144.8860 N   0  0  0  0  0  0  0  0  0  0  0  0
  188.6740  175.3230  144.3140 C   0  0  1  0  0  3  0  0  0  0  0  0
  190.8020  174.3370  143.4570 C   0  0  2  0  0  3  0  0  0  0  0  0
  190.1340  175.5030  144.0920 N   0  0  0  0  0  0  0  0  0  0  0  0
  192.6180  172.5330  143.8990 C   0  0  0  0  0  2  0  0  0  0  0  0
  191.1550  170.0170  141.5480 C   0  0  0  0  0  0  0  0  0  0  0  0
  190.0630  173.8060  142.2640 C   0  0  2  0  0  3  0  0  0  0  0  0
  194.9730  170.1620  143.8480 C   0  0  0  0  0  0  0  0  0  0  0  0
  188.5390  175.7210  141.7420 C   0  0  0  0  0  2  0  0  0  0  0  0
  196.9840  172.0910  145.4370 O   0  0  0  0  0  1  0  0  0  0  0  0
  197.1420  170.7770  144.9970 C   0  0  0  0  0  2  0  0  0  0  0  0
  188.0650  176.4430  145.1790 C   0  0  0  0  0  2  0  0  0  0  0  0
  185.8920  176.7600  145.9730 C   0  0  0  0  0  2  0  0  0  0  0  0
  185.0680  177.8970  146.0010 O   0  0  0  0  0  0  0  0  0  0  0  0
  186.7040  176.7660  144.7670 N   0  0  0  0  0  0  0  0  0  0  0  0
  186.6860  178.1450  144.3350 C   0  0  0  0  0  2  0  0  0  0  0  0
  185.7730  178.8660  145.2850 C   0  0  1  0  0  3  0  0  0  0  0  0
  184.8280  179.7270  144.5150 C   0  0  0  0  0  3  0  0  0  0  0  0
  183.8790  179.2290  143.9330 O   0  0  0  0  0  0  0  0  0  0  0  0
  190.8140  175.8160  145.3520 C   0  0  0  0  0  2  0  0  0  0  0  0
  191.8330  176.9210  145.1380 C   0  0  0  0  0  2  0  0  0  0  0  0
  193.3370  176.5260  143.2160 C   0  0  0  0  0  2  0  0  0  0  0  0
  194.6230  175.8580  142.7260 C   0  0  1  0  0  3  0  0  0  0  0  0
  194.2800  176.7800  146.7920 F   0  0  0  0  0  0  0  0  0  0  0  0
  194.9290  176.3490  141.3220 C   0  0  0  0  0  1  0  0  0  0  0  0
  195.8080  176.0700  143.6510 C   0  0  0  0  0  0  0  0  0  0  0  0
  193.1650  176.3260  144.7160 C   0  0  1  0  0  3  0  0  0  0  0  0
  194.3280  177.0200  145.4310 C   0  0  2  0  0  3  0  0  0  0  0  0
  195.6520  176.5480  144.8980 C   0  0  0  0  0  3  0  0  0  0  0  0
  197.1110  174.2300  142.9180 O   0  0  0  0  0  1  0  0  0  0  0  0
  197.1620  175.5880  143.2330 C   0  0  0  0  0  2  0  0  0  0  0  0
  1 16  2  0  0  0  0
  1 23  1  0  0  0  0
  3  4  2  0  0  0  0
  4 11  1  0  0  0  0
  6  5  2  0  0  0  0
  6 16  1  0  0  0  0
  8 15  2  0  0  0  0
  9  5  1  6  0  0  0
  9 26  1  0  0  0  0
  9 24  1  0  0  0  0
 10 14  1  0  0  0  0
 10 11  1  0  0  0  0
 11  8  1  0  0  0  0
 12 19  1  0  0  0  0
 13 25  2  0  0  0  0
 14 22  1  0  0  0  0
 15 17  1  0  0  0  0
 16  7  1  0  0  0  0
 18 28  1  0  0  0  0
 18 17  1  0  0  0  0
 19 29  1  6  0  0  0
 20 21  1  0  0  0  0
 20  2  1  1  0  0  0
 21 19  1  0  0  0  0
 21 37  1  0  0  0  0
 22  2  1  0  0  0  0
 23  3  1  0  0  0  0
 23 10  2  0  0  0  0
 24  7  1  6  0  0  0
 24 20  1  0  0  0  0
 25  8  1  0  0  0  0
 25 18  1  0  0  0  0
 26 12  1  0  0  0  0
 28 27  1  0  0  0  0
 30 31  1  0  0  0  0
 32 29  1  0  0  0  0
 32 30  1  0  0  0  0
 33 32  1  0  0  0  0
 33 34  1  0  0  0  0
 34 35  1  6  0  0  0
 34 31  1  0  0  0  0
 36 35  2  0  0  0  0
 38 37  1  0  0  0  0
 39 44  1  0  0  0  0
 40 42  1  6  0  0  0
 40 39  1  0  0  0  0
 40 43  1  0  0  0  0
 43 46  2  0  0  0  0
 44 38  1  1  0  0  0
 44 45  1  0  0  0  0
 45 41  1  1  0  0  0
 46 45  1  0  0  0  0
 47 48  1  0  0  0  0
 48 43  1  0  0  0  0
M  END
>  <MODEL>
3

>  <REMARK>
 VINA RESULT:      -7.3      3.183      6.035
  Name = 
  8 active torsions:
  status: ('A' for Active; 'I' for Inactive)
    1  A    between atoms: C_2  and  C_42
    2  A    between atoms: C_16  and  N_28
    3  A    between atoms: C_16  and  C_33
    4  A    between atoms: C_21  and  C_23
    5  A    between atoms: C_21  and  N_37
    6  A    between atoms: C_23  and  C_29
    7  A    between atoms: C_27  and  C_40
    8  A    between atoms: N_32  and  C_38
                            x       y       z     vdW  Elec       q    Type
                         _______ _______ _______ _____ _____    ______ ____

>  <TORSDO>
F 8

$$$$
=
 OpenBabel11062418273D

 48 54  0  0  1  0  0  0  0  0999 V2000
  189.9140  171.5990  140.7720 N   0  0  0  0  0  0  0  0  0  0  0  0
  191.1850  174.9810  143.6570 C   0  0  0  0  0  2  0  0  0  0  0  0
  188.8220  173.2120  139.1000 C   0  0  0  0  0  3  0  0  0  0  0  0
  188.2160  174.6090  139.2440 C   0  0  0  0  0  3  0  0  0  0  0  0
  192.0320  170.0290  143.1260 C   0  0  0  0  0  3  0  0  0  0  0  0
  191.3870  170.1760  141.9990 N   0  0  0  0  0  0  0  0  0  0  0  0
  191.3930  172.6170  142.2980 C   0  0  0  0  0  2  0  0  0  0  0  0
  187.6190  176.0420  141.2500 C   0  0  0  0  0  0  0  0  0  0  0  0
  192.2290  171.1800  144.1050 C   0  0  2  0  0  3  0  0  0  0  0  0
  188.8580  173.8080  141.3630 C   0  0  0  0  0  0  0  0  0  0  0  0
  188.1830  174.8570  140.6760 N   0  0  0  0  0  0  0  0  0  0  0  0
  194.5110  172.3530  143.9570 C   0  0  0  0  0  2  0  0  0  0  0  0
  186.2860  174.9560  142.8720 O   0  0  0  0  0  0  0  0  0  0  0  0
  188.9660  173.7510  142.8790 C   0  0  0  0  0  2  0  0  0  0  0  0
  187.9250  177.2740  140.7470 N   0  0  0  0  0  0  0  0  0  0  0  0
  190.9180  171.4650  141.5880 C   0  0  0  0  0  0  0  0  0  0  0  0
  187.0430  178.2730  141.7290 S   0  0  0  0  0  0  0  0  0  0  0  0
  186.2660  177.2370  142.7440 N   0  0  0  0  0  0  0  0  0  0  0  0
  194.2390  173.7850  144.4940 C   0  0  1  0  0  3  0  0  0  0  0  0
  191.7440  173.7340  144.4070 C   0  0  2  0  0  3  0  0  0  0  0  0
  192.9590  173.9330  145.2390 N   0  0  0  0  0  0  0  0  0  0  0  0
  189.6390  174.9830  143.5370 C   0  0  0  0  0  2  0  0  0  0  0  0
  189.2350  172.8530  140.4880 C   0  0  0  0  0  0  0  0  0  0  0  0
  191.8090  172.5120  143.5400 C   0  0  2  0  0  3  0  0  0  0  0  0
  186.6970  176.0200  142.3370 C   0  0  0  0  0  0  0  0  0  0  0  0
  193.6750  171.2440  144.6250 C   0  0  0  0  0  2  0  0  0  0  0  0
  184.2240  178.1480  143.3850 O   0  0  0  0  0  1  0  0  0  0  0  0
  185.4000  177.5680  143.8610 C   0  0  0  0  0  2  0  0  0  0  0  0
  195.4590  174.2240  145.3240 C   0  0  0  0  0  2  0  0  0  0  0  0
  197.5210  174.5440  144.2730 C   0  0  0  0  0  2  0  0  0  0  0  0
  197.8510  174.8080  142.9340 O   0  0  0  0  0  0  0  0  0  0  0  0
  196.2710  175.2060  144.6150 N   0  0  0  0  0  0  0  0  0  0  0  0
  195.6450  175.4610  143.3380 C   0  0  0  0  0  2  0  0  0  0  0  0
  196.6240  175.0030  142.2950 C   0  0  1  0  0  3  0  0  0  0  0  0
  196.7540  176.0470  141.2370 C   0  0  0  0  0  3  0  0  0  0  0  0
  196.0710  177.0560  141.2830 O   0  0  0  0  0  0  0  0  0  0  0  0
  192.8860  175.2450  145.8880 C   0  0  0  0  0  2  0  0  0  0  0  0
  192.2350  175.1190  147.2550 C   0  0  0  0  0  2  0  0  0  0  0  0
  190.8670  176.7910  146.0540 C   0  0  0  0  0  2  0  0  0  0  0  0
  189.6080  177.6600  146.0840 C   0  0  1  0  0  3  0  0  0  0  0  0
  189.6750  174.1660  148.3840 F   0  0  0  0  0  0  0  0  0  0  0  0
  189.4120  178.2910  144.7170 C   0  0  0  0  0  1  0  0  0  0  0  0
  188.3640  176.9110  146.5260 C   0  0  0  0  0  0  0  0  0  0  0  0
  190.9270  175.8890  147.2800 C   0  0  1  0  0  3  0  0  0  0  0  0
  189.7280  174.9380  147.2380 C   0  0  2  0  0  3  0  0  0  0  0  0
  188.4380  175.6970  147.0990 C   0  0  0  0  0  3  0  0  0  0  0  0
  186.4690  177.6420  147.7480 O   0  0  0  0  0  1  0  0  0  0  0  0
  187.0350  177.5980  146.4740 C   0  0  0  0  0  2  0  0  0  0  0  0
  1 16  2  0  0  0  0
  3  4  2  0  0  0  0
  3 23  1  0  0  0  0
  4 11  1  0  0  0  0
  6  5  2  0  0  0  0
  8 25  1  0  0  0  0
  9  5  1  6  0  0  0
  9 26  1  0  0  0  0
 10 14  1  0  0  0  0
 11  8  1  0  0  0  0
 11 10  1  0  0  0  0
 12 19  1  0  0  0  0
 12 26  1  0  0  0  0
 14 22  1  0  0  0  0
 15  8  2  0  0  0  0
 15 17  1  0  0  0  0
 16  6  1  0  0  0  0
 16  7  1  0  0  0  0
 17 18  1  0  0  0  0
 18 28  1  0  0  0  0
 19 21  1  0  0  0  0
 19 29  1  1  0  0  0
 20  2  1  6  0  0  0
 20 21  1  0  0  0  0
 21 37  1  0  0  0  0
 22  2  1  0  0  0  0
 23  1  1  0  0  0  0
 23 10  2  0  0  0  0
 24  7  1  1  0  0  0
 24  9  1  0  0  0  0
 24 20  1  0  0  0  0
 25 18  1  0  0  0  0
 25 13  2  0  0  0  0
 27 28  1  0  0  0  0
 30 32  1  0  0  0  0
 31 30  1  0  0  0  0
 32 29  1  0  0  0  0
 33 32  1  0  0  0  0
 34 35  1  6  0  0  0
 34 31  1  0  0  0  0
 34 33  1  0  0  0  0
 35 36  2  0  0  0  0
 37 38  1  0  0  0  0
 39 40  1  0  0  0  0
 39 44  1  0  0  0  0
 40 42  1  6  0  0  0
 40 43  1  0  0  0  0
 43 46  2  0  0  0  0
 44 38  1  6  0  0  0
 45 44  1  0  0  0  0
 45 41  1  1  0  0  0
 46 45  1  0  0  0  0
 48 43  1  0  0  0  0
 48 47  1  0  0  0  0
M  END
>  <MODEL>
4

>  <REMARK>
 VINA RESULT:      -7.3      3.100      8.643
  Name = 
  8 active torsions:
  status: ('A' for Active; 'I' for Inactive)
    1  A    between atoms: C_2  and  C_42
    2  A    between atoms: C_16  and  N_28
    3  A    between atoms: C_16  and  C_33
    4  A    between atoms: C_21  and  C_23
    5  A    between atoms: C_21  and  N_37
    6  A    between atoms: C_23  and  C_29
    7  A    between atoms: C_27  and  C_40
    8  A    between atoms: N_32  and  C_38
                            x       y       z     vdW  Elec       q    Type
                         _______ _______ _______ _____ _____    ______ ____

>  <TORSDO>
F 8

$$$$
=
 OpenBabel11062418273D

 48 54  0  0  1  0  0  0  0  0999 V2000
  193.5210  175.3720  146.7370 N   0  0  0  0  0  0  0  0  0  0  0  0
  191.3850  174.7440  142.6840 C   0  0  0  0  0  2  0  0  0  0  0  0
  195.8510  174.9070  145.7680 C   0  0  0  0  0  3  0  0  0  0  0  0
  196.3350  174.1040  144.5590 C   0  0  0  0  0  3  0  0  0  0  0  0
  190.1980  176.4410  147.2920 C   0  0  0  0  0  3  0  0  0  0  0  0
  191.4820  176.3440  147.5120 N   0  0  0  0  0  0  0  0  0  0  0  0
  191.8680  175.8660  145.1310 C   0  0  0  0  0  2  0  0  0  0  0  0
  195.1880  172.4870  142.9780 C   0  0  0  0  0  0  0  0  0  0  0  0
  189.5660  176.0200  145.9710 C   0  0  2  0  0  3  0  0  0  0  0  0
  194.0050  173.8580  144.7830 C   0  0  0  0  0  0  0  0  0  0  0  0
  195.1550  173.4100  144.0720 N   0  0  0  0  0  0  0  0  0  0  0  0
  189.1130  177.9400  144.3220 C   0  0  0  0  0  2  0  0  0  0  0  0
  193.9940  170.7490  144.0460 O   0  0  0  0  0  0  0  0  0  0  0  0
  192.6130  173.2950  144.5380 C   0  0  0  0  0  2  0  0  0  0  0  0
  195.8390  172.8010  141.8190 N   0  0  0  0  0  0  0  0  0  0  0  0
  192.3720  175.9230  146.4720 C   0  0  0  0  0  0  0  0  0  0  0  0
  195.5870  171.4440  140.9060 S   0  0  0  0  0  0  0  0  0  0  0  0
  194.7240  170.4580  141.9010 N   0  0  0  0  0  0  0  0  0  0  0  0
  189.1290  177.2560  142.9280 C   0  0  1  0  0  3  0  0  0  0  0  0
  190.1730  175.0890  143.6010 C   0  0  2  0  0  3  0  0  0  0  0  0
  189.0160  175.7730  142.9650 N   0  0  0  0  0  0  0  0  0  0  0  0
  192.0990  173.4260  143.0810 C   0  0  0  0  0  2  0  0  0  0  0  0
  194.3720  174.7140  145.7590 C   0  0  0  0  0  0  0  0  0  0  0  0
  190.5840  175.7040  144.9060 C   0  0  2  0  0  3  0  0  0  0  0  0
  194.5880  171.1950  143.0280 C   0  0  0  0  0  0  0  0  0  0  0  0
  188.5580  177.0640  145.4630 C   0  0  0  0  0  2  0  0  0  0  0  0
  193.4240  169.2240  140.4190 O   0  0  0  0  0  1  0  0  0  0  0  0
  194.1690  169.1510  141.5950 C   0  0  0  0  0  2  0  0  0  0  0  0
  188.0360  177.9090  142.0610 C   0  0  0  0  0  2  0  0  0  0  0  0
  186.2070  178.7760  143.2270 C   0  0  0  0  0  2  0  0  0  0  0  0
  184.8910  179.0500  142.8220 O   0  0  0  0  0  0  0  0  0  0  0  0
  186.6990  177.5890  142.5450 N   0  0  0  0  0  0  0  0  0  0  0  0
  185.8310  177.4560  141.3980 C   0  0  0  0  0  2  0  0  0  0  0  0
  184.8050  178.5460  141.5230 C   0  0  1  0  0  3  0  0  0  0  0  0
  183.4450  177.9830  141.2780 C   0  0  0  0  0  3  0  0  0  0  0  0
  183.0060  177.9080  140.1420 O   0  0  0  0  0  0  0  0  0  0  0  0
  188.8240  175.2340  141.6160 C   0  0  0  0  0  2  0  0  0  0  0  0
  188.0600  173.9220  141.6790 C   0  0  0  0  0  2  0  0  0  0  0  0
  188.4720  174.0150  139.2430 C   0  0  0  0  0  2  0  0  0  0  0  0
  188.6790  173.2110  137.9580 C   0  0  1  0  0  3  0  0  0  0  0  0
  189.5980  171.3970  141.6140 F   0  0  0  0  0  0  0  0  0  0  0  0
  189.1120  174.1540  136.8510 C   0  0  0  0  0  1  0  0  0  0  0  0
  189.6570  172.0600  138.1130 C   0  0  0  0  0  0  0  0  0  0  0  0
  188.3590  173.0870  140.4460 C   0  0  1  0  0  3  0  0  0  0  0  0
  189.6820  172.3330  140.6000 C   0  0  2  0  0  3  0  0  0  0  0  0
  190.0610  171.6370  139.3220 C   0  0  0  0  0  3  0  0  0  0  0  0
  191.1220  171.8960  136.2560 O   0  0  0  0  0  1  0  0  0  0  0  0
  190.0580  171.2700  136.9070 C   0  0  0  0  0  2  0  0  0  0  0  0
  2 22  1  0  0  0  0
  4  3  2  0  0  0  0
  5  6  2  0  0  0  0
  7 16  1  0  0  0  0
  8 25  1  0  0  0  0
  8 11  1  0  0  0  0
  9 26  1  6  0  0  0
  9  5  1  0  0  0  0
 10 23  2  0  0  0  0
 11  4  1  0  0  0  0
 11 10  1  0  0  0  0
 12 26  1  0  0  0  0
 14 10  1  0  0  0  0
 15  8  2  0  0  0  0
 16  1  2  0  0  0  0
 16  6  1  0  0  0  0
 17 15  1  0  0  0  0
 17 18  1  0  0  0  0
 18 25  1  0  0  0  0
 19 29  1  6  0  0  0
 19 21  1  0  0  0  0
 19 12  1  0  0  0  0
 20  2  1  6  0  0  0
 20 24  1  0  0  0  0
 21 20  1  0  0  0  0
 22 14  1  0  0  0  0
 23  3  1  0  0  0  0
 23  1  1  0  0  0  0
 24  7  1  1  0  0  0
 24  9  1  0  0  0  0
 25 13  2  0  0  0  0
 27 28  1  0  0  0  0
 28 18  1  0  0  0  0
 29 32  1  0  0  0  0
 31 30  1  0  0  0  0
 32 30  1  0  0  0  0
 33 34  1  0  0  0  0
 33 32  1  0  0  0  0
 34 35  1  1  0  0  0
 34 31  1  0  0  0  0
 36 35  2  0  0  0  0
 37 38  1  0  0  0  0
 37 21  1  0  0  0  0
 39 44  1  0  0  0  0
 40 42  1  6  0  0  0
 40 43  1  0  0  0  0
 40 39  1  0  0  0  0
 43 46  2  0  0  0  0
 44 45  1  0  0  0  0
 44 38  1  1  0  0  0
 45 41  1  1  0  0  0
 46 45  1  0  0  0  0
 47 48  1  0  0  0  0
 48 43  1  0  0  0  0
M  END
>  <MODEL>
5

>  <REMARK>
 VINA RESULT:      -7.0      2.236      2.775
  Name = 
  8 active torsions:
  status: ('A' for Active; 'I' for Inactive)
    1  A    between atoms: C_2  and  C_42
    2  A    between atoms: C_16  and  N_28
    3  A    between atoms: C_16  and  C_33
    4  A    between atoms: C_21  and  C_23
    5  A    between atoms: C_21  and  N_37
    6  A    between atoms: C_23  and  C_29
    7  A    between atoms: C_27  and  C_40
    8  A    between atoms: N_32  and  C_38
                            x       y       z     vdW  Elec       q    Type
                         _______ _______ _______ _____ _____    ______ ____

>  <TORSDO>
F 8

$$$$
=
 OpenBabel11062418273D

 48 54  0  0  1  0  0  0  0  0999 V2000
  188.2000  173.2910  138.2290 N   0  0  0  0  0  0  0  0  0  0  0  0
  191.0610  174.5020  141.6540 C   0  0  0  0  0  2  0  0  0  0  0  0
  187.1670  175.6330  138.0430 C   0  0  0  0  0  3  0  0  0  0  0  0
  187.0180  176.7870  139.0360 C   0  0  0  0  0  3  0  0  0  0  0  0
  190.3790  170.5330  138.6020 C   0  0  0  0  0  3  0  0  0  0  0  0
  189.5160  171.3120  138.0050 N   0  0  0  0  0  0  0  0  0  0  0  0
  190.2540  173.2110  139.3820 C   0  0  0  0  0  2  0  0  0  0  0  0
  187.3920  176.9850  141.5360 C   0  0  0  0  0  0  0  0  0  0  0  0
  191.1340  170.9670  139.8530 C   0  0  2  0  0  3  0  0  0  0  0  0
  187.9730  174.9330  140.1260 C   0  0  0  0  0  0  0  0  0  0  0  0
  187.4420  176.2410  140.3130 N   0  0  0  0  0  0  0  0  0  0  0  0
  193.5180  171.8360  139.4360 C   0  0  0  0  0  2  0  0  0  0  0  0
  186.3110  175.3250  142.8260 O   0  0  0  0  0  0  0  0  0  0  0  0
  188.4700  174.0710  141.2770 C   0  0  0  0  0  2  0  0  0  0  0  0
  187.8670  178.2640  141.5940 N   0  0  0  0  0  0  0  0  0  0  0  0
  189.3150  172.6580  138.4500 C   0  0  0  0  0  0  0  0  0  0  0  0
  187.5850  178.6620  143.1760 S   0  0  0  0  0  0  0  0  0  0  0  0
  186.8650  177.3180  143.7950 N   0  0  0  0  0  0  0  0  0  0  0  0
  193.7930  172.7820  140.6370 C   0  0  1  0  0  3  0  0  0  0  0  0
  191.4490  173.0040  141.4670 C   0  0  2  0  0  3  0  0  0  0  0  0
  192.8520  172.6240  141.7770 N   0  0  0  0  0  0  0  0  0  0  0  0
  189.6000  174.7030  142.1310 C   0  0  0  0  0  2  0  0  0  0  0  0
  187.8300  174.5580  138.8380 C   0  0  0  0  0  0  0  0  0  0  0  0
  190.9480  172.4270  140.1760 C   0  0  2  0  0  3  0  0  0  0  0  0
  186.8290  176.4710  142.7410 C   0  0  0  0  0  0  0  0  0  0  0  0
  192.6300  170.6200  139.7650 C   0  0  0  0  0  2  0  0  0  0  0  0
  187.4750  176.4170  145.8500 O   0  0  0  0  0  1  0  0  0  0  0  0
  186.4560  177.0810  145.1680 C   0  0  0  0  0  2  0  0  0  0  0  0
  195.2650  172.6060  141.0570 C   0  0  0  0  0  2  0  0  0  0  0  0
  195.1620  174.7440  140.1200 C   0  0  0  0  0  2  0  0  0  0  0  0
  195.3770  176.0140  140.6770 O   0  0  0  0  0  0  0  0  0  0  0  0
  196.0670  173.7780  140.7250 N   0  0  0  0  0  0  0  0  0  0  0  0
  196.4730  174.4030  141.9630 C   0  0  0  0  0  2  0  0  0  0  0  0
  195.8380  175.7640  141.9710 C   0  0  1  0  0  3  0  0  0  0  0  0
  196.8520  176.7870  142.3630 C   0  0  0  0  0  3  0  0  0  0  0  0
  196.9050  177.1900  143.5130 O   0  0  0  0  0  0  0  0  0  0  0  0
  193.3110  173.3920  142.9380 C   0  0  0  0  0  2  0  0  0  0  0  0
  193.1330  172.5800  144.2090 C   0  0  0  0  0  2  0  0  0  0  0  0
  193.7280  174.6690  145.3890 C   0  0  0  0  0  2  0  0  0  0  0  0
  193.4520  175.5710  146.5930 C   0  0  1  0  0  3  0  0  0  0  0  0
  190.4090  173.0240  145.2680 F   0  0  0  0  0  0  0  0  0  0  0  0
  194.1970  176.8810  146.4090 C   0  0  0  0  0  1  0  0  0  0  0  0
  191.9740  175.8120  146.8440 C   0  0  0  0  0  0  0  0  0  0  0  0
  192.7590  173.4940  145.3630 C   0  0  1  0  0  3  0  0  0  0  0  0
  191.3410  174.0430  145.1920 C   0  0  2  0  0  3  0  0  0  0  0  0
  191.0280  175.0730  146.2420 C   0  0  0  0  0  3  0  0  0  0  0  0
  190.2860  177.2810  147.6260 O   0  0  0  0  0  1  0  0  0  0  0  0
  191.5580  176.7810  147.9060 C   0  0  0  0  0  2  0  0  0  0  0  0
  1 16  2  0  0  0  0
  1 23  1  0  0  0  0
  2 22  1  0  0  0  0
  3 23  1  0  0  0  0
  3  4  2  0  0  0  0
  4 11  1  0  0  0  0
  6 16  1  0  0  0  0
  6  5  2  0  0  0  0
  8 15  2  0  0  0  0
  8 25  1  0  0  0  0
  9  5  1  6  0  0  0
  9 24  1  0  0  0  0
 10 11  1  0  0  0  0
 10 14  1  0  0  0  0
 11  8  1  0  0  0  0
 12 26  1  0  0  0  0
 12 19  1  0  0  0  0
 14 22  1  0  0  0  0
 15 17  1  0  0  0  0
 16  7  1  0  0  0  0
 17 18  1  0  0  0  0
 18 28  1  0  0  0  0
 19 29  1  1  0  0  0
 19 21  1  0  0  0  0
 20  2  1  6  0  0  0
 20 21  1  0  0  0  0
 21 37  1  0  0  0  0
 23 10  2  0  0  0  0
 24  7  1  1  0  0  0
 24 20  1  0  0  0  0
 25 13  2  0  0  0  0
 25 18  1  0  0  0  0
 26  9  1  0  0  0  0
 28 27  1  0  0  0  0
 30 31  1  0  0  0  0
 30 32  1  0  0  0  0
 31 34  1  0  0  0  0
 32 29  1  0  0  0  0
 32 33  1  0  0  0  0
 33 34  1  0  0  0  0
 34 35  1  6  0  0  0
 35 36  2  0  0  0  0
 37 38  1  0  0  0  0
 39 40  1  0  0  0  0
 40 42  1  6  0  0  0
 40 43  1  0  0  0  0
 43 48  1  0  0  0  0
 44 38  1  6  0  0  0
 44 39  1  0  0  0  0
 45 41  1  1  0  0  0
 45 44  1  0  0  0  0
 45 46  1  0  0  0  0
 46 43  2  0  0  0  0
 47 48  1  0  0  0  0
M  END
>  <MODEL>
6

>  <REMARK>
 VINA RESULT:      -6.9      3.046      8.935
  Name = 
  8 active torsions:
  status: ('A' for Active; 'I' for Inactive)
    1  A    between atoms: C_2  and  C_42
    2  A    between atoms: C_16  and  N_28
    3  A    between atoms: C_16  and  C_33
    4  A    between atoms: C_21  and  C_23
    5  A    between atoms: C_21  and  N_37
    6  A    between atoms: C_23  and  C_29
    7  A    between atoms: C_27  and  C_40
    8  A    between atoms: N_32  and  C_38
                            x       y       z     vdW  Elec       q    Type
                         _______ _______ _______ _____ _____    ______ ____

>  <TORSDO>
F 8

$$$$
=
 OpenBabel11062418273D

 48 54  0  0  1  0  0  0  0  0999 V2000
  196.6110  174.6690  143.7200 N   0  0  0  0  0  0  0  0  0  0  0  0
  192.4880  175.1480  141.6820 C   0  0  0  0  0  2  0  0  0  0  0  0
  197.9170  175.1200  141.5570 C   0  0  0  0  0  3  0  0  0  0  0  0
  197.5690  174.9530  140.0770 C   0  0  0  0  0  3  0  0  0  0  0  0
  194.2850  174.7010  146.3820 C   0  0  0  0  0  3  0  0  0  0  0  0
  195.4510  174.8110  145.8020 N   0  0  0  0  0  0  0  0  0  0  0  0
  194.3560  175.3530  143.6690 C   0  0  0  0  0  2  0  0  0  0  0  0
  195.6450  173.8340  138.8620 C   0  0  0  0  0  0  0  0  0  0  0  0
  192.9840  174.6750  145.5900 C   0  0  2  0  0  3  0  0  0  0  0  0
  195.7980  174.1380  141.3960 C   0  0  0  0  0  0  0  0  0  0  0  0
  196.2970  174.2510  140.0670 N   0  0  0  0  0  0  0  0  0  0  0  0
  191.7410  176.9230  145.4700 C   0  0  0  0  0  2  0  0  0  0  0  0
  195.2210  171.6080  139.5330 O   0  0  0  0  0  0  0  0  0  0  0  0
  194.5000  173.4190  141.7320 C   0  0  0  0  0  2  0  0  0  0  0  0
  195.5120  174.6920  137.8080 N   0  0  0  0  0  0  0  0  0  0  0  0
  195.5490  175.0140  144.3890 C   0  0  0  0  0  0  0  0  0  0  0  0
  194.7150  173.7540  136.7010 S   0  0  0  0  0  0  0  0  0  0  0  0
  194.5500  172.3060  137.4640 N   0  0  0  0  0  0  0  0  0  0  0  0
  190.9120  176.8300  144.1600 C   0  0  1  0  0  3  0  0  0  0  0  0
  192.0540  174.8530  143.1490 C   0  0  2  0  0  3  0  0  0  0  0  0
  190.7760  175.4540  143.6110 N   0  0  0  0  0  0  0  0  0  0  0  0
  193.2400  173.9680  141.0150 C   0  0  0  0  0  2  0  0  0  0  0  0
  196.7020  174.6270  142.2700 C   0  0  0  0  0  0  0  0  0  0  0  0
  193.1750  175.0100  144.1330 C   0  0  2  0  0  3  0  0  0  0  0  0
  195.1290  172.5190  138.6680 C   0  0  0  0  0  0  0  0  0  0  0  0
  191.9160  175.5870  146.2180 C   0  0  0  0  0  2  0  0  0  0  0  0
  194.8000  170.1560  136.6120 O   0  0  0  0  0  1  0  0  0  0  0  0
  193.8630  171.1200  136.9820 C   0  0  0  0  0  2  0  0  0  0  0  0
  189.5490  177.5040  144.4080 C   0  0  0  0  0  2  0  0  0  0  0  0
  188.7950  177.5520  146.6190 C   0  0  0  0  0  2  0  0  0  0  0  0
  187.5030  177.6600  147.1590 O   0  0  0  0  0  0  0  0  0  0  0  0
  188.7550  176.7750  145.3900 N   0  0  0  0  0  0  0  0  0  0  0  0
  187.3720  176.8370  144.9770 C   0  0  0  0  0  2  0  0  0  0  0  0
  186.6490  177.5900  146.0570 C   0  0  1  0  0  3  0  0  0  0  0  0
  185.3970  176.8640  146.4210 C   0  0  0  0  0  3  0  0  0  0  0  0
  184.3320  177.4580  146.4610 O   0  0  0  0  0  0  0  0  0  0  0  0
  189.8090  175.4300  142.5090 C   0  0  0  0  0  2  0  0  0  0  0  0
  188.8010  174.3130  142.7200 C   0  0  0  0  0  2  0  0  0  0  0  0
  189.6540  173.7620  140.4660 C   0  0  0  0  0  2  0  0  0  0  0  0
  189.8540  172.6690  139.4150 C   0  0  1  0  0  3  0  0  0  0  0  0
  189.5520  171.5440  143.4340 F   0  0  0  0  0  0  0  0  0  0  0  0
  190.7280  173.2110  138.2990 C   0  0  0  0  0  1  0  0  0  0  0  0
  190.4250  171.3810  139.9820 C   0  0  0  0  0  0  0  0  0  0  0  0
  189.0700  173.1790  141.7460 C   0  0  1  0  0  3  0  0  0  0  0  0
  190.0780  172.1840  142.3260 C   0  0  2  0  0  3  0  0  0  0  0  0
  190.4690  171.1520  141.3050 C   0  0  0  0  0  3  0  0  0  0  0  0
  189.6900  169.8860  138.2940 O   0  0  0  0  0  1  0  0  0  0  0  0
  190.7980  170.2710  139.0500 C   0  0  0  0  0  2  0  0  0  0  0  0
  1 16  2  0  0  0  0
  3 23  1  0  0  0  0
  4  3  2  0  0  0  0
  6  5  2  0  0  0  0
  7 16  1  0  0  0  0
  8 11  1  0  0  0  0
  9 26  1  1  0  0  0
  9  5  1  0  0  0  0
 10 14  1  0  0  0  0
 10 23  2  0  0  0  0
 11  4  1  0  0  0  0
 11 10  1  0  0  0  0
 12 26  1  0  0  0  0
 15  8  2  0  0  0  0
 16  6  1  0  0  0  0
 17 18  1  0  0  0  0
 17 15  1  0  0  0  0
 18 25  1  0  0  0  0
 19 29  1  1  0  0  0
 19 12  1  0  0  0  0
 20  2  1  6  0  0  0
 20 21  1  0  0  0  0
 20 24  1  0  0  0  0
 21 19  1  0  0  0  0
 22  2  1  0  0  0  0
 22 14  1  0  0  0  0
 23  1  1  0  0  0  0
 24  7  1  6  0  0  0
 24  9  1  0  0  0  0
 25  8  1  0  0  0  0
 25 13  2  0  0  0  0
 27 28  1  0  0  0  0
 28 18  1  0  0  0  0
 29 32  1  0  0  0  0
 30 31  1  0  0  0  0
 32 30  1  0  0  0  0
 33 32  1  0  0  0  0
 33 34  1  0  0  0  0
 34 35  1  1  0  0  0
 34 31  1  0  0  0  0
 35 36  2  0  0  0  0
 37 38  1  0  0  0  0
 37 21  1  0  0  0  0
 39 44  1  0  0  0  0
 40 42  1  6  0  0  0
 40 43  1  0  0  0  0
 40 39  1  0  0  0  0
 43 46  2  0  0  0  0
 44 45  1  0  0  0  0
 44 38  1  1  0  0  0
 45 41  1  1  0  0  0
 46 45  1  0  0  0  0
 47 48  1  0  0  0  0
 48 43  1  0  0  0  0
M  END
>  <MODEL>
7

>  <REMARK>
 VINA RESULT:      -6.7      1.545      2.055
  Name = 
  8 active torsions:
  status: ('A' for Active; 'I' for Inactive)
    1  A    between atoms: C_2  and  C_42
    2  A    between atoms: C_16  and  N_28
    3  A    between atoms: C_16  and  C_33
    4  A    between atoms: C_21  and  C_23
    5  A    between atoms: C_21  and  N_37
    6  A    between atoms: C_23  and  C_29
    7  A    between atoms: C_27  and  C_40
    8  A    between atoms: N_32  and  C_38
                            x       y       z     vdW  Elec       q    Type
                         _______ _______ _______ _____ _____    ______ ____

>  <TORSDO>
F 8

$$$$
=
 OpenBabel11062418273D

 48 54  0  0  1  0  0  0  0  0999 V2000
  188.5120  174.0360  138.4060 N   0  0  0  0  0  0  0  0  0  0  0  0
  189.5020  174.2090  142.9190 C   0  0  0  0  0  2  0  0  0  0  0  0
  189.3280  171.6160  138.1510 C   0  0  0  0  0  3  0  0  0  0  0  0
  190.3360  170.7700  138.9310 C   0  0  0  0  0  3  0  0  0  0  0  0
  187.0650  177.0580  139.5320 C   0  0  0  0  0  3  0  0  0  0  0  0
  187.2510  176.0360  138.7390 N   0  0  0  0  0  0  0  0  0  0  0  0
  188.0960  174.7060  140.6260 C   0  0  0  0  0  2  0  0  0  0  0  0
  192.0450  171.3190  140.7230 C   0  0  0  0  0  0  0  0  0  0  0  0
  187.6070  177.0900  140.9560 C   0  0  2  0  0  3  0  0  0  0  0  0
  190.3260  172.9640  139.7850 C   0  0  0  0  0  0  0  0  0  0  0  0
  190.9770  171.6990  139.8470 N   0  0  0  0  0  0  0  0  0  0  0  0
  185.9060  176.4690  142.7810 C   0  0  0  0  0  2  0  0  0  0  0  0
  193.4930  173.1080  140.1840 O   0  0  0  0  0  0  0  0  0  0  0  0
  190.7830  174.1670  140.5950 C   0  0  0  0  0  2  0  0  0  0  0  0
  191.9600  170.1810  141.4730 N   0  0  0  0  0  0  0  0  0  0  0  0
  187.8970  174.8500  139.2140 C   0  0  0  0  0  0  0  0  0  0  0  0
  193.4030  170.1980  142.2840 S   0  0  0  0  0  0  0  0  0  0  0  0
  194.1520  171.5510  141.7210 N   0  0  0  0  0  0  0  0  0  0  0  0
  186.7790  175.9350  143.9490 C   0  0  1  0  0  3  0  0  0  0  0  0
  188.9170  175.6360  142.6950 C   0  0  2  0  0  3  0  0  0  0  0  0
  188.2240  176.2720  143.8460 N   0  0  0  0  0  0  0  0  0  0  0  0
  190.8120  173.9520  142.1310 C   0  0  0  0  0  2  0  0  0  0  0  0
  189.3790  172.9470  138.8240 C   0  0  0  0  0  0  0  0  0  0  0  0
  188.1650  175.7640  141.4030 C   0  0  2  0  0  3  0  0  0  0  0  0
  193.2540  172.0640  140.8480 C   0  0  0  0  0  0  0  0  0  0  0  0
  186.5540  177.5980  141.9560 C   0  0  0  0  0  2  0  0  0  0  0  0
  195.6460  171.8070  143.4840 O   0  0  0  0  0  1  0  0  0  0  0  0
  195.4300  172.0990  142.1380 C   0  0  0  0  0  2  0  0  0  0  0  0
  186.1540  176.4160  145.2720 C   0  0  0  0  0  2  0  0  0  0  0  0
  185.0820  178.4920  145.3050 C   0  0  0  0  0  2  0  0  0  0  0  0
  184.8570  179.4060  146.3470 O   0  0  0  0  0  0  0  0  0  0  0  0
  186.3710  177.8430  145.4860 N   0  0  0  0  0  0  0  0  0  0  0  0
  186.6740  178.0410  146.8850 C   0  0  0  0  0  2  0  0  0  0  0  0
  185.5630  178.8880  147.4350 C   0  0  1  0  0  3  0  0  0  0  0  0
  186.1360  179.9980  148.2520 C   0  0  0  0  0  3  0  0  0  0  0  0
  187.0770  179.7870  149.0000 O   0  0  0  0  0  0  0  0  0  0  0  0
  188.9280  175.9210  145.0820 C   0  0  0  0  0  2  0  0  0  0  0  0
  189.7570  177.0980  145.5670 C   0  0  0  0  0  2  0  0  0  0  0  0
  191.4380  175.2850  145.5920 C   0  0  0  0  0  2  0  0  0  0  0  0
  192.9250  174.9320  145.5510 C   0  0  1  0  0  3  0  0  0  0  0  0
  191.6910  178.5610  143.8760 F   0  0  0  0  0  0  0  0  0  0  0  0
  193.0700  173.4290  145.3890 C   0  0  0  0  0  1  0  0  0  0  0  0
  193.6970  175.6760  144.4760 C   0  0  0  0  0  0  0  0  0  0  0  0
  191.2360  176.7860  145.4240 C   0  0  1  0  0  3  0  0  0  0  0  0
  191.7520  177.1900  144.0400 C   0  0  2  0  0  3  0  0  0  0  0  0
  193.1710  176.7350  143.8370 C   0  0  0  0  0  3  0  0  0  0  0  0
  195.8560  176.4870  143.9260 O   0  0  0  0  0  1  0  0  0  0  0  0
  195.1320  175.3330  144.2310 C   0  0  0  0  0  2  0  0  0  0  0  0
  1 23  1  0  0  0  0
  1 16  2  0  0  0  0
  3 23  1  0  0  0  0
  3  4  2  0  0  0  0
  4 11  1  0  0  0  0
  6 16  1  0  0  0  0
  6  5  2  0  0  0  0
  8 25  1  0  0  0  0
  8 15  2  0  0  0  0
  9  5  1  6  0  0  0
  9 24  1  0  0  0  0
  9 26  1  0  0  0  0
 10 11  1  0  0  0  0
 10 14  1  0  0  0  0
 11  8  1  0  0  0  0
 12 19  1  0  0  0  0
 13 25  2  0  0  0  0
 14 22  1  0  0  0  0
 15 17  1  0  0  0  0
 16  7  1  0  0  0  0
 18 28  1  0  0  0  0
 18 17  1  0  0  0  0
 19 29  1  1  0  0  0
 20  2  1  1  0  0  0
 20 21  1  0  0  0  0
 21 19  1  0  0  0  0
 21 37  1  0  0  0  0
 22  2  1  0  0  0  0
 23 10  2  0  0  0  0
 24  7  1  6  0  0  0
 24 20  1  0  0  0  0
 25 18  1  0  0  0  0
 26 12  1  0  0  0  0
 28 27  1  0  0  0  0
 29 32  1  0  0  0  0
 30 32  1  0  0  0  0
 30 31  1  0  0  0  0
 31 34  1  0  0  0  0
 32 33  1  0  0  0  0
 33 34  1  0  0  0  0
 34 35  1  6  0  0  0
 35 36  2  0  0  0  0
 37 38  1  0  0  0  0
 40 42  1  6  0  0  0
 40 39  1  0  0  0  0
 43 40  1  0  0  0  0
 44 38  1  6  0  0  0
 44 39  1  0  0  0  0
 45 41  1  1  0  0  0
 45 44  1  0  0  0  0
 46 45  1  0  0  0  0
 46 43  2  0  0  0  0
 47 48  1  0  0  0  0
 48 43  1  0  0  0  0
M  END
>  <MODEL>
8

>  <REMARK>
 VINA RESULT:      -6.6      2.688      5.794
  Name = 
  8 active torsions:
  status: ('A' for Active; 'I' for Inactive)
    1  A    between atoms: C_2  and  C_42
    2  A    between atoms: C_16  and  N_28
    3  A    between atoms: C_16  and  C_33
    4  A    between atoms: C_21  and  C_23
    5  A    between atoms: C_21  and  N_37
    6  A    between atoms: C_23  and  C_29
    7  A    between atoms: C_27  and  C_40
    8  A    between atoms: N_32  and  C_38
                            x       y       z     vdW  Elec       q    Type
                         _______ _______ _______ _____ _____    ______ ____

>  <TORSDO>
F 8

$$$$
=
 OpenBabel11062418273D

 48 54  0  0  1  0  0  0  0  0999 V2000
  195.0480  176.3690  143.4070 N   0  0  0  0  0  0  0  0  0  0  0  0
  191.2620  173.8140  142.6910 C   0  0  0  0  0  2  0  0  0  0  0  0
  194.8010  176.3180  145.9610 C   0  0  0  0  0  3  0  0  0  0  0  0
  193.5970  176.1310  146.8870 C   0  0  0  0  0  3  0  0  0  0  0  0
  195.1250  175.5860  139.9610 C   0  0  0  0  0  3  0  0  0  0  0  0
  195.6000  175.9560  141.1210 N   0  0  0  0  0  0  0  0  0  0  0  0
  193.8050  174.7250  142.2640 C   0  0  0  0  0  2  0  0  0  0  0  0
  191.0930  176.0890  146.4910 C   0  0  0  0  0  0  0  0  0  0  0  0
  193.7640  174.9170  139.8170 C   0  0  2  0  0  3  0  0  0  0  0  0
  192.8650  176.1900  144.6500 C   0  0  0  0  0  0  0  0  0  0  0  0
  192.4400  176.1630  146.0090 N   0  0  0  0  0  0  0  0  0  0  0  0
  193.8270  172.3540  139.6330 C   0  0  0  0  0  2  0  0  0  0  0  0
  190.2600  177.9330  145.2690 O   0  0  0  0  0  0  0  0  0  0  0  0
  191.8930  176.2670  143.4830 C   0  0  0  0  0  2  0  0  0  0  0  0
  190.7330  175.1490  147.4130 N   0  0  0  0  0  0  0  0  0  0  0  0
  194.8930  175.6560  142.3290 C   0  0  0  0  0  0  0  0  0  0  0  0
  189.1250  175.4780  147.6280 S   0  0  0  0  0  0  0  0  0  0  0  0
  188.8550  176.7680  146.6420 N   0  0  0  0  0  0  0  0  0  0  0  0
  192.4370  171.9000  140.1580 C   0  0  1  0  0  3  0  0  0  0  0  0
  191.7360  174.0470  141.2250 C   0  0  2  0  0  3  0  0  0  0  0  0
  191.4210  172.9850  140.2340 N   0  0  0  0  0  0  0  0  0  0  0  0
  190.8510  175.1200  143.4180 C   0  0  0  0  0  2  0  0  0  0  0  0
  194.2100  176.2780  144.5910 C   0  0  0  0  0  0  0  0  0  0  0  0
  193.1510  174.5390  141.1400 C   0  0  2  0  0  3  0  0  0  0  0  0
  190.0660  176.9870  146.0780 C   0  0  0  0  0  0  0  0  0  0  0  0
  193.8240  173.6990  138.8800 C   0  0  0  0  0  2  0  0  0  0  0  0
  186.6140  176.4930  146.0870 O   0  0  0  0  0  1  0  0  0  0  0  0
  187.5940  177.4390  146.3810 C   0  0  0  0  0  2  0  0  0  0  0  0
  191.9670  170.7100  139.3010 C   0  0  0  0  0  2  0  0  0  0  0  0
  192.8180  169.4590  137.5210 C   0  0  0  0  0  2  0  0  0  0  0  0
  192.3020  169.1890  136.2430 O   0  0  0  0  0  0  0  0  0  0  0  0
  192.4520  170.8060  137.9290 N   0  0  0  0  0  0  0  0  0  0  0  0
  191.3290  171.1390  137.0830 C   0  0  0  0  0  2  0  0  0  0  0  0
  191.1530  169.9770  136.1490 C   0  0  1  0  0  3  0  0  0  0  0  0
  190.9850  170.4770  134.7530 C   0  0  0  0  0  3  0  0  0  0  0  0
  190.3170  171.4740  134.5340 O   0  0  0  0  0  0  0  0  0  0  0  0
  190.0950  172.4330  140.5290 C   0  0  0  0  0  2  0  0  0  0  0  0
  189.0220  173.2310  139.8080 C   0  0  0  0  0  2  0  0  0  0  0  0
  187.8450  175.4050  139.7850 C   0  0  0  0  0  2  0  0  0  0  0  0
  187.4630  176.6510  140.5860 C   0  0  1  0  0  3  0  0  0  0  0  0
  188.2800  173.1140  142.6670 F   0  0  0  0  0  0  0  0  0  0  0  0
  186.4620  177.4640  139.7850 C   0  0  0  0  0  1  0  0  0  0  0  0
  186.9310  176.3400  141.9740 C   0  0  0  0  0  0  0  0  0  0  0  0
  188.5810  174.4030  140.6660 C   0  0  1  0  0  3  0  0  0  0  0  0
  187.6290  173.9450  141.7740 C   0  0  2  0  0  3  0  0  0  0  0  0
  187.0630  175.1200  142.5220 C   0  0  0  0  0  3  0  0  0  0  0  0
  187.3590  178.4460  142.9760 O   0  0  0  0  0  1  0  0  0  0  0  0
  186.3930  177.4510  142.8200 C   0  0  0  0  0  2  0  0  0  0  0  0
  1 23  1  0  0  0  0
  2 22  1  0  0  0  0
  3  4  2  0  0  0  0
  5  6  2  0  0  0  0
  6 16  1  0  0  0  0
  7 16  1  0  0  0  0
  8 15  2  0  0  0  0
  9 26  1  6  0  0  0
  9  5  1  0  0  0  0
  9 24  1  0  0  0  0
 10 11  1  0  0  0  0
 11  8  1  0  0  0  0
 11  4  1  0  0  0  0
 12 19  1  0  0  0  0
 13 25  2  0  0  0  0
 14 10  1  0  0  0  0
 15 17  1  0  0  0  0
 16  1  2  0  0  0  0
 18 17  1  0  0  0  0
 19 29  1  6  0  0  0
 19 21  1  0  0  0  0
 20  2  1  1  0  0  0
 21 37  1  0  0  0  0
 21 20  1  0  0  0  0
 22 14  1  0  0  0  0
 23 10  2  0  0  0  0
 23  3  1  0  0  0  0
 24 20  1  0  0  0  0
 24  7  1  1  0  0  0
 25  8  1  0  0  0  0
 25 18  1  0  0  0  0
 26 12  1  0  0  0  0
 27 28  1  0  0  0  0
 28 18  1  0  0  0  0
 30 32  1  0  0  0  0
 31 30  1  0  0  0  0
 32 29  1  0  0  0  0
 33 32  1  0  0  0  0
 34 35  1  6  0  0  0
 34 31  1  0  0  0  0
 34 33  1  0  0  0  0
 36 35  2  0  0  0  0
 38 37  1  0  0  0  0
 39 40  1  0  0  0  0
 39 44  1  0  0  0  0
 40 42  1  6  0  0  0
 40 43  1  0  0  0  0
 43 46  2  0  0  0  0
 43 48  1  0  0  0  0
 44 38  1  6  0  0  0
 44 45  1  0  0  0  0
 45 46  1  0  0  0  0
 45 41  1  1  0  0  0
 48 47  1  0  0  0  0
M  END
>  <MODEL>
9

>  <REMARK>
 VINA RESULT:      -6.3      2.879      8.147
  Name = 
  8 active torsions:
  status: ('A' for Active; 'I' for Inactive)
    1  A    between atoms: C_2  and  C_42
    2  A    between atoms: C_16  and  N_28
    3  A    between atoms: C_16  and  C_33
    4  A    between atoms: C_21  and  C_23
    5  A    between atoms: C_21  and  N_37
    6  A    between atoms: C_23  and  C_29
    7  A    between atoms: C_27  and  C_40
    8  A    between atoms: N_32  and  C_38
                            x       y       z     vdW  Elec       q    Type
                         _______ _______ _______ _____ _____    ______ ____

>  <TORSDO>
F 8

$$$$
