=
 OpenBabel11062420373D

 32 35  0  0  1  0  0  0  0  0999 V2000
  192.5470  175.8860  146.2680 C   0  0  2  0  0  3  0  0  0  0  0  0
  192.0990  174.9590  147.3060 N   0  0  0  0  0  2  0  0  0  0  0  0
  191.3720  176.7670  145.8790 C   0  0  0  0  0  2  0  0  0  0  0  0
  190.1720  176.1280  146.5240 C   0  0  1  0  0  3  0  0  0  0  0  0
  190.7520  175.3630  147.6830 C   0  0  0  0  0  2  0  0  0  0  0  0
  196.5930  173.9420  145.9750 C   0  0  0  0  0  3  0  0  0  0  0  0
  194.2970  174.3410  145.3850 C   0  0  0  0  0  0  0  0  0  0  0  0
  195.5530  174.8470  145.7260 C   0  0  0  0  0  3  0  0  0  0  0  0
  192.6790  172.7660  144.8440 C   0  0  0  0  0  3  0  0  0  0  0  0
  192.0770  174.0930  144.6460 N   0  0  0  0  0  0  0  0  0  0  0  0
  195.0970  172.0630  145.5100 C   0  0  0  0  0  0  0  0  0  0  0  0
  196.3660  172.5600  145.8710 C   0  0  0  0  0  3  0  0  0  0  0  0
  193.0680  175.1040  145.0550 C   0  0  1  0  0  3  0  0  0  0  0  0
  194.0770  173.0010  145.2650 C   0  0  0  0  0  0  0  0  0  0  0  0
  194.8880  170.6050  145.3970 C   0  0  0  0  0  0  0  0  0  0  0  0
  194.8640  170.0540  144.2640 O   0  0  0  0  0  0  0  0  0  0  0  0
  194.7180  169.8170  146.5300 O   0  0  0  0  0  1  0  0  0  0  0  0
  189.2720  177.1230  147.0000 O   0  0  0  0  0  0  0  0  0  0  0  0
  187.6610  176.8890  145.1720 C   0  0  0  0  0  3  0  0  0  0  0  0
  186.3730  177.0890  144.6670 C   0  0  0  0  0  0  0  0  0  0  0  0
  185.3990  177.7110  145.4660 C   0  0  0  0  0  0  0  0  0  0  0  0
  185.7280  178.1380  146.7570 C   0  0  0  0  0  0  0  0  0  0  0  0
  184.7950  178.7410  147.5340 F   0  0  0  0  0  0  0  0  0  0  0  0
  184.1400  177.9000  144.9950 F   0  0  0  0  0  0  0  0  0  0  0  0
  187.9910  177.3140  146.4690 C   0  0  0  0  0  0  0  0  0  0  0  0
  187.0200  177.9390  147.2540 C   0  0  0  0  0  3  0  0  0  0  0  0
  186.0390  176.6140  143.2900 C   0  0  0  0  0  2  0  0  0  0  0  0
  186.4230  177.6380  142.2720 C   0  0  0  0  0  0  0  0  0  0  0  0
  185.7780  178.6720  142.1810 O   0  0  0  0  0  0  0  0  0  0  0  0
  187.9260  176.0510  141.3570 O   0  0  0  0  0  1  0  0  0  0  0  0
  187.6190  177.4110  141.4020 C   0  0  2  0  0  3  0  0  0  0  0  0
  188.8130  178.1890  141.9210 C   0  0  0  0  0  1  0  0  0  0  0  0
  1  3  1  6  0  0  0
  1  2  1  0  0  0  0
  2  5  1  0  0  0  0
  3  4  1  0  0  0  0
  4 18  1  1  0  0  0
  4  5  1  0  0  0  0
  7  8  1  0  0  0  0
  8  6  2  0  0  0  0
  9 14  1  0  0  0  0
 10  9  2  0  0  0  0
 11 12  2  0  0  0  0
 12  6  1  0  0  0  0
 13 10  1  1  0  0  0
 13  7  1  0  0  0  0
 13  1  1  0  0  0  0
 14  7  2  0  0  0  0
 14 11  1  0  0  0  0
 15 11  1  0  0  0  0
 15 17  1  0  0  0  0
 16 15  2  0  0  0  0
 19 25  1  0  0  0  0
 20 19  2  0  0  0  0
 20 21  1  0  0  0  0
 21 22  2  0  0  0  0
 22 26  1  0  0  0  0
 22 23  1  0  0  0  0
 24 21  1  0  0  0  0
 25 18  1  0  0  0  0
 25 26  2  0  0  0  0
 27 20  1  0  0  0  0
 28 27  1  0  0  0  0
 29 28  2  0  0  0  0
 30 31  1  0  0  0  0
 31 32  1  1  0  0  0
 31 28  1  0  0  0  0
M  END
>  <MODEL>
1

>  <REMARK>
 VINA RESULT:      -7.9      0.000      0.000
  Name = 
  7 active torsions:
  status: ('A' for Active; 'I' for Inactive)
    1  A    between atoms: C_1  and  C_17
    2  A    between atoms: C_7  and  C_12
    3  A    between atoms: C_7  and  C_18
    4  A    between atoms: C_10  and  C_12
    5  A    between atoms: O_13  and  C_25
    6  A    between atoms: O_13  and  C_31
    7  A    between atoms: C_14  and  C_23
                            x       y       z     vdW  Elec       q    Type
                         _______ _______ _______ _____ _____    ______ ____

>  <TORSDO>
F 7

$$$$
=
 OpenBabel11062420373D

 32 35  0  0  1  0  0  0  0  0999 V2000
  191.6970  175.9580  143.6060 C   0  0  2  0  0  3  0  0  0  0  0  0
  191.8640  177.3720  143.2680 N   0  0  0  0  0  2  0  0  0  0  0  0
  190.2140  175.6330  143.5650 C   0  0  0  0  0  2  0  0  0  0  0  0
  189.5210  176.9660  143.4700 C   0  0  1  0  0  3  0  0  0  0  0  0
  190.5590  177.8660  142.8530 C   0  0  0  0  0  2  0  0  0  0  0  0
  193.4690  172.0460  144.9420 C   0  0  0  0  0  3  0  0  0  0  0  0
  193.0490  174.4120  145.0220 C   0  0  0  0  0  0  0  0  0  0  0  0
  192.5650  173.1130  144.8520 C   0  0  0  0  0  3  0  0  0  0  0  0
  194.5710  176.1060  145.4770 C   0  0  0  0  0  3  0  0  0  0  0  0
  193.2450  176.7320  145.3580 N   0  0  0  0  0  0  0  0  0  0  0  0
  195.2990  173.6060  145.3900 C   0  0  0  0  0  0  0  0  0  0  0  0
  194.8270  172.2910  145.2050 C   0  0  0  0  0  3  0  0  0  0  0  0
  192.2790  175.6800  144.9980 C   0  0  1  0  0  3  0  0  0  0  0  0
  194.3630  174.6530  145.2970 C   0  0  0  0  0  0  0  0  0  0  0  0
  196.7300  173.8360  145.6770 C   0  0  0  0  0  0  0  0  0  0  0  0
  197.1840  173.6360  146.8360 O   0  0  0  0  0  1  0  0  0  0  0  0
  197.5980  174.2710  144.6820 O   0  0  0  0  0  0  0  0  0  0  0  0
  188.3850  176.8780  142.6170 O   0  0  0  0  0  0  0  0  0  0  0  0
  186.9290  178.1100  144.1500 C   0  0  0  0  0  3  0  0  0  0  0  0
  185.6790  178.6660  144.4420 C   0  0  0  0  0  0  0  0  0  0  0  0
  184.6340  178.5590  143.5100 C   0  0  0  0  0  0  0  0  0  0  0  0
  184.8450  177.8870  142.3020 C   0  0  0  0  0  0  0  0  0  0  0  0
  183.8410  177.7780  141.3970 F   0  0  0  0  0  0  0  0  0  0  0  0
  183.4190  179.1050  143.7740 F   0  0  0  0  0  0  0  0  0  0  0  0
  187.1430  177.4390  142.9360 C   0  0  0  0  0  0  0  0  0  0  0  0
  186.0960  177.3310  142.0180 C   0  0  0  0  0  3  0  0  0  0  0  0
  185.4780  179.3900  145.7340 C   0  0  0  0  0  2  0  0  0  0  0  0
  184.9960  178.4530  146.7930 C   0  0  0  0  0  0  0  0  0  0  0  0
  183.8470  178.0400  146.7580 O   0  0  0  0  0  0  0  0  0  0  0  0
  186.8620  178.9960  148.1500 O   0  0  0  0  0  1  0  0  0  0  0  0
  185.9350  177.9940  147.8650 C   0  0  2  0  0  3  0  0  0  0  0  0
  186.6590  176.7320  147.4350 C   0  0  0  0  0  1  0  0  0  0  0  0
  1  3  1  1  0  0  0
  1 13  1  0  0  0  0
  2  1  1  0  0  0  0
  4 18  1  6  0  0  0
  4  3  1  0  0  0  0
  5  2  1  0  0  0  0
  5  4  1  0  0  0  0
  6 12  1  0  0  0  0
  7 14  2  0  0  0  0
  8  6  2  0  0  0  0
  8  7  1  0  0  0  0
 10  9  2  0  0  0  0
 11 15  1  0  0  0  0
 12 11  2  0  0  0  0
 13  7  1  6  0  0  0
 13 10  1  0  0  0  0
 14 11  1  0  0  0  0
 14  9  1  0  0  0  0
 15 16  1  0  0  0  0
 17 15  2  0  0  0  0
 18 25  1  0  0  0  0
 19 20  1  0  0  0  0
 20 27  1  0  0  0  0
 21 24  1  0  0  0  0
 21 20  2  0  0  0  0
 22 21  1  0  0  0  0
 23 22  1  0  0  0  0
 25 19  2  0  0  0  0
 26 22  2  0  0  0  0
 26 25  1  0  0  0  0
 27 28  1  0  0  0  0
 28 31  1  0  0  0  0
 29 28  2  0  0  0  0
 31 32  1  6  0  0  0
 31 30  1  0  0  0  0
M  END
>  <MODEL>
2

>  <REMARK>
 VINA RESULT:      -7.8      2.299      4.136
  Name = 
  7 active torsions:
  status: ('A' for Active; 'I' for Inactive)
    1  A    between atoms: C_1  and  C_17
    2  A    between atoms: C_7  and  C_12
    3  A    between atoms: C_7  and  C_18
    4  A    between atoms: C_10  and  C_12
    5  A    between atoms: O_13  and  C_25
    6  A    between atoms: O_13  and  C_31
    7  A    between atoms: C_14  and  C_23
                            x       y       z     vdW  Elec       q    Type
                         _______ _______ _______ _____ _____    ______ ____

>  <TORSDO>
F 7

$$$$
=
 OpenBabel11062420373D

 32 35  0  0  1  0  0  0  0  0999 V2000
  191.7710  175.8970  146.4880 C   0  0  2  0  0  3  0  0  0  0  0  0
  191.4090  174.6380  145.8360 N   0  0  0  0  0  2  0  0  0  0  0  0
  190.5040  176.7140  146.6740 C   0  0  0  0  0  2  0  0  0  0  0  0
  189.4560  176.0080  145.8580 C   0  0  1  0  0  3  0  0  0  0  0  0
  189.9550  174.5900  145.7830 C   0  0  0  0  0  2  0  0  0  0  0  0
  195.9860  174.5590  145.6740 C   0  0  0  0  0  3  0  0  0  0  0  0
  193.9690  175.8150  145.3120 C   0  0  0  0  0  0  0  0  0  0  0  0
  194.9300  175.3160  146.1940 C   0  0  0  0  0  3  0  0  0  0  0  0
  192.9400  176.2890  143.2850 C   0  0  0  0  0  3  0  0  0  0  0  0
  192.1940  177.0060  144.3300 N   0  0  0  0  0  0  0  0  0  0  0  0
  195.1030  174.8440  143.4100 C   0  0  0  0  0  0  0  0  0  0  0  0
  196.0710  174.3200  144.2910 C   0  0  0  0  0  3  0  0  0  0  0  0
  192.7910  176.6580  145.6310 C   0  0  1  0  0  3  0  0  0  0  0  0
  194.0580  175.6030  143.9670 C   0  0  0  0  0  0  0  0  0  0  0  0
  195.2210  174.5880  141.9600 C   0  0  0  0  0  0  0  0  0  0  0  0
  195.7230  175.4600  141.2010 O   0  0  0  0  0  0  0  0  0  0  0  0
  194.7880  173.3880  141.4070 O   0  0  0  0  0  1  0  0  0  0  0  0
  188.1970  176.0470  146.5210 O   0  0  0  0  0  0  0  0  0  0  0  0
  187.1380  177.5890  144.9430 C   0  0  0  0  0  3  0  0  0  0  0  0
  186.1170  178.4970  144.6450 C   0  0  0  0  0  0  0  0  0  0  0  0
  185.1310  178.7770  145.6050 C   0  0  0  0  0  0  0  0  0  0  0  0
  185.1830  178.1560  146.8570 C   0  0  0  0  0  0  0  0  0  0  0  0
  184.2360  178.4230  147.7900 F   0  0  0  0  0  0  0  0  0  0  0  0
  184.1270  179.6460  145.3250 F   0  0  0  0  0  0  0  0  0  0  0  0
  187.1890  176.9620  146.1980 C   0  0  0  0  0  0  0  0  0  0  0  0
  186.2080  177.2520  147.1500 C   0  0  0  0  0  3  0  0  0  0  0  0
  186.0740  179.1400  143.2960 C   0  0  0  0  0  2  0  0  0  0  0  0
  185.6180  178.1630  142.2620 C   0  0  0  0  0  0  0  0  0  0  0  0
  184.5040  177.6690  142.3450 O   0  0  0  0  0  0  0  0  0  0  0  0
  185.7540  177.6710  139.9480 O   0  0  0  0  0  1  0  0  0  0  0  0
  186.5120  177.8290  141.1090 C   0  0  2  0  0  3  0  0  0  0  0  0
  187.2920  176.5590  141.3880 C   0  0  0  0  0  1  0  0  0  0  0  0
  1  3  1  6  0  0  0
  2  1  1  0  0  0  0
  4 18  1  1  0  0  0
  4  3  1  0  0  0  0
  5  2  1  0  0  0  0
  5  4  1  0  0  0  0
  6  8  1  0  0  0  0
  7 13  1  0  0  0  0
  7  8  2  0  0  0  0
  9 14  1  0  0  0  0
  9 10  2  0  0  0  0
 11 14  2  0  0  0  0
 11 12  1  0  0  0  0
 12  6  2  0  0  0  0
 13 10  1  6  0  0  0
 13  1  1  0  0  0  0
 14  7  1  0  0  0  0
 15 11  1  0  0  0  0
 16 15  2  0  0  0  0
 17 15  1  0  0  0  0
 19 25  1  0  0  0  0
 20 19  2  0  0  0  0
 20 21  1  0  0  0  0
 21 22  2  0  0  0  0
 22 26  1  0  0  0  0
 22 23  1  0  0  0  0
 24 21  1  0  0  0  0
 25 18  1  0  0  0  0
 25 26  2  0  0  0  0
 27 20  1  0  0  0  0
 28 29  2  0  0  0  0
 28 27  1  0  0  0  0
 30 31  1  0  0  0  0
 31 32  1  1  0  0  0
 31 28  1  0  0  0  0
M  END
>  <MODEL>
3

>  <REMARK>
 VINA RESULT:      -7.8      2.176      2.573
  Name = 
  7 active torsions:
  status: ('A' for Active; 'I' for Inactive)
    1  A    between atoms: C_1  and  C_17
    2  A    between atoms: C_7  and  C_12
    3  A    between atoms: C_7  and  C_18
    4  A    between atoms: C_10  and  C_12
    5  A    between atoms: O_13  and  C_25
    6  A    between atoms: O_13  and  C_31
    7  A    between atoms: C_14  and  C_23
                            x       y       z     vdW  Elec       q    Type
                         _______ _______ _______ _____ _____    ______ ____

>  <TORSDO>
F 7

$$$$
=
 OpenBabel11062420373D

 32 35  0  0  1  0  0  0  0  0999 V2000
  191.2550  175.4650  145.6710 C   0  0  2  0  0  3  0  0  0  0  0  0
  191.0630  176.9090  145.8080 N   0  0  0  0  0  2  0  0  0  0  0  0
  190.0010  174.7700  146.1730 C   0  0  0  0  0  2  0  0  0  0  0  0
  189.2030  175.8450  146.8600 C   0  0  1  0  0  3  0  0  0  0  0  0
  189.6780  177.1160  146.2070 C   0  0  0  0  0  2  0  0  0  0  0  0
  194.0610  172.1530  144.4950 C   0  0  0  0  0  3  0  0  0  0  0  0
  193.3600  174.1250  145.6770 C   0  0  0  0  0  0  0  0  0  0  0  0
  193.0730  172.8400  145.2100 C   0  0  0  0  0  3  0  0  0  0  0  0
  194.6100  176.0300  146.1210 C   0  0  0  0  0  3  0  0  0  0  0  0
  193.3170  176.1890  146.8050 N   0  0  0  0  0  0  0  0  0  0  0  0
  195.5940  174.0420  144.7570 C   0  0  0  0  0  0  0  0  0  0  0  0
  195.3130  172.7510  144.2660 C   0  0  0  0  0  3  0  0  0  0  0  0
  192.4840  175.0200  146.4730 C   0  0  1  0  0  3  0  0  0  0  0  0
  194.5790  174.7010  145.4740 C   0  0  0  0  0  0  0  0  0  0  0  0
  196.9220  174.6430  144.5130 C   0  0  0  0  0  0  0  0  0  0  0  0
  197.9410  174.1850  145.0950 O   0  0  0  0  0  1  0  0  0  0  0  0
  197.0720  175.7150  143.6400 O   0  0  0  0  0  0  0  0  0  0  0  0
  187.8120  175.6660  146.6190 O   0  0  0  0  0  0  0  0  0  0  0  0
  187.0590  177.2880  144.9490 C   0  0  0  0  0  3  0  0  0  0  0  0
  186.1950  178.3230  144.5770 C   0  0  0  0  0  0  0  0  0  0  0  0
  185.2190  178.7750  145.4790 C   0  0  0  0  0  0  0  0  0  0  0  0
  185.1260  178.1980  146.7500 C   0  0  0  0  0  0  0  0  0  0  0  0
  184.1880  178.6310  147.6280 F   0  0  0  0  0  0  0  0  0  0  0  0
  184.3650  179.7700  145.1270 F   0  0  0  0  0  0  0  0  0  0  0  0
  186.9630  176.7050  146.2230 C   0  0  0  0  0  0  0  0  0  0  0  0
  185.9950  177.1670  147.1170 C   0  0  0  0  0  3  0  0  0  0  0  0
  186.3050  178.9170  143.2100 C   0  0  0  0  0  2  0  0  0  0  0  0
  185.7670  177.9760  142.1820 C   0  0  0  0  0  0  0  0  0  0  0  0
  184.5600  177.8210  142.0750 O   0  0  0  0  0  0  0  0  0  0  0  0
  188.0090  177.7240  141.4570 O   0  0  0  0  0  1  0  0  0  0  0  0
  186.7080  177.2620  141.2620 C   0  0  2  0  0  3  0  0  0  0  0  0
  186.3010  177.4700  139.8160 C   0  0  0  0  0  1  0  0  0  0  0  0
  1  2  1  0  0  0  0
  1  3  1  1  0  0  0
  1 13  1  0  0  0  0
  2  5  1  0  0  0  0
  3  4  1  0  0  0  0
  4 18  1  6  0  0  0
  5  4  1  0  0  0  0
  6  8  1  0  0  0  0
  8  7  2  0  0  0  0
  9 10  2  0  0  0  0
 11 14  2  0  0  0  0
 12  6  2  0  0  0  0
 12 11  1  0  0  0  0
 13  7  1  6  0  0  0
 13 10  1  0  0  0  0
 14  7  1  0  0  0  0
 14  9  1  0  0  0  0
 15 11  1  0  0  0  0
 15 16  1  0  0  0  0
 17 15  2  0  0  0  0
 19 25  1  0  0  0  0
 20 19  2  0  0  0  0
 20 21  1  0  0  0  0
 21 22  2  0  0  0  0
 22 26  1  0  0  0  0
 22 23  1  0  0  0  0
 24 21  1  0  0  0  0
 25 18  1  0  0  0  0
 25 26  2  0  0  0  0
 27 20  1  0  0  0  0
 28 27  1  0  0  0  0
 29 28  2  0  0  0  0
 31 32  1  6  0  0  0
 31 30  1  0  0  0  0
 31 28  1  0  0  0  0
M  END
>  <MODEL>
4

>  <REMARK>
 VINA RESULT:      -7.8      1.976      2.634
  Name = 
  7 active torsions:
  status: ('A' for Active; 'I' for Inactive)
    1  A    between atoms: C_1  and  C_17
    2  A    between atoms: C_7  and  C_12
    3  A    between atoms: C_7  and  C_18
    4  A    between atoms: C_10  and  C_12
    5  A    between atoms: O_13  and  C_25
    6  A    between atoms: O_13  and  C_31
    7  A    between atoms: C_14  and  C_23
                            x       y       z     vdW  Elec       q    Type
                         _______ _______ _______ _____ _____    ______ ____

>  <TORSDO>
F 7

$$$$
=
 OpenBabel11062420373D

 32 35  0  0  1  0  0  0  0  0999 V2000
  188.8670  176.0880  145.6770 C   0  0  2  0  0  3  0  0  0  0  0  0
  188.3550  175.4340  146.8810 N   0  0  0  0  0  2  0  0  0  0  0  0
  190.3810  176.1550  145.7820 C   0  0  0  0  0  2  0  0  0  0  0  0
  190.6940  175.7760  147.2050 C   0  0  1  0  0  3  0  0  0  0  0  0
  189.5090  174.9470  147.6230 C   0  0  0  0  0  2  0  0  0  0  0  0
  187.8120  178.1100  141.8010 C   0  0  0  0  0  3  0  0  0  0  0  0
  187.7570  177.7430  144.1760 C   0  0  0  0  0  0  0  0  0  0  0  0
  188.4940  177.8380  142.9940 C   0  0  0  0  0  3  0  0  0  0  0  0
  185.9090  177.8270  145.5790 C   0  0  0  0  0  3  0  0  0  0  0  0
  187.0920  177.6210  146.4290 N   0  0  0  0  0  0  0  0  0  0  0  0
  185.6890  178.2060  143.0120 C   0  0  0  0  0  0  0  0  0  0  0  0
  186.4190  178.2890  141.8090 C   0  0  0  0  0  3  0  0  0  0  0  0
  188.2650  177.4940  145.5470 C   0  0  1  0  0  3  0  0  0  0  0  0
  186.4070  177.9350  144.1920 C   0  0  0  0  0  0  0  0  0  0  0  0
  184.2260  178.4100  142.9950 C   0  0  0  0  0  0  0  0  0  0  0  0
  183.6630  179.0410  143.9300 O   0  0  0  0  0  1  0  0  0  0  0  0
  183.4470  177.9170  141.9540 O   0  0  0  0  0  0  0  0  0  0  0  0
  191.8800  174.9910  147.2620 O   0  0  0  0  0  0  0  0  0  0  0  0
  193.7020  174.2850  145.7880 C   0  0  0  0  0  3  0  0  0  0  0  0
  194.8420  174.6010  145.0430 C   0  0  0  0  0  0  0  0  0  0  0  0
  195.3090  175.9250  145.0120 C   0  0  0  0  0  0  0  0  0  0  0  0
  194.6400  176.9160  145.7370 C   0  0  0  0  0  0  0  0  0  0  0  0
  195.0860  178.1970  145.7150 F   0  0  0  0  0  0  0  0  0  0  0  0
  196.4080  176.2500  144.2840 F   0  0  0  0  0  0  0  0  0  0  0  0
  193.0260  175.2800  146.5120 C   0  0  0  0  0  0  0  0  0  0  0  0
  193.5020  176.5920  146.4830 C   0  0  0  0  0  3  0  0  0  0  0  0
  195.5350  173.5290  144.2660 C   0  0  0  0  0  2  0  0  0  0  0  0
  196.2470  172.5900  145.1850 C   0  0  0  0  0  0  0  0  0  0  0  0
  197.0530  173.0270  145.9930 O   0  0  0  0  0  0  0  0  0  0  0  0
  194.7080  170.8790  145.7520 O   0  0  0  0  0  1  0  0  0  0  0  0
  195.9370  171.1260  145.1400 C   0  0  2  0  0  3  0  0  0  0  0  0
  197.0250  170.3290  145.8320 C   0  0  0  0  0  1  0  0  0  0  0  0
  1  3  1  1  0  0  0
  1  2  1  0  0  0  0
  2  5  1  0  0  0  0
  3  4  1  0  0  0  0
  4 18  1  6  0  0  0
  4  5  1  0  0  0  0
  6 12  2  0  0  0  0
  6  8  1  0  0  0  0
  7 14  1  0  0  0  0
  8  7  2  0  0  0  0
  9 10  2  0  0  0  0
 11 14  2  0  0  0  0
 12 11  1  0  0  0  0
 13  7  1  6  0  0  0
 13  1  1  0  0  0  0
 13 10  1  0  0  0  0
 14  9  1  0  0  0  0
 15 11  1  0  0  0  0
 15 16  1  0  0  0  0
 17 15  2  0  0  0  0
 19 25  1  0  0  0  0
 20 19  2  0  0  0  0
 21 20  1  0  0  0  0
 21 22  2  0  0  0  0
 22 26  1  0  0  0  0
 23 22  1  0  0  0  0
 24 21  1  0  0  0  0
 25 18  1  0  0  0  0
 26 25  2  0  0  0  0
 27 20  1  0  0  0  0
 27 28  1  0  0  0  0
 28 29  2  0  0  0  0
 31 28  1  0  0  0  0
 31 30  1  0  0  0  0
 31 32  1  1  0  0  0
M  END
>  <MODEL>
5

>  <REMARK>
 VINA RESULT:      -7.5      3.493      9.339
  Name = 
  7 active torsions:
  status: ('A' for Active; 'I' for Inactive)
    1  A    between atoms: C_1  and  C_17
    2  A    between atoms: C_7  and  C_12
    3  A    between atoms: C_7  and  C_18
    4  A    between atoms: C_10  and  C_12
    5  A    between atoms: O_13  and  C_25
    6  A    between atoms: O_13  and  C_31
    7  A    between atoms: C_14  and  C_23
                            x       y       z     vdW  Elec       q    Type
                         _______ _______ _______ _____ _____    ______ ____

>  <TORSDO>
F 7

$$$$
=
 OpenBabel11062420373D

 32 35  0  0  1  0  0  0  0  0999 V2000
  189.8300  176.3990  143.2830 C   0  0  2  0  0  3  0  0  0  0  0  0
  188.9420  175.4060  142.6800 N   0  0  0  0  0  2  0  0  0  0  0  0
  189.3710  177.7780  142.8390 C   0  0  0  0  0  2  0  0  0  0  0  0
  188.3720  177.5250  141.7430 C   0  0  1  0  0  3  0  0  0  0  0  0
  187.8620  176.1390  142.0350 C   0  0  0  0  0  2  0  0  0  0  0  0
  193.4140  176.5360  145.9970 C   0  0  0  0  0  3  0  0  0  0  0  0
  192.1730  175.9610  144.0210 C   0  0  0  0  0  0  0  0  0  0  0  0
  192.5240  176.9110  144.9830 C   0  0  0  0  0  3  0  0  0  0  0  0
  192.1920  173.9420  142.8740 C   0  0  0  0  0  3  0  0  0  0  0  0
  191.3600  174.8760  142.0990 N   0  0  0  0  0  0  0  0  0  0  0  0
  193.5920  174.2920  145.0420 C   0  0  0  0  0  0  0  0  0  0  0  0
  193.9420  175.2350  146.0290 C   0  0  0  0  0  3  0  0  0  0  0  0
  191.2790  176.1400  142.8500 C   0  0  1  0  0  3  0  0  0  0  0  0
  192.6980  174.7030  144.0360 C   0  0  0  0  0  0  0  0  0  0  0  0
  194.1710  172.9330  145.0910 C   0  0  0  0  0  0  0  0  0  0  0  0
  193.4270  171.9340  145.2870 O   0  0  0  0  0  1  0  0  0  0  0  0
  195.5360  172.7300  144.9200 O   0  0  0  0  0  0  0  0  0  0  0  0
  187.3030  178.4620  141.8160 O   0  0  0  0  0  0  0  0  0  0  0  0
  186.8680  178.4810  144.2250 C   0  0  0  0  0  3  0  0  0  0  0  0
  185.9600  178.5530  145.2860 C   0  0  0  0  0  0  0  0  0  0  0  0
  184.5870  178.6820  145.0210 C   0  0  0  0  0  0  0  0  0  0  0  0
  184.1350  178.7240  143.6980 C   0  0  0  0  0  0  0  0  0  0  0  0
  182.8100  178.8470  143.4340 F   0  0  0  0  0  0  0  0  0  0  0  0
  183.6950  178.7660  146.0410 F   0  0  0  0  0  0  0  0  0  0  0  0
  186.4160  178.5280  142.8960 C   0  0  0  0  0  0  0  0  0  0  0  0
  185.0470  178.6480  142.6420 C   0  0  0  0  0  3  0  0  0  0  0  0
  186.4660  178.5180  146.6920 C   0  0  0  0  0  2  0  0  0  0  0  0
  186.8360  177.1240  147.0830 C   0  0  0  0  0  0  0  0  0  0  0  0
  186.0700  176.4640  147.7690 O   0  0  0  0  0  0  0  0  0  0  0  0
  188.3280  175.2860  147.1930 O   0  0  0  0  0  1  0  0  0  0  0  0
  188.1210  176.5300  146.5970 C   0  0  2  0  0  3  0  0  0  0  0  0
  189.2860  177.4490  146.9110 C   0  0  0  0  0  1  0  0  0  0  0  0
  1  3  1  6  0  0  0
  2  1  1  0  0  0  0
  4 18  1  1  0  0  0
  4  5  1  0  0  0  0
  4  3  1  0  0  0  0
  5  2  1  0  0  0  0
  6 12  1  0  0  0  0
  7 14  2  0  0  0  0
  7  8  1  0  0  0  0
  8  6  2  0  0  0  0
  9 14  1  0  0  0  0
 10  9  2  0  0  0  0
 11 15  1  0  0  0  0
 11 12  2  0  0  0  0
 13 10  1  6  0  0  0
 13  1  1  0  0  0  0
 13  7  1  0  0  0  0
 14 11  1  0  0  0  0
 15 16  1  0  0  0  0
 17 15  2  0  0  0  0
 18 25  1  0  0  0  0
 19 20  1  0  0  0  0
 20 27  1  0  0  0  0
 21 20  2  0  0  0  0
 21 24  1  0  0  0  0
 22 21  1  0  0  0  0
 23 22  1  0  0  0  0
 25 19  2  0  0  0  0
 26 25  1  0  0  0  0
 26 22  2  0  0  0  0
 27 28  1  0  0  0  0
 28 29  2  0  0  0  0
 31 32  1  1  0  0  0
 31 28  1  0  0  0  0
 31 30  1  0  0  0  0
M  END
>  <MODEL>
6

>  <REMARK>
 VINA RESULT:      -7.5      1.966      4.057
  Name = 
  7 active torsions:
  status: ('A' for Active; 'I' for Inactive)
    1  A    between atoms: C_1  and  C_17
    2  A    between atoms: C_7  and  C_12
    3  A    between atoms: C_7  and  C_18
    4  A    between atoms: C_10  and  C_12
    5  A    between atoms: O_13  and  C_25
    6  A    between atoms: O_13  and  C_31
    7  A    between atoms: C_14  and  C_23
                            x       y       z     vdW  Elec       q    Type
                         _______ _______ _______ _____ _____    ______ ____

>  <TORSDO>
F 7

$$$$
=
 OpenBabel11062420373D

 32 35  0  0  1  0  0  0  0  0999 V2000
  190.0120  176.7280  145.7800 C   0  0  2  0  0  3  0  0  0  0  0  0
  190.8550  177.4220  144.8060 N   0  0  0  0  0  2  0  0  0  0  0  0
  190.7840  175.5290  146.3050 C   0  0  0  0  0  2  0  0  0  0  0  0
  191.9760  175.4000  145.3960 C   0  0  1  0  0  3  0  0  0  0  0  0
  192.1670  176.7910  144.8540 C   0  0  0  0  0  2  0  0  0  0  0  0
  185.9110  177.2560  147.5490 C   0  0  0  0  0  3  0  0  0  0  0  0
  187.5220  176.8700  145.8070 C   0  0  0  0  0  0  0  0  0  0  0  0
  187.0730  176.6140  147.1040 C   0  0  0  0  0  3  0  0  0  0  0  0
  187.5160  177.7410  143.6540 C   0  0  0  0  0  3  0  0  0  0  0  0
  188.6380  176.7940  143.7380 N   0  0  0  0  0  0  0  0  0  0  0  0
  185.6720  178.3690  145.3830 C   0  0  0  0  0  0  0  0  0  0  0  0
  185.2170  178.1310  146.6960 C   0  0  0  0  0  3  0  0  0  0  0  0
  188.7000  176.2870  145.1200 C   0  0  1  0  0  3  0  0  0  0  0  0
  186.8410  177.7030  144.9690 C   0  0  0  0  0  0  0  0  0  0  0  0
  184.9180  179.2840  144.5020 C   0  0  0  0  0  0  0  0  0  0  0  0
  183.7400  179.0020  144.1540 O   0  0  0  0  0  1  0  0  0  0  0  0
  185.4860  180.4690  144.0470 O   0  0  0  0  0  0  0  0  0  0  0  0
  193.1260  175.0040  146.1350 O   0  0  0  0  0  0  0  0  0  0  0  0
  195.3050  174.9130  145.0230 C   0  0  0  0  0  3  0  0  0  0  0  0
  196.3480  174.1610  144.4740 C   0  0  0  0  0  0  0  0  0  0  0  0
  196.2770  172.7590  144.4840 C   0  0  0  0  0  0  0  0  0  0  0  0
  195.1580  172.1220  145.0300 C   0  0  0  0  0  0  0  0  0  0  0  0
  195.0800  170.7690  145.0420 F   0  0  0  0  0  0  0  0  0  0  0  0
  197.2880  172.0150  143.9660 F   0  0  0  0  0  0  0  0  0  0  0  0
  194.1820  174.2760  145.5750 C   0  0  0  0  0  0  0  0  0  0  0  0
  194.1160  172.8800  145.5740 C   0  0  0  0  0  3  0  0  0  0  0  0
  197.5400  174.8610  143.9060 C   0  0  0  0  0  2  0  0  0  0  0  0
  197.1180  175.9360  142.9590 C   0  0  0  0  0  0  0  0  0  0  0  0
  197.2830  177.1080  143.2600 O   0  0  0  0  0  0  0  0  0  0  0  0
  197.4750  175.7820  140.6200 O   0  0  0  0  0  1  0  0  0  0  0  0
  196.5350  175.5700  141.6290 C   0  0  2  0  0  3  0  0  0  0  0  0
  195.2890  176.3870  141.3490 C   0  0  0  0  0  1  0  0  0  0  0  0
  1  3  1  6  0  0  0
  2  5  1  0  0  0  0
  2  1  1  0  0  0  0
  4 18  1  1  0  0  0
  4  3  1  0  0  0  0
  5  4  1  0  0  0  0
  7  8  2  0  0  0  0
  8  6  1  0  0  0  0
  9 10  2  0  0  0  0
  9 14  1  0  0  0  0
 11 12  1  0  0  0  0
 12  6  2  0  0  0  0
 13 10  1  6  0  0  0
 13  1  1  0  0  0  0
 13  7  1  0  0  0  0
 14 11  2  0  0  0  0
 14  7  1  0  0  0  0
 15 11  1  0  0  0  0
 16 15  1  0  0  0  0
 17 15  2  0  0  0  0
 19 25  1  0  0  0  0
 20 21  1  0  0  0  0
 20 19  2  0  0  0  0
 21 22  2  0  0  0  0
 22 23  1  0  0  0  0
 22 26  1  0  0  0  0
 24 21  1  0  0  0  0
 25 18  1  0  0  0  0
 26 25  2  0  0  0  0
 27 20  1  0  0  0  0
 28 29  2  0  0  0  0
 28 27  1  0  0  0  0
 30 31  1  0  0  0  0
 31 32  1  6  0  0  0
 31 28  1  0  0  0  0
M  END
>  <MODEL>
7

>  <REMARK>
 VINA RESULT:      -7.4      4.455      9.548
  Name = 
  7 active torsions:
  status: ('A' for Active; 'I' for Inactive)
    1  A    between atoms: C_1  and  C_17
    2  A    between atoms: C_7  and  C_12
    3  A    between atoms: C_7  and  C_18
    4  A    between atoms: C_10  and  C_12
    5  A    between atoms: O_13  and  C_25
    6  A    between atoms: O_13  and  C_31
    7  A    between atoms: C_14  and  C_23
                            x       y       z     vdW  Elec       q    Type
                         _______ _______ _______ _____ _____    ______ ____

>  <TORSDO>
F 7

$$$$
=
 OpenBabel11062420373D

 32 35  0  0  1  0  0  0  0  0999 V2000
  190.8550  174.1850  144.9670 C   0  0  2  0  0  3  0  0  0  0  0  0
  191.3640  173.4510  143.8080 N   0  0  0  0  0  2  0  0  0  0  0  0
  189.5870  174.9100  144.5490 C   0  0  0  0  0  2  0  0  0  0  0  0
  189.5450  174.7950  143.0490 C   0  0  1  0  0  3  0  0  0  0  0  0
  190.3590  173.5630  142.7600 C   0  0  0  0  0  2  0  0  0  0  0  0
  195.2690  173.3640  145.2210 C   0  0  0  0  0  3  0  0  0  0  0  0
  193.2860  174.7190  145.1420 C   0  0  0  0  0  0  0  0  0  0  0  0
  193.9540  173.5990  145.6410 C   0  0  0  0  0  3  0  0  0  0  0  0
  192.9690  176.6990  143.9710 C   0  0  0  0  0  3  0  0  0  0  0  0
  191.7570  176.4680  144.7720 N   0  0  0  0  0  0  0  0  0  0  0  0
  195.2120  175.3820  143.8400 C   0  0  0  0  0  0  0  0  0  0  0  0
  195.8930  174.2470  144.3240 C   0  0  0  0  0  3  0  0  0  0  0  0
  191.9130  175.1780  145.4660 C   0  0  1  0  0  3  0  0  0  0  0  0
  193.8940  175.5890  144.2860 C   0  0  0  0  0  0  0  0  0  0  0  0
  195.8950  176.3010  142.9060 C   0  0  0  0  0  0  0  0  0  0  0  0
  196.8360  177.0340  143.3120 O   0  0  0  0  0  1  0  0  0  0  0  0
  195.5180  176.3720  141.5690 O   0  0  0  0  0  0  0  0  0  0  0  0
  188.2060  174.6090  142.6000 O   0  0  0  0  0  0  0  0  0  0  0  0
  186.4150  176.2170  143.0450 C   0  0  0  0  0  3  0  0  0  0  0  0
  185.6080  177.2730  142.6120 C   0  0  0  0  0  0  0  0  0  0  0  0
  185.7730  177.7910  141.3170 C   0  0  0  0  0  0  0  0  0  0  0  0
  186.7340  177.2390  140.4640 C   0  0  0  0  0  0  0  0  0  0  0  0
  186.8980  177.7320  139.2120 F   0  0  0  0  0  0  0  0  0  0  0  0
  185.0060  178.8250  140.8870 F   0  0  0  0  0  0  0  0  0  0  0  0
  187.3830  175.6640  142.1910 C   0  0  0  0  0  0  0  0  0  0  0  0
  187.5350  176.1800  140.9020 C   0  0  0  0  0  3  0  0  0  0  0  0
  184.5950  177.8560  143.5440 C   0  0  0  0  0  2  0  0  0  0  0  0
  185.2670  178.5430  144.6880 C   0  0  0  0  0  0  0  0  0  0  0  0
  186.0370  179.4670  144.4720 O   0  0  0  0  0  0  0  0  0  0  0  0
  185.2770  179.1540  146.9780 O   0  0  0  0  0  1  0  0  0  0  0  0
  184.9590  178.1250  146.0920 C   0  0  2  0  0  3  0  0  0  0  0  0
  185.7360  176.8750  146.4590 C   0  0  0  0  0  1  0  0  0  0  0  0
  1  3  1  6  0  0  0
  1 13  1  0  0  0  0
  2  1  1  0  0  0  0
  4 18  1  1  0  0  0
  4  3  1  0  0  0  0
  5  4  1  0  0  0  0
  5  2  1  0  0  0  0
  6  8  1  0  0  0  0
  7 13  1  0  0  0  0
  7  8  2  0  0  0  0
  9 14  1  0  0  0  0
  9 10  2  0  0  0  0
 11 14  2  0  0  0  0
 11 12  1  0  0  0  0
 12  6  2  0  0  0  0
 13 10  1  6  0  0  0
 14  7  1  0  0  0  0
 15 16  1  0  0  0  0
 15 11  1  0  0  0  0
 17 15  2  0  0  0  0
 20 19  1  0  0  0  0
 20 27  1  0  0  0  0
 21 20  2  0  0  0  0
 22 26  2  0  0  0  0
 22 21  1  0  0  0  0
 23 22  1  0  0  0  0
 24 21  1  0  0  0  0
 25 18  1  0  0  0  0
 25 19  2  0  0  0  0
 26 25  1  0  0  0  0
 27 28  1  0  0  0  0
 28 31  1  0  0  0  0
 29 28  2  0  0  0  0
 31 32  1  1  0  0  0
 31 30  1  0  0  0  0
M  END
>  <MODEL>
8

>  <REMARK>
 VINA RESULT:      -7.3      2.977      4.594
  Name = 
  7 active torsions:
  status: ('A' for Active; 'I' for Inactive)
    1  A    between atoms: C_1  and  C_17
    2  A    between atoms: C_7  and  C_12
    3  A    between atoms: C_7  and  C_18
    4  A    between atoms: C_10  and  C_12
    5  A    between atoms: O_13  and  C_25
    6  A    between atoms: O_13  and  C_31
    7  A    between atoms: C_14  and  C_23
                            x       y       z     vdW  Elec       q    Type
                         _______ _______ _______ _____ _____    ______ ____

>  <TORSDO>
F 7

$$$$
=
 OpenBabel11062420373D

 32 35  0  0  1  0  0  0  0  0999 V2000
  190.1110  177.0350  145.4160 C   0  0  2  0  0  3  0  0  0  0  0  0
  190.8370  177.6980  144.3320 N   0  0  0  0  0  2  0  0  0  0  0  0
  191.0530  176.0450  146.0800 C   0  0  0  0  0  2  0  0  0  0  0  0
  192.2450  175.9610  145.1650 C   0  0  1  0  0  3  0  0  0  0  0  0
  192.2270  177.2750  144.4310 C   0  0  0  0  0  2  0  0  0  0  0  0
  186.0100  177.1390  147.2590 C   0  0  0  0  0  3  0  0  0  0  0  0
  187.6300  176.7970  145.5160 C   0  0  0  0  0  0  0  0  0  0  0  0
  187.2500  176.6330  146.8500 C   0  0  0  0  0  3  0  0  0  0  0  0
  187.4490  177.3900  143.2790 C   0  0  0  0  0  3  0  0  0  0  0  0
  188.7080  176.6430  143.4310 N   0  0  0  0  0  0  0  0  0  0  0  0
  185.5620  177.9320  144.9890 C   0  0  0  0  0  0  0  0  0  0  0  0
  185.1730  177.7880  146.3360 C   0  0  0  0  0  3  0  0  0  0  0  0
  188.8720  176.3220  144.8590 C   0  0  1  0  0  3  0  0  0  0  0  0
  186.8120  177.4080  144.6120 C   0  0  0  0  0  0  0  0  0  0  0  0
  184.6570  178.6080  144.0350 C   0  0  0  0  0  0  0  0  0  0  0  0
  184.0590  177.9420  143.1490 O   0  0  0  0  0  0  0  0  0  0  0  0
  184.4470  179.9810  144.1000 O   0  0  0  0  0  1  0  0  0  0  0  0
  193.4460  175.8430  145.9200 O   0  0  0  0  0  0  0  0  0  0  0  0
  193.8550  173.4480  145.6240 C   0  0  0  0  0  3  0  0  0  0  0  0
  194.7550  172.3850  145.4990 C   0  0  0  0  0  0  0  0  0  0  0  0
  196.1360  172.6320  145.5380 C   0  0  0  0  0  0  0  0  0  0  0  0
  196.6050  173.9380  145.7140 C   0  0  0  0  0  0  0  0  0  0  0  0
  197.9370  174.1850  145.7540 F   0  0  0  0  0  0  0  0  0  0  0  0
  197.0220  171.6120  145.4050 F   0  0  0  0  0  0  0  0  0  0  0  0
  194.3240  174.7600  145.7970 C   0  0  0  0  0  0  0  0  0  0  0  0
  195.7000  174.9960  145.8420 C   0  0  0  0  0  3  0  0  0  0  0  0
  194.2330  170.9980  145.3000 C   0  0  0  0  0  2  0  0  0  0  0  0
  193.7590  170.8120  143.8960 C   0  0  0  0  0  0  0  0  0  0  0  0
  194.5280  171.0040  142.9660 O   0  0  0  0  0  0  0  0  0  0  0  0
  192.2120  169.9940  142.2970 O   0  0  0  0  0  1  0  0  0  0  0  0
  192.3590  170.3480  143.6380 C   0  0  2  0  0  3  0  0  0  0  0  0
  191.3630  171.4350  143.9940 C   0  0  0  0  0  1  0  0  0  0  0  0
  1  3  1  6  0  0  0
  2  5  1  0  0  0  0
  2  1  1  0  0  0  0
  4 18  1  1  0  0  0
  4  3  1  0  0  0  0
  5  4  1  0  0  0  0
  7  8  2  0  0  0  0
  8  6  1  0  0  0  0
  9 10  2  0  0  0  0
  9 14  1  0  0  0  0
 11 12  1  0  0  0  0
 12  6  2  0  0  0  0
 13 10  1  6  0  0  0
 13  1  1  0  0  0  0
 13  7  1  0  0  0  0
 14 11  2  0  0  0  0
 14  7  1  0  0  0  0
 15 17  1  0  0  0  0
 15 11  1  0  0  0  0
 16 15  2  0  0  0  0
 19 25  1  0  0  0  0
 20 21  1  0  0  0  0
 20 19  2  0  0  0  0
 21 22  2  0  0  0  0
 22 23  1  0  0  0  0
 22 26  1  0  0  0  0
 24 21  1  0  0  0  0
 25 26  2  0  0  0  0
 25 18  1  0  0  0  0
 27 20  1  0  0  0  0
 28 27  1  0  0  0  0
 29 28  2  0  0  0  0
 30 31  1  0  0  0  0
 31 28  1  0  0  0  0
 31 32  1  6  0  0  0
M  END
>  <MODEL>
9

>  <REMARK>
 VINA RESULT:      -7.2      4.053      9.374
  Name = 
  7 active torsions:
  status: ('A' for Active; 'I' for Inactive)
    1  A    between atoms: C_1  and  C_17
    2  A    between atoms: C_7  and  C_12
    3  A    between atoms: C_7  and  C_18
    4  A    between atoms: C_10  and  C_12
    5  A    between atoms: O_13  and  C_25
    6  A    between atoms: O_13  and  C_31
    7  A    between atoms: C_14  and  C_23
                            x       y       z     vdW  Elec       q    Type
                         _______ _______ _______ _____ _____    ______ ____

>  <TORSDO>
F 7

$$$$
