=
 OpenBabel11062420163D

 25 25  0  0  1  0  0  0  0  0999 V2000
  186.7620  177.9800  146.9350 C   0  0  0  0  0  0  0  0  0  0  0  0
  187.9650  177.2050  146.9430 N   0  0  0  0  0  2  0  0  0  0  0  0
  186.5180  178.7440  147.9060 O   0  0  0  0  0  0  0  0  0  0  0  0
  186.3150  178.7410  144.7200 O   0  0  0  0  0  0  0  0  0  0  0  0
  184.4440  178.3990  146.1320 C   0  0  0  0  0  2  0  0  0  0  0  0
  185.1820  179.2370  144.0430 C   0  0  2  0  0  3  0  0  0  0  0  0
  185.8310  177.9360  145.7640 C   0  0  2  0  0  3  0  0  0  0  0  0
  183.9250  178.9300  144.8360 C   0  0  0  0  0  2  0  0  0  0  0  0
  185.1010  178.6620  142.6330 C   0  0  0  0  0  2  0  0  0  0  0  0
  186.4190  178.6220  142.0170 N   0  0  0  0  0  2  0  0  0  0  0  0
  186.4970  177.3970  141.2380 C   0  0  1  0  0  3  0  0  0  0  0  0
  186.4860  177.7160  139.8790 O   0  0  0  0  0  1  0  0  0  0  0  0
  188.6290  177.4750  142.3200 O   0  0  0  0  0  1  0  0  0  0  0  0
  187.4590  175.4130  142.4070 C   0  0  0  0  0  1  0  0  0  0  0  0
  187.7770  176.6480  141.5850 C   0  0  1  0  0  3  0  0  0  0  0  0
  188.3500  176.3140  145.8560 C   0  0  0  0  0  2  0  0  0  0  0  0
  189.8340  176.3550  145.6330 C   0  0  0  0  0  0  0  0  0  0  0  0
  190.3470  177.3960  145.2490 O   0  0  0  0  0  0  0  0  0  0  0  0
  190.6890  175.1230  145.8250 C   0  0  0  0  0  0  0  0  0  0  0  0
  191.4260  174.8930  144.6610 O   0  0  0  0  0  1  0  0  0  0  0  0
  189.8780  174.0090  146.0650 O   0  0  0  0  0  1  0  0  0  0  0  0
  191.6400  175.3190  146.9740 C   0  0  0  0  0  0  0  0  0  0  0  0
  191.2230  175.2670  148.1620 O   0  0  0  0  0  0  0  0  0  0  0  0
  193.5420  176.7430  146.8690 O   0  0  0  0  0  1  0  0  0  0  0  0
  192.9950  175.5270  146.7250 O   0  0  0  0  0  0  0  0  0  0  0  0
  1  2  1  0  0  0  0
  1  3  2  0  0  0  0
  4  7  1  0  0  0  0
  6  9  1  6  0  0  0
  6  4  1  0  0  0  0
  6  8  1  0  0  0  0
  7  5  1  0  0  0  0
  7  1  1  1  0  0  0
  8  5  1  0  0  0  0
 10  9  1  0  0  0  0
 11 12  1  6  0  0  0
 11 15  1  0  0  0  0
 11 10  1  0  0  0  0
 15 13  1  0  0  0  0
 15 14  1  1  0  0  0
 16  2  1  0  0  0  0
 17 19  1  0  0  0  0
 17 16  1  0  0  0  0
 18 17  2  0  0  0  0
 19 21  1  0  0  0  0
 19 22  1  0  0  0  0
 20 19  1  0  0  0  0
 22 23  2  0  0  0  0
 25 24  1  0  0  0  0
 25 22  1  0  0  0  0
M  END
>  <MODEL>
1

>  <REMARK>
 VINA RESULT:      -5.8      0.000      0.000
  Name = 
  10 active torsions:
  status: ('A' for Active; 'I' for Inactive)
    1  A    between atoms: C_3  and  O_9
    2  A    between atoms: C_3  and  C_14
    3  A    between atoms: C_4  and  C_11
    4  A    between atoms: C_4  and  N_17
    5  A    between atoms: C_7  and  C_23
    6  A    between atoms: C_8  and  C_18
    7  A    between atoms: C_8  and  N_20
    8  A    between atoms: C_13  and  N_17
    9  A    between atoms: C_13  and  C_19
   10  A    between atoms: C_14  and  C_18
                            x       y       z     vdW  Elec       q    Type
                         _______ _______ _______ _____ _____    ______ ____

>  <TORSDO>
F 10

$$$$
=
 OpenBabel11062420163D

 25 25  0  0  1  0  0  0  0  0999 V2000
  188.8690  175.3560  147.0750 C   0  0  0  0  0  0  0  0  0  0  0  0
  187.7260  176.1910  146.8670 N   0  0  0  0  0  2  0  0  0  0  0  0
  188.7650  174.3470  147.8230 O   0  0  0  0  0  0  0  0  0  0  0  0
  190.5200  174.5450  145.5580 O   0  0  0  0  0  0  0  0  0  0  0  0
  191.2810  175.9140  147.3350 C   0  0  0  0  0  2  0  0  0  0  0  0
  191.9290  174.5180  145.5350 C   0  0  2  0  0  3  0  0  0  0  0  0
  190.1590  175.6340  146.3680 C   0  0  2  0  0  3  0  0  0  0  0  0
  192.4870  175.4800  146.5670 C   0  0  0  0  0  2  0  0  0  0  0  0
  192.4530  174.8390  144.1390 C   0  0  0  0  0  2  0  0  0  0  0  0
  192.6140  176.2740  143.9670 N   0  0  0  0  0  2  0  0  0  0  0  0
  191.6920  176.6930  142.9240 C   0  0  1  0  0  3  0  0  0  0  0  0
  191.0320  175.5710  142.4180 O   0  0  0  0  0  1  0  0  0  0  0  0
  191.2880  178.9140  143.7140 O   0  0  0  0  0  1  0  0  0  0  0  0
  189.5200  177.8580  142.5360 C   0  0  0  0  0  1  0  0  0  0  0  0
  190.6800  177.6760  143.4970 C   0  0  1  0  0  3  0  0  0  0  0  0
  187.7370  177.3620  146.0010 C   0  0  0  0  0  2  0  0  0  0  0  0
  186.4480  177.4750  145.2400 C   0  0  0  0  0  0  0  0  0  0  0  0
  186.3040  176.8220  144.2160 O   0  0  0  0  0  0  0  0  0  0  0  0
  185.3530  178.4160  145.6900 C   0  0  0  0  0  0  0  0  0  0  0  0
  185.8640  179.2820  146.6590 O   0  0  0  0  0  1  0  0  0  0  0  0
  184.2980  177.6910  146.2530 O   0  0  0  0  0  1  0  0  0  0  0  0
  184.8510  179.2280  144.5270 C   0  0  0  0  0  0  0  0  0  0  0  0
  185.5120  180.2160  144.1070 O   0  0  0  0  0  0  0  0  0  0  0  0
  183.6850  178.3350  142.6570 O   0  0  0  0  0  1  0  0  0  0  0  0
  183.6670  178.8660  143.8880 O   0  0  0  0  0  0  0  0  0  0  0  0
  1  3  2  0  0  0  0
  2  1  1  0  0  0  0
  4  7  1  0  0  0  0
  6  9  1  6  0  0  0
  6  4  1  0  0  0  0
  6  8  1  0  0  0  0
  7  1  1  1  0  0  0
  7  5  1  0  0  0  0
  8  5  1  0  0  0  0
 10  9  1  0  0  0  0
 11 12  1  1  0  0  0
 11 15  1  0  0  0  0
 11 10  1  0  0  0  0
 15 14  1  6  0  0  0
 15 13  1  0  0  0  0
 16  2  1  0  0  0  0
 17 19  1  0  0  0  0
 17 16  1  0  0  0  0
 18 17  2  0  0  0  0
 19 21  1  0  0  0  0
 19 20  1  0  0  0  0
 22 19  1  0  0  0  0
 23 22  2  0  0  0  0
 24 25  1  0  0  0  0
 25 22  1  0  0  0  0
M  END
>  <MODEL>
2

>  <REMARK>
 VINA RESULT:      -5.7      2.386      6.511
  Name = 
  10 active torsions:
  status: ('A' for Active; 'I' for Inactive)
    1  A    between atoms: C_3  and  O_9
    2  A    between atoms: C_3  and  C_14
    3  A    between atoms: C_4  and  C_11
    4  A    between atoms: C_4  and  N_17
    5  A    between atoms: C_7  and  C_23
    6  A    between atoms: C_8  and  C_18
    7  A    between atoms: C_8  and  N_20
    8  A    between atoms: C_13  and  N_17
    9  A    between atoms: C_13  and  C_19
   10  A    between atoms: C_14  and  C_18
                            x       y       z     vdW  Elec       q    Type
                         _______ _______ _______ _____ _____    ______ ____

>  <TORSDO>
F 10

$$$$
=
 OpenBabel11062420163D

 25 25  0  0  1  0  0  0  0  0999 V2000
  186.6760  177.3930  141.0160 C   0  0  0  0  0  0  0  0  0  0  0  0
  185.3990  177.9120  141.3990 N   0  0  0  0  0  2  0  0  0  0  0  0
  187.1320  177.6650  139.8740 O   0  0  0  0  0  0  0  0  0  0  0  0
  188.5420  177.3620  142.4990 O   0  0  0  0  0  0  0  0  0  0  0  0
  188.0770  175.3580  141.3250 C   0  0  0  0  0  2  0  0  0  0  0  0
  189.6080  176.4730  142.7470 C   0  0  2  0  0  3  0  0  0  0  0  0
  187.4950  176.5880  141.9770 C   0  0  2  0  0  3  0  0  0  0  0  0
  189.3110  175.1190  142.1310 C   0  0  0  0  0  2  0  0  0  0  0  0
  189.8760  176.3540  144.2440 C   0  0  0  0  0  2  0  0  0  0  0  0
  189.0440  175.3180  144.8350 N   0  0  0  0  0  2  0  0  0  0  0  0
  189.0780  175.5030  146.2760 C   0  0  1  0  0  3  0  0  0  0  0  0
  189.2220  174.2590  146.8940 O   0  0  0  0  0  1  0  0  0  0  0  0
  189.7700  177.5630  147.2750 O   0  0  0  0  0  1  0  0  0  0  0  0
  191.1870  175.6880  147.5970 C   0  0  0  0  0  1  0  0  0  0  0  0
  190.2440  176.4080  146.6510 C   0  0  1  0  0  3  0  0  0  0  0  0
  184.7990  177.6770  142.7060 C   0  0  0  0  0  2  0  0  0  0  0  0
  185.4110  178.5740  143.7430 C   0  0  0  0  0  0  0  0  0  0  0  0
  185.5930  179.7530  143.4740 O   0  0  0  0  0  0  0  0  0  0  0  0
  185.8520  178.0340  145.0840 C   0  0  0  0  0  0  0  0  0  0  0  0
  187.1880  178.3800  145.3000 O   0  0  0  0  0  1  0  0  0  0  0  0
  185.7460  176.6400  145.0990 O   0  0  0  0  0  1  0  0  0  0  0  0
  185.0130  178.6220  146.1860 C   0  0  0  0  0  0  0  0  0  0  0  0
  183.7890  178.8580  145.9980 O   0  0  0  0  0  0  0  0  0  0  0  0
  185.9180  177.8700  148.2530 O   0  0  0  0  0  1  0  0  0  0  0  0
  185.5830  178.8750  147.4320 O   0  0  0  0  0  0  0  0  0  0  0  0
  1  2  1  0  0  0  0
  2 16  1  0  0  0  0
  3  1  2  0  0  0  0
  4  6  1  0  0  0  0
  5  7  1  0  0  0  0
  5  8  1  0  0  0  0
  6  9  1  1  0  0  0
  7  1  1  6  0  0  0
  7  4  1  0  0  0  0
  8  6  1  0  0  0  0
  9 10  1  0  0  0  0
 10 11  1  0  0  0  0
 11 15  1  0  0  0  0
 11 12  1  1  0  0  0
 15 13  1  0  0  0  0
 15 14  1  1  0  0  0
 16 17  1  0  0  0  0
 17 19  1  0  0  0  0
 18 17  2  0  0  0  0
 19 21  1  0  0  0  0
 19 20  1  0  0  0  0
 19 22  1  0  0  0  0
 22 25  1  0  0  0  0
 23 22  2  0  0  0  0
 25 24  1  0  0  0  0
M  END
>  <MODEL>
3

>  <REMARK>
 VINA RESULT:      -5.7      1.830      6.269
  Name = 
  10 active torsions:
  status: ('A' for Active; 'I' for Inactive)
    1  A    between atoms: C_3  and  O_9
    2  A    between atoms: C_3  and  C_14
    3  A    between atoms: C_4  and  C_11
    4  A    between atoms: C_4  and  N_17
    5  A    between atoms: C_7  and  C_23
    6  A    between atoms: C_8  and  C_18
    7  A    between atoms: C_8  and  N_20
    8  A    between atoms: C_13  and  N_17
    9  A    between atoms: C_13  and  C_19
   10  A    between atoms: C_14  and  C_18
                            x       y       z     vdW  Elec       q    Type
                         _______ _______ _______ _____ _____    ______ ____

>  <TORSDO>
F 10

$$$$
=
 OpenBabel11062420163D

 25 25  0  0  1  0  0  0  0  0999 V2000
  186.9690  178.0120  147.2310 C   0  0  0  0  0  0  0  0  0  0  0  0
  188.1660  177.2380  147.1100 N   0  0  0  0  0  2  0  0  0  0  0  0
  186.8410  178.7950  148.2100 O   0  0  0  0  0  0  0  0  0  0  0  0
  186.2080  178.8130  145.1180 O   0  0  0  0  0  0  0  0  0  0  0  0
  184.5490  178.3080  146.7310 C   0  0  0  0  0  2  0  0  0  0  0  0
  184.9730  179.2570  144.6030 C   0  0  2  0  0  3  0  0  0  0  0  0
  185.9050  177.9460  146.1800 C   0  0  2  0  0  3  0  0  0  0  0  0
  183.8440  178.8460  145.5290 C   0  0  0  0  0  2  0  0  0  0  0  0
  184.7540  178.7230  143.1910 C   0  0  0  0  0  2  0  0  0  0  0  0
  185.9880  178.7760  142.4240 N   0  0  0  0  0  2  0  0  0  0  0  0
  186.1030  177.5210  141.6990 C   0  0  1  0  0  3  0  0  0  0  0  0
  185.8160  177.7420  140.3510 O   0  0  0  0  0  1  0  0  0  0  0  0
  187.7860  176.0700  140.8120 O   0  0  0  0  0  1  0  0  0  0  0  0
  188.5290  178.0960  141.7990 C   0  0  0  0  0  1  0  0  0  0  0  0
  187.5140  176.9690  141.8460 C   0  0  1  0  0  3  0  0  0  0  0  0
  188.4210  176.3270  146.0020 C   0  0  0  0  0  2  0  0  0  0  0  0
  189.6720  176.7150  145.2690 C   0  0  0  0  0  0  0  0  0  0  0  0
  189.8430  177.8870  144.9670 O   0  0  0  0  0  0  0  0  0  0  0  0
  190.6920  175.6770  144.8570 C   0  0  0  0  0  0  0  0  0  0  0  0
  190.5920  174.5740  145.7070 O   0  0  0  0  0  1  0  0  0  0  0  0
  191.9830  176.2050  144.9620 O   0  0  0  0  0  1  0  0  0  0  0  0
  190.4380  175.2280  143.4430 C   0  0  0  0  0  0  0  0  0  0  0  0
  191.0670  175.7530  142.4850 O   0  0  0  0  0  0  0  0  0  0  0  0
  189.5530  173.5290  142.0360 O   0  0  0  0  0  1  0  0  0  0  0  0
  189.5280  174.2030  143.1940 O   0  0  0  0  0  0  0  0  0  0  0  0
  1  3  2  0  0  0  0
  2  1  1  0  0  0  0
  4  7  1  0  0  0  0
  6  9  1  6  0  0  0
  6  4  1  0  0  0  0
  6  8  1  0  0  0  0
  7  5  1  0  0  0  0
  7  1  1  1  0  0  0
  8  5  1  0  0  0  0
 10  9  1  0  0  0  0
 11 12  1  6  0  0  0
 11 15  1  0  0  0  0
 11 10  1  0  0  0  0
 13 15  1  0  0  0  0
 15 14  1  6  0  0  0
 16  2  1  0  0  0  0
 17 16  1  0  0  0  0
 18 17  2  0  0  0  0
 19 21  1  0  0  0  0
 19 17  1  0  0  0  0
 19 20  1  0  0  0  0
 22 19  1  0  0  0  0
 23 22  2  0  0  0  0
 24 25  1  0  0  0  0
 25 22  1  0  0  0  0
M  END
>  <MODEL>
4

>  <REMARK>
 VINA RESULT:      -5.7      1.368      2.486
  Name = 
  10 active torsions:
  status: ('A' for Active; 'I' for Inactive)
    1  A    between atoms: C_3  and  O_9
    2  A    between atoms: C_3  and  C_14
    3  A    between atoms: C_4  and  C_11
    4  A    between atoms: C_4  and  N_17
    5  A    between atoms: C_7  and  C_23
    6  A    between atoms: C_8  and  C_18
    7  A    between atoms: C_8  and  N_20
    8  A    between atoms: C_13  and  N_17
    9  A    between atoms: C_13  and  C_19
   10  A    between atoms: C_14  and  C_18
                            x       y       z     vdW  Elec       q    Type
                         _______ _______ _______ _____ _____    ______ ____

>  <TORSDO>
F 10

$$$$
=
 OpenBabel11062420163D

 25 25  0  0  1  0  0  0  0  0999 V2000
  186.7550  176.5810  147.0400 C   0  0  0  0  0  0  0  0  0  0  0  0
  188.0330  176.0100  146.7460 N   0  0  0  0  0  2  0  0  0  0  0  0
  186.3170  176.5320  148.2200 O   0  0  0  0  0  0  0  0  0  0  0  0
  186.5220  178.5480  145.7130 O   0  0  0  0  0  0  0  0  0  0  0  0
  184.5230  177.4600  146.3720 C   0  0  0  0  0  2  0  0  0  0  0  0
  185.4470  179.3820  145.3420 C   0  0  2  0  0  3  0  0  0  0  0  0
  185.9680  177.2850  145.9780 C   0  0  2  0  0  3  0  0  0  0  0  0
  184.1270  178.6850  145.6150 C   0  0  0  0  0  2  0  0  0  0  0  0
  185.5630  179.7920  143.8770 C   0  0  0  0  0  2  0  0  0  0  0  0
  184.8120  178.8820  143.0270 N   0  0  0  0  0  2  0  0  0  0  0  0
  185.7490  178.3000  142.0790 C   0  0  1  0  0  3  0  0  0  0  0  0
  185.9230  176.9480  142.3790 O   0  0  0  0  0  1  0  0  0  0  0  0
  185.7760  177.4860  139.8300 O   0  0  0  0  0  1  0  0  0  0  0  0
  183.7010  178.2900  140.6530 C   0  0  0  0  0  1  0  0  0  0  0  0
  185.2090  178.4520  140.6630 C   0  0  1  0  0  3  0  0  0  0  0  0
  188.6370  176.0400  145.4210 C   0  0  0  0  0  2  0  0  0  0  0  0
  189.9230  175.2650  145.4030 C   0  0  0  0  0  0  0  0  0  0  0  0
  189.8970  174.0680  145.6540 O   0  0  0  0  0  0  0  0  0  0  0  0
  191.2450  175.9460  145.1340 C   0  0  0  0  0  0  0  0  0  0  0  0
  191.0160  177.2940  144.8520 O   0  0  0  0  0  1  0  0  0  0  0  0
  191.8710  175.3600  144.0290 O   0  0  0  0  0  1  0  0  0  0  0  0
  192.1400  175.8470  146.3400 C   0  0  0  0  0  0  0  0  0  0  0  0
  193.0060  174.9350  146.4170 O   0  0  0  0  0  0  0  0  0  0  0  0
  191.1910  176.5960  148.3870 O   0  0  0  0  0  1  0  0  0  0  0  0
  192.0330  176.7870  147.3620 O   0  0  0  0  0  0  0  0  0  0  0  0
  1  3  2  0  0  0  0
  2  1  1  0  0  0  0
  4  7  1  0  0  0  0
  6  9  1  6  0  0  0
  6  8  1  0  0  0  0
  6  4  1  0  0  0  0
  7  5  1  0  0  0  0
  7  1  1  1  0  0  0
  8  5  1  0  0  0  0
 10  9  1  0  0  0  0
 11 12  1  1  0  0  0
 11 10  1  0  0  0  0
 13 15  1  0  0  0  0
 15 14  1  1  0  0  0
 15 11  1  0  0  0  0
 16  2  1  0  0  0  0
 17 16  1  0  0  0  0
 17 18  2  0  0  0  0
 19 17  1  0  0  0  0
 19 22  1  0  0  0  0
 20 19  1  0  0  0  0
 21 19  1  0  0  0  0
 22 23  2  0  0  0  0
 22 25  1  0  0  0  0
 25 24  1  0  0  0  0
M  END
>  <MODEL>
5

>  <REMARK>
 VINA RESULT:      -5.6      1.468      2.266
  Name = 
  10 active torsions:
  status: ('A' for Active; 'I' for Inactive)
    1  A    between atoms: C_3  and  O_9
    2  A    between atoms: C_3  and  C_14
    3  A    between atoms: C_4  and  C_11
    4  A    between atoms: C_4  and  N_17
    5  A    between atoms: C_7  and  C_23
    6  A    between atoms: C_8  and  C_18
    7  A    between atoms: C_8  and  N_20
    8  A    between atoms: C_13  and  N_17
    9  A    between atoms: C_13  and  C_19
   10  A    between atoms: C_14  and  C_18
                            x       y       z     vdW  Elec       q    Type
                         _______ _______ _______ _____ _____    ______ ____

>  <TORSDO>
F 10

$$$$
=
 OpenBabel11062420163D

 25 25  0  0  1  0  0  0  0  0999 V2000
  184.6340  178.7880  145.2370 C   0  0  0  0  0  0  0  0  0  0  0  0
  184.6310  179.2140  143.8710 N   0  0  0  0  0  2  0  0  0  0  0  0
  183.5390  178.6770  145.8480 O   0  0  0  0  0  0  0  0  0  0  0  0
  186.0200  177.0220  146.0420 O   0  0  0  0  0  0  0  0  0  0  0  0
  186.0170  179.0340  147.2920 C   0  0  0  0  0  2  0  0  0  0  0  0
  186.7440  176.7810  147.2270 C   0  0  2  0  0  3  0  0  0  0  0  0
  185.9140  178.4170  145.9200 C   0  0  2  0  0  3  0  0  0  0  0  0
  186.8960  178.0680  148.0170 C   0  0  0  0  0  2  0  0  0  0  0  0
  188.1020  176.1610  146.9130 C   0  0  0  0  0  2  0  0  0  0  0  0
  189.1340  177.1840  146.8540 N   0  0  0  0  0  2  0  0  0  0  0  0
  190.2390  176.6420  146.0800 C   0  0  1  0  0  3  0  0  0  0  0  0
  190.4830  177.4740  144.9850 O   0  0  0  0  0  1  0  0  0  0  0  0
  191.2310  177.1230  148.2020 O   0  0  0  0  0  1  0  0  0  0  0  0
  191.8930  175.1060  147.1430 C   0  0  0  0  0  1  0  0  0  0  0  0
  191.4840  176.5540  146.9530 C   0  0  1  0  0  3  0  0  0  0  0  0
  185.8420  179.3470  143.0720 C   0  0  0  0  0  2  0  0  0  0  0  0
  185.8740  178.3190  141.9780 C   0  0  0  0  0  0  0  0  0  0  0  0
  184.8390  178.0530  141.3840 O   0  0  0  0  0  0  0  0  0  0  0  0
  187.1460  177.5750  141.6390 C   0  0  0  0  0  0  0  0  0  0  0  0
  188.2430  178.3280  142.0630 O   0  0  0  0  0  1  0  0  0  0  0  0
  187.2410  177.3920  140.2550 O   0  0  0  0  0  1  0  0  0  0  0  0
  187.1730  176.2410  142.3330 C   0  0  0  0  0  0  0  0  0  0  0  0
  186.2410  175.9110  143.1150 O   0  0  0  0  0  0  0  0  0  0  0  0
  189.2040  175.1860  142.9770 O   0  0  0  0  0  1  0  0  0  0  0  0
  188.2160  175.3510  142.0860 O   0  0  0  0  0  0  0  0  0  0  0  0
  1  3  2  0  0  0  0
  2  1  1  0  0  0  0
  4  6  1  0  0  0  0
  5  8  1  0  0  0  0
  6  9  1  6  0  0  0
  6  8  1  0  0  0  0
  7  1  1  1  0  0  0
  7  4  1  0  0  0  0
  7  5  1  0  0  0  0
 10  9  1  0  0  0  0
 11 12  1  6  0  0  0
 11 10  1  0  0  0  0
 11 15  1  0  0  0  0
 15 14  1  1  0  0  0
 15 13  1  0  0  0  0
 16  2  1  0  0  0  0
 17 16  1  0  0  0  0
 18 17  2  0  0  0  0
 19 17  1  0  0  0  0
 19 20  1  0  0  0  0
 19 22  1  0  0  0  0
 21 19  1  0  0  0  0
 22 23  2  0  0  0  0
 25 22  1  0  0  0  0
 25 24  1  0  0  0  0
M  END
>  <MODEL>
6

>  <REMARK>
 VINA RESULT:      -5.6      1.694      5.509
  Name = 
  10 active torsions:
  status: ('A' for Active; 'I' for Inactive)
    1  A    between atoms: C_3  and  O_9
    2  A    between atoms: C_3  and  C_14
    3  A    between atoms: C_4  and  C_11
    4  A    between atoms: C_4  and  N_17
    5  A    between atoms: C_7  and  C_23
    6  A    between atoms: C_8  and  C_18
    7  A    between atoms: C_8  and  N_20
    8  A    between atoms: C_13  and  N_17
    9  A    between atoms: C_13  and  C_19
   10  A    between atoms: C_14  and  C_18
                            x       y       z     vdW  Elec       q    Type
                         _______ _______ _______ _____ _____    ______ ____

>  <TORSDO>
F 10

$$$$
=
 OpenBabel11062420163D

 25 25  0  0  1  0  0  0  0  0999 V2000
  188.6760  175.2810  143.2860 C   0  0  0  0  0  0  0  0  0  0  0  0
  189.2560  174.9400  144.5490 N   0  0  0  0  0  2  0  0  0  0  0  0
  188.8120  174.4900  142.3150 O   0  0  0  0  0  0  0  0  0  0  0  0
  186.4950  176.2190  143.0720 O   0  0  0  0  0  0  0  0  0  0  0  0
  188.2410  177.2910  141.8830 C   0  0  0  0  0  2  0  0  0  0  0  0
  185.9020  177.1920  142.2410 C   0  0  2  0  0  3  0  0  0  0  0  0
  187.8640  176.5280  143.1280 C   0  0  2  0  0  3  0  0  0  0  0  0
  186.9750  178.0090  141.5460 C   0  0  0  0  0  2  0  0  0  0  0  0
  184.9590  178.0840  143.0430 C   0  0  0  0  0  2  0  0  0  0  0  0
  185.0460  177.7800  144.4620 N   0  0  0  0  0  2  0  0  0  0  0  0
  185.7910  178.8580  145.0920 C   0  0  1  0  0  3  0  0  0  0  0  0
  185.5550  180.0460  144.3970 O   0  0  0  0  0  1  0  0  0  0  0  0
  184.1320  178.3560  146.7410 O   0  0  0  0  0  1  0  0  0  0  0  0
  186.3880  178.4130  147.4740 C   0  0  0  0  0  1  0  0  0  0  0  0
  185.3500  179.0090  146.5420 C   0  0  1  0  0  3  0  0  0  0  0  0
  189.1310  175.7740  145.7370 C   0  0  0  0  0  2  0  0  0  0  0  0
  190.4220  176.4830  146.0290 C   0  0  0  0  0  0  0  0  0  0  0  0
  190.7990  177.3650  145.2700 O   0  0  0  0  0  0  0  0  0  0  0  0
  191.2830  176.0890  147.2080 C   0  0  0  0  0  0  0  0  0  0  0  0
  190.6680  175.0380  147.8920 O   0  0  0  0  0  1  0  0  0  0  0  0
  191.4190  177.1710  148.0850 O   0  0  0  0  0  1  0  0  0  0  0  0
  192.6390  175.6380  146.7390 C   0  0  0  0  0  0  0  0  0  0  0  0
  192.7880  174.4980  146.2220 O   0  0  0  0  0  0  0  0  0  0  0  0
  194.1530  177.2060  145.7870 O   0  0  0  0  0  1  0  0  0  0  0  0
  193.7310  176.4980  146.8440 O   0  0  0  0  0  0  0  0  0  0  0  0
  1  2  1  0  0  0  0
  2 16  1  0  0  0  0
  3  1  2  0  0  0  0
  4  7  1  0  0  0  0
  5  7  1  0  0  0  0
  6  9  1  1  0  0  0
  6  4  1  0  0  0  0
  7  1  1  6  0  0  0
  8  5  1  0  0  0  0
  8  6  1  0  0  0  0
  9 10  1  0  0  0  0
 10 11  1  0  0  0  0
 11 12  1  6  0  0  0
 11 15  1  0  0  0  0
 15 13  1  0  0  0  0
 15 14  1  1  0  0  0
 16 17  1  0  0  0  0
 17 19  1  0  0  0  0
 18 17  2  0  0  0  0
 19 20  1  0  0  0  0
 19 21  1  0  0  0  0
 22 25  1  0  0  0  0
 22 19  1  0  0  0  0
 23 22  2  0  0  0  0
 24 25  1  0  0  0  0
M  END
>  <MODEL>
7

>  <REMARK>
 VINA RESULT:      -5.5      1.765      3.927
  Name = 
  10 active torsions:
  status: ('A' for Active; 'I' for Inactive)
    1  A    between atoms: C_3  and  O_9
    2  A    between atoms: C_3  and  C_14
    3  A    between atoms: C_4  and  C_11
    4  A    between atoms: C_4  and  N_17
    5  A    between atoms: C_7  and  C_23
    6  A    between atoms: C_8  and  C_18
    7  A    between atoms: C_8  and  N_20
    8  A    between atoms: C_13  and  N_17
    9  A    between atoms: C_13  and  C_19
   10  A    between atoms: C_14  and  C_18
                            x       y       z     vdW  Elec       q    Type
                         _______ _______ _______ _____ _____    ______ ____

>  <TORSDO>
F 10

$$$$
=
 OpenBabel11062420163D

 25 25  0  0  1  0  0  0  0  0999 V2000
  188.3570  175.2650  142.0400 C   0  0  0  0  0  0  0  0  0  0  0  0
  189.2920  174.5070  142.8130 N   0  0  0  0  0  2  0  0  0  0  0  0
  188.0850  174.8920  140.8680 O   0  0  0  0  0  0  0  0  0  0  0  0
  186.2810  176.2060  142.7380 O   0  0  0  0  0  0  0  0  0  0  0  0
  187.8680  177.6940  141.8010 C   0  0  0  0  0  2  0  0  0  0  0  0
  185.6420  177.4520  142.5730 C   0  0  2  0  0  3  0  0  0  0  0  0
  187.6590  176.4510  142.6290 C   0  0  2  0  0  3  0  0  0  0  0  0
  186.6400  178.4910  142.0990 C   0  0  0  0  0  2  0  0  0  0  0  0
  184.9630  177.8870  143.8680 C   0  0  0  0  0  2  0  0  0  0  0  0
  185.8490  178.7290  144.6560 N   0  0  0  0  0  2  0  0  0  0  0  0
  185.4220  178.6320  146.0420 C   0  0  1  0  0  3  0  0  0  0  0  0
  184.3240  177.7740  146.1240 O   0  0  0  0  0  1  0  0  0  0  0  0
  186.1700  178.0360  148.2340 O   0  0  0  0  0  1  0  0  0  0  0  0
  186.9630  176.7090  146.4340 C   0  0  0  0  0  1  0  0  0  0  0  0
  186.5640  178.0980  146.8960 C   0  0  1  0  0  3  0  0  0  0  0  0
  189.6520  174.8410  144.1850 C   0  0  0  0  0  2  0  0  0  0  0  0
  191.0210  175.4550  144.2440 C   0  0  0  0  0  0  0  0  0  0  0  0
  191.9460  174.8950  143.6730 O   0  0  0  0  0  0  0  0  0  0  0  0
  191.2810  176.7160  145.0360 C   0  0  0  0  0  0  0  0  0  0  0  0
  190.1420  177.5230  144.9980 O   0  0  0  0  0  1  0  0  0  0  0  0
  192.3470  177.4250  144.4730 O   0  0  0  0  0  1  0  0  0  0  0  0
  191.5920  176.3790  146.4690 C   0  0  0  0  0  0  0  0  0  0  0  0
  192.7860  176.2230  146.8420 O   0  0  0  0  0  0  0  0  0  0  0  0
  190.0240  175.0780  147.6960 O   0  0  0  0  0  1  0  0  0  0  0  0
  190.5580  176.2710  147.3960 O   0  0  0  0  0  0  0  0  0  0  0  0
  1  2  1  0  0  0  0
  2 16  1  0  0  0  0
  3  1  2  0  0  0  0
  5  8  1  0  0  0  0
  5  7  1  0  0  0  0
  6  4  1  0  0  0  0
  6  9  1  1  0  0  0
  7  1  1  6  0  0  0
  7  4  1  0  0  0  0
  8  6  1  0  0  0  0
  9 10  1  0  0  0  0
 10 11  1  0  0  0  0
 11 12  1  6  0  0  0
 11 15  1  0  0  0  0
 15 14  1  6  0  0  0
 15 13  1  0  0  0  0
 16 17  1  0  0  0  0
 17 19  1  0  0  0  0
 18 17  2  0  0  0  0
 19 22  1  0  0  0  0
 20 19  1  0  0  0  0
 21 19  1  0  0  0  0
 22 23  2  0  0  0  0
 22 25  1  0  0  0  0
 25 24  1  0  0  0  0
M  END
>  <MODEL>
8

>  <REMARK>
 VINA RESULT:      -5.5      1.891      4.281
  Name = 
  10 active torsions:
  status: ('A' for Active; 'I' for Inactive)
    1  A    between atoms: C_3  and  O_9
    2  A    between atoms: C_3  and  C_14
    3  A    between atoms: C_4  and  C_11
    4  A    between atoms: C_4  and  N_17
    5  A    between atoms: C_7  and  C_23
    6  A    between atoms: C_8  and  C_18
    7  A    between atoms: C_8  and  N_20
    8  A    between atoms: C_13  and  N_17
    9  A    between atoms: C_13  and  C_19
   10  A    between atoms: C_14  and  C_18
                            x       y       z     vdW  Elec       q    Type
                         _______ _______ _______ _____ _____    ______ ____

>  <TORSDO>
F 10

$$$$
=
 OpenBabel11062420163D

 25 25  0  0  1  0  0  0  0  0999 V2000
  188.8510  175.5160  146.6140 C   0  0  0  0  0  0  0  0  0  0  0  0
  187.8430  176.4190  147.0780 N   0  0  0  0  0  2  0  0  0  0  0  0
  189.1720  174.5330  147.3320 O   0  0  0  0  0  0  0  0  0  0  0  0
  189.3880  174.5050  144.5220 O   0  0  0  0  0  0  0  0  0  0  0  0
  190.9250  176.0970  145.3660 C   0  0  0  0  0  2  0  0  0  0  0  0
  190.5260  174.4710  143.6910 C   0  0  2  0  0  3  0  0  0  0  0  0
  189.4760  175.6930  145.2650 C   0  0  2  0  0  3  0  0  0  0  0  0
  191.5000  175.5620  144.0950 C   0  0  0  0  0  2  0  0  0  0  0  0
  190.1280  174.6000  142.2240 C   0  0  0  0  0  2  0  0  0  0  0  0
  188.6800  174.5980  142.0820 N   0  0  0  0  0  2  0  0  0  0  0  0
  188.3220  175.7450  141.2630 C   0  0  1  0  0  3  0  0  0  0  0  0
  187.8170  175.2960  140.0420 O   0  0  0  0  0  1  0  0  0  0  0  0
  186.6360  175.8140  142.9590 O   0  0  0  0  0  1  0  0  0  0  0  0
  187.9220  177.7840  142.6460 C   0  0  0  0  0  1  0  0  0  0  0  0
  187.2740  176.5830  141.9830 C   0  0  1  0  0  3  0  0  0  0  0  0
  187.3830  177.5680  146.3090 C   0  0  0  0  0  2  0  0  0  0  0  0
  185.8940  177.5240  146.1240 C   0  0  0  0  0  0  0  0  0  0  0  0
  185.3300  176.4390  146.1100 O   0  0  0  0  0  0  0  0  0  0  0  0
  185.0940  178.7880  145.9050 C   0  0  0  0  0  0  0  0  0  0  0  0
  185.7080  179.8420  146.5860 O   0  0  0  0  0  1  0  0  0  0  0  0
  183.7980  178.6300  146.4070 O   0  0  0  0  0  1  0  0  0  0  0  0
  185.0360  179.1230  144.4390 C   0  0  0  0  0  0  0  0  0  0  0  0
  185.5600  180.1850  144.0070 O   0  0  0  0  0  0  0  0  0  0  0  0
  183.4310  178.6440  142.7520 O   0  0  0  0  0  1  0  0  0  0  0  0
  184.4290  178.2390  143.5490 O   0  0  0  0  0  0  0  0  0  0  0  0
  1  2  1  0  0  0  0
  1  3  2  0  0  0  0
  4  7  1  0  0  0  0
  6  9  1  6  0  0  0
  6  8  1  0  0  0  0
  6  4  1  0  0  0  0
  7  5  1  0  0  0  0
  7  1  1  1  0  0  0
  8  5  1  0  0  0  0
 10  9  1  0  0  0  0
 11 12  1  6  0  0  0
 11 15  1  0  0  0  0
 11 10  1  0  0  0  0
 15 14  1  1  0  0  0
 15 13  1  0  0  0  0
 16  2  1  0  0  0  0
 17 16  1  0  0  0  0
 18 17  2  0  0  0  0
 19 17  1  0  0  0  0
 19 21  1  0  0  0  0
 19 20  1  0  0  0  0
 22 19  1  0  0  0  0
 23 22  2  0  0  0  0
 24 25  1  0  0  0  0
 25 22  1  0  0  0  0
M  END
>  <MODEL>
9

>  <REMARK>
 VINA RESULT:      -5.5      2.223      6.012
  Name = 
  10 active torsions:
  status: ('A' for Active; 'I' for Inactive)
    1  A    between atoms: C_3  and  O_9
    2  A    between atoms: C_3  and  C_14
    3  A    between atoms: C_4  and  C_11
    4  A    between atoms: C_4  and  N_17
    5  A    between atoms: C_7  and  C_23
    6  A    between atoms: C_8  and  C_18
    7  A    between atoms: C_8  and  N_20
    8  A    between atoms: C_13  and  N_17
    9  A    between atoms: C_13  and  C_19
   10  A    between atoms: C_14  and  C_18
                            x       y       z     vdW  Elec       q    Type
                         _______ _______ _______ _____ _____    ______ ____

>  <TORSDO>
F 10

$$$$
