=
 OpenBabel11062422233D

 36 39  0  0  1  0  0  0  0  0999 V2000
  193.0300  175.3040  144.1560 N   0  0  0  0  0  2  0  0  0  0  0  0
  193.9670  174.5510  144.9330 C   0  0  0  0  0  0  0  0  0  0  0  0
  193.5780  173.5390  145.5780 O   0  0  0  0  0  0  0  0  0  0  0  0
  195.3430  174.9560  144.9870 N   0  0  0  0  0  0  0  0  0  0  0  0
  189.8360  172.9000  143.2500 O   0  0  0  0  0  1  0  0  0  0  0  0
  189.7430  174.1750  142.6890 C   0  0  2  0  0  3  0  0  0  0  0  0
  189.7360  177.8590  145.5040 O   0  0  0  0  0  0  0  0  0  0  0  0
  190.8640  176.1810  143.5240 C   0  0  2  0  0  3  0  0  0  0  0  0
  191.0960  174.8920  142.7530 C   0  0  1  0  0  3  0  0  0  0  0  0
  191.6050  175.0300  144.1810 C   0  0  1  0  0  3  0  0  0  0  0  0
  188.9370  177.1350  144.8490 C   0  0  0  0  0  0  0  0  0  0  0  0
  189.4690  176.1720  143.9230 N   0  0  0  0  0  0  0  0  0  0  0  0
  188.7360  175.0090  143.4570 C   0  0  0  0  0  2  0  0  0  0  0  0
  183.8940  178.6710  146.1650 O   0  0  0  0  0  0  0  0  0  0  0  0
  185.1840  178.2690  144.2330 C   0  0  0  0  0  2  0  0  0  0  0  0
  187.4760  177.3180  145.0430 C   0  0  0  0  0  0  0  0  0  0  0  0
  186.6560  178.0490  144.0350 C   0  0  0  0  0  0  0  0  0  0  0  0
  185.4160  176.8870  146.4050 C   0  0  0  0  0  2  0  0  0  0  0  0
  187.1900  178.4990  142.9870 O   0  0  0  0  0  0  0  0  0  0  0  0
  184.7860  178.0160  145.6520 C   0  0  0  0  0  0  0  0  0  0  0  0
  186.8920  176.8170  146.1410 C   0  0  0  0  0  3  0  0  0  0  0  0
  195.7750  176.2020  144.3620 C   0  0  0  0  0  2  0  0  0  0  0  0
  196.6170  175.9120  143.1660 C   0  0  0  0  0  0  0  0  0  0  0  0
  196.1000  175.0570  142.1380 N   0  0  0  0  0  2  0  0  0  0  0  0
  197.7510  176.4500  143.0620 O   0  0  0  0  0  0  0  0  0  0  0  0
  197.3340  173.4900  140.7390 C   0  0  0  0  0  3  0  0  0  0  0  0
  197.3310  175.2880  138.5990 C   0  0  0  0  0  3  0  0  0  0  0  0
  197.9410  174.0380  138.4600 C   0  0  0  0  0  3  0  0  0  0  0  0
  196.7230  175.6370  139.8090 C   0  0  0  0  0  3  0  0  0  0  0  0
  196.7220  174.7400  140.8870 C   0  0  0  0  0  0  0  0  0  0  0  0
  197.9410  173.1390  139.5290 C   0  0  0  0  0  3  0  0  0  0  0  0
  196.3120  174.1800  145.7500 C   0  0  0  0  0  2  0  0  0  0  0  0
  197.9410  172.9290  144.3440 C   0  0  0  0  0  1  0  0  0  0  0  0
  196.6050  172.8550  145.0570 C   0  0  1  0  0  3  0  0  0  0  0  0
  195.5230  170.8220  145.7630 O   0  0  0  0  0  1  0  0  0  0  0  0
  196.5830  171.6890  146.0400 C   0  0  0  0  0  2  0  0  0  0  0  0
  1 10  1  0  0  0  0
  1  2  1  0  0  0  0
  2  4  1  0  0  0  0
  2  3  2  0  0  0  0
  4 32  1  0  0  0  0
  6  9  1  0  0  0  0
  6  5  1  1  0  0  0
  6 13  1  0  0  0  0
  8 12  1  1  0  0  0
  8 10  1  0  0  0  0
  9  8  1  0  0  0  0
  9 10  1  0  0  0  0
 11 16  1  0  0  0  0
 11  7  2  0  0  0  0
 12 11  1  0  0  0  0
 13 12  1  0  0  0  0
 15 20  1  0  0  0  0
 16 21  2  0  0  0  0
 17 15  1  0  0  0  0
 17 16  1  0  0  0  0
 19 17  2  0  0  0  0
 20 14  2  0  0  0  0
 20 18  1  0  0  0  0
 21 18  1  0  0  0  0
 22  4  1  0  0  0  0
 23 22  1  0  0  0  0
 24 23  1  0  0  0  0
 25 23  2  0  0  0  0
 26 30  1  0  0  0  0
 27 29  1  0  0  0  0
 28 27  2  0  0  0  0
 28 31  1  0  0  0  0
 29 30  2  0  0  0  0
 30 24  1  0  0  0  0
 31 26  2  0  0  0  0
 33 34  1  0  0  0  0
 34 32  1  0  0  0  0
 34 36  1  0  0  0  0
 35 36  1  0  0  0  0
M  END
>  <MODEL>
1

>  <REMARK>
 VINA RESULT:      -7.1      0.000      0.000
  Name = 
  8 active torsions:
  status: ('A' for Active; 'I' for Inactive)
    1  A    between atoms: C_4  and  C_17
    2  A    between atoms: C_4  and  N_36
    3  A    between atoms: N_5  and  C_14
    4  A    between atoms: C_15  and  C_20
    5  A    between atoms: C_23  and  N_28
    6  A    between atoms: C_29  and  C_31
    7  A    between atoms: C_29  and  C_32
    8  A    between atoms: C_31  and  N_36
                            x       y       z     vdW  Elec       q    Type
                         _______ _______ _______ _____ _____    ______ ____

>  <TORSDO>
F 8

$$$$
=
 OpenBabel11062422233D

 36 39  0  0  1  0  0  0  0  0999 V2000
  190.7160  176.8970  145.4110 N   0  0  0  0  0  2  0  0  0  0  0  0
  189.6050  176.7050  146.2940 C   0  0  0  0  0  0  0  0  0  0  0  0
  189.7740  176.1190  147.3980 O   0  0  0  0  0  0  0  0  0  0  0  0
  188.3000  177.1680  145.9140 N   0  0  0  0  0  0  0  0  0  0  0  0
  194.5860  177.2680  146.7110 O   0  0  0  0  0  1  0  0  0  0  0  0
  194.4880  176.8380  145.3860 C   0  0  2  0  0  3  0  0  0  0  0  0
  192.2280  172.8920  144.4790 O   0  0  0  0  0  0  0  0  0  0  0  0
  192.5610  175.7020  144.3990 C   0  0  2  0  0  3  0  0  0  0  0  0
  193.0690  177.0600  144.8500 C   0  0  1  0  0  3  0  0  0  0  0  0
  192.0230  176.3230  145.6750 C   0  0  1  0  0  3  0  0  0  0  0  0
  193.4040  173.3300  144.6130 C   0  0  0  0  0  0  0  0  0  0  0  0
  193.6120  174.7490  144.7100 N   0  0  0  0  0  0  0  0  0  0  0  0
  194.7930  175.3550  145.2960 C   0  0  0  0  0  2  0  0  0  0  0  0
  196.7620  169.0620  144.4580 O   0  0  0  0  0  0  0  0  0  0  0  0
  196.5450  171.1910  143.4710 C   0  0  0  0  0  2  0  0  0  0  0  0
  194.5320  172.3640  144.6460 C   0  0  0  0  0  0  0  0  0  0  0  0
  195.4210  172.1860  143.4630 C   0  0  0  0  0  0  0  0  0  0  0  0
  195.8960  170.6930  145.9230 C   0  0  0  0  0  2  0  0  0  0  0  0
  195.2430  172.8750  142.4240 O   0  0  0  0  0  0  0  0  0  0  0  0
  196.3980  170.2170  144.5960 C   0  0  0  0  0  0  0  0  0  0  0  0
  194.7490  171.6470  145.7580 C   0  0  0  0  0  3  0  0  0  0  0  0
  188.0660  177.7170  144.5830 C   0  0  0  0  0  2  0  0  0  0  0  0
  187.7840  176.6180  143.6160 C   0  0  0  0  0  0  0  0  0  0  0  0
  188.8750  176.0110  142.9110 N   0  0  0  0  0  2  0  0  0  0  0  0
  186.6000  176.2180  143.4600 O   0  0  0  0  0  0  0  0  0  0  0  0
  188.3890  175.1090  140.7000 C   0  0  0  0  0  3  0  0  0  0  0  0
  189.0940  172.5320  141.5180 C   0  0  0  0  0  3  0  0  0  0  0  0
  188.6730  172.7570  140.2050 C   0  0  0  0  0  3  0  0  0  0  0  0
  189.1620  173.5960  142.4220 C   0  0  0  0  0  3  0  0  0  0  0  0
  188.8080  174.8920  142.0180 C   0  0  0  0  0  0  0  0  0  0  0  0
  188.3220  174.0450  139.7960 C   0  0  0  0  0  3  0  0  0  0  0  0
  187.1670  177.0050  146.8170 C   0  0  0  0  0  2  0  0  0  0  0  0
  184.7530  177.3070  146.2940 C   0  0  0  0  0  1  0  0  0  0  0  0
  186.0760  178.0180  146.4970 C   0  0  1  0  0  3  0  0  0  0  0  0
  187.0540  179.0360  148.4500 O   0  0  0  0  0  1  0  0  0  0  0  0
  185.9550  179.0780  147.5880 C   0  0  0  0  0  2  0  0  0  0  0  0
  1 10  1  0  0  0  0
  1  2  1  0  0  0  0
  2  3  2  0  0  0  0
  4  2  1  0  0  0  0
  4 32  1  0  0  0  0
  6  5  1  1  0  0  0
  7 11  2  0  0  0  0
  8 12  1  1  0  0  0
  8  9  1  0  0  0  0
  8 10  1  0  0  0  0
  9  6  1  0  0  0  0
  9 10  1  0  0  0  0
 11 16  1  0  0  0  0
 11 12  1  0  0  0  0
 12 13  1  0  0  0  0
 13  6  1  0  0  0  0
 14 20  2  0  0  0  0
 15 20  1  0  0  0  0
 16 21  2  0  0  0  0
 17 15  1  0  0  0  0
 17 16  1  0  0  0  0
 19 17  2  0  0  0  0
 20 18  1  0  0  0  0
 21 18  1  0  0  0  0
 22  4  1  0  0  0  0
 23 22  1  0  0  0  0
 24 23  1  0  0  0  0
 25 23  2  0  0  0  0
 26 30  1  0  0  0  0
 27 29  1  0  0  0  0
 28 27  2  0  0  0  0
 30 29  2  0  0  0  0
 30 24  1  0  0  0  0
 31 28  1  0  0  0  0
 31 26  2  0  0  0  0
 33 34  1  0  0  0  0
 34 32  1  0  0  0  0
 34 36  1  0  0  0  0
 36 35  1  0  0  0  0
M  END
>  <MODEL>
2

>  <REMARK>
 VINA RESULT:      -6.9      2.805      9.215
  Name = 
  8 active torsions:
  status: ('A' for Active; 'I' for Inactive)
    1  A    between atoms: C_4  and  C_17
    2  A    between atoms: C_4  and  N_36
    3  A    between atoms: N_5  and  C_14
    4  A    between atoms: C_15  and  C_20
    5  A    between atoms: C_23  and  N_28
    6  A    between atoms: C_29  and  C_31
    7  A    between atoms: C_29  and  C_32
    8  A    between atoms: C_31  and  N_36
                            x       y       z     vdW  Elec       q    Type
                         _______ _______ _______ _____ _____    ______ ____

>  <TORSDO>
F 8

$$$$
=
 OpenBabel11062422233D

 36 39  0  0  1  0  0  0  0  0999 V2000
  190.6570  176.8490  145.5740 N   0  0  0  0  0  2  0  0  0  0  0  0
  189.4430  176.3890  146.1750 C   0  0  0  0  0  0  0  0  0  0  0  0
  189.4750  175.4570  147.0250 O   0  0  0  0  0  0  0  0  0  0  0  0
  188.1890  176.9780  145.8000 N   0  0  0  0  0  0  0  0  0  0  0  0
  194.5690  176.9720  146.7930 O   0  0  0  0  0  1  0  0  0  0  0  0
  194.4170  176.5620  145.4670 C   0  0  2  0  0  3  0  0  0  0  0  0
  191.9030  172.7690  144.5760 O   0  0  0  0  0  0  0  0  0  0  0  0
  192.4050  175.5540  144.5120 C   0  0  2  0  0  3  0  0  0  0  0  0
  193.0030  176.8750  144.9640 C   0  0  1  0  0  3  0  0  0  0  0  0
  191.9320  176.1950  145.8040 C   0  0  1  0  0  3  0  0  0  0  0  0
  193.1060  173.1330  144.6870 C   0  0  0  0  0  0  0  0  0  0  0  0
  193.4010  174.5370  144.7920 N   0  0  0  0  0  0  0  0  0  0  0  0
  194.6290  175.0640  145.3570 C   0  0  0  0  0  2  0  0  0  0  0  0
  196.1890  168.6660  144.4560 O   0  0  0  0  0  0  0  0  0  0  0  0
  196.0610  170.7930  143.4470 C   0  0  0  0  0  2  0  0  0  0  0  0
  194.1730  172.1010  144.6880 C   0  0  0  0  0  0  0  0  0  0  0  0
  194.9990  171.8550  143.4720 C   0  0  0  0  0  0  0  0  0  0  0  0
  195.4870  170.3640  145.9310 C   0  0  0  0  0  2  0  0  0  0  0  0
  194.8200  172.5410  142.4310 O   0  0  0  0  0  0  0  0  0  0  0  0
  195.9020  169.8430  144.5920 C   0  0  0  0  0  0  0  0  0  0  0  0
  194.3930  171.3850  145.8000 C   0  0  0  0  0  3  0  0  0  0  0  0
  188.1220  177.9540  144.7180 C   0  0  0  0  0  2  0  0  0  0  0  0
  187.0610  177.5690  143.7430 C   0  0  0  0  0  0  0  0  0  0  0  0
  186.0890  178.5450  143.3460 N   0  0  0  0  0  2  0  0  0  0  0  0
  187.0570  176.4070  143.2580 O   0  0  0  0  0  0  0  0  0  0  0  0
  185.4290  178.2560  141.0180 C   0  0  0  0  0  3  0  0  0  0  0  0
  182.7260  178.1740  141.7200 C   0  0  0  0  0  3  0  0  0  0  0  0
  183.1030  178.0470  140.3810 C   0  0  0  0  0  3  0  0  0  0  0  0
  183.7010  178.3420  142.7080 C   0  0  0  0  0  3  0  0  0  0  0  0
  185.0590  178.3860  142.3620 C   0  0  0  0  0  0  0  0  0  0  0  0
  184.4550  178.0870  140.0310 C   0  0  0  0  0  3  0  0  0  0  0  0
  186.9480  176.5390  146.4270 C   0  0  0  0  0  2  0  0  0  0  0  0
  184.6270  177.4360  146.4120 C   0  0  0  0  0  1  0  0  0  0  0  0
  186.0690  177.7330  146.7740 C   0  0  1  0  0  3  0  0  0  0  0  0
  187.1240  179.1320  148.4270 O   0  0  0  0  0  1  0  0  0  0  0  0
  186.1880  178.1100  148.2460 C   0  0  0  0  0  2  0  0  0  0  0  0
  1 10  1  0  0  0  0
  1  2  1  0  0  0  0
  2  3  2  0  0  0  0
  4  2  1  0  0  0  0
  4 32  1  0  0  0  0
  6  5  1  1  0  0  0
  7 11  2  0  0  0  0
  8 12  1  1  0  0  0
  8  9  1  0  0  0  0
  8 10  1  0  0  0  0
  9  6  1  0  0  0  0
  9 10  1  0  0  0  0
 11 16  1  0  0  0  0
 11 12  1  0  0  0  0
 12 13  1  0  0  0  0
 13  6  1  0  0  0  0
 14 20  2  0  0  0  0
 15 17  1  0  0  0  0
 15 20  1  0  0  0  0
 16 21  2  0  0  0  0
 17 16  1  0  0  0  0
 19 17  2  0  0  0  0
 20 18  1  0  0  0  0
 21 18  1  0  0  0  0
 22  4  1  0  0  0  0
 23 22  1  0  0  0  0
 24 23  1  0  0  0  0
 25 23  2  0  0  0  0
 26 30  1  0  0  0  0
 27 29  1  0  0  0  0
 28 27  2  0  0  0  0
 30 29  2  0  0  0  0
 30 24  1  0  0  0  0
 31 28  1  0  0  0  0
 31 26  2  0  0  0  0
 32 34  1  0  0  0  0
 33 34  1  0  0  0  0
 34 36  1  0  0  0  0
 36 35  1  0  0  0  0
M  END
>  <MODEL>
3

>  <REMARK>
 VINA RESULT:      -6.9      3.063     10.228
  Name = 
  8 active torsions:
  status: ('A' for Active; 'I' for Inactive)
    1  A    between atoms: C_4  and  C_17
    2  A    between atoms: C_4  and  N_36
    3  A    between atoms: N_5  and  C_14
    4  A    between atoms: C_15  and  C_20
    5  A    between atoms: C_23  and  N_28
    6  A    between atoms: C_29  and  C_31
    7  A    between atoms: C_29  and  C_32
    8  A    between atoms: C_31  and  N_36
                            x       y       z     vdW  Elec       q    Type
                         _______ _______ _______ _____ _____    ______ ____

>  <TORSDO>
F 8

$$$$
=
 OpenBabel11062422233D

 36 39  0  0  1  0  0  0  0  0999 V2000
  189.8910  174.6300  142.8320 N   0  0  0  0  0  2  0  0  0  0  0  0
  190.9840  175.4340  143.2880 C   0  0  0  0  0  0  0  0  0  0  0  0
  191.8960  175.7690  142.4840 O   0  0  0  0  0  0  0  0  0  0  0  0
  191.0460  175.8440  144.6620 N   0  0  0  0  0  0  0  0  0  0  0  0
  188.1650  174.3410  139.1250 O   0  0  0  0  0  1  0  0  0  0  0  0
  188.2060  173.1260  139.8100 C   0  0  2  0  0  3  0  0  0  0  0  0
  192.3230  171.4250  141.0980 O   0  0  0  0  0  0  0  0  0  0  0  0
  189.7750  172.5520  141.5950 C   0  0  2  0  0  3  0  0  0  0  0  0
  188.5200  173.3530  141.2930 C   0  0  1  0  0  3  0  0  0  0  0  0
  189.8500  174.0650  141.4950 C   0  0  1  0  0  3  0  0  0  0  0  0
  191.4510  171.2820  140.1960 C   0  0  0  0  0  0  0  0  0  0  0  0
  190.1840  171.9460  140.3420 N   0  0  0  0  0  0  0  0  0  0  0  0
  189.2940  172.2400  139.2340 C   0  0  0  0  0  2  0  0  0  0  0  0
  191.5680  168.4040  135.5900 O   0  0  0  0  0  0  0  0  0  0  0  0
  192.8020  170.1070  136.6550 C   0  0  0  0  0  2  0  0  0  0  0  0
  191.7600  170.4200  139.0270 C   0  0  0  0  0  0  0  0  0  0  0  0
  192.5100  170.9580  137.8580 C   0  0  0  0  0  0  0  0  0  0  0  0
  191.6700  168.1660  137.9320 C   0  0  0  0  0  2  0  0  0  0  0  0
  192.9180  172.1490  137.8570 O   0  0  0  0  0  0  0  0  0  0  0  0
  191.9540  168.8740  136.6460 C   0  0  0  0  0  0  0  0  0  0  0  0
  191.3560  169.1410  139.0300 C   0  0  0  0  0  3  0  0  0  0  0  0
  190.0760  175.3460  145.6310 C   0  0  0  0  0  2  0  0  0  0  0  0
  189.0450  176.3870  145.9070 C   0  0  0  0  0  0  0  0  0  0  0  0
  187.8040  176.3500  145.1900 N   0  0  0  0  0  2  0  0  0  0  0  0
  189.2650  177.2580  146.7900 O   0  0  0  0  0  0  0  0  0  0  0  0
  186.6090  178.4090  144.6730 C   0  0  0  0  0  3  0  0  0  0  0  0
  184.5270  177.7180  146.4040 C   0  0  0  0  0  3  0  0  0  0  0  0
  184.4730  178.9200  145.6920 C   0  0  0  0  0  3  0  0  0  0  0  0
  185.6210  176.8630  146.2500 C   0  0  0  0  0  3  0  0  0  0  0  0
  186.6710  177.2050  145.3840 C   0  0  0  0  0  0  0  0  0  0  0  0
  185.5130  179.2640  144.8260 C   0  0  0  0  0  3  0  0  0  0  0  0
  192.1390  176.6880  145.1320 C   0  0  0  0  0  2  0  0  0  0  0  0
  193.4590  174.6500  145.6760 C   0  0  0  0  0  1  0  0  0  0  0  0
  192.9440  175.9730  146.2090 C   0  0  1  0  0  3  0  0  0  0  0  0
  194.6290  177.6130  145.6840 O   0  0  0  0  0  1  0  0  0  0  0  0
  194.0970  176.8340  146.7140 C   0  0  0  0  0  2  0  0  0  0  0  0
  1  2  1  0  0  0  0
  2  4  1  0  0  0  0
  3  2  2  0  0  0  0
  4 32  1  0  0  0  0
  4 22  1  0  0  0  0
  6  5  1  6  0  0  0
  6  9  1  0  0  0  0
  8 12  1  6  0  0  0
  9 10  1  0  0  0  0
  9  8  1  0  0  0  0
 10  8  1  0  0  0  0
 10  1  1  0  0  0  0
 11 12  1  0  0  0  0
 11  7  2  0  0  0  0
 13  6  1  0  0  0  0
 13 12  1  0  0  0  0
 14 20  2  0  0  0  0
 15 17  1  0  0  0  0
 16 21  2  0  0  0  0
 16 11  1  0  0  0  0
 17 16  1  0  0  0  0
 18 21  1  0  0  0  0
 19 17  2  0  0  0  0
 20 15  1  0  0  0  0
 20 18  1  0  0  0  0
 22 23  1  0  0  0  0
 23 25  2  0  0  0  0
 24 30  1  0  0  0  0
 24 23  1  0  0  0  0
 26 31  2  0  0  0  0
 26 30  1  0  0  0  0
 28 27  2  0  0  0  0
 29 27  1  0  0  0  0
 30 29  2  0  0  0  0
 31 28  1  0  0  0  0
 32 34  1  0  0  0  0
 33 34  1  0  0  0  0
 34 36  1  0  0  0  0
 35 36  1  0  0  0  0
M  END
>  <MODEL>
4

>  <REMARK>
 VINA RESULT:      -6.8      4.061      9.447
  Name = 
  8 active torsions:
  status: ('A' for Active; 'I' for Inactive)
    1  A    between atoms: C_4  and  C_17
    2  A    between atoms: C_4  and  N_36
    3  A    between atoms: N_5  and  C_14
    4  A    between atoms: C_15  and  C_20
    5  A    between atoms: C_23  and  N_28
    6  A    between atoms: C_29  and  C_31
    7  A    between atoms: C_29  and  C_32
    8  A    between atoms: C_31  and  N_36
                            x       y       z     vdW  Elec       q    Type
                         _______ _______ _______ _____ _____    ______ ____

>  <TORSDO>
F 8

$$$$
=
 OpenBabel11062422233D

 36 39  0  0  1  0  0  0  0  0999 V2000
  191.3930  174.0600  142.9740 N   0  0  0  0  0  2  0  0  0  0  0  0
  192.3620  174.8570  143.6610 C   0  0  0  0  0  0  0  0  0  0  0  0
  191.9830  175.7640  144.4520 O   0  0  0  0  0  0  0  0  0  0  0  0
  193.7620  174.6340  143.4380 N   0  0  0  0  0  0  0  0  0  0  0  0
  187.5180  173.1250  142.0160 O   0  0  0  0  0  1  0  0  0  0  0  0
  187.9040  174.3940  141.5790 C   0  0  2  0  0  3  0  0  0  0  0  0
  189.3180  177.5020  144.7170 O   0  0  0  0  0  0  0  0  0  0  0  0
  189.7070  175.7400  142.5360 C   0  0  2  0  0  3  0  0  0  0  0  0
  189.4270  174.5460  141.6400 C   0  0  1  0  0  3  0  0  0  0  0  0
  189.9700  174.3350  143.0460 C   0  0  1  0  0  3  0  0  0  0  0  0
  188.2970  177.2010  144.0400 C   0  0  0  0  0  0  0  0  0  0  0  0
  188.4160  176.2100  143.0040 N   0  0  0  0  0  0  0  0  0  0  0  0
  187.2940  175.4590  142.4720 C   0  0  0  0  0  2  0  0  0  0  0  0
  183.2040  179.0750  144.2990 O   0  0  0  0  0  0  0  0  0  0  0  0
  184.8190  178.1110  145.7200 C   0  0  0  0  0  2  0  0  0  0  0  0
  187.0140  177.8930  144.3250 C   0  0  0  0  0  0  0  0  0  0  0  0
  186.1340  177.4410  145.4390 C   0  0  0  0  0  0  0  0  0  0  0  0
  185.4090  179.7480  143.8080 C   0  0  0  0  0  2  0  0  0  0  0  0
  186.4800  176.4790  146.1740 O   0  0  0  0  0  0  0  0  0  0  0  0
  184.3880  178.9600  144.5660 C   0  0  0  0  0  0  0  0  0  0  0  0
  186.6500  178.9370  143.5670 C   0  0  0  0  0  3  0  0  0  0  0  0
  194.2110  173.6880  142.4220 C   0  0  0  0  0  2  0  0  0  0  0  0
  194.6530  172.4160  143.0640 C   0  0  0  0  0  0  0  0  0  0  0  0
  193.8460  171.8380  144.0980 N   0  0  0  0  0  2  0  0  0  0  0  0
  195.7060  171.8540  142.6630 O   0  0  0  0  0  0  0  0  0  0  0  0
  194.8030  170.5740  145.9480 C   0  0  0  0  0  3  0  0  0  0  0  0
  193.7630  168.1820  144.9450 C   0  0  0  0  0  3  0  0  0  0  0  0
  194.5070  168.1780  146.1290 C   0  0  0  0  0  3  0  0  0  0  0  0
  193.5410  169.3830  144.2640 C   0  0  0  0  0  3  0  0  0  0  0  0
  194.0610  170.5860  144.7610 C   0  0  0  0  0  0  0  0  0  0  0  0
  195.0250  169.3740  146.6300 C   0  0  0  0  0  3  0  0  0  0  0  0
  194.7590  175.4200  144.1550 C   0  0  0  0  0  2  0  0  0  0  0  0
  196.1390  174.3000  145.8970 C   0  0  0  0  0  1  0  0  0  0  0  0
  194.8240  175.0020  145.6180 C   0  0  1  0  0  3  0  0  0  0  0  0
  194.6170  177.3920  145.8360 O   0  0  0  0  0  1  0  0  0  0  0  0
  194.6400  176.1920  146.5530 C   0  0  0  0  0  2  0  0  0  0  0  0
  1 10  1  0  0  0  0
  1  2  1  0  0  0  0
  2  3  2  0  0  0  0
  4  2  1  0  0  0  0
  4 32  1  0  0  0  0
  6  9  1  0  0  0  0
  6  5  1  1  0  0  0
  6 13  1  0  0  0  0
  8 12  1  1  0  0  0
  8 10  1  0  0  0  0
  9  8  1  0  0  0  0
  9 10  1  0  0  0  0
 11 16  1  0  0  0  0
 11  7  2  0  0  0  0
 12 11  1  0  0  0  0
 13 12  1  0  0  0  0
 14 20  2  0  0  0  0
 16 17  1  0  0  0  0
 17 15  1  0  0  0  0
 17 19  2  0  0  0  0
 18 20  1  0  0  0  0
 20 15  1  0  0  0  0
 21 18  1  0  0  0  0
 21 16  2  0  0  0  0
 22 23  1  0  0  0  0
 22  4  1  0  0  0  0
 23 24  1  0  0  0  0
 24 30  1  0  0  0  0
 25 23  2  0  0  0  0
 26 31  1  0  0  0  0
 27 28  1  0  0  0  0
 28 31  2  0  0  0  0
 29 30  1  0  0  0  0
 29 27  2  0  0  0  0
 30 26  2  0  0  0  0
 32 34  1  0  0  0  0
 34 33  1  0  0  0  0
 34 36  1  0  0  0  0
 35 36  1  0  0  0  0
M  END
>  <MODEL>
5

>  <REMARK>
 VINA RESULT:      -6.8      2.526      4.418
  Name = 
  8 active torsions:
  status: ('A' for Active; 'I' for Inactive)
    1  A    between atoms: C_4  and  C_17
    2  A    between atoms: C_4  and  N_36
    3  A    between atoms: N_5  and  C_14
    4  A    between atoms: C_15  and  C_20
    5  A    between atoms: C_23  and  N_28
    6  A    between atoms: C_29  and  C_31
    7  A    between atoms: C_29  and  C_32
    8  A    between atoms: C_31  and  N_36
                            x       y       z     vdW  Elec       q    Type
                         _______ _______ _______ _____ _____    ______ ____

>  <TORSDO>
F 8

$$$$
=
 OpenBabel11062422233D

 36 39  0  0  1  0  0  0  0  0999 V2000
  192.1040  175.2450  142.6460 N   0  0  0  0  0  2  0  0  0  0  0  0
  193.1320  174.4780  143.2820 C   0  0  0  0  0  0  0  0  0  0  0  0
  192.8220  173.5120  144.0320 O   0  0  0  0  0  0  0  0  0  0  0  0
  194.5110  174.8190  143.0770 N   0  0  0  0  0  0  0  0  0  0  0  0
  188.6740  173.0270  142.3050 O   0  0  0  0  0  1  0  0  0  0  0  0
  188.5470  174.3210  141.7960 C   0  0  2  0  0  3  0  0  0  0  0  0
  189.2590  177.9190  144.6330 O   0  0  0  0  0  0  0  0  0  0  0  0
  189.9090  176.2450  142.4450 C   0  0  2  0  0  3  0  0  0  0  0  0
  189.9250  174.9690  141.6210 C   0  0  1  0  0  3  0  0  0  0  0  0
  190.6960  175.0410  142.9310 C   0  0  1  0  0  3  0  0  0  0  0  0
  188.3140  177.2540  144.1240 C   0  0  0  0  0  0  0  0  0  0  0  0
  188.6130  176.2930  143.0980 N   0  0  0  0  0  0  0  0  0  0  0  0
  187.7460  175.1810  142.7540 C   0  0  0  0  0  2  0  0  0  0  0  0
  183.7030  178.9490  146.4440 O   0  0  0  0  0  0  0  0  0  0  0  0
  184.6070  178.6610  144.2860 C   0  0  0  0  0  2  0  0  0  0  0  0
  186.9260  177.5030  144.5910 C   0  0  0  0  0  0  0  0  0  0  0  0
  186.0020  178.3740  143.8100 C   0  0  0  0  0  0  0  0  0  0  0  0
  185.1050  177.0640  146.2570 C   0  0  0  0  0  2  0  0  0  0  0  0
  186.3800  178.8920  142.7260 O   0  0  0  0  0  0  0  0  0  0  0  0
  184.4410  178.2950  145.7270 C   0  0  0  0  0  0  0  0  0  0  0  0
  186.5040  176.9330  145.7290 C   0  0  0  0  0  3  0  0  0  0  0  0
  194.8770  176.0180  142.3310 C   0  0  0  0  0  2  0  0  0  0  0  0
  195.8750  175.6810  141.2750 C   0  0  0  0  0  0  0  0  0  0  0  0
  195.4570  174.9160  140.1370 N   0  0  0  0  0  2  0  0  0  0  0  0
  197.0570  176.1030  141.3830 O   0  0  0  0  0  0  0  0  0  0  0  0
  197.1600  173.5210  139.0920 C   0  0  0  0  0  3  0  0  0  0  0  0
  196.9010  174.8930  136.6710 C   0  0  0  0  0  3  0  0  0  0  0  0
  197.8120  173.8390  136.7820 C   0  0  0  0  0  3  0  0  0  0  0  0
  196.1210  175.2610  137.7720 C   0  0  0  0  0  3  0  0  0  0  0  0
  196.2470  174.5770  138.9900 C   0  0  0  0  0  0  0  0  0  0  0  0
  197.9390  173.1520  137.9920 C   0  0  0  0  0  3  0  0  0  0  0  0
  195.5680  174.0270  143.6960 C   0  0  0  0  0  2  0  0  0  0  0  0
  195.3250  175.1930  145.8810 C   0  0  0  0  0  1  0  0  0  0  0  0
  196.2880  174.8370  144.7660 C   0  0  1  0  0  3  0  0  0  0  0  0
  197.1940  173.4830  146.5410 O   0  0  0  0  0  1  0  0  0  0  0  0
  197.4970  174.0880  145.3190 C   0  0  0  0  0  2  0  0  0  0  0  0
  1 10  1  0  0  0  0
  1  2  1  0  0  0  0
  2  3  2  0  0  0  0
  4  2  1  0  0  0  0
  4 32  1  0  0  0  0
  6  5  1  1  0  0  0
  6 13  1  0  0  0  0
  8 10  1  0  0  0  0
  8 12  1  1  0  0  0
  9  6  1  0  0  0  0
  9  8  1  0  0  0  0
  9 10  1  0  0  0  0
 11 16  1  0  0  0  0
 11  7  2  0  0  0  0
 12 11  1  0  0  0  0
 13 12  1  0  0  0  0
 15 20  1  0  0  0  0
 16 21  2  0  0  0  0
 17 15  1  0  0  0  0
 17 16  1  0  0  0  0
 19 17  2  0  0  0  0
 20 18  1  0  0  0  0
 20 14  2  0  0  0  0
 21 18  1  0  0  0  0
 22  4  1  0  0  0  0
 23 25  2  0  0  0  0
 23 22  1  0  0  0  0
 24 23  1  0  0  0  0
 27 28  2  0  0  0  0
 27 29  1  0  0  0  0
 28 31  1  0  0  0  0
 29 30  2  0  0  0  0
 30 26  1  0  0  0  0
 30 24  1  0  0  0  0
 31 26  2  0  0  0  0
 32 34  1  0  0  0  0
 34 36  1  0  0  0  0
 34 33  1  0  0  0  0
 36 35  1  0  0  0  0
M  END
>  <MODEL>
6

>  <REMARK>
 VINA RESULT:      -6.6      1.464      1.765
  Name = 
  8 active torsions:
  status: ('A' for Active; 'I' for Inactive)
    1  A    between atoms: C_4  and  C_17
    2  A    between atoms: C_4  and  N_36
    3  A    between atoms: N_5  and  C_14
    4  A    between atoms: C_15  and  C_20
    5  A    between atoms: C_23  and  N_28
    6  A    between atoms: C_29  and  C_31
    7  A    between atoms: C_29  and  C_32
    8  A    between atoms: C_31  and  N_36
                            x       y       z     vdW  Elec       q    Type
                         _______ _______ _______ _____ _____    ______ ____

>  <TORSDO>
F 8

$$$$
=
 OpenBabel11062422233D

 36 39  0  0  1  0  0  0  0  0999 V2000
  188.0330  175.1510  142.1600 N   0  0  0  0  0  2  0  0  0  0  0  0
  187.4370  176.4190  141.8730 C   0  0  0  0  0  0  0  0  0  0  0  0
  187.6600  176.9830  140.7660 O   0  0  0  0  0  0  0  0  0  0  0  0
  186.5980  177.0540  142.8490 N   0  0  0  0  0  0  0  0  0  0  0  0
  188.9790  172.4640  139.2120 O   0  0  0  0  0  1  0  0  0  0  0  0
  189.6890  172.2560  140.3960 C   0  0  2  0  0  3  0  0  0  0  0  0
  192.3810  175.6670  142.0140 O   0  0  0  0  0  0  0  0  0  0  0  0
  190.1340  173.9490  142.1030 C   0  0  2  0  0  3  0  0  0  0  0  0
  189.0520  173.0360  141.5510 C   0  0  1  0  0  3  0  0  0  0  0  0
  189.0030  174.5320  141.2750 C   0  0  1  0  0  3  0  0  0  0  0  0
  192.4650  174.5860  141.3690 C   0  0  0  0  0  0  0  0  0  0  0  0
  191.3070  173.7400  141.2740 N   0  0  0  0  0  0  0  0  0  0  0  0
  191.1180  172.7410  140.2380 C   0  0  0  0  0  2  0  0  0  0  0  0
  197.5820  174.1430  139.5970 O   0  0  0  0  0  0  0  0  0  0  0  0
  195.9980  172.8730  140.7950 C   0  0  0  0  0  2  0  0  0  0  0  0
  193.7620  174.2180  140.7460 C   0  0  0  0  0  0  0  0  0  0  0  0
  194.6700  173.2310  141.3960 C   0  0  0  0  0  0  0  0  0  0  0  0
  195.3710  174.4380  138.8360 C   0  0  0  0  0  2  0  0  0  0  0  0
  194.3340  172.6720  142.4740 O   0  0  0  0  0  0  0  0  0  0  0  0
  196.4050  173.8660  139.7530 C   0  0  0  0  0  0  0  0  0  0  0  0
  194.1160  174.7850  139.5830 C   0  0  0  0  0  3  0  0  0  0  0  0
  186.4470  176.4820  144.1830 C   0  0  0  0  0  2  0  0  0  0  0  0
  187.6630  176.7600  145.0010 C   0  0  0  0  0  0  0  0  0  0  0  0
  188.6220  175.7140  145.2050 N   0  0  0  0  0  2  0  0  0  0  0  0
  187.8440  177.9150  145.4680 O   0  0  0  0  0  0  0  0  0  0  0  0
  189.9660  175.3950  147.2120 C   0  0  0  0  0  3  0  0  0  0  0  0
  192.2410  176.3960  145.9330 C   0  0  0  0  0  3  0  0  0  0  0  0
  192.3170  175.9720  147.2630 C   0  0  0  0  0  3  0  0  0  0  0  0
  191.0270  176.3190  145.2440 C   0  0  0  0  0  3  0  0  0  0  0  0
  189.8810  175.8190  145.8810 C   0  0  0  0  0  0  0  0  0  0  0  0
  191.1800  175.4710  147.9010 C   0  0  0  0  0  3  0  0  0  0  0  0
  185.9610  178.3320  142.5570 C   0  0  0  0  0  2  0  0  0  0  0  0
  185.1940  179.9750  144.2630 C   0  0  0  0  0  1  0  0  0  0  0  0
  184.8900  178.6480  143.5940 C   0  0  1  0  0  3  0  0  0  0  0  0
  183.5000  178.0580  141.7170 O   0  0  0  0  0  1  0  0  0  0  0  0
  183.4960  178.6650  142.9760 C   0  0  0  0  0  2  0  0  0  0  0  0
  2  1  1  0  0  0  0
  2  4  1  0  0  0  0
  3  2  2  0  0  0  0
  4 22  1  0  0  0  0
  6  5  1  6  0  0  0
  6  9  1  0  0  0  0
  8 12  1  6  0  0  0
  9  8  1  0  0  0  0
 10  9  1  0  0  0  0
 10  8  1  0  0  0  0
 10  1  1  0  0  0  0
 11  7  2  0  0  0  0
 12 11  1  0  0  0  0
 13  6  1  0  0  0  0
 13 12  1  0  0  0  0
 14 20  2  0  0  0  0
 15 17  1  0  0  0  0
 16 11  1  0  0  0  0
 16 17  1  0  0  0  0
 17 19  2  0  0  0  0
 18 21  1  0  0  0  0
 18 20  1  0  0  0  0
 20 15  1  0  0  0  0
 21 16  2  0  0  0  0
 22 23  1  0  0  0  0
 23 24  1  0  0  0  0
 23 25  2  0  0  0  0
 24 30  1  0  0  0  0
 26 31  1  0  0  0  0
 27 28  1  0  0  0  0
 28 31  2  0  0  0  0
 29 30  1  0  0  0  0
 29 27  2  0  0  0  0
 30 26  2  0  0  0  0
 32  4  1  0  0  0  0
 32 34  1  0  0  0  0
 34 33  1  0  0  0  0
 35 36  1  0  0  0  0
 36 34  1  0  0  0  0
M  END
>  <MODEL>
7

>  <REMARK>
 VINA RESULT:      -6.6      3.026      9.648
  Name = 
  8 active torsions:
  status: ('A' for Active; 'I' for Inactive)
    1  A    between atoms: C_4  and  C_17
    2  A    between atoms: C_4  and  N_36
    3  A    between atoms: N_5  and  C_14
    4  A    between atoms: C_15  and  C_20
    5  A    between atoms: C_23  and  N_28
    6  A    between atoms: C_29  and  C_31
    7  A    between atoms: C_29  and  C_32
    8  A    between atoms: C_31  and  N_36
                            x       y       z     vdW  Elec       q    Type
                         _______ _______ _______ _____ _____    ______ ____

>  <TORSDO>
F 8

$$$$
=
 OpenBabel11062422233D

 36 39  0  0  1  0  0  0  0  0999 V2000
  191.6870  174.2760  144.1610 N   0  0  0  0  0  2  0  0  0  0  0  0
  193.1000  174.1150  143.9960 C   0  0  0  0  0  0  0  0  0  0  0  0
  193.7950  175.0750  143.5630 O   0  0  0  0  0  0  0  0  0  0  0  0
  193.7190  172.8590  144.3100 N   0  0  0  0  0  0  0  0  0  0  0  0
  191.4530  178.3520  143.7950 O   0  0  0  0  0  1  0  0  0  0  0  0
  190.3940  177.8020  144.5180 C   0  0  2  0  0  3  0  0  0  0  0  0
  187.6710  174.6660  142.4560 O   0  0  0  0  0  0  0  0  0  0  0  0
  189.6040  175.4940  144.3500 C   0  0  2  0  0  3  0  0  0  0  0  0
  190.7110  176.3590  144.9270 C   0  0  1  0  0  3  0  0  0  0  0  0
  190.9860  175.4690  143.7240 C   0  0  1  0  0  3  0  0  0  0  0  0
  187.6890  175.8930  142.7520 C   0  0  0  0  0  0  0  0  0  0  0  0
  188.7330  176.3870  143.6080 N   0  0  0  0  0  0  0  0  0  0  0  0
  189.1380  177.7790  143.6670 C   0  0  0  0  0  2  0  0  0  0  0  0
  183.3320  178.1880  140.4560 O   0  0  0  0  0  0  0  0  0  0  0  0
  184.3950  178.0960  142.5590 C   0  0  0  0  0  2  0  0  0  0  0  0
  186.6210  176.7770  142.2200 C   0  0  0  0  0  0  0  0  0  0  0  0
  185.4980  177.2280  143.0910 C   0  0  0  0  0  0  0  0  0  0  0  0
  185.6840  178.1160  140.3190 C   0  0  0  0  0  2  0  0  0  0  0  0
  185.4550  176.8860  144.3020 O   0  0  0  0  0  0  0  0  0  0  0  0
  184.3870  178.1050  141.0630 C   0  0  0  0  0  0  0  0  0  0  0  0
  186.6730  177.1720  140.9400 C   0  0  0  0  0  3  0  0  0  0  0  0
  192.9090  171.7020  144.6740 C   0  0  0  0  0  2  0  0  0  0  0  0
  192.6720  170.8440  143.4780 C   0  0  0  0  0  0  0  0  0  0  0  0
  191.4840  171.0430  142.7000 N   0  0  0  0  0  2  0  0  0  0  0  0
  193.5330  169.9850  143.1510 O   0  0  0  0  0  0  0  0  0  0  0  0
  190.9960  171.1480  140.3150 C   0  0  0  0  0  3  0  0  0  0  0  0
  190.6090  168.3820  140.2000 C   0  0  0  0  0  3  0  0  0  0  0  0
  190.4720  169.1550  139.0440 C   0  0  0  0  0  3  0  0  0  0  0  0
  190.9400  168.9930  141.4130 C   0  0  0  0  0  3  0  0  0  0  0  0
  191.1330  170.3810  141.4780 C   0  0  0  0  0  0  0  0  0  0  0  0
  190.6670  170.5370  139.1010 C   0  0  0  0  0  3  0  0  0  0  0  0
  195.1610  172.6920  144.1750 C   0  0  0  0  0  2  0  0  0  0  0  0
  196.8740  171.5820  145.5990 C   0  0  0  0  0  1  0  0  0  0  0  0
  195.8320  172.6820  145.5430 C   0  0  1  0  0  3  0  0  0  0  0  0
  196.9240  174.6640  144.7180 O   0  0  0  0  0  1  0  0  0  0  0  0
  196.4570  174.0330  145.8730 C   0  0  0  0  0  2  0  0  0  0  0  0
  2  1  1  0  0  0  0
  2  4  1  0  0  0  0
  3  2  2  0  0  0  0
  4 22  1  0  0  0  0
  6  5  1  6  0  0  0
  6  9  1  0  0  0  0
  7 11  2  0  0  0  0
  8 12  1  6  0  0  0
  8  9  1  0  0  0  0
 10  1  1  0  0  0  0
 10  8  1  0  0  0  0
 10  9  1  0  0  0  0
 11 12  1  0  0  0  0
 12 13  1  0  0  0  0
 13  6  1  0  0  0  0
 14 20  2  0  0  0  0
 15 17  1  0  0  0  0
 16 11  1  0  0  0  0
 16 17  1  0  0  0  0
 17 19  2  0  0  0  0
 18 21  1  0  0  0  0
 18 20  1  0  0  0  0
 20 15  1  0  0  0  0
 21 16  2  0  0  0  0
 23 22  1  0  0  0  0
 24 23  1  0  0  0  0
 25 23  2  0  0  0  0
 26 30  1  0  0  0  0
 27 29  1  0  0  0  0
 28 31  1  0  0  0  0
 28 27  2  0  0  0  0
 29 30  2  0  0  0  0
 30 24  1  0  0  0  0
 31 26  2  0  0  0  0
 32  4  1  0  0  0  0
 32 34  1  0  0  0  0
 34 33  1  0  0  0  0
 34 36  1  0  0  0  0
 35 36  1  0  0  0  0
M  END
>  <MODEL>
8

>  <REMARK>
 VINA RESULT:      -6.5      3.170      4.931
  Name = 
  8 active torsions:
  status: ('A' for Active; 'I' for Inactive)
    1  A    between atoms: C_4  and  C_17
    2  A    between atoms: C_4  and  N_36
    3  A    between atoms: N_5  and  C_14
    4  A    between atoms: C_15  and  C_20
    5  A    between atoms: C_23  and  N_28
    6  A    between atoms: C_29  and  C_31
    7  A    between atoms: C_29  and  C_32
    8  A    between atoms: C_31  and  N_36
                            x       y       z     vdW  Elec       q    Type
                         _______ _______ _______ _____ _____    ______ ____

>  <TORSDO>
F 8

$$$$
=
 OpenBabel11062422233D

 36 39  0  0  1  0  0  0  0  0999 V2000
  191.7890  174.0020  144.7420 N   0  0  0  0  0  2  0  0  0  0  0  0
  192.9430  174.1130  143.9040 C   0  0  0  0  0  0  0  0  0  0  0  0
  193.4090  175.2510  143.6230 O   0  0  0  0  0  0  0  0  0  0  0  0
  193.5590  172.9300  143.3730 N   0  0  0  0  0  0  0  0  0  0  0  0
  191.2260  177.1070  147.3580 O   0  0  0  0  0  1  0  0  0  0  0  0
  190.1420  176.2290  147.3040 C   0  0  2  0  0  3  0  0  0  0  0  0
  187.9890  175.5890  143.2470 O   0  0  0  0  0  0  0  0  0  0  0  0
  189.5940  174.7620  145.4260 C   0  0  2  0  0  3  0  0  0  0  0  0
  190.5390  174.9240  146.6040 C   0  0  1  0  0  3  0  0  0  0  0  0
  191.0390  175.1630  145.1870 C   0  0  1  0  0  3  0  0  0  0  0  0
  187.8580  176.2300  144.3260 C   0  0  0  0  0  0  0  0  0  0  0  0
  188.7410  175.9360  145.4220 N   0  0  0  0  0  0  0  0  0  0  0  0
  189.0060  176.8530  146.5150 C   0  0  0  0  0  2  0  0  0  0  0  0
  183.4150  179.3380  143.9740 O   0  0  0  0  0  0  0  0  0  0  0  0
  184.6570  178.1880  145.6160 C   0  0  0  0  0  2  0  0  0  0  0  0
  186.7850  177.2520  144.4310 C   0  0  0  0  0  0  0  0  0  0  0  0
  185.7660  177.1810  145.5150 C   0  0  0  0  0  0  0  0  0  0  0  0
  185.7400  179.3690  143.5870 C   0  0  0  0  0  2  0  0  0  0  0  0
  185.8160  176.2640  146.3780 O   0  0  0  0  0  0  0  0  0  0  0  0
  184.5150  178.9650  144.3450 C   0  0  0  0  0  0  0  0  0  0  0  0
  186.7390  178.2500  143.5360 C   0  0  0  0  0  3  0  0  0  0  0  0
  192.9480  171.6200  143.5730 C   0  0  0  0  0  2  0  0  0  0  0  0
  193.9320  170.6810  144.1830 C   0  0  0  0  0  0  0  0  0  0  0  0
  194.2540  170.8140  145.5740 N   0  0  0  0  0  2  0  0  0  0  0  0
  194.4360  169.7680  143.4780 O   0  0  0  0  0  0  0  0  0  0  0  0
  196.4880  170.1120  146.2470 C   0  0  0  0  0  3  0  0  0  0  0  0
  195.4390  168.1660  147.9570 C   0  0  0  0  0  3  0  0  0  0  0  0
  196.8230  168.3270  147.8490 C   0  0  0  0  0  3  0  0  0  0  0  0
  194.5810  168.9780  147.2100 C   0  0  0  0  0  3  0  0  0  0  0  0
  195.1010  169.9550  146.3480 C   0  0  0  0  0  0  0  0  0  0  0  0
  197.3470  169.3010  146.9950 C   0  0  0  0  0  3  0  0  0  0  0  0
  194.7530  173.0280  142.5420 C   0  0  0  0  0  2  0  0  0  0  0  0
  196.9540  172.3250  143.4650 C   0  0  0  0  0  1  0  0  0  0  0  0
  195.9530  173.4600  143.3740 C   0  0  1  0  0  3  0  0  0  0  0  0
  197.5700  175.2170  143.6870 O   0  0  0  0  0  1  0  0  0  0  0  0
  196.6100  174.7130  142.8060 C   0  0  0  0  0  2  0  0  0  0  0  0
  1 10  1  0  0  0  0
  2  1  1  0  0  0  0
  3  2  2  0  0  0  0
  4 22  1  0  0  0  0
  4  2  1  0  0  0  0
  6  5  1  6  0  0  0
  7 11  2  0  0  0  0
  8 12  1  1  0  0  0
  8  9  1  0  0  0  0
  9  6  1  0  0  0  0
 10  8  1  0  0  0  0
 10  9  1  0  0  0  0
 11 16  1  0  0  0  0
 11 12  1  0  0  0  0
 12 13  1  0  0  0  0
 13  6  1  0  0  0  0
 14 20  2  0  0  0  0
 16 17  1  0  0  0  0
 17 15  1  0  0  0  0
 17 19  2  0  0  0  0
 18 20  1  0  0  0  0
 20 15  1  0  0  0  0
 21 18  1  0  0  0  0
 21 16  2  0  0  0  0
 22 23  1  0  0  0  0
 23 24  1  0  0  0  0
 24 30  1  0  0  0  0
 25 23  2  0  0  0  0
 26 30  2  0  0  0  0
 26 31  1  0  0  0  0
 28 27  1  0  0  0  0
 29 27  2  0  0  0  0
 30 29  1  0  0  0  0
 31 28  2  0  0  0  0
 32  4  1  0  0  0  0
 32 34  1  0  0  0  0
 34 33  1  0  0  0  0
 36 34  1  0  0  0  0
 36 35  1  0  0  0  0
M  END
>  <MODEL>
9

>  <REMARK>
 VINA RESULT:      -6.5      2.417      5.147
  Name = 
  8 active torsions:
  status: ('A' for Active; 'I' for Inactive)
    1  A    between atoms: C_4  and  C_17
    2  A    between atoms: C_4  and  N_36
    3  A    between atoms: N_5  and  C_14
    4  A    between atoms: C_15  and  C_20
    5  A    between atoms: C_23  and  N_28
    6  A    between atoms: C_29  and  C_31
    7  A    between atoms: C_29  and  C_32
    8  A    between atoms: C_31  and  N_36
                            x       y       z     vdW  Elec       q    Type
                         _______ _______ _______ _____ _____    ______ ____

>  <TORSDO>
F 8

$$$$
