=
 OpenBabel11072409393D

 25 27  0  0  1  0  0  0  0  0999 V2000
  188.5170  177.5440  147.1160 N   0  0  0  0  0  2  0  0  0  0  0  0
  186.2230  177.5780  146.1420 N   0  0  0  0  0  0  0  0  0  0  0  0
  189.1020  176.6230  146.1880 C   0  0  0  0  0  0  0  0  0  0  0  0
  188.3810  175.7550  145.6260 O   0  0  0  0  0  0  0  0  0  0  0  0
  185.8980  177.1050  144.7590 C   0  0  1  0  0  3  0  0  0  0  0  0
  184.8610  177.6300  145.5240 C   0  0  2  0  0  3  0  0  0  0  0  0
  186.6950  178.4430  148.2410 O   0  0  0  0  0  0  0  0  0  0  0  0
  187.1230  177.8570  147.2130 C   0  0  0  0  0  0  0  0  0  0  0  0
  191.5260  176.1990  146.8350 C   0  0  0  0  0  0  0  0  0  0  0  0
  191.1640  175.7010  148.0810 O   0  0  0  0  0  1  0  0  0  0  0  0
  194.6520  176.7710  144.9500 O   0  0  0  0  0  1  0  0  0  0  0  0
  193.3000  176.7320  145.2660 C   0  0  0  0  0  0  0  0  0  0  0  0
  192.3540  177.1890  144.3470 C   0  0  0  0  0  3  0  0  0  0  0  0
  190.9930  177.1500  144.6670 C   0  0  0  0  0  3  0  0  0  0  0  0
  190.5580  176.6510  145.9070 C   0  0  0  0  0  0  0  0  0  0  0  0
  192.8850  176.2450  146.5060 C   0  0  0  0  0  3  0  0  0  0  0  0
  184.4940  179.0570  145.2390 C   0  0  0  0  0  3  0  0  0  0  0  0
  183.6440  179.3130  144.4020 O   0  0  0  0  0  0  0  0  0  0  0  0
  186.4440  178.0000  143.8250 O   0  0  0  0  0  0  0  0  0  0  0  0
  186.9690  177.4650  139.8090 O   0  0  0  0  0  0  0  0  0  0  0  0
  187.4630  176.4230  140.6170 C   0  0  0  0  0  2  0  0  0  0  0  0
  186.2820  177.3710  142.5880 C   0  0  0  0  0  3  0  0  0  0  0  0
  187.6400  176.9170  142.0530 C   0  0  0  0  0  2  0  0  0  0  0  0
  185.6380  177.6940  140.2080 C   0  0  0  0  0  2  0  0  0  0  0  0
  185.6130  178.3270  141.6010 C   0  0  0  0  0  2  0  0  0  0  0  0
  1  8  1  0  0  0  0
  2  8  1  0  0  0  0
  3  1  1  0  0  0  0
  4  3  2  0  0  0  0
  5 19  1  6  0  0  0
  5  6  1  0  0  0  0
  5  2  1  0  0  0  0
  6 17  1  6  0  0  0
  6  2  1  0  0  0  0
  8  7  2  0  0  0  0
  9 10  1  0  0  0  0
 11 12  1  0  0  0  0
 12 16  2  0  0  0  0
 13 14  2  0  0  0  0
 13 12  1  0  0  0  0
 14 15  1  0  0  0  0
 15  3  1  0  0  0  0
 15  9  2  0  0  0  0
 16  9  1  0  0  0  0
 18 17  2  0  0  0  0
 20 24  1  0  0  0  0
 20 21  1  0  0  0  0
 21 23  1  0  0  0  0
 22 19  1  0  0  0  0
 23 22  1  0  0  0  0
 24 25  1  0  0  0  0
 25 22  1  0  0  0  0
M  END
>  <MODEL>
1

>  <REMARK>
 VINA RESULT:      -6.9      0.000      0.000
  Name = 
  4 active torsions:
  status: ('A' for Active; 'I' for Inactive)
    1  A    between atoms: C_4  and  O_13
    2  A    between atoms: C_7  and  C_24
    3  A    between atoms: C_9  and  C_14
    4  A    between atoms: C_12  and  O_13
                            x       y       z     vdW  Elec       q    Type
                         _______ _______ _______ _____ _____    ______ ____

>  <TORSDO>
F 4

$$$$
=
 OpenBabel11072409393D

 25 27  0  0  1  0  0  0  0  0999 V2000
  188.5570  177.5120  147.0960 N   0  0  0  0  0  2  0  0  0  0  0  0
  186.2840  177.5840  146.0760 N   0  0  0  0  0  0  0  0  0  0  0  0
  189.1370  176.5600  146.1970 C   0  0  0  0  0  0  0  0  0  0  0  0
  188.4060  175.6990  145.6370 O   0  0  0  0  0  0  0  0  0  0  0  0
  185.9750  177.0930  144.6960 C   0  0  1  0  0  3  0  0  0  0  0  0
  184.9360  177.6570  145.4300 C   0  0  2  0  0  3  0  0  0  0  0  0
  186.7360  178.4770  148.1670 O   0  0  0  0  0  0  0  0  0  0  0  0
  187.1700  177.8620  147.1590 C   0  0  0  0  0  0  0  0  0  0  0  0
  191.1860  177.1550  144.8100 C   0  0  0  0  0  0  0  0  0  0  0  0
  190.4170  177.8050  143.8510 O   0  0  0  0  0  1  0  0  0  0  0  0
  194.7650  176.4430  145.3860 O   0  0  0  0  0  1  0  0  0  0  0  0
  193.3890  176.4760  145.5700 C   0  0  0  0  0  0  0  0  0  0  0  0
  192.8190  175.8650  146.6880 C   0  0  0  0  0  3  0  0  0  0  0  0
  191.4330  175.8990  146.8720 C   0  0  0  0  0  3  0  0  0  0  0  0
  190.5980  176.5460  145.9450 C   0  0  0  0  0  0  0  0  0  0  0  0
  192.5730  177.1120  144.6340 C   0  0  0  0  0  3  0  0  0  0  0  0
  184.6110  179.0880  145.1110 C   0  0  0  0  0  3  0  0  0  0  0  0
  183.6980  179.3500  144.3450 O   0  0  0  0  0  0  0  0  0  0  0  0
  186.5610  177.9560  143.7570 O   0  0  0  0  0  0  0  0  0  0  0  0
  186.8570  177.4940  139.7080 O   0  0  0  0  0  0  0  0  0  0  0  0
  187.3680  176.4230  140.4680 C   0  0  0  0  0  2  0  0  0  0  0  0
  186.3170  177.3580  142.5180 C   0  0  0  0  0  3  0  0  0  0  0  0
  187.6330  176.8830  141.9020 C   0  0  0  0  0  2  0  0  0  0  0  0
  185.5560  177.7460  140.1830 C   0  0  0  0  0  2  0  0  0  0  0  0
  185.6210  178.3490  141.5870 C   0  0  0  0  0  2  0  0  0  0  0  0
  1  8  1  0  0  0  0
  2  8  1  0  0  0  0
  3  1  1  0  0  0  0
  4  3  2  0  0  0  0
  5 19  1  6  0  0  0
  5  6  1  0  0  0  0
  5  2  1  0  0  0  0
  6 17  1  6  0  0  0
  6  2  1  0  0  0  0
  8  7  2  0  0  0  0
  9 15  1  0  0  0  0
 10  9  1  0  0  0  0
 11 12  1  0  0  0  0
 12 13  2  0  0  0  0
 13 14  1  0  0  0  0
 15  3  1  0  0  0  0
 15 14  2  0  0  0  0
 16  9  2  0  0  0  0
 16 12  1  0  0  0  0
 18 17  2  0  0  0  0
 20 24  1  0  0  0  0
 20 21  1  0  0  0  0
 21 23  1  0  0  0  0
 22 19  1  0  0  0  0
 23 22  1  0  0  0  0
 24 25  1  0  0  0  0
 25 22  1  0  0  0  0
M  END
>  <MODEL>
2

>  <REMARK>
 VINA RESULT:      -6.8      0.768      1.373
  Name = 
  4 active torsions:
  status: ('A' for Active; 'I' for Inactive)
    1  A    between atoms: C_4  and  O_13
    2  A    between atoms: C_7  and  C_24
    3  A    between atoms: C_9  and  C_14
    4  A    between atoms: C_12  and  O_13
                            x       y       z     vdW  Elec       q    Type
                         _______ _______ _______ _____ _____    ______ ____

>  <TORSDO>
F 4

$$$$
=
 OpenBabel11072409393D

 25 27  0  0  1  0  0  0  0  0999 V2000
  188.4870  176.9630  141.8530 N   0  0  0  0  0  2  0  0  0  0  0  0
  186.3600  178.1920  142.2730 N   0  0  0  0  0  0  0  0  0  0  0  0
  189.0230  177.0560  143.1790 C   0  0  0  0  0  0  0  0  0  0  0  0
  188.7100  178.0290  143.9160 O   0  0  0  0  0  0  0  0  0  0  0  0
  185.7960  178.4390  143.6380 C   0  0  1  0  0  3  0  0  0  0  0  0
  185.0640  178.8910  142.5440 C   0  0  2  0  0  3  0  0  0  0  0  0
  187.1230  177.7240  140.1350 O   0  0  0  0  0  0  0  0  0  0  0  0
  187.3250  177.6490  141.3750 C   0  0  0  0  0  0  0  0  0  0  0  0
  191.3780  176.1630  143.5380 C   0  0  0  0  0  0  0  0  0  0  0  0
  191.9500  177.2560  142.8990 O   0  0  0  0  0  1  0  0  0  0  0  0
  192.5500  173.0770  145.2000 O   0  0  0  0  0  1  0  0  0  0  0  0
  191.6990  174.0540  144.6990 C   0  0  0  0  0  0  0  0  0  0  0  0
  190.3170  173.9180  144.8410 C   0  0  0  0  0  3  0  0  0  0  0  0
  189.4630  174.9030  144.3360 C   0  0  0  0  0  3  0  0  0  0  0  0
  189.9760  176.0390  143.6850 C   0  0  0  0  0  0  0  0  0  0  0  0
  192.2250  175.1700  144.0450 C   0  0  0  0  0  3  0  0  0  0  0  0
  183.9240  178.0140  142.1120 C   0  0  0  0  0  3  0  0  0  0  0  0
  182.7770  178.4210  142.1990 O   0  0  0  0  0  0  0  0  0  0  0  0
  185.3470  177.2240  144.1790 O   0  0  0  0  0  0  0  0  0  0  0  0
  186.7790  178.4200  147.8130 O   0  0  0  0  0  0  0  0  0  0  0  0
  185.6340  179.1090  147.3700 C   0  0  0  0  0  2  0  0  0  0  0  0
  185.3110  177.4360  145.5590 C   0  0  0  0  0  3  0  0  0  0  0  0
  185.4690  178.9260  145.8600 C   0  0  0  0  0  2  0  0  0  0  0  0
  186.4930  177.0450  147.7120 C   0  0  0  0  0  2  0  0  0  0  0  0
  186.4200  176.6340  146.2400 C   0  0  0  0  0  2  0  0  0  0  0  0
  1  3  1  0  0  0  0
  2  6  1  0  0  0  0
  2  5  1  0  0  0  0
  3 15  1  0  0  0  0
  3  4  2  0  0  0  0
  5 19  1  6  0  0  0
  6 17  1  6  0  0  0
  6  5  1  0  0  0  0
  7  8  2  0  0  0  0
  8  1  1  0  0  0  0
  8  2  1  0  0  0  0
  9 15  2  0  0  0  0
  9 16  1  0  0  0  0
 10  9  1  0  0  0  0
 12 13  1  0  0  0  0
 12 11  1  0  0  0  0
 14 13  2  0  0  0  0
 15 14  1  0  0  0  0
 16 12  2  0  0  0  0
 17 18  2  0  0  0  0
 19 22  1  0  0  0  0
 21 20  1  0  0  0  0
 22 23  1  0  0  0  0
 22 25  1  0  0  0  0
 23 21  1  0  0  0  0
 24 20  1  0  0  0  0
 25 24  1  0  0  0  0
M  END
>  <MODEL>
3

>  <REMARK>
 VINA RESULT:      -6.8      2.398      4.631
  Name = 
  4 active torsions:
  status: ('A' for Active; 'I' for Inactive)
    1  A    between atoms: C_4  and  O_13
    2  A    between atoms: C_7  and  C_24
    3  A    between atoms: C_9  and  C_14
    4  A    between atoms: C_12  and  O_13
                            x       y       z     vdW  Elec       q    Type
                         _______ _______ _______ _____ _____    ______ ____

>  <TORSDO>
F 4

$$$$
=
 OpenBabel11072409393D

 25 27  0  0  1  0  0  0  0  0999 V2000
  187.7850  176.1570  141.0070 N   0  0  0  0  0  2  0  0  0  0  0  0
  186.2440  177.8200  142.0400 N   0  0  0  0  0  0  0  0  0  0  0  0
  188.6120  175.9270  142.1540 C   0  0  0  0  0  0  0  0  0  0  0  0
  188.7620  176.8390  143.0120 O   0  0  0  0  0  0  0  0  0  0  0  0
  186.0970  178.0150  143.5180 C   0  0  1  0  0  3  0  0  0  0  0  0
  185.2940  178.7840  142.6810 C   0  0  2  0  0  3  0  0  0  0  0  0
  186.3380  177.4680  139.7510 O   0  0  0  0  0  0  0  0  0  0  0  0
  186.7860  177.1750  140.8890 C   0  0  0  0  0  0  0  0  0  0  0  0
  190.7370  174.5580  142.4400 C   0  0  0  0  0  0  0  0  0  0  0  0
  191.5410  175.6910  142.3880 O   0  0  0  0  0  1  0  0  0  0  0  0
  191.2110  170.9160  142.8460 O   0  0  0  0  0  1  0  0  0  0  0  0
  190.5890  172.1450  142.6740 C   0  0  0  0  0  0  0  0  0  0  0  0
  189.2000  172.2160  142.5560 C   0  0  0  0  0  3  0  0  0  0  0  0
  188.5760  173.4550  142.3830 C   0  0  0  0  0  3  0  0  0  0  0  0
  189.3280  174.6410  142.3290 C   0  0  0  0  0  0  0  0  0  0  0  0
  191.3520  173.3120  142.6100 C   0  0  0  0  0  3  0  0  0  0  0  0
  183.8860  178.2960  142.4960 C   0  0  0  0  0  3  0  0  0  0  0  0
  183.3920  178.2700  141.3810 O   0  0  0  0  0  0  0  0  0  0  0  0
  185.4590  176.8930  144.0700 O   0  0  0  0  0  0  0  0  0  0  0  0
  186.0870  178.9130  147.5660 O   0  0  0  0  0  0  0  0  0  0  0  0
  184.8290  178.2880  147.4570 C   0  0  0  0  0  2  0  0  0  0  0  0
  185.6050  177.0410  145.4520 C   0  0  0  0  0  3  0  0  0  0  0  0
  184.5260  177.9800  145.9900 C   0  0  0  0  0  2  0  0  0  0  0  0
  187.0540  177.9350  147.2630 C   0  0  0  0  0  2  0  0  0  0  0  0
  186.9950  177.5850  145.7750 C   0  0  0  0  0  2  0  0  0  0  0  0
  1  3  1  0  0  0  0
  2  6  1  0  0  0  0
  2  5  1  0  0  0  0
  3 15  1  0  0  0  0
  3  4  2  0  0  0  0
  5 19  1  1  0  0  0
  6 17  1  1  0  0  0
  6  5  1  0  0  0  0
  7  8  2  0  0  0  0
  8  1  1  0  0  0  0
  8  2  1  0  0  0  0
  9 16  1  0  0  0  0
 10  9  1  0  0  0  0
 12 11  1  0  0  0  0
 13 12  1  0  0  0  0
 14 13  2  0  0  0  0
 15 14  1  0  0  0  0
 15  9  2  0  0  0  0
 16 12  2  0  0  0  0
 18 17  2  0  0  0  0
 19 22  1  0  0  0  0
 21 20  1  0  0  0  0
 22 25  1  0  0  0  0
 22 23  1  0  0  0  0
 23 21  1  0  0  0  0
 24 20  1  0  0  0  0
 25 24  1  0  0  0  0
M  END
>  <MODEL>
4

>  <REMARK>
 VINA RESULT:      -6.5      3.150      5.305
  Name = 
  4 active torsions:
  status: ('A' for Active; 'I' for Inactive)
    1  A    between atoms: C_4  and  O_13
    2  A    between atoms: C_7  and  C_24
    3  A    between atoms: C_9  and  C_14
    4  A    between atoms: C_12  and  O_13
                            x       y       z     vdW  Elec       q    Type
                         _______ _______ _______ _____ _____    ______ ____

>  <TORSDO>
F 4

$$$$
=
 OpenBabel11072409393D

 25 27  0  0  1  0  0  0  0  0999 V2000
  186.6910  176.1420  142.3850 N   0  0  0  0  0  2  0  0  0  0  0  0
  186.2420  177.6950  144.2820 N   0  0  0  0  0  0  0  0  0  0  0  0
  188.0500  175.8300  142.7160 C   0  0  0  0  0  0  0  0  0  0  0  0
  188.7530  176.6700  143.3390 O   0  0  0  0  0  0  0  0  0  0  0  0
  187.0830  177.7660  145.5180 C   0  0  1  0  0  3  0  0  0  0  0  0
  185.9640  178.5900  145.4480 C   0  0  2  0  0  3  0  0  0  0  0  0
  184.8330  177.5320  142.4470 O   0  0  0  0  0  0  0  0  0  0  0  0
  185.8940  177.1530  143.0090 C   0  0  0  0  0  0  0  0  0  0  0  0
  188.7140  174.1260  140.9460 C   0  0  0  0  0  0  0  0  0  0  0  0
  188.1940  174.9060  139.9200 O   0  0  0  0  0  1  0  0  0  0  0  0
  190.4360  170.8730  141.2700 O   0  0  0  0  0  1  0  0  0  0  0  0
  189.8480  172.0840  141.6100 C   0  0  0  0  0  0  0  0  0  0  0  0
  189.7890  172.4820  142.9470 C   0  0  0  0  0  3  0  0  0  0  0  0
  189.1960  173.7020  143.2870 C   0  0  0  0  0  3  0  0  0  0  0  0
  188.6570  174.5430  142.2980 C   0  0  0  0  0  0  0  0  0  0  0  0
  189.3070  172.9020  140.6170 C   0  0  0  0  0  3  0  0  0  0  0  0
  184.7450  178.1010  146.1760 C   0  0  0  0  0  3  0  0  0  0  0  0
  184.4640  178.5590  147.2710 O   0  0  0  0  0  0  0  0  0  0  0  0
  186.8990  176.5950  146.2690 O   0  0  0  0  0  0  0  0  0  0  0  0
  190.9160  175.9900  146.7140 O   0  0  0  0  0  0  0  0  0  0  0  0
  190.4400  177.2180  147.2140 C   0  0  0  0  0  2  0  0  0  0  0  0
  188.0960  176.4260  146.9700 C   0  0  0  0  0  3  0  0  0  0  0  0
  189.0780  177.5380  146.5980 C   0  0  0  0  0  2  0  0  0  0  0  0
  190.1000  174.9830  147.2640 C   0  0  0  0  0  2  0  0  0  0  0  0
  188.6970  175.0570  146.6560 C   0  0  0  0  0  2  0  0  0  0  0  0
  1  3  1  0  0  0  0
  1  8  1  0  0  0  0
  2  6  1  0  0  0  0
  2  5  1  0  0  0  0
  3  4  2  0  0  0  0
  5 19  1  1  0  0  0
  6  5  1  0  0  0  0
  6 17  1  1  0  0  0
  7  8  2  0  0  0  0
  8  2  1  0  0  0  0
  9 15  1  0  0  0  0
 10  9  1  0  0  0  0
 11 12  1  0  0  0  0
 12 13  2  0  0  0  0
 13 14  1  0  0  0  0
 15  3  1  0  0  0  0
 15 14  2  0  0  0  0
 16  9  2  0  0  0  0
 16 12  1  0  0  0  0
 17 18  2  0  0  0  0
 19 22  1  0  0  0  0
 20 21  1  0  0  0  0
 20 24  1  0  0  0  0
 23 22  1  0  0  0  0
 23 21  1  0  0  0  0
 25 22  1  0  0  0  0
 25 24  1  0  0  0  0
M  END
>  <MODEL>
5

>  <REMARK>
 VINA RESULT:      -6.4      2.899      5.599
  Name = 
  4 active torsions:
  status: ('A' for Active; 'I' for Inactive)
    1  A    between atoms: C_4  and  O_13
    2  A    between atoms: C_7  and  C_24
    3  A    between atoms: C_9  and  C_14
    4  A    between atoms: C_12  and  O_13
                            x       y       z     vdW  Elec       q    Type
                         _______ _______ _______ _____ _____    ______ ____

>  <TORSDO>
F 4

$$$$
=
 OpenBabel11072409393D

 25 27  0  0  1  0  0  0  0  0999 V2000
  188.3380  177.6820  145.4480 N   0  0  0  0  0  2  0  0  0  0  0  0
  186.5870  177.3050  143.7160 N   0  0  0  0  0  0  0  0  0  0  0  0
  189.0040  176.4200  145.3200 C   0  0  0  0  0  0  0  0  0  0  0  0
  188.3590  175.4060  144.9400 O   0  0  0  0  0  0  0  0  0  0  0  0
  186.6710  176.2440  142.6630 C   0  0  1  0  0  3  0  0  0  0  0  0
  185.5660  177.0900  142.6420 C   0  0  2  0  0  3  0  0  0  0  0  0
  186.4700  179.0450  145.2430 O   0  0  0  0  0  0  0  0  0  0  0  0
  187.0960  178.0350  144.8300 C   0  0  0  0  0  0  0  0  0  0  0  0
  190.8840  175.5480  146.7970 C   0  0  0  0  0  0  0  0  0  0  0  0
  189.9920  174.9160  147.6550 O   0  0  0  0  0  1  0  0  0  0  0  0
  194.5460  175.9510  146.5120 O   0  0  0  0  0  1  0  0  0  0  0  0
  193.1900  176.0600  146.2340 C   0  0  0  0  0  0  0  0  0  0  0  0
  192.7600  176.7910  145.1250 C   0  0  0  0  0  3  0  0  0  0  0  0
  191.3940  176.9000  144.8470 C   0  0  0  0  0  3  0  0  0  0  0  0
  190.4380  176.2790  145.6700 C   0  0  0  0  0  0  0  0  0  0  0  0
  192.2530  175.4480  147.0680 C   0  0  0  0  0  3  0  0  0  0  0  0
  185.6280  178.2230  141.6590 C   0  0  0  0  0  3  0  0  0  0  0  0
  184.9270  178.2030  140.6610 O   0  0  0  0  0  0  0  0  0  0  0  0
  187.6810  176.5800  141.7480 O   0  0  0  0  0  0  0  0  0  0  0  0
  189.4970  172.9760  142.3820 O   0  0  0  0  0  0  0  0  0  0  0  0
  188.2320  172.9040  141.7670 C   0  0  0  0  0  2  0  0  0  0  0  0
  188.2610  175.3610  141.3880 C   0  0  0  0  0  3  0  0  0  0  0  0
  187.4660  174.2070  141.9990 C   0  0  0  0  0  2  0  0  0  0  0  0
  190.2580  173.9010  141.6430 C   0  0  0  0  0  2  0  0  0  0  0  0
  189.7140  175.3150  141.8590 C   0  0  0  0  0  2  0  0  0  0  0  0
  2  8  1  0  0  0  0
  3  1  1  0  0  0  0
  3 15  1  0  0  0  0
  4  3  2  0  0  0  0
  5 19  1  6  0  0  0
  5  2  1  0  0  0  0
  6 17  1  6  0  0  0
  6  5  1  0  0  0  0
  6  2  1  0  0  0  0
  8  7  2  0  0  0  0
  8  1  1  0  0  0  0
  9 16  1  0  0  0  0
  9 10  1  0  0  0  0
 12 11  1  0  0  0  0
 12 16  2  0  0  0  0
 13 12  1  0  0  0  0
 14 13  2  0  0  0  0
 14 15  1  0  0  0  0
 15  9  2  0  0  0  0
 18 17  2  0  0  0  0
 21 23  1  0  0  0  0
 21 20  1  0  0  0  0
 22 19  1  0  0  0  0
 22 25  1  0  0  0  0
 22 23  1  0  0  0  0
 24 25  1  0  0  0  0
 24 20  1  0  0  0  0
M  END
>  <MODEL>
6

>  <REMARK>
 VINA RESULT:      -6.3      2.016      2.953
  Name = 
  4 active torsions:
  status: ('A' for Active; 'I' for Inactive)
    1  A    between atoms: C_4  and  O_13
    2  A    between atoms: C_7  and  C_24
    3  A    between atoms: C_9  and  C_14
    4  A    between atoms: C_12  and  O_13
                            x       y       z     vdW  Elec       q    Type
                         _______ _______ _______ _____ _____    ______ ____

>  <TORSDO>
F 4

$$$$
=
 OpenBabel11072409393D

 25 27  0  0  1  0  0  0  0  0999 V2000
  188.8170  176.0410  145.8440 N   0  0  0  0  0  2  0  0  0  0  0  0
  186.5200  176.9100  145.4220 N   0  0  0  0  0  0  0  0  0  0  0  0
  189.1550  175.7360  144.4850 C   0  0  0  0  0  0  0  0  0  0  0  0
  188.2470  175.4350  143.6650 O   0  0  0  0  0  0  0  0  0  0  0  0
  186.0260  177.3420  144.0760 C   0  0  1  0  0  3  0  0  0  0  0  0
  185.1590  177.4730  145.1570 C   0  0  2  0  0  3  0  0  0  0  0  0
  187.2760  176.3770  147.5480 O   0  0  0  0  0  0  0  0  0  0  0  0
  187.5200  176.4220  146.3140 C   0  0  0  0  0  0  0  0  0  0  0  0
  191.1490  176.8020  143.3170 C   0  0  0  0  0  0  0  0  0  0  0  0
  190.4170  177.9340  142.9790 O   0  0  0  0  0  1  0  0  0  0  0  0
  194.6040  175.5730  142.8610 O   0  0  0  0  0  1  0  0  0  0  0  0
  193.2710  175.6240  143.2490 C   0  0  0  0  0  0  0  0  0  0  0  0
  192.7060  174.5580  143.9520 C   0  0  0  0  0  3  0  0  0  0  0  0
  191.3650  174.6120  144.3410 C   0  0  0  0  0  3  0  0  0  0  0  0
  190.5690  175.7300  144.0380 C   0  0  0  0  0  0  0  0  0  0  0  0
  192.4920  176.7370  142.9290 C   0  0  0  0  0  3  0  0  0  0  0  0
  185.0610  178.8480  145.7540 C   0  0  0  0  0  3  0  0  0  0  0  0
  185.4310  179.0420  146.9000 O   0  0  0  0  0  0  0  0  0  0  0  0
  186.6790  178.5280  143.7040 O   0  0  0  0  0  0  0  0  0  0  0  0
  185.4610  177.3060  140.0010 O   0  0  0  0  0  0  0  0  0  0  0  0
  184.7780  178.4270  140.5110 C   0  0  0  0  0  2  0  0  0  0  0  0
  186.4610  178.6420  142.3290 C   0  0  0  0  0  3  0  0  0  0  0  0
  184.9680  178.5070  142.0270 C   0  0  0  0  0  2  0  0  0  0  0  0
  186.8370  177.5810  140.1120 C   0  0  0  0  0  2  0  0  0  0  0  0
  187.2540  177.5700  141.5840 C   0  0  0  0  0  2  0  0  0  0  0  0
  1  8  1  0  0  0  0
  2  8  1  0  0  0  0
  3  1  1  0  0  0  0
  4  3  2  0  0  0  0
  5 19  1  1  0  0  0
  5  6  1  0  0  0  0
  5  2  1  0  0  0  0
  6  2  1  0  0  0  0
  6 17  1  1  0  0  0
  8  7  2  0  0  0  0
  9 15  1  0  0  0  0
 10  9  1  0  0  0  0
 11 12  1  0  0  0  0
 12 13  2  0  0  0  0
 13 14  1  0  0  0  0
 15 14  2  0  0  0  0
 15  3  1  0  0  0  0
 16 12  1  0  0  0  0
 16  9  2  0  0  0  0
 17 18  2  0  0  0  0
 20 24  1  0  0  0  0
 20 21  1  0  0  0  0
 21 23  1  0  0  0  0
 22 19  1  0  0  0  0
 23 22  1  0  0  0  0
 24 25  1  0  0  0  0
 25 22  1  0  0  0  0
M  END
>  <MODEL>
7

>  <REMARK>
 VINA RESULT:      -6.2      1.919      2.439
  Name = 
  4 active torsions:
  status: ('A' for Active; 'I' for Inactive)
    1  A    between atoms: C_4  and  O_13
    2  A    between atoms: C_7  and  C_24
    3  A    between atoms: C_9  and  C_14
    4  A    between atoms: C_12  and  O_13
                            x       y       z     vdW  Elec       q    Type
                         _______ _______ _______ _____ _____    ______ ____

>  <TORSDO>
F 4

$$$$
=
 OpenBabel11072409393D

 25 27  0  0  1  0  0  0  0  0999 V2000
  190.5510  176.9330  146.1720 N   0  0  0  0  0  2  0  0  0  0  0  0
  192.2360  175.7380  144.7770 N   0  0  0  0  0  0  0  0  0  0  0  0
  189.5910  177.1790  145.1370 C   0  0  0  0  0  0  0  0  0  0  0  0
  189.9730  177.2970  143.9420 O   0  0  0  0  0  0  0  0  0  0  0  0
  191.9370  175.1470  143.4340 C   0  0  1  0  0  3  0  0  0  0  0  0
  193.2220  174.9820  143.9430 C   0  0  2  0  0  3  0  0  0  0  0  0
  192.7160  176.5220  146.9050 O   0  0  0  0  0  0  0  0  0  0  0  0
  191.8730  176.4190  145.9770 C   0  0  0  0  0  0  0  0  0  0  0  0
  187.5050  176.5870  146.4690 C   0  0  0  0  0  0  0  0  0  0  0  0
  188.1870  175.6400  147.2220 O   0  0  0  0  0  1  0  0  0  0  0  0
  184.0680  177.9310  146.2720 O   0  0  0  0  0  1  0  0  0  0  0  0
  185.4170  177.7350  146.0020 C   0  0  0  0  0  0  0  0  0  0  0  0
  186.0440  178.4760  144.9990 C   0  0  0  0  0  3  0  0  0  0  0  0
  187.4020  178.2770  144.7300 C   0  0  0  0  0  3  0  0  0  0  0  0
  188.1530  177.3400  145.4600 C   0  0  0  0  0  0  0  0  0  0  0  0
  186.1450  176.7920  146.7280 C   0  0  0  0  0  3  0  0  0  0  0  0
  193.5050  173.6540  144.5850 C   0  0  0  0  0  3  0  0  0  0  0  0
  193.8690  173.6050  145.7490 O   0  0  0  0  0  0  0  0  0  0  0  0
  191.0980  174.0340  143.5960 O   0  0  0  0  0  0  0  0  0  0  0  0
  188.1360  172.6810  141.1280 O   0  0  0  0  0  0  0  0  0  0  0  0
  187.9440  173.9830  141.6300 C   0  0  0  0  0  2  0  0  0  0  0  0
  190.2870  174.0260  142.4580 C   0  0  0  0  0  3  0  0  0  0  0  0
  188.8230  174.2020  142.8620 C   0  0  0  0  0  2  0  0  0  0  0  0
  189.4310  172.6450  140.5760 C   0  0  0  0  0  2  0  0  0  0  0  0
  190.4760  172.7180  141.6920 C   0  0  0  0  0  2  0  0  0  0  0  0
  2  8  1  0  0  0  0
  3 15  1  0  0  0  0
  3  1  1  0  0  0  0
  4  3  2  0  0  0  0
  5 19  1  1  0  0  0
  5  6  1  0  0  0  0
  5  2  1  0  0  0  0
  6 17  1  1  0  0  0
  6  2  1  0  0  0  0
  8  1  1  0  0  0  0
  8  7  2  0  0  0  0
  9 16  1  0  0  0  0
  9 10  1  0  0  0  0
 12 11  1  0  0  0  0
 12 16  2  0  0  0  0
 13 12  1  0  0  0  0
 14 13  2  0  0  0  0
 14 15  1  0  0  0  0
 15  9  2  0  0  0  0
 17 18  2  0  0  0  0
 20 21  1  0  0  0  0
 21 23  1  0  0  0  0
 22 23  1  0  0  0  0
 22 19  1  0  0  0  0
 24 20  1  0  0  0  0
 24 25  1  0  0  0  0
 25 22  1  0  0  0  0
M  END
>  <MODEL>
8

>  <REMARK>
 VINA RESULT:      -6.1      2.893      6.359
  Name = 
  4 active torsions:
  status: ('A' for Active; 'I' for Inactive)
    1  A    between atoms: C_4  and  O_13
    2  A    between atoms: C_7  and  C_24
    3  A    between atoms: C_9  and  C_14
    4  A    between atoms: C_12  and  O_13
                            x       y       z     vdW  Elec       q    Type
                         _______ _______ _______ _____ _____    ______ ____

>  <TORSDO>
F 4

$$$$
=
 OpenBabel11072409393D

 25 27  0  0  1  0  0  0  0  0999 V2000
  186.7910  175.9480  142.3020 N   0  0  0  0  0  2  0  0  0  0  0  0
  187.1930  177.0300  144.5110 N   0  0  0  0  0  0  0  0  0  0  0  0
  188.1560  175.6410  141.9920 C   0  0  0  0  0  0  0  0  0  0  0  0
  189.0820  176.3620  142.4540 O   0  0  0  0  0  0  0  0  0  0  0  0
  188.4570  176.8740  145.2980 C   0  0  1  0  0  3  0  0  0  0  0  0
  187.4360  177.6360  145.8580 C   0  0  2  0  0  3  0  0  0  0  0  0
  185.1670  177.1960  143.3960 O   0  0  0  0  0  0  0  0  0  0  0  0
  186.3470  176.7590  143.3950 C   0  0  0  0  0  0  0  0  0  0  0  0
  189.1140  173.3230  141.5640 C   0  0  0  0  0  0  0  0  0  0  0  0
  189.4490  173.1540  142.9020 O   0  0  0  0  0  1  0  0  0  0  0  0
  189.3690  171.3690  138.4380 O   0  0  0  0  0  1  0  0  0  0  0  0
  189.0810  172.4060  139.3160 C   0  0  0  0  0  0  0  0  0  0  0  0
  188.4780  173.5740  138.8450 C   0  0  0  0  0  3  0  0  0  0  0  0
  188.1890  174.6170  139.7300 C   0  0  0  0  0  3  0  0  0  0  0  0
  188.4950  174.5080  141.0980 C   0  0  0  0  0  0  0  0  0  0  0  0
  189.4020  172.2870  140.6690 C   0  0  0  0  0  3  0  0  0  0  0  0
  186.5870  176.9400  146.8810 C   0  0  0  0  0  3  0  0  0  0  0  0
  185.3980  177.2000  146.9660 O   0  0  0  0  0  0  0  0  0  0  0  0
  188.5400  175.5600  145.7850 O   0  0  0  0  0  0  0  0  0  0  0  0
  192.2370  176.4650  147.2680 O   0  0  0  0  0  0  0  0  0  0  0  0
  191.6480  175.3040  147.8070 C   0  0  0  0  0  2  0  0  0  0  0  0
  189.8980  175.3560  146.0420 C   0  0  0  0  0  3  0  0  0  0  0  0
  190.1400  175.3200  147.5510 C   0  0  0  0  0  2  0  0  0  0  0  0
  192.1740  176.3400  145.8670 C   0  0  0  0  0  2  0  0  0  0  0  0
  190.7240  176.4670  145.3970 C   0  0  0  0  0  2  0  0  0  0  0  0
  1  8  1  0  0  0  0
  2  5  1  0  0  0  0
  2  6  1  0  0  0  0
  3  1  1  0  0  0  0
  3  4  2  0  0  0  0
  5 19  1  1  0  0  0
  5  6  1  0  0  0  0
  6 17  1  1  0  0  0
  8  7  2  0  0  0  0
  8  2  1  0  0  0  0
  9 10  1  0  0  0  0
 11 12  1  0  0  0  0
 12 16  1  0  0  0  0
 13 12  2  0  0  0  0
 13 14  1  0  0  0  0
 14 15  2  0  0  0  0
 15  9  1  0  0  0  0
 15  3  1  0  0  0  0
 16  9  2  0  0  0  0
 17 18  2  0  0  0  0
 19 22  1  0  0  0  0
 20 21  1  0  0  0  0
 22 23  1  0  0  0  0
 23 21  1  0  0  0  0
 24 20  1  0  0  0  0
 25 24  1  0  0  0  0
 25 22  1  0  0  0  0
M  END
>  <MODEL>
9

>  <REMARK>
 VINA RESULT:      -6.0      2.790      6.145
  Name = 
  4 active torsions:
  status: ('A' for Active; 'I' for Inactive)
    1  A    between atoms: C_4  and  O_13
    2  A    between atoms: C_7  and  C_24
    3  A    between atoms: C_9  and  C_14
    4  A    between atoms: C_12  and  O_13
                            x       y       z     vdW  Elec       q    Type
                         _______ _______ _______ _____ _____    ______ ____

>  <TORSDO>
F 4

$$$$
