=
 OpenBabel11062421043D

 38 42  0  0  1  0  0  0  0  0999 V2000
  191.1660  175.3990  145.8280 C   0  0  0  0  0  0  0  0  0  0  0  0
  193.7950  177.4990  145.3240 O   0  0  0  0  0  0  0  0  0  0  0  0
  189.8390  176.6560  144.1200 C   0  0  0  0  0  3  0  0  0  0  0  0
  192.8500  176.8690  144.7780 C   0  0  0  0  0  0  0  0  0  0  0  0
  189.5180  174.8940  147.3090 C   0  0  0  0  0  2  0  0  0  0  0  0
  189.9600  175.9940  145.2760 C   0  0  0  0  0  0  0  0  0  0  0  0
  190.9770  176.8690  143.1680 C   0  0  0  0  0  2  0  0  0  0  0  0
  192.5290  175.4540  145.1850 C   0  0  1  0  0  3  0  0  0  0  0  0
  188.8430  175.7430  146.2220 C   0  0  2  0  0  3  0  0  0  0  0  0
  190.9270  174.7950  146.9410 N   0  0  0  0  0  0  0  0  0  0  0  0
  192.0710  177.5140  143.8130 O   0  0  0  0  0  0  0  0  0  0  0  0
  193.6320  174.8340  146.0430 C   0  0  0  0  0  2  0  0  0  0  0  0
  193.8350  173.3750  145.6660 C   0  0  0  0  0  2  0  0  0  0  0  0
  193.6890  173.1920  144.1600 C   0  0  1  0  0  3  0  0  0  0  0  0
  195.0740  173.0650  143.5420 C   0  0  0  0  0  1  0  0  0  0  0  0
  192.8500  171.9460  143.8510 C   0  0  1  0  0  3  0  0  0  0  0  0
  193.3580  170.7360  144.5830 C   0  0  0  0  0  3  0  0  0  0  0  0
  193.2420  169.5620  144.0780 N   0  0  0  0  0  2  0  0  0  0  0  0
  191.4530  172.1700  144.1970 N   0  0  0  0  0  2  0  0  0  0  0  0
  189.2160  171.9160  143.3070 C   0  0  0  0  0  2  0  0  0  0  0  0
  189.7780  173.2360  142.8160 C   0  0  1  0  0  3  0  0  0  0  0  0
  190.6870  172.0300  142.9710 C   0  0  1  0  0  3  0  0  0  0  0  0
  189.4570  173.4310  141.3710 C   0  0  0  0  0  0  0  0  0  0  0  0
  190.1800  174.1900  140.6700 O   0  0  0  0  0  0  0  0  0  0  0  0
  188.3380  172.8050  140.8180 O   0  0  0  0  0  0  0  0  0  0  0  0
  188.1510  172.7060  139.4150 C   0  0  0  0  0  1  0  0  0  0  0  0
  188.3560  177.0580  146.8220 C   0  0  0  0  0  2  0  0  0  0  0  0
  186.8550  177.0270  147.0760 C   0  0  0  0  0  2  0  0  0  0  0  0
  184.0830  178.1590  142.0140 C   0  0  0  0  0  0  0  0  0  0  0  0
  183.6410  178.2400  140.6640 N   0  0  0  0  0  1  0  0  0  0  0  0
  183.9220  178.9530  145.4540 C   0  0  0  0  0  2  0  0  0  0  0  0
  183.4630  178.7930  143.0310 N   0  0  0  0  0  0  0  0  0  0  0  0
  186.1250  177.0500  144.6950 C   0  0  0  0  0  2  0  0  0  0  0  0
  184.1550  178.4550  144.1010 N   0  0  0  0  0  0  0  0  0  0  0  0
  186.0970  177.8180  146.0220 C   0  0  1  0  0  3  0  0  0  0  0  0
  185.1740  177.6710  143.7220 C   0  0  0  0  0  0  0  0  0  0  0  0
  185.1590  177.4320  142.3970 N   0  0  0  0  0  0  0  0  0  0  0  0
  184.6520  178.0750  146.4750 C   0  0  0  0  0  2  0  0  0  0  0  0
  1 10  2  0  0  0  0
  3  6  2  0  0  0  0
  4  8  1  0  0  0  0
  4  2  2  0  0  0  0
  6  1  1  0  0  0  0
  6  9  1  0  0  0  0
  7 11  1  0  0  0  0
  7  3  1  0  0  0  0
  8  1  1  0  0  0  0
  8 12  1  1  0  0  0
  9 27  1  1  0  0  0
  9  5  1  0  0  0  0
 10  5  1  0  0  0  0
 11  4  1  0  0  0  0
 13 12  1  0  0  0  0
 14 15  1  6  0  0  0
 14 13  1  0  0  0  0
 16 14  1  0  0  0  0
 16 19  1  0  0  0  0
 16 17  1  1  0  0  0
 18 17  2  0  0  0  0
 21 23  1  6  0  0  0
 21 22  1  0  0  0  0
 21 20  1  0  0  0  0
 22 20  1  0  0  0  0
 22 19  1  1  0  0  0
 24 23  2  0  0  0  0
 25 23  1  0  0  0  0
 26 25  1  0  0  0  0
 27 28  1  0  0  0  0
 29 37  1  0  0  0  0
 29 32  2  0  0  0  0
 30 29  1  0  0  0  0
 31 38  1  0  0  0  0
 32 34  1  0  0  0  0
 33 35  1  0  0  0  0
 34 31  1  0  0  0  0
 35 38  1  0  0  0  0
 35 28  1  1  0  0  0
 36 34  1  0  0  0  0
 36 33  1  0  0  0  0
 37 36  2  0  0  0  0
M  END
>  <MODEL>
1

>  <REMARK>
 VINA RESULT:      -7.1      0.000      0.000
  Name = 
  12 active torsions:
  status: ('A' for Active; 'I' for Inactive)
    1  A    between atoms: C_2  and  C_17
    2  A    between atoms: C_2  and  O_25
    3  A    between atoms: C_3  and  C_26
    4  A    between atoms: C_6  and  C_27
    5  A    between atoms: C_6  and  C_29
    6  A    between atoms: C_8  and  C_26
    7  A    between atoms: C_8  and  C_29
    8  A    between atoms: C_11  and  C_30
    9  A    between atoms: C_11  and  C_32
   10  A    between atoms: N_14  and  C_21
   11  A    between atoms: N_14  and  C_26
   12  A    between atoms: C_28  and  C_30
                            x       y       z     vdW  Elec       q    Type
                         _______ _______ _______ _____ _____    ______ ____

>  <TORSDO>
F 12

$$$$
=
 OpenBabel11062421043D

 38 42  0  0  1  0  0  0  0  0999 V2000
  191.2750  175.5440  145.4460 C   0  0  0  0  0  0  0  0  0  0  0  0
  191.5040  177.6350  142.7730 O   0  0  0  0  0  0  0  0  0  0  0  0
  189.3590  174.3640  144.3550 C   0  0  0  0  0  3  0  0  0  0  0  0
  191.2900  176.4520  143.1500 C   0  0  0  0  0  0  0  0  0  0  0  0
  190.6050  175.4560  147.6160 C   0  0  0  0  0  2  0  0  0  0  0  0
  189.9880  174.8670  145.4220 C   0  0  0  0  0  0  0  0  0  0  0  0
  189.9250  174.4020  142.9670 C   0  0  0  0  0  2  0  0  0  0  0  0
  192.1270  175.8250  144.2340 C   0  0  1  0  0  3  0  0  0  0  0  0
  189.4640  174.8160  146.8110 C   0  0  2  0  0  3  0  0  0  0  0  0
  191.6160  175.8660  146.6470 N   0  0  0  0  0  0  0  0  0  0  0  0
  190.2340  175.7360  142.5770 O   0  0  0  0  0  0  0  0  0  0  0  0
  193.3790  176.6450  144.5470 C   0  0  0  0  0  2  0  0  0  0  0  0
  194.5700  176.1040  143.7720 C   0  0  0  0  0  2  0  0  0  0  0  0
  195.7080  175.7560  144.7230 C   0  0  1  0  0  3  0  0  0  0  0  0
  195.1240  175.4000  146.0820 C   0  0  0  0  0  1  0  0  0  0  0  0
  196.5270  174.5840  144.1710 C   0  0  1  0  0  3  0  0  0  0  0  0
  197.7870  175.0510  143.4970 C   0  0  0  0  0  3  0  0  0  0  0  0
  197.7800  175.4280  142.2710 N   0  0  0  0  0  2  0  0  0  0  0  0
  196.8660  173.6470  145.2350 N   0  0  0  0  0  2  0  0  0  0  0  0
  196.9420  171.2910  145.7820 C   0  0  0  0  0  2  0  0  0  0  0  0
  195.4890  171.7030  145.6510 C   0  0  1  0  0  3  0  0  0  0  0  0
  196.5430  172.3190  144.7460 C   0  0  1  0  0  3  0  0  0  0  0  0
  194.7240  170.6720  144.8890 C   0  0  0  0  0  0  0  0  0  0  0  0
  195.2080  169.5150  144.7510 O   0  0  0  0  0  0  0  0  0  0  0  0
  193.5010  171.0060  144.3050 O   0  0  0  0  0  0  0  0  0  0  0  0
  192.8250  172.2140  144.6190 C   0  0  0  0  0  1  0  0  0  0  0  0
  188.2060  175.6690  146.9290 C   0  0  0  0  0  2  0  0  0  0  0  0
  188.4830  177.1180  146.5490 C   0  0  0  0  0  2  0  0  0  0  0  0
  185.0080  178.2140  141.9320 C   0  0  0  0  0  0  0  0  0  0  0  0
  184.4460  178.4710  140.6510 N   0  0  0  0  0  1  0  0  0  0  0  0
  184.8360  177.7450  145.4300 C   0  0  0  0  0  2  0  0  0  0  0  0
  184.2670  178.1220  143.0560 N   0  0  0  0  0  0  0  0  0  0  0  0
  187.5930  177.4980  144.2540 C   0  0  0  0  0  2  0  0  0  0  0  0
  185.1400  177.8600  144.0070 N   0  0  0  0  0  0  0  0  0  0  0  0
  187.3330  177.7110  145.7490 C   0  0  1  0  0  3  0  0  0  0  0  0
  186.3670  177.8340  143.4660 C   0  0  0  0  0  0  0  0  0  0  0  0
  186.3340  178.0320  142.1350 N   0  0  0  0  0  0  0  0  0  0  0  0
  185.9990  177.0770  146.1690 C   0  0  0  0  0  2  0  0  0  0  0  0
  1 10  2  0  0  0  0
  2  4  2  0  0  0  0
  3  6  2  0  0  0  0
  4  8  1  0  0  0  0
  6  1  1  0  0  0  0
  6  9  1  0  0  0  0
  7  3  1  0  0  0  0
  8 12  1  1  0  0  0
  8  1  1  0  0  0  0
  9 27  1  6  0  0  0
  9  5  1  0  0  0  0
 10  5  1  0  0  0  0
 11  7  1  0  0  0  0
 11  4  1  0  0  0  0
 13 12  1  0  0  0  0
 13 14  1  0  0  0  0
 14 15  1  1  0  0  0
 16 17  1  1  0  0  0
 16 14  1  0  0  0  0
 16 19  1  0  0  0  0
 18 17  2  0  0  0  0
 21 23  1  6  0  0  0
 21 20  1  0  0  0  0
 22 19  1  1  0  0  0
 22 21  1  0  0  0  0
 22 20  1  0  0  0  0
 24 23  2  0  0  0  0
 25 26  1  0  0  0  0
 25 23  1  0  0  0  0
 28 27  1  0  0  0  0
 29 37  1  0  0  0  0
 29 32  2  0  0  0  0
 30 29  1  0  0  0  0
 31 38  1  0  0  0  0
 32 34  1  0  0  0  0
 33 35  1  0  0  0  0
 34 31  1  0  0  0  0
 35 38  1  0  0  0  0
 35 28  1  1  0  0  0
 36 34  1  0  0  0  0
 36 33  1  0  0  0  0
 37 36  2  0  0  0  0
M  END
>  <MODEL>
2

>  <REMARK>
 VINA RESULT:      -7.0      2.674      3.998
  Name = 
  12 active torsions:
  status: ('A' for Active; 'I' for Inactive)
    1  A    between atoms: C_2  and  C_17
    2  A    between atoms: C_2  and  O_25
    3  A    between atoms: C_3  and  C_26
    4  A    between atoms: C_6  and  C_27
    5  A    between atoms: C_6  and  C_29
    6  A    between atoms: C_8  and  C_26
    7  A    between atoms: C_8  and  C_29
    8  A    between atoms: C_11  and  C_30
    9  A    between atoms: C_11  and  C_32
   10  A    between atoms: N_14  and  C_21
   11  A    between atoms: N_14  and  C_26
   12  A    between atoms: C_28  and  C_30
                            x       y       z     vdW  Elec       q    Type
                         _______ _______ _______ _____ _____    ______ ____

>  <TORSDO>
F 12

$$$$
=
 OpenBabel11062421043D

 38 42  0  0  1  0  0  0  0  0999 V2000
  191.1300  175.3860  145.1970 C   0  0  0  0  0  0  0  0  0  0  0  0
  190.7180  175.0460  141.8370 O   0  0  0  0  0  0  0  0  0  0  0  0
  189.6730  173.3880  145.5740 C   0  0  0  0  0  3  0  0  0  0  0  0
  190.8760  174.4390  142.9310 C   0  0  0  0  0  0  0  0  0  0  0  0
  190.5090  176.6640  146.9710 C   0  0  0  0  0  2  0  0  0  0  0  0
  190.1130  174.6110  145.8890 C   0  0  0  0  0  0  0  0  0  0  0  0
  190.2060  172.5900  144.4240 C   0  0  0  0  0  2  0  0  0  0  0  0
  191.8600  174.9390  143.9550 C   0  0  1  0  0  3  0  0  0  0  0  0
  189.6240  175.4120  147.0410 C   0  0  2  0  0  3  0  0  0  0  0  0
  191.3500  176.5100  145.7880 N   0  0  0  0  0  0  0  0  0  0  0  0
  190.0930  173.3130  143.2020 O   0  0  0  0  0  0  0  0  0  0  0  0
  192.7990  176.0040  143.3860 C   0  0  0  0  0  2  0  0  0  0  0  0
  194.0320  175.3500  142.7850 C   0  0  0  0  0  2  0  0  0  0  0  0
  195.2960  176.0320  143.2950 C   0  0  1  0  0  3  0  0  0  0  0  0
  195.0470  176.5400  144.7070 C   0  0  0  0  0  1  0  0  0  0  0  0
  196.4760  175.0540  143.2790 C   0  0  1  0  0  3  0  0  0  0  0  0
  197.7020  175.6670  142.6630 C   0  0  0  0  0  3  0  0  0  0  0  0
  197.9380  175.5530  141.4070 N   0  0  0  0  0  2  0  0  0  0  0  0
  196.7870  174.6020  144.6290 N   0  0  0  0  0  2  0  0  0  0  0  0
  196.9120  172.6280  146.0240 C   0  0  0  0  0  2  0  0  0  0  0  0
  195.4540  172.8910  145.7010 C   0  0  1  0  0  3  0  0  0  0  0  0
  196.5290  173.1730  144.6660 C   0  0  1  0  0  3  0  0  0  0  0  0
  194.7600  171.6150  145.3580 C   0  0  0  0  0  0  0  0  0  0  0  0
  193.5990  171.6510  144.8660 O   0  0  0  0  0  0  0  0  0  0  0  0
  195.3840  170.3930  145.6210 O   0  0  0  0  0  0  0  0  0  0  0  0
  194.8340  169.4510  146.5290 C   0  0  0  0  0  1  0  0  0  0  0  0
  188.1640  175.7980  146.8300 C   0  0  0  0  0  2  0  0  0  0  0  0
  188.0440  177.1630  146.1650 C   0  0  0  0  0  2  0  0  0  0  0  0
  184.7920  178.1530  141.3650 C   0  0  0  0  0  0  0  0  0  0  0  0
  183.7620  178.4100  140.4180 N   0  0  0  0  0  1  0  0  0  0  0  0
  188.1310  177.4900  142.3140 C   0  0  0  0  0  2  0  0  0  0  0  0
  186.0860  177.9890  141.0200 N   0  0  0  0  0  0  0  0  0  0  0  0
  186.1800  177.6820  144.5960 C   0  0  0  0  0  2  0  0  0  0  0  0
  186.7110  177.7940  142.1640 N   0  0  0  0  0  0  0  0  0  0  0  0
  187.5670  177.0400  144.7260 C   0  0  1  0  0  3  0  0  0  0  0  0
  185.8060  177.8080  143.1540 C   0  0  0  0  0  0  0  0  0  0  0  0
  184.5650  178.0570  142.6970 N   0  0  0  0  0  0  0  0  0  0  0  0
  188.5680  177.7000  143.7670 C   0  0  0  0  0  2  0  0  0  0  0  0
  1 10  2  0  0  0  0
  1  6  1  0  0  0  0
  2  4  2  0  0  0  0
  3  6  2  0  0  0  0
  4 11  1  0  0  0  0
  4  8  1  0  0  0  0
  5  9  1  0  0  0  0
  6  9  1  0  0  0  0
  7  3  1  0  0  0  0
  8 12  1  6  0  0  0
  8  1  1  0  0  0  0
  9 27  1  6  0  0  0
 10  5  1  0  0  0  0
 11  7  1  0  0  0  0
 13 14  1  0  0  0  0
 13 12  1  0  0  0  0
 14 15  1  1  0  0  0
 16 17  1  1  0  0  0
 16 14  1  0  0  0  0
 16 19  1  0  0  0  0
 18 17  2  0  0  0  0
 21 23  1  6  0  0  0
 21 20  1  0  0  0  0
 22 19  1  1  0  0  0
 22 21  1  0  0  0  0
 22 20  1  0  0  0  0
 23 25  1  0  0  0  0
 24 23  2  0  0  0  0
 25 26  1  0  0  0  0
 28 27  1  0  0  0  0
 29 37  1  0  0  0  0
 30 29  1  0  0  0  0
 31 38  1  0  0  0  0
 32 29  2  0  0  0  0
 32 34  1  0  0  0  0
 33 35  1  0  0  0  0
 34 31  1  0  0  0  0
 34 36  1  0  0  0  0
 35 28  1  1  0  0  0
 36 33  1  0  0  0  0
 37 36  2  0  0  0  0
 38 35  1  0  0  0  0
M  END
>  <MODEL>
3

>  <REMARK>
 VINA RESULT:      -6.9      2.849      4.664
  Name = 
  12 active torsions:
  status: ('A' for Active; 'I' for Inactive)
    1  A    between atoms: C_2  and  C_17
    2  A    between atoms: C_2  and  O_25
    3  A    between atoms: C_3  and  C_26
    4  A    between atoms: C_6  and  C_27
    5  A    between atoms: C_6  and  C_29
    6  A    between atoms: C_8  and  C_26
    7  A    between atoms: C_8  and  C_29
    8  A    between atoms: C_11  and  C_30
    9  A    between atoms: C_11  and  C_32
   10  A    between atoms: N_14  and  C_21
   11  A    between atoms: N_14  and  C_26
   12  A    between atoms: C_28  and  C_30
                            x       y       z     vdW  Elec       q    Type
                         _______ _______ _______ _____ _____    ______ ____

>  <TORSDO>
F 12

$$$$
=
 OpenBabel11062421043D

 38 42  0  0  1  0  0  0  0  0999 V2000
  191.5890  175.5050  145.6740 C   0  0  0  0  0  0  0  0  0  0  0  0
  191.9100  177.5310  142.9600 O   0  0  0  0  0  0  0  0  0  0  0  0
  189.8040  174.2110  144.4930 C   0  0  0  0  0  3  0  0  0  0  0  0
  191.7210  176.3490  143.3570 C   0  0  0  0  0  0  0  0  0  0  0  0
  190.7760  175.4470  147.7950 C   0  0  0  0  0  2  0  0  0  0  0  0
  190.3370  174.7710  145.5840 C   0  0  0  0  0  0  0  0  0  0  0  0
  190.4610  174.2360  143.1460 C   0  0  0  0  0  2  0  0  0  0  0  0
  192.5090  175.7900  144.5130 C   0  0  1  0  0  3  0  0  0  0  0  0
  189.7220  174.7350  146.9350 C   0  0  2  0  0  3  0  0  0  0  0  0
  191.8330  175.8750  146.8840 N   0  0  0  0  0  0  0  0  0  0  0  0
  190.7390  175.5720  142.7370 O   0  0  0  0  0  0  0  0  0  0  0  0
  193.7000  176.6740  144.8850 C   0  0  0  0  0  2  0  0  0  0  0  0
  194.8900  175.8140  145.2800 C   0  0  0  0  0  2  0  0  0  0  0  0
  195.6360  175.3390  144.0390 C   0  0  1  0  0  3  0  0  0  0  0  0
  196.2470  176.5430  143.3390 C   0  0  0  0  0  1  0  0  0  0  0  0
  196.7280  174.3340  144.4240 C   0  0  1  0  0  3  0  0  0  0  0  0
  196.6180  173.9120  145.8620 C   0  0  0  0  0  3  0  0  0  0  0  0
  196.9610  172.7330  146.2330 N   0  0  0  0  0  2  0  0  0  0  0  0
  196.6670  173.1560  143.5680 N   0  0  0  0  0  2  0  0  0  0  0  0
  195.2230  171.9990  142.0080 C   0  0  0  0  0  2  0  0  0  0  0  0
  194.7680  171.6650  143.4160 C   0  0  1  0  0  3  0  0  0  0  0  0
  195.2990  173.0510  143.0930 C   0  0  1  0  0  3  0  0  0  0  0  0
  193.2790  171.7130  143.5050 C   0  0  0  0  0  0  0  0  0  0  0  0
  192.7310  171.9700  144.6120 O   0  0  0  0  0  0  0  0  0  0  0  0
  192.5070  171.4360  142.3750 O   0  0  0  0  0  0  0  0  0  0  0  0
  191.3640  170.5960  142.4360 C   0  0  0  0  0  1  0  0  0  0  0  0
  188.4230  175.5340  146.9430 C   0  0  0  0  0  2  0  0  0  0  0  0
  188.6720  176.9970  146.6030 C   0  0  0  0  0  2  0  0  0  0  0  0
  185.4610  178.1020  141.8010 C   0  0  0  0  0  0  0  0  0  0  0  0
  184.9730  178.3810  140.4940 N   0  0  0  0  0  1  0  0  0  0  0  0
  185.0820  177.5000  145.2620 C   0  0  0  0  0  2  0  0  0  0  0  0
  184.6530  177.9370  142.8690 N   0  0  0  0  0  0  0  0  0  0  0  0
  187.9190  177.4200  144.2670 C   0  0  0  0  0  2  0  0  0  0  0  0
  185.4730  177.6810  143.8680 N   0  0  0  0  0  0  0  0  0  0  0  0
  187.5520  177.5670  145.7480 C   0  0  1  0  0  3  0  0  0  0  0  0
  186.7330  177.7280  143.4100 C   0  0  0  0  0  0  0  0  0  0  0  0
  186.7780  177.9730  142.0870 N   0  0  0  0  0  0  0  0  0  0  0  0
  186.2240  176.8590  146.0550 C   0  0  0  0  0  2  0  0  0  0  0  0
  1 10  2  0  0  0  0
  2  4  2  0  0  0  0
  3  6  2  0  0  0  0
  4  8  1  0  0  0  0
  6  1  1  0  0  0  0
  6  9  1  0  0  0  0
  7  3  1  0  0  0  0
  8 12  1  1  0  0  0
  8  1  1  0  0  0  0
  9 27  1  6  0  0  0
  9  5  1  0  0  0  0
 10  5  1  0  0  0  0
 11  7  1  0  0  0  0
 11  4  1  0  0  0  0
 12 13  1  0  0  0  0
 14 15  1  1  0  0  0
 14 16  1  0  0  0  0
 14 13  1  0  0  0  0
 16 17  1  1  0  0  0
 17 18  2  0  0  0  0
 19 16  1  0  0  0  0
 20 22  1  0  0  0  0
 20 21  1  0  0  0  0
 21 23  1  6  0  0  0
 22 21  1  0  0  0  0
 22 19  1  1  0  0  0
 23 24  2  0  0  0  0
 25 26  1  0  0  0  0
 25 23  1  0  0  0  0
 28 27  1  0  0  0  0
 29 37  1  0  0  0  0
 29 32  2  0  0  0  0
 30 29  1  0  0  0  0
 31 38  1  0  0  0  0
 32 34  1  0  0  0  0
 33 35  1  0  0  0  0
 34 31  1  0  0  0  0
 35 38  1  0  0  0  0
 35 28  1  1  0  0  0
 36 34  1  0  0  0  0
 36 33  1  0  0  0  0
 37 36  2  0  0  0  0
M  END
>  <MODEL>
4

>  <REMARK>
 VINA RESULT:      -6.9      2.193      3.210
  Name = 
  12 active torsions:
  status: ('A' for Active; 'I' for Inactive)
    1  A    between atoms: C_2  and  C_17
    2  A    between atoms: C_2  and  O_25
    3  A    between atoms: C_3  and  C_26
    4  A    between atoms: C_6  and  C_27
    5  A    between atoms: C_6  and  C_29
    6  A    between atoms: C_8  and  C_26
    7  A    between atoms: C_8  and  C_29
    8  A    between atoms: C_11  and  C_30
    9  A    between atoms: C_11  and  C_32
   10  A    between atoms: N_14  and  C_21
   11  A    between atoms: N_14  and  C_26
   12  A    between atoms: C_28  and  C_30
                            x       y       z     vdW  Elec       q    Type
                         _______ _______ _______ _____ _____    ______ ____

>  <TORSDO>
F 12

$$$$
=
 OpenBabel11062421043D

 38 42  0  0  1  0  0  0  0  0999 V2000
  189.5190  173.2670  142.5060 C   0  0  0  0  0  0  0  0  0  0  0  0
  190.4590  176.2830  143.7690 O   0  0  0  0  0  0  0  0  0  0  0  0
  190.1680  172.1680  144.6580 C   0  0  0  0  0  3  0  0  0  0  0  0
  189.9050  175.1780  144.0210 C   0  0  0  0  0  0  0  0  0  0  0  0
  190.1470  171.6510  141.0370 C   0  0  0  0  0  2  0  0  0  0  0  0
  190.0820  172.2040  143.3240 C   0  0  0  0  0  0  0  0  0  0  0  0
  189.6480  173.2560  145.5490 C   0  0  0  0  0  2  0  0  0  0  0  0
  188.9460  174.5560  143.0400 C   0  0  1  0  0  3  0  0  0  0  0  0
  190.5600  171.1270  142.4200 C   0  0  2  0  0  3  0  0  0  0  0  0
  189.5520  172.9660  141.2540 N   0  0  0  0  0  0  0  0  0  0  0  0
  190.2230  174.5140  145.2080 O   0  0  0  0  0  0  0  0  0  0  0  0
  188.5230  175.5330  141.9420 C   0  0  0  0  0  2  0  0  0  0  0  0
  187.1520  176.1100  142.2520 C   0  0  0  0  0  2  0  0  0  0  0  0
  187.2690  177.5810  142.6350 C   0  0  1  0  0  3  0  0  0  0  0  0
  188.3870  178.2150  141.8200 C   0  0  0  0  0  1  0  0  0  0  0  0
  185.9440  178.3080  142.3790 C   0  0  1  0  0  3  0  0  0  0  0  0
  185.4160  178.0380  140.9990 C   0  0  0  0  0  3  0  0  0  0  0  0
  184.2380  178.4130  140.6570 N   0  0  0  0  0  2  0  0  0  0  0  0
  184.9450  177.9150  143.3650 N   0  0  0  0  0  2  0  0  0  0  0  0
  184.1480  178.9590  145.3980 C   0  0  0  0  0  2  0  0  0  0  0  0
  184.7900  177.6350  145.7620 C   0  0  1  0  0  3  0  0  0  0  0  0
  185.3630  178.4780  144.6360 C   0  0  1  0  0  3  0  0  0  0  0  0
  185.6410  177.7880  146.9790 C   0  0  0  0  0  0  0  0  0  0  0  0
  185.6300  178.8790  147.6120 O   0  0  0  0  0  0  0  0  0  0  0  0
  186.4690  176.7390  147.3830 O   0  0  0  0  0  0  0  0  0  0  0  0
  187.7260  176.4970  146.7700 C   0  0  0  0  0  1  0  0  0  0  0  0
  192.0790  171.0130  142.4970 C   0  0  0  0  0  2  0  0  0  0  0  0
  192.7580  172.1360  141.7230 C   0  0  0  0  0  2  0  0  0  0  0  0
  194.6070  176.5060  145.1980 C   0  0  0  0  0  0  0  0  0  0  0  0
  194.8830  177.7480  145.8350 N   0  0  0  0  0  1  0  0  0  0  0  0
  194.8910  173.0030  144.8290 C   0  0  0  0  0  2  0  0  0  0  0  0
  195.0840  175.3260  145.6460 N   0  0  0  0  0  0  0  0  0  0  0  0
  193.1250  174.3520  142.8000 C   0  0  0  0  0  2  0  0  0  0  0  0
  194.5960  174.4330  144.8100 N   0  0  0  0  0  0  0  0  0  0  0  0
  193.6910  172.9390  142.6150 C   0  0  1  0  0  3  0  0  0  0  0  0
  193.8780  175.0700  143.8730 C   0  0  0  0  0  0  0  0  0  0  0  0
  193.8350  176.3980  144.0910 N   0  0  0  0  0  0  0  0  0  0  0  0
  193.8760  172.2410  143.9710 C   0  0  0  0  0  2  0  0  0  0  0  0
  1  8  1  0  0  0  0
  1  6  1  0  0  0  0
  2  4  2  0  0  0  0
  3  7  1  0  0  0  0
  4 11  1  0  0  0  0
  5 10  1  0  0  0  0
  5  9  1  0  0  0  0
  6  3  2  0  0  0  0
  8 12  1  6  0  0  0
  8  4  1  0  0  0  0
  9 27  1  6  0  0  0
  9  6  1  0  0  0  0
 10  1  2  0  0  0  0
 11  7  1  0  0  0  0
 12 13  1  0  0  0  0
 13 14  1  0  0  0  0
 14 15  1  6  0  0  0
 16 17  1  6  0  0  0
 16 14  1  0  0  0  0
 16 19  1  0  0  0  0
 18 17  2  0  0  0  0
 20 21  1  0  0  0  0
 21 23  1  1  0  0  0
 22 19  1  6  0  0  0
 22 20  1  0  0  0  0
 22 21  1  0  0  0  0
 23 25  1  0  0  0  0
 23 24  2  0  0  0  0
 26 25  1  0  0  0  0
 28 27  1  0  0  0  0
 29 32  2  0  0  0  0
 29 30  1  0  0  0  0
 33 36  1  0  0  0  0
 34 31  1  0  0  0  0
 34 32  1  0  0  0  0
 35 28  1  6  0  0  0
 35 33  1  0  0  0  0
 35 38  1  0  0  0  0
 36 37  2  0  0  0  0
 36 34  1  0  0  0  0
 37 29  1  0  0  0  0
 38 31  1  0  0  0  0
M  END
>  <MODEL>
5

>  <REMARK>
 VINA RESULT:      -6.8      2.790      8.547
  Name = 
  12 active torsions:
  status: ('A' for Active; 'I' for Inactive)
    1  A    between atoms: C_2  and  C_17
    2  A    between atoms: C_2  and  O_25
    3  A    between atoms: C_3  and  C_26
    4  A    between atoms: C_6  and  C_27
    5  A    between atoms: C_6  and  C_29
    6  A    between atoms: C_8  and  C_26
    7  A    between atoms: C_8  and  C_29
    8  A    between atoms: C_11  and  C_30
    9  A    between atoms: C_11  and  C_32
   10  A    between atoms: N_14  and  C_21
   11  A    between atoms: N_14  and  C_26
   12  A    between atoms: C_28  and  C_30
                            x       y       z     vdW  Elec       q    Type
                         _______ _______ _______ _____ _____    ______ ____

>  <TORSDO>
F 12

$$$$
=
 OpenBabel11062421043D

 38 42  0  0  1  0  0  0  0  0999 V2000
  187.7410  177.8050  145.3740 C   0  0  0  0  0  0  0  0  0  0  0  0
  185.6860  179.7090  147.3060 O   0  0  0  0  0  0  0  0  0  0  0  0
  187.7500  176.0320  147.1380 C   0  0  0  0  0  3  0  0  0  0  0  0
  185.9610  178.5400  146.9210 C   0  0  0  0  0  0  0  0  0  0  0  0
  189.8850  177.6400  144.6400 C   0  0  0  0  0  2  0  0  0  0  0  0
  188.3450  176.7650  146.1910 C   0  0  0  0  0  0  0  0  0  0  0  0
  186.3010  176.1630  147.4960 C   0  0  0  0  0  2  0  0  0  0  0  0
  186.3080  178.2650  145.4810 C   0  0  1  0  0  3  0  0  0  0  0  0
  189.7710  176.6350  145.7960 C   0  0  2  0  0  3  0  0  0  0  0  0
  188.5810  178.2850  144.5230 N   0  0  0  0  0  0  0  0  0  0  0  0
  185.9820  177.5030  147.8580 O   0  0  0  0  0  0  0  0  0  0  0  0
  185.9790  179.4470  144.5690 C   0  0  0  0  0  2  0  0  0  0  0  0
  186.0490  179.0230  143.1110 C   0  0  0  0  0  2  0  0  0  0  0  0
  185.1740  177.7980  142.8730 C   0  0  1  0  0  3  0  0  0  0  0  0
  183.8740  178.2400  142.2180 C   0  0  0  0  0  1  0  0  0  0  0  0
  185.9040  176.7850  141.9830 C   0  0  1  0  0  3  0  0  0  0  0  0
  186.8430  177.4580  141.0240 C   0  0  0  0  0  3  0  0  0  0  0  0
  186.5590  177.5510  139.7760 N   0  0  0  0  0  2  0  0  0  0  0  0
  186.6450  175.8280  142.7950 N   0  0  0  0  0  2  0  0  0  0  0  0
  188.7890  174.7130  142.9190 C   0  0  0  0  0  2  0  0  0  0  0  0
  187.8840  173.9050  142.0100 C   0  0  1  0  0  3  0  0  0  0  0  0
  187.8020  175.4220  142.0180 C   0  0  1  0  0  3  0  0  0  0  0  0
  188.6310  173.4560  140.7990 C   0  0  0  0  0  0  0  0  0  0  0  0
  189.2340  172.3480  140.8150 O   0  0  0  0  0  0  0  0  0  0  0  0
  188.6900  174.2810  139.6740 O   0  0  0  0  0  0  0  0  0  0  0  0
  188.2210  173.8530  138.4050 C   0  0  0  0  0  1  0  0  0  0  0  0
  190.6760  177.0640  146.9460 C   0  0  0  0  0  2  0  0  0  0  0  0
  191.6960  175.9840  147.2790 C   0  0  0  0  0  2  0  0  0  0  0  0
  196.2990  175.8720  143.6200 C   0  0  0  0  0  0  0  0  0  0  0  0
  197.4380  176.1570  142.8160 N   0  0  0  0  0  1  0  0  0  0  0  0
  193.7620  173.7620  144.8840 C   0  0  0  0  0  2  0  0  0  0  0  0
  195.7300  174.6500  143.6830 N   0  0  0  0  0  0  0  0  0  0  0  0
  193.7250  176.5710  145.9590 C   0  0  0  0  0  2  0  0  0  0  0  0
  194.7340  174.7930  144.5350 N   0  0  0  0  0  0  0  0  0  0  0  0
  192.5310  175.6150  146.0630 C   0  0  1  0  0  3  0  0  0  0  0  0
  194.6950  176.0720  144.9370 C   0  0  0  0  0  0  0  0  0  0  0  0
  195.6910  176.7990  144.3970 N   0  0  0  0  0  0  0  0  0  0  0  0
  193.0030  174.1570  146.1540 C   0  0  0  0  0  2  0  0  0  0  0  0
  1  8  1  0  0  0  0
  1  6  1  0  0  0  0
  3  7  1  0  0  0  0
  4  2  2  0  0  0  0
  4 11  1  0  0  0  0
  5  9  1  0  0  0  0
  6  3  2  0  0  0  0
  7 11  1  0  0  0  0
  8 12  1  6  0  0  0
  8  4  1  0  0  0  0
  9  6  1  0  0  0  0
  9 27  1  1  0  0  0
 10  5  1  0  0  0  0
 10  1  2  0  0  0  0
 13 12  1  0  0  0  0
 14 15  1  6  0  0  0
 14 13  1  0  0  0  0
 16 17  1  6  0  0  0
 16 19  1  0  0  0  0
 16 14  1  0  0  0  0
 18 17  2  0  0  0  0
 21 23  1  6  0  0  0
 21 22  1  0  0  0  0
 21 20  1  0  0  0  0
 22 19  1  1  0  0  0
 22 20  1  0  0  0  0
 23 24  2  0  0  0  0
 25 23  1  0  0  0  0
 26 25  1  0  0  0  0
 27 28  1  0  0  0  0
 29 32  2  0  0  0  0
 29 37  1  0  0  0  0
 30 29  1  0  0  0  0
 31 38  1  0  0  0  0
 32 34  1  0  0  0  0
 33 35  1  0  0  0  0
 34 31  1  0  0  0  0
 34 36  1  0  0  0  0
 35 38  1  0  0  0  0
 35 28  1  1  0  0  0
 36 33  1  0  0  0  0
 37 36  2  0  0  0  0
M  END
>  <MODEL>
6

>  <REMARK>
 VINA RESULT:      -6.7      3.031      7.893
  Name = 
  12 active torsions:
  status: ('A' for Active; 'I' for Inactive)
    1  A    between atoms: C_2  and  C_17
    2  A    between atoms: C_2  and  O_25
    3  A    between atoms: C_3  and  C_26
    4  A    between atoms: C_6  and  C_27
    5  A    between atoms: C_6  and  C_29
    6  A    between atoms: C_8  and  C_26
    7  A    between atoms: C_8  and  C_29
    8  A    between atoms: C_11  and  C_30
    9  A    between atoms: C_11  and  C_32
   10  A    between atoms: N_14  and  C_21
   11  A    between atoms: N_14  and  C_26
   12  A    between atoms: C_28  and  C_30
                            x       y       z     vdW  Elec       q    Type
                         _______ _______ _______ _____ _____    ______ ____

>  <TORSDO>
F 12

$$$$
=
 OpenBabel11062421043D

 38 42  0  0  1  0  0  0  0  0999 V2000
  191.6120  175.3630  145.7650 C   0  0  0  0  0  0  0  0  0  0  0  0
  192.9370  176.4220  142.8160 O   0  0  0  0  0  0  0  0  0  0  0  0
  189.4760  174.7910  144.5950 C   0  0  0  0  0  3  0  0  0  0  0  0
  192.2080  175.5600  143.3760 C   0  0  0  0  0  0  0  0  0  0  0  0
  190.7860  176.1140  147.7440 C   0  0  0  0  0  2  0  0  0  0  0  0
  190.1670  175.2650  145.6380 C   0  0  0  0  0  0  0  0  0  0  0  0
  190.1210  174.2410  143.3590 C   0  0  0  0  0  2  0  0  0  0  0  0
  192.6020  174.9610  144.7010 C   0  0  1  0  0  3  0  0  0  0  0  0
  189.5550  175.7870  146.8860 C   0  0  2  0  0  3  0  0  0  0  0  0
  191.9540  175.8260  146.9180 N   0  0  0  0  0  0  0  0  0  0  0  0
  191.0010  175.1940  142.7730 O   0  0  0  0  0  0  0  0  0  0  0  0
  194.0530  175.2740  145.0700 C   0  0  0  0  0  2  0  0  0  0  0  0
  194.6890  174.0800  145.7640 C   0  0  0  0  0  2  0  0  0  0  0  0
  195.9450  173.6420  145.0200 C   0  0  1  0  0  3  0  0  0  0  0  0
  197.0580  173.4040  146.0300 C   0  0  0  0  0  1  0  0  0  0  0  0
  195.6720  172.3660  144.2150 C   0  0  1  0  0  3  0  0  0  0  0  0
  194.7850  171.4120  144.9640 C   0  0  0  0  0  3  0  0  0  0  0  0
  194.2760  170.3880  144.3820 N   0  0  0  0  0  2  0  0  0  0  0  0
  195.0620  172.6890  142.9320 N   0  0  0  0  0  2  0  0  0  0  0  0
  195.6420  173.2540  140.6520 C   0  0  0  0  0  2  0  0  0  0  0  0
  195.6330  174.5300  141.4710 C   0  0  1  0  0  3  0  0  0  0  0  0
  196.1130  173.2280  142.0880 C   0  0  1  0  0  3  0  0  0  0  0  0
  196.8110  175.3770  141.1240 C   0  0  0  0  0  0  0  0  0  0  0  0
  197.1990  175.4430  139.9250 O   0  0  0  0  0  0  0  0  0  0  0  0
  197.4980  176.0580  142.1310 O   0  0  0  0  0  0  0  0  0  0  0  0
  196.8170  176.7910  143.1390 C   0  0  0  0  0  1  0  0  0  0  0  0
  188.7750  177.0650  146.5940 C   0  0  0  0  0  2  0  0  0  0  0  0
  187.2910  176.8850  146.8860 C   0  0  0  0  0  2  0  0  0  0  0  0
  184.2730  178.1730  142.0050 C   0  0  0  0  0  0  0  0  0  0  0  0
  183.7830  178.3250  140.6780 N   0  0  0  0  0  1  0  0  0  0  0  0
  184.1520  178.6680  145.5020 C   0  0  0  0  0  2  0  0  0  0  0  0
  183.6330  178.6650  143.0860 N   0  0  0  0  0  0  0  0  0  0  0  0
  186.4870  177.0370  144.5330 C   0  0  0  0  0  2  0  0  0  0  0  0
  184.3850  178.3040  144.1070 N   0  0  0  0  0  0  0  0  0  0  0  0
  186.4340  177.6880  145.9200 C   0  0  1  0  0  3  0  0  0  0  0  0
  185.4560  177.6470  143.6390 C   0  0  0  0  0  0  0  0  0  0  0  0
  185.4200  177.5170  142.3000 N   0  0  0  0  0  0  0  0  0  0  0  0
  184.9880  177.7780  146.4280 C   0  0  0  0  0  2  0  0  0  0  0  0
  1 10  2  0  0  0  0
  2  4  2  0  0  0  0
  3  6  2  0  0  0  0
  4  8  1  0  0  0  0
  6  1  1  0  0  0  0
  6  9  1  0  0  0  0
  7  3  1  0  0  0  0
  8 12  1  1  0  0  0
  8  1  1  0  0  0  0
  9 27  1  6  0  0  0
  9  5  1  0  0  0  0
 10  5  1  0  0  0  0
 11  7  1  0  0  0  0
 11  4  1  0  0  0  0
 12 13  1  0  0  0  0
 14 13  1  0  0  0  0
 14 15  1  1  0  0  0
 16 17  1  1  0  0  0
 16 14  1  0  0  0  0
 18 17  2  0  0  0  0
 19 16  1  0  0  0  0
 20 21  1  0  0  0  0
 20 22  1  0  0  0  0
 21 23  1  6  0  0  0
 21 22  1  0  0  0  0
 22 19  1  1  0  0  0
 23 25  1  0  0  0  0
 24 23  2  0  0  0  0
 25 26  1  0  0  0  0
 27 28  1  0  0  0  0
 29 37  1  0  0  0  0
 29 32  2  0  0  0  0
 30 29  1  0  0  0  0
 31 38  1  0  0  0  0
 32 34  1  0  0  0  0
 33 35  1  0  0  0  0
 34 31  1  0  0  0  0
 35 38  1  0  0  0  0
 35 28  1  1  0  0  0
 36 34  1  0  0  0  0
 36 33  1  0  0  0  0
 37 36  2  0  0  0  0
M  END
>  <MODEL>
7

>  <REMARK>
 VINA RESULT:      -6.7      2.190      3.692
  Name = 
  12 active torsions:
  status: ('A' for Active; 'I' for Inactive)
    1  A    between atoms: C_2  and  C_17
    2  A    between atoms: C_2  and  O_25
    3  A    between atoms: C_3  and  C_26
    4  A    between atoms: C_6  and  C_27
    5  A    between atoms: C_6  and  C_29
    6  A    between atoms: C_8  and  C_26
    7  A    between atoms: C_8  and  C_29
    8  A    between atoms: C_11  and  C_30
    9  A    between atoms: C_11  and  C_32
   10  A    between atoms: N_14  and  C_21
   11  A    between atoms: N_14  and  C_26
   12  A    between atoms: C_28  and  C_30
                            x       y       z     vdW  Elec       q    Type
                         _______ _______ _______ _____ _____    ______ ____

>  <TORSDO>
F 12

$$$$
=
 OpenBabel11062421043D

 38 42  0  0  1  0  0  0  0  0999 V2000
  191.5770  175.6370  145.7950 C   0  0  0  0  0  0  0  0  0  0  0  0
  191.7350  177.5740  143.0030 O   0  0  0  0  0  0  0  0  0  0  0  0
  189.7990  174.2420  144.7220 C   0  0  0  0  0  3  0  0  0  0  0  0
  191.6020  176.4020  143.4470 C   0  0  0  0  0  0  0  0  0  0  0  0
  190.8390  175.6270  147.9440 C   0  0  0  0  0  2  0  0  0  0  0  0
  190.3490  174.8590  145.7740 C   0  0  0  0  0  0  0  0  0  0  0  0
  190.4100  174.2420  143.3530 C   0  0  0  0  0  2  0  0  0  0  0  0
  192.4470  175.9120  144.5940 C   0  0  1  0  0  3  0  0  0  0  0  0
  189.7820  174.8490  147.1460 C   0  0  2  0  0  3  0  0  0  0  0  0
  191.8480  176.0580  146.9820 N   0  0  0  0  0  0  0  0  0  0  0  0
  190.6270  175.5710  142.8890 O   0  0  0  0  0  0  0  0  0  0  0  0
  193.6180  176.8480  144.8920 C   0  0  0  0  0  2  0  0  0  0  0  0
  194.9330  176.0890  144.8090 C   0  0  0  0  0  2  0  0  0  0  0  0
  195.3730  175.9500  143.3570 C   0  0  1  0  0  3  0  0  0  0  0  0
  196.8010  176.4580  143.2230 C   0  0  0  0  0  1  0  0  0  0  0  0
  195.2840  174.4860  142.9080 C   0  0  1  0  0  3  0  0  0  0  0  0
  194.4180  174.3270  141.6900 C   0  0  0  0  0  3  0  0  0  0  0  0
  194.4840  175.1630  140.7190 N   0  0  0  0  0  2  0  0  0  0  0  0
  196.6110  173.9520  142.6320 N   0  0  0  0  0  2  0  0  0  0  0  0
  197.9380  171.9310  142.7500 C   0  0  0  0  0  2  0  0  0  0  0  0
  197.7260  172.4450  144.1610 C   0  0  1  0  0  3  0  0  0  0  0  0
  196.6260  172.5850  143.1230 C   0  0  1  0  0  3  0  0  0  0  0  0
  197.3990  171.3160  145.0800 C   0  0  0  0  0  0  0  0  0  0  0  0
  196.8060  171.5520  146.1690 O   0  0  0  0  0  0  0  0  0  0  0  0
  197.7830  170.0150  144.7480 O   0  0  0  0  0  0  0  0  0  0  0  0
  197.3080  168.8860  145.4650 C   0  0  0  0  0  1  0  0  0  0  0  0
  188.4570  175.6040  147.1720 C   0  0  0  0  0  2  0  0  0  0  0  0
  188.6520  177.0750  146.8320 C   0  0  0  0  0  2  0  0  0  0  0  0
  185.4450  178.2000  142.0320 C   0  0  0  0  0  0  0  0  0  0  0  0
  184.9590  178.5120  140.7320 N   0  0  0  0  0  1  0  0  0  0  0  0
  185.0560  177.3840  145.4480 C   0  0  0  0  0  2  0  0  0  0  0  0
  184.6340  177.9170  143.0730 N   0  0  0  0  0  0  0  0  0  0  0  0
  187.9070  177.5680  144.5070 C   0  0  0  0  0  2  0  0  0  0  0  0
  185.4550  177.6680  144.0730 N   0  0  0  0  0  0  0  0  0  0  0  0
  187.5060  177.6060  145.9860 C   0  0  1  0  0  3  0  0  0  0  0  0
  186.7150  177.8340  143.6440 C   0  0  0  0  0  0  0  0  0  0  0  0
  186.7630  178.1530  142.3370 N   0  0  0  0  0  0  0  0  0  0  0  0
  186.2300  176.7860  146.2290 C   0  0  0  0  0  2  0  0  0  0  0  0
  1 10  2  0  0  0  0
  2  4  2  0  0  0  0
  3  6  2  0  0  0  0
  4  8  1  0  0  0  0
  6  1  1  0  0  0  0
  6  9  1  0  0  0  0
  7  3  1  0  0  0  0
  8 12  1  1  0  0  0
  8  1  1  0  0  0  0
  9 27  1  6  0  0  0
  9  5  1  0  0  0  0
 10  5  1  0  0  0  0
 11  7  1  0  0  0  0
 11  4  1  0  0  0  0
 13 12  1  0  0  0  0
 14 15  1  1  0  0  0
 14 13  1  0  0  0  0
 16 17  1  6  0  0  0
 16 14  1  0  0  0  0
 18 17  2  0  0  0  0
 19 16  1  0  0  0  0
 20 22  1  0  0  0  0
 20 21  1  0  0  0  0
 21 23  1  1  0  0  0
 22 19  1  6  0  0  0
 22 21  1  0  0  0  0
 23 24  2  0  0  0  0
 25 23  1  0  0  0  0
 25 26  1  0  0  0  0
 28 27  1  0  0  0  0
 29 37  1  0  0  0  0
 29 32  2  0  0  0  0
 30 29  1  0  0  0  0
 31 38  1  0  0  0  0
 32 34  1  0  0  0  0
 33 35  1  0  0  0  0
 34 31  1  0  0  0  0
 35 38  1  0  0  0  0
 35 28  1  1  0  0  0
 36 34  1  0  0  0  0
 36 33  1  0  0  0  0
 37 36  2  0  0  0  0
M  END
>  <MODEL>
8

>  <REMARK>
 VINA RESULT:      -6.6      2.852      4.634
  Name = 
  12 active torsions:
  status: ('A' for Active; 'I' for Inactive)
    1  A    between atoms: C_2  and  C_17
    2  A    between atoms: C_2  and  O_25
    3  A    between atoms: C_3  and  C_26
    4  A    between atoms: C_6  and  C_27
    5  A    between atoms: C_6  and  C_29
    6  A    between atoms: C_8  and  C_26
    7  A    between atoms: C_8  and  C_29
    8  A    between atoms: C_11  and  C_30
    9  A    between atoms: C_11  and  C_32
   10  A    between atoms: N_14  and  C_21
   11  A    between atoms: N_14  and  C_26
   12  A    between atoms: C_28  and  C_30
                            x       y       z     vdW  Elec       q    Type
                         _______ _______ _______ _____ _____    ______ ____

>  <TORSDO>
F 12

$$$$
=
 OpenBabel11062421043D

 38 42  0  0  1  0  0  0  0  0999 V2000
  191.6280  174.9160  145.8410 C   0  0  0  0  0  0  0  0  0  0  0  0
  192.8670  175.8250  142.8060 O   0  0  0  0  0  0  0  0  0  0  0  0
  189.4410  174.3410  144.7720 C   0  0  0  0  0  3  0  0  0  0  0  0
  192.1410  175.0020  143.4280 C   0  0  0  0  0  0  0  0  0  0  0  0
  190.8880  175.7630  147.8160 C   0  0  0  0  0  2  0  0  0  0  0  0
  190.1770  174.8430  145.7690 C   0  0  0  0  0  0  0  0  0  0  0  0
  190.0300  173.7280  143.5380 C   0  0  0  0  0  2  0  0  0  0  0  0
  192.5710  174.4490  144.7610 C   0  0  1  0  0  3  0  0  0  0  0  0
  189.6210  175.4280  147.0150 C   0  0  2  0  0  3  0  0  0  0  0  0
  192.0190  175.4180  146.9620 N   0  0  0  0  0  0  0  0  0  0  0  0
  190.9070  174.6380  142.8820 O   0  0  0  0  0  0  0  0  0  0  0  0
  194.0400  174.7470  145.0660 C   0  0  0  0  0  2  0  0  0  0  0  0
  194.6830  173.5590  145.7630 C   0  0  0  0  0  2  0  0  0  0  0  0
  195.9350  173.1190  145.0150 C   0  0  1  0  0  3  0  0  0  0  0  0
  197.1610  173.6120  145.7690 C   0  0  0  0  0  1  0  0  0  0  0  0
  195.9700  171.5920  144.8800 C   0  0  1  0  0  3  0  0  0  0  0  0
  197.0270  170.9780  145.7540 C   0  0  0  0  0  3  0  0  0  0  0  0
  196.9440  169.7540  146.1300 N   0  0  0  0  0  2  0  0  0  0  0  0
  194.6720  171.0180  145.2150 N   0  0  0  0  0  2  0  0  0  0  0  0
  193.0670  169.4410  144.3260 C   0  0  0  0  0  2  0  0  0  0  0  0
  192.6570  170.8340  143.8900 C   0  0  1  0  0  3  0  0  0  0  0  0
  194.1270  170.4650  143.9880 C   0  0  1  0  0  3  0  0  0  0  0  0
  192.2390  170.8270  142.4580 C   0  0  0  0  0  0  0  0  0  0  0  0
  192.3950  171.8660  141.7590 O   0  0  0  0  0  0  0  0  0  0  0  0
  191.6430  169.6870  141.9130 O   0  0  0  0  0  0  0  0  0  0  0  0
  191.9900  169.2030  140.6250 C   0  0  0  0  0  1  0  0  0  0  0  0
  188.8560  176.7090  146.6980 C   0  0  0  0  0  2  0  0  0  0  0  0
  187.3570  176.5200  146.8930 C   0  0  0  0  0  2  0  0  0  0  0  0
  184.3980  178.1420  142.0750 C   0  0  0  0  0  0  0  0  0  0  0  0
  183.9070  178.3560  140.7570 N   0  0  0  0  0  1  0  0  0  0  0  0
  184.3620  178.5830  145.5810 C   0  0  0  0  0  2  0  0  0  0  0  0
  183.8150  178.6660  143.1730 N   0  0  0  0  0  0  0  0  0  0  0  0
  186.5400  176.7800  144.5540 C   0  0  0  0  0  2  0  0  0  0  0  0
  184.5460  178.2260  144.1780 N   0  0  0  0  0  0  0  0  0  0  0  0
  186.5590  177.4090  145.9520 C   0  0  1  0  0  3  0  0  0  0  0  0
  185.5530  177.4900  143.6840 C   0  0  0  0  0  0  0  0  0  0  0  0
  185.4900  177.3870  142.3430 N   0  0  0  0  0  0  0  0  0  0  0  0
  185.1310  177.6110  146.4810 C   0  0  0  0  0  2  0  0  0  0  0  0
  1 10  2  0  0  0  0
  2  4  2  0  0  0  0
  3  6  2  0  0  0  0
  4  8  1  0  0  0  0
  6  1  1  0  0  0  0
  6  9  1  0  0  0  0
  7  3  1  0  0  0  0
  8 12  1  1  0  0  0
  8  1  1  0  0  0  0
  9 27  1  6  0  0  0
  9  5  1  0  0  0  0
 10  5  1  0  0  0  0
 11  4  1  0  0  0  0
 11  7  1  0  0  0  0
 12 13  1  0  0  0  0
 14 13  1  0  0  0  0
 14 15  1  1  0  0  0
 16 14  1  0  0  0  0
 16 19  1  0  0  0  0
 16 17  1  1  0  0  0
 17 18  2  0  0  0  0
 21 23  1  6  0  0  0
 21 22  1  0  0  0  0
 21 20  1  0  0  0  0
 22 20  1  0  0  0  0
 22 19  1  1  0  0  0
 24 23  2  0  0  0  0
 25 23  1  0  0  0  0
 26 25  1  0  0  0  0
 27 28  1  0  0  0  0
 29 37  1  0  0  0  0
 29 32  2  0  0  0  0
 30 29  1  0  0  0  0
 31 38  1  0  0  0  0
 32 34  1  0  0  0  0
 33 35  1  0  0  0  0
 34 31  1  0  0  0  0
 35 38  1  0  0  0  0
 35 28  1  1  0  0  0
 36 34  1  0  0  0  0
 36 33  1  0  0  0  0
 37 36  2  0  0  0  0
M  END
>  <MODEL>
9

>  <REMARK>
 VINA RESULT:      -6.6      1.921      2.612
  Name = 
  12 active torsions:
  status: ('A' for Active; 'I' for Inactive)
    1  A    between atoms: C_2  and  C_17
    2  A    between atoms: C_2  and  O_25
    3  A    between atoms: C_3  and  C_26
    4  A    between atoms: C_6  and  C_27
    5  A    between atoms: C_6  and  C_29
    6  A    between atoms: C_8  and  C_26
    7  A    between atoms: C_8  and  C_29
    8  A    between atoms: C_11  and  C_30
    9  A    between atoms: C_11  and  C_32
   10  A    between atoms: N_14  and  C_21
   11  A    between atoms: N_14  and  C_26
   12  A    between atoms: C_28  and  C_30
                            x       y       z     vdW  Elec       q    Type
                         _______ _______ _______ _____ _____    ______ ____

>  <TORSDO>
F 12

$$$$
