=
 OpenBabel11062422453D

 29 31  0  0  0  0  0  0  0  0999 V2000
  187.5490  177.5200  146.9190 C   0  0  0  0  0  3  0  0  0  0  0  0
  191.4010  176.4110  143.7460 S   0  0  0  0  0  0  0  0  0  0  0  0
  191.8770  174.6170  141.7410 C   0  0  0  0  0  2  0  0  0  0  0  0
  188.3070  174.6310  141.4830 O   0  0  0  0  0  0  0  0  0  0  0  0
  186.3100  177.2070  144.8530 C   0  0  0  0  0  0  0  0  0  0  0  0
  191.1400  174.7510  143.0610 C   0  0  0  0  0  2  0  0  0  0  0  0
  187.4950  176.8140  141.3080 C   0  0  0  0  0  0  0  0  0  0  0  0
  188.7040  177.2920  144.8400 N   0  0  0  0  0  0  0  0  0  0  0  0
  189.0790  172.4470  141.8200 N   0  0  0  0  0  2  0  0  0  0  0  0
  186.3140  177.0350  143.4720 C   0  0  0  0  0  3  0  0  0  0  0  0
  186.3430  177.5710  147.6260 C   0  0  0  0  0  3  0  0  0  0  0  0
  187.5250  176.9770  142.7750 C   0  0  0  0  0  0  0  0  0  0  0  0
  191.2970  171.8930  140.7010 C   0  0  0  0  0  2  0  0  0  0  0  0
  185.1240  177.4410  146.9490 C   0  0  0  0  0  3  0  0  0  0  0  0
  190.4280  170.7180  142.5830 O   0  0  0  0  0  0  0  0  0  0  0  0
  188.7360  177.0980  143.4900 C   0  0  0  0  0  0  0  0  0  0  0  0
  187.5370  177.3370  145.5340 C   0  0  0  0  0  0  0  0  0  0  0  0
  192.8520  173.4850  141.8060 C   0  0  0  0  0  0  0  0  0  0  0  0
  188.7680  173.4650  140.8290 C   0  0  0  0  0  2  0  0  0  0  0  0
  194.3160  173.7330  142.4870 S   0  0  0  0  0  0  0  0  0  0  0  0
  185.1070  177.2590  145.5620 C   0  0  0  0  0  3  0  0  0  0  0  0
  190.2580  171.6450  141.7470 C   0  0  0  0  0  0  0  0  0  0  0  0
  187.8770  175.7090  140.7440 N   0  0  0  0  0  0  0  0  0  0  0  0
  190.0530  177.1520  142.7690 C   0  0  0  0  0  2  0  0  0  0  0  0
  192.5460  172.2150  141.3030 O   0  0  0  0  0  0  0  0  0  0  0  0
  186.9630  177.9190  140.4560 C   0  0  0  0  0  2  0  0  0  0  0  0
  185.5070  177.6750  140.0940 C   0  0  0  0  0  2  0  0  0  0  0  0
  183.3920  178.1800  140.4600 C   0  0  0  0  0  1  0  0  0  0  0  0
  184.6900  178.6050  140.7360 O   0  0  0  0  0  0  0  0  0  0  0  0
  1 11  1  0  0  0  0
  3 18  1  0  0  0  0
  3  6  1  0  0  0  0
  5 17  1  0  0  0  0
  5 21  2  0  0  0  0
  6  2  1  0  0  0  0
  7 12  1  0  0  0  0
  8 17  1  0  0  0  0
 10  5  1  0  0  0  0
 12 10  2  0  0  0  0
 12 16  1  0  0  0  0
 13 25  1  0  0  0  0
 13 22  1  0  0  0  0
 14 11  2  0  0  0  0
 16  8  2  0  0  0  0
 17  1  2  0  0  0  0
 18 20  2  0  0  0  0
 19  4  1  0  0  0  0
 19  9  1  0  0  0  0
 21 14  1  0  0  0  0
 22  9  1  0  0  0  0
 22 15  2  0  0  0  0
 23  7  2  0  0  0  0
 23  4  1  0  0  0  0
 24 16  1  0  0  0  0
 24  2  1  0  0  0  0
 25 18  1  0  0  0  0
 26  7  1  0  0  0  0
 27 26  1  0  0  0  0
 27 29  1  0  0  0  0
 28 29  1  0  0  0  0
M  END
>  <MODEL>
1

>  <REMARK>
 VINA RESULT:      -7.5      0.000      0.000
  Name = 
  3 active torsions:
  status: ('A' for Active; 'I' for Inactive)
    1  A    between atoms: C_4  and  C_10
    2  A    between atoms: C_4  and  O_13
    3  A    between atoms: C_9  and  C_10
                            x       y       z     vdW  Elec       q    Type
                         _______ _______ _______ _____ _____    ______ ____

>  <TORSDO>
F 3

$$$$
=
 OpenBabel11062422453D

 29 31  0  0  0  0  0  0  0  0999 V2000
  193.6710  176.9390  146.0200 C   0  0  0  0  0  3  0  0  0  0  0  0
  188.6630  176.5610  146.9760 S   0  0  0  0  0  0  0  0  0  0  0  0
  186.3530  176.5190  145.5160 C   0  0  0  0  0  2  0  0  0  0  0  0
  188.5340  175.3530  142.9270 O   0  0  0  0  0  0  0  0  0  0  0  0
  193.0280  175.3900  144.2640 C   0  0  0  0  0  0  0  0  0  0  0  0
  187.7410  177.1340  145.5210 C   0  0  0  0  0  2  0  0  0  0  0  0
  189.8090  173.5430  143.6680 C   0  0  0  0  0  0  0  0  0  0  0  0
  191.4830  175.9800  145.9970 N   0  0  0  0  0  0  0  0  0  0  0  0
  187.3880  177.2660  142.2120 N   0  0  0  0  0  2  0  0  0  0  0  0
  192.0670  174.5570  143.6970 C   0  0  0  0  0  3  0  0  0  0  0  0
  194.9380  177.0610  145.4400 C   0  0  0  0  0  3  0  0  0  0  0  0
  190.8000  174.4490  144.2810 C   0  0  0  0  0  0  0  0  0  0  0  0
  184.9950  177.4770  143.0510 C   0  0  0  0  0  2  0  0  0  0  0  0
  195.2490  176.3490  144.2750 C   0  0  0  0  0  3  0  0  0  0  0  0
  186.3180  179.3220  142.3300 O   0  0  0  0  0  0  0  0  0  0  0  0
  190.5140  175.1910  145.4470 C   0  0  0  0  0  0  0  0  0  0  0  0
  192.7130  176.1070  145.4350 C   0  0  0  0  0  0  0  0  0  0  0  0
  185.3120  177.5920  145.5130 C   0  0  0  0  0  0  0  0  0  0  0  0
  187.3520  175.8150  142.3020 C   0  0  0  0  0  2  0  0  0  0  0  0
  184.8890  178.2950  146.9260 S   0  0  0  0  0  0  0  0  0  0  0  0
  194.2940  175.5130  143.6860 C   0  0  0  0  0  3  0  0  0  0  0  0
  186.2540  178.0780  142.5140 C   0  0  0  0  0  0  0  0  0  0  0  0
  188.7620  174.0030  143.0560 N   0  0  0  0  0  0  0  0  0  0  0  0
  189.2070  175.0200  146.1660 C   0  0  0  0  0  2  0  0  0  0  0  0
  184.6910  178.0170  144.3330 O   0  0  0  0  0  0  0  0  0  0  0  0
  190.0410  172.0680  143.7030 C   0  0  0  0  0  2  0  0  0  0  0  0
  189.8530  171.4540  142.3250 C   0  0  0  0  0  2  0  0  0  0  0  0
  190.3490  171.9090  140.2250 C   0  0  0  0  0  1  0  0  0  0  0  0
  190.9160  171.8060  141.4940 O   0  0  0  0  0  0  0  0  0  0  0  0
  3  6  1  0  0  0  0
  4 23  1  0  0  0  0
  5 17  1  0  0  0  0
  6  2  1  0  0  0  0
  7 26  1  0  0  0  0
  7 12  1  0  0  0  0
  9 19  1  0  0  0  0
  9 22  1  0  0  0  0
 10  5  1  0  0  0  0
 10 12  2  0  0  0  0
 11  1  1  0  0  0  0
 12 16  1  0  0  0  0
 13 25  1  0  0  0  0
 14 11  2  0  0  0  0
 15 22  2  0  0  0  0
 16  8  2  0  0  0  0
 16 24  1  0  0  0  0
 17  8  1  0  0  0  0
 17  1  2  0  0  0  0
 18  3  1  0  0  0  0
 18 20  2  0  0  0  0
 19  4  1  0  0  0  0
 21  5  2  0  0  0  0
 21 14  1  0  0  0  0
 22 13  1  0  0  0  0
 23  7  2  0  0  0  0
 24  2  1  0  0  0  0
 25 18  1  0  0  0  0
 27 26  1  0  0  0  0
 28 29  1  0  0  0  0
 29 27  1  0  0  0  0
M  END
>  <MODEL>
2

>  <REMARK>
 VINA RESULT:      -7.2      2.892      7.166
  Name = 
  3 active torsions:
  status: ('A' for Active; 'I' for Inactive)
    1  A    between atoms: C_4  and  C_10
    2  A    between atoms: C_4  and  O_13
    3  A    between atoms: C_9  and  C_10
                            x       y       z     vdW  Elec       q    Type
                         _______ _______ _______ _____ _____    ______ ____

>  <TORSDO>
F 3

$$$$
=
 OpenBabel11062422453D

 29 31  0  0  0  0  0  0  0  0999 V2000
  187.4150  177.9910  146.9060 C   0  0  0  0  0  3  0  0  0  0  0  0
  191.5330  177.5330  143.9120 S   0  0  0  0  0  0  0  0  0  0  0  0
  192.6120  175.6200  142.2860 C   0  0  0  0  0  2  0  0  0  0  0  0
  189.2230  174.4750  142.1270 O   0  0  0  0  0  0  0  0  0  0  0  0
  186.4080  176.9120  144.9770 C   0  0  0  0  0  0  0  0  0  0  0  0
  191.8220  175.7730  143.5740 C   0  0  0  0  0  2  0  0  0  0  0  0
  187.7830  176.2210  141.5480 C   0  0  0  0  0  0  0  0  0  0  0  0
  188.6580  177.7310  144.8820 N   0  0  0  0  0  0  0  0  0  0  0  0
  190.6200  172.7480  142.8670 N   0  0  0  0  0  2  0  0  0  0  0  0
  186.5150  176.4830  143.6570 C   0  0  0  0  0  3  0  0  0  0  0  0
  186.2270  177.8020  147.6220 C   0  0  0  0  0  3  0  0  0  0  0  0
  187.7090  176.6690  142.9530 C   0  0  0  0  0  0  0  0  0  0  0  0
  192.9390  172.7010  141.8190 C   0  0  0  0  0  2  0  0  0  0  0  0
  185.1340  177.1710  147.0170 C   0  0  0  0  0  3  0  0  0  0  0  0
  192.4090  171.7070  143.9180 O   0  0  0  0  0  0  0  0  0  0  0  0
  188.7970  177.2960  143.5970 C   0  0  0  0  0  0  0  0  0  0  0  0
  187.5100  177.5460  145.5850 C   0  0  0  0  0  0  0  0  0  0  0  0
  193.8850  174.8800  142.5470 C   0  0  0  0  0  0  0  0  0  0  0  0
  190.0460  173.4050  141.7030 C   0  0  0  0  0  2  0  0  0  0  0  0
  195.1750  175.6990  143.1260 S   0  0  0  0  0  0  0  0  0  0  0  0
  185.2240  176.7260  145.6940 C   0  0  0  0  0  3  0  0  0  0  0  0
  191.9910  172.3530  142.9220 C   0  0  0  0  0  0  0  0  0  0  0  0
  188.5080  175.2010  141.2030 N   0  0  0  0  0  0  0  0  0  0  0  0
  190.0570  177.6130  142.8440 C   0  0  0  0  0  2  0  0  0  0  0  0
  194.0050  173.5060  142.3120 O   0  0  0  0  0  0  0  0  0  0  0  0
  186.9670  176.9170  140.5090 C   0  0  0  0  0  2  0  0  0  0  0  0
  186.2860  178.1470  141.0870 C   0  0  0  0  0  2  0  0  0  0  0  0
  184.1280  178.2690  141.5240 C   0  0  0  0  0  1  0  0  0  0  0  0
  185.0460  178.3400  140.4780 O   0  0  0  0  0  0  0  0  0  0  0  0
  1 11  1  0  0  0  0
  3 18  1  0  0  0  0
  3  6  1  0  0  0  0
  5 17  1  0  0  0  0
  5 21  2  0  0  0  0
  6  2  1  0  0  0  0
  7 12  1  0  0  0  0
  8 17  1  0  0  0  0
  9 22  1  0  0  0  0
 10  5  1  0  0  0  0
 12 16  1  0  0  0  0
 12 10  2  0  0  0  0
 13 25  1  0  0  0  0
 13 22  1  0  0  0  0
 14 11  2  0  0  0  0
 16  8  2  0  0  0  0
 17  1  2  0  0  0  0
 18 20  2  0  0  0  0
 19  4  1  0  0  0  0
 19  9  1  0  0  0  0
 21 14  1  0  0  0  0
 22 15  2  0  0  0  0
 23  7  2  0  0  0  0
 23  4  1  0  0  0  0
 24 16  1  0  0  0  0
 24  2  1  0  0  0  0
 25 18  1  0  0  0  0
 26 27  1  0  0  0  0
 26  7  1  0  0  0  0
 29 27  1  0  0  0  0
 29 28  1  0  0  0  0
M  END
>  <MODEL>
3

>  <REMARK>
 VINA RESULT:      -7.1      1.245      1.309
  Name = 
  3 active torsions:
  status: ('A' for Active; 'I' for Inactive)
    1  A    between atoms: C_4  and  C_10
    2  A    between atoms: C_4  and  O_13
    3  A    between atoms: C_9  and  C_10
                            x       y       z     vdW  Elec       q    Type
                         _______ _______ _______ _____ _____    ______ ____

>  <TORSDO>
F 3

$$$$
=
 OpenBabel11062422453D

 29 31  0  0  0  0  0  0  0  0999 V2000
  187.7970  175.6260  140.9640 C   0  0  0  0  0  3  0  0  0  0  0  0
  190.8190  172.9150  144.0720 S   0  0  0  0  0  0  0  0  0  0  0  0
  193.0690  173.3660  145.5560 C   0  0  0  0  0  2  0  0  0  0  0  0
  191.9120  176.7530  145.4660 O   0  0  0  0  0  0  0  0  0  0  0  0
  188.1290  177.2480  142.7400 C   0  0  0  0  0  0  0  0  0  0  0  0
  192.4030  173.7820  144.2560 C   0  0  0  0  0  2  0  0  0  0  0  0
  189.6810  176.8870  146.1440 C   0  0  0  0  0  0  0  0  0  0  0  0
  188.8600  174.9820  143.0050 N   0  0  0  0  0  0  0  0  0  0  0  0
  194.0940  176.6270  144.6280 N   0  0  0  0  0  2  0  0  0  0  0  0
  188.5970  177.5430  144.0180 C   0  0  0  0  0  3  0  0  0  0  0  0
  187.1870  176.6150  140.1840 C   0  0  0  0  0  3  0  0  0  0  0  0
  189.2140  176.5490  144.7860 C   0  0  0  0  0  0  0  0  0  0  0  0
  195.5980  174.9150  145.7630 C   0  0  0  0  0  2  0  0  0  0  0  0
  187.0480  177.9160  140.6820 C   0  0  0  0  0  3  0  0  0  0  0  0
  195.9590  175.7480  143.5600 O   0  0  0  0  0  0  0  0  0  0  0  0
  189.3510  175.2510  144.2490 C   0  0  0  0  0  0  0  0  0  0  0  0
  188.2720  175.9390  142.2400 C   0  0  0  0  0  0  0  0  0  0  0  0
  194.4180  172.7830  145.2810 C   0  0  0  0  0  0  0  0  0  0  0  0
  193.2810  176.7880  145.8220 C   0  0  0  0  0  2  0  0  0  0  0  0
  194.5310  171.2150  144.8350 S   0  0  0  0  0  0  0  0  0  0  0  0
  187.5180  178.2330  141.9600 C   0  0  0  0  0  3  0  0  0  0  0  0
  195.2410  175.7770  144.5940 C   0  0  0  0  0  0  0  0  0  0  0  0
  190.9460  176.9620  146.4230 N   0  0  0  0  0  0  0  0  0  0  0  0
  189.9060  174.1300  145.0800 C   0  0  0  0  0  2  0  0  0  0  0  0
  195.5880  173.5410  145.3910 O   0  0  0  0  0  0  0  0  0  0  0  0
  188.6830  177.2040  147.2090 C   0  0  0  0  0  2  0  0  0  0  0  0
  187.4770  176.2820  147.1160 C   0  0  0  0  0  2  0  0  0  0  0  0
  185.5670  176.7910  146.1390 C   0  0  0  0  0  1  0  0  0  0  0  0
  186.3010  177.0090  147.3030 O   0  0  0  0  0  0  0  0  0  0  0  0
  1 17  1  0  0  0  0
  2  6  1  0  0  0  0
  2 24  1  0  0  0  0
  4 19  1  0  0  0  0
  4 23  1  0  0  0  0
  5 10  1  0  0  0  0
  6  3  1  0  0  0  0
  7 23  2  0  0  0  0
  7 26  1  0  0  0  0
  8 16  2  0  0  0  0
  9 19  1  0  0  0  0
 10 12  2  0  0  0  0
 11 14  1  0  0  0  0
 11  1  2  0  0  0  0
 12  7  1  0  0  0  0
 14 21  2  0  0  0  0
 15 22  2  0  0  0  0
 16 12  1  0  0  0  0
 16 24  1  0  0  0  0
 17  5  2  0  0  0  0
 17  8  1  0  0  0  0
 18 25  1  0  0  0  0
 18  3  1  0  0  0  0
 20 18  2  0  0  0  0
 21  5  1  0  0  0  0
 22  9  1  0  0  0  0
 22 13  1  0  0  0  0
 25 13  1  0  0  0  0
 27 26  1  0  0  0  0
 27 29  1  0  0  0  0
 28 29  1  0  0  0  0
M  END
>  <MODEL>
4

>  <REMARK>
 VINA RESULT:      -7.0      3.338      5.485
  Name = 
  3 active torsions:
  status: ('A' for Active; 'I' for Inactive)
    1  A    between atoms: C_4  and  C_10
    2  A    between atoms: C_4  and  O_13
    3  A    between atoms: C_9  and  C_10
                            x       y       z     vdW  Elec       q    Type
                         _______ _______ _______ _____ _____    ______ ____

>  <TORSDO>
F 3

$$$$
=
 OpenBabel11062422453D

 29 31  0  0  0  0  0  0  0  0999 V2000
  190.1080  171.7670  141.7750 C   0  0  0  0  0  3  0  0  0  0  0  0
  187.6270  176.2350  141.6140 S   0  0  0  0  0  0  0  0  0  0  0  0
  186.6520  178.0390  143.4200 C   0  0  0  0  0  2  0  0  0  0  0  0
  189.1610  176.6090  145.5360 O   0  0  0  0  0  0  0  0  0  0  0  0
  191.3180  172.9770  143.4980 C   0  0  0  0  0  0  0  0  0  0  0  0
  186.8730  176.5480  143.2350 C   0  0  0  0  0  2  0  0  0  0  0  0
  191.2410  176.6060  144.4730 C   0  0  0  0  0  0  0  0  0  0  0  0
  189.7520  174.1100  142.0830 N   0  0  0  0  0  0  0  0  0  0  0  0
  187.0620  176.4490  146.5590 N   0  0  0  0  0  2  0  0  0  0  0  0
  191.5860  174.1770  144.1520 C   0  0  0  0  0  3  0  0  0  0  0  0
  190.7630  170.5900  142.1510 C   0  0  0  0  0  3  0  0  0  0  0  0
  190.9200  175.3470  143.7740 C   0  0  0  0  0  0  0  0  0  0  0  0
  185.4930  178.4070  146.1330 C   0  0  0  0  0  2  0  0  0  0  0  0
  191.6930  170.6070  143.1970 C   0  0  0  0  0  3  0  0  0  0  0  0
  184.7600  176.2290  146.7600 O   0  0  0  0  0  0  0  0  0  0  0  0
  189.9770  175.2930  142.7240 C   0  0  0  0  0  0  0  0  0  0  0  0
  190.3800  172.9620  142.4470 C   0  0  0  0  0  0  0  0  0  0  0  0
  185.2040  178.3190  143.6680 C   0  0  0  0  0  0  0  0  0  0  0  0
  188.2410  177.2790  146.3740 C   0  0  0  0  0  2  0  0  0  0  0  0
  184.1860  178.4250  142.3940 S   0  0  0  0  0  0  0  0  0  0  0  0
  191.9720  171.8000  143.8710 C   0  0  0  0  0  3  0  0  0  0  0  0
  185.7380  176.9790  146.5020 C   0  0  0  0  0  0  0  0  0  0  0  0
  190.3910  177.1680  145.2770 N   0  0  0  0  0  0  0  0  0  0  0  0
  189.3210  176.5440  142.2150 C   0  0  0  0  0  2  0  0  0  0  0  0
  184.6930  178.4900  144.9590 O   0  0  0  0  0  0  0  0  0  0  0  0
  192.5900  177.2220  144.2960 C   0  0  0  0  0  2  0  0  0  0  0  0
  193.4970  176.8920  145.4720 C   0  0  0  0  0  2  0  0  0  0  0  0
  195.0390  176.1790  144.0650 C   0  0  0  0  0  1  0  0  0  0  0  0
  194.8330  177.0740  145.1140 O   0  0  0  0  0  0  0  0  0  0  0  0
  1 11  2  0  0  0  0
  1 17  1  0  0  0  0
  2 24  1  0  0  0  0
  2  6  1  0  0  0  0
  3 18  1  0  0  0  0
  4 19  1  0  0  0  0
  5 21  1  0  0  0  0
  5 10  1  0  0  0  0
  6  3  1  0  0  0  0
  7 23  2  0  0  0  0
  8 17  1  0  0  0  0
  8 16  2  0  0  0  0
 11 14  1  0  0  0  0
 12 10  2  0  0  0  0
 12  7  1  0  0  0  0
 13 22  1  0  0  0  0
 14 21  2  0  0  0  0
 16 12  1  0  0  0  0
 17  5  2  0  0  0  0
 18 25  1  0  0  0  0
 19  9  1  0  0  0  0
 20 18  2  0  0  0  0
 22  9  1  0  0  0  0
 22 15  2  0  0  0  0
 23  4  1  0  0  0  0
 24 16  1  0  0  0  0
 25 13  1  0  0  0  0
 26  7  1  0  0  0  0
 26 27  1  0  0  0  0
 28 29  1  0  0  0  0
 29 27  1  0  0  0  0
M  END
>  <MODEL>
5

>  <REMARK>
 VINA RESULT:      -6.8      3.182      7.768
  Name = 
  3 active torsions:
  status: ('A' for Active; 'I' for Inactive)
    1  A    between atoms: C_4  and  C_10
    2  A    between atoms: C_4  and  O_13
    3  A    between atoms: C_9  and  C_10
                            x       y       z     vdW  Elec       q    Type
                         _______ _______ _______ _____ _____    ______ ____

>  <TORSDO>
F 3

$$$$
=
 OpenBabel11062422453D

 29 31  0  0  0  0  0  0  0  0999 V2000
  192.7040  169.5730  143.1850 C   0  0  0  0  0  3  0  0  0  0  0  0
  191.4170  174.4540  142.3720 S   0  0  0  0  0  0  0  0  0  0  0  0
  190.6970  176.6050  143.8950 C   0  0  0  0  0  2  0  0  0  0  0  0
  192.5100  174.8520  146.4370 O   0  0  0  0  0  0  0  0  0  0  0  0
  193.9530  170.6370  144.9760 C   0  0  0  0  0  0  0  0  0  0  0  0
  190.5710  175.0930  143.8450 C   0  0  0  0  0  2  0  0  0  0  0  0
  194.6400  174.2640  145.6810 C   0  0  0  0  0  0  0  0  0  0  0  0
  192.8910  171.9540  143.2800 N   0  0  0  0  0  0  0  0  0  0  0  0
  190.3260  175.2840  147.1610 N   0  0  0  0  0  2  0  0  0  0  0  0
  194.4230  171.8010  145.5780 C   0  0  0  0  0  3  0  0  0  0  0  0
  193.0040  168.3200  143.7300 C   0  0  0  0  0  3  0  0  0  0  0  0
  194.1100  173.0500  145.0310 C   0  0  0  0  0  0  0  0  0  0  0  0
  189.3410  177.5000  146.3860 C   0  0  0  0  0  2  0  0  0  0  0  0
  193.7770  168.2260  144.8930 C   0  0  0  0  0  3  0  0  0  0  0  0
  188.0320  175.6230  147.0500 O   0  0  0  0  0  0  0  0  0  0  0  0
  193.3170  173.1100  143.8650 C   0  0  0  0  0  0  0  0  0  0  0  0
  193.1740  170.7330  143.8070 C   0  0  0  0  0  0  0  0  0  0  0  0
  189.3400  177.2350  143.9160 C   0  0  0  0  0  0  0  0  0  0  0  0
  191.6840  175.7980  147.0890 C   0  0  0  0  0  2  0  0  0  0  0  0
  188.5400  177.4460  142.5070 S   0  0  0  0  0  0  0  0  0  0  0  0
  194.2520  169.3840  145.5170 C   0  0  0  0  0  3  0  0  0  0  0  0
  189.1860  176.0970  146.8820 C   0  0  0  0  0  0  0  0  0  0  0  0
  193.8600  175.0840  146.3170 N   0  0  0  0  0  0  0  0  0  0  0  0
  193.0500  174.4220  143.1840 C   0  0  0  0  0  2  0  0  0  0  0  0
  188.7340  177.6480  145.1070 O   0  0  0  0  0  0  0  0  0  0  0  0
  196.1090  174.5310  145.6560 C   0  0  0  0  0  2  0  0  0  0  0  0
  196.5590  174.9710  144.2720 C   0  0  0  0  0  2  0  0  0  0  0  0
  196.9810  176.8120  143.1340 C   0  0  0  0  0  1  0  0  0  0  0  0
  196.0340  176.2290  143.9740 O   0  0  0  0  0  0  0  0  0  0  0  0
  1 11  2  0  0  0  0
  1 17  1  0  0  0  0
  2 24  1  0  0  0  0
  2  6  1  0  0  0  0
  3 18  1  0  0  0  0
  4 19  1  0  0  0  0
  5 21  1  0  0  0  0
  5 10  1  0  0  0  0
  6  3  1  0  0  0  0
  7 23  2  0  0  0  0
  8 17  1  0  0  0  0
  8 16  2  0  0  0  0
 11 14  1  0  0  0  0
 12 10  2  0  0  0  0
 12  7  1  0  0  0  0
 13 22  1  0  0  0  0
 14 21  2  0  0  0  0
 16 12  1  0  0  0  0
 17  5  2  0  0  0  0
 18 25  1  0  0  0  0
 19  9  1  0  0  0  0
 20 18  2  0  0  0  0
 22 15  2  0  0  0  0
 22  9  1  0  0  0  0
 23  4  1  0  0  0  0
 24 16  1  0  0  0  0
 25 13  1  0  0  0  0
 26  7  1  0  0  0  0
 27 26  1  0  0  0  0
 28 29  1  0  0  0  0
 29 27  1  0  0  0  0
M  END
>  <MODEL>
6

>  <REMARK>
 VINA RESULT:      -6.6      4.155      8.720
  Name = 
  3 active torsions:
  status: ('A' for Active; 'I' for Inactive)
    1  A    between atoms: C_4  and  C_10
    2  A    between atoms: C_4  and  O_13
    3  A    between atoms: C_9  and  C_10
                            x       y       z     vdW  Elec       q    Type
                         _______ _______ _______ _____ _____    ______ ____

>  <TORSDO>
F 3

$$$$
=
 OpenBabel11062422453D

 29 31  0  0  0  0  0  0  0  0999 V2000
  188.6990  175.4180  141.7100 C   0  0  0  0  0  3  0  0  0  0  0  0
  192.7290  172.6000  143.1100 S   0  0  0  0  0  0  0  0  0  0  0  0
  195.3720  173.0340  143.6510 C   0  0  0  0  0  2  0  0  0  0  0  0
  194.2250  176.3470  144.3720 O   0  0  0  0  0  0  0  0  0  0  0  0
  189.6730  176.8860  143.3820 C   0  0  0  0  0  0  0  0  0  0  0  0
  194.2480  173.5310  142.7600 C   0  0  0  0  0  2  0  0  0  0  0  0
  192.4320  176.2990  145.8670 C   0  0  0  0  0  0  0  0  0  0  0  0
  190.4810  174.6480  143.1040 N   0  0  0  0  0  0  0  0  0  0  0  0
  195.9110  176.4160  142.7490 N   0  0  0  0  0  2  0  0  0  0  0  0
  190.5970  177.0870  144.4050 C   0  0  0  0  0  3  0  0  0  0  0  0
  187.8210  176.4400  141.3350 C   0  0  0  0  0  3  0  0  0  0  0  0
  191.4770  176.0620  144.7660 C   0  0  0  0  0  0  0  0  0  0  0  0
  197.7610  174.6910  143.0290 C   0  0  0  0  0  2  0  0  0  0  0  0
  187.8670  177.6810  141.9830 C   0  0  0  0  0  3  0  0  0  0  0  0
  197.2250  175.7410  140.9590 O   0  0  0  0  0  0  0  0  0  0  0  0
  191.4130  174.8270  144.0840 C   0  0  0  0  0  0  0  0  0  0  0  0
  189.6280  175.6380  142.7310 C   0  0  0  0  0  0  0  0  0  0  0  0
  196.5170  172.5510  142.8180 C   0  0  0  0  0  0  0  0  0  0  0  0
  195.6240  176.4230  144.1740 C   0  0  0  0  0  2  0  0  0  0  0  0
  196.4690  171.0400  142.2000 S   0  0  0  0  0  0  0  0  0  0  0  0
  188.7940  177.9050  143.0070 C   0  0  0  0  0  3  0  0  0  0  0  0
  196.9650  175.6360  142.1860 C   0  0  0  0  0  0  0  0  0  0  0  0
  193.7040  176.4160  145.6430 N   0  0  0  0  0  0  0  0  0  0  0  0
  192.2630  173.6660  144.5140 C   0  0  0  0  0  2  0  0  0  0  0  0
  197.6270  173.3580  142.5480 O   0  0  0  0  0  0  0  0  0  0  0  0
  191.9210  176.4620  147.2610 C   0  0  0  0  0  2  0  0  0  0  0  0
  191.0200  175.3010  147.6500 C   0  0  0  0  0  2  0  0  0  0  0  0
  188.9870  174.5400  147.2630 C   0  0  0  0  0  1  0  0  0  0  0  0
  189.6830  175.6960  147.6110 O   0  0  0  0  0  0  0  0  0  0  0  0
  1 17  1  0  0  0  0
  2 24  1  0  0  0  0
  4 23  1  0  0  0  0
  5 10  1  0  0  0  0
  6  2  1  0  0  0  0
  6  3  1  0  0  0  0
  7 26  1  0  0  0  0
  8 16  2  0  0  0  0
  9 19  1  0  0  0  0
 10 12  2  0  0  0  0
 11  1  2  0  0  0  0
 11 14  1  0  0  0  0
 12  7  1  0  0  0  0
 14 21  2  0  0  0  0
 15 22  2  0  0  0  0
 16 24  1  0  0  0  0
 16 12  1  0  0  0  0
 17  8  1  0  0  0  0
 17  5  2  0  0  0  0
 18  3  1  0  0  0  0
 19  4  1  0  0  0  0
 20 18  2  0  0  0  0
 21  5  1  0  0  0  0
 22  9  1  0  0  0  0
 22 13  1  0  0  0  0
 23  7  2  0  0  0  0
 25 18  1  0  0  0  0
 25 13  1  0  0  0  0
 26 27  1  0  0  0  0
 28 29  1  0  0  0  0
 29 27  1  0  0  0  0
M  END
>  <MODEL>
7

>  <REMARK>
 VINA RESULT:      -6.5      3.863      6.307
  Name = 
  3 active torsions:
  status: ('A' for Active; 'I' for Inactive)
    1  A    between atoms: C_4  and  C_10
    2  A    between atoms: C_4  and  O_13
    3  A    between atoms: C_9  and  C_10
                            x       y       z     vdW  Elec       q    Type
                         _______ _______ _______ _____ _____    ______ ____

>  <TORSDO>
F 3

$$$$
=
 OpenBabel11062422453D

 29 31  0  0  0  0  0  0  0  0999 V2000
  187.0740  176.7950  140.7290 C   0  0  0  0  0  3  0  0  0  0  0  0
  190.8310  173.3300  140.5870 S   0  0  0  0  0  0  0  0  0  0  0  0
  193.4100  173.1500  141.4700 C   0  0  0  0  0  2  0  0  0  0  0  0
  192.2980  175.5850  143.8480 O   0  0  0  0  0  0  0  0  0  0  0  0
  187.9030  176.9870  143.0040 C   0  0  0  0  0  0  0  0  0  0  0  0
  192.4080  174.1580  140.9350 C   0  0  0  0  0  2  0  0  0  0  0  0
  190.3490  174.8700  144.9180 C   0  0  0  0  0  0  0  0  0  0  0  0
  188.6640  175.2230  141.5720 N   0  0  0  0  0  0  0  0  0  0  0  0
  194.1540  176.3970  142.6760 N   0  0  0  0  0  2  0  0  0  0  0  0
  188.7140  176.5000  144.0260 C   0  0  0  0  0  3  0  0  0  0  0  0
  186.2750  177.9260  140.9330 C   0  0  0  0  0  3  0  0  0  0  0  0
  189.5150  175.3740  143.8090 C   0  0  0  0  0  0  0  0  0  0  0  0
  195.9060  174.6520  142.0690 C   0  0  0  0  0  2  0  0  0  0  0  0
  186.2900  178.5840  142.1680 C   0  0  0  0  0  3  0  0  0  0  0  0
  195.6360  176.7220  140.9190 O   0  0  0  0  0  0  0  0  0  0  0  0
  189.4870  174.7410  142.5480 C   0  0  0  0  0  0  0  0  0  0  0  0
  187.8900  176.3240  141.7610 C   0  0  0  0  0  0  0  0  0  0  0  0
  194.6240  173.1160  140.5970 C   0  0  0  0  0  0  0  0  0  0  0  0
  193.7110  175.6330  143.8310 C   0  0  0  0  0  2  0  0  0  0  0  0
  194.5960  172.2170  139.2330 S   0  0  0  0  0  0  0  0  0  0  0  0
  187.1040  178.1150  143.2050 C   0  0  0  0  0  3  0  0  0  0  0  0
  195.2390  175.9730  141.8500 C   0  0  0  0  0  0  0  0  0  0  0  0
  191.6420  174.9780  144.8940 N   0  0  0  0  0  0  0  0  0  0  0  0
  190.2470  173.4680  142.3090 C   0  0  0  0  0  2  0  0  0  0  0  0
  195.7830  173.8330  140.9110 O   0  0  0  0  0  0  0  0  0  0  0  0
  189.6930  174.2730  146.1200 C   0  0  0  0  0  2  0  0  0  0  0  0
  189.6390  175.2730  147.2640 C   0  0  0  0  0  2  0  0  0  0  0  0
  191.1910  176.6370  148.0350 C   0  0  0  0  0  1  0  0  0  0  0  0
  190.8540  175.2870  147.9470 O   0  0  0  0  0  0  0  0  0  0  0  0
  1 11  2  0  0  0  0
  1 17  1  0  0  0  0
  2  6  1  0  0  0  0
  2 24  1  0  0  0  0
  4 23  1  0  0  0  0
  5 21  1  0  0  0  0
  5 10  1  0  0  0  0
  6  3  1  0  0  0  0
  7 26  1  0  0  0  0
  8 17  1  0  0  0  0
  8 16  2  0  0  0  0
  9 19  1  0  0  0  0
 11 14  1  0  0  0  0
 12 10  2  0  0  0  0
 12  7  1  0  0  0  0
 14 21  2  0  0  0  0
 15 22  2  0  0  0  0
 16 12  1  0  0  0  0
 17  5  2  0  0  0  0
 18 25  1  0  0  0  0
 18  3  1  0  0  0  0
 19  4  1  0  0  0  0
 20 18  2  0  0  0  0
 22 13  1  0  0  0  0
 22  9  1  0  0  0  0
 23  7  2  0  0  0  0
 24 16  1  0  0  0  0
 25 13  1  0  0  0  0
 26 27  1  0  0  0  0
 27 29  1  0  0  0  0
 29 28  1  0  0  0  0
M  END
>  <MODEL>
8

>  <REMARK>
 VINA RESULT:      -6.3      3.200      5.575
  Name = 
  3 active torsions:
  status: ('A' for Active; 'I' for Inactive)
    1  A    between atoms: C_4  and  C_10
    2  A    between atoms: C_4  and  O_13
    3  A    between atoms: C_9  and  C_10
                            x       y       z     vdW  Elec       q    Type
                         _______ _______ _______ _____ _____    ______ ____

>  <TORSDO>
F 3

$$$$
=
 OpenBabel11062422453D

 29 31  0  0  0  0  0  0  0  0999 V2000
  189.7720  177.5010  145.6400 C   0  0  0  0  0  3  0  0  0  0  0  0
  193.5090  175.8910  142.5450 S   0  0  0  0  0  0  0  0  0  0  0  0
  195.3730  173.8930  142.5440 C   0  0  0  0  0  2  0  0  0  0  0  0
  193.0160  172.2960  144.7140 O   0  0  0  0  0  0  0  0  0  0  0  0
  189.4090  175.1030  145.7630 C   0  0  0  0  0  0  0  0  0  0  0  0
  194.6360  174.8260  143.4890 C   0  0  0  0  0  2  0  0  0  0  0  0
  190.8840  172.2850  143.7600 C   0  0  0  0  0  0  0  0  0  0  0  0
  190.9410  176.0260  144.1690 N   0  0  0  0  0  0  0  0  0  0  0  0
  195.1040  172.4380  145.7630 N   0  0  0  0  0  2  0  0  0  0  0  0
  189.6930  173.8260  145.2880 C   0  0  0  0  0  3  0  0  0  0  0  0
  188.8530  177.6870  146.6790 C   0  0  0  0  0  3  0  0  0  0  0  0
  190.6190  173.6510  144.2550 C   0  0  0  0  0  0  0  0  0  0  0  0
  197.1140  172.1650  144.2250 C   0  0  0  0  0  2  0  0  0  0  0  0
  188.2140  176.5830  147.2570 C   0  0  0  0  0  3  0  0  0  0  0  0
  197.1920  173.2800  146.3300 O   0  0  0  0  0  0  0  0  0  0  0  0
  191.2560  174.7830  143.7030 C   0  0  0  0  0  0  0  0  0  0  0  0
  190.0540  176.2120  145.1810 C   0  0  0  0  0  0  0  0  0  0  0  0
  196.8500  174.0880  142.6740 C   0  0  0  0  0  0  0  0  0  0  0  0
  194.2560  171.6410  144.8910 C   0  0  0  0  0  2  0  0  0  0  0  0
  197.5650  175.3140  141.8640 S   0  0  0  0  0  0  0  0  0  0  0  0
  188.4910  175.2910  146.8000 C   0  0  0  0  0  3  0  0  0  0  0  0
  196.4880  172.6570  145.4910 C   0  0  0  0  0  0  0  0  0  0  0  0
  192.0160  171.6930  143.9860 N   0  0  0  0  0  0  0  0  0  0  0  0
  192.1730  174.6500  142.5210 C   0  0  0  0  0  2  0  0  0  0  0  0
  197.6390  173.2530  143.4730 O   0  0  0  0  0  0  0  0  0  0  0  0
  189.8100  171.5460  143.0320 C   0  0  0  0  0  2  0  0  0  0  0  0
  189.3280  172.3350  141.8250 C   0  0  0  0  0  2  0  0  0  0  0  0
  188.0310  174.1190  141.8120 C   0  0  0  0  0  1  0  0  0  0  0  0
  188.0060  172.7400  142.0130 O   0  0  0  0  0  0  0  0  0  0  0  0
  1 11  1  0  0  0  0
  2  6  1  0  0  0  0
  3 18  1  0  0  0  0
  3  6  1  0  0  0  0
  4 19  1  0  0  0  0
  5 21  2  0  0  0  0
  7 23  2  0  0  0  0
  7 12  1  0  0  0  0
  8 17  1  0  0  0  0
 10  5  1  0  0  0  0
 11 14  2  0  0  0  0
 12 10  2  0  0  0  0
 13 22  1  0  0  0  0
 16  8  2  0  0  0  0
 16 12  1  0  0  0  0
 17  1  2  0  0  0  0
 17  5  1  0  0  0  0
 18 25  1  0  0  0  0
 19  9  1  0  0  0  0
 20 18  2  0  0  0  0
 21 14  1  0  0  0  0
 22  9  1  0  0  0  0
 22 15  2  0  0  0  0
 23  4  1  0  0  0  0
 24  2  1  0  0  0  0
 24 16  1  0  0  0  0
 25 13  1  0  0  0  0
 26  7  1  0  0  0  0
 27 29  1  0  0  0  0
 27 26  1  0  0  0  0
 28 29  1  0  0  0  0
M  END
>  <MODEL>
9

>  <REMARK>
 VINA RESULT:      -6.3      3.410      5.291
  Name = 
  3 active torsions:
  status: ('A' for Active; 'I' for Inactive)
    1  A    between atoms: C_4  and  C_10
    2  A    between atoms: C_4  and  O_13
    3  A    between atoms: C_9  and  C_10
                            x       y       z     vdW  Elec       q    Type
                         _______ _______ _______ _____ _____    ______ ____

>  <TORSDO>
F 3

$$$$
