=
 OpenBabel11072408573D

 45 50  0  0  1  0  0  0  0  0999 V2000
  189.4400  175.9090  142.8380 C   0  0  1  0  0  0  0  0  0  0  0  0
  192.9070  176.8030  144.0450 C   0  0  0  0  0  2  0  0  0  0  0  0
  192.1640  176.4920  145.3850 C   0  0  1  0  0  3  0  0  0  0  0  0
  190.9490  175.9190  142.9190 C   0  0  1  0  0  3  0  0  0  0  0  0
  191.9420  177.0570  142.8620 C   0  0  0  0  0  2  0  0  0  0  0  0
  190.8130  175.7500  145.2040 C   0  0  0  0  0  2  0  0  0  0  0  0
  190.0980  176.4680  144.0750 C   0  0  2  0  0  3  0  0  0  0  0  0
  188.7750  176.9990  142.0140 C   0  0  0  0  0  2  0  0  0  0  0  0
  188.1320  178.0370  142.9180 C   0  0  0  0  0  2  0  0  0  0  0  0
  186.7670  178.4500  142.3830 C   0  0  1  0  0  3  0  0  0  0  0  0
  186.0020  177.2360  141.8980 C   0  0  0  0  0  1  0  0  0  0  0  0
  185.9410  179.2730  143.3780 C   0  0  0  0  0  2  0  0  0  0  0  0
  184.7930  178.4980  144.0400 C   0  0  0  0  0  2  0  0  0  0  0  0
  186.7860  176.5490  145.8510 C   0  0  0  0  0  2  0  0  0  0  0  0
  186.3370  179.0950  147.6120 C   0  0  0  0  0  2  0  0  0  0  0  0
  187.4970  177.2130  147.0420 C   0  0  0  0  0  2  0  0  0  0  0  0
  185.9430  179.3200  146.1350 C   0  0  0  0  0  2  0  0  0  0  0  0
  186.5640  177.7450  147.9530 O   0  0  0  0  0  0  0  0  0  0  0  0
  183.5580  178.5700  146.2030 C   0  0  0  0  0  1  0  0  0  0  0  0
  184.9140  178.3230  145.5600 C   0  0  1  0  0  0  0  0  0  0  0  0
  185.2770  176.8490  145.8170 C   0  0  0  0  0  2  0  0  0  0  0  0
  188.6680  174.6220  143.1520 C   0  0  0  0  0  2  0  0  0  0  0  0
  187.5570  172.8260  141.0200 O   0  0  0  0  0  0  0  0  0  0  0  0
  188.5990  173.3090  140.2090 C   0  0  1  0  0  0  0  0  0  0  0  0
  189.7140  173.7500  141.0890 C   0  0  2  0  0  3  0  0  0  0  0  0
  188.0910  172.4710  142.1880 O   0  0  0  0  0  0  0  0  0  0  0  0
  189.9020  172.5430  140.1640 C   0  0  0  0  0  2  0  0  0  0  0  0
  189.1670  173.3490  142.4390 C   0  0  2  0  0  0  0  0  0  0  0  0
  189.9570  172.1770  144.4760 C   0  0  0  0  0  2  0  0  0  0  0  0
  190.2250  172.6470  143.2600 C   0  0  0  0  0  0  0  0  0  0  0  0
  191.5090  172.4920  142.7510 O   0  0  0  0  0  1  0  0  0  0  0  0
  188.2670  174.3040  139.1120 C   0  0  0  0  0  2  0  0  0  0  0  0
  188.5790  173.7020  137.7560 C   0  0  0  0  0  1  0  0  0  0  0  0
  193.0380  175.7660  146.3040 N   0  0  0  0  0  2  0  0  0  0  0  0
  195.2750  174.9040  146.0220 C   0  0  0  0  0  3  0  0  0  0  0  0
  195.6860  172.4530  145.6850 C   0  0  0  0  0  2  0  0  0  0  0  0
  196.2760  173.8570  145.6200 C   0  0  2  0  0  3  0  0  0  0  0  0
  194.3740  172.4390  144.9070 C   0  0  2  0  0  3  0  0  0  0  0  0
  193.3680  173.3700  145.5850 C   0  0  0  0  0  2  0  0  0  0  0  0
  197.4010  173.9420  146.4400 O   0  0  0  0  0  1  0  0  0  0  0  0
  193.9480  174.7180  145.9390 C   0  0  0  0  0  0  0  0  0  0  0  0
  193.8030  171.0300  144.8530 C   0  0  0  0  0  2  0  0  0  0  0  0
  194.1120  170.3870  143.5450 C   0  0  0  0  0  0  0  0  0  0  0  0
  193.7750  169.0560  143.3270 O   0  0  0  0  0  1  0  0  0  0  0  0
  194.6500  171.0580  142.6230 O   0  0  0  0  0  0  0  0  0  0  0  0
  1  8  1  6  0  0  0
  1  4  1  0  0  0  0
  1 22  1  0  0  0  0
  1  7  1  0  0  0  0
  2  3  1  0  0  0  0
  3 34  1  1  0  0  0
  4  5  1  6  0  0  0
  4  7  1  0  0  0  0
  5  2  1  0  0  0  0
  6  3  1  0  0  0  0
  7  6  1  1  0  0  0
  8  9  1  0  0  0  0
 10 11  1  1  0  0  0
 10  9  1  0  0  0  0
 10 12  1  0  0  0  0
 12 13  1  0  0  0  0
 13 20  1  0  0  0  0
 14 16  1  0  0  0  0
 15 18  1  0  0  0  0
 16 18  1  0  0  0  0
 17 15  1  0  0  0  0
 20 21  1  0  0  0  0
 20 17  1  0  0  0  0
 20 19  1  1  0  0  0
 21 14  1  0  0  0  0
 23 26  1  0  0  0  0
 24 32  1  6  0  0  0
 24 23  1  0  0  0  0
 24 25  1  0  0  0  0
 25 27  1  6  0  0  0
 25 28  1  0  0  0  0
 26 28  1  0  0  0  0
 27 24  1  0  0  0  0
 28 22  1  1  0  0  0
 28 30  1  0  0  0  0
 30 29  2  0  0  0  0
 31 30  1  0  0  0  0
 33 32  1  0  0  0  0
 37 36  1  0  0  0  0
 37 35  1  0  0  0  0
 37 40  1  1  0  0  0
 38 42  1  1  0  0  0
 38 39  1  0  0  0  0
 38 36  1  0  0  0  0
 39 41  1  0  0  0  0
 41 35  2  0  0  0  0
 41 34  1  0  0  0  0
 43 42  1  0  0  0  0
 44 43  1  0  0  0  0
 45 43  2  0  0  0  0
M  END
>  <MODEL>
1

>  <REMARK>
 VINA RESULT:      -7.3      0.000      0.000
  Name = 
  14 active torsions:
  status: ('A' for Active; 'I' for Inactive)
    1  A    between atoms: C_1  and  C_5
    2  A    between atoms: C_1  and  C_38
    3  A    between atoms: C_2  and  C_31
    4  A    between atoms: C_5  and  C_30
    5  A    between atoms: C_6  and  C_27
    6  A    between atoms: C_8  and  C_40
    7  A    between atoms: C_15  and  N_43
    8  A    between atoms: C_16  and  C_28
    9  A    between atoms: C_16  and  C_38
   10  A    between atoms: C_25  and  C_28
   11  A    between atoms: C_25  and  C_39
   12  A    between atoms: C_30  and  C_40
   13  A    between atoms: C_31  and  C_34
   14  A    between atoms: N_43  and  C_45
                            x       y       z     vdW  Elec       q    Type
                         _______ _______ _______ _____ _____    ______ ____

>  <TORSDO>
F 14

$$$$
=
 OpenBabel11072408573D

 45 50  0  0  1  0  0  0  0  0999 V2000
  189.3670  174.9080  142.7770 C   0  0  1  0  0  0  0  0  0  0  0  0
  191.4330  177.7900  144.0800 C   0  0  0  0  0  2  0  0  0  0  0  0
  191.5980  176.7290  145.2150 C   0  0  1  0  0  3  0  0  0  0  0  0
  190.3770  176.0310  142.7850 C   0  0  1  0  0  3  0  0  0  0  0  0
  190.2370  177.4930  143.1430 C   0  0  0  0  0  2  0  0  0  0  0  0
  191.1550  175.2960  144.8150 C   0  0  0  0  0  2  0  0  0  0  0  0
  189.8270  175.4610  144.1020 C   0  0  2  0  0  3  0  0  0  0  0  0
  187.9180  175.2690  142.4890 C   0  0  0  0  0  2  0  0  0  0  0  0
  187.7860  175.8920  141.1100 C   0  0  0  0  0  2  0  0  0  0  0  0
  187.0340  177.2150  141.1830 C   0  0  1  0  0  3  0  0  0  0  0  0
  186.3830  177.5240  139.8510 C   0  0  0  0  0  1  0  0  0  0  0  0
  186.0220  177.2830  142.3320 C   0  0  0  0  0  2  0  0  0  0  0  0
  186.2190  178.4740  143.2790 C   0  0  0  0  0  2  0  0  0  0  0  0
  186.8160  176.5390  145.9150 C   0  0  0  0  0  2  0  0  0  0  0  0
  185.6340  179.1790  147.1080 C   0  0  0  0  0  2  0  0  0  0  0  0
  186.8120  177.2310  147.2890 C   0  0  0  0  0  2  0  0  0  0  0  0
  186.1070  179.3490  145.6480 C   0  0  0  0  0  2  0  0  0  0  0  0
  185.5670  177.8380  147.5440 O   0  0  0  0  0  0  0  0  0  0  0  0
  184.0220  178.6900  144.4350 C   0  0  0  0  0  1  0  0  0  0  0  0
  185.4950  178.3650  144.6280 C   0  0  1  0  0  0  0  0  0  0  0  0
  185.5810  176.8920  145.0690 C   0  0  0  0  0  2  0  0  0  0  0  0
  189.8370  173.4610  142.5840 C   0  0  0  0  0  2  0  0  0  0  0  0
  192.7280  173.8740  141.8960 O   0  0  0  0  0  0  0  0  0  0  0  0
  192.8200  172.4720  141.8680 C   0  0  1  0  0  0  0  0  0  0  0  0
  191.4740  171.9180  141.5590 C   0  0  2  0  0  3  0  0  0  0  0  0
  191.6610  174.2190  141.1750 O   0  0  0  0  0  0  0  0  0  0  0  0
  192.6180  171.7540  140.5520 C   0  0  0  0  0  2  0  0  0  0  0  0
  190.7010  173.1970  141.3350 C   0  0  2  0  0  0  0  0  0  0  0  0
  190.2350  173.6300  138.9390 C   0  0  0  0  0  2  0  0  0  0  0  0
  189.8440  173.0960  140.0940 C   0  0  0  0  0  0  0  0  0  0  0  0
  188.6180  172.4440  140.1480 O   0  0  0  0  0  1  0  0  0  0  0  0
  193.5140  171.7640  143.0170 C   0  0  0  0  0  2  0  0  0  0  0  0
  192.8130  172.0850  144.3220 C   0  0  0  0  0  1  0  0  0  0  0  0
  192.9680  176.7270  145.7260 N   0  0  0  0  0  2  0  0  0  0  0  0
  194.4910  176.3750  143.8860 C   0  0  0  0  0  3  0  0  0  0  0  0
  196.5930  175.0410  144.1820 C   0  0  0  0  0  2  0  0  0  0  0  0
  195.6270  175.6800  143.1910 C   0  0  2  0  0  3  0  0  0  0  0  0
  195.7940  174.1800  145.1550 C   0  0  2  0  0  3  0  0  0  0  0  0
  194.8530  175.0680  145.9700 C   0  0  0  0  0  2  0  0  0  0  0  0
  196.3070  176.5870  142.3780 O   0  0  0  0  0  1  0  0  0  0  0  0
  194.0820  176.0520  145.1240 C   0  0  0  0  0  0  0  0  0  0  0  0
  196.7290  173.4350  146.0960 C   0  0  0  0  0  2  0  0  0  0  0  0
  196.9010  172.0210  145.6580 C   0  0  0  0  0  0  0  0  0  0  0  0
  195.9820  171.0550  146.0470 O   0  0  0  0  0  1  0  0  0  0  0  0
  197.8640  171.7070  144.9070 O   0  0  0  0  0  0  0  0  0  0  0  0
  1  8  1  6  0  0  0
  1  4  1  0  0  0  0
  1  7  1  0  0  0  0
  2  3  1  0  0  0  0
  3 34  1  6  0  0  0
  4  5  1  6  0  0  0
  4  7  1  0  0  0  0
  5  2  1  0  0  0  0
  6  3  1  0  0  0  0
  7  6  1  1  0  0  0
  9 10  1  0  0  0  0
  9  8  1  0  0  0  0
 10 11  1  6  0  0  0
 10 12  1  0  0  0  0
 12 13  1  0  0  0  0
 13 20  1  0  0  0  0
 14 16  1  0  0  0  0
 15 18  1  0  0  0  0
 16 18  1  0  0  0  0
 17 15  1  0  0  0  0
 20 19  1  6  0  0  0
 20 21  1  0  0  0  0
 20 17  1  0  0  0  0
 21 14  1  0  0  0  0
 22  1  1  0  0  0  0
 24 23  1  0  0  0  0
 24 32  1  1  0  0  0
 25 27  1  6  0  0  0
 25 24  1  0  0  0  0
 26 28  1  0  0  0  0
 26 23  1  0  0  0  0
 27 24  1  0  0  0  0
 28 25  1  0  0  0  0
 28 22  1  1  0  0  0
 29 30  2  0  0  0  0
 30 31  1  0  0  0  0
 30 28  1  0  0  0  0
 32 33  1  0  0  0  0
 35 41  2  0  0  0  0
 36 38  1  0  0  0  0
 37 40  1  1  0  0  0
 37 35  1  0  0  0  0
 37 36  1  0  0  0  0
 38 39  1  0  0  0  0
 38 42  1  1  0  0  0
 41 34  1  0  0  0  0
 41 39  1  0  0  0  0
 43 44  1  0  0  0  0
 43 42  1  0  0  0  0
 45 43  2  0  0  0  0
M  END
>  <MODEL>
2

>  <REMARK>
 VINA RESULT:      -7.3      1.708      3.101
  Name = 
  14 active torsions:
  status: ('A' for Active; 'I' for Inactive)
    1  A    between atoms: C_1  and  C_5
    2  A    between atoms: C_1  and  C_38
    3  A    between atoms: C_2  and  C_31
    4  A    between atoms: C_5  and  C_30
    5  A    between atoms: C_6  and  C_27
    6  A    between atoms: C_8  and  C_40
    7  A    between atoms: C_15  and  N_43
    8  A    between atoms: C_16  and  C_28
    9  A    between atoms: C_16  and  C_38
   10  A    between atoms: C_25  and  C_28
   11  A    between atoms: C_25  and  C_39
   12  A    between atoms: C_30  and  C_40
   13  A    between atoms: C_31  and  C_34
   14  A    between atoms: N_43  and  C_45
                            x       y       z     vdW  Elec       q    Type
                         _______ _______ _______ _____ _____    ______ ____

>  <TORSDO>
F 14

$$$$
=
 OpenBabel11072408573D

 45 50  0  0  1  0  0  0  0  0999 V2000
  191.1060  172.6310  142.9220 C   0  0  1  0  0  0  0  0  0  0  0  0
  189.5060  174.2130  145.9560 C   0  0  0  0  0  2  0  0  0  0  0  0
  190.6300  175.2410  145.6060 C   0  0  1  0  0  3  0  0  0  0  0  0
  190.0230  173.1420  143.8430 C   0  0  1  0  0  3  0  0  0  0  0  0
  189.7190  172.8330  145.2900 C   0  0  0  0  0  2  0  0  0  0  0  0
  191.2420  175.0550  144.1920 C   0  0  0  0  0  2  0  0  0  0  0  0
  191.4860  173.5660  144.0430 C   0  0  2  0  0  3  0  0  0  0  0  0
  191.6250  171.2230  143.1620 C   0  0  0  0  0  2  0  0  0  0  0  0
  192.6310  171.2110  144.3000 C   0  0  0  0  0  2  0  0  0  0  0  0
  193.9710  170.6580  143.8330 C   0  0  1  0  0  3  0  0  0  0  0  0
  194.0780  170.7450  142.3250 C   0  0  0  0  0  1  0  0  0  0  0  0
  195.1770  171.3090  144.5190 C   0  0  0  0  0  2  0  0  0  0  0  0
  194.8150  172.4090  145.5260 C   0  0  0  0  0  2  0  0  0  0  0  0
  194.8290  174.4300  142.8880 C   0  0  0  0  0  2  0  0  0  0  0  0
  195.0680  176.3340  145.3580 C   0  0  0  0  0  2  0  0  0  0  0  0
  194.5830  175.9220  143.1650 C   0  0  0  0  0  2  0  0  0  0  0  0
  194.5920  174.9160  145.7470 C   0  0  0  0  0  2  0  0  0  0  0  0
  195.5580  176.4400  144.0390 O   0  0  0  0  0  0  0  0  0  0  0  0
  196.8010  173.7990  146.1030 C   0  0  0  0  0  1  0  0  0  0  0  0
  195.5110  173.7580  145.3000 C   0  0  1  0  0  0  0  0  0  0  0  0
  195.8990  173.8220  143.8120 C   0  0  0  0  0  2  0  0  0  0  0  0
  191.3170  173.2900  141.5530 C   0  0  0  0  0  2  0  0  0  0  0  0
  188.4470  172.7180  140.8910 O   0  0  0  0  0  0  0  0  0  0  0  0
  188.6010  173.6590  139.8580 C   0  0  1  0  0  0  0  0  0  0  0  0
  190.0380  173.7130  139.4800 C   0  0  2  0  0  3  0  0  0  0  0  0
  189.4810  171.8810  140.8250 O   0  0  0  0  0  0  0  0  0  0  0  0
  189.0050  173.1740  138.4840 C   0  0  0  0  0  2  0  0  0  0  0  0
  190.5910  172.6230  140.3680 C   0  0  2  0  0  0  0  0  0  0  0  0
  191.3240  170.4110  139.5210 C   0  0  0  0  0  2  0  0  0  0  0  0
  191.5290  171.7240  139.5940 C   0  0  0  0  0  0  0  0  0  0  0  0
  192.6350  172.2650  138.9500 O   0  0  0  0  0  1  0  0  0  0  0  0
  187.9680  175.0290  140.0210 C   0  0  0  0  0  2  0  0  0  0  0  0
  188.2720  175.5790  141.4010 C   0  0  0  0  0  1  0  0  0  0  0  0
  190.1540  176.6110  145.7910 N   0  0  0  0  0  2  0  0  0  0  0  0
  187.9790  176.9960  146.7650 C   0  0  0  0  0  3  0  0  0  0  0  0
  186.2510  178.3670  145.5740 C   0  0  0  0  0  2  0  0  0  0  0  0
  186.5320  177.3980  146.7160 C   0  0  2  0  0  3  0  0  0  0  0  0
  186.8110  177.7760  144.2840 C   0  0  2  0  0  3  0  0  0  0  0  0
  188.3320  177.6580  144.3950 C   0  0  0  0  0  2  0  0  0  0  0  0
  186.1610  177.9710  147.9320 O   0  0  0  0  0  1  0  0  0  0  0  0
  188.7880  177.0400  145.6940 C   0  0  0  0  0  0  0  0  0  0  0  0
  186.4570  178.6600  143.0970 C   0  0  0  0  0  2  0  0  0  0  0  0
  185.3470  178.0590  142.3060 C   0  0  0  0  0  0  0  0  0  0  0  0
  185.5530  177.6970  140.9810 O   0  0  0  0  0  0  0  0  0  0  0  0
  184.2280  177.8500  142.8480 O   0  0  0  0  0  1  0  0  0  0  0  0
  1 22  1  6  0  0  0
  1  8  1  0  0  0  0
  1  4  1  0  0  0  0
  1  7  1  0  0  0  0
  3 34  1  6  0  0  0
  3  2  1  0  0  0  0
  4  7  1  0  0  0  0
  4  5  1  1  0  0  0
  5  2  1  0  0  0  0
  6  3  1  0  0  0  0
  7  6  1  6  0  0  0
  8  9  1  0  0  0  0
 10 11  1  6  0  0  0
 10  9  1  0  0  0  0
 10 12  1  0  0  0  0
 12 13  1  0  0  0  0
 14 16  1  0  0  0  0
 14 21  1  0  0  0  0
 15 17  1  0  0  0  0
 16 18  1  0  0  0  0
 18 15  1  0  0  0  0
 20 13  1  0  0  0  0
 20 17  1  0  0  0  0
 20 19  1  1  0  0  0
 21 20  1  0  0  0  0
 24 32  1  1  0  0  0
 24 23  1  0  0  0  0
 25 27  1  6  0  0  0
 25 24  1  0  0  0  0
 25 28  1  0  0  0  0
 26 23  1  0  0  0  0
 27 24  1  0  0  0  0
 28 26  1  0  0  0  0
 28 22  1  1  0  0  0
 29 30  2  0  0  0  0
 30 28  1  0  0  0  0
 31 30  1  0  0  0  0
 32 33  1  0  0  0  0
 36 37  1  0  0  0  0
 37 35  1  0  0  0  0
 37 40  1  1  0  0  0
 38 42  1  6  0  0  0
 38 39  1  0  0  0  0
 38 36  1  0  0  0  0
 39 41  1  0  0  0  0
 41 34  1  0  0  0  0
 41 35  2  0  0  0  0
 43 45  1  0  0  0  0
 43 42  1  0  0  0  0
 44 43  2  0  0  0  0
M  END
>  <MODEL>
3

>  <REMARK>
 VINA RESULT:      -7.2      2.019      7.986
  Name = 
  14 active torsions:
  status: ('A' for Active; 'I' for Inactive)
    1  A    between atoms: C_1  and  C_5
    2  A    between atoms: C_1  and  C_38
    3  A    between atoms: C_2  and  C_31
    4  A    between atoms: C_5  and  C_30
    5  A    between atoms: C_6  and  C_27
    6  A    between atoms: C_8  and  C_40
    7  A    between atoms: C_15  and  N_43
    8  A    between atoms: C_16  and  C_28
    9  A    between atoms: C_16  and  C_38
   10  A    between atoms: C_25  and  C_28
   11  A    between atoms: C_25  and  C_39
   12  A    between atoms: C_30  and  C_40
   13  A    between atoms: C_31  and  C_34
   14  A    between atoms: N_43  and  C_45
                            x       y       z     vdW  Elec       q    Type
                         _______ _______ _______ _____ _____    ______ ____

>  <TORSDO>
F 14

$$$$
=
 OpenBabel11072408573D

 45 50  0  0  1  0  0  0  0  0999 V2000
  188.4580  176.4450  144.1930 C   0  0  1  0  0  0  0  0  0  0  0  0
  190.9020  174.7680  141.8500 C   0  0  0  0  0  2  0  0  0  0  0  0
  190.0940  173.5510  142.4050 C   0  0  1  0  0  3  0  0  0  0  0  0
  189.2540  176.1770  142.9370 C   0  0  1  0  0  3  0  0  0  0  0  0
  190.7430  176.0440  142.7100 C   0  0  0  0  0  2  0  0  0  0  0  0
  188.7770  173.9400  143.1290 C   0  0  0  0  0  2  0  0  0  0  0  0
  189.1330  175.1050  144.0320 C   0  0  2  0  0  3  0  0  0  0  0  0
  189.1190  177.2810  145.2770 C   0  0  0  0  0  2  0  0  0  0  0  0
  189.3030  176.4650  146.5450 C   0  0  0  0  0  2  0  0  0  0  0  0
  190.7360  176.5610  147.0480 C   0  0  1  0  0  3  0  0  0  0  0  0
  191.0380  175.4210  147.9980 C   0  0  0  0  0  1  0  0  0  0  0  0
  191.7770  176.6460  145.9260 C   0  0  0  0  0  2  0  0  0  0  0  0
  192.8320  175.5320  145.9560 C   0  0  0  0  0  2  0  0  0  0  0  0
  195.5240  173.7240  145.2260 C   0  0  0  0  0  2  0  0  0  0  0  0
  195.7730  176.2860  143.4490 C   0  0  0  0  0  2  0  0  0  0  0  0
  196.2940  174.1220  143.9560 C   0  0  0  0  0  2  0  0  0  0  0  0
  194.3470  176.0930  144.0120 C   0  0  0  0  0  2  0  0  0  0  0  0
  196.7480  175.4520  144.0370 O   0  0  0  0  0  0  0  0  0  0  0  0
  194.5730  177.3000  146.1910 C   0  0  0  0  0  1  0  0  0  0  0  0
  194.2480  175.9610  145.5470 C   0  0  1  0  0  0  0  0  0  0  0  0
  195.2220  174.9250  146.1380 C   0  0  0  0  0  2  0  0  0  0  0  0
  186.9310  176.3040  144.1730 C   0  0  0  0  0  2  0  0  0  0  0  0
  186.6680  178.8460  142.5990 O   0  0  0  0  0  0  0  0  0  0  0  0
  185.3430  178.4420  142.3570 C   0  0  1  0  0  0  0  0  0  0  0  0
  184.9140  177.5460  143.4640 C   0  0  2  0  0  3  0  0  0  0  0  0
  186.8920  178.7160  143.9060 O   0  0  0  0  0  0  0  0  0  0  0  0
  184.2540  178.9180  143.2920 C   0  0  0  0  0  2  0  0  0  0  0  0
  186.1350  177.6120  144.3520 C   0  0  2  0  0  0  0  0  0  0  0  0
  185.1940  176.8240  146.5060 C   0  0  0  0  0  2  0  0  0  0  0  0
  185.7370  177.8100  145.7970 C   0  0  0  0  0  0  0  0  0  0  0  0
  185.9280  179.0450  146.4070 O   0  0  0  0  0  1  0  0  0  0  0  0
  184.9810  177.9150  140.9810 C   0  0  0  0  0  2  0  0  0  0  0  0
  186.2390  177.5260  140.2280 C   0  0  0  0  0  1  0  0  0  0  0  0
  189.8390  172.5730  141.3490 N   0  0  0  0  0  2  0  0  0  0  0  0
  188.5100  173.5470  139.5840 C   0  0  0  0  0  3  0  0  0  0  0  0
  189.4610  173.9000  137.2910 C   0  0  0  0  0  2  0  0  0  0  0  0
  188.2010  173.8660  138.1490 C   0  0  2  0  0  3  0  0  0  0  0  0
  190.2420  172.6110  137.5230 C   0  0  2  0  0  3  0  0  0  0  0  0
  190.7050  172.5480  138.9790 C   0  0  0  0  0  2  0  0  0  0  0  0
  187.5360  175.0900  138.0710 O   0  0  0  0  0  1  0  0  0  0  0  0
  189.6120  172.8810  139.9650 C   0  0  0  0  0  0  0  0  0  0  0  0
  191.4540  172.5520  136.6040 C   0  0  0  0  0  2  0  0  0  0  0  0
  191.9120  171.1450  136.4270 C   0  0  0  0  0  0  0  0  0  0  0  0
  191.0000  170.1540  136.0850 O   0  0  0  0  0  0  0  0  0  0  0  0
  193.1330  170.8590  136.5550 O   0  0  0  0  0  1  0  0  0  0  0  0
  1 22  1  6  0  0  0
  1  8  1  0  0  0  0
  2  3  1  0  0  0  0
  2  5  1  0  0  0  0
  3 34  1  6  0  0  0
  3  6  1  0  0  0  0
  4  5  1  1  0  0  0
  4  7  1  0  0  0  0
  4  1  1  0  0  0  0
  7  6  1  6  0  0  0
  7  1  1  0  0  0  0
  8  9  1  0  0  0  0
  9 10  1  0  0  0  0
 10 11  1  6  0  0  0
 12 13  1  0  0  0  0
 12 10  1  0  0  0  0
 14 21  1  0  0  0  0
 15 17  1  0  0  0  0
 15 18  1  0  0  0  0
 16 18  1  0  0  0  0
 16 14  1  0  0  0  0
 17 20  1  0  0  0  0
 20 13  1  0  0  0  0
 20 21  1  0  0  0  0
 20 19  1  1  0  0  0
 23 26  1  0  0  0  0
 24 32  1  6  0  0  0
 24 23  1  0  0  0  0
 24 27  1  0  0  0  0
 24 25  1  0  0  0  0
 25 27  1  1  0  0  0
 25 28  1  0  0  0  0
 26 28  1  0  0  0  0
 28 22  1  6  0  0  0
 28 30  1  0  0  0  0
 30 31  1  0  0  0  0
 30 29  2  0  0  0  0
 33 32  1  0  0  0  0
 35 41  2  0  0  0  0
 36 38  1  0  0  0  0
 36 37  1  0  0  0  0
 37 40  1  1  0  0  0
 37 35  1  0  0  0  0
 38 42  1  6  0  0  0
 38 39  1  0  0  0  0
 39 41  1  0  0  0  0
 41 34  1  0  0  0  0
 43 45  1  0  0  0  0
 43 42  1  0  0  0  0
 44 43  2  0  0  0  0
M  END
>  <MODEL>
4

>  <REMARK>
 VINA RESULT:      -7.1      2.621      7.630
  Name = 
  14 active torsions:
  status: ('A' for Active; 'I' for Inactive)
    1  A    between atoms: C_1  and  C_5
    2  A    between atoms: C_1  and  C_38
    3  A    between atoms: C_2  and  C_31
    4  A    between atoms: C_5  and  C_30
    5  A    between atoms: C_6  and  C_27
    6  A    between atoms: C_8  and  C_40
    7  A    between atoms: C_15  and  N_43
    8  A    between atoms: C_16  and  C_28
    9  A    between atoms: C_16  and  C_38
   10  A    between atoms: C_25  and  C_28
   11  A    between atoms: C_25  and  C_39
   12  A    between atoms: C_30  and  C_40
   13  A    between atoms: C_31  and  C_34
   14  A    between atoms: N_43  and  C_45
                            x       y       z     vdW  Elec       q    Type
                         _______ _______ _______ _____ _____    ______ ____

>  <TORSDO>
F 14

$$$$
=
 OpenBabel11072408573D

 45 50  0  0  1  0  0  0  0  0999 V2000
  192.8700  173.6570  142.2620 C   0  0  1  0  0  0  0  0  0  0  0  0
  189.3990  172.8820  140.9860 C   0  0  0  0  0  2  0  0  0  0  0  0
  189.1820  174.2450  141.7180 C   0  0  1  0  0  3  0  0  0  0  0  0
  191.7750  173.2540  141.3020 C   0  0  1  0  0  3  0  0  0  0  0  0
  190.7160  172.1790  141.3930 C   0  0  0  0  0  2  0  0  0  0  0  0
  190.4940  175.0050  142.0490 C   0  0  0  0  0  2  0  0  0  0  0  0
  191.4370  173.9650  142.6210 C   0  0  2  0  0  3  0  0  0  0  0  0
  193.4540  172.5750  143.1540 C   0  0  0  0  0  2  0  0  0  0  0  0
  192.7780  172.5790  144.5150 C   0  0  0  0  0  2  0  0  0  0  0  0
  193.7230  173.1020  145.5880 C   0  0  1  0  0  3  0  0  0  0  0  0
  195.1500  172.7100  145.2680 C   0  0  0  0  0  1  0  0  0  0  0  0
  193.5980  174.6100  145.8360 C   0  0  0  0  0  2  0  0  0  0  0  0
  192.5140  174.9970  146.8510 C   0  0  0  0  0  2  0  0  0  0  0  0
  189.2300  174.4950  146.7460 C   0  0  0  0  0  2  0  0  0  0  0  0
  189.5600  177.5910  147.0470 C   0  0  0  0  0  2  0  0  0  0  0  0
  188.3430  175.6650  147.2010 C   0  0  0  0  0  2  0  0  0  0  0  0
  190.8530  176.8210  147.3960 C   0  0  0  0  0  2  0  0  0  0  0  0
  188.5720  176.8090  146.4110 O   0  0  0  0  0  0  0  0  0  0  0  0
  191.9090  176.6960  145.1320 C   0  0  0  0  0  1  0  0  0  0  0  0
  191.3830  175.8740  146.2980 C   0  0  1  0  0  0  0  0  0  0  0  0
  190.3090  174.9250  145.7360 C   0  0  0  0  0  2  0  0  0  0  0  0
  193.6690  174.9420  142.0110 C   0  0  0  0  0  2  0  0  0  0  0  0
  194.8890  173.4420  139.7160 O   0  0  0  0  0  0  0  0  0  0  0  0
  195.2030  174.7060  139.1870 C   0  0  1  0  0  0  0  0  0  0  0  0
  195.3060  175.6750  140.3100 C   0  0  2  0  0  3  0  0  0  0  0  0
  195.2750  173.4370  140.9920 O   0  0  0  0  0  0  0  0  0  0  0  0
  196.5530  175.3110  139.4980 C   0  0  0  0  0  2  0  0  0  0  0  0
  195.1050  174.7480  141.4860 C   0  0  2  0  0  0  0  0  0  0  0  0
  195.9960  176.0740  143.3810 C   0  0  0  0  0  2  0  0  0  0  0  0
  196.1210  175.0270  142.5690 C   0  0  0  0  0  0  0  0  0  0  0  0
  197.2180  174.1870  142.7250 O   0  0  0  0  0  1  0  0  0  0  0  0
  194.3930  175.2260  138.0140 C   0  0  0  0  0  2  0  0  0  0  0  0
  195.2690  175.3170  136.7790 C   0  0  0  0  0  1  0  0  0  0  0  0
  188.2620  175.0970  140.9650 N   0  0  0  0  0  2  0  0  0  0  0  0
  186.8850  177.0690  140.7690 C   0  0  0  0  0  3  0  0  0  0  0  0
  185.2690  177.7050  142.5770 C   0  0  0  0  0  2  0  0  0  0  0  0
  185.9920  178.1490  141.3110 C   0  0  2  0  0  3  0  0  0  0  0  0
  186.2970  177.1510  143.5570 C   0  0  2  0  0  3  0  0  0  0  0  0
  186.9490  175.9010  142.9620 C   0  0  0  0  0  2  0  0  0  0  0  0
  185.0660  178.5270  140.3380 O   0  0  0  0  0  1  0  0  0  0  0  0
  187.3860  176.0830  141.5300 C   0  0  0  0  0  0  0  0  0  0  0  0
  185.6340  176.7960  144.8790 C   0  0  0  0  0  2  0  0  0  0  0  0
  185.2620  178.0280  145.6300 C   0  0  0  0  0  0  0  0  0  0  0  0
  184.0550  178.0880  146.3150 O   0  0  0  0  0  1  0  0  0  0  0  0
  186.0570  179.0050  145.6720 O   0  0  0  0  0  0  0  0  0  0  0  0
  1 22  1  6  0  0  0
  1  7  1  0  0  0  0
  1  8  1  0  0  0  0
  2  5  1  0  0  0  0
  2  3  1  0  0  0  0
  3 34  1  6  0  0  0
  3  6  1  0  0  0  0
  4  5  1  1  0  0  0
  4  1  1  0  0  0  0
  4  7  1  0  0  0  0
  7  6  1  6  0  0  0
  8  9  1  0  0  0  0
  9 10  1  0  0  0  0
 10 11  1  6  0  0  0
 10 12  1  0  0  0  0
 12 13  1  0  0  0  0
 14 16  1  0  0  0  0
 15 17  1  0  0  0  0
 18 15  1  0  0  0  0
 18 16  1  0  0  0  0
 20 19  1  6  0  0  0
 20 13  1  0  0  0  0
 20 17  1  0  0  0  0
 21 20  1  0  0  0  0
 21 14  1  0  0  0  0
 23 26  1  0  0  0  0
 24 32  1  6  0  0  0
 24 27  1  0  0  0  0
 24 23  1  0  0  0  0
 24 25  1  0  0  0  0
 25 27  1  1  0  0  0
 25 28  1  0  0  0  0
 26 28  1  0  0  0  0
 28 22  1  1  0  0  0
 28 30  1  0  0  0  0
 30 31  1  0  0  0  0
 30 29  2  0  0  0  0
 33 32  1  0  0  0  0
 34 41  1  0  0  0  0
 35 37  1  0  0  0  0
 35 41  2  0  0  0  0
 36 38  1  0  0  0  0
 37 40  1  6  0  0  0
 37 36  1  0  0  0  0
 38 42  1  1  0  0  0
 39 38  1  0  0  0  0
 41 39  1  0  0  0  0
 42 43  1  0  0  0  0
 43 45  2  0  0  0  0
 43 44  1  0  0  0  0
M  END
>  <MODEL>
5

>  <REMARK>
 VINA RESULT:      -7.1      3.093      7.865
  Name = 
  14 active torsions:
  status: ('A' for Active; 'I' for Inactive)
    1  A    between atoms: C_1  and  C_5
    2  A    between atoms: C_1  and  C_38
    3  A    between atoms: C_2  and  C_31
    4  A    between atoms: C_5  and  C_30
    5  A    between atoms: C_6  and  C_27
    6  A    between atoms: C_8  and  C_40
    7  A    between atoms: C_15  and  N_43
    8  A    between atoms: C_16  and  C_28
    9  A    between atoms: C_16  and  C_38
   10  A    between atoms: C_25  and  C_28
   11  A    between atoms: C_25  and  C_39
   12  A    between atoms: C_30  and  C_40
   13  A    between atoms: C_31  and  C_34
   14  A    between atoms: N_43  and  C_45
                            x       y       z     vdW  Elec       q    Type
                         _______ _______ _______ _____ _____    ______ ____

>  <TORSDO>
F 14

$$$$
=
 OpenBabel11072408573D

 45 50  0  0  1  0  0  0  0  0999 V2000
  190.5620  174.4940  144.5240 C   0  0  1  0  0  0  0  0  0  0  0  0
  193.5650  176.7080  145.1130 C   0  0  0  0  0  2  0  0  0  0  0  0
  193.8240  175.5340  146.1110 C   0  0  1  0  0  3  0  0  0  0  0  0
  191.7600  175.3590  144.2150 C   0  0  1  0  0  3  0  0  0  0  0  0
  192.0990  176.7750  144.6220 C   0  0  0  0  0  2  0  0  0  0  0  0
  192.9450  174.2800  145.8570 C   0  0  0  0  0  2  0  0  0  0  0  0
  191.5400  174.8020  145.6300 C   0  0  2  0  0  3  0  0  0  0  0  0
  189.2290  175.1920  144.7400 C   0  0  0  0  0  2  0  0  0  0  0  0
  188.9830  175.4300  146.2200 C   0  0  0  0  0  2  0  0  0  0  0  0
  188.5520  176.8680  146.4730 C   0  0  1  0  0  3  0  0  0  0  0  0
  189.6350  177.6190  147.2190 C   0  0  0  0  0  1  0  0  0  0  0  0
  188.1260  177.6140  145.2040 C   0  0  0  0  0  2  0  0  0  0  0  0
  186.6350  177.4830  144.8620 C   0  0  0  0  0  2  0  0  0  0  0  0
  187.6790  177.3530  141.7090 C   0  0  0  0  0  2  0  0  0  0  0  0
  184.6370  178.0550  141.5190 C   0  0  0  0  0  2  0  0  0  0  0  0
  186.5890  177.2730  140.6280 C   0  0  0  0  0  2  0  0  0  0  0  0
  185.0330  177.5080  142.9080 C   0  0  0  0  0  2  0  0  0  0  0  0
  185.7320  178.3890  140.6930 O   0  0  0  0  0  0  0  0  0  0  0  0
  185.6900  179.6370  144.0430 C   0  0  0  0  0  1  0  0  0  0  0  0
  186.1770  178.2610  143.6210 C   0  0  1  0  0  0  0  0  0  0  0  0
  187.4180  178.4700  142.7350 C   0  0  0  0  0  2  0  0  0  0  0  0
  190.5830  173.0030  144.1620 C   0  0  0  0  0  2  0  0  0  0  0  0
  192.8160  172.6300  142.1910 O   0  0  0  0  0  0  0  0  0  0  0  0
  192.4120  171.2840  142.1400 C   0  0  1  0  0  0  0  0  0  0  0  0
  190.9720  171.2100  142.5050 C   0  0  2  0  0  3  0  0  0  0  0  0
  191.7220  173.3800  142.0530 O   0  0  0  0  0  0  0  0  0  0  0  0
  191.4180  170.8620  141.0810 C   0  0  0  0  0  2  0  0  0  0  0  0
  190.6560  172.6800  142.6560 C   0  0  2  0  0  0  0  0  0  0  0  0
  189.3120  173.9260  140.9880 C   0  0  0  0  0  2  0  0  0  0  0  0
  189.3570  173.0230  141.9640 C   0  0  0  0  0  0  0  0  0  0  0  0
  188.1770  172.3980  142.3520 O   0  0  0  0  0  1  0  0  0  0  0  0
  193.2660  170.2400  142.8360 C   0  0  0  0  0  2  0  0  0  0  0  0
  193.2270  170.4560  144.3360 C   0  0  0  0  0  1  0  0  0  0  0  0
  195.2420  175.1800  146.1370 N   0  0  0  0  0  2  0  0  0  0  0  0
  196.1660  174.5570  143.9960 C   0  0  0  0  0  3  0  0  0  0  0  0
  197.5950  172.5110  143.7480 C   0  0  0  0  0  2  0  0  0  0  0  0
  196.8020  173.5980  143.0300 C   0  0  2  0  0  3  0  0  0  0  0  0
  196.7020  171.8770  144.8100 C   0  0  2  0  0  3  0  0  0  0  0  0
  196.3380  172.9250  145.8640 C   0  0  0  0  0  2  0  0  0  0  0  0
  197.6330  174.2940  142.1520 O   0  0  0  0  0  1  0  0  0  0  0  0
  195.8820  174.2340  145.2680 C   0  0  0  0  0  0  0  0  0  0  0  0
  197.4160  170.7130  145.4790 C   0  0  0  0  0  2  0  0  0  0  0  0
  196.4790  169.5750  145.6980 C   0  0  0  0  0  0  0  0  0  0  0  0
  195.6810  169.5410  146.8350 O   0  0  0  0  0  1  0  0  0  0  0  0
  196.3870  168.6600  144.8370 O   0  0  0  0  0  0  0  0  0  0  0  0
  1 22  1  6  0  0  0
  1  8  1  0  0  0  0
  1  7  1  0  0  0  0
  2  3  1  0  0  0  0
  3 34  1  6  0  0  0
  4  1  1  0  0  0  0
  4  5  1  1  0  0  0
  4  7  1  0  0  0  0
  5  2  1  0  0  0  0
  6  3  1  0  0  0  0
  7  6  1  6  0  0  0
  8  9  1  0  0  0  0
  9 10  1  0  0  0  0
 10 11  1  6  0  0  0
 12 10  1  0  0  0  0
 13 12  1  0  0  0  0
 14 21  1  0  0  0  0
 15 17  1  0  0  0  0
 16 18  1  0  0  0  0
 16 14  1  0  0  0  0
 17 20  1  0  0  0  0
 18 15  1  0  0  0  0
 20 19  1  1  0  0  0
 20 13  1  0  0  0  0
 21 20  1  0  0  0  0
 24 23  1  0  0  0  0
 24 25  1  0  0  0  0
 24 32  1  1  0  0  0
 25 27  1  6  0  0  0
 25 28  1  0  0  0  0
 26 23  1  0  0  0  0
 26 28  1  0  0  0  0
 27 24  1  0  0  0  0
 28 22  1  1  0  0  0
 29 30  2  0  0  0  0
 30 31  1  0  0  0  0
 30 28  1  0  0  0  0
 32 33  1  0  0  0  0
 35 41  2  0  0  0  0
 36 38  1  0  0  0  0
 37 40  1  6  0  0  0
 37 36  1  0  0  0  0
 37 35  1  0  0  0  0
 38 42  1  1  0  0  0
 38 39  1  0  0  0  0
 41 39  1  0  0  0  0
 41 34  1  0  0  0  0
 42 43  1  0  0  0  0
 43 44  1  0  0  0  0
 45 43  2  0  0  0  0
M  END
>  <MODEL>
6

>  <REMARK>
 VINA RESULT:      -7.1      2.072      3.979
  Name = 
  14 active torsions:
  status: ('A' for Active; 'I' for Inactive)
    1  A    between atoms: C_1  and  C_5
    2  A    between atoms: C_1  and  C_38
    3  A    between atoms: C_2  and  C_31
    4  A    between atoms: C_5  and  C_30
    5  A    between atoms: C_6  and  C_27
    6  A    between atoms: C_8  and  C_40
    7  A    between atoms: C_15  and  N_43
    8  A    between atoms: C_16  and  C_28
    9  A    between atoms: C_16  and  C_38
   10  A    between atoms: C_25  and  C_28
   11  A    between atoms: C_25  and  C_39
   12  A    between atoms: C_30  and  C_40
   13  A    between atoms: C_31  and  C_34
   14  A    between atoms: N_43  and  C_45
                            x       y       z     vdW  Elec       q    Type
                         _______ _______ _______ _____ _____    ______ ____

>  <TORSDO>
F 14

$$$$
=
 OpenBabel11072408573D

 45 50  0  0  1  0  0  0  0  0999 V2000
  191.2740  173.9070  144.1950 C   0  0  1  0  0  0  0  0  0  0  0  0
  189.1090  175.0710  147.0630 C   0  0  0  0  0  2  0  0  0  0  0  0
  189.8480  176.3870  146.6570 C   0  0  1  0  0  3  0  0  0  0  0  0
  190.0430  174.0920  145.0500 C   0  0  1  0  0  3  0  0  0  0  0  0
  189.7920  173.7970  146.5110 C   0  0  0  0  0  2  0  0  0  0  0  0
  190.5510  176.3190  145.2750 C   0  0  0  0  0  2  0  0  0  0  0  0
  191.2760  174.9880  145.2480 C   0  0  2  0  0  3  0  0  0  0  0  0
  192.2150  172.7690  144.5550 C   0  0  0  0  0  2  0  0  0  0  0  0
  193.2570  173.2320  145.5580 C   0  0  0  0  0  2  0  0  0  0  0  0
  194.5530  172.4490  145.3940 C   0  0  1  0  0  3  0  0  0  0  0  0
  194.2570  171.0280  144.9620 C   0  0  0  0  0  1  0  0  0  0  0  0
  195.5620  173.1220  144.4570 C   0  0  0  0  0  2  0  0  0  0  0  0
  195.9540  174.5480  144.8680 C   0  0  0  0  0  2  0  0  0  0  0  0
  197.5690  175.8920  142.2920 C   0  0  0  0  0  2  0  0  0  0  0  0
  194.5470  176.0020  141.4910 C   0  0  0  0  0  2  0  0  0  0  0  0
  196.7730  176.0380  140.9840 C   0  0  0  0  0  2  0  0  0  0  0  0
  194.8130  175.0360  142.6660 C   0  0  0  0  0  2  0  0  0  0  0  0
  195.6340  176.8450  141.1740 O   0  0  0  0  0  0  0  0  0  0  0  0
  194.6000  176.6210  144.5890 C   0  0  0  0  0  1  0  0  0  0  0  0
  195.5350  175.6500  143.8850 C   0  0  1  0  0  0  0  0  0  0  0  0
  196.8070  176.4330  143.5140 C   0  0  0  0  0  2  0  0  0  0  0  0
  191.3200  174.5060  142.7840 C   0  0  0  0  0  2  0  0  0  0  0  0
  191.8840  173.2400  140.1220 O   0  0  0  0  0  0  0  0  0  0  0  0
  191.5690  172.0210  140.7470 C   0  0  1  0  0  0  0  0  0  0  0  0
  190.6580  172.2980  141.8890 C   0  0  2  0  0  3  0  0  0  0  0  0
  190.9170  174.1050  140.4240 O   0  0  0  0  0  0  0  0  0  0  0  0
  190.1460  171.5130  140.6770 C   0  0  0  0  0  2  0  0  0  0  0  0
  190.4630  173.7870  141.7220 C   0  0  2  0  0  0  0  0  0  0  0  0
  188.5690  175.3800  141.5690 C   0  0  0  0  0  2  0  0  0  0  0  0
  189.0030  174.1570  141.8630 C   0  0  0  0  0  0  0  0  0  0  0  0
  188.0890  173.2130  142.3160 O   0  0  0  0  0  1  0  0  0  0  0  0
  192.6970  171.0660  141.0940 C   0  0  0  0  0  2  0  0  0  0  0  0
  193.9780  171.8420  141.3270 C   0  0  0  0  0  1  0  0  0  0  0  0
  188.9420  177.5320  146.7250 N   0  0  0  0  0  2  0  0  0  0  0  0
  186.5890  177.7530  147.2160 C   0  0  0  0  0  3  0  0  0  0  0  0
  184.9020  178.0170  145.3800 C   0  0  0  0  0  2  0  0  0  0  0  0
  185.1300  177.7300  146.8600 C   0  0  2  0  0  3  0  0  0  0  0  0
  185.7920  177.0890  144.5610 C   0  0  2  0  0  3  0  0  0  0  0  0
  187.2610  177.4030  144.8480 C   0  0  0  0  0  2  0  0  0  0  0  0
  184.4390  178.6590  147.6380 O   0  0  0  0  0  1  0  0  0  0  0  0
  187.5650  177.5310  146.3210 C   0  0  0  0  0  0  0  0  0  0  0  0
  185.5190  177.2640  143.0740 C   0  0  0  0  0  2  0  0  0  0  0  0
  186.1890  178.4900  142.5560 C   0  0  0  0  0  0  0  0  0  0  0  0
  185.9330  179.7240  143.1430 O   0  0  0  0  0  1  0  0  0  0  0  0
  187.0140  178.4050  141.6070 O   0  0  0  0  0  0  0  0  0  0  0  0
  1 22  1  6  0  0  0
  1  8  1  0  0  0  0
  1  4  1  0  0  0  0
  1  7  1  0  0  0  0
  3 34  1  6  0  0  0
  3  2  1  0  0  0  0
  4  7  1  0  0  0  0
  4  5  1  1  0  0  0
  5  2  1  0  0  0  0
  6  3  1  0  0  0  0
  7  6  1  6  0  0  0
  8  9  1  0  0  0  0
 10 11  1  6  0  0  0
 10  9  1  0  0  0  0
 12 13  1  0  0  0  0
 12 10  1  0  0  0  0
 14 21  1  0  0  0  0
 15 17  1  0  0  0  0
 16 18  1  0  0  0  0
 16 14  1  0  0  0  0
 17 20  1  0  0  0  0
 18 15  1  0  0  0  0
 20 19  1  1  0  0  0
 20 13  1  0  0  0  0
 21 20  1  0  0  0  0
 23 26  1  0  0  0  0
 23 24  1  0  0  0  0
 24 32  1  1  0  0  0
 24 25  1  0  0  0  0
 25 27  1  6  0  0  0
 26 28  1  0  0  0  0
 27 24  1  0  0  0  0
 28 30  1  0  0  0  0
 28 25  1  0  0  0  0
 28 22  1  1  0  0  0
 29 30  2  0  0  0  0
 30 31  1  0  0  0  0
 32 33  1  0  0  0  0
 36 37  1  0  0  0  0
 37 35  1  0  0  0  0
 37 40  1  1  0  0  0
 38 42  1  6  0  0  0
 38 39  1  0  0  0  0
 38 36  1  0  0  0  0
 39 41  1  0  0  0  0
 41 34  1  0  0  0  0
 41 35  2  0  0  0  0
 43 42  1  0  0  0  0
 43 44  1  0  0  0  0
 45 43  2  0  0  0  0
M  END
>  <MODEL>
7

>  <REMARK>
 VINA RESULT:      -7.0      2.528      8.375
  Name = 
  14 active torsions:
  status: ('A' for Active; 'I' for Inactive)
    1  A    between atoms: C_1  and  C_5
    2  A    between atoms: C_1  and  C_38
    3  A    between atoms: C_2  and  C_31
    4  A    between atoms: C_5  and  C_30
    5  A    between atoms: C_6  and  C_27
    6  A    between atoms: C_8  and  C_40
    7  A    between atoms: C_15  and  N_43
    8  A    between atoms: C_16  and  C_28
    9  A    between atoms: C_16  and  C_38
   10  A    between atoms: C_25  and  C_28
   11  A    between atoms: C_25  and  C_39
   12  A    between atoms: C_30  and  C_40
   13  A    between atoms: C_31  and  C_34
   14  A    between atoms: N_43  and  C_45
                            x       y       z     vdW  Elec       q    Type
                         _______ _______ _______ _____ _____    ______ ____

>  <TORSDO>
F 14

$$$$
=
 OpenBabel11072408573D

 45 50  0  0  1  0  0  0  0  0999 V2000
  188.7950  176.0450  143.6980 C   0  0  1  0  0  0  0  0  0  0  0  0
  191.2620  173.9660  141.7330 C   0  0  0  0  0  2  0  0  0  0  0  0
  190.2880  172.8780  142.2900 C   0  0  1  0  0  3  0  0  0  0  0  0
  189.6710  175.6050  142.5490 C   0  0  1  0  0  3  0  0  0  0  0  0
  191.1530  175.3170  142.4800 C   0  0  0  0  0  2  0  0  0  0  0  0
  188.9570  173.4450  142.8500 C   0  0  0  0  0  2  0  0  0  0  0  0
  189.3440  174.6400  143.6990 C   0  0  2  0  0  3  0  0  0  0  0  0
  189.4340  176.9000  144.7800 C   0  0  0  0  0  2  0  0  0  0  0  0
  189.6080  176.1010  146.0600 C   0  0  0  0  0  2  0  0  0  0  0  0
  190.9330  176.4360  146.7320 C   0  0  1  0  0  3  0  0  0  0  0  0
  191.2070  175.4710  147.8660 C   0  0  0  0  0  1  0  0  0  0  0  0
  192.1150  176.5060  145.7580 C   0  0  0  0  0  2  0  0  0  0  0  0
  193.4450  176.0100  146.3400 C   0  0  0  0  0  2  0  0  0  0  0  0
  195.5190  176.3450  143.7640 C   0  0  0  0  0  2  0  0  0  0  0  0
  196.4910  173.7670  145.2470 C   0  0  0  0  0  2  0  0  0  0  0  0
  196.8130  175.5140  143.8120 C   0  0  0  0  0  2  0  0  0  0  0  0
  195.5530  174.6330  146.1170 C   0  0  0  0  0  2  0  0  0  0  0  0
  196.5250  174.1370  143.8850 O   0  0  0  0  0  0  0  0  0  0  0  0
  193.3380  173.6890  145.4400 C   0  0  0  0  0  1  0  0  0  0  0  0
  194.1760  174.9560  145.4970 C   0  0  1  0  0  0  0  0  0  0  0  0
  194.2640  175.5060  144.0620 C   0  0  0  0  0  2  0  0  0  0  0  0
  187.2690  176.0460  143.5370 C   0  0  0  0  0  2  0  0  0  0  0  0
  184.6320  177.4470  143.8320 O   0  0  0  0  0  0  0  0  0  0  0  0
  185.3560  178.4600  144.4850 C   0  0  1  0  0  0  0  0  0  0  0  0
  186.7620  178.4210  144.0020 C   0  0  2  0  0  3  0  0  0  0  0  0
  185.2800  177.1580  142.7040 O   0  0  0  0  0  0  0  0  0  0  0  0
  185.8740  179.6250  143.6720 C   0  0  0  0  0  2  0  0  0  0  0  0
  186.6570  177.3360  142.9550 C   0  0  2  0  0  0  0  0  0  0  0  0
  186.9700  177.2930  140.4960 C   0  0  0  0  0  2  0  0  0  0  0  0
  187.3650  177.7460  141.6840 C   0  0  0  0  0  0  0  0  0  0  0  0
  188.4560  178.6060  141.7430 O   0  0  0  0  0  1  0  0  0  0  0  0
  185.2390  178.5820  145.9930 C   0  0  0  0  0  2  0  0  0  0  0  0
  185.6560  177.2820  146.6520 C   0  0  0  0  0  1  0  0  0  0  0  0
  190.0340  171.8470  141.2850 N   0  0  0  0  0  2  0  0  0  0  0  0
  188.7370  172.8820  139.5320 C   0  0  0  0  0  3  0  0  0  0  0  0
  189.5590  172.9220  137.1640 C   0  0  0  0  0  2  0  0  0  0  0  0
  188.3740  173.1410  138.0970 C   0  0  2  0  0  3  0  0  0  0  0  0
  190.1600  171.5500  137.4510 C   0  0  2  0  0  3  0  0  0  0  0  0
  190.7130  171.5230  138.8770 C   0  0  0  0  0  2  0  0  0  0  0  0
  187.8910  174.4420  137.9600 O   0  0  0  0  0  1  0  0  0  0  0  0
  189.7550  172.0860  139.8980 C   0  0  0  0  0  0  0  0  0  0  0  0
  191.2800  171.2440  136.4680 C   0  0  0  0  0  2  0  0  0  0  0  0
  191.8150  169.8710  136.6900 C   0  0  0  0  0  0  0  0  0  0  0  0
  193.1390  169.6930  137.0700 O   0  0  0  0  0  1  0  0  0  0  0  0
  191.0570  168.8710  136.5630 O   0  0  0  0  0  0  0  0  0  0  0  0
  1 22  1  6  0  0  0
  1  7  1  0  0  0  0
  1  8  1  0  0  0  0
  2  3  1  0  0  0  0
  2  5  1  0  0  0  0
  3 34  1  6  0  0  0
  3  6  1  0  0  0  0
  4  5  1  1  0  0  0
  4  1  1  0  0  0  0
  4  7  1  0  0  0  0
  7  6  1  6  0  0  0
  8  9  1  0  0  0  0
  9 10  1  0  0  0  0
 10 11  1  1  0  0  0
 12 13  1  0  0  0  0
 12 10  1  0  0  0  0
 14 16  1  0  0  0  0
 14 21  1  0  0  0  0
 15 17  1  0  0  0  0
 16 18  1  0  0  0  0
 18 15  1  0  0  0  0
 20 19  1  6  0  0  0
 20 17  1  0  0  0  0
 20 13  1  0  0  0  0
 21 20  1  0  0  0  0
 23 24  1  0  0  0  0
 24 32  1  1  0  0  0
 25 27  1  6  0  0  0
 25 24  1  0  0  0  0
 26 28  1  0  0  0  0
 26 23  1  0  0  0  0
 27 24  1  0  0  0  0
 28 22  1  1  0  0  0
 28 25  1  0  0  0  0
 29 30  2  0  0  0  0
 30 31  1  0  0  0  0
 30 28  1  0  0  0  0
 32 33  1  0  0  0  0
 35 41  2  0  0  0  0
 36 38  1  0  0  0  0
 36 37  1  0  0  0  0
 37 40  1  1  0  0  0
 37 35  1  0  0  0  0
 38 42  1  6  0  0  0
 38 39  1  0  0  0  0
 39 41  1  0  0  0  0
 41 34  1  0  0  0  0
 42 43  1  0  0  0  0
 43 44  1  0  0  0  0
 45 43  2  0  0  0  0
M  END
>  <MODEL>
8

>  <REMARK>
 VINA RESULT:      -7.0      2.749      7.778
  Name = 
  14 active torsions:
  status: ('A' for Active; 'I' for Inactive)
    1  A    between atoms: C_1  and  C_5
    2  A    between atoms: C_1  and  C_38
    3  A    between atoms: C_2  and  C_31
    4  A    between atoms: C_5  and  C_30
    5  A    between atoms: C_6  and  C_27
    6  A    between atoms: C_8  and  C_40
    7  A    between atoms: C_15  and  N_43
    8  A    between atoms: C_16  and  C_28
    9  A    between atoms: C_16  and  C_38
   10  A    between atoms: C_25  and  C_28
   11  A    between atoms: C_25  and  C_39
   12  A    between atoms: C_30  and  C_40
   13  A    between atoms: C_31  and  C_34
   14  A    between atoms: N_43  and  C_45
                            x       y       z     vdW  Elec       q    Type
                         _______ _______ _______ _____ _____    ______ ____

>  <TORSDO>
F 14

$$$$
=
 OpenBabel11072408573D

 45 50  0  0  1  0  0  0  0  0999 V2000
  188.2200  177.0220  145.5970 C   0  0  1  0  0  0  0  0  0  0  0  0
  190.5500  176.6200  142.6510 C   0  0  0  0  0  2  0  0  0  0  0  0
  189.8450  175.2260  142.7030 C   0  0  1  0  0  3  0  0  0  0  0  0
  188.9270  177.3440  144.3010 C   0  0  1  0  0  3  0  0  0  0  0  0
  190.3980  177.4250  143.9630 C   0  0  0  0  0  2  0  0  0  0  0  0
  188.5720  175.1910  143.5900 C   0  0  0  0  0  2  0  0  0  0  0  0
  188.9420  175.9160  144.8690 C   0  0  2  0  0  3  0  0  0  0  0  0
  188.9220  177.3970  146.8920 C   0  0  0  0  0  2  0  0  0  0  0  0
  189.7680  176.2400  147.3950 C   0  0  0  0  0  2  0  0  0  0  0  0
  191.2420  176.6220  147.4310 C   0  0  1  0  0  3  0  0  0  0  0  0
  191.5720  177.3230  148.7320 C   0  0  0  0  0  1  0  0  0  0  0  0
  192.1890  175.4440  147.1730 C   0  0  0  0  0  2  0  0  0  0  0  0
  192.1590  174.9110  145.7350 C   0  0  0  0  0  2  0  0  0  0  0  0
  194.1230  175.9990  143.2830 C   0  0  0  0  0  2  0  0  0  0  0  0
  196.0770  174.7550  145.3850 C   0  0  0  0  0  2  0  0  0  0  0  0
  195.6230  176.1090  143.6030 C   0  0  0  0  0  2  0  0  0  0  0  0
  194.6730  175.0240  145.9690 C   0  0  0  0  0  2  0  0  0  0  0  0
  196.1510  174.8580  143.9790 O   0  0  0  0  0  0  0  0  0  0  0  0
  193.5430  172.8670  145.3990 C   0  0  0  0  0  1  0  0  0  0  0  0
  193.4970  174.3740  145.2080 C   0  0  1  0  0  0  0  0  0  0  0  0
  193.5260  174.6410  143.6920 C   0  0  0  0  0  2  0  0  0  0  0  0
  186.7040  176.7880  145.6000 C   0  0  0  0  0  2  0  0  0  0  0  0
  186.4770  179.0060  143.5910 O   0  0  0  0  0  0  0  0  0  0  0  0
  185.2060  178.4810  143.3030 C   0  0  1  0  0  0  0  0  0  0  0  0
  184.7110  177.7570  144.5040 C   0  0  2  0  0  3  0  0  0  0  0  0
  186.5730  179.1130  144.9160 O   0  0  0  0  0  0  0  0  0  0  0  0
  184.0050  179.0350  144.0370 C   0  0  0  0  0  2  0  0  0  0  0  0
  185.8300  178.0520  145.4760 C   0  0  2  0  0  0  0  0  0  0  0  0
  185.9370  179.3090  147.6100 C   0  0  0  0  0  2  0  0  0  0  0  0
  185.2770  178.4640  146.8220 C   0  0  0  0  0  0  0  0  0  0  0  0
  184.0630  177.9490  147.2610 O   0  0  0  0  0  1  0  0  0  0  0  0
  185.0130  177.7080  142.0110 C   0  0  0  0  0  2  0  0  0  0  0  0
  186.3520  177.2190  141.4960 C   0  0  0  0  0  1  0  0  0  0  0  0
  189.5550  174.7420  141.3540 N   0  0  0  0  0  2  0  0  0  0  0  0
  190.3550  172.4750  141.5680 C   0  0  0  0  0  3  0  0  0  0  0  0
  190.5270  170.9690  139.5700 C   0  0  0  0  0  2  0  0  0  0  0  0
  190.9040  171.1830  141.0320 C   0  0  2  0  0  3  0  0  0  0  0  0
  190.9030  172.2190  138.7820 C   0  0  2  0  0  3  0  0  0  0  0  0
  190.0750  173.4050  139.2790 C   0  0  0  0  0  2  0  0  0  0  0  0
  190.4440  170.1180  141.8060 O   0  0  0  0  0  1  0  0  0  0  0  0
  190.0450  173.5200  140.7840 C   0  0  0  0  0  0  0  0  0  0  0  0
  190.6440  172.0080  137.2970 C   0  0  0  0  0  2  0  0  0  0  0  0
  190.5870  173.3140  136.5820 C   0  0  0  0  0  0  0  0  0  0  0  0
  189.3630  173.8390  136.1870 O   0  0  0  0  0  0  0  0  0  0  0  0
  191.6480  173.9600  136.3630 O   0  0  0  0  0  1  0  0  0  0  0  0
  1 22  1  6  0  0  0
  1  8  1  0  0  0  0
  2  3  1  0  0  0  0
  2  5  1  0  0  0  0
  3 34  1  6  0  0  0
  3  6  1  0  0  0  0
  4  5  1  1  0  0  0
  4  7  1  0  0  0  0
  4  1  1  0  0  0  0
  7  6  1  6  0  0  0
  7  1  1  0  0  0  0
  8  9  1  0  0  0  0
  9 10  1  0  0  0  0
 10 11  1  1  0  0  0
 12 10  1  0  0  0  0
 13 12  1  0  0  0  0
 14 16  1  0  0  0  0
 14 21  1  0  0  0  0
 15 17  1  0  0  0  0
 16 18  1  0  0  0  0
 18 15  1  0  0  0  0
 20 19  1  1  0  0  0
 20 13  1  0  0  0  0
 20 17  1  0  0  0  0
 21 20  1  0  0  0  0
 23 26  1  0  0  0  0
 24 32  1  6  0  0  0
 24 23  1  0  0  0  0
 24 27  1  0  0  0  0
 24 25  1  0  0  0  0
 25 27  1  1  0  0  0
 25 28  1  0  0  0  0
 26 28  1  0  0  0  0
 28 22  1  1  0  0  0
 28 30  1  0  0  0  0
 30 31  1  0  0  0  0
 30 29  2  0  0  0  0
 33 32  1  0  0  0  0
 36 37  1  0  0  0  0
 37 35  1  0  0  0  0
 37 40  1  1  0  0  0
 38 42  1  6  0  0  0
 38 39  1  0  0  0  0
 38 36  1  0  0  0  0
 39 41  1  0  0  0  0
 41 34  1  0  0  0  0
 41 35  2  0  0  0  0
 43 42  1  0  0  0  0
 44 43  2  0  0  0  0
 45 43  1  0  0  0  0
M  END
>  <MODEL>
9

>  <REMARK>
 VINA RESULT:      -7.0      2.372      7.496
  Name = 
  14 active torsions:
  status: ('A' for Active; 'I' for Inactive)
    1  A    between atoms: C_1  and  C_5
    2  A    between atoms: C_1  and  C_38
    3  A    between atoms: C_2  and  C_31
    4  A    between atoms: C_5  and  C_30
    5  A    between atoms: C_6  and  C_27
    6  A    between atoms: C_8  and  C_40
    7  A    between atoms: C_15  and  N_43
    8  A    between atoms: C_16  and  C_28
    9  A    between atoms: C_16  and  C_38
   10  A    between atoms: C_25  and  C_28
   11  A    between atoms: C_25  and  C_39
   12  A    between atoms: C_30  and  C_40
   13  A    between atoms: C_31  and  C_34
   14  A    between atoms: N_43  and  C_45
                            x       y       z     vdW  Elec       q    Type
                         _______ _______ _______ _____ _____    ______ ____

>  <TORSDO>
F 14

$$$$
