=
 OpenBabel11062420423D

 45 48  0  0  1  0  0  0  0  0999 V2000
  188.1800  175.2210  142.6780 C   0  0  2  0  0  3  0  0  0  0  0  0
  187.7980  172.5560  141.6320 F   0  0  0  0  0  0  0  0  0  0  0  0
  188.6500  173.4080  141.0010 C   0  0  0  0  0  0  0  0  0  0  0  0
  188.8440  174.6550  141.4490 C   0  0  0  0  0  3  0  0  0  0  0  0
  188.7600  171.6480  138.9570 O   0  0  0  0  0  1  0  0  0  0  0  0
  189.3000  174.1340  138.3430 O   0  0  0  0  0  0  0  0  0  0  0  0
  189.4400  172.8880  139.4840 P   0  0  1  0  0  0  0  0  0  0  0  0
  191.0640  172.5360  139.8350 O   0  0  0  0  0  0  0  0  0  0  0  0
  191.0530  171.4650  140.7310 C   0  0  0  0  0  2  0  0  0  0  0  0
  192.0400  171.7270  141.8590 C   0  0  0  0  0  2  0  0  0  0  0  0
  191.4510  172.6530  142.9180 C   0  0  2  0  0  3  0  0  0  0  0  0
  192.1800  173.9840  142.8620 C   0  0  0  0  0  2  0  0  0  0  0  0
  191.7070  172.0990  144.3200 C   0  0  0  0  0  2  0  0  0  0  0  0
  193.0760  173.9900  143.9980 N   0  0  0  0  0  0  0  0  0  0  0  0
  194.1110  176.0080  143.4470 O   0  0  0  0  0  0  0  0  0  0  0  0
  192.8990  172.8530  144.8740 C   0  0  0  0  0  2  0  0  0  0  0  0
  194.0360  175.0270  144.2360 C   0  0  0  0  0  0  0  0  0  0  0  0
  194.9570  174.9480  145.4140 C   0  0  2  0  0  3  0  0  0  0  0  0
  193.6920  176.1160  146.8100 C   0  0  0  0  0  1  0  0  0  0  0  0
  194.9160  176.1440  146.1370 O   0  0  0  0  0  0  0  0  0  0  0  0
  196.3760  174.6690  144.9410 C   0  0  0  0  0  2  0  0  0  0  0  0
  196.5000  172.3860  145.8860 C   0  0  0  0  0  1  0  0  0  0  0  0
  197.0960  173.7770  145.9340 C   0  0  0  0  0  2  0  0  0  0  0  0
  186.7970  175.7870  142.3810 C   0  0  0  0  0  2  0  0  0  0  0  0
  186.7640  177.1770  142.5900 O   0  0  0  0  0  0  0  0  0  0  0  0
  185.5200  177.5300  143.1620 C   0  0  2  0  0  3  0  0  0  0  0  0
  183.5150  178.1510  140.4300 N   0  0  0  0  0  0  0  0  0  0  0  0
  183.3730  178.5150  142.6280 O   0  0  0  0  0  0  0  0  0  0  0  0
  181.2570  178.0630  141.3350 C   0  0  0  0  0  1  0  0  0  0  0  0
  184.8820  178.3780  140.8780 C   0  0  0  0  0  2  0  0  0  0  0  0
  184.7650  178.6200  142.3870 C   0  0  2  0  0  3  0  0  0  0  0  0
  182.7280  178.2400  141.4430 C   0  0  0  0  0  0  0  0  0  0  0  0
  185.5890  177.7570  144.6490 C   0  0  0  0  0  0  0  0  0  0  0  0
  186.3730  178.2260  147.3220 C   0  0  0  0  0  2  0  0  0  0  0  0
  185.6930  176.7090  145.4710 C   0  0  0  0  0  3  0  0  0  0  0  0
  185.5770  179.1200  145.2210 C   0  0  0  0  0  3  0  0  0  0  0  0
  185.8960  179.3160  146.4660 N   0  0  0  0  0  0  0  0  0  0  0  0
  185.6860  176.9080  146.9600 C   0  0  0  0  0  2  0  0  0  0  0  0
  189.0030  176.1930  143.3200 O   0  0  0  0  0  0  0  0  0  0  0  0
  190.0420  175.9390  147.3480 N   0  0  0  0  0  0  0  0  0  0  0  0
  189.8250  174.8020  146.6340 C   0  0  0  0  0  3  0  0  0  0  0  0
  189.3480  176.1290  144.6740 C   0  0  0  0  0  0  0  0  0  0  0  0
  189.9270  177.1680  146.7770 C   0  0  0  0  0  3  0  0  0  0  0  0
  189.5780  177.2850  145.4310 C   0  0  0  0  0  3  0  0  0  0  0  0
  189.4740  174.8780  145.2830 C   0  0  0  0  0  3  0  0  0  0  0  0
  1  4  1  6  0  0  0
  1 39  1  0  0  0  0
  3  4  2  0  0  0  0
  3  2  1  0  0  0  0
  5  7  1  0  0  0  0
  7  6  2  6  0  0  0
  7  8  1  0  0  0  0
  7  3  1  0  0  0  0
  8  9  1  0  0  0  0
  9 10  1  0  0  0  0
 11 10  1  6  0  0  0
 11 13  1  0  0  0  0
 12 11  1  0  0  0  0
 12 14  1  0  0  0  0
 13 16  1  0  0  0  0
 14 17  1  0  0  0  0
 14 16  1  0  0  0  0
 15 17  2  0  0  0  0
 17 18  1  0  0  0  0
 18 21  1  6  0  0  0
 18 20  1  0  0  0  0
 20 19  1  0  0  0  0
 21 23  1  0  0  0  0
 22 23  1  0  0  0  0
 24 25  1  0  0  0  0
 24  1  1  0  0  0  0
 26 25  1  6  0  0  0
 26 33  1  0  0  0  0
 27 30  1  0  0  0  0
 27 32  2  0  0  0  0
 29 32  1  0  0  0  0
 30 31  1  0  0  0  0
 31 28  1  0  0  0  0
 31 26  1  1  0  0  0
 32 28  1  0  0  0  0
 33 36  1  0  0  0  0
 33 35  2  0  0  0  0
 35 38  1  0  0  0  0
 36 37  2  0  0  0  0
 37 34  1  0  0  0  0
 38 34  1  0  0  0  0
 39 42  1  0  0  0  0
 41 40  2  0  0  0  0
 42 45  2  0  0  0  0
 42 44  1  0  0  0  0
 43 40  1  0  0  0  0
 44 43  2  0  0  0  0
 45 41  1  0  0  0  0
M  END
>  <MODEL>
1

>  <REMARK>
 VINA RESULT:      -7.0      0.000      0.000
  Name = 
  17 active torsions:
  status: ('A' for Active; 'I' for Inactive)
    1  A    between atoms: C_1  and  C_27
    2  A    between atoms: C_1  and  O_32
    3  A    between atoms: C_1  and  C_35
    4  A    between atoms: C_5  and  C_29
    5  A    between atoms: O_7  and  C_16
    6  A    between atoms: O_7  and  C_31
    7  A    between atoms: C_11  and  C_41
    8  A    between atoms: O_12  and  C_18
    9  A    between atoms: O_12  and  C_41
   10  A    between atoms: O_13  and  C_24
   11  A    between atoms: O_13  and  P_26
   12  A    between atoms: C_16  and  C_18
   13  A    between atoms: C_16  and  C_28
   14  A    between atoms: C_21  and  P_26
   15  A    between atoms: C_24  and  C_29
   16  A    between atoms: C_27  and  C_40
   17  A    between atoms: C_37  and  C_41
                            x       y       z     vdW  Elec       q    Type
                         _______ _______ _______ _____ _____    ______ ____

>  <TORSDO>
F 17

$$$$
=
 OpenBabel11062420423D

 45 48  0  0  1  0  0  0  0  0999 V2000
  193.1570  174.4930  144.7470 C   0  0  2  0  0  3  0  0  0  0  0  0
  190.2760  174.6350  144.6280 F   0  0  0  0  0  0  0  0  0  0  0  0
  190.9250  175.1050  145.7260 C   0  0  0  0  0  0  0  0  0  0  0  0
  192.2580  175.0460  145.8230 C   0  0  0  0  0  3  0  0  0  0  0  0
  189.1880  174.5780  147.7250 O   0  0  0  0  0  0  0  0  0  0  0  0
  191.0340  176.3520  148.2650 O   0  0  0  0  0  1  0  0  0  0  0  0
  189.9710  175.7130  147.1100 P   0  0  1  0  0  0  0  0  0  0  0  0
  188.8950  176.8910  146.5270 O   0  0  0  0  0  0  0  0  0  0  0  0
  187.6220  176.5160  146.9660 C   0  0  0  0  0  2  0  0  0  0  0  0
  186.8130  177.7560  147.3150 C   0  0  0  0  0  2  0  0  0  0  0  0
  185.5440  177.8550  146.4760 C   0  0  2  0  0  3  0  0  0  0  0  0
  185.6370  176.8600  145.3320 C   0  0  0  0  0  2  0  0  0  0  0  0
  185.4370  179.2310  145.8200 C   0  0  0  0  0  2  0  0  0  0  0  0
  185.9400  177.6430  144.1530 N   0  0  0  0  0  0  0  0  0  0  0  0
  186.2020  175.8080  142.7350 O   0  0  0  0  0  0  0  0  0  0  0  0
  185.9110  179.0700  144.3890 C   0  0  0  0  0  2  0  0  0  0  0  0
  186.2290  177.0610  142.8760 C   0  0  0  0  0  0  0  0  0  0  0  0
  186.5710  177.9340  141.7080 C   0  0  2  0  0  3  0  0  0  0  0  0
  184.5310  178.3220  140.9340 C   0  0  0  0  0  1  0  0  0  0  0  0
  185.7200  177.6540  140.6350 O   0  0  0  0  0  0  0  0  0  0  0  0
  188.0200  177.7070  141.3030 C   0  0  0  0  0  2  0  0  0  0  0  0
  190.0390  177.2680  142.6640 C   0  0  0  0  0  1  0  0  0  0  0  0
  188.9550  178.2780  142.3520 C   0  0  0  0  0  2  0  0  0  0  0  0
  193.3280  172.9830  144.8540 C   0  0  0  0  0  2  0  0  0  0  0  0
  193.2310  172.3730  143.5900 O   0  0  0  0  0  0  0  0  0  0  0  0
  192.0560  171.5880  143.5430 C   0  0  2  0  0  3  0  0  0  0  0  0
  194.4930  169.1990  143.0680 N   0  0  0  0  0  0  0  0  0  0  0  0
  192.7190  169.4230  144.4040 O   0  0  0  0  0  0  0  0  0  0  0  0
  194.7290  168.1670  145.2600 C   0  0  0  0  0  1  0  0  0  0  0  0
  193.5170  169.9580  142.2980 C   0  0  0  0  0  2  0  0  0  0  0  0
  192.3100  170.1050  143.2310 C   0  0  2  0  0  3  0  0  0  0  0  0
  193.9930  168.9340  144.2220 C   0  0  0  0  0  0  0  0  0  0  0  0
  190.9500  172.2140  142.7350 C   0  0  0  0  0  0  0  0  0  0  0  0
  188.9040  173.8590  141.6910 C   0  0  0  0  0  2  0  0  0  0  0  0
  189.6820  171.8820  142.9870 C   0  0  0  0  0  3  0  0  0  0  0  0
  191.2360  173.2170  141.6870 C   0  0  0  0  0  3  0  0  0  0  0  0
  190.2770  173.9350  141.1830 N   0  0  0  0  0  0  0  0  0  0  0  0
  188.5690  172.4360  142.1430 C   0  0  0  0  0  2  0  0  0  0  0  0
  194.4230  175.1500  144.7300 O   0  0  0  0  0  0  0  0  0  0  0  0
  196.1290  176.8300  141.3190 N   0  0  0  0  0  0  0  0  0  0  0  0
  196.8720  176.6980  142.4500 C   0  0  0  0  0  3  0  0  0  0  0  0
  194.9760  175.7160  143.5760 C   0  0  0  0  0  0  0  0  0  0  0  0
  194.8320  176.4270  141.2710 C   0  0  0  0  0  3  0  0  0  0  0  0
  194.2320  175.8630  142.3980 C   0  0  0  0  0  3  0  0  0  0  0  0
  196.3080  176.1370  143.5990 C   0  0  0  0  0  3  0  0  0  0  0  0
  1 24  1  1  0  0  0
  1  4  1  0  0  0  0
  2  3  1  0  0  0  0
  3  4  2  0  0  0  0
  3  7  1  0  0  0  0
  7  5  2  1  0  0  0
  7  6  1  0  0  0  0
  8  9  1  0  0  0  0
  8  7  1  0  0  0  0
  9 10  1  0  0  0  0
 11 10  1  1  0  0  0
 12 11  1  0  0  0  0
 13 11  1  0  0  0  0
 14 16  1  0  0  0  0
 14 12  1  0  0  0  0
 15 17  2  0  0  0  0
 16 13  1  0  0  0  0
 17 14  1  0  0  0  0
 18 21  1  6  0  0  0
 18 17  1  0  0  0  0
 20 19  1  0  0  0  0
 20 18  1  0  0  0  0
 21 23  1  0  0  0  0
 23 22  1  0  0  0  0
 25 24  1  0  0  0  0
 26 25  1  6  0  0  0
 27 32  2  0  0  0  0
 30 27  1  0  0  0  0
 30 31  1  0  0  0  0
 31 26  1  1  0  0  0
 31 28  1  0  0  0  0
 32 28  1  0  0  0  0
 32 29  1  0  0  0  0
 33 35  2  0  0  0  0
 33 26  1  0  0  0  0
 34 38  1  0  0  0  0
 36 33  1  0  0  0  0
 37 36  2  0  0  0  0
 37 34  1  0  0  0  0
 38 35  1  0  0  0  0
 39  1  1  0  0  0  0
 40 41  1  0  0  0  0
 41 45  2  0  0  0  0
 42 45  1  0  0  0  0
 42 39  1  0  0  0  0
 43 40  2  0  0  0  0
 43 44  1  0  0  0  0
 44 42  2  0  0  0  0
M  END
>  <MODEL>
2

>  <REMARK>
 VINA RESULT:      -6.7      2.979      9.203
  Name = 
  17 active torsions:
  status: ('A' for Active; 'I' for Inactive)
    1  A    between atoms: C_1  and  C_27
    2  A    between atoms: C_1  and  O_32
    3  A    between atoms: C_1  and  C_35
    4  A    between atoms: C_5  and  C_29
    5  A    between atoms: O_7  and  C_16
    6  A    between atoms: O_7  and  C_31
    7  A    between atoms: C_11  and  C_41
    8  A    between atoms: O_12  and  C_18
    9  A    between atoms: O_12  and  C_41
   10  A    between atoms: O_13  and  C_24
   11  A    between atoms: O_13  and  P_26
   12  A    between atoms: C_16  and  C_18
   13  A    between atoms: C_16  and  C_28
   14  A    between atoms: C_21  and  P_26
   15  A    between atoms: C_24  and  C_29
   16  A    between atoms: C_27  and  C_40
   17  A    between atoms: C_37  and  C_41
                            x       y       z     vdW  Elec       q    Type
                         _______ _______ _______ _____ _____    ______ ____

>  <TORSDO>
F 17

$$$$
=
 OpenBabel11062420423D

 45 48  0  0  1  0  0  0  0  0999 V2000
  188.6490  176.6110  142.7290 C   0  0  2  0  0  3  0  0  0  0  0  0
  190.4080  178.0060  144.5450 F   0  0  0  0  0  0  0  0  0  0  0  0
  189.8060  176.8540  144.9460 C   0  0  0  0  0  0  0  0  0  0  0  0
  188.9760  176.1860  144.1380 C   0  0  0  0  0  3  0  0  0  0  0  0
  190.1310  177.4670  147.5560 O   0  0  0  0  0  1  0  0  0  0  0  0
  188.7250  175.3160  147.0630 O   0  0  0  0  0  0  0  0  0  0  0  0
  190.0470  176.2830  146.6240 P   0  0  1  0  0  0  0  0  0  0  0  0
  191.5060  175.4150  146.6770 O   0  0  0  0  0  0  0  0  0  0  0  0
  192.5010  176.3360  147.0160 C   0  0  0  0  0  2  0  0  0  0  0  0
  193.8410  175.8680  146.4710 C   0  0  0  0  0  2  0  0  0  0  0  0
  193.9190  176.0240  144.9550 C   0  0  2  0  0  3  0  0  0  0  0  0
  193.7730  174.6540  144.3160 C   0  0  0  0  0  2  0  0  0  0  0  0
  195.2970  176.5340  144.5350 C   0  0  0  0  0  2  0  0  0  0  0  0
  195.1040  174.2740  143.8930 N   0  0  0  0  0  0  0  0  0  0  0  0
  194.5060  172.1290  143.1950 O   0  0  0  0  0  0  0  0  0  0  0  0
  196.0820  175.3260  144.0650 C   0  0  0  0  0  2  0  0  0  0  0  0
  195.4180  172.9860  143.3490 C   0  0  0  0  0  0  0  0  0  0  0  0
  196.8270  172.6500  142.9680 C   0  0  2  0  0  3  0  0  0  0  0  0
  197.8240  173.5720  141.2160 C   0  0  0  0  0  1  0  0  0  0  0  0
  196.9380  172.5540  141.5780 O   0  0  0  0  0  0  0  0  0  0  0  0
  197.2370  171.3380  143.6200 C   0  0  0  0  0  2  0  0  0  0  0  0
  196.6240  170.8570  145.9680 C   0  0  0  0  0  1  0  0  0  0  0  0
  197.6150  171.5670  145.0710 C   0  0  0  0  0  2  0  0  0  0  0  0
  187.4040  177.4880  142.6630 C   0  0  0  0  0  2  0  0  0  0  0  0
  186.2480  176.7110  142.4750 O   0  0  0  0  0  0  0  0  0  0  0  0
  185.1550  177.3470  143.1090 C   0  0  2  0  0  3  0  0  0  0  0  0
  183.3530  178.0980  140.2690 N   0  0  0  0  0  0  0  0  0  0  0  0
  183.1270  178.4990  142.4540 O   0  0  0  0  0  0  0  0  0  0  0  0
  181.0510  178.2070  141.0540 C   0  0  0  0  0  1  0  0  0  0  0  0
  184.7090  178.2160  140.7870 C   0  0  0  0  0  2  0  0  0  0  0  0
  184.5340  178.4860  142.2860 C   0  0  2  0  0  3  0  0  0  0  0  0
  182.5250  178.2640  141.2380 C   0  0  0  0  0  0  0  0  0  0  0  0
  185.4180  177.6910  144.5510 C   0  0  0  0  0  0  0  0  0  0  0  0
  185.2550  178.2450  147.3160 C   0  0  0  0  0  2  0  0  0  0  0  0
  185.3860  178.9680  144.9390 C   0  0  0  0  0  3  0  0  0  0  0  0
  185.6810  176.6400  145.5570 C   0  0  0  0  0  3  0  0  0  0  0  0
  185.6470  176.9200  146.8260 N   0  0  0  0  0  0  0  0  0  0  0  0
  185.7220  179.3410  146.3550 C   0  0  0  0  0  2  0  0  0  0  0  0
  188.5300  175.4900  141.8560 O   0  0  0  0  0  0  0  0  0  0  0  0
  191.0010  172.1460  142.1440 N   0  0  0  0  0  0  0  0  0  0  0  0
  191.5360  173.3550  141.8260 C   0  0  0  0  0  3  0  0  0  0  0  0
  189.3420  174.3550  141.9530 C   0  0  0  0  0  0  0  0  0  0  0  0
  189.6690  171.9970  142.3710 C   0  0  0  0  0  3  0  0  0  0  0  0
  188.8160  173.0980  142.2800 C   0  0  0  0  0  3  0  0  0  0  0  0
  190.7150  174.4810  141.7260 C   0  0  0  0  0  3  0  0  0  0  0  0
  1 24  1  1  0  0  0
  1  4  1  0  0  0  0
  2  3  1  0  0  0  0
  3  7  1  0  0  0  0
  4  3  2  0  0  0  0
  7  8  1  0  0  0  0
  7  6  2  1  0  0  0
  7  5  1  0  0  0  0
  8  9  1  0  0  0  0
 10  9  1  0  0  0  0
 11 10  1  1  0  0  0
 12 11  1  0  0  0  0
 13 11  1  0  0  0  0
 14 16  1  0  0  0  0
 14 12  1  0  0  0  0
 15 17  2  0  0  0  0
 16 13  1  0  0  0  0
 17 14  1  0  0  0  0
 18 17  1  0  0  0  0
 18 21  1  1  0  0  0
 19 20  1  0  0  0  0
 20 18  1  0  0  0  0
 21 23  1  0  0  0  0
 23 22  1  0  0  0  0
 25 24  1  0  0  0  0
 26 25  1  6  0  0  0
 26 33  1  0  0  0  0
 27 30  1  0  0  0  0
 27 32  2  0  0  0  0
 29 32  1  0  0  0  0
 30 31  1  0  0  0  0
 31 28  1  0  0  0  0
 31 26  1  1  0  0  0
 32 28  1  0  0  0  0
 33 35  2  0  0  0  0
 33 36  1  0  0  0  0
 35 38  1  0  0  0  0
 36 37  2  0  0  0  0
 37 34  1  0  0  0  0
 38 34  1  0  0  0  0
 39 42  1  0  0  0  0
 39  1  1  0  0  0  0
 40 43  1  0  0  0  0
 41 40  2  0  0  0  0
 42 44  1  0  0  0  0
 44 43  2  0  0  0  0
 45 41  1  0  0  0  0
 45 42  2  0  0  0  0
M  END
>  <MODEL>
3

>  <REMARK>
 VINA RESULT:      -6.4      2.548      4.551
  Name = 
  17 active torsions:
  status: ('A' for Active; 'I' for Inactive)
    1  A    between atoms: C_1  and  C_27
    2  A    between atoms: C_1  and  O_32
    3  A    between atoms: C_1  and  C_35
    4  A    between atoms: C_5  and  C_29
    5  A    between atoms: O_7  and  C_16
    6  A    between atoms: O_7  and  C_31
    7  A    between atoms: C_11  and  C_41
    8  A    between atoms: O_12  and  C_18
    9  A    between atoms: O_12  and  C_41
   10  A    between atoms: O_13  and  C_24
   11  A    between atoms: O_13  and  P_26
   12  A    between atoms: C_16  and  C_18
   13  A    between atoms: C_16  and  C_28
   14  A    between atoms: C_21  and  P_26
   15  A    between atoms: C_24  and  C_29
   16  A    between atoms: C_27  and  C_40
   17  A    between atoms: C_37  and  C_41
                            x       y       z     vdW  Elec       q    Type
                         _______ _______ _______ _____ _____    ______ ____

>  <TORSDO>
F 17

$$$$
=
 OpenBabel11062420423D

 45 48  0  0  1  0  0  0  0  0999 V2000
  188.2900  175.1480  143.1210 C   0  0  2  0  0  3  0  0  0  0  0  0
  188.0370  172.3620  142.4050 F   0  0  0  0  0  0  0  0  0  0  0  0
  189.0110  173.1160  141.8300 C   0  0  0  0  0  0  0  0  0  0  0  0
  189.1520  174.4130  142.1270 C   0  0  0  0  0  3  0  0  0  0  0  0
  189.2590  172.2060  139.2990 O   0  0  0  0  0  0  0  0  0  0  0  0
  191.3580  173.4240  140.2770 O   0  0  0  0  0  1  0  0  0  0  0  0
  190.0510  172.3860  140.5720 P   0  0  1  0  0  0  0  0  0  0  0  0
  190.5670  170.8690  141.1350 O   0  0  0  0  0  0  0  0  0  0  0  0
  191.0510  171.0720  142.4300 C   0  0  0  0  0  2  0  0  0  0  0  0
  192.1900  170.1030  142.7120 C   0  0  0  0  0  2  0  0  0  0  0  0
  192.7400  170.2760  144.1240 C   0  0  2  0  0  3  0  0  0  0  0  0
  192.8870  171.7600  144.4120 C   0  0  0  0  0  2  0  0  0  0  0  0
  194.1480  169.6910  144.2290 C   0  0  0  0  0  2  0  0  0  0  0  0
  194.3020  172.0420  144.3100 N   0  0  0  0  0  0  0  0  0  0  0  0
  194.0850  174.3490  144.5920 O   0  0  0  0  0  0  0  0  0  0  0  0
  195.1110  170.8570  144.1250 C   0  0  0  0  0  2  0  0  0  0  0  0
  194.8490  173.3640  144.3940 C   0  0  0  0  0  0  0  0  0  0  0  0
  196.3220  173.5840  144.2420 C   0  0  2  0  0  3  0  0  0  0  0  0
  197.0340  173.3410  146.3270 C   0  0  0  0  0  1  0  0  0  0  0  0
  196.8150  174.3010  145.3360 O   0  0  0  0  0  0  0  0  0  0  0  0
  196.5990  174.3390  142.9510 C   0  0  0  0  0  2  0  0  0  0  0  0
  196.7440  176.8090  142.9300 C   0  0  0  0  0  1  0  0  0  0  0  0
  197.4990  175.5300  143.2220 C   0  0  0  0  0  2  0  0  0  0  0  0
  187.0230  175.7080  142.4870 C   0  0  0  0  0  2  0  0  0  0  0  0
  186.9780  177.1090  142.6000 O   0  0  0  0  0  0  0  0  0  0  0  0
  185.7040  177.4940  143.0800 C   0  0  2  0  0  3  0  0  0  0  0  0
  183.8370  178.0630  140.2410 N   0  0  0  0  0  0  0  0  0  0  0  0
  183.6150  178.5230  142.4140 O   0  0  0  0  0  0  0  0  0  0  0  0
  181.5420  178.0830  141.0500 C   0  0  0  0  0  1  0  0  0  0  0  0
  185.1910  178.2640  140.7380 C   0  0  0  0  0  2  0  0  0  0  0  0
  185.0200  178.5740  142.2290 C   0  0  2  0  0  3  0  0  0  0  0  0
  183.0120  178.2190  141.2140 C   0  0  0  0  0  0  0  0  0  0  0  0
  185.6790  177.7600  144.5620 C   0  0  0  0  0  0  0  0  0  0  0  0
  184.9730  178.2840  147.2470 C   0  0  0  0  0  2  0  0  0  0  0  0
  185.7770  179.0140  145.0080 C   0  0  0  0  0  3  0  0  0  0  0  0
  185.5160  176.6610  145.5380 C   0  0  0  0  0  3  0  0  0  0  0  0
  185.2360  176.9190  146.7810 N   0  0  0  0  0  0  0  0  0  0  0  0
  185.8320  179.2950  146.4830 C   0  0  0  0  0  2  0  0  0  0  0  0
  189.0200  176.1710  143.7950 O   0  0  0  0  0  0  0  0  0  0  0  0
  190.9010  175.5320  147.4590 N   0  0  0  0  0  0  0  0  0  0  0  0
  189.6110  175.1410  147.2850 C   0  0  0  0  0  3  0  0  0  0  0  0
  189.6670  175.9690  145.0190 C   0  0  0  0  0  0  0  0  0  0  0  0
  191.6000  176.1340  146.4600 C   0  0  0  0  0  3  0  0  0  0  0  0
  190.9960  176.3630  145.2230 C   0  0  0  0  0  3  0  0  0  0  0  0
  188.9710  175.3520  146.0610 C   0  0  0  0  0  3  0  0  0  0  0  0
  1  4  1  6  0  0  0
  1 39  1  0  0  0  0
  3  4  2  0  0  0  0
  3  2  1  0  0  0  0
  6  7  1  0  0  0  0
  7  5  2  6  0  0  0
  7  8  1  0  0  0  0
  7  3  1  0  0  0  0
  8  9  1  0  0  0  0
  9 10  1  0  0  0  0
 11 10  1  6  0  0  0
 11 13  1  0  0  0  0
 11 12  1  0  0  0  0
 14 17  1  0  0  0  0
 14 12  1  0  0  0  0
 16 13  1  0  0  0  0
 16 14  1  0  0  0  0
 17 15  2  0  0  0  0
 18 21  1  6  0  0  0
 18 17  1  0  0  0  0
 18 20  1  0  0  0  0
 20 19  1  0  0  0  0
 21 23  1  0  0  0  0
 22 23  1  0  0  0  0
 24 25  1  0  0  0  0
 24  1  1  0  0  0  0
 26 25  1  6  0  0  0
 26 33  1  0  0  0  0
 27 30  1  0  0  0  0
 27 32  2  0  0  0  0
 29 32  1  0  0  0  0
 30 31  1  0  0  0  0
 31 28  1  0  0  0  0
 31 26  1  1  0  0  0
 32 28  1  0  0  0  0
 33 35  2  0  0  0  0
 33 36  1  0  0  0  0
 35 38  1  0  0  0  0
 36 37  2  0  0  0  0
 37 34  1  0  0  0  0
 38 34  1  0  0  0  0
 39 42  1  0  0  0  0
 41 40  1  0  0  0  0
 42 44  2  0  0  0  0
 42 45  1  0  0  0  0
 43 40  2  0  0  0  0
 44 43  1  0  0  0  0
 45 41  2  0  0  0  0
M  END
>  <MODEL>
4

>  <REMARK>
 VINA RESULT:      -6.4      1.507      2.038
  Name = 
  17 active torsions:
  status: ('A' for Active; 'I' for Inactive)
    1  A    between atoms: C_1  and  C_27
    2  A    between atoms: C_1  and  O_32
    3  A    between atoms: C_1  and  C_35
    4  A    between atoms: C_5  and  C_29
    5  A    between atoms: O_7  and  C_16
    6  A    between atoms: O_7  and  C_31
    7  A    between atoms: C_11  and  C_41
    8  A    between atoms: O_12  and  C_18
    9  A    between atoms: O_12  and  C_41
   10  A    between atoms: O_13  and  C_24
   11  A    between atoms: O_13  and  P_26
   12  A    between atoms: C_16  and  C_18
   13  A    between atoms: C_16  and  C_28
   14  A    between atoms: C_21  and  P_26
   15  A    between atoms: C_24  and  C_29
   16  A    between atoms: C_27  and  C_40
   17  A    between atoms: C_37  and  C_41
                            x       y       z     vdW  Elec       q    Type
                         _______ _______ _______ _____ _____    ______ ____

>  <TORSDO>
F 17

$$$$
=
 OpenBabel11062420423D

 45 48  0  0  1  0  0  0  0  0999 V2000
  189.3180  176.6930  143.2250 C   0  0  2  0  0  3  0  0  0  0  0  0
  188.0640  174.1490  142.6820 F   0  0  0  0  0  0  0  0  0  0  0  0
  189.3120  174.3970  142.2040 C   0  0  0  0  0  0  0  0  0  0  0  0
  189.9210  175.5680  142.4250 C   0  0  0  0  0  3  0  0  0  0  0  0
  189.1210  172.6450  140.1580 O   0  0  0  0  0  0  0  0  0  0  0  0
  191.4030  173.9100  140.3580 O   0  0  0  0  0  1  0  0  0  0  0  0
  190.1090  173.1750  141.1690 P   0  0  1  0  0  0  0  0  0  0  0  0
  190.6320  171.9050  142.1680 O   0  0  0  0  0  0  0  0  0  0  0  0
  191.9530  172.1950  142.5170 C   0  0  0  0  0  2  0  0  0  0  0  0
  192.2030  171.7950  143.9640 C   0  0  0  0  0  2  0  0  0  0  0  0
  192.8690  172.9190  144.7510 C   0  0  2  0  0  3  0  0  0  0  0  0
  192.7640  174.2050  143.9500 C   0  0  0  0  0  2  0  0  0  0  0  0
  194.3650  172.6510  144.9110 C   0  0  0  0  0  2  0  0  0  0  0  0
  194.0780  174.4270  143.3880 N   0  0  0  0  0  0  0  0  0  0  0  0
  193.4610  176.2850  142.1190 O   0  0  0  0  0  0  0  0  0  0  0  0
  195.0710  173.4870  143.8630 C   0  0  0  0  0  2  0  0  0  0  0  0
  194.3700  175.4800  142.4620 C   0  0  0  0  0  0  0  0  0  0  0  0
  195.7470  175.6260  141.8910 C   0  0  2  0  0  3  0  0  0  0  0  0
  197.4320  176.3940  143.1100 C   0  0  0  0  0  1  0  0  0  0  0  0
  196.3340  176.8080  142.3530 O   0  0  0  0  0  0  0  0  0  0  0  0
  195.6770  175.6330  140.3720 C   0  0  0  0  0  2  0  0  0  0  0  0
  197.9410  175.5820  139.3760 C   0  0  0  0  0  1  0  0  0  0  0  0
  196.7550  174.7380  139.7920 C   0  0  0  0  0  2  0  0  0  0  0  0
  188.8910  177.8640  142.3480 C   0  0  0  0  0  2  0  0  0  0  0  0
  187.7220  178.4670  142.8450 O   0  0  0  0  0  0  0  0  0  0  0  0
  186.8300  177.4590  143.2800 C   0  0  2  0  0  3  0  0  0  0  0  0
  185.3820  178.3180  140.2730 N   0  0  0  0  0  0  0  0  0  0  0  0
  186.4840  176.5440  141.0630 O   0  0  0  0  0  0  0  0  0  0  0  0
  186.7220  177.1300  138.6240 C   0  0  0  0  0  1  0  0  0  0  0  0
  185.0440  178.2460  141.6880 C   0  0  0  0  0  2  0  0  0  0  0  0
  185.8110  177.0280  142.2130 C   0  0  2  0  0  3  0  0  0  0  0  0
  186.1810  177.3510  139.9890 C   0  0  0  0  0  0  0  0  0  0  0  0
  186.2350  177.7310  144.6360 C   0  0  0  0  0  0  0  0  0  0  0  0
  184.5470  178.2550  146.8400 C   0  0  0  0  0  2  0  0  0  0  0  0
  186.1360  178.9890  145.0710 C   0  0  0  0  0  3  0  0  0  0  0  0
  185.7270  176.6340  145.4870 C   0  0  0  0  0  3  0  0  0  0  0  0
  184.9880  176.8930  146.5250 N   0  0  0  0  0  0  0  0  0  0  0  0
  185.6170  179.2780  146.4510 C   0  0  0  0  0  2  0  0  0  0  0  0
  190.1920  177.1260  144.2660 O   0  0  0  0  0  0  0  0  0  0  0  0
  190.4540  175.1410  147.9210 N   0  0  0  0  0  0  0  0  0  0  0  0
  189.3650  174.9540  147.1280 C   0  0  0  0  0  3  0  0  0  0  0  0
  190.2960  176.4720  145.4980 C   0  0  0  0  0  0  0  0  0  0  0  0
  191.4680  175.9660  147.5500 C   0  0  0  0  0  3  0  0  0  0  0  0
  191.4080  176.6470  146.3330 C   0  0  0  0  0  3  0  0  0  0  0  0
  189.2680  175.6170  145.9020 C   0  0  0  0  0  3  0  0  0  0  0  0
  1 24  1  6  0  0  0
  1 39  1  0  0  0  0
  3  4  2  0  0  0  0
  3  2  1  0  0  0  0
  4  1  1  0  0  0  0
  6  7  1  0  0  0  0
  7  5  2  6  0  0  0
  7  8  1  0  0  0  0
  7  3  1  0  0  0  0
  8  9  1  0  0  0  0
  9 10  1  0  0  0  0
 11 10  1  6  0  0  0
 11 13  1  0  0  0  0
 12 11  1  0  0  0  0
 14 16  1  0  0  0  0
 14 12  1  0  0  0  0
 15 17  2  0  0  0  0
 16 13  1  0  0  0  0
 17 14  1  0  0  0  0
 18 21  1  6  0  0  0
 18 20  1  0  0  0  0
 18 17  1  0  0  0  0
 20 19  1  0  0  0  0
 22 23  1  0  0  0  0
 23 21  1  0  0  0  0
 24 25  1  0  0  0  0
 26 25  1  6  0  0  0
 26 33  1  0  0  0  0
 27 30  1  0  0  0  0
 28 31  1  0  0  0  0
 29 32  1  0  0  0  0
 30 31  1  0  0  0  0
 31 26  1  1  0  0  0
 32 27  2  0  0  0  0
 32 28  1  0  0  0  0
 33 35  2  0  0  0  0
 33 36  1  0  0  0  0
 35 38  1  0  0  0  0
 36 37  2  0  0  0  0
 37 34  1  0  0  0  0
 38 34  1  0  0  0  0
 39 42  1  0  0  0  0
 41 40  2  0  0  0  0
 42 45  2  0  0  0  0
 42 44  1  0  0  0  0
 43 40  1  0  0  0  0
 44 43  2  0  0  0  0
 45 41  1  0  0  0  0
M  END
>  <MODEL>
5

>  <REMARK>
 VINA RESULT:      -6.3      2.118      2.904
  Name = 
  17 active torsions:
  status: ('A' for Active; 'I' for Inactive)
    1  A    between atoms: C_1  and  C_27
    2  A    between atoms: C_1  and  O_32
    3  A    between atoms: C_1  and  C_35
    4  A    between atoms: C_5  and  C_29
    5  A    between atoms: O_7  and  C_16
    6  A    between atoms: O_7  and  C_31
    7  A    between atoms: C_11  and  C_41
    8  A    between atoms: O_12  and  C_18
    9  A    between atoms: O_12  and  C_41
   10  A    between atoms: O_13  and  C_24
   11  A    between atoms: O_13  and  P_26
   12  A    between atoms: C_16  and  C_18
   13  A    between atoms: C_16  and  C_28
   14  A    between atoms: C_21  and  P_26
   15  A    between atoms: C_24  and  C_29
   16  A    between atoms: C_27  and  C_40
   17  A    between atoms: C_37  and  C_41
                            x       y       z     vdW  Elec       q    Type
                         _______ _______ _______ _____ _____    ______ ____

>  <TORSDO>
F 17

$$$$
=
 OpenBabel11062420423D

 45 48  0  0  1  0  0  0  0  0999 V2000
  188.3850  175.3600  142.9810 C   0  0  2  0  0  3  0  0  0  0  0  0
  188.5970  172.5030  142.6150 F   0  0  0  0  0  0  0  0  0  0  0  0
  189.0020  173.3390  141.6210 C   0  0  0  0  0  0  0  0  0  0  0  0
  188.9080  174.6680  141.7490 C   0  0  0  0  0  3  0  0  0  0  0  0
  190.2450  171.3200  140.3290 O   0  0  0  0  0  1  0  0  0  0  0  0
  188.2270  172.4030  139.0640 O   0  0  0  0  0  0  0  0  0  0  0  0
  189.5670  172.6440  140.0730 P   0  0  1  0  0  0  0  0  0  0  0  0
  190.6830  173.7280  139.3900 O   0  0  0  0  0  0  0  0  0  0  0  0
  191.6710  172.9490  138.7840 C   0  0  0  0  0  2  0  0  0  0  0  0
  193.0470  173.4480  139.2000 C   0  0  0  0  0  2  0  0  0  0  0  0
  193.8310  172.3780  139.9520 C   0  0  2  0  0  3  0  0  0  0  0  0
  193.5460  172.5190  141.4370 C   0  0  0  0  0  2  0  0  0  0  0  0
  195.3350  172.6010  139.7960 C   0  0  0  0  0  2  0  0  0  0  0  0
  194.7210  173.1420  142.0060 N   0  0  0  0  0  0  0  0  0  0  0  0
  193.8320  173.3660  144.1520 O   0  0  0  0  0  0  0  0  0  0  0  0
  195.8060  173.2900  141.0600 C   0  0  0  0  0  2  0  0  0  0  0  0
  194.8060  173.5600  143.3740 C   0  0  0  0  0  0  0  0  0  0  0  0
  196.0430  174.2330  143.8840 C   0  0  2  0  0  3  0  0  0  0  0  0
  196.7870  173.5160  145.8450 C   0  0  0  0  0  1  0  0  0  0  0  0
  196.8940  173.2910  144.4700 O   0  0  0  0  0  0  0  0  0  0  0  0
  195.6660  175.3030  144.8970 C   0  0  0  0  0  2  0  0  0  0  0  0
  196.6800  176.7390  143.1560 C   0  0  0  0  0  1  0  0  0  0  0  0
  195.6150  176.6640  144.2300 C   0  0  0  0  0  2  0  0  0  0  0  0
  186.9550  175.8540  142.8050 C   0  0  0  0  0  2  0  0  0  0  0  0
  186.8790  177.2490  142.9680 O   0  0  0  0  0  0  0  0  0  0  0  0
  185.6160  177.5840  143.5100 C   0  0  2  0  0  3  0  0  0  0  0  0
  183.8710  178.2820  140.6220 N   0  0  0  0  0  0  0  0  0  0  0  0
  183.4750  178.4750  142.8100 O   0  0  0  0  0  0  0  0  0  0  0  0
  181.5420  177.9930  141.2670 C   0  0  0  0  0  1  0  0  0  0  0  0
  185.1650  178.5560  141.2310 C   0  0  0  0  0  2  0  0  0  0  0  0
  184.8750  178.6810  142.7310 C   0  0  2  0  0  3  0  0  0  0  0  0
  182.9780  178.2500  141.5460 C   0  0  0  0  0  0  0  0  0  0  0  0
  185.6400  177.7880  145.0020 C   0  0  0  0  0  0  0  0  0  0  0  0
  186.3160  178.3530  147.6860 C   0  0  0  0  0  2  0  0  0  0  0  0
  185.9650  176.7680  145.8000 C   0  0  0  0  0  3  0  0  0  0  0  0
  185.3430  179.1050  145.6040 C   0  0  0  0  0  3  0  0  0  0  0  0
  185.6180  179.3360  146.8530 N   0  0  0  0  0  0  0  0  0  0  0  0
  185.9200  176.9270  147.2940 C   0  0  0  0  0  2  0  0  0  0  0  0
  189.2450  176.4200  143.3940 O   0  0  0  0  0  0  0  0  0  0  0  0
  191.4460  176.3430  146.9330 N   0  0  0  0  0  0  0  0  0  0  0  0
  192.0150  175.9160  145.7750 C   0  0  0  0  0  3  0  0  0  0  0  0
  189.9660  176.3980  144.5930 C   0  0  0  0  0  0  0  0  0  0  0  0
  190.1650  176.7980  146.9680 C   0  0  0  0  0  3  0  0  0  0  0  0
  189.4020  176.8330  145.7990 C   0  0  0  0  0  3  0  0  0  0  0  0
  191.2840  175.9360  144.5840 C   0  0  0  0  0  3  0  0  0  0  0  0
  1  4  1  6  0  0  0
  1 39  1  0  0  0  0
  3  4  2  0  0  0  0
  3  2  1  0  0  0  0
  7  6  2  6  0  0  0
  7  5  1  0  0  0  0
  7  3  1  0  0  0  0
  8  7  1  0  0  0  0
  9 10  1  0  0  0  0
  9  8  1  0  0  0  0
 11 10  1  6  0  0  0
 11 12  1  0  0  0  0
 12 14  1  0  0  0  0
 13 11  1  0  0  0  0
 13 16  1  0  0  0  0
 14 17  1  0  0  0  0
 16 14  1  0  0  0  0
 17 18  1  0  0  0  0
 17 15  2  0  0  0  0
 18 20  1  0  0  0  0
 18 21  1  1  0  0  0
 20 19  1  0  0  0  0
 22 23  1  0  0  0  0
 23 21  1  0  0  0  0
 24 25  1  0  0  0  0
 24  1  1  0  0  0  0
 26 25  1  6  0  0  0
 26 33  1  0  0  0  0
 27 30  1  0  0  0  0
 27 32  2  0  0  0  0
 29 32  1  0  0  0  0
 30 31  1  0  0  0  0
 31 28  1  0  0  0  0
 31 26  1  1  0  0  0
 32 28  1  0  0  0  0
 33 36  1  0  0  0  0
 33 35  2  0  0  0  0
 35 38  1  0  0  0  0
 36 37  2  0  0  0  0
 37 34  1  0  0  0  0
 38 34  1  0  0  0  0
 39 42  1  0  0  0  0
 40 43  1  0  0  0  0
 41 40  2  0  0  0  0
 42 44  1  0  0  0  0
 44 43  2  0  0  0  0
 45 42  2  0  0  0  0
 45 41  1  0  0  0  0
M  END
>  <MODEL>
6

>  <REMARK>
 VINA RESULT:      -6.0      1.690      2.218
  Name = 
  17 active torsions:
  status: ('A' for Active; 'I' for Inactive)
    1  A    between atoms: C_1  and  C_27
    2  A    between atoms: C_1  and  O_32
    3  A    between atoms: C_1  and  C_35
    4  A    between atoms: C_5  and  C_29
    5  A    between atoms: O_7  and  C_16
    6  A    between atoms: O_7  and  C_31
    7  A    between atoms: C_11  and  C_41
    8  A    between atoms: O_12  and  C_18
    9  A    between atoms: O_12  and  C_41
   10  A    between atoms: O_13  and  C_24
   11  A    between atoms: O_13  and  P_26
   12  A    between atoms: C_16  and  C_18
   13  A    between atoms: C_16  and  C_28
   14  A    between atoms: C_21  and  P_26
   15  A    between atoms: C_24  and  C_29
   16  A    between atoms: C_27  and  C_40
   17  A    between atoms: C_37  and  C_41
                            x       y       z     vdW  Elec       q    Type
                         _______ _______ _______ _____ _____    ______ ____

>  <TORSDO>
F 17

$$$$
=
 OpenBabel11062420423D

 45 48  0  0  1  0  0  0  0  0999 V2000
  186.6180  176.3080  142.7840 C   0  0  2  0  0  3  0  0  0  0  0  0
  185.2280  176.6710  145.2890 F   0  0  0  0  0  0  0  0  0  0  0  0
  186.5860  176.5940  145.2810 C   0  0  0  0  0  0  0  0  0  0  0  0
  187.2640  176.4150  144.1410 C   0  0  0  0  0  3  0  0  0  0  0  0
  188.2290  177.9250  146.9600 O   0  0  0  0  0  0  0  0  0  0  0  0
  186.3510  176.5040  148.1000 O   0  0  0  0  0  1  0  0  0  0  0  0
  187.4710  176.6260  146.8340 P   0  0  1  0  0  0  0  0  0  0  0  0
  188.5680  175.3290  146.8370 O   0  0  0  0  0  0  0  0  0  0  0  0
  189.8110  175.8620  147.1870 C   0  0  0  0  0  2  0  0  0  0  0  0
  190.8470  175.4810  146.1410 C   0  0  0  0  0  2  0  0  0  0  0  0
  191.8160  176.6270  145.8650 C   0  0  2  0  0  3  0  0  0  0  0  0
  192.3680  176.4700  144.4590 C   0  0  0  0  0  2  0  0  0  0  0  0
  193.0240  176.5470  146.7970 C   0  0  0  0  0  2  0  0  0  0  0  0
  193.7150  175.9660  144.6190 N   0  0  0  0  0  0  0  0  0  0  0  0
  194.1100  175.6730  142.3380 O   0  0  0  0  0  0  0  0  0  0  0  0
  194.1470  175.9150  145.9990 C   0  0  0  0  0  2  0  0  0  0  0  0
  194.5410  175.5670  143.5190 C   0  0  0  0  0  0  0  0  0  0  0  0
  195.9130  175.0190  143.7640 C   0  0  2  0  0  3  0  0  0  0  0  0
  197.1310  176.7790  143.1870 C   0  0  0  0  0  1  0  0  0  0  0  0
  196.7970  175.4830  142.7850 O   0  0  0  0  0  0  0  0  0  0  0  0
  195.8690  173.4980  143.7520 C   0  0  0  0  0  2  0  0  0  0  0  0
  197.1690  173.6700  145.8500 C   0  0  0  0  0  1  0  0  0  0  0  0
  196.0250  172.9570  145.1600 C   0  0  0  0  0  2  0  0  0  0  0  0
  187.4720  175.5220  141.7960 C   0  0  0  0  0  2  0  0  0  0  0  0
  188.8120  175.4640  142.2210 O   0  0  0  0  0  0  0  0  0  0  0  0
  189.4710  174.4190  141.5320 C   0  0  2  0  0  3  0  0  0  0  0  0
  189.2360  173.0450  138.3820 N   0  0  0  0  0  0  0  0  0  0  0  0
  189.0060  172.2920  140.4710 O   0  0  0  0  0  0  0  0  0  0  0  0
  189.8970  170.7250  138.7100 C   0  0  0  0  0  1  0  0  0  0  0  0
  188.7090  174.1670  139.1450 C   0  0  0  0  0  2  0  0  0  0  0  0
  188.5620  173.6340  140.5750 C   0  0  2  0  0  3  0  0  0  0  0  0
  189.3780  172.0390  139.1700 C   0  0  0  0  0  0  0  0  0  0  0  0
  190.3250  173.5590  142.4260 C   0  0  0  0  0  0  0  0  0  0  0  0
  192.0320  172.5210  144.4240 C   0  0  0  0  0  2  0  0  0  0  0  0
  191.6110  173.3680  142.1220 C   0  0  0  0  0  3  0  0  0  0  0  0
  189.7780  172.9460  143.6550 C   0  0  0  0  0  3  0  0  0  0  0  0
  190.5740  172.4310  144.5450 N   0  0  0  0  0  0  0  0  0  0  0  0
  192.4610  172.4520  142.9560 C   0  0  0  0  0  2  0  0  0  0  0  0
  186.2800  177.5900  142.2600 O   0  0  0  0  0  0  0  0  0  0  0  0
  182.4080  178.6470  141.1390 N   0  0  0  0  0  0  0  0  0  0  0  0
  182.7590  178.6660  142.4520 C   0  0  0  0  0  3  0  0  0  0  0  0
  184.9840  177.9370  141.8640 C   0  0  0  0  0  0  0  0  0  0  0  0
  183.2940  178.2880  140.1720 C   0  0  0  0  0  3  0  0  0  0  0  0
  184.5970  177.9260  140.5170 C   0  0  0  0  0  3  0  0  0  0  0  0
  184.0550  178.3120  142.8370 C   0  0  0  0  0  3  0  0  0  0  0  0
  1 24  1  6  0  0  0
  1  4  1  0  0  0  0
  3  2  1  0  0  0  0
  3  7  1  0  0  0  0
  4  3  2  0  0  0  0
  7  8  1  0  0  0  0
  7  5  2  1  0  0  0
  7  6  1  0  0  0  0
  8  9  1  0  0  0  0
 10  9  1  0  0  0  0
 11 10  1  1  0  0  0
 11 13  1  0  0  0  0
 12 14  1  0  0  0  0
 12 11  1  0  0  0  0
 14 16  1  0  0  0  0
 15 17  2  0  0  0  0
 16 13  1  0  0  0  0
 17 18  1  0  0  0  0
 17 14  1  0  0  0  0
 18 21  1  6  0  0  0
 20 19  1  0  0  0  0
 20 18  1  0  0  0  0
 21 23  1  0  0  0  0
 23 22  1  0  0  0  0
 24 25  1  0  0  0  0
 26 25  1  1  0  0  0
 26 33  1  0  0  0  0
 27 30  1  0  0  0  0
 27 32  2  0  0  0  0
 28 31  1  0  0  0  0
 29 32  1  0  0  0  0
 30 31  1  0  0  0  0
 31 26  1  1  0  0  0
 32 28  1  0  0  0  0
 33 36  1  0  0  0  0
 34 37  1  0  0  0  0
 35 33  2  0  0  0  0
 35 38  1  0  0  0  0
 36 37  2  0  0  0  0
 38 34  1  0  0  0  0
 39  1  1  0  0  0  0
 40 41  1  0  0  0  0
 41 45  2  0  0  0  0
 42 39  1  0  0  0  0
 42 45  1  0  0  0  0
 43 44  1  0  0  0  0
 43 40  2  0  0  0  0
 44 42  2  0  0  0  0
M  END
>  <MODEL>
7

>  <REMARK>
 VINA RESULT:      -6.0      2.629      6.564
  Name = 
  17 active torsions:
  status: ('A' for Active; 'I' for Inactive)
    1  A    between atoms: C_1  and  C_27
    2  A    between atoms: C_1  and  O_32
    3  A    between atoms: C_1  and  C_35
    4  A    between atoms: C_5  and  C_29
    5  A    between atoms: O_7  and  C_16
    6  A    between atoms: O_7  and  C_31
    7  A    between atoms: C_11  and  C_41
    8  A    between atoms: O_12  and  C_18
    9  A    between atoms: O_12  and  C_41
   10  A    between atoms: O_13  and  C_24
   11  A    between atoms: O_13  and  P_26
   12  A    between atoms: C_16  and  C_18
   13  A    between atoms: C_16  and  C_28
   14  A    between atoms: C_21  and  P_26
   15  A    between atoms: C_24  and  C_29
   16  A    between atoms: C_27  and  C_40
   17  A    between atoms: C_37  and  C_41
                            x       y       z     vdW  Elec       q    Type
                         _______ _______ _______ _____ _____    ______ ____

>  <TORSDO>
F 17

$$$$
=
 OpenBabel11062420423D

 45 48  0  0  1  0  0  0  0  0999 V2000
  189.5520  176.1220  143.1150 C   0  0  2  0  0  3  0  0  0  0  0  0
  187.8170  173.9150  142.4380 F   0  0  0  0  0  0  0  0  0  0  0  0
  189.0130  174.0470  141.8040 C   0  0  0  0  0  0  0  0  0  0  0  0
  189.8380  175.0630  142.0820 C   0  0  0  0  0  3  0  0  0  0  0  0
  189.6940  171.5350  141.0840 O   0  0  0  0  0  1  0  0  0  0  0  0
  188.1420  172.8120  139.4100 O   0  0  0  0  0  0  0  0  0  0  0  0
  189.4380  172.9020  140.4980 P   0  0  1  0  0  0  0  0  0  0  0  0
  190.8520  173.4690  139.7460 O   0  0  0  0  0  0  0  0  0  0  0  0
  191.5810  172.3380  139.3690 C   0  0  0  0  0  2  0  0  0  0  0  0
  193.0660  172.5890  139.5800 C   0  0  0  0  0  2  0  0  0  0  0  0
  193.7580  171.3840  140.2090 C   0  0  2  0  0  3  0  0  0  0  0  0
  193.0340  171.0240  141.4950 C   0  0  0  0  0  2  0  0  0  0  0  0
  195.1860  171.7370  140.6230 C   0  0  0  0  0  2  0  0  0  0  0  0
  193.8770  171.5030  142.5690 N   0  0  0  0  0  0  0  0  0  0  0  0
  192.3780  170.9740  144.2770 O   0  0  0  0  0  0  0  0  0  0  0  0
  195.1530  172.0130  142.1120 C   0  0  0  0  0  2  0  0  0  0  0  0
  193.4920  171.4660  143.9480 C   0  0  0  0  0  0  0  0  0  0  0  0
  194.4030  172.0150  145.0030 C   0  0  2  0  0  3  0  0  0  0  0  0
  195.8810  170.6110  145.8740 C   0  0  0  0  0  1  0  0  0  0  0  0
  194.5720  171.0760  146.0260 O   0  0  0  0  0  0  0  0  0  0  0  0
  193.8220  173.3040  145.5640 C   0  0  0  0  0  2  0  0  0  0  0  0
  195.9550  174.5340  145.8010 C   0  0  0  0  0  1  0  0  0  0  0  0
  194.6250  174.4960  145.0800 C   0  0  0  0  0  2  0  0  0  0  0  0
  189.0810  177.4290  142.4900 C   0  0  0  0  0  2  0  0  0  0  0  0
  188.1260  178.0630  143.3040 O   0  0  0  0  0  0  0  0  0  0  0  0
  187.1450  177.1200  143.6890 C   0  0  2  0  0  3  0  0  0  0  0  0
  185.7060  178.4580  140.8590 N   0  0  0  0  0  0  0  0  0  0  0  0
  186.4840  176.4530  141.4560 O   0  0  0  0  0  0  0  0  0  0  0  0
  186.6760  177.1580  139.0440 C   0  0  0  0  0  1  0  0  0  0  0  0
  185.4510  178.3500  142.2890 C   0  0  0  0  0  2  0  0  0  0  0  0
  185.9960  176.9720  142.6810 C   0  0  2  0  0  3  0  0  0  0  0  0
  186.2780  177.3790  140.4580 C   0  0  0  0  0  0  0  0  0  0  0  0
  186.7040  177.2660  145.1210 C   0  0  0  0  0  0  0  0  0  0  0  0
  185.6090  178.1090  147.5850 C   0  0  0  0  0  2  0  0  0  0  0  0
  187.5120  177.8620  146.0010 C   0  0  0  0  0  3  0  0  0  0  0  0
  185.3770  176.7920  145.5700 C   0  0  0  0  0  3  0  0  0  0  0  0
  184.9050  177.1520  146.7260 N   0  0  0  0  0  0  0  0  0  0  0  0
  187.1250  177.9500  147.4500 C   0  0  0  0  0  2  0  0  0  0  0  0
  190.6730  176.3390  143.9700 O   0  0  0  0  0  0  0  0  0  0  0  0
  190.7680  175.2760  147.9990 N   0  0  0  0  0  0  0  0  0  0  0  0
  191.7570  176.0530  147.4820 C   0  0  0  0  0  3  0  0  0  0  0  0
  190.6890  175.9680  145.3190 C   0  0  0  0  0  0  0  0  0  0  0  0
  189.7400  174.8310  147.2290 C   0  0  0  0  0  3  0  0  0  0  0  0
  189.6820  175.1690  145.8760 C   0  0  0  0  0  3  0  0  0  0  0  0
  191.7340  176.4130  146.1320 C   0  0  0  0  0  3  0  0  0  0  0  0
  1  4  1  6  0  0  0
  1 39  1  0  0  0  0
  3  4  2  0  0  0  0
  3  2  1  0  0  0  0
  7  6  2  6  0  0  0
  7  5  1  0  0  0  0
  7  3  1  0  0  0  0
  8  7  1  0  0  0  0
  9 10  1  0  0  0  0
  9  8  1  0  0  0  0
 11 10  1  1  0  0  0
 11 13  1  0  0  0  0
 11 12  1  0  0  0  0
 12 14  1  0  0  0  0
 13 16  1  0  0  0  0
 14 17  1  0  0  0  0
 16 14  1  0  0  0  0
 17 15  2  0  0  0  0
 17 18  1  0  0  0  0
 18 21  1  1  0  0  0
 18 20  1  0  0  0  0
 19 20  1  0  0  0  0
 23 21  1  0  0  0  0
 23 22  1  0  0  0  0
 24  1  1  0  0  0  0
 24 25  1  0  0  0  0
 26 25  1  6  0  0  0
 26 33  1  0  0  0  0
 27 30  1  0  0  0  0
 28 31  1  0  0  0  0
 29 32  1  0  0  0  0
 30 31  1  0  0  0  0
 31 26  1  1  0  0  0
 32 27  2  0  0  0  0
 32 28  1  0  0  0  0
 33 36  1  0  0  0  0
 33 35  2  0  0  0  0
 35 38  1  0  0  0  0
 36 37  2  0  0  0  0
 37 34  1  0  0  0  0
 38 34  1  0  0  0  0
 39 42  1  0  0  0  0
 41 40  1  0  0  0  0
 42 44  2  0  0  0  0
 42 45  1  0  0  0  0
 43 40  2  0  0  0  0
 44 43  1  0  0  0  0
 45 41  2  0  0  0  0
M  END
>  <MODEL>
8

>  <REMARK>
 VINA RESULT:      -6.0      2.023      2.913
  Name = 
  17 active torsions:
  status: ('A' for Active; 'I' for Inactive)
    1  A    between atoms: C_1  and  C_27
    2  A    between atoms: C_1  and  O_32
    3  A    between atoms: C_1  and  C_35
    4  A    between atoms: C_5  and  C_29
    5  A    between atoms: O_7  and  C_16
    6  A    between atoms: O_7  and  C_31
    7  A    between atoms: C_11  and  C_41
    8  A    between atoms: O_12  and  C_18
    9  A    between atoms: O_12  and  C_41
   10  A    between atoms: O_13  and  C_24
   11  A    between atoms: O_13  and  P_26
   12  A    between atoms: C_16  and  C_18
   13  A    between atoms: C_16  and  C_28
   14  A    between atoms: C_21  and  P_26
   15  A    between atoms: C_24  and  C_29
   16  A    between atoms: C_27  and  C_40
   17  A    between atoms: C_37  and  C_41
                            x       y       z     vdW  Elec       q    Type
                         _______ _______ _______ _____ _____    ______ ____

>  <TORSDO>
F 17

$$$$
=
 OpenBabel11062420423D

 45 48  0  0  1  0  0  0  0  0999 V2000
  193.9310  170.9250  144.6000 C   0  0  2  0  0  3  0  0  0  0  0  0
  195.7180  172.5920  143.0610 F   0  0  0  0  0  0  0  0  0  0  0  0
  195.3170  172.9990  144.2950 C   0  0  0  0  0  0  0  0  0  0  0  0
  194.4800  172.2600  145.0330 C   0  0  0  0  0  3  0  0  0  0  0  0
  197.2690  174.5380  145.3510 O   0  0  0  0  0  1  0  0  0  0  0  0
  195.6970  175.7250  143.6290 O   0  0  0  0  0  0  0  0  0  0  0  0
  195.8320  174.6040  144.8940 P   0  0  1  0  0  0  0  0  0  0  0  0
  194.8380  175.0150  146.2080 O   0  0  0  0  0  0  0  0  0  0  0  0
  194.0910  176.1250  145.8070 C   0  0  0  0  0  2  0  0  0  0  0  0
  192.6130  175.8720  146.0650 C   0  0  0  0  0  2  0  0  0  0  0  0
  191.9660  175.0990  144.9200 C   0  0  2  0  0  3  0  0  0  0  0  0
  191.3270  176.0900  143.9640 C   0  0  0  0  0  2  0  0  0  0  0  0
  190.8240  174.2250  145.4370 C   0  0  0  0  0  2  0  0  0  0  0  0
  189.9040  176.0200  144.2180 N   0  0  0  0  0  0  0  0  0  0  0  0
  189.3380  177.7620  142.7720 O   0  0  0  0  0  0  0  0  0  0  0  0
  189.5390  174.9740  145.1480 C   0  0  0  0  0  2  0  0  0  0  0  0
  188.9510  176.8940  143.6010 C   0  0  0  0  0  0  0  0  0  0  0  0
  187.4970  176.7880  143.9420 C   0  0  2  0  0  3  0  0  0  0  0  0
  185.4870  177.1910  143.0970 C   0  0  0  0  0  1  0  0  0  0  0  0
  186.7390  176.6620  142.7740 O   0  0  0  0  0  0  0  0  0  0  0  0
  187.0590  178.0190  144.7210 C   0  0  0  0  0  2  0  0  0  0  0  0
  185.8800  176.8530  146.5570 C   0  0  0  0  0  1  0  0  0  0  0  0
  187.0650  177.7280  146.2100 C   0  0  0  0  0  2  0  0  0  0  0  0
  192.4620  171.0040  144.2050 C   0  0  0  0  0  2  0  0  0  0  0  0
  192.2980  170.7840  142.8260 O   0  0  0  0  0  0  0  0  0  0  0  0
  191.8370  171.9750  142.2180 C   0  0  2  0  0  3  0  0  0  0  0  0
  188.5860  173.1160  142.2580 N   0  0  0  0  0  0  0  0  0  0  0  0
  190.2050  172.9650  140.7280 O   0  0  0  0  0  0  0  0  0  0  0  0
  188.5680  174.8760  140.5760 C   0  0  0  0  0  1  0  0  0  0  0  0
  189.3500  171.9280  142.6130 C   0  0  0  0  0  2  0  0  0  0  0  0
  190.4570  171.8430  141.5560 C   0  0  2  0  0  3  0  0  0  0  0  0
  189.1070  173.6440  141.2080 C   0  0  0  0  0  0  0  0  0  0  0  0
  192.8770  172.6510  141.3640 C   0  0  0  0  0  0  0  0  0  0  0  0
  194.3040  174.0550  139.3710 C   0  0  0  0  0  2  0  0  0  0  0  0
  193.5260  171.9450  140.4350 C   0  0  0  0  0  3  0  0  0  0  0  0
  193.1730  174.0920  141.5080 C   0  0  0  0  0  3  0  0  0  0  0  0
  193.8710  174.7150  140.6050 N   0  0  0  0  0  0  0  0  0  0  0  0
  194.6210  172.5790  139.6250 C   0  0  0  0  0  2  0  0  0  0  0  0
  194.1410  169.9240  145.5940 O   0  0  0  0  0  0  0  0  0  0  0  0
  197.9410  168.5390  146.5960 N   0  0  0  0  0  0  0  0  0  0  0  0
  197.6780  168.9220  145.3190 C   0  0  0  0  0  3  0  0  0  0  0  0
  195.4090  169.4520  145.9490 C   0  0  0  0  0  0  0  0  0  0  0  0
  196.9880  168.5940  147.5650 C   0  0  0  0  0  3  0  0  0  0  0  0
  195.7050  169.0510  147.2590 C   0  0  0  0  0  3  0  0  0  0  0  0
  196.4060  169.3860  144.9730 C   0  0  0  0  0  3  0  0  0  0  0  0
  1 24  1  1  0  0  0
  1  4  1  0  0  0  0
  1 39  1  0  0  0  0
  2  3  1  0  0  0  0
  3  7  1  0  0  0  0
  3  4  2  0  0  0  0
  7  6  2  6  0  0  0
  7  5  1  0  0  0  0
  7  8  1  0  0  0  0
  9 10  1  0  0  0  0
  9  8  1  0  0  0  0
 11 13  1  0  0  0  0
 11 10  1  1  0  0  0
 12 14  1  0  0  0  0
 12 11  1  0  0  0  0
 14 16  1  0  0  0  0
 15 17  2  0  0  0  0
 16 13  1  0  0  0  0
 17 18  1  0  0  0  0
 17 14  1  0  0  0  0
 18 21  1  6  0  0  0
 20 19  1  0  0  0  0
 20 18  1  0  0  0  0
 21 23  1  0  0  0  0
 23 22  1  0  0  0  0
 25 24  1  0  0  0  0
 26 25  1  6  0  0  0
 27 30  1  0  0  0  0
 28 32  1  0  0  0  0
 28 31  1  0  0  0  0
 29 32  1  0  0  0  0
 31 26  1  1  0  0  0
 31 30  1  0  0  0  0
 32 27  2  0  0  0  0
 33 36  1  0  0  0  0
 33 26  1  0  0  0  0
 34 38  1  0  0  0  0
 34 37  1  0  0  0  0
 35 33  2  0  0  0  0
 37 36  2  0  0  0  0
 38 35  1  0  0  0  0
 39 42  1  0  0  0  0
 40 43  1  0  0  0  0
 41 40  2  0  0  0  0
 42 44  1  0  0  0  0
 44 43  2  0  0  0  0
 45 41  1  0  0  0  0
 45 42  2  0  0  0  0
M  END
>  <MODEL>
9

>  <REMARK>
 VINA RESULT:      -5.7      3.210      8.592
  Name = 
  17 active torsions:
  status: ('A' for Active; 'I' for Inactive)
    1  A    between atoms: C_1  and  C_27
    2  A    between atoms: C_1  and  O_32
    3  A    between atoms: C_1  and  C_35
    4  A    between atoms: C_5  and  C_29
    5  A    between atoms: O_7  and  C_16
    6  A    between atoms: O_7  and  C_31
    7  A    between atoms: C_11  and  C_41
    8  A    between atoms: O_12  and  C_18
    9  A    between atoms: O_12  and  C_41
   10  A    between atoms: O_13  and  C_24
   11  A    between atoms: O_13  and  P_26
   12  A    between atoms: C_16  and  C_18
   13  A    between atoms: C_16  and  C_28
   14  A    between atoms: C_21  and  P_26
   15  A    between atoms: C_24  and  C_29
   16  A    between atoms: C_27  and  C_40
   17  A    between atoms: C_37  and  C_41
                            x       y       z     vdW  Elec       q    Type
                         _______ _______ _______ _____ _____    ______ ____

>  <TORSDO>
F 17

$$$$
