=
 OpenBabel11062422333D

 43 45  0  0  1  0  0  0  0  0999 V2000
  192.3160  174.5360  141.3840 C   0  0  0  0  0  2  0  0  0  0  0  0
  189.7620  172.3990  144.9360 C   0  0  0  0  0  2  0  0  0  0  0  0
  191.1280  175.1840  146.2480 C   0  0  0  0  0  2  0  0  0  0  0  0
  192.1700  176.0920  144.1470 C   0  0  0  0  0  2  0  0  0  0  0  0
  190.0550  173.2240  143.6940 C   0  0  0  0  0  2  0  0  0  0  0  0
  192.2940  175.0720  145.2770 C   0  0  0  0  0  2  0  0  0  0  0  0
  190.0650  171.8930  140.3050 F   0  0  0  0  0  0  0  0  0  0  0  0
  190.4360  172.7640  141.3140 C   0  0  1  0  0  3  0  0  0  0  0  0
  193.3280  175.9920  143.1500 C   0  0  2  0  0  3  0  0  0  0  0  0
  190.1390  172.1440  142.6700 C   0  0  0  0  0  2  0  0  0  0  0  0
  189.7850  173.3300  145.0170 C   0  0  0  0  0  0  0  0  0  0  0  0
  192.7100  172.2590  140.9110 O   0  0  0  0  0  0  0  0  0  0  0  0
  193.3560  174.6210  142.4890 C   0  0  0  0  0  2  0  0  0  0  0  0
  191.8860  173.1180  141.1850 C   0  0  0  0  0  0  0  0  0  0  0  0
  189.7920  174.8270  145.5930 C   0  0  1  0  0  3  0  0  0  0  0  0
  188.8710  174.6300  147.8150 O   0  0  0  0  0  1  0  0  0  0  0  0
  188.6240  175.1270  146.5350 C   0  0  1  0  0  3  0  0  0  0  0  0
  188.1770  176.5680  146.5340 C   0  0  0  0  0  0  0  0  0  0  0  0
  187.0170  177.0370  145.8110 N   0  0  0  0  0  0  0  0  0  0  0  0
  188.8340  177.3790  147.2410 O   0  0  0  0  0  0  0  0  0  0  0  0
  186.4420  178.3350  146.1690 C   0  0  0  0  0  3  0  0  0  0  0  0
  185.8100  178.2520  147.5480 C   0  0  0  0  0  2  0  0  0  0  0  0
  184.9320  178.2310  146.3200 C   0  0  0  0  0  2  0  0  0  0  0  0
  186.6830  176.4830  144.5030 C   0  0  0  0  0  2  0  0  0  0  0  0
  187.5710  177.0850  143.4270 C   0  0  0  0  0  2  0  0  0  0  0  0
  187.7810  176.1290  141.1140 C   0  0  0  0  0  0  0  0  0  0  0  0
  187.1500  177.2750  140.5500 N   0  0  0  0  0  1  0  0  0  0  0  0
  188.1290  175.1800  140.3680 O   0  0  0  0  0  0  0  0  0  0  0  0
  188.0170  176.0450  142.5190 N   0  0  0  0  0  2  0  0  0  0  0  0
  194.6810  176.2730  143.8010 C   0  0  0  0  0  2  0  0  0  0  0  0
  197.4940  173.9120  144.9930 C   0  0  0  0  0  2  0  0  0  0  0  0
  196.7430  175.3990  142.6050 C   0  0  1  0  0  3  0  0  0  0  0  0
  196.7260  171.5960  144.7680 N   0  0  0  0  0  1  0  0  0  0  0  0
  196.1540  174.6570  145.0220 C   0  0  0  0  0  2  0  0  0  0  0  0
  195.6400  175.0980  143.6450 C   0  0  1  0  0  3  0  0  0  0  0  0
  197.0110  172.8480  142.6920 C   0  0  0  0  0  2  0  0  0  0  0  0
  197.7220  176.4710  143.0690 C   0  0  0  0  0  1  0  0  0  0  0  0
  197.5030  172.6460  144.1280 C   0  0  1  0  0  3  0  0  0  0  0  0
  197.4940  174.1630  142.0570 C   0  0  1  0  0  3  0  0  0  0  0  0
  197.7690  175.4110  139.8920 C   0  0  0  0  0  1  0  0  0  0  0  0
  197.3610  174.0900  140.5290 C   0  0  2  0  0  3  0  0  0  0  0  0
  195.9330  173.7630  140.1090 C   0  0  0  0  0  2  0  0  0  0  0  0
  195.3470  174.8970  139.2840 C   0  0  0  0  0  1  0  0  0  0  0  0
  1 13  1  0  0  0  0
  2 11  2  0  0  0  0
  4  6  1  0  0  0  0
  5 11  1  0  0  0  0
  6  3  1  0  0  0  0
  8  7  1  6  0  0  0
  8 10  1  0  0  0  0
  9 30  1  1  0  0  0
  9  4  1  0  0  0  0
 10  5  1  0  0  0  0
 11 15  1  0  0  0  0
 12 14  2  0  0  0  0
 13  9  1  0  0  0  0
 14  8  1  0  0  0  0
 14  1  1  0  0  0  0
 15  3  1  0  0  0  0
 15 17  1  1  0  0  0
 17 16  1  1  0  0  0
 18 17  1  0  0  0  0
 18 20  2  0  0  0  0
 19 21  1  0  0  0  0
 19 18  1  0  0  0  0
 21 23  1  0  0  0  0
 21 22  1  0  0  0  0
 23 22  1  0  0  0  0
 24 19  1  0  0  0  0
 25 24  1  0  0  0  0
 26 29  1  0  0  0  0
 27 26  1  0  0  0  0
 28 26  2  0  0  0  0
 29 25  1  0  0  0  0
 31 34  1  0  0  0  0
 32 37  1  1  0  0  0
 32 35  1  0  0  0  0
 35 30  1  1  0  0  0
 35 34  1  0  0  0  0
 36 38  1  0  0  0  0
 38 33  1  1  0  0  0
 38 31  1  0  0  0  0
 39 41  1  6  0  0  0
 39 32  1  0  0  0  0
 39 36  1  0  0  0  0
 41 40  1  6  0  0  0
 42 41  1  0  0  0  0
 43 42  1  0  0  0  0
M  END
>  <MODEL>
1

>  <REMARK>
 VINA RESULT:      -7.3      0.000      0.000
  Name = 
  10 active torsions:
  status: ('A' for Active; 'I' for Inactive)
    1  A    between atoms: C_3  and  C_17
    2  A    between atoms: C_3  and  C_28
    3  A    between atoms: C_11  and  C_27
    4  A    between atoms: C_13  and  C_34
    5  A    between atoms: C_13  and  C_43
    6  A    between atoms: C_15  and  N_24
    7  A    between atoms: N_22  and  C_38
    8  A    between atoms: N_24  and  C_33
    9  A    between atoms: C_27  and  C_42
   10  A    between atoms: C_33  and  C_38
                            x       y       z     vdW  Elec       q    Type
                         _______ _______ _______ _____ _____    ______ ____

>  <TORSDO>
F 10

$$$$
=
 OpenBabel11062422333D

 43 45  0  0  1  0  0  0  0  0999 V2000
  191.6130  173.4120  139.2050 C   0  0  0  0  0  2  0  0  0  0  0  0
  187.6910  174.2110  141.9780 C   0  0  0  0  0  2  0  0  0  0  0  0
  190.3860  174.9850  143.8430 C   0  0  0  0  0  2  0  0  0  0  0  0
  192.1470  174.6480  142.0800 C   0  0  0  0  0  2  0  0  0  0  0  0
  188.7550  174.4440  140.9170 C   0  0  0  0  0  2  0  0  0  0  0  0
  191.2140  173.9640  143.0760 C   0  0  0  0  0  2  0  0  0  0  0  0
  188.4370  173.4240  137.4370 F   0  0  0  0  0  0  0  0  0  0  0  0
  189.1230  173.7390  138.5960 C   0  0  1  0  0  3  0  0  0  0  0  0
  192.9840  173.6400  141.2870 C   0  0  2  0  0  3  0  0  0  0  0  0
  188.1910  173.6440  139.7930 C   0  0  0  0  0  2  0  0  0  0  0  0
  188.3990  174.7860  142.1790 C   0  0  0  0  0  0  0  0  0  0  0  0
  190.2120  171.6420  138.5200 O   0  0  0  0  0  0  0  0  0  0  0  0
  192.0890  172.7170  140.4710 C   0  0  0  0  0  2  0  0  0  0  0  0
  190.3080  172.8360  138.7580 C   0  0  0  0  0  0  0  0  0  0  0  0
  189.4300  175.7580  142.9340 C   0  0  1  0  0  3  0  0  0  0  0  0
  189.6930  177.7210  144.3130 O   0  0  0  0  0  1  0  0  0  0  0  0
  188.7510  176.8970  143.6970 C   0  0  1  0  0  3  0  0  0  0  0  0
  187.7300  177.6620  142.8910 C   0  0  0  0  0  0  0  0  0  0  0  0
  186.3340  177.7480  143.2560 N   0  0  0  0  0  0  0  0  0  0  0  0
  188.1430  178.2900  141.8780 O   0  0  0  0  0  0  0  0  0  0  0  0
  185.5130  178.8020  142.6580 C   0  0  0  0  0  3  0  0  0  0  0  0
  184.0460  178.4140  142.7340 C   0  0  0  0  0  2  0  0  0  0  0  0
  184.7880  178.2850  141.4250 C   0  0  0  0  0  2  0  0  0  0  0  0
  185.6480  176.6000  143.8400 C   0  0  0  0  0  2  0  0  0  0  0  0
  185.9330  176.5110  145.3300 C   0  0  0  0  0  2  0  0  0  0  0  0
  186.2740  178.3890  146.9620 C   0  0  0  0  0  0  0  0  0  0  0  0
  187.5840  177.9220  147.2720 N   0  0  0  0  0  1  0  0  0  0  0  0
  185.8160  179.3980  147.5550 O   0  0  0  0  0  0  0  0  0  0  0  0
  185.4740  177.7190  145.9900 N   0  0  0  0  0  2  0  0  0  0  0  0
  193.8940  172.8050  142.1860 C   0  0  0  0  0  2  0  0  0  0  0  0
  197.5160  173.7130  143.1700 C   0  0  0  0  0  2  0  0  0  0  0  0
  194.8890  173.5180  144.4100 C   0  0  1  0  0  3  0  0  0  0  0  0
  197.9390  176.0460  142.5520 N   0  0  0  0  0  1  0  0  0  0  0  0
  196.3310  173.3840  142.2550 C   0  0  0  0  0  2  0  0  0  0  0  0
  194.9530  173.6610  142.8730 C   0  0  1  0  0  3  0  0  0  0  0  0
  196.2770  175.6730  144.3020 C   0  0  0  0  0  2  0  0  0  0  0  0
  195.3170  172.1390  144.8980 C   0  0  0  0  0  1  0  0  0  0  0  0
  197.5690  175.1680  143.6500 C   0  0  1  0  0  3  0  0  0  0  0  0
  195.6010  174.6340  145.2110 C   0  0  1  0  0  3  0  0  0  0  0  0
  193.2620  174.6220  146.1330 C   0  0  0  0  0  1  0  0  0  0  0  0
  194.6110  175.3270  146.1580 C   0  0  2  0  0  3  0  0  0  0  0  0
  194.4070  176.7890  145.7780 C   0  0  0  0  0  2  0  0  0  0  0  0
  193.0890  176.9700  145.0450 C   0  0  0  0  0  1  0  0  0  0  0  0
  1 13  1  0  0  0  0
  2 11  2  0  0  0  0
  4  6  1  0  0  0  0
  5 11  1  0  0  0  0
  6  3  1  0  0  0  0
  8  7  1  6  0  0  0
  8 14  1  0  0  0  0
  8 10  1  0  0  0  0
  9  4  1  0  0  0  0
  9 30  1  1  0  0  0
 10  5  1  0  0  0  0
 11 15  1  0  0  0  0
 12 14  2  0  0  0  0
 13  9  1  0  0  0  0
 14  1  1  0  0  0  0
 15 17  1  1  0  0  0
 15  3  1  0  0  0  0
 17 16  1  6  0  0  0
 18 19  1  0  0  0  0
 18 17  1  0  0  0  0
 19 24  1  0  0  0  0
 20 18  2  0  0  0  0
 21 22  1  0  0  0  0
 21 19  1  0  0  0  0
 23 21  1  0  0  0  0
 23 22  1  0  0  0  0
 24 25  1  0  0  0  0
 25 29  1  0  0  0  0
 26 27  1  0  0  0  0
 26 28  2  0  0  0  0
 29 26  1  0  0  0  0
 31 38  1  0  0  0  0
 32 37  1  6  0  0  0
 32 39  1  0  0  0  0
 34 35  1  0  0  0  0
 34 31  1  0  0  0  0
 35 30  1  6  0  0  0
 35 32  1  0  0  0  0
 36 39  1  0  0  0  0
 38 33  1  6  0  0  0
 38 36  1  0  0  0  0
 39 41  1  6  0  0  0
 41 40  1  6  0  0  0
 42 41  1  0  0  0  0
 43 42  1  0  0  0  0
M  END
>  <MODEL>
2

>  <REMARK>
 VINA RESULT:      -7.2      2.312      4.328
  Name = 
  10 active torsions:
  status: ('A' for Active; 'I' for Inactive)
    1  A    between atoms: C_3  and  C_17
    2  A    between atoms: C_3  and  C_28
    3  A    between atoms: C_11  and  C_27
    4  A    between atoms: C_13  and  C_34
    5  A    between atoms: C_13  and  C_43
    6  A    between atoms: C_15  and  N_24
    7  A    between atoms: N_22  and  C_38
    8  A    between atoms: N_24  and  C_33
    9  A    between atoms: C_27  and  C_42
   10  A    between atoms: C_33  and  C_38
                            x       y       z     vdW  Elec       q    Type
                         _______ _______ _______ _____ _____    ______ ____

>  <TORSDO>
F 10

$$$$
=
 OpenBabel11062422333D

 43 45  0  0  1  0  0  0  0  0999 V2000
  193.4610  173.8480  145.7990 C   0  0  0  0  0  2  0  0  0  0  0  0
  191.1280  177.4090  143.4340 C   0  0  0  0  0  2  0  0  0  0  0  0
  189.3600  174.5850  142.9480 C   0  0  0  0  0  2  0  0  0  0  0  0
  190.7100  173.0610  144.4230 C   0  0  0  0  0  2  0  0  0  0  0  0
  191.5990  176.5380  144.5870 C   0  0  0  0  0  2  0  0  0  0  0  0
  190.6340  173.7630  143.0690 C   0  0  0  0  0  2  0  0  0  0  0  0
  194.5540  177.2220  146.6010 F   0  0  0  0  0  0  0  0  0  0  0  0
  193.5870  176.4210  146.0200 C   0  0  1  0  0  3  0  0  0  0  0  0
  191.9910  172.2340  144.5750 C   0  0  2  0  0  3  0  0  0  0  0  0
  192.9240  177.1590  144.8690 C   0  0  0  0  0  2  0  0  0  0  0  0
  190.5500  176.7490  143.7560 C   0  0  0  0  0  0  0  0  0  0  0  0
  195.2800  175.1220  145.0000 O   0  0  0  0  0  0  0  0  0  0  0  0
  193.2230  173.1240  144.4830 C   0  0  0  0  0  2  0  0  0  0  0  0
  194.1930  175.1300  145.5590 C   0  0  0  0  0  0  0  0  0  0  0  0
  189.3170  175.7400  143.9490 C   0  0  1  0  0  3  0  0  0  0  0  0
  187.0860  175.8070  143.0300 O   0  0  0  0  0  1  0  0  0  0  0  0
  187.9520  176.4310  143.9290 C   0  0  1  0  0  3  0  0  0  0  0  0
  187.3420  176.6400  145.2930 C   0  0  0  0  0  0  0  0  0  0  0  0
  186.2300  177.5310  145.5350 N   0  0  0  0  0  0  0  0  0  0  0  0
  187.8090  175.9610  146.2470 O   0  0  0  0  0  0  0  0  0  0  0  0
  185.4670  177.3830  146.7760 C   0  0  0  0  0  3  0  0  0  0  0  0
  184.4610  178.5160  146.8970 C   0  0  0  0  0  2  0  0  0  0  0  0
  185.7310  178.5520  147.7130 C   0  0  0  0  0  2  0  0  0  0  0  0
  186.1230  178.7980  144.8180 C   0  0  0  0  0  2  0  0  0  0  0  0
  185.0400  178.7160  143.7550 C   0  0  0  0  0  2  0  0  0  0  0  0
  184.8970  178.3400  141.2760 C   0  0  0  0  0  0  0  0  0  0  0  0
  183.5030  178.0610  141.3680 N   0  0  0  0  0  1  0  0  0  0  0  0
  185.4730  178.2720  140.1620 O   0  0  0  0  0  0  0  0  0  0  0  0
  185.6470  178.6910  142.4370 N   0  0  0  0  0  2  0  0  0  0  0  0
  192.0890  171.1190  143.5360 C   0  0  0  0  0  2  0  0  0  0  0  0
  194.8480  169.0090  141.8500 C   0  0  0  0  0  2  0  0  0  0  0  0
  194.0190  169.8000  144.5270 C   0  0  1  0  0  3  0  0  0  0  0  0
  196.6310  170.5080  141.0890 N   0  0  0  0  0  1  0  0  0  0  0  0
  193.6750  169.9900  141.9600 C   0  0  0  0  0  2  0  0  0  0  0  0
  193.5270  170.6540  143.3360 C   0  0  1  0  0  3  0  0  0  0  0  0
  196.3070  170.3500  143.5040 C   0  0  0  0  0  2  0  0  0  0  0  0
  193.3210  168.4480  144.6170 C   0  0  0  0  0  1  0  0  0  0  0  0
  196.2210  169.6160  142.1620 C   0  0  1  0  0  3  0  0  0  0  0  0
  195.5530  169.6410  144.6400 C   0  0  1  0  0  3  0  0  0  0  0  0
  196.4700  171.6150  145.8990 C   0  0  0  0  0  1  0  0  0  0  0  0
  196.0450  170.1560  146.0000 C   0  0  2  0  0  3  0  0  0  0  0  0
  197.2240  169.3370  146.5140 C   0  0  0  0  0  2  0  0  0  0  0  0
  196.8350  168.5710  147.7670 C   0  0  0  0  0  1  0  0  0  0  0  0
  2 11  2  0  0  0  0
  3  6  1  0  0  0  0
  3 15  1  0  0  0  0
  4  9  1  0  0  0  0
  5 10  1  0  0  0  0
  6  4  1  0  0  0  0
  8  7  1  6  0  0  0
  9 30  1  6  0  0  0
 10  8  1  0  0  0  0
 11 15  1  0  0  0  0
 11  5  1  0  0  0  0
 12 14  2  0  0  0  0
 13  9  1  0  0  0  0
 13  1  1  0  0  0  0
 14  1  1  0  0  0  0
 14  8  1  0  0  0  0
 15 17  1  6  0  0  0
 17 16  1  6  0  0  0
 17 18  1  0  0  0  0
 18 19  1  0  0  0  0
 18 20  2  0  0  0  0
 19 21  1  0  0  0  0
 21 22  1  0  0  0  0
 21 23  1  0  0  0  0
 22 23  1  0  0  0  0
 24 19  1  0  0  0  0
 25 24  1  0  0  0  0
 26 27  1  0  0  0  0
 26 29  1  0  0  0  0
 28 26  2  0  0  0  0
 29 25  1  0  0  0  0
 31 34  1  0  0  0  0
 31 38  1  0  0  0  0
 32 37  1  6  0  0  0
 32 39  1  0  0  0  0
 34 35  1  0  0  0  0
 35 30  1  1  0  0  0
 35 32  1  0  0  0  0
 36 39  1  0  0  0  0
 38 33  1  6  0  0  0
 38 36  1  0  0  0  0
 39 41  1  1  0  0  0
 41 40  1  6  0  0  0
 41 42  1  0  0  0  0
 42 43  1  0  0  0  0
M  END
>  <MODEL>
3

>  <REMARK>
 VINA RESULT:      -7.1      3.231      5.067
  Name = 
  10 active torsions:
  status: ('A' for Active; 'I' for Inactive)
    1  A    between atoms: C_3  and  C_17
    2  A    between atoms: C_3  and  C_28
    3  A    between atoms: C_11  and  C_27
    4  A    between atoms: C_13  and  C_34
    5  A    between atoms: C_13  and  C_43
    6  A    between atoms: C_15  and  N_24
    7  A    between atoms: N_22  and  C_38
    8  A    between atoms: N_24  and  C_33
    9  A    between atoms: C_27  and  C_42
   10  A    between atoms: C_33  and  C_38
                            x       y       z     vdW  Elec       q    Type
                         _______ _______ _______ _____ _____    ______ ____

>  <TORSDO>
F 10

$$$$
=
 OpenBabel11062422333D

 43 45  0  0  1  0  0  0  0  0999 V2000
  187.8040  176.5410  147.2030 C   0  0  0  0  0  2  0  0  0  0  0  0
  186.3870  177.3480  142.6140 C   0  0  0  0  0  2  0  0  0  0  0  0
  189.4010  175.8540  142.4630 C   0  0  0  0  0  2  0  0  0  0  0  0
  189.7110  175.4300  144.9220 C   0  0  0  0  0  2  0  0  0  0  0  0
  186.4800  176.6830  143.9780 C   0  0  0  0  0  2  0  0  0  0  0  0
  189.7760  176.4680  143.8040 C   0  0  0  0  0  2  0  0  0  0  0  0
  184.3130  177.4710  146.7950 F   0  0  0  0  0  0  0  0  0  0  0  0
  185.4770  177.0340  146.1900 C   0  0  1  0  0  3  0  0  0  0  0  0
  190.0740  176.0260  146.2850 C   0  0  2  0  0  3  0  0  0  0  0  0
  185.5360  177.5350  144.7560 C   0  0  0  0  0  2  0  0  0  0  0  0
  186.9180  176.5840  142.7000 C   0  0  0  0  0  0  0  0  0  0  0  0
  186.7150  178.6220  147.4290 O   0  0  0  0  0  0  0  0  0  0  0  0
  189.0990  177.1310  146.6690 C   0  0  0  0  0  2  0  0  0  0  0  0
  186.6700  177.4890  146.9730 C   0  0  0  0  0  0  0  0  0  0  0  0
  187.9460  175.3830  142.4270 C   0  0  1  0  0  3  0  0  0  0  0  0
  188.0270  175.3430  140.0150 O   0  0  0  0  0  1  0  0  0  0  0  0
  187.6540  174.6070  141.1400 C   0  0  1  0  0  3  0  0  0  0  0  0
  188.1870  173.1960  141.1300 C   0  0  0  0  0  0  0  0  0  0  0  0
  189.5210  172.8560  140.6900 N   0  0  0  0  0  0  0  0  0  0  0  0
  187.4340  172.2880  141.5760 O   0  0  0  0  0  0  0  0  0  0  0  0
  190.0790  171.5570  141.0710 C   0  0  0  0  0  3  0  0  0  0  0  0
  190.2340  171.4900  142.5810 C   0  0  0  0  0  2  0  0  0  0  0  0
  191.4470  171.7280  141.7140 C   0  0  0  0  0  2  0  0  0  0  0  0
  190.1310  173.5540  139.5620 C   0  0  0  0  0  2  0  0  0  0  0  0
  190.0000  172.7280  138.2930 C   0  0  0  0  0  2  0  0  0  0  0  0
  189.6720  174.3220  136.3800 C   0  0  0  0  0  0  0  0  0  0  0  0
  191.0770  174.5330  136.2740 N   0  0  0  0  0  1  0  0  0  0  0  0
  188.8900  174.9440  135.6180 O   0  0  0  0  0  0  0  0  0  0  0  0
  189.1420  173.4170  137.3470 N   0  0  0  0  0  2  0  0  0  0  0  0
  191.5010  176.5700  146.3200 C   0  0  0  0  0  2  0  0  0  0  0  0
  194.5090  174.1550  146.1470 C   0  0  0  0  0  2  0  0  0  0  0  0
  193.4470  176.4440  144.6940 C   0  0  1  0  0  3  0  0  0  0  0  0
  193.8020  172.0950  145.0240 N   0  0  0  0  0  1  0  0  0  0  0  0
  193.1560  174.7110  146.6060 C   0  0  0  0  0  2  0  0  0  0  0  0
  192.4770  175.6480  145.5970 C   0  0  1  0  0  3  0  0  0  0  0  0
  193.8100  174.1220  143.6630 C   0  0  0  0  0  2  0  0  0  0  0  0
  194.4340  177.2950  145.4840 C   0  0  0  0  0  1  0  0  0  0  0  0
  194.4660  173.3740  144.8280 C   0  0  1  0  0  3  0  0  0  0  0  0
  194.1750  175.6150  143.6100 C   0  0  1  0  0  3  0  0  0  0  0  0
  192.9400  175.2540  141.4490 C   0  0  0  0  0  1  0  0  0  0  0  0
  193.8760  176.1800  142.2140 C   0  0  2  0  0  3  0  0  0  0  0  0
  195.1530  176.3650  141.4010 C   0  0  0  0  0  2  0  0  0  0  0  0
  196.3440  176.5730  142.3210 C   0  0  0  0  0  1  0  0  0  0  0  0
  2 11  2  0  0  0  0
  3  6  1  0  0  0  0
  4  9  1  0  0  0  0
  5 10  1  0  0  0  0
  6  4  1  0  0  0  0
  8  7  1  1  0  0  0
  8 14  1  0  0  0  0
  9 30  1  6  0  0  0
  9 13  1  0  0  0  0
 10  8  1  0  0  0  0
 11  5  1  0  0  0  0
 13  1  1  0  0  0  0
 14  1  1  0  0  0  0
 14 12  2  0  0  0  0
 15 17  1  6  0  0  0
 15  3  1  0  0  0  0
 15 11  1  0  0  0  0
 17 16  1  6  0  0  0
 18 17  1  0  0  0  0
 18 20  2  0  0  0  0
 19 21  1  0  0  0  0
 19 18  1  0  0  0  0
 21 23  1  0  0  0  0
 21 22  1  0  0  0  0
 23 22  1  0  0  0  0
 24 19  1  0  0  0  0
 25 24  1  0  0  0  0
 26 29  1  0  0  0  0
 27 26  1  0  0  0  0
 28 26  2  0  0  0  0
 29 25  1  0  0  0  0
 31 34  1  0  0  0  0
 32 37  1  1  0  0  0
 32 35  1  0  0  0  0
 35 30  1  1  0  0  0
 35 34  1  0  0  0  0
 36 38  1  0  0  0  0
 38 33  1  1  0  0  0
 38 31  1  0  0  0  0
 39 41  1  6  0  0  0
 39 36  1  0  0  0  0
 39 32  1  0  0  0  0
 41 40  1  6  0  0  0
 42 41  1  0  0  0  0
 42 43  1  0  0  0  0
M  END
>  <MODEL>
4

>  <REMARK>
 VINA RESULT:      -7.0      3.001      6.167
  Name = 
  10 active torsions:
  status: ('A' for Active; 'I' for Inactive)
    1  A    between atoms: C_3  and  C_17
    2  A    between atoms: C_3  and  C_28
    3  A    between atoms: C_11  and  C_27
    4  A    between atoms: C_13  and  C_34
    5  A    between atoms: C_13  and  C_43
    6  A    between atoms: C_15  and  N_24
    7  A    between atoms: N_22  and  C_38
    8  A    between atoms: N_24  and  C_33
    9  A    between atoms: C_27  and  C_42
   10  A    between atoms: C_33  and  C_38
                            x       y       z     vdW  Elec       q    Type
                         _______ _______ _______ _____ _____    ______ ____

>  <TORSDO>
F 10

$$$$
=
 OpenBabel11062422333D

 43 45  0  0  1  0  0  0  0  0999 V2000
  191.9480  176.9150  144.8290 C   0  0  0  0  0  2  0  0  0  0  0  0
  193.6860  172.3830  144.4310 C   0  0  0  0  0  2  0  0  0  0  0  0
  190.3380  172.1810  144.1290 C   0  0  0  0  0  2  0  0  0  0  0  0
  189.8270  174.6420  144.1870 C   0  0  0  0  0  2  0  0  0  0  0  0
  193.3160  173.8050  144.0380 C   0  0  0  0  0  2  0  0  0  0  0  0
  190.1810  173.4080  145.0140 C   0  0  0  0  0  2  0  0  0  0  0  0
  195.5450  176.6660  144.3610 F   0  0  0  0  0  0  0  0  0  0  0  0
  194.3180  176.0290  144.2990 C   0  0  1  0  0  3  0  0  0  0  0  0
  189.6740  175.8950  145.0540 C   0  0  2  0  0  3  0  0  0  0  0  0
  194.4870  174.5460  144.5870 C   0  0  0  0  0  2  0  0  0  0  0  0
  192.9080  172.5170  143.9310 C   0  0  0  0  0  0  0  0  0  0  0  0
  193.7230  176.9780  146.3820 O   0  0  0  0  0  0  0  0  0  0  0  0
  190.9770  176.2190  145.7700 C   0  0  0  0  0  2  0  0  0  0  0  0
  193.3580  176.6620  145.2590 C   0  0  0  0  0  0  0  0  0  0  0  0
  191.5150  172.3100  143.1610 C   0  0  1  0  0  3  0  0  0  0  0  0
  190.2580  170.9000  141.6580 O   0  0  0  0  0  1  0  0  0  0  0  0
  191.5340  171.1490  142.1640 C   0  0  1  0  0  3  0  0  0  0  0  0
  192.5860  171.2700  141.0890 C   0  0  0  0  0  0  0  0  0  0  0  0
  192.8280  172.4880  140.3510 N   0  0  0  0  0  0  0  0  0  0  0  0
  193.3100  170.2610  140.8700 O   0  0  0  0  0  0  0  0  0  0  0  0
  194.0900  172.6320  139.6240 C   0  0  0  0  0  3  0  0  0  0  0  0
  195.2200  172.8920  140.6060 C   0  0  0  0  0  2  0  0  0  0  0  0
  194.6540  174.0350  139.7970 C   0  0  0  0  0  2  0  0  0  0  0  0
  191.7190  173.3570  139.9680 C   0  0  0  0  0  2  0  0  0  0  0  0
  191.0220  172.8140  138.7320 C   0  0  0  0  0  2  0  0  0  0  0  0
  188.6790  173.6960  138.5350 C   0  0  0  0  0  0  0  0  0  0  0  0
  188.1860  172.6660  139.3870 N   0  0  0  0  0  1  0  0  0  0  0  0
  187.8790  174.5280  138.0380 O   0  0  0  0  0  0  0  0  0  0  0  0
  190.0700  173.7910  138.2360 N   0  0  0  0  0  2  0  0  0  0  0  0
  188.5490  175.7580  146.0790 C   0  0  0  0  0  2  0  0  0  0  0  0
  185.1840  177.4840  146.8570 C   0  0  0  0  0  2  0  0  0  0  0  0
  186.8470  176.8580  144.5500 C   0  0  1  0  0  3  0  0  0  0  0  0
  185.6250  179.7890  147.5610 N   0  0  0  0  0  1  0  0  0  0  0  0
  186.5460  176.8350  147.1300 C   0  0  0  0  0  2  0  0  0  0  0  0
  187.5180  176.8730  145.9420 C   0  0  1  0  0  3  0  0  0  0  0  0
  186.1840  179.2370  145.2490 C   0  0  0  0  0  2  0  0  0  0  0  0
  185.9460  175.6480  144.3370 C   0  0  0  0  0  1  0  0  0  0  0  0
  185.2500  178.9550  146.4300 C   0  0  1  0  0  3  0  0  0  0  0  0
  186.1220  178.1650  144.1490 C   0  0  1  0  0  3  0  0  0  0  0  0
  185.7180  178.5400  141.6950 C   0  0  0  0  0  1  0  0  0  0  0  0
  186.7050  178.7190  142.8410 C   0  0  2  0  0  3  0  0  0  0  0  0
  188.0120  178.0240  142.4740 C   0  0  0  0  0  2  0  0  0  0  0  0
  187.8170  177.1270  141.2630 C   0  0  0  0  0  1  0  0  0  0  0  0
  1 14  1  0  0  0  0
  1 13  1  0  0  0  0
  3  6  1  0  0  0  0
  4  6  1  0  0  0  0
  4  9  1  0  0  0  0
  5 10  1  0  0  0  0
  8  7  1  1  0  0  0
  8 10  1  0  0  0  0
  8 14  1  0  0  0  0
  9 13  1  0  0  0  0
  9 30  1  1  0  0  0
 11  5  1  0  0  0  0
 11  2  2  0  0  0  0
 14 12  2  0  0  0  0
 15 17  1  1  0  0  0
 15 11  1  0  0  0  0
 15  3  1  0  0  0  0
 17 16  1  6  0  0  0
 18 17  1  0  0  0  0
 19 18  1  0  0  0  0
 20 18  2  0  0  0  0
 21 23  1  0  0  0  0
 21 19  1  0  0  0  0
 21 22  1  0  0  0  0
 23 22  1  0  0  0  0
 24 19  1  0  0  0  0
 25 24  1  0  0  0  0
 26 27  1  0  0  0  0
 28 26  2  0  0  0  0
 29 26  1  0  0  0  0
 29 25  1  0  0  0  0
 31 34  1  0  0  0  0
 32 37  1  1  0  0  0
 32 35  1  0  0  0  0
 35 30  1  6  0  0  0
 35 34  1  0  0  0  0
 36 38  1  0  0  0  0
 38 31  1  0  0  0  0
 38 33  1  1  0  0  0
 39 41  1  6  0  0  0
 39 32  1  0  0  0  0
 39 36  1  0  0  0  0
 41 40  1  6  0  0  0
 42 41  1  0  0  0  0
 43 42  1  0  0  0  0
M  END
>  <MODEL>
5

>  <REMARK>
 VINA RESULT:      -7.0      2.858      8.553
  Name = 
  10 active torsions:
  status: ('A' for Active; 'I' for Inactive)
    1  A    between atoms: C_3  and  C_17
    2  A    between atoms: C_3  and  C_28
    3  A    between atoms: C_11  and  C_27
    4  A    between atoms: C_13  and  C_34
    5  A    between atoms: C_13  and  C_43
    6  A    between atoms: C_15  and  N_24
    7  A    between atoms: N_22  and  C_38
    8  A    between atoms: N_24  and  C_33
    9  A    between atoms: C_27  and  C_42
   10  A    between atoms: C_33  and  C_38
                            x       y       z     vdW  Elec       q    Type
                         _______ _______ _______ _____ _____    ______ ____

>  <TORSDO>
F 10

$$$$
=
 OpenBabel11062422333D

 43 45  0  0  1  0  0  0  0  0999 V2000
  188.3550  172.7300  140.4260 C   0  0  0  0  0  2  0  0  0  0  0  0
  193.2000  172.6980  140.9080 C   0  0  0  0  0  2  0  0  0  0  0  0
  191.9710  174.5070  143.4680 C   0  0  0  0  0  2  0  0  0  0  0  0
  189.5240  174.1500  143.0140 C   0  0  0  0  0  2  0  0  0  0  0  0
  191.7610  172.2140  140.9760 C   0  0  0  0  0  2  0  0  0  0  0  0
  190.7820  174.9160  142.6120 C   0  0  0  0  0  2  0  0  0  0  0  0
  190.1080  170.3220  138.3410 F   0  0  0  0  0  0  0  0  0  0  0  0
  190.1660  171.1830  139.4230 C   0  0  1  0  0  3  0  0  0  0  0  0
  188.3140  174.5360  142.1580 C   0  0  2  0  0  3  0  0  0  0  0  0
  191.5780  171.7230  139.5810 C   0  0  0  0  0  2  0  0  0  0  0  0
  192.7560  172.7430  141.7280 C   0  0  0  0  0  0  0  0  0  0  0  0
  189.0300  172.8340  138.1680 O   0  0  0  0  0  0  0  0  0  0  0  0
  188.5630  174.2120  140.6920 C   0  0  0  0  0  2  0  0  0  0  0  0
  189.1750  172.2930  139.2550 C   0  0  0  0  0  0  0  0  0  0  0  0
  192.3640  173.0450  143.2550 C   0  0  1  0  0  3  0  0  0  0  0  0
  193.2170  173.1960  145.5080 O   0  0  0  0  0  1  0  0  0  0  0  0
  193.4360  172.6140  144.2580 C   0  0  1  0  0  3  0  0  0  0  0  0
  193.6580  171.1240  144.3290 C   0  0  0  0  0  0  0  0  0  0  0  0
  194.9590  170.5250  144.5270 N   0  0  0  0  0  0  0  0  0  0  0  0
  192.6410  170.3820  144.2570 O   0  0  0  0  0  0  0  0  0  0  0  0
  195.0320  169.1300  144.9650 C   0  0  0  0  0  3  0  0  0  0  0  0
  194.5670  169.0210  146.4080 C   0  0  0  0  0  2  0  0  0  0  0  0
  196.0420  168.9720  146.0920 C   0  0  0  0  0  2  0  0  0  0  0  0
  196.1460  171.1070  143.9100 C   0  0  0  0  0  2  0  0  0  0  0  0
  196.7700  172.1420  144.8310 C   0  0  0  0  0  2  0  0  0  0  0  0
  196.9360  174.5900  144.2970 C   0  0  0  0  0  0  0  0  0  0  0  0
  196.0650  174.9160  145.3750 N   0  0  0  0  0  1  0  0  0  0  0  0
  197.3790  175.5040  143.5570 O   0  0  0  0  0  0  0  0  0  0  0  0
  197.3090  173.2360  144.0450 N   0  0  0  0  0  2  0  0  0  0  0  0
  187.9490  176.0130  142.3000 C   0  0  0  0  0  2  0  0  0  0  0  0
  186.5630  178.3120  145.0750 C   0  0  0  0  0  2  0  0  0  0  0  0
  188.9540  176.7480  144.5130 C   0  0  1  0  0  3  0  0  0  0  0  0
  185.0680  177.0020  146.5090 N   0  0  0  0  0  1  0  0  0  0  0  0
  186.5590  177.4580  143.8020 C   0  0  0  0  0  2  0  0  0  0  0  0
  187.6590  176.3880  143.7490 C   0  0  1  0  0  3  0  0  0  0  0  0
  187.4260  176.3710  146.5410 C   0  0  0  0  0  2  0  0  0  0  0  0
  189.5860  178.0480  144.0320 C   0  0  0  0  0  1  0  0  0  0  0  0
  186.4220  177.5170  146.3790 C   0  0  1  0  0  3  0  0  0  0  0  0
  188.8420  176.7240  146.0560 C   0  0  1  0  0  3  0  0  0  0  0  0
  189.1540  174.6270  147.4080 C   0  0  0  0  0  1  0  0  0  0  0  0
  189.8620  175.7420  146.6500 C   0  0  2  0  0  3  0  0  0  0  0  0
  190.8250  176.4450  147.6000 C   0  0  0  0  0  2  0  0  0  0  0  0
  192.2460  176.3720  147.0690 C   0  0  0  0  0  1  0  0  0  0  0  0
  1 13  1  0  0  0  0
  2 11  2  0  0  0  0
  5 11  1  0  0  0  0
  6  4  1  0  0  0  0
  6  3  1  0  0  0  0
  8  7  1  6  0  0  0
  8 10  1  0  0  0  0
  9 30  1  6  0  0  0
  9  4  1  0  0  0  0
 10  5  1  0  0  0  0
 11 15  1  0  0  0  0
 12 14  2  0  0  0  0
 13  9  1  0  0  0  0
 14  8  1  0  0  0  0
 14  1  1  0  0  0  0
 15  3  1  0  0  0  0
 15 17  1  1  0  0  0
 17 18  1  0  0  0  0
 17 16  1  1  0  0  0
 18 19  1  0  0  0  0
 19 21  1  0  0  0  0
 20 18  2  0  0  0  0
 21 23  1  0  0  0  0
 21 22  1  0  0  0  0
 23 22  1  0  0  0  0
 24 19  1  0  0  0  0
 24 25  1  0  0  0  0
 26 27  1  0  0  0  0
 28 26  2  0  0  0  0
 29 26  1  0  0  0  0
 29 25  1  0  0  0  0
 31 38  1  0  0  0  0
 32 37  1  6  0  0  0
 32 39  1  0  0  0  0
 34 31  1  0  0  0  0
 35 30  1  6  0  0  0
 35 34  1  0  0  0  0
 35 32  1  0  0  0  0
 38 33  1  6  0  0  0
 38 36  1  0  0  0  0
 39 36  1  0  0  0  0
 39 41  1  1  0  0  0
 41 40  1  1  0  0  0
 41 42  1  0  0  0  0
 43 42  1  0  0  0  0
M  END
>  <MODEL>
6

>  <REMARK>
 VINA RESULT:      -6.9      2.709      8.513
  Name = 
  10 active torsions:
  status: ('A' for Active; 'I' for Inactive)
    1  A    between atoms: C_3  and  C_17
    2  A    between atoms: C_3  and  C_28
    3  A    between atoms: C_11  and  C_27
    4  A    between atoms: C_13  and  C_34
    5  A    between atoms: C_13  and  C_43
    6  A    between atoms: C_15  and  N_24
    7  A    between atoms: N_22  and  C_38
    8  A    between atoms: N_24  and  C_33
    9  A    between atoms: C_27  and  C_42
   10  A    between atoms: C_33  and  C_38
                            x       y       z     vdW  Elec       q    Type
                         _______ _______ _______ _____ _____    ______ ____

>  <TORSDO>
F 10

$$$$
=
 OpenBabel11062422333D

 43 45  0  0  1  0  0  0  0  0999 V2000
  188.2150  172.7190  139.6230 C   0  0  0  0  0  2  0  0  0  0  0  0
  192.9520  171.8650  140.3530 C   0  0  0  0  0  2  0  0  0  0  0  0
  191.9010  173.8040  142.8980 C   0  0  0  0  0  2  0  0  0  0  0  0
  189.4580  173.8710  142.3070 C   0  0  0  0  0  2  0  0  0  0  0  0
  191.4510  171.6280  140.3330 C   0  0  0  0  0  2  0  0  0  0  0  0
  190.8460  174.4240  141.9930 C   0  0  0  0  0  2  0  0  0  0  0  0
  189.6550  170.0930  137.5630 F   0  0  0  0  0  0  0  0  0  0  0  0
  189.7960  170.9100  138.6700 C   0  0  1  0  0  3  0  0  0  0  0  0
  188.3780  174.4720  141.4020 C   0  0  2  0  0  3  0  0  0  0  0  0
  191.2670  171.2030  138.9160 C   0  0  0  0  0  2  0  0  0  0  0  0
  192.4770  171.9680  141.1510 C   0  0  0  0  0  0  0  0  0  0  0  0
  189.0230  172.7530  137.4070 O   0  0  0  0  0  0  0  0  0  0  0  0
  188.6510  174.1400  139.9410 C   0  0  0  0  0  2  0  0  0  0  0  0
  189.0140  172.1750  138.4830 C   0  0  0  0  0  0  0  0  0  0  0  0
  192.0560  172.3010  142.6630 C   0  0  1  0  0  3  0  0  0  0  0  0
  192.8910  170.2840  143.6930 O   0  0  0  0  0  1  0  0  0  0  0  0
  192.9830  171.6760  143.7080 C   0  0  1  0  0  3  0  0  0  0  0  0
  194.4050  172.1770  143.6560 C   0  0  0  0  0  0  0  0  0  0  0  0
  194.9690  173.0670  144.6450 N   0  0  0  0  0  0  0  0  0  0  0  0
  195.1360  171.7510  142.7210 O   0  0  0  0  0  0  0  0  0  0  0  0
  196.4250  173.1880  144.7360 C   0  0  0  0  0  3  0  0  0  0  0  0
  197.0160  171.8860  145.2510 C   0  0  0  0  0  2  0  0  0  0  0  0
  196.8860  173.0680  146.1810 C   0  0  0  0  0  2  0  0  0  0  0  0
  194.1600  174.1300  145.2340 C   0  0  0  0  0  2  0  0  0  0  0  0
  194.7840  175.4880  144.9560 C   0  0  0  0  0  2  0  0  0  0  0  0
  195.6310  176.3520  142.7560 C   0  0  0  0  0  0  0  0  0  0  0  0
  196.9550  176.4550  143.2710 N   0  0  0  0  0  1  0  0  0  0  0  0
  195.3930  176.7110  141.5750 O   0  0  0  0  0  0  0  0  0  0  0  0
  194.5700  175.8500  143.5670 N   0  0  0  0  0  2  0  0  0  0  0  0
  188.2580  175.9860  141.5680 C   0  0  0  0  0  2  0  0  0  0  0  0
  186.8570  178.2510  144.3630 C   0  0  0  0  0  2  0  0  0  0  0  0
  189.3280  176.8620  143.6970 C   0  0  1  0  0  3  0  0  0  0  0  0
  185.5580  176.8720  145.9170 N   0  0  0  0  0  1  0  0  0  0  0  0
  186.8470  177.3620  143.1140 C   0  0  0  0  0  2  0  0  0  0  0  0
  188.0230  176.3800  143.0210 C   0  0  1  0  0  3  0  0  0  0  0  0
  187.9560  176.4280  145.8220 C   0  0  0  0  0  2  0  0  0  0  0  0
  189.8260  178.1930  143.1460 C   0  0  0  0  0  1  0  0  0  0  0  0
  186.8560  177.4860  145.6920 C   0  0  1  0  0  3  0  0  0  0  0  0
  189.3090  176.8750  145.2430 C   0  0  1  0  0  3  0  0  0  0  0  0
  189.9410  174.5720  146.0300 C   0  0  0  0  0  1  0  0  0  0  0  0
  190.4360  175.9930  145.7990 C   0  0  2  0  0  3  0  0  0  0  0  0
  190.9770  176.5420  147.1140 C   0  0  0  0  0  2  0  0  0  0  0  0
  191.3830  175.4080  148.0400 C   0  0  0  0  0  1  0  0  0  0  0  0
  1 13  1  0  0  0  0
  2 11  2  0  0  0  0
  5 11  1  0  0  0  0
  6  4  1  0  0  0  0
  6  3  1  0  0  0  0
  8  7  1  6  0  0  0
  8 10  1  0  0  0  0
  9 30  1  6  0  0  0
  9  4  1  0  0  0  0
 10  5  1  0  0  0  0
 11 15  1  0  0  0  0
 12 14  2  0  0  0  0
 13  9  1  0  0  0  0
 14  8  1  0  0  0  0
 14  1  1  0  0  0  0
 15  3  1  0  0  0  0
 15 17  1  1  0  0  0
 17 16  1  6  0  0  0
 18 17  1  0  0  0  0
 18 19  1  0  0  0  0
 19 21  1  0  0  0  0
 19 24  1  0  0  0  0
 20 18  2  0  0  0  0
 21 22  1  0  0  0  0
 21 23  1  0  0  0  0
 22 23  1  0  0  0  0
 25 24  1  0  0  0  0
 26 27  1  0  0  0  0
 26 29  1  0  0  0  0
 28 26  2  0  0  0  0
 29 25  1  0  0  0  0
 31 38  1  0  0  0  0
 32 37  1  6  0  0  0
 32 39  1  0  0  0  0
 34 31  1  0  0  0  0
 35 30  1  6  0  0  0
 35 34  1  0  0  0  0
 35 32  1  0  0  0  0
 38 36  1  0  0  0  0
 38 33  1  6  0  0  0
 39 41  1  1  0  0  0
 39 36  1  0  0  0  0
 41 40  1  1  0  0  0
 41 42  1  0  0  0  0
 42 43  1  0  0  0  0
M  END
>  <MODEL>
7

>  <REMARK>
 VINA RESULT:      -6.9      2.910      8.038
  Name = 
  10 active torsions:
  status: ('A' for Active; 'I' for Inactive)
    1  A    between atoms: C_3  and  C_17
    2  A    between atoms: C_3  and  C_28
    3  A    between atoms: C_11  and  C_27
    4  A    between atoms: C_13  and  C_34
    5  A    between atoms: C_13  and  C_43
    6  A    between atoms: C_15  and  N_24
    7  A    between atoms: N_22  and  C_38
    8  A    between atoms: N_24  and  C_33
    9  A    between atoms: C_27  and  C_42
   10  A    between atoms: C_33  and  C_38
                            x       y       z     vdW  Elec       q    Type
                         _______ _______ _______ _____ _____    ______ ____

>  <TORSDO>
F 10

$$$$
=
 OpenBabel11062422333D

 43 45  0  0  1  0  0  0  0  0999 V2000
  191.5000  173.1050  138.8930 C   0  0  0  0  0  2  0  0  0  0  0  0
  188.1450  174.5970  142.0910 C   0  0  0  0  0  2  0  0  0  0  0  0
  191.1560  175.2360  143.4560 C   0  0  0  0  0  2  0  0  0  0  0  0
  192.5850  174.5390  141.5090 C   0  0  0  0  0  2  0  0  0  0  0  0
  189.0510  174.6080  140.8700 C   0  0  0  0  0  2  0  0  0  0  0  0
  191.7530  174.0610  142.6970 C   0  0  0  0  0  2  0  0  0  0  0  0
  188.1070  173.3060  137.6040 F   0  0  0  0  0  0  0  0  0  0  0  0
  188.9890  173.6500  138.6120 C   0  0  1  0  0  3  0  0  0  0  0  0
  193.1900  173.3740  140.7200 C   0  0  2  0  0  3  0  0  0  0  0  0
  188.2470  173.7740  139.9330 C   0  0  0  0  0  2  0  0  0  0  0  0
  188.9280  175.1050  142.1250 C   0  0  0  0  0  0  0  0  0  0  0  0
  189.8460  171.4460  138.6130 O   0  0  0  0  0  0  0  0  0  0  0  0
  192.0950  172.4840  140.1460 C   0  0  0  0  0  2  0  0  0  0  0  0
  190.0920  172.6400  138.7020 C   0  0  0  0  0  0  0  0  0  0  0  0
  190.1510  176.0220  142.6130 C   0  0  1  0  0  3  0  0  0  0  0  0
  188.4920  177.7610  142.8350 O   0  0  0  0  0  1  0  0  0  0  0  0
  189.7100  177.2970  143.3350 C   0  0  1  0  0  3  0  0  0  0  0  0
  189.7350  177.2010  144.8400 C   0  0  0  0  0  0  0  0  0  0  0  0
  188.7660  176.4470  145.6020 N   0  0  0  0  0  0  0  0  0  0  0  0
  190.6840  177.7740  145.4420 O   0  0  0  0  0  0  0  0  0  0  0  0
  189.0820  176.0900  146.9870 C   0  0  0  0  0  3  0  0  0  0  0  0
  190.3100  175.1960  147.0180 C   0  0  0  0  0  2  0  0  0  0  0  0
  188.9380  174.5910  147.2020 C   0  0  0  0  0  2  0  0  0  0  0  0
  187.3650  176.4110  145.1930 C   0  0  0  0  0  2  0  0  0  0  0  0
  186.5630  177.4550  145.9520 C   0  0  0  0  0  2  0  0  0  0  0  0
  185.2380  179.3620  144.9950 C   0  0  0  0  0  0  0  0  0  0  0  0
  184.0560  178.9070  145.6450 N   0  0  0  0  0  1  0  0  0  0  0  0
  185.1920  180.3790  144.2590 O   0  0  0  0  0  0  0  0  0  0  0  0
  186.4750  178.6720  145.1660 N   0  0  0  0  0  2  0  0  0  0  0  0
  194.1410  172.5310  141.5670 C   0  0  0  0  0  2  0  0  0  0  0  0
  197.7110  173.6280  142.5470 C   0  0  0  0  0  2  0  0  0  0  0  0
  195.1540  173.0850  143.8280 C   0  0  1  0  0  3  0  0  0  0  0  0
  197.9240  176.0400  142.1740 N   0  0  0  0  0  1  0  0  0  0  0  0
  196.5250  173.3000  141.6330 C   0  0  0  0  0  2  0  0  0  0  0  0
  195.1520  173.3940  142.3130 C   0  0  1  0  0  3  0  0  0  0  0  0
  196.3610  175.3480  143.9160 C   0  0  0  0  0  2  0  0  0  0  0  0
  195.7070  171.7030  144.1520 C   0  0  0  0  0  1  0  0  0  0  0  0
  197.6640  175.0230  143.1800 C   0  0  1  0  0  3  0  0  0  0  0  0
  195.8020  174.1660  144.7250 C   0  0  1  0  0  3  0  0  0  0  0  0
  193.5820  173.7500  145.8320 C   0  0  0  0  0  1  0  0  0  0  0  0
  194.7940  174.6710  145.7670 C   0  0  2  0  0  3  0  0  0  0  0  0
  194.3190  176.0830  145.4450 C   0  0  0  0  0  2  0  0  0  0  0  0
  193.7970  176.7690  146.6970 C   0  0  0  0  0  1  0  0  0  0  0  0
  1 13  1  0  0  0  0
  2 11  2  0  0  0  0
  4  6  1  0  0  0  0
  5 11  1  0  0  0  0
  6  3  1  0  0  0  0
  8  7  1  6  0  0  0
  8 14  1  0  0  0  0
  8 10  1  0  0  0  0
  9  4  1  0  0  0  0
  9 30  1  1  0  0  0
 10  5  1  0  0  0  0
 11 15  1  0  0  0  0
 12 14  2  0  0  0  0
 13  9  1  0  0  0  0
 14  1  1  0  0  0  0
 15 17  1  1  0  0  0
 15  3  1  0  0  0  0
 17 16  1  6  0  0  0
 17 18  1  0  0  0  0
 18 20  2  0  0  0  0
 18 19  1  0  0  0  0
 19 21  1  0  0  0  0
 21 22  1  0  0  0  0
 21 23  1  0  0  0  0
 22 23  1  0  0  0  0
 24 19  1  0  0  0  0
 24 25  1  0  0  0  0
 26 29  1  0  0  0  0
 26 27  1  0  0  0  0
 28 26  2  0  0  0  0
 29 25  1  0  0  0  0
 31 38  1  0  0  0  0
 32 37  1  6  0  0  0
 32 39  1  0  0  0  0
 34 35  1  0  0  0  0
 34 31  1  0  0  0  0
 35 30  1  6  0  0  0
 35 32  1  0  0  0  0
 36 39  1  0  0  0  0
 38 33  1  6  0  0  0
 38 36  1  0  0  0  0
 39 41  1  1  0  0  0
 41 40  1  6  0  0  0
 42 41  1  0  0  0  0
 42 43  1  0  0  0  0
M  END
>  <MODEL>
8

>  <REMARK>
 VINA RESULT:      -6.9      2.357      4.245
  Name = 
  10 active torsions:
  status: ('A' for Active; 'I' for Inactive)
    1  A    between atoms: C_3  and  C_17
    2  A    between atoms: C_3  and  C_28
    3  A    between atoms: C_11  and  C_27
    4  A    between atoms: C_13  and  C_34
    5  A    between atoms: C_13  and  C_43
    6  A    between atoms: C_15  and  N_24
    7  A    between atoms: N_22  and  C_38
    8  A    between atoms: N_24  and  C_33
    9  A    between atoms: C_27  and  C_42
   10  A    between atoms: C_33  and  C_38
                            x       y       z     vdW  Elec       q    Type
                         _______ _______ _______ _____ _____    ______ ____

>  <TORSDO>
F 10

$$$$
=
 OpenBabel11062422333D

 43 45  0  0  1  0  0  0  0  0999 V2000
  192.4380  173.7890  145.6400 C   0  0  0  0  0  2  0  0  0  0  0  0
  191.5910  177.8410  143.0750 C   0  0  0  0  0  2  0  0  0  0  0  0
  189.1980  175.6270  142.2320 C   0  0  0  0  0  2  0  0  0  0  0  0
  189.8230  173.7980  143.8410 C   0  0  0  0  0  2  0  0  0  0  0  0
  191.6150  176.8830  144.2550 C   0  0  0  0  0  2  0  0  0  0  0  0
  190.1560  174.4790  142.5150 C   0  0  0  0  0  2  0  0  0  0  0  0
  194.2970  176.7240  146.7130 F   0  0  0  0  0  0  0  0  0  0  0  0
  193.2460  176.2230  145.9650 C   0  0  1  0  0  3  0  0  0  0  0  0
  190.7810  172.6450  144.1550 C   0  0  2  0  0  3  0  0  0  0  0  0
  193.0010  177.1080  144.7540 C   0  0  0  0  0  2  0  0  0  0  0  0
  190.8090  177.3750  143.2830 C   0  0  0  0  0  0  0  0  0  0  0  0
  194.6410  174.4890  145.1680 O   0  0  0  0  0  0  0  0  0  0  0  0
  192.2110  173.1490  144.2800 C   0  0  0  0  0  2  0  0  0  0  0  0
  193.5280  174.8100  145.5570 C   0  0  0  0  0  0  0  0  0  0  0  0
  189.3280  176.7570  143.2540 C   0  0  1  0  0  3  0  0  0  0  0  0
  188.2470  178.3050  141.7500 O   0  0  0  0  0  1  0  0  0  0  0  0
  188.2320  177.8050  143.0530 C   0  0  1  0  0  3  0  0  0  0  0  0
  186.8610  177.3650  143.5040 C   0  0  0  0  0  0  0  0  0  0  0  0
  186.2650  177.7830  144.7520 N   0  0  0  0  0  0  0  0  0  0  0  0
  186.1990  176.6340  142.7170 O   0  0  0  0  0  0  0  0  0  0  0  0
  184.8190  177.6340  144.9270 C   0  0  0  0  0  3  0  0  0  0  0  0
  184.1050  178.8370  144.3330 C   0  0  0  0  0  2  0  0  0  0  0  0
  184.2710  178.7290  145.8300 C   0  0  0  0  0  2  0  0  0  0  0  0
  187.0830  177.9350  145.9510 C   0  0  0  0  0  2  0  0  0  0  0  0
  187.5000  176.5750  146.4850 C   0  0  0  0  0  2  0  0  0  0  0  0
  189.5640  175.4580  147.3790 C   0  0  0  0  0  0  0  0  0  0  0  0
  188.9410  174.1790  147.3080 N   0  0  0  0  0  1  0  0  0  0  0  0
  190.7330  175.5570  147.8300 O   0  0  0  0  0  0  0  0  0  0  0  0
  188.8740  176.6300  146.9490 N   0  0  0  0  0  2  0  0  0  0  0  0
  190.7200  171.5370  143.1050 C   0  0  0  0  0  2  0  0  0  0  0  0
  192.9570  170.8710  140.0300 C   0  0  0  0  0  2  0  0  0  0  0  0
  192.7290  170.0150  142.8030 C   0  0  1  0  0  3  0  0  0  0  0  0
  194.6360  172.6490  139.8760 N   0  0  0  0  0  1  0  0  0  0  0  0
  191.8900  171.5570  140.8900 C   0  0  0  0  0  2  0  0  0  0  0  0
  192.0590  171.3480  142.4020 C   0  0  1  0  0  3  0  0  0  0  0  0
  194.7940  171.1760  141.8170 C   0  0  0  0  0  2  0  0  0  0  0  0
  191.9860  168.7930  142.2750 C   0  0  0  0  0  1  0  0  0  0  0  0
  194.3980  171.2930  140.3410 C   0  0  1  0  0  3  0  0  0  0  0  0
  194.2430  169.9150  142.5020 C   0  0  1  0  0  3  0  0  0  0  0  0
  195.4320  168.1660  143.8620 C   0  0  0  0  0  1  0  0  0  0  0  0
  195.0270  169.6320  143.7920 C   0  0  2  0  0  3  0  0  0  0  0  0
  194.2050  169.9720  145.0300 C   0  0  0  0  0  2  0  0  0  0  0  0
  195.0910  170.5660  146.1120 C   0  0  0  0  0  1  0  0  0  0  0  0
  2 11  2  0  0  0  0
  3  6  1  0  0  0  0
  3 15  1  0  0  0  0
  4  9  1  0  0  0  0
  5 10  1  0  0  0  0
  6  4  1  0  0  0  0
  8  7  1  6  0  0  0
  9 30  1  6  0  0  0
  9 13  1  0  0  0  0
 10  8  1  0  0  0  0
 11  5  1  0  0  0  0
 12 14  2  0  0  0  0
 13  1  1  0  0  0  0
 14  1  1  0  0  0  0
 14  8  1  0  0  0  0
 15 17  1  6  0  0  0
 15 11  1  0  0  0  0
 17 16  1  6  0  0  0
 17 18  1  0  0  0  0
 18 19  1  0  0  0  0
 19 21  1  0  0  0  0
 19 24  1  0  0  0  0
 20 18  2  0  0  0  0
 21 23  1  0  0  0  0
 22 21  1  0  0  0  0
 22 23  1  0  0  0  0
 24 25  1  0  0  0  0
 25 29  1  0  0  0  0
 26 28  2  0  0  0  0
 27 26  1  0  0  0  0
 29 26  1  0  0  0  0
 31 38  1  0  0  0  0
 31 34  1  0  0  0  0
 32 37  1  6  0  0  0
 34 35  1  0  0  0  0
 35 32  1  0  0  0  0
 35 30  1  1  0  0  0
 36 39  1  0  0  0  0
 38 33  1  1  0  0  0
 38 36  1  0  0  0  0
 39 32  1  0  0  0  0
 39 41  1  1  0  0  0
 41 40  1  1  0  0  0
 41 42  1  0  0  0  0
 42 43  1  0  0  0  0
M  END
>  <MODEL>
9

>  <REMARK>
 VINA RESULT:      -6.8      3.177      5.552
  Name = 
  10 active torsions:
  status: ('A' for Active; 'I' for Inactive)
    1  A    between atoms: C_3  and  C_17
    2  A    between atoms: C_3  and  C_28
    3  A    between atoms: C_11  and  C_27
    4  A    between atoms: C_13  and  C_34
    5  A    between atoms: C_13  and  C_43
    6  A    between atoms: C_15  and  N_24
    7  A    between atoms: N_22  and  C_38
    8  A    between atoms: N_24  and  C_33
    9  A    between atoms: C_27  and  C_42
   10  A    between atoms: C_33  and  C_38
                            x       y       z     vdW  Elec       q    Type
                         _______ _______ _______ _____ _____    ______ ____

>  <TORSDO>
F 10

$$$$
