=
 OpenBabel11062421513D

 48 52  0  0  1  0  0  0  0  0999 V2000
  187.7500  176.4370  142.6750 C   0  0  1  0  0  3  0  0  0  0  0  0
  188.7180  174.3980  139.5620 C   0  0  0  0  0  3  0  0  0  0  0  0
  187.1690  176.7200  140.2330 C   0  0  0  0  0  2  0  0  0  0  0  0
  190.2560  176.3560  143.2060 N   0  0  0  0  0  2  0  0  0  0  0  0
  186.5780  177.3750  143.0340 C   0  0  2  0  0  3  0  0  0  0  0  0
  188.5440  174.6780  140.9240 C   0  0  0  0  0  0  0  0  0  0  0  0
  187.4900  175.7080  141.3370 C   0  0  1  0  0  3  0  0  0  0  0  0
  190.3490  172.6730  140.0620 C   0  0  0  0  0  0  0  0  0  0  0  0
  190.2520  175.0340  143.8520 C   0  0  2  0  0  3  0  0  0  0  0  0
  190.1700  172.9310  141.4160 C   0  0  0  0  0  3  0  0  0  0  0  0
  185.9740  177.5820  140.6230 C   0  0  0  0  0  2  0  0  0  0  0  0
  189.2740  173.9050  141.8580 C   0  0  0  0  0  0  0  0  0  0  0  0
  189.2800  178.2380  142.2490 O   0  0  0  0  0  0  0  0  0  0  0  0
  189.1520  174.1060  143.3280 C   0  0  0  0  0  2  0  0  0  0  0  0
  189.1130  177.0810  142.7190 C   0  0  0  0  0  0  0  0  0  0  0  0
  186.2780  178.3550  141.8990 C   0  0  0  0  0  2  0  0  0  0  0  0
  189.6140  173.4230  139.1130 C   0  0  0  0  0  0  0  0  0  0  0  0
  186.7310  178.0670  144.3620 C   0  0  0  0  0  0  0  0  0  0  0  0
  187.2550  177.3530  145.4810 N   0  0  0  0  0  2  0  0  0  0  0  0
  186.5020  179.3020  144.4640 O   0  0  0  0  0  0  0  0  0  0  0  0
  187.2500  177.9160  146.7590 N   0  0  0  0  0  2  0  0  0  0  0  0
  186.1020  177.3660  147.4640 C   0  0  0  0  0  2  0  0  0  0  0  0
  183.9770  178.2820  146.6340 C   0  0  0  0  0  2  0  0  0  0  0  0
  184.9870  178.3630  147.5040 C   0  0  0  0  0  3  0  0  0  0  0  0
  190.1850  175.1370  145.3540 C   0  0  0  0  0  0  0  0  0  0  0  0
  189.2190  174.6170  145.9730 O   0  0  0  0  0  0  0  0  0  0  0  0
  191.2180  175.7230  146.1030 O   0  0  0  0  0  0  0  0  0  0  0  0
  193.6000  176.3630  146.4960 C   0  0  0  0  0  2  0  0  0  0  0  0
  194.9550  176.1480  145.8170 C   0  0  0  0  0  2  0  0  0  0  0  0
  192.5710  175.3550  146.0600 C   0  0  0  0  0  0  0  0  0  0  0  0
  195.3240  174.6900  145.7500 C   0  0  0  0  0  3  0  0  0  0  0  0
  194.3780  173.7580  145.6310 C   0  0  0  0  0  0  0  0  0  0  0  0
  194.7290  172.4590  145.4920 F   0  0  0  0  0  0  0  0  0  0  0  0
  192.9530  174.1300  145.6790 C   0  0  0  0  0  3  0  0  0  0  0  0
  190.7620  173.5880  137.0170 O   0  0  0  0  0  0  0  0  0  0  0  0
  189.7300  173.2560  137.6560 C   0  0  0  0  0  3  0  0  0  0  0  0
  191.2720  171.5550  139.6810 C   0  0  0  0  0  2  0  0  0  0  0  0
  192.2650  171.2560  140.7990 C   0  0  1  0  0  3  0  0  0  0  0  0
  192.5320  169.8280  140.8140 N   0  0  0  0  0  1  0  0  0  0  0  0
  193.8260  172.8940  141.8220 C   0  0  0  0  0  3  0  0  0  0  0  0
  193.4620  173.0090  139.5480 N   0  0  0  0  0  0  0  0  0  0  0  0
  193.7990  174.1400  141.3820 C   0  0  0  0  0  0  0  0  0  0  0  0
  193.5780  174.1920  139.9870 N   0  0  0  0  0  0  0  0  0  0  0  0
  193.5770  172.0250  140.6230 C   0  0  2  0  0  3  0  0  0  0  0  0
  194.0460  175.3450  142.2330 C   0  0  0  0  0  2  0  0  0  0  0  0
  195.4020  175.9000  141.9660 C   0  0  0  0  0  0  0  0  0  0  0  0
  195.5420  176.8730  141.1900 O   0  0  0  0  0  0  0  0  0  0  0  0
  196.5120  175.3480  142.5800 O   0  0  0  0  0  1  0  0  0  0  0  0
  1 15  1  6  0  0  0
  1  5  1  0  0  0  0
  2  6  1  0  0  0  0
  3 11  1  0  0  0  0
  4  9  1  0  0  0  0
  5 18  1  1  0  0  0
  6  7  1  0  0  0  0
  6 12  2  0  0  0  0
  7  3  1  6  0  0  0
  7  1  1  0  0  0  0
  8 10  2  0  0  0  0
  9 25  1  1  0  0  0
 10 12  1  0  0  0  0
 11 16  1  0  0  0  0
 12 14  1  0  0  0  0
 13 15  2  0  0  0  0
 14  9  1  0  0  0  0
 15  4  1  0  0  0  0
 16  5  1  0  0  0  0
 17  2  2  0  0  0  0
 17  8  1  0  0  0  0
 18 20  2  0  0  0  0
 18 19  1  0  0  0  0
 19 21  1  0  0  0  0
 21 22  1  0  0  0  0
 22 24  1  0  0  0  0
 23 24  2  0  0  0  0
 25 26  2  0  0  0  0
 25 27  1  0  0  0  0
 29 28  1  0  0  0  0
 30 27  1  0  0  0  0
 30 28  1  0  0  0  0
 31 29  1  0  0  0  0
 32 34  1  0  0  0  0
 32 31  2  0  0  0  0
 33 32  1  0  0  0  0
 34 30  2  0  0  0  0
 35 36  2  0  0  0  0
 36 17  1  0  0  0  0
 37  8  1  0  0  0  0
 37 38  1  0  0  0  0
 38 39  1  6  0  0  0
 41 43  2  0  0  0  0
 41 44  1  0  0  0  0
 42 40  2  0  0  0  0
 42 45  1  0  0  0  0
 43 42  1  0  0  0  0
 44 38  1  1  0  0  0
 44 40  1  0  0  0  0
 46 45  1  0  0  0  0
 46 48  1  0  0  0  0
 47 46  2  0  0  0  0
M  END
>  <MODEL>
1

>  <REMARK>
 VINA RESULT:      -7.2      0.000      0.000
  Name = 
  13 active torsions:
  status: ('A' for Active; 'I' for Inactive)
    1  A    between atoms: C_2  and  C_10
    2  A    between atoms: C_6  and  C_22
    3  A    between atoms: C_6  and  O_35
    4  A    between atoms: C_8  and  C_26
    5  A    between atoms: C_8  and  N_37
    6  A    between atoms: C_14  and  C_18
    7  A    between atoms: C_14  and  C_47
    8  A    between atoms: C_16  and  O_35
    9  A    between atoms: C_17  and  C_40
   10  A    between atoms: C_18  and  C_21
   11  A    between atoms: N_24  and  N_37
   12  A    between atoms: C_33  and  C_48
   13  A    between atoms: C_38  and  C_40
                            x       y       z     vdW  Elec       q    Type
                         _______ _______ _______ _____ _____    ______ ____

>  <TORSDO>
F 13

$$$$
=
 OpenBabel11062421513D

 48 52  0  0  1  0  0  0  0  0999 V2000
  191.2560  172.7020  141.5430 C   0  0  1  0  0  3  0  0  0  0  0  0
  188.3040  175.1230  141.9940 C   0  0  0  0  0  3  0  0  0  0  0  0
  189.1300  173.0260  140.2180 C   0  0  0  0  0  2  0  0  0  0  0  0
  190.9330  172.2280  144.0400 N   0  0  0  0  0  2  0  0  0  0  0  0
  191.8540  171.9340  140.3440 C   0  0  2  0  0  3  0  0  0  0  0  0
  189.5960  174.6090  142.1710 C   0  0  0  0  0  0  0  0  0  0  0  0
  190.1920  173.7200  141.0770 C   0  0  1  0  0  3  0  0  0  0  0  0
  188.4630  176.3940  144.0550 C   0  0  0  0  0  0  0  0  0  0  0  0
  191.7160  173.3720  144.5350 C   0  0  2  0  0  3  0  0  0  0  0  0
  189.7530  175.9050  144.2290 C   0  0  0  0  0  3  0  0  0  0  0  0
  189.7730  172.3290  139.0250 C   0  0  0  0  0  2  0  0  0  0  0  0
  190.3300  175.0350  143.3030 C   0  0  0  0  0  0  0  0  0  0  0  0
  190.1080  170.7820  142.4160 O   0  0  0  0  0  0  0  0  0  0  0  0
  191.7170  174.5660  143.5770 C   0  0  0  0  0  2  0  0  0  0  0  0
  190.7580  171.8310  142.6690 C   0  0  0  0  0  0  0  0  0  0  0  0
  190.7600  171.2720  139.5030 C   0  0  0  0  0  2  0  0  0  0  0  0
  187.7200  175.9950  142.9190 C   0  0  0  0  0  0  0  0  0  0  0  0
  192.9490  170.9710  140.7170 C   0  0  0  0  0  0  0  0  0  0  0  0
  194.1160  171.4460  141.3890 N   0  0  0  0  0  2  0  0  0  0  0  0
  192.7950  169.7330  140.5370 O   0  0  0  0  0  0  0  0  0  0  0  0
  195.2160  170.6110  141.5950 N   0  0  0  0  0  2  0  0  0  0  0  0
  196.1380  170.8400  140.4930 C   0  0  0  0  0  2  0  0  0  0  0  0
  197.9410  172.2550  141.3800 C   0  0  0  0  0  2  0  0  0  0  0  0
  196.8270  172.1580  140.6520 C   0  0  0  0  0  3  0  0  0  0  0  0
  193.1270  172.9800  144.8920 C   0  0  0  0  0  0  0  0  0  0  0  0
  193.5190  171.8010  144.6820 O   0  0  0  0  0  0  0  0  0  0  0  0
  194.0560  173.9170  145.3720 O   0  0  0  0  0  0  0  0  0  0  0  0
  196.4070  173.3960  144.7130 C   0  0  0  0  0  2  0  0  0  0  0  0
  197.7390  174.1410  144.5880 C   0  0  0  0  0  2  0  0  0  0  0  0
  195.2240  174.3250  144.7110 C   0  0  0  0  0  0  0  0  0  0  0  0
  197.6670  175.2530  143.5760 C   0  0  0  0  0  3  0  0  0  0  0  0
  196.5260  175.9140  143.3770 C   0  0  0  0  0  0  0  0  0  0  0  0
  196.4980  176.9610  142.5210 F   0  0  0  0  0  0  0  0  0  0  0  0
  195.2910  175.4920  144.0590 C   0  0  0  0  0  3  0  0  0  0  0  0
  186.0500  177.1420  141.6410 O   0  0  0  0  0  0  0  0  0  0  0  0
  186.3430  176.4300  142.6360 C   0  0  0  0  0  3  0  0  0  0  0  0
  187.9530  177.3860  145.0570 C   0  0  0  0  0  2  0  0  0  0  0  0
  188.0200  176.8210  146.4730 C   0  0  1  0  0  3  0  0  0  0  0  0
  189.1010  177.4810  147.1850 N   0  0  0  0  0  1  0  0  0  0  0  0
  185.5610  177.0930  146.2630 C   0  0  0  0  0  3  0  0  0  0  0  0
  186.6620  178.3330  147.8660 N   0  0  0  0  0  0  0  0  0  0  0  0
  185.0540  178.3070  146.3920 C   0  0  0  0  0  0  0  0  0  0  0  0
  185.7380  179.0520  147.3790 N   0  0  0  0  0  0  0  0  0  0  0  0
  186.7050  177.0160  147.2330 C   0  0  2  0  0  3  0  0  0  0  0  0
  183.8610  178.8110  145.6450 C   0  0  0  0  0  2  0  0  0  0  0  0
  184.2360  179.1680  144.2480 C   0  0  0  0  0  0  0  0  0  0  0  0
  185.2250  179.9050  144.0310 O   0  0  0  0  0  1  0  0  0  0  0  0
  183.4990  178.6800  143.1830 O   0  0  0  0  0  0  0  0  0  0  0  0
  1 15  1  1  0  0  0
  2  6  2  0  0  0  0
  2 17  1  0  0  0  0
  4  9  1  0  0  0  0
  5 18  1  1  0  0  0
  5  1  1  0  0  0  0
  6 12  1  0  0  0  0
  7  3  1  1  0  0  0
  7  1  1  0  0  0  0
  7  6  1  0  0  0  0
  8 10  1  0  0  0  0
  8 37  1  0  0  0  0
  9 25  1  6  0  0  0
 11 16  1  0  0  0  0
 11  3  1  0  0  0  0
 12 14  1  0  0  0  0
 12 10  2  0  0  0  0
 13 15  2  0  0  0  0
 14  9  1  0  0  0  0
 15  4  1  0  0  0  0
 16  5  1  0  0  0  0
 17  8  2  0  0  0  0
 18 19  1  0  0  0  0
 19 21  1  0  0  0  0
 20 18  2  0  0  0  0
 22 24  1  0  0  0  0
 22 21  1  0  0  0  0
 24 23  2  0  0  0  0
 25 27  1  0  0  0  0
 26 25  2  0  0  0  0
 29 28  1  0  0  0  0
 30 28  1  0  0  0  0
 30 27  1  0  0  0  0
 31 29  1  0  0  0  0
 32 31  2  0  0  0  0
 32 34  1  0  0  0  0
 33 32  1  0  0  0  0
 34 30  2  0  0  0  0
 35 36  2  0  0  0  0
 36 17  1  0  0  0  0
 37 38  1  0  0  0  0
 38 39  1  1  0  0  0
 40 42  2  0  0  0  0
 40 44  1  0  0  0  0
 42 43  1  0  0  0  0
 43 41  2  0  0  0  0
 44 38  1  6  0  0  0
 44 41  1  0  0  0  0
 45 42  1  0  0  0  0
 46 45  1  0  0  0  0
 47 46  1  0  0  0  0
 48 46  2  0  0  0  0
M  END
>  <MODEL>
2

>  <REMARK>
 VINA RESULT:      -7.0      2.502      8.346
  Name = 
  13 active torsions:
  status: ('A' for Active; 'I' for Inactive)
    1  A    between atoms: C_2  and  C_10
    2  A    between atoms: C_6  and  C_22
    3  A    between atoms: C_6  and  O_35
    4  A    between atoms: C_8  and  C_26
    5  A    between atoms: C_8  and  N_37
    6  A    between atoms: C_14  and  C_18
    7  A    between atoms: C_14  and  C_47
    8  A    between atoms: C_16  and  O_35
    9  A    between atoms: C_17  and  C_40
   10  A    between atoms: C_18  and  C_21
   11  A    between atoms: N_24  and  N_37
   12  A    between atoms: C_33  and  C_48
   13  A    between atoms: C_38  and  C_40
                            x       y       z     vdW  Elec       q    Type
                         _______ _______ _______ _____ _____    ______ ____

>  <TORSDO>
F 13

$$$$
=
 OpenBabel11062421513D

 48 52  0  0  1  0  0  0  0  0999 V2000
  192.1540  175.6160  144.6680 C   0  0  1  0  0  3  0  0  0  0  0  0
  195.0340  175.4130  142.1280 C   0  0  0  0  0  3  0  0  0  0  0  0
  194.6280  176.0730  144.8930 C   0  0  0  0  0  2  0  0  0  0  0  0
  191.5410  173.2880  143.7910 N   0  0  0  0  0  2  0  0  0  0  0  0
  191.9190  176.3960  145.9800 C   0  0  2  0  0  3  0  0  0  0  0  0
  193.7080  175.4770  142.5820 C   0  0  0  0  0  0  0  0  0  0  0  0
  193.4250  176.1140  143.9440 C   0  0  1  0  0  3  0  0  0  0  0  0
  194.3260  174.4680  140.0090 C   0  0  0  0  0  0  0  0  0  0  0  0
  190.7760  173.7410  142.6190 C   0  0  2  0  0  3  0  0  0  0  0  0
  193.0070  174.5440  140.4430 C   0  0  0  0  0  3  0  0  0  0  0  0
  194.3560  176.9000  146.1430 C   0  0  0  0  0  2  0  0  0  0  0  0
  192.6860  175.0510  141.7020 C   0  0  0  0  0  0  0  0  0  0  0  0
  192.6980  173.5640  145.7900 O   0  0  0  0  0  0  0  0  0  0  0  0
  191.2440  175.0930  142.0750 C   0  0  0  0  0  2  0  0  0  0  0  0
  192.1280  174.1150  144.8110 C   0  0  0  0  0  0  0  0  0  0  0  0
  193.1490  176.3470  146.8880 C   0  0  0  0  0  2  0  0  0  0  0  0
  195.3620  174.9060  140.8680 C   0  0  0  0  0  0  0  0  0  0  0  0
  190.6570  176.0110  146.7050 C   0  0  0  0  0  0  0  0  0  0  0  0
  189.3850  176.3100  146.1280 N   0  0  0  0  0  2  0  0  0  0  0  0
  190.7160  175.3320  147.7640 O   0  0  0  0  0  0  0  0  0  0  0  0
  188.2060  176.1190  146.8520 N   0  0  0  0  0  2  0  0  0  0  0  0
  187.4520  177.3600  146.7750 C   0  0  0  0  0  2  0  0  0  0  0  0
  185.0430  177.8040  146.5690 C   0  0  0  0  0  2  0  0  0  0  0  0
  186.0270  177.1320  147.1690 C   0  0  0  0  0  3  0  0  0  0  0  0
  189.2930  173.7640  142.8860 C   0  0  0  0  0  0  0  0  0  0  0  0
  188.6090  172.7210  142.7050 O   0  0  0  0  0  0  0  0  0  0  0  0
  188.6540  174.8950  143.4200 O   0  0  0  0  0  0  0  0  0  0  0  0
  187.8560  175.8730  141.2650 C   0  0  0  0  0  2  0  0  0  0  0  0
  187.2700  177.1990  140.7740 C   0  0  0  0  0  2  0  0  0  0  0  0
  187.7160  175.6970  142.7530 C   0  0  0  0  0  0  0  0  0  0  0  0
  185.9570  177.5130  141.4410 C   0  0  0  0  0  3  0  0  0  0  0  0
  185.7220  177.1180  142.6920 C   0  0  0  0  0  0  0  0  0  0  0  0
  184.5700  177.4750  143.3040 F   0  0  0  0  0  0  0  0  0  0  0  0
  186.6950  176.2700  143.4020 C   0  0  0  0  0  3  0  0  0  0  0  0
  197.3400  175.7080  139.7790 O   0  0  0  0  0  0  0  0  0  0  0  0
  196.7930  174.8580  140.5290 C   0  0  0  0  0  3  0  0  0  0  0  0
  194.5730  173.9850  138.6110 C   0  0  0  0  0  2  0  0  0  0  0  0
  193.7020  174.7330  137.6080 C   0  0  1  0  0  3  0  0  0  0  0  0
  194.5340  175.6800  136.8860 N   0  0  0  0  0  1  0  0  0  0  0  0
  191.5550  174.1080  136.5260 C   0  0  0  0  0  3  0  0  0  0  0  0
  192.9990  172.4190  137.1390 N   0  0  0  0  0  0  0  0  0  0  0  0
  190.9160  173.0440  136.9770 C   0  0  0  0  0  0  0  0  0  0  0  0
  191.8150  172.0170  137.3460 N   0  0  0  0  0  0  0  0  0  0  0  0
  193.0190  173.7840  136.6190 C   0  0  2  0  0  3  0  0  0  0  0  0
  189.4280  172.9050  137.0250 C   0  0  0  0  0  2  0  0  0  0  0  0
  188.8730  173.6620  138.1820 C   0  0  0  0  0  0  0  0  0  0  0  0
  189.3540  173.5030  139.3270 O   0  0  0  0  0  1  0  0  0  0  0  0
  187.8300  174.5520  137.9950 O   0  0  0  0  0  0  0  0  0  0  0  0
  1 15  1  1  0  0  0
  1  5  1  0  0  0  0
  2  6  1  0  0  0  0
  3 11  1  0  0  0  0
  4 15  1  0  0  0  0
  5 18  1  1  0  0  0
  5 16  1  0  0  0  0
  6  7  1  0  0  0  0
  7  1  1  0  0  0  0
  7  3  1  1  0  0  0
  8 10  2  0  0  0  0
  8 17  1  0  0  0  0
  9 25  1  1  0  0  0
  9  4  1  0  0  0  0
 10 12  1  0  0  0  0
 11 16  1  0  0  0  0
 12 14  1  0  0  0  0
 12  6  2  0  0  0  0
 14  9  1  0  0  0  0
 15 13  2  0  0  0  0
 17  2  2  0  0  0  0
 18 20  2  0  0  0  0
 19 18  1  0  0  0  0
 19 21  1  0  0  0  0
 22 21  1  0  0  0  0
 22 24  1  0  0  0  0
 23 24  2  0  0  0  0
 25 27  1  0  0  0  0
 26 25  2  0  0  0  0
 28 30  1  0  0  0  0
 29 28  1  0  0  0  0
 29 31  1  0  0  0  0
 30 34  2  0  0  0  0
 30 27  1  0  0  0  0
 31 32  2  0  0  0  0
 32 33  1  0  0  0  0
 32 34  1  0  0  0  0
 35 36  2  0  0  0  0
 36 17  1  0  0  0  0
 37  8  1  0  0  0  0
 38 39  1  6  0  0  0
 38 37  1  0  0  0  0
 40 44  1  0  0  0  0
 40 42  2  0  0  0  0
 41 43  2  0  0  0  0
 42 45  1  0  0  0  0
 42 43  1  0  0  0  0
 44 41  1  0  0  0  0
 44 38  1  1  0  0  0
 45 46  1  0  0  0  0
 46 47  1  0  0  0  0
 48 46  2  0  0  0  0
M  END
>  <MODEL>
3

>  <REMARK>
 VINA RESULT:      -7.0      2.672      6.271
  Name = 
  13 active torsions:
  status: ('A' for Active; 'I' for Inactive)
    1  A    between atoms: C_2  and  C_10
    2  A    between atoms: C_6  and  C_22
    3  A    between atoms: C_6  and  O_35
    4  A    between atoms: C_8  and  C_26
    5  A    between atoms: C_8  and  N_37
    6  A    between atoms: C_14  and  C_18
    7  A    between atoms: C_14  and  C_47
    8  A    between atoms: C_16  and  O_35
    9  A    between atoms: C_17  and  C_40
   10  A    between atoms: C_18  and  C_21
   11  A    between atoms: N_24  and  N_37
   12  A    between atoms: C_33  and  C_48
   13  A    between atoms: C_38  and  C_40
                            x       y       z     vdW  Elec       q    Type
                         _______ _______ _______ _____ _____    ______ ____

>  <TORSDO>
F 13

$$$$
=
 OpenBabel11062421513D

 48 52  0  0  1  0  0  0  0  0999 V2000
  191.9730  172.7360  143.3630 C   0  0  1  0  0  3  0  0  0  0  0  0
  190.9990  175.2300  146.1230 C   0  0  0  0  0  3  0  0  0  0  0  0
  193.1750  173.4810  145.4560 C   0  0  0  0  0  2  0  0  0  0  0  0
  191.2880  174.6160  141.7610 N   0  0  0  0  0  2  0  0  0  0  0  0
  192.9150  171.5160  143.2890 C   0  0  2  0  0  3  0  0  0  0  0  0
  190.8180  174.3730  145.0280 C   0  0  0  0  0  0  0  0  0  0  0  0
  191.8060  173.2230  144.8200 C   0  0  1  0  0  3  0  0  0  0  0  0
  188.9570  176.4300  145.5990 C   0  0  0  0  0  0  0  0  0  0  0  0
  189.8460  174.3260  141.7620 C   0  0  2  0  0  3  0  0  0  0  0  0
  188.7580  175.5730  144.5230 C   0  0  0  0  0  3  0  0  0  0  0  0
  194.0400  172.2280  145.3990 C   0  0  0  0  0  2  0  0  0  0  0  0
  189.6580  174.5470  144.2360 C   0  0  0  0  0  0  0  0  0  0  0  0
  193.5220  174.2080  142.2670 O   0  0  0  0  0  0  0  0  0  0  0  0
  189.3580  173.6810  143.0620 C   0  0  0  0  0  2  0  0  0  0  0  0
  192.3210  173.8620  142.4210 C   0  0  0  0  0  0  0  0  0  0  0  0
  194.2630  171.8080  143.9520 C   0  0  0  0  0  2  0  0  0  0  0  0
  190.1000  176.2610  146.4140 C   0  0  0  0  0  0  0  0  0  0  0  0
  193.0710  170.9440  141.9060 C   0  0  0  0  0  0  0  0  0  0  0  0
  191.9380  170.3980  141.2290 N   0  0  0  0  0  2  0  0  0  0  0  0
  194.1710  171.0400  141.2990 O   0  0  0  0  0  0  0  0  0  0  0  0
  192.0850  169.7120  140.0220 N   0  0  0  0  0  2  0  0  0  0  0  0
  190.7960  169.1120  139.7120 C   0  0  0  0  0  2  0  0  0  0  0  0
  189.6020  169.8700  137.7010 C   0  0  0  0  0  2  0  0  0  0  0  0
  190.5620  169.1100  138.2340 C   0  0  0  0  0  3  0  0  0  0  0  0
  189.4360  173.4940  140.5730 C   0  0  0  0  0  0  0  0  0  0  0  0
  189.1350  172.2810  140.7340 O   0  0  0  0  0  0  0  0  0  0  0  0
  189.2900  174.0530  139.2940 O   0  0  0  0  0  0  0  0  0  0  0  0
  189.3860  173.9330  136.8020 C   0  0  0  0  0  2  0  0  0  0  0  0
  189.8710  172.9480  135.7350 C   0  0  0  0  0  2  0  0  0  0  0  0
  190.0060  173.6760  138.1490 C   0  0  0  0  0  0  0  0  0  0  0  0
  191.3520  172.6960  135.8370 C   0  0  0  0  0  3  0  0  0  0  0  0
  191.9640  172.7320  137.0200 C   0  0  0  0  0  0  0  0  0  0  0  0
  193.2790  172.4260  137.1050 F   0  0  0  0  0  0  0  0  0  0  0  0
  191.2260  173.1330  138.2300 C   0  0  0  0  0  3  0  0  0  0  0  0
  191.4790  176.9640  148.2430 O   0  0  0  0  0  0  0  0  0  0  0  0
  190.4280  177.1130  147.5680 C   0  0  0  0  0  3  0  0  0  0  0  0
  187.8980  177.4540  145.8800 C   0  0  0  0  0  2  0  0  0  0  0  0
  186.5290  176.7990  146.0430 C   0  0  1  0  0  3  0  0  0  0  0  0
  186.1480  176.8630  147.4430 N   0  0  0  0  0  1  0  0  0  0  0  0
  185.6350  177.0880  143.7440 C   0  0  0  0  0  3  0  0  0  0  0  0
  185.6750  178.9250  145.1360 N   0  0  0  0  0  0  0  0  0  0  0  0
  185.9290  178.2010  143.0940 C   0  0  0  0  0  0  0  0  0  0  0  0
  185.9480  179.3170  143.9620 N   0  0  0  0  0  0  0  0  0  0  0  0
  185.4610  177.4810  145.1830 C   0  0  2  0  0  3  0  0  0  0  0  0
  186.1440  178.2890  141.6180 C   0  0  0  0  0  2  0  0  0  0  0  0
  187.4020  177.5890  141.2340 C   0  0  0  0  0  0  0  0  0  0  0  0
  187.3570  176.5630  140.5160 O   0  0  0  0  0  0  0  0  0  0  0  0
  188.6260  178.0720  141.6620 O   0  0  0  0  0  1  0  0  0  0  0  0
  1 15  1  6  0  0  0
  1  7  1  0  0  0  0
  2 17  1  0  0  0  0
  4  9  1  0  0  0  0
  4 15  1  0  0  0  0
  5 18  1  6  0  0  0
  5  1  1  0  0  0  0
  5 16  1  0  0  0  0
  6  2  2  0  0  0  0
  7  6  1  0  0  0  0
  7  3  1  6  0  0  0
  8 37  1  0  0  0  0
  8 17  2  0  0  0  0
  9 25  1  6  0  0  0
  9 14  1  0  0  0  0
 10  8  1  0  0  0  0
 11  3  1  0  0  0  0
 12 10  2  0  0  0  0
 12  6  1  0  0  0  0
 13 15  2  0  0  0  0
 14 12  1  0  0  0  0
 16 11  1  0  0  0  0
 17 36  1  0  0  0  0
 19 18  1  0  0  0  0
 20 18  2  0  0  0  0
 21 19  1  0  0  0  0
 22 21  1  0  0  0  0
 23 24  2  0  0  0  0
 24 22  1  0  0  0  0
 25 26  2  0  0  0  0
 27 25  1  0  0  0  0
 28 30  1  0  0  0  0
 29 31  1  0  0  0  0
 29 28  1  0  0  0  0
 30 34  2  0  0  0  0
 30 27  1  0  0  0  0
 31 32  2  0  0  0  0
 32 33  1  0  0  0  0
 32 34  1  0  0  0  0
 36 35  2  0  0  0  0
 37 38  1  0  0  0  0
 38 39  1  1  0  0  0
 40 44  1  0  0  0  0
 41 44  1  0  0  0  0
 42 40  2  0  0  0  0
 42 43  1  0  0  0  0
 43 41  2  0  0  0  0
 44 38  1  1  0  0  0
 45 42  1  0  0  0  0
 46 45  1  0  0  0  0
 46 48  1  0  0  0  0
 47 46  2  0  0  0  0
M  END
>  <MODEL>
4

>  <REMARK>
 VINA RESULT:      -6.9      2.437      8.934
  Name = 
  13 active torsions:
  status: ('A' for Active; 'I' for Inactive)
    1  A    between atoms: C_2  and  C_10
    2  A    between atoms: C_6  and  C_22
    3  A    between atoms: C_6  and  O_35
    4  A    between atoms: C_8  and  C_26
    5  A    between atoms: C_8  and  N_37
    6  A    between atoms: C_14  and  C_18
    7  A    between atoms: C_14  and  C_47
    8  A    between atoms: C_16  and  O_35
    9  A    between atoms: C_17  and  C_40
   10  A    between atoms: C_18  and  C_21
   11  A    between atoms: N_24  and  N_37
   12  A    between atoms: C_33  and  C_48
   13  A    between atoms: C_38  and  C_40
                            x       y       z     vdW  Elec       q    Type
                         _______ _______ _______ _____ _____    ______ ____

>  <TORSDO>
F 13

$$$$
=
 OpenBabel11062421513D

 48 52  0  0  1  0  0  0  0  0999 V2000
  193.8070  173.5660  143.7290 C   0  0  1  0  0  3  0  0  0  0  0  0
  192.1500  175.5650  146.5650 C   0  0  0  0  0  3  0  0  0  0  0  0
  194.7120  175.3320  145.2920 C   0  0  0  0  0  2  0  0  0  0  0  0
  191.7460  174.2530  142.3700 N   0  0  0  0  0  2  0  0  0  0  0  0
  195.2580  173.1550  143.3980 C   0  0  2  0  0  3  0  0  0  0  0  0
  192.3030  174.5410  145.6200 C   0  0  0  0  0  0  0  0  0  0  0  0
  193.7120  174.1810  145.1440 C   0  0  1  0  0  3  0  0  0  0  0  0
  189.7580  175.1770  146.6890 C   0  0  0  0  0  0  0  0  0  0  0  0
  190.8590  173.1820  142.8480 C   0  0  2  0  0  3  0  0  0  0  0  0
  189.9020  174.1470  145.7660 C   0  0  0  0  0  3  0  0  0  0  0  0
  196.1300  174.8540  145.0030 C   0  0  0  0  0  2  0  0  0  0  0  0
  191.1510  173.8130  145.2400 C   0  0  0  0  0  0  0  0  0  0  0  0
  193.7760  175.3650  142.1390 O   0  0  0  0  0  0  0  0  0  0  0  0
  191.2030  172.6940  144.2580 C   0  0  0  0  0  2  0  0  0  0  0  0
  193.1390  174.4270  142.6860 C   0  0  0  0  0  0  0  0  0  0  0  0
  196.2260  174.3260  143.5780 C   0  0  0  0  0  2  0  0  0  0  0  0
  190.9010  175.9050  147.0950 C   0  0  0  0  0  0  0  0  0  0  0  0
  195.4150  172.4840  142.0600 C   0  0  0  0  0  0  0  0  0  0  0  0
  196.0250  173.1880  140.9780 N   0  0  0  0  0  2  0  0  0  0  0  0
  195.1100  171.2700  141.9190 O   0  0  0  0  0  0  0  0  0  0  0  0
  196.0310  172.6560  139.6870 N   0  0  0  0  0  2  0  0  0  0  0  0
  195.1390  173.4760  138.8820 C   0  0  0  0  0  2  0  0  0  0  0  0
  193.4490  171.6940  138.7620 C   0  0  0  0  0  2  0  0  0  0  0  0
  193.7310  172.9790  138.9900 C   0  0  0  0  0  3  0  0  0  0  0  0
  190.8050  172.0210  141.8870 C   0  0  0  0  0  0  0  0  0  0  0  0
  191.6880  171.1240  141.9410 O   0  0  0  0  0  0  0  0  0  0  0  0
  189.7430  171.8580  140.9840 O   0  0  0  0  0  0  0  0  0  0  0  0
  190.0050  173.5270  139.1450 C   0  0  0  0  0  2  0  0  0  0  0  0
  189.4020  173.7900  137.7620 C   0  0  0  0  0  2  0  0  0  0  0  0
  189.7940  172.1090  139.6050 C   0  0  0  0  0  0  0  0  0  0  0  0
  189.6620  172.6520  136.8110 C   0  0  0  0  0  3  0  0  0  0  0  0
  189.7440  171.4000  137.2610 C   0  0  0  0  0  0  0  0  0  0  0  0
  189.8990  170.3810  136.3850 F   0  0  0  0  0  0  0  0  0  0  0  0
  189.6970  171.1220  138.7070 C   0  0  0  0  0  3  0  0  0  0  0  0
  191.8530  177.3100  148.7860 O   0  0  0  0  0  0  0  0  0  0  0  0
  190.8740  177.0240  148.0490 C   0  0  0  0  0  3  0  0  0  0  0  0
  188.3930  175.4140  147.2610 C   0  0  0  0  0  2  0  0  0  0  0  0
  187.7590  176.6700  146.6710 C   0  0  1  0  0  3  0  0  0  0  0  0
  187.6700  176.5110  145.2300 N   0  0  0  0  0  1  0  0  0  0  0  0
  185.3820  177.1500  146.1360 C   0  0  0  0  0  3  0  0  0  0  0  0
  186.3310  178.2220  147.9430 N   0  0  0  0  0  0  0  0  0  0  0  0
  184.9540  178.3940  146.2600 C   0  0  0  0  0  0  0  0  0  0  0  0
  185.5430  179.0360  147.3740 N   0  0  0  0  0  0  0  0  0  0  0  0
  186.3670  176.9370  147.2490 C   0  0  2  0  0  3  0  0  0  0  0  0
  183.9210  179.0270  145.3840 C   0  0  0  0  0  2  0  0  0  0  0  0
  184.3890  179.0570  143.9700 C   0  0  0  0  0  0  0  0  0  0  0  0
  183.7360  178.4690  143.0780 O   0  0  0  0  0  0  0  0  0  0  0  0
  185.5430  179.7430  143.6340 O   0  0  0  0  0  1  0  0  0  0  0  0
  1 15  1  6  0  0  0
  1  7  1  0  0  0  0
  2 17  1  0  0  0  0
  4 15  1  0  0  0  0
  4  9  1  0  0  0  0
  5 18  1  6  0  0  0
  5 16  1  0  0  0  0
  5  1  1  0  0  0  0
  6  2  2  0  0  0  0
  7  3  1  6  0  0  0
  7  6  1  0  0  0  0
  8 17  2  0  0  0  0
  8 37  1  0  0  0  0
  9 25  1  6  0  0  0
  9 14  1  0  0  0  0
 10  8  1  0  0  0  0
 11  3  1  0  0  0  0
 12  6  1  0  0  0  0
 12 10  2  0  0  0  0
 13 15  2  0  0  0  0
 14 12  1  0  0  0  0
 16 11  1  0  0  0  0
 17 36  1  0  0  0  0
 19 18  1  0  0  0  0
 20 18  2  0  0  0  0
 21 19  1  0  0  0  0
 22 24  1  0  0  0  0
 22 21  1  0  0  0  0
 23 24  2  0  0  0  0
 25 26  2  0  0  0  0
 27 25  1  0  0  0  0
 28 30  1  0  0  0  0
 29 28  1  0  0  0  0
 30 27  1  0  0  0  0
 31 32  2  0  0  0  0
 31 29  1  0  0  0  0
 32 34  1  0  0  0  0
 33 32  1  0  0  0  0
 34 30  2  0  0  0  0
 36 35  2  0  0  0  0
 38 39  1  6  0  0  0
 38 37  1  0  0  0  0
 40 42  2  0  0  0  0
 40 44  1  0  0  0  0
 42 43  1  0  0  0  0
 43 41  2  0  0  0  0
 44 38  1  6  0  0  0
 44 41  1  0  0  0  0
 45 42  1  0  0  0  0
 46 45  1  0  0  0  0
 47 46  2  0  0  0  0
 48 46  1  0  0  0  0
M  END
>  <MODEL>
5

>  <REMARK>
 VINA RESULT:      -6.9      2.918      9.540
  Name = 
  13 active torsions:
  status: ('A' for Active; 'I' for Inactive)
    1  A    between atoms: C_2  and  C_10
    2  A    between atoms: C_6  and  C_22
    3  A    between atoms: C_6  and  O_35
    4  A    between atoms: C_8  and  C_26
    5  A    between atoms: C_8  and  N_37
    6  A    between atoms: C_14  and  C_18
    7  A    between atoms: C_14  and  C_47
    8  A    between atoms: C_16  and  O_35
    9  A    between atoms: C_17  and  C_40
   10  A    between atoms: C_18  and  C_21
   11  A    between atoms: N_24  and  N_37
   12  A    between atoms: C_33  and  C_48
   13  A    between atoms: C_38  and  C_40
                            x       y       z     vdW  Elec       q    Type
                         _______ _______ _______ _____ _____    ______ ____

>  <TORSDO>
F 13

$$$$
=
 OpenBabel11062421513D

 48 52  0  0  1  0  0  0  0  0999 V2000
  190.8890  175.3610  145.0240 C   0  0  1  0  0  3  0  0  0  0  0  0
  193.5950  172.6430  145.2960 C   0  0  0  0  0  3  0  0  0  0  0  0
  192.6520  174.9140  146.7770 C   0  0  0  0  0  2  0  0  0  0  0  0
  189.3160  173.4010  144.5220 N   0  0  0  0  0  2  0  0  0  0  0  0
  190.7250  176.7870  145.5920 C   0  0  2  0  0  3  0  0  0  0  0  0
  192.6210  173.4450  144.6840 C   0  0  0  0  0  0  0  0  0  0  0  0
  192.3110  174.8170  145.2860 C   0  0  1  0  0  3  0  0  0  0  0  0
  193.3870  170.9610  143.5600 C   0  0  0  0  0  0  0  0  0  0  0  0
  189.6150  173.3040  143.0850 C   0  0  2  0  0  3  0  0  0  0  0  0
  192.4340  171.7580  142.9350 C   0  0  0  0  0  3  0  0  0  0  0  0
  192.5210  176.3510  147.2670 C   0  0  0  0  0  2  0  0  0  0  0  0
  192.0560  172.9910  143.4690 C   0  0  0  0  0  0  0  0  0  0  0  0
  189.4110  174.3690  146.6350 O   0  0  0  0  0  0  0  0  0  0  0  0
  191.0280  173.7710  142.7270 C   0  0  0  0  0  2  0  0  0  0  0  0
  189.8180  174.3850  145.4440 C   0  0  0  0  0  0  0  0  0  0  0  0
  191.0940  176.8440  147.0760 C   0  0  0  0  0  2  0  0  0  0  0  0
  193.9770  171.4070  144.7660 C   0  0  0  0  0  0  0  0  0  0  0  0
  189.3830  177.4080  145.3120 C   0  0  0  0  0  0  0  0  0  0  0  0
  188.4160  177.5150  146.3580 N   0  0  0  0  0  2  0  0  0  0  0  0
  189.1470  177.9320  144.1910 O   0  0  0  0  0  0  0  0  0  0  0  0
  187.1100  177.9300  146.0890 N   0  0  0  0  0  2  0  0  0  0  0  0
  186.2420  176.7860  146.3230 C   0  0  0  0  0  2  0  0  0  0  0  0
  184.4350  178.4530  146.3330 C   0  0  0  0  0  2  0  0  0  0  0  0
  184.8650  177.2410  146.6910 C   0  0  0  0  0  3  0  0  0  0  0  0
  188.5910  174.0230  142.2440 C   0  0  0  0  0  0  0  0  0  0  0  0
  187.6770  173.3680  141.6770 O   0  0  0  0  0  0  0  0  0  0  0  0
  188.5690  175.4240  142.1430 O   0  0  0  0  0  0  0  0  0  0  0  0
  187.2440  176.5970  140.3810 C   0  0  0  0  0  2  0  0  0  0  0  0
  186.4650  177.9070  140.2370 C   0  0  0  0  0  2  0  0  0  0  0  0
  187.4500  176.2040  141.8190 C   0  0  0  0  0  0  0  0  0  0  0  0
  185.3110  177.9830  141.2020 C   0  0  0  0  0  3  0  0  0  0  0  0
  185.3890  177.3960  142.3970 C   0  0  0  0  0  0  0  0  0  0  0  0
  184.3770  177.5400  143.2820 F   0  0  0  0  0  0  0  0  0  0  0  0
  186.5560  176.5690  142.7470 C   0  0  0  0  0  3  0  0  0  0  0  0
  194.6790  169.9240  146.5110 O   0  0  0  0  0  0  0  0  0  0  0  0
  194.9810  170.6460  145.5270 C   0  0  0  0  0  3  0  0  0  0  0  0
  193.7910  169.6910  142.8740 C   0  0  0  0  0  2  0  0  0  0  0  0
  193.8420  169.8750  141.3600 C   0  0  1  0  0  3  0  0  0  0  0  0
  195.2310  169.8540  140.9370 N   0  0  0  0  0  1  0  0  0  0  0  0
  192.4240  169.3570  139.3870 C   0  0  0  0  0  3  0  0  0  0  0  0
  191.8970  168.3630  141.4000 N   0  0  0  0  0  0  0  0  0  0  0  0
  191.1190  169.2540  139.5660 C   0  0  0  0  0  0  0  0  0  0  0  0
  190.8130  168.6410  140.8030 N   0  0  0  0  0  0  0  0  0  0  0  0
  193.0600  168.7850  140.6220 C   0  0  2  0  0  3  0  0  0  0  0  0
  190.0910  169.6630  138.5620 C   0  0  0  0  0  2  0  0  0  0  0  0
  189.8410  171.1290  138.6430 C   0  0  0  0  0  0  0  0  0  0  0  0
  189.4740  171.7620  137.6260 O   0  0  0  0  0  0  0  0  0  0  0  0
  190.0070  171.7980  139.8430 O   0  0  0  0  0  1  0  0  0  0  0  0
  1  7  1  0  0  0  0
  1 15  1  1  0  0  0
  1  5  1  0  0  0  0
  3 11  1  0  0  0  0
  4 15  1  0  0  0  0
  5 18  1  1  0  0  0
  5 16  1  0  0  0  0
  6  7  1  0  0  0  0
  6  2  2  0  0  0  0
  7  3  1  1  0  0  0
  8 17  2  0  0  0  0
  9 25  1  6  0  0  0
  9  4  1  0  0  0  0
 10 12  2  0  0  0  0
 10  8  1  0  0  0  0
 12  6  1  0  0  0  0
 14  9  1  0  0  0  0
 14 12  1  0  0  0  0
 15 13  2  0  0  0  0
 16 11  1  0  0  0  0
 17  2  1  0  0  0  0
 17 36  1  0  0  0  0
 18 19  1  0  0  0  0
 20 18  2  0  0  0  0
 21 22  1  0  0  0  0
 21 19  1  0  0  0  0
 22 24  1  0  0  0  0
 23 24  2  0  0  0  0
 26 25  2  0  0  0  0
 27 25  1  0  0  0  0
 28 30  1  0  0  0  0
 29 28  1  0  0  0  0
 29 31  1  0  0  0  0
 30 27  1  0  0  0  0
 30 34  2  0  0  0  0
 31 32  2  0  0  0  0
 32 34  1  0  0  0  0
 32 33  1  0  0  0  0
 36 35  2  0  0  0  0
 37  8  1  0  0  0  0
 38 39  1  6  0  0  0
 38 37  1  0  0  0  0
 40 42  2  0  0  0  0
 40 44  1  0  0  0  0
 42 43  1  0  0  0  0
 43 41  2  0  0  0  0
 44 38  1  1  0  0  0
 44 41  1  0  0  0  0
 45 46  1  0  0  0  0
 45 42  1  0  0  0  0
 46 48  1  0  0  0  0
 47 46  2  0  0  0  0
M  END
>  <MODEL>
6

>  <REMARK>
 VINA RESULT:      -6.9      3.038      6.361
  Name = 
  13 active torsions:
  status: ('A' for Active; 'I' for Inactive)
    1  A    between atoms: C_2  and  C_10
    2  A    between atoms: C_6  and  C_22
    3  A    between atoms: C_6  and  O_35
    4  A    between atoms: C_8  and  C_26
    5  A    between atoms: C_8  and  N_37
    6  A    between atoms: C_14  and  C_18
    7  A    between atoms: C_14  and  C_47
    8  A    between atoms: C_16  and  O_35
    9  A    between atoms: C_17  and  C_40
   10  A    between atoms: C_18  and  C_21
   11  A    between atoms: N_24  and  N_37
   12  A    between atoms: C_33  and  C_48
   13  A    between atoms: C_38  and  C_40
                            x       y       z     vdW  Elec       q    Type
                         _______ _______ _______ _____ _____    ______ ____

>  <TORSDO>
F 13

$$$$
=
 OpenBabel11062421513D

 48 52  0  0  1  0  0  0  0  0999 V2000
  190.8680  176.2300  145.5340 C   0  0  1  0  0  3  0  0  0  0  0  0
  194.5180  176.3330  144.3290 C   0  0  0  0  0  3  0  0  0  0  0  0
  193.0460  176.4810  146.7880 C   0  0  0  0  0  2  0  0  0  0  0  0
  190.6910  174.1520  144.0440 N   0  0  0  0  0  2  0  0  0  0  0  0
  190.1220  176.7610  146.7770 C   0  0  2  0  0  3  0  0  0  0  0  0
  193.1200  176.3920  144.2340 C   0  0  0  0  0  0  0  0  0  0  0  0
  192.3130  176.7760  145.4760 C   0  0  1  0  0  3  0  0  0  0  0  0
  194.7190  175.8520  141.9590 C   0  0  0  0  0  0  0  0  0  0  0  0
  190.4420  174.8660  142.7820 C   0  0  2  0  0  3  0  0  0  0  0  0
  193.3350  175.9270  141.8520 C   0  0  0  0  0  3  0  0  0  0  0  0
  192.2900  177.0720  147.9720 C   0  0  0  0  0  2  0  0  0  0  0  0
  192.5340  176.2050  142.9600 C   0  0  0  0  0  0  0  0  0  0  0  0
  190.9640  173.9730  146.3470 O   0  0  0  0  0  0  0  0  0  0  0  0
  191.0620  176.2650  142.7430 C   0  0  0  0  0  2  0  0  0  0  0  0
  190.8150  174.7330  145.3540 C   0  0  0  0  0  0  0  0  0  0  0  0
  190.8970  176.4640  148.0620 C   0  0  0  0  0  2  0  0  0  0  0  0
  195.3250  176.0540  143.2220 C   0  0  0  0  0  0  0  0  0  0  0  0
  188.6840  176.3250  146.8620 C   0  0  0  0  0  0  0  0  0  0  0  0
  187.6910  176.9900  146.0810 N   0  0  0  0  0  2  0  0  0  0  0  0
  188.3680  175.3080  147.5350 O   0  0  0  0  0  0  0  0  0  0  0  0
  186.3330  176.7210  146.2660 N   0  0  0  0  0  2  0  0  0  0  0  0
  185.8330  177.6910  147.2280 C   0  0  0  0  0  2  0  0  0  0  0  0
  184.1620  178.6620  145.7090 C   0  0  0  0  0  2  0  0  0  0  0  0
  184.4330  178.0930  146.8850 C   0  0  0  0  0  3  0  0  0  0  0  0
  188.9730  174.9300  142.4490 C   0  0  0  0  0  0  0  0  0  0  0  0
  188.4360  173.9870  141.8080 O   0  0  0  0  0  0  0  0  0  0  0  0
  188.1540  175.9730  142.9120 O   0  0  0  0  0  0  0  0  0  0  0  0
  186.3560  177.7020  142.8090 C   0  0  0  0  0  2  0  0  0  0  0  0
  185.0990  177.9790  141.9800 C   0  0  0  0  0  2  0  0  0  0  0  0
  187.3060  176.7600  142.1200 C   0  0  0  0  0  0  0  0  0  0  0  0
  185.4210  178.1810  140.5230 C   0  0  0  0  0  3  0  0  0  0  0  0
  186.4470  177.5410  139.9620 C   0  0  0  0  0  0  0  0  0  0  0  0
  186.6750  177.6720  138.6360 F   0  0  0  0  0  0  0  0  0  0  0  0
  187.3500  176.7150  140.7830 C   0  0  0  0  0  3  0  0  0  0  0  0
  197.5600  176.9150  143.1530 O   0  0  0  0  0  0  0  0  0  0  0  0
  196.7740  175.9830  143.4640 C   0  0  0  0  0  3  0  0  0  0  0  0
  195.5050  175.6280  140.7020 C   0  0  0  0  0  2  0  0  0  0  0  0
  194.9230  174.4760  139.8880 C   0  0  1  0  0  3  0  0  0  0  0  0
  194.9690  174.8330  138.4810 N   0  0  0  0  0  1  0  0  0  0  0  0
  195.1690  172.4800  141.3450 C   0  0  0  0  0  3  0  0  0  0  0  0
  197.0780  173.4350  140.4750 N   0  0  0  0  0  0  0  0  0  0  0  0
  196.1760  172.4510  142.2000 C   0  0  0  0  0  0  0  0  0  0  0  0
  197.3380  173.0390  141.6510 N   0  0  0  0  0  0  0  0  0  0  0  0
  195.6870  173.1690  140.1150 C   0  0  2  0  0  3  0  0  0  0  0  0
  196.1230  171.8140  143.5520 C   0  0  0  0  0  2  0  0  0  0  0  0
  195.4830  172.7330  144.5340 C   0  0  0  0  0  0  0  0  0  0  0  0
  196.1760  173.2980  145.4120 O   0  0  0  0  0  1  0  0  0  0  0  0
  194.1220  172.9740  144.4760 O   0  0  0  0  0  0  0  0  0  0  0  0
  1 15  1  1  0  0  0
  1  5  1  0  0  0  0
  3 11  1  0  0  0  0
  4 15  1  0  0  0  0
  5 18  1  1  0  0  0
  5 16  1  0  0  0  0
  6  2  1  0  0  0  0
  6  7  1  0  0  0  0
  7  1  1  0  0  0  0
  7  3  1  1  0  0  0
  8 17  1  0  0  0  0
  9 25  1  1  0  0  0
  9  4  1  0  0  0  0
 10  8  2  0  0  0  0
 10 12  1  0  0  0  0
 11 16  1  0  0  0  0
 12  6  2  0  0  0  0
 14  9  1  0  0  0  0
 14 12  1  0  0  0  0
 15 13  2  0  0  0  0
 17 36  1  0  0  0  0
 17  2  2  0  0  0  0
 18 20  2  0  0  0  0
 19 21  1  0  0  0  0
 19 18  1  0  0  0  0
 21 22  1  0  0  0  0
 23 24  2  0  0  0  0
 24 22  1  0  0  0  0
 25 27  1  0  0  0  0
 26 25  2  0  0  0  0
 29 28  1  0  0  0  0
 30 28  1  0  0  0  0
 30 27  1  0  0  0  0
 31 29  1  0  0  0  0
 32 31  2  0  0  0  0
 32 34  1  0  0  0  0
 33 32  1  0  0  0  0
 34 30  2  0  0  0  0
 35 36  2  0  0  0  0
 37  8  1  0  0  0  0
 38 39  1  6  0  0  0
 38 37  1  0  0  0  0
 40 42  2  0  0  0  0
 41 43  2  0  0  0  0
 42 45  1  0  0  0  0
 43 42  1  0  0  0  0
 44 38  1  1  0  0  0
 44 41  1  0  0  0  0
 44 40  1  0  0  0  0
 45 46  1  0  0  0  0
 46 47  1  0  0  0  0
 48 46  2  0  0  0  0
M  END
>  <MODEL>
7

>  <REMARK>
 VINA RESULT:      -6.9      2.906      6.104
  Name = 
  13 active torsions:
  status: ('A' for Active; 'I' for Inactive)
    1  A    between atoms: C_2  and  C_10
    2  A    between atoms: C_6  and  C_22
    3  A    between atoms: C_6  and  O_35
    4  A    between atoms: C_8  and  C_26
    5  A    between atoms: C_8  and  N_37
    6  A    between atoms: C_14  and  C_18
    7  A    between atoms: C_14  and  C_47
    8  A    between atoms: C_16  and  O_35
    9  A    between atoms: C_17  and  C_40
   10  A    between atoms: C_18  and  C_21
   11  A    between atoms: N_24  and  N_37
   12  A    between atoms: C_33  and  C_48
   13  A    between atoms: C_38  and  C_40
                            x       y       z     vdW  Elec       q    Type
                         _______ _______ _______ _____ _____    ______ ____

>  <TORSDO>
F 13

$$$$
=
 OpenBabel11062421513D

 48 52  0  0  1  0  0  0  0  0999 V2000
  187.7800  176.3220  142.5990 C   0  0  1  0  0  3  0  0  0  0  0  0
  188.5620  174.3870  139.3700 C   0  0  0  0  0  3  0  0  0  0  0  0
  187.0770  176.6990  140.2020 C   0  0  0  0  0  2  0  0  0  0  0  0
  190.3080  176.1980  142.9970 N   0  0  0  0  0  2  0  0  0  0  0  0
  186.6390  177.2590  143.0520 C   0  0  2  0  0  3  0  0  0  0  0  0
  188.4620  174.6200  140.7490 C   0  0  0  0  0  0  0  0  0  0  0  0
  187.4430  175.6440  141.2520 C   0  0  1  0  0  3  0  0  0  0  0  0
  190.1970  172.6300  139.7240 C   0  0  0  0  0  0  0  0  0  0  0  0
  190.3230  174.8540  143.5940 C   0  0  2  0  0  3  0  0  0  0  0  0
  190.0910  172.8400  141.0940 C   0  0  0  0  0  3  0  0  0  0  0  0
  185.9140  177.5570  140.6840 C   0  0  0  0  0  2  0  0  0  0  0  0
  189.2310  173.8070  141.6160 C   0  0  0  0  0  0  0  0  0  0  0  0
  189.3060  178.1230  142.1580 O   0  0  0  0  0  0  0  0  0  0  0  0
  189.1870  173.9570  143.0970 C   0  0  0  0  0  2  0  0  0  0  0  0
  189.1510  176.9520  142.5950 C   0  0  0  0  0  0  0  0  0  0  0  0
  186.2910  178.2820  141.9680 C   0  0  0  0  0  2  0  0  0  0  0  0
  189.4220  173.4200  138.8420 C   0  0  0  0  0  0  0  0  0  0  0  0
  186.8680  177.9020  144.3930 C   0  0  0  0  0  0  0  0  0  0  0  0
  187.4120  177.1340  145.4670 N   0  0  0  0  0  2  0  0  0  0  0  0
  186.6850  179.1390  144.5440 O   0  0  0  0  0  0  0  0  0  0  0  0
  187.4770  177.6550  146.7610 N   0  0  0  0  0  2  0  0  0  0  0  0
  186.3010  177.1800  147.4720 C   0  0  0  0  0  2  0  0  0  0  0  0
  184.1940  178.3010  146.8840 C   0  0  0  0  0  2  0  0  0  0  0  0
  185.3020  178.2840  147.6270 C   0  0  0  0  0  3  0  0  0  0  0  0
  190.3340  174.9050  145.1010 C   0  0  0  0  0  0  0  0  0  0  0  0
  189.4790  174.2500  145.7540 O   0  0  0  0  0  0  0  0  0  0  0  0
  191.3310  175.5940  145.8110 O   0  0  0  0  0  0  0  0  0  0  0  0
  193.4420  176.7300  145.1140 C   0  0  0  0  0  2  0  0  0  0  0  0
  194.6900  176.3930  144.2930 C   0  0  0  0  0  2  0  0  0  0  0  0
  192.7110  175.5010  145.5830 C   0  0  0  0  0  0  0  0  0  0  0  0
  195.4650  175.2500  144.8930 C   0  0  0  0  0  3  0  0  0  0  0  0
  194.8340  174.2780  145.5530 C   0  0  0  0  0  0  0  0  0  0  0  0
  195.5350  173.2190  146.0170 F   0  0  0  0  0  0  0  0  0  0  0  0
  193.3850  174.3660  145.8050 C   0  0  0  0  0  3  0  0  0  0  0  0
  190.0100  174.1670  136.6430 O   0  0  0  0  0  0  0  0  0  0  0  0
  189.4620  173.3030  137.3760 C   0  0  0  0  0  3  0  0  0  0  0  0
  191.0850  171.5160  139.2570 C   0  0  0  0  0  2  0  0  0  0  0  0
  190.3310  170.1910  139.2140 C   0  0  1  0  0  3  0  0  0  0  0  0
  190.2200  169.7640  137.8300 N   0  0  0  0  0  1  0  0  0  0  0  0
  190.9110  169.4160  141.5010 C   0  0  0  0  0  3  0  0  0  0  0  0
  192.4760  169.1470  139.8300 N   0  0  0  0  0  0  0  0  0  0  0  0
  192.1440  169.6160  141.9340 C   0  0  0  0  0  0  0  0  0  0  0  0
  193.0900  169.4450  140.8980 N   0  0  0  0  0  0  0  0  0  0  0  0
  191.0300  169.1050  140.0370 C   0  0  2  0  0  3  0  0  0  0  0  0
  192.5070  169.9120  143.3540 C   0  0  0  0  0  2  0  0  0  0  0  0
  192.2600  171.3480  143.6630 C   0  0  0  0  0  0  0  0  0  0  0  0
  191.4250  171.6690  144.5400 O   0  0  0  0  0  1  0  0  0  0  0  0
  192.9590  172.3340  142.9890 O   0  0  0  0  0  0  0  0  0  0  0  0
  1 15  1  6  0  0  0
  1  5  1  0  0  0  0
  2  6  1  0  0  0  0
  3 11  1  0  0  0  0
  4  9  1  0  0  0  0
  5 18  1  1  0  0  0
  6  7  1  0  0  0  0
  6 12  2  0  0  0  0
  7  3  1  6  0  0  0
  7  1  1  0  0  0  0
  8 10  2  0  0  0  0
  9 25  1  1  0  0  0
 10 12  1  0  0  0  0
 11 16  1  0  0  0  0
 12 14  1  0  0  0  0
 13 15  2  0  0  0  0
 14  9  1  0  0  0  0
 15  4  1  0  0  0  0
 16  5  1  0  0  0  0
 17  2  2  0  0  0  0
 17  8  1  0  0  0  0
 18 20  2  0  0  0  0
 18 19  1  0  0  0  0
 19 21  1  0  0  0  0
 21 22  1  0  0  0  0
 22 24  1  0  0  0  0
 23 24  2  0  0  0  0
 25 26  2  0  0  0  0
 25 27  1  0  0  0  0
 28 30  1  0  0  0  0
 29 31  1  0  0  0  0
 29 28  1  0  0  0  0
 30 34  2  0  0  0  0
 30 27  1  0  0  0  0
 31 32  2  0  0  0  0
 32 34  1  0  0  0  0
 32 33  1  0  0  0  0
 35 36  2  0  0  0  0
 36 17  1  0  0  0  0
 37  8  1  0  0  0  0
 38 39  1  6  0  0  0
 38 37  1  0  0  0  0
 40 42  2  0  0  0  0
 41 44  1  0  0  0  0
 41 43  2  0  0  0  0
 42 45  1  0  0  0  0
 43 42  1  0  0  0  0
 44 38  1  6  0  0  0
 44 40  1  0  0  0  0
 45 46  1  0  0  0  0
 46 47  1  0  0  0  0
 48 46  2  0  0  0  0
M  END
>  <MODEL>
8

>  <REMARK>
 VINA RESULT:      -6.9      1.757      2.398
  Name = 
  13 active torsions:
  status: ('A' for Active; 'I' for Inactive)
    1  A    between atoms: C_2  and  C_10
    2  A    between atoms: C_6  and  C_22
    3  A    between atoms: C_6  and  O_35
    4  A    between atoms: C_8  and  C_26
    5  A    between atoms: C_8  and  N_37
    6  A    between atoms: C_14  and  C_18
    7  A    between atoms: C_14  and  C_47
    8  A    between atoms: C_16  and  O_35
    9  A    between atoms: C_17  and  C_40
   10  A    between atoms: C_18  and  C_21
   11  A    between atoms: N_24  and  N_37
   12  A    between atoms: C_33  and  C_48
   13  A    between atoms: C_38  and  C_40
                            x       y       z     vdW  Elec       q    Type
                         _______ _______ _______ _____ _____    ______ ____

>  <TORSDO>
F 13

$$$$
=
 OpenBabel11062421513D

 48 52  0  0  1  0  0  0  0  0999 V2000
  190.5670  173.5780  142.5220 C   0  0  1  0  0  3  0  0  0  0  0  0
  188.0650  175.8740  140.7180 C   0  0  0  0  0  3  0  0  0  0  0  0
  189.4100  173.3750  140.2860 C   0  0  0  0  0  2  0  0  0  0  0  0
  189.0140  173.8780  144.5390 N   0  0  0  0  0  2  0  0  0  0  0  0
  191.5810  172.5090  142.0640 C   0  0  2  0  0  3  0  0  0  0  0  0
  189.0390  175.5020  141.6550 C   0  0  0  0  0  0  0  0  0  0  0  0
  189.9880  174.3510  141.3160 C   0  0  1  0  0  3  0  0  0  0  0  0
  187.3410  177.7220  142.1130 C   0  0  0  0  0  0  0  0  0  0  0  0
  189.5790  175.1550  145.0020 C   0  0  2  0  0  3  0  0  0  0  0  0
  188.3160  177.3720  143.0400 C   0  0  0  0  0  3  0  0  0  0  0  0
  190.4700  172.3780  139.8340 C   0  0  0  0  0  2  0  0  0  0  0  0
  189.1700  176.2900  142.8230 C   0  0  0  0  0  0  0  0  0  0  0  0
  188.9290  171.9650  143.2180 O   0  0  0  0  0  0  0  0  0  0  0  0
  190.1830  175.9960  143.8750 C   0  0  0  0  0  2  0  0  0  0  0  0
  189.4870  173.0710  143.4460 C   0  0  0  0  0  0  0  0  0  0  0  0
  190.9710  171.5690  141.0220 C   0  0  0  0  0  2  0  0  0  0  0  0
  187.2070  176.9570  140.9300 C   0  0  0  0  0  0  0  0  0  0  0  0
  192.2380  171.7610  143.1930 C   0  0  0  0  0  0  0  0  0  0  0  0
  193.5530  172.1230  143.6160 N   0  0  0  0  0  2  0  0  0  0  0  0
  191.5940  170.8910  143.8380 O   0  0  0  0  0  0  0  0  0  0  0  0
  194.2500  171.3430  144.5410 N   0  0  0  0  0  2  0  0  0  0  0  0
  194.4450  172.1600  145.7290 C   0  0  0  0  0  2  0  0  0  0  0  0
  196.8950  172.0710  145.5550 C   0  0  0  0  0  2  0  0  0  0  0  0
  195.7930  172.8090  145.7020 C   0  0  0  0  0  3  0  0  0  0  0  0
  190.5810  174.9610  146.1110 C   0  0  0  0  0  0  0  0  0  0  0  0
  190.2230  175.1120  147.3100 O   0  0  0  0  0  0  0  0  0  0  0  0
  191.8920  174.5260  145.8560 O   0  0  0  0  0  0  0  0  0  0  0  0
  193.6010  176.0280  146.8860 C   0  0  0  0  0  2  0  0  0  0  0  0
  194.3090  177.3400  146.5390 C   0  0  0  0  0  2  0  0  0  0  0  0
  193.0090  175.3550  145.6770 C   0  0  0  0  0  0  0  0  0  0  0  0
  195.1250  177.2210  145.2790 C   0  0  0  0  0  3  0  0  0  0  0  0
  194.7380  176.4070  144.2970 C   0  0  0  0  0  0  0  0  0  0  0  0
  195.4380  176.3710  143.1400 F   0  0  0  0  0  0  0  0  0  0  0  0
  193.5700  175.5270  144.4740 C   0  0  0  0  0  3  0  0  0  0  0  0
  186.2960  176.7400  138.7250 O   0  0  0  0  0  0  0  0  0  0  0  0
  186.2030  177.2160  139.8860 C   0  0  0  0  0  3  0  0  0  0  0  0
  186.5220  178.9470  142.3910 C   0  0  0  0  0  2  0  0  0  0  0  0
  185.1730  178.5800  143.0010 C   0  0  1  0  0  3  0  0  0  0  0  0
  185.1920  177.1720  143.3580 N   0  0  0  0  0  1  0  0  0  0  0  0
  185.9670  179.3050  145.2400 C   0  0  0  0  0  3  0  0  0  0  0  0
  183.7210  178.8630  144.9720 N   0  0  0  0  0  0  0  0  0  0  0  0
  185.4410  178.7290  146.3060 C   0  0  0  0  0  0  0  0  0  0  0  0
  184.0640  178.4670  146.1260 N   0  0  0  0  0  0  0  0  0  0  0  0
  184.8540  179.4230  144.2390 C   0  0  2  0  0  3  0  0  0  0  0  0
  186.1830  178.4520  147.5740 C   0  0  0  0  0  2  0  0  0  0  0  0
  187.3090  177.5100  147.3210 C   0  0  0  0  0  0  0  0  0  0  0  0
  188.4900  177.9270  147.3210 O   0  0  0  0  0  1  0  0  0  0  0  0
  187.0560  176.1690  147.0940 O   0  0  0  0  0  0  0  0  0  0  0  0
  1 15  1  6  0  0  0
  2 17  2  0  0  0  0
  2  6  1  0  0  0  0
  4  9  1  0  0  0  0
  5  1  1  0  0  0  0
  5 18  1  1  0  0  0
  6 12  2  0  0  0  0
  7  3  1  6  0  0  0
  7  6  1  0  0  0  0
  7  1  1  0  0  0  0
  8 37  1  0  0  0  0
  8 10  2  0  0  0  0
  9 25  1  1  0  0  0
 11  3  1  0  0  0  0
 11 16  1  0  0  0  0
 12 10  1  0  0  0  0
 12 14  1  0  0  0  0
 13 15  2  0  0  0  0
 14  9  1  0  0  0  0
 15  4  1  0  0  0  0
 16  5  1  0  0  0  0
 17  8  1  0  0  0  0
 18 19  1  0  0  0  0
 18 20  2  0  0  0  0
 19 21  1  0  0  0  0
 21 22  1  0  0  0  0
 23 24  2  0  0  0  0
 24 22  1  0  0  0  0
 25 26  2  0  0  0  0
 27 25  1  0  0  0  0
 29 28  1  0  0  0  0
 30 27  1  0  0  0  0
 30 28  1  0  0  0  0
 31 29  1  0  0  0  0
 32 34  1  0  0  0  0
 32 31  2  0  0  0  0
 33 32  1  0  0  0  0
 34 30  2  0  0  0  0
 35 36  2  0  0  0  0
 36 17  1  0  0  0  0
 37 38  1  0  0  0  0
 38 39  1  1  0  0  0
 40 42  2  0  0  0  0
 41 43  2  0  0  0  0
 42 45  1  0  0  0  0
 43 42  1  0  0  0  0
 44 38  1  6  0  0  0
 44 41  1  0  0  0  0
 44 40  1  0  0  0  0
 46 47  1  0  0  0  0
 46 45  1  0  0  0  0
 48 46  2  0  0  0  0
M  END
>  <MODEL>
9

>  <REMARK>
 VINA RESULT:      -6.8      2.594      7.457
  Name = 
  13 active torsions:
  status: ('A' for Active; 'I' for Inactive)
    1  A    between atoms: C_2  and  C_10
    2  A    between atoms: C_6  and  C_22
    3  A    between atoms: C_6  and  O_35
    4  A    between atoms: C_8  and  C_26
    5  A    between atoms: C_8  and  N_37
    6  A    between atoms: C_14  and  C_18
    7  A    between atoms: C_14  and  C_47
    8  A    between atoms: C_16  and  O_35
    9  A    between atoms: C_17  and  C_40
   10  A    between atoms: C_18  and  C_21
   11  A    between atoms: N_24  and  N_37
   12  A    between atoms: C_33  and  C_48
   13  A    between atoms: C_38  and  C_40
                            x       y       z     vdW  Elec       q    Type
                         _______ _______ _______ _____ _____    ______ ____

>  <TORSDO>
F 13

$$$$
