=
 OpenBabel11062420143D

 25 26  0  0  1  0  0  0  0  0999 V2000
  186.6600  178.3930  147.6040 C   0  0  0  0  0  0  0  0  0  0  0  0
  186.4000  177.2930  145.3450 C   0  0  2  0  0  3  0  0  0  0  0  0
  187.3760  178.9560  148.4740 O   0  0  0  0  0  0  0  0  0  0  0  0
  184.3760  178.1830  146.5450 C   0  0  0  0  0  2  0  0  0  0  0  0
  185.2370  178.5260  147.6710 N   0  0  0  0  0  2  0  0  0  0  0  0
  184.9520  177.0080  145.7610 C   0  0  0  0  0  2  0  0  0  0  0  0
  187.3050  177.5200  146.5600 C   0  0  2  0  0  3  0  0  0  0  0  0
  187.6620  176.2330  147.1400 N   0  0  0  0  0  2  0  0  0  0  0  0
  189.2290  174.5900  147.6170 O   0  0  0  0  0  0  0  0  0  0  0  0
  188.9760  175.6800  147.0380 C   0  0  0  0  0  0  0  0  0  0  0  0
  189.9830  176.3550  146.2750 N   0  0  0  0  0  2  0  0  0  0  0  0
  191.3340  175.9090  146.1120 C   0  0  0  0  0  0  0  0  0  0  0  0
  191.7440  174.8560  146.6670 O   0  0  0  0  0  0  0  0  0  0  0  0
  192.2690  176.7070  145.2780 C   0  0  0  0  0  1  0  0  0  0  0  0
  186.4990  178.4730  144.3770 C   0  0  0  0  0  2  0  0  0  0  0  0
  186.2720  178.0670  142.9190 C   0  0  1  0  0  3  0  0  0  0  0  0
  185.1180  178.7590  142.3650 N   0  0  0  0  0  2  0  0  0  0  0  0
  184.0640  177.9160  142.4720 O   0  0  0  0  0  1  0  0  0  0  0  0
  187.4540  178.3470  142.1160 N   0  0  0  0  0  2  0  0  0  0  0  0
  187.1830  175.9250  142.1970 C   0  0  0  0  0  2  0  0  0  0  0  0
  187.8920  174.5900  141.9790 C   0  0  0  0  0  2  0  0  0  0  0  0
  190.0840  175.6650  142.5380 C   0  0  0  0  0  2  0  0  0  0  0  0
  188.1290  177.0820  141.8780 C   0  0  0  0  0  3  0  0  0  0  0  0
  189.1380  174.5090  142.8570 C   0  0  0  0  0  2  0  0  0  0  0  0
  189.3740  176.9990  142.7550 C   0  0  0  0  0  2  0  0  0  0  0  0
  1  5  1  0  0  0  0
  1  3  2  0  0  0  0
  2 15  1  6  0  0  0
  2  6  1  0  0  0  0
  2  7  1  0  0  0  0
  4  5  1  0  0  0  0
  6  4  1  0  0  0  0
  7  8  1  1  0  0  0
  7  1  1  0  0  0  0
 10  8  1  0  0  0  0
 10  9  2  0  0  0  0
 11 10  1  0  0  0  0
 12 11  1  0  0  0  0
 12 13  2  0  0  0  0
 14 12  1  0  0  0  0
 16 15  1  1  0  0  0
 17 18  1  0  0  0  0
 17 16  1  0  0  0  0
 19 16  1  0  0  0  0
 21 20  1  0  0  0  0
 21 24  1  0  0  0  0
 22 25  1  0  0  0  0
 22 24  1  0  0  0  0
 23 19  1  0  0  0  0
 23 20  1  0  0  0  0
 23 25  1  0  0  0  0
M  END
>  <MODEL>
1

>  <REMARK>
 VINA RESULT:      -6.7      0.000      0.000
  Name = 
  6 active torsions:
  status: ('A' for Active; 'I' for Inactive)
    1  A    between atoms: C_2  and  C_7
    2  A    between atoms: C_2  and  N_9
    3  A    between atoms: C_2  and  N_23
    4  A    between atoms: N_3  and  C_25
    5  A    between atoms: C_6  and  C_7
    6  A    between atoms: C_20  and  N_23
                            x       y       z     vdW  Elec       q    Type
                         _______ _______ _______ _____ _____    ______ ____

>  <TORSDO>
F 6

$$$$
=
 OpenBabel11062420143D

 25 26  0  0  1  0  0  0  0  0999 V2000
  192.1720  174.7730  145.8610 C   0  0  0  0  0  0  0  0  0  0  0  0
  189.8330  175.7110  145.6810 C   0  0  2  0  0  3  0  0  0  0  0  0
  193.2510  174.4090  145.3260 O   0  0  0  0  0  0  0  0  0  0  0  0
  191.0360  175.7620  147.8900 C   0  0  0  0  0  2  0  0  0  0  0  0
  192.1390  175.0410  147.2660 N   0  0  0  0  0  2  0  0  0  0  0  0
  189.7180  175.4480  147.1870 C   0  0  0  0  0  2  0  0  0  0  0  0
  190.9150  174.8410  145.0340 C   0  0  2  0  0  3  0  0  0  0  0  0
  190.3880  173.5000  144.8210 N   0  0  0  0  0  2  0  0  0  0  0  0
  189.2360  171.9580  143.5260 O   0  0  0  0  0  0  0  0  0  0  0  0
  189.6070  173.1520  143.6760 C   0  0  0  0  0  0  0  0  0  0  0  0
  189.2440  174.1570  142.7210 N   0  0  0  0  0  2  0  0  0  0  0  0
  188.4800  173.9290  141.5320 C   0  0  0  0  0  0  0  0  0  0  0  0
  188.0740  172.7760  141.2290 O   0  0  0  0  0  0  0  0  0  0  0  0
  188.1650  175.0720  140.6370 C   0  0  0  0  0  1  0  0  0  0  0  0
  190.0800  177.1890  145.3720 C   0  0  0  0  0  2  0  0  0  0  0  0
  189.1820  177.7210  144.2540 C   0  0  1  0  0  3  0  0  0  0  0  0
  189.8400  177.6000  142.9620 N   0  0  0  0  0  2  0  0  0  0  0  0
  189.0210  178.1710  142.0470 O   0  0  0  0  0  1  0  0  0  0  0  0
  187.9100  177.0140  144.2330 N   0  0  0  0  0  2  0  0  0  0  0  0
  186.0370  176.8240  145.7840 C   0  0  0  0  0  2  0  0  0  0  0  0
  185.0280  177.6170  146.6110 C   0  0  0  0  0  2  0  0  0  0  0  0
  185.1550  179.4980  144.9630 C   0  0  0  0  0  2  0  0  0  0  0  0
  186.9720  177.7770  145.0400 C   0  0  0  0  0  3  0  0  0  0  0  0
  184.2230  178.5450  145.7060 C   0  0  0  0  0  2  0  0  0  0  0  0
  186.1650  178.7050  144.1360 C   0  0  0  0  0  2  0  0  0  0  0  0
  1  5  1  0  0  0  0
  2 15  1  1  0  0  0
  2  6  1  0  0  0  0
  3  1  2  0  0  0  0
  5  4  1  0  0  0  0
  6  4  1  0  0  0  0
  7  8  1  1  0  0  0
  7  2  1  0  0  0  0
  7  1  1  0  0  0  0
  9 10  2  0  0  0  0
 10  8  1  0  0  0  0
 11 10  1  0  0  0  0
 12 11  1  0  0  0  0
 13 12  2  0  0  0  0
 14 12  1  0  0  0  0
 16 15  1  1  0  0  0
 17 16  1  0  0  0  0
 18 17  1  0  0  0  0
 19 16  1  0  0  0  0
 19 23  1  0  0  0  0
 20 21  1  0  0  0  0
 22 24  1  0  0  0  0
 23 20  1  0  0  0  0
 24 21  1  0  0  0  0
 25 22  1  0  0  0  0
 25 23  1  0  0  0  0
M  END
>  <MODEL>
2

>  <REMARK>
 VINA RESULT:      -6.5      2.788      5.457
  Name = 
  6 active torsions:
  status: ('A' for Active; 'I' for Inactive)
    1  A    between atoms: C_2  and  C_7
    2  A    between atoms: C_2  and  N_9
    3  A    between atoms: C_2  and  N_23
    4  A    between atoms: N_3  and  C_25
    5  A    between atoms: C_6  and  C_7
    6  A    between atoms: C_20  and  N_23
                            x       y       z     vdW  Elec       q    Type
                         _______ _______ _______ _____ _____    ______ ____

>  <TORSDO>
F 6

$$$$
=
 OpenBabel11062420143D

 25 26  0  0  1  0  0  0  0  0999 V2000
  189.1400  175.1610  143.0080 C   0  0  0  0  0  0  0  0  0  0  0  0
  189.8340  177.5280  143.5580 C   0  0  2  0  0  3  0  0  0  0  0  0
  189.1920  173.9240  143.2320 O   0  0  0  0  0  0  0  0  0  0  0  0
  187.7650  177.1160  142.1860 C   0  0  0  0  0  2  0  0  0  0  0  0
  188.0700  175.6900  142.2200 N   0  0  0  0  0  2  0  0  0  0  0  0
  189.0410  177.9440  142.3140 C   0  0  0  0  0  2  0  0  0  0  0  0
  190.2500  176.0550  143.4990 C   0  0  2  0  0  3  0  0  0  0  0  0
  191.4150  175.9190  142.6370 N   0  0  0  0  0  2  0  0  0  0  0  0
  193.7150  175.8670  142.3320 O   0  0  0  0  0  0  0  0  0  0  0  0
  192.7520  176.0580  143.1220 C   0  0  0  0  0  0  0  0  0  0  0  0
  192.9880  176.4240  144.4880 N   0  0  0  0  0  2  0  0  0  0  0  0
  194.2770  176.5790  145.0910 C   0  0  0  0  0  0  0  0  0  0  0  0
  195.3320  176.3800  144.4340 O   0  0  0  0  0  0  0  0  0  0  0  0
  194.3700  176.9770  146.5190 C   0  0  0  0  0  1  0  0  0  0  0  0
  189.0690  177.8170  144.8510 C   0  0  0  0  0  2  0  0  0  0  0  0
  189.2650  176.7330  145.9130 C   0  0  1  0  0  3  0  0  0  0  0  0
  190.0940  177.2240  147.0030 N   0  0  0  0  0  2  0  0  0  0  0  0
  190.9660  176.2350  147.3120 O   0  0  0  0  0  1  0  0  0  0  0  0
  187.9820  176.2780  146.4290 N   0  0  0  0  0  2  0  0  0  0  0  0
  186.5450  177.9090  147.5340 C   0  0  0  0  0  2  0  0  0  0  0  0
  185.5080  179.0050  147.3030 C   0  0  0  0  0  2  0  0  0  0  0  0
  184.7910  177.8780  145.1850 C   0  0  0  0  0  2  0  0  0  0  0  0
  187.0160  177.3390  146.1970 C   0  0  0  0  0  3  0  0  0  0  0  0
  184.3220  178.4470  146.5210 C   0  0  0  0  0  2  0  0  0  0  0  0
  185.8290  176.7830  145.4160 C   0  0  0  0  0  2  0  0  0  0  0  0
  1  3  2  0  0  0  0
  1  7  1  0  0  0  0
  2 15  1  1  0  0  0
  4  5  1  0  0  0  0
  4  6  1  0  0  0  0
  5  1  1  0  0  0  0
  6  2  1  0  0  0  0
  7  8  1  6  0  0  0
  7  2  1  0  0  0  0
  8 10  1  0  0  0  0
  9 10  2  0  0  0  0
 10 11  1  0  0  0  0
 11 12  1  0  0  0  0
 12 14  1  0  0  0  0
 13 12  2  0  0  0  0
 16 15  1  6  0  0  0
 16 19  1  0  0  0  0
 16 17  1  0  0  0  0
 17 18  1  0  0  0  0
 21 20  1  0  0  0  0
 22 25  1  0  0  0  0
 22 24  1  0  0  0  0
 23 19  1  0  0  0  0
 23 20  1  0  0  0  0
 24 21  1  0  0  0  0
 25 23  1  0  0  0  0
M  END
>  <MODEL>
3

>  <REMARK>
 VINA RESULT:      -6.5      2.397      5.618
  Name = 
  6 active torsions:
  status: ('A' for Active; 'I' for Inactive)
    1  A    between atoms: C_2  and  C_7
    2  A    between atoms: C_2  and  N_9
    3  A    between atoms: C_2  and  N_23
    4  A    between atoms: N_3  and  C_25
    5  A    between atoms: C_6  and  C_7
    6  A    between atoms: C_20  and  N_23
                            x       y       z     vdW  Elec       q    Type
                         _______ _______ _______ _____ _____    ______ ____

>  <TORSDO>
F 6

$$$$
=
 OpenBabel11062420143D

 25 26  0  0  1  0  0  0  0  0999 V2000
  189.4100  173.0940  143.5590 C   0  0  0  0  0  0  0  0  0  0  0  0
  189.1270  175.2130  142.2130 C   0  0  2  0  0  3  0  0  0  0  0  0
  189.5710  172.5090  144.6620 O   0  0  0  0  0  0  0  0  0  0  0  0
  188.4350  173.0040  141.2290 C   0  0  0  0  0  2  0  0  0  0  0  0
  188.9450  172.3490  142.4290 N   0  0  0  0  0  2  0  0  0  0  0  0
  189.1730  174.3140  140.9730 C   0  0  0  0  0  2  0  0  0  0  0  0
  189.7880  174.5450  143.4230 C   0  0  2  0  0  3  0  0  0  0  0  0
  191.2350  174.6730  143.3110 N   0  0  0  0  0  2  0  0  0  0  0  0
  193.3000  175.1880  144.2330 O   0  0  0  0  0  0  0  0  0  0  0  0
  192.0490  175.1620  144.3780 C   0  0  0  0  0  0  0  0  0  0  0  0
  191.4440  175.6260  145.5910 N   0  0  0  0  0  2  0  0  0  0  0  0
  192.1530  176.1220  146.7310 C   0  0  0  0  0  0  0  0  0  0  0  0
  193.4110  176.1700  146.7460 O   0  0  0  0  0  0  0  0  0  0  0  0
  191.3900  176.5850  147.9200 C   0  0  0  0  0  1  0  0  0  0  0  0
  187.7010  175.6480  142.5560 C   0  0  0  0  0  2  0  0  0  0  0  0
  187.4120  177.0990  142.1680 C   0  0  1  0  0  3  0  0  0  0  0  0
  186.1280  177.2060  141.4910 N   0  0  0  0  0  2  0  0  0  0  0  0
  185.7930  178.5180  141.4840 O   0  0  0  0  0  1  0  0  0  0  0  0
  187.4290  177.9600  143.3420 N   0  0  0  0  0  2  0  0  0  0  0  0
  185.7090  177.6150  145.0360 C   0  0  0  0  0  2  0  0  0  0  0  0
  185.3220  176.7860  146.2580 C   0  0  0  0  0  2  0  0  0  0  0  0
  187.7440  176.4320  146.7850 C   0  0  0  0  0  2  0  0  0  0  0  0
  187.0560  177.1460  144.4860 C   0  0  0  0  0  3  0  0  0  0  0  0
  186.3990  176.9010  147.3330 C   0  0  0  0  0  2  0  0  0  0  0  0
  188.1310  177.2610  145.5630 C   0  0  0  0  0  2  0  0  0  0  0  0
  1  3  2  0  0  0  0
  2 15  1  1  0  0  0
  2  7  1  0  0  0  0
  4  5  1  0  0  0  0
  5  1  1  0  0  0  0
  6  4  1  0  0  0  0
  6  2  1  0  0  0  0
  7  8  1  6  0  0  0
  7  1  1  0  0  0  0
  8 10  1  0  0  0  0
  9 10  2  0  0  0  0
 10 11  1  0  0  0  0
 11 12  1  0  0  0  0
 12 13  2  0  0  0  0
 12 14  1  0  0  0  0
 16 15  1  1  0  0  0
 16 19  1  0  0  0  0
 17 16  1  0  0  0  0
 18 17  1  0  0  0  0
 19 23  1  0  0  0  0
 20 21  1  0  0  0  0
 21 24  1  0  0  0  0
 22 24  1  0  0  0  0
 23 20  1  0  0  0  0
 23 25  1  0  0  0  0
 25 22  1  0  0  0  0
M  END
>  <MODEL>
4

>  <REMARK>
 VINA RESULT:      -6.2      2.411      4.871
  Name = 
  6 active torsions:
  status: ('A' for Active; 'I' for Inactive)
    1  A    between atoms: C_2  and  C_7
    2  A    between atoms: C_2  and  N_9
    3  A    between atoms: C_2  and  N_23
    4  A    between atoms: N_3  and  C_25
    5  A    between atoms: C_6  and  C_7
    6  A    between atoms: C_20  and  N_23
                            x       y       z     vdW  Elec       q    Type
                         _______ _______ _______ _____ _____    ______ ____

>  <TORSDO>
F 6

$$$$
=
 OpenBabel11062420143D

 25 26  0  0  1  0  0  0  0  0999 V2000
  190.1540  173.3550  142.7480 C   0  0  0  0  0  0  0  0  0  0  0  0
  189.5660  175.7570  143.2690 C   0  0  2  0  0  3  0  0  0  0  0  0
  190.8080  172.3080  142.9950 O   0  0  0  0  0  0  0  0  0  0  0  0
  188.0120  174.3640  141.8650 C   0  0  0  0  0  2  0  0  0  0  0  0
  188.9830  173.2780  141.9290 N   0  0  0  0  0  2  0  0  0  0  0  0
  188.7040  175.7160  142.0020 C   0  0  0  0  0  2  0  0  0  0  0  0
  190.6600  174.6840  143.2440 C   0  0  2  0  0  3  0  0  0  0  0  0
  191.7620  175.1400  142.4080 N   0  0  0  0  0  2  0  0  0  0  0  0
  193.8970  176.0140  142.1690 O   0  0  0  0  0  0  0  0  0  0  0  0
  192.9610  175.6970  142.9500 C   0  0  0  0  0  0  0  0  0  0  0  0
  193.0860  175.9000  144.3630 N   0  0  0  0  0  2  0  0  0  0  0  0
  194.2390  176.4330  145.0220 C   0  0  0  0  0  0  0  0  0  0  0  0
  195.2680  176.7580  144.3740 O   0  0  0  0  0  0  0  0  0  0  0  0
  194.2210  176.6020  146.4990 C   0  0  0  0  0  1  0  0  0  0  0  0
  188.7260  175.6340  144.5420 C   0  0  0  0  0  2  0  0  0  0  0  0
  188.7010  176.9230  145.3650 C   0  0  1  0  0  3  0  0  0  0  0  0
  190.0500  177.3280  145.7300 N   0  0  0  0  0  2  0  0  0  0  0  0
  190.5100  176.4150  146.6180 O   0  0  0  0  0  1  0  0  0  0  0  0
  188.0430  177.9930  144.6280 N   0  0  0  0  0  2  0  0  0  0  0  0
  185.8760  179.0560  144.2790 C   0  0  0  0  0  2  0  0  0  0  0  0
  184.3700  178.8930  144.4710 C   0  0  0  0  0  2  0  0  0  0  0  0
  184.7840  177.4240  146.4570 C   0  0  0  0  0  2  0  0  0  0  0  0
  186.6090  177.8160  144.7890 C   0  0  0  0  0  3  0  0  0  0  0  0
  184.0520  178.6620  145.9460 C   0  0  0  0  0  2  0  0  0  0  0  0
  186.2890  177.5860  146.2630 C   0  0  0  0  0  2  0  0  0  0  0  0
  1  3  2  0  0  0  0
  1  7  1  0  0  0  0
  2 15  1  1  0  0  0
  4  5  1  0  0  0  0
  4  6  1  0  0  0  0
  5  1  1  0  0  0  0
  6  2  1  0  0  0  0
  7  8  1  6  0  0  0
  7  2  1  0  0  0  0
  8 10  1  0  0  0  0
  9 10  2  0  0  0  0
 10 11  1  0  0  0  0
 11 12  1  0  0  0  0
 12 14  1  0  0  0  0
 13 12  2  0  0  0  0
 16 15  1  6  0  0  0
 16 17  1  0  0  0  0
 17 18  1  0  0  0  0
 19 23  1  0  0  0  0
 19 16  1  0  0  0  0
 20 21  1  0  0  0  0
 20 23  1  0  0  0  0
 21 24  1  0  0  0  0
 23 25  1  0  0  0  0
 24 22  1  0  0  0  0
 25 22  1  0  0  0  0
M  END
>  <MODEL>
5

>  <REMARK>
 VINA RESULT:      -6.1      2.692      5.804
  Name = 
  6 active torsions:
  status: ('A' for Active; 'I' for Inactive)
    1  A    between atoms: C_2  and  C_7
    2  A    between atoms: C_2  and  N_9
    3  A    between atoms: C_2  and  N_23
    4  A    between atoms: N_3  and  C_25
    5  A    between atoms: C_6  and  C_7
    6  A    between atoms: C_20  and  N_23
                            x       y       z     vdW  Elec       q    Type
                         _______ _______ _______ _____ _____    ______ ____

>  <TORSDO>
F 6

$$$$
=
 OpenBabel11062420143D

 25 26  0  0  1  0  0  0  0  0999 V2000
  191.6380  176.1870  145.2990 C   0  0  0  0  0  0  0  0  0  0  0  0
  189.2990  175.4380  145.8910 C   0  0  2  0  0  3  0  0  0  0  0  0
  192.4840  176.5740  144.4500 O   0  0  0  0  0  0  0  0  0  0  0  0
  190.8390  176.2770  147.6950 C   0  0  0  0  0  2  0  0  0  0  0  0
  191.8900  176.4000  146.6910 N   0  0  0  0  0  2  0  0  0  0  0  0
  189.8430  175.1900  147.3030 C   0  0  0  0  0  2  0  0  0  0  0  0
  190.4170  175.4310  144.8440 C   0  0  2  0  0  3  0  0  0  0  0  0
  190.7740  174.0550  144.5300 N   0  0  0  0  0  2  0  0  0  0  0  0
  190.8320  172.2620  143.0590 O   0  0  0  0  0  0  0  0  0  0  0  0
  190.4380  173.4370  143.2860 C   0  0  0  0  0  0  0  0  0  0  0  0
  189.6530  174.1460  142.3190 N   0  0  0  0  0  2  0  0  0  0  0  0
  189.2670  173.6390  141.0370 C   0  0  0  0  0  0  0  0  0  0  0  0
  189.6230  172.4940  140.6550 O   0  0  0  0  0  0  0  0  0  0  0  0
  188.4370  174.4840  140.1400 C   0  0  0  0  0  1  0  0  0  0  0  0
  188.4920  176.7350  145.8040 C   0  0  0  0  0  2  0  0  0  0  0  0
  187.2150  176.6980  146.6450 C   0  0  1  0  0  3  0  0  0  0  0  0
  187.1330  177.8650  147.5100 N   0  0  0  0  0  2  0  0  0  0  0  0
  185.8740  177.9010  148.0070 O   0  0  0  0  0  1  0  0  0  0  0  0
  186.0370  176.6270  145.7910 N   0  0  0  0  0  2  0  0  0  0  0  0
  185.5520  178.5660  144.3940 C   0  0  0  0  0  2  0  0  0  0  0  0
  185.8700  179.2460  143.0640 C   0  0  0  0  0  2  0  0  0  0  0  0
  186.3820  177.0160  142.0470 C   0  0  0  0  0  2  0  0  0  0  0  0
  186.3680  177.2810  144.5360 C   0  0  0  0  0  3  0  0  0  0  0  0
  185.5680  178.2990  141.9060 C   0  0  0  0  0  2  0  0  0  0  0  0
  186.0650  176.3360  143.3770 C   0  0  0  0  0  2  0  0  0  0  0  0
  1  5  1  0  0  0  0
  2 15  1  1  0  0  0
  2  6  1  0  0  0  0
  3  1  2  0  0  0  0
  5  4  1  0  0  0  0
  6  4  1  0  0  0  0
  7  8  1  1  0  0  0
  7  1  1  0  0  0  0
  7  2  1  0  0  0  0
  9 10  2  0  0  0  0
 10  8  1  0  0  0  0
 11 10  1  0  0  0  0
 12 11  1  0  0  0  0
 13 12  2  0  0  0  0
 14 12  1  0  0  0  0
 16 15  1  6  0  0  0
 16 17  1  0  0  0  0
 17 18  1  0  0  0  0
 19 16  1  0  0  0  0
 20 23  1  0  0  0  0
 21 20  1  0  0  0  0
 22 25  1  0  0  0  0
 23 19  1  0  0  0  0
 24 22  1  0  0  0  0
 24 21  1  0  0  0  0
 25 23  1  0  0  0  0
M  END
>  <MODEL>
6

>  <REMARK>
 VINA RESULT:      -6.0      2.531      5.192
  Name = 
  6 active torsions:
  status: ('A' for Active; 'I' for Inactive)
    1  A    between atoms: C_2  and  C_7
    2  A    between atoms: C_2  and  N_9
    3  A    between atoms: C_2  and  N_23
    4  A    between atoms: N_3  and  C_25
    5  A    between atoms: C_6  and  C_7
    6  A    between atoms: C_20  and  N_23
                            x       y       z     vdW  Elec       q    Type
                         _______ _______ _______ _____ _____    ______ ____

>  <TORSDO>
F 6

$$$$
=
 OpenBabel11062420143D

 25 26  0  0  1  0  0  0  0  0999 V2000
  190.7610  177.4720  143.5570 C   0  0  0  0  0  0  0  0  0  0  0  0
  189.2080  175.4800  143.6200 C   0  0  2  0  0  3  0  0  0  0  0  0
  191.1250  178.5930  143.9990 O   0  0  0  0  0  0  0  0  0  0  0  0
  191.4440  175.2880  142.4830 C   0  0  0  0  0  2  0  0  0  0  0  0
  191.6650  176.7040  142.7560 N   0  0  0  0  0  2  0  0  0  0  0  0
  189.9520  174.9850  142.3750 C   0  0  0  0  0  2  0  0  0  0  0  0
  189.3540  176.9930  143.8040 C   0  0  2  0  0  3  0  0  0  0  0  0
  188.4320  177.6780  142.9080 N   0  0  0  0  0  2  0  0  0  0  0  0
  186.3760  178.6650  142.4850 O   0  0  0  0  0  0  0  0  0  0  0  0
  187.0980  178.0200  143.2900 C   0  0  0  0  0  0  0  0  0  0  0  0
  186.5910  177.6200  144.5690 N   0  0  0  0  0  2  0  0  0  0  0  0
  185.2820  177.9150  145.0680 C   0  0  0  0  0  0  0  0  0  0  0  0
  184.4630  178.5880  144.3890 O   0  0  0  0  0  0  0  0  0  0  0  0
  184.8860  177.4210  146.4120 C   0  0  0  0  0  1  0  0  0  0  0  0
  189.6500  174.7420  144.8860 C   0  0  0  0  0  2  0  0  0  0  0  0
  189.6960  175.6480  146.1170 C   0  0  1  0  0  3  0  0  0  0  0  0
  188.4480  175.5710  146.8610 N   0  0  0  0  0  2  0  0  0  0  0  0
  188.5720  174.5430  147.7350 O   0  0  0  0  0  1  0  0  0  0  0  0
  190.8130  175.2910  146.9800 N   0  0  0  0  0  2  0  0  0  0  0  0
  192.8080  174.1700  146.1380 C   0  0  0  0  0  2  0  0  0  0  0  0
  194.1080  174.3700  145.3630 C   0  0  0  0  0  2  0  0  0  0  0  0
  194.1880  176.7580  146.1140 C   0  0  0  0  0  2  0  0  0  0  0  0
  192.0340  175.4850  146.2160 C   0  0  0  0  0  3  0  0  0  0  0  0
  194.9600  175.4430  146.0350 C   0  0  0  0  0  2  0  0  0  0  0  0
  192.8870  176.5570  146.8880 C   0  0  0  0  0  2  0  0  0  0  0  0
  1  7  1  0  0  0  0
  1  3  2  0  0  0  0
  2  7  1  0  0  0  0
  2 15  1  1  0  0  0
  4  5  1  0  0  0  0
  5  1  1  0  0  0  0
  6  4  1  0  0  0  0
  6  2  1  0  0  0  0
  7  8  1  6  0  0  0
  8 10  1  0  0  0  0
  9 10  2  0  0  0  0
 10 11  1  0  0  0  0
 11 12  1  0  0  0  0
 12 14  1  0  0  0  0
 13 12  2  0  0  0  0
 16 15  1  6  0  0  0
 16 17  1  0  0  0  0
 16 19  1  0  0  0  0
 17 18  1  0  0  0  0
 20 23  1  0  0  0  0
 21 24  1  0  0  0  0
 21 20  1  0  0  0  0
 22 25  1  0  0  0  0
 23 25  1  0  0  0  0
 23 19  1  0  0  0  0
 24 22  1  0  0  0  0
M  END
>  <MODEL>
7

>  <REMARK>
 VINA RESULT:      -6.0      2.081      6.321
  Name = 
  6 active torsions:
  status: ('A' for Active; 'I' for Inactive)
    1  A    between atoms: C_2  and  C_7
    2  A    between atoms: C_2  and  N_9
    3  A    between atoms: C_2  and  N_23
    4  A    between atoms: N_3  and  C_25
    5  A    between atoms: C_6  and  C_7
    6  A    between atoms: C_20  and  N_23
                            x       y       z     vdW  Elec       q    Type
                         _______ _______ _______ _____ _____    ______ ____

>  <TORSDO>
F 6

$$$$
=
 OpenBabel11062420143D

 25 26  0  0  1  0  0  0  0  0999 V2000
  192.4390  175.5420  146.3720 C   0  0  0  0  0  0  0  0  0  0  0  0
  190.2480  175.7170  145.1270 C   0  0  2  0  0  3  0  0  0  0  0  0
  193.6790  175.7470  146.4430 O   0  0  0  0  0  0  0  0  0  0  0  0
  190.2480  175.3230  147.6120 C   0  0  0  0  0  2  0  0  0  0  0  0
  191.7040  175.2530  147.5650 N   0  0  0  0  0  2  0  0  0  0  0  0
  189.6440  174.9010  146.2760 C   0  0  0  0  0  2  0  0  0  0  0  0
  191.7630  175.5180  145.0260 C   0  0  2  0  0  3  0  0  0  0  0  0
  192.0390  174.2560  144.3540 N   0  0  0  0  0  2  0  0  0  0  0  0
  193.2060  173.0110  142.7820 O   0  0  0  0  0  0  0  0  0  0  0  0
  192.9720  174.1450  143.2770 C   0  0  0  0  0  0  0  0  0  0  0  0
  193.6210  175.3160  142.7630 N   0  0  0  0  0  2  0  0  0  0  0  0
  194.5810  175.3290  141.7020 C   0  0  0  0  0  0  0  0  0  0  0  0
  194.9440  174.2630  141.1380 O   0  0  0  0  0  0  0  0  0  0  0  0
  195.1630  176.6230  141.2610 C   0  0  0  0  0  1  0  0  0  0  0  0
  189.9090  177.2050  145.2380 C   0  0  0  0  0  2  0  0  0  0  0  0
  189.0520  177.7080  144.0770 C   0  0  1  0  0  3  0  0  0  0  0  0
  189.7280  177.4960  142.8060 N   0  0  0  0  0  2  0  0  0  0  0  0
  189.0650  178.2270  141.8790 O   0  0  0  0  0  1  0  0  0  0  0  0
  187.7550  177.0450  144.0670 N   0  0  0  0  0  2  0  0  0  0  0  0
  185.8710  176.8960  145.6070 C   0  0  0  0  0  2  0  0  0  0  0  0
  184.9060  177.7080  146.4670 C   0  0  0  0  0  2  0  0  0  0  0  0
  185.1420  179.6470  144.9000 C   0  0  0  0  0  2  0  0  0  0  0  0
  186.8600  177.8250  144.9050 C   0  0  0  0  0  3  0  0  0  0  0  0
  184.1560  178.7170  145.6020 C   0  0  0  0  0  2  0  0  0  0  0  0
  186.1080  178.8340  144.0410 C   0  0  0  0  0  2  0  0  0  0  0  0
  1  3  2  0  0  0  0
  1  5  1  0  0  0  0
  2 15  1  1  0  0  0
  2  6  1  0  0  0  0
  5  4  1  0  0  0  0
  6  4  1  0  0  0  0
  7  8  1  1  0  0  0
  7  2  1  0  0  0  0
  7  1  1  0  0  0  0
  9 10  2  0  0  0  0
 10  8  1  0  0  0  0
 11 10  1  0  0  0  0
 12 11  1  0  0  0  0
 13 12  2  0  0  0  0
 14 12  1  0  0  0  0
 16 15  1  1  0  0  0
 17 16  1  0  0  0  0
 18 17  1  0  0  0  0
 19 16  1  0  0  0  0
 19 23  1  0  0  0  0
 20 21  1  0  0  0  0
 22 24  1  0  0  0  0
 23 20  1  0  0  0  0
 24 21  1  0  0  0  0
 25 22  1  0  0  0  0
 25 23  1  0  0  0  0
M  END
>  <MODEL>
8

>  <REMARK>
 VINA RESULT:      -6.0      3.011      5.458
  Name = 
  6 active torsions:
  status: ('A' for Active; 'I' for Inactive)
    1  A    between atoms: C_2  and  C_7
    2  A    between atoms: C_2  and  N_9
    3  A    between atoms: C_2  and  N_23
    4  A    between atoms: N_3  and  C_25
    5  A    between atoms: C_6  and  C_7
    6  A    between atoms: C_20  and  N_23
                            x       y       z     vdW  Elec       q    Type
                         _______ _______ _______ _____ _____    ______ ____

>  <TORSDO>
F 6

$$$$
=
 OpenBabel11062420143D

 25 26  0  0  1  0  0  0  0  0999 V2000
  191.4110  176.2800  142.9100 C   0  0  0  0  0  0  0  0  0  0  0  0
  189.0160  176.9040  143.4200 C   0  0  2  0  0  3  0  0  0  0  0  0
  192.2570  175.6450  142.2280 O   0  0  0  0  0  0  0  0  0  0  0  0
  190.8930  178.3580  144.2520 C   0  0  0  0  0  2  0  0  0  0  0  0
  191.8370  177.3930  143.7020 N   0  0  0  0  0  2  0  0  0  0  0  0
  189.5770  177.6780  144.6180 C   0  0  0  0  0  2  0  0  0  0  0  0
  189.9800  175.8100  142.9500 C   0  0  2  0  0  3  0  0  0  0  0  0
  189.8610  174.6550  143.8280 N   0  0  0  0  0  2  0  0  0  0  0  0
  189.8600  172.3600  144.1680 O   0  0  0  0  0  0  0  0  0  0  0  0
  189.9080  173.3110  143.3440 C   0  0  0  0  0  0  0  0  0  0  0  0
  189.9960  173.0560  141.9360 N   0  0  0  0  0  2  0  0  0  0  0  0
  190.0650  171.7590  141.3350 C   0  0  0  0  0  0  0  0  0  0  0  0
  190.0670  170.7140  142.0370 O   0  0  0  0  0  0  0  0  0  0  0  0
  190.1390  171.6460  139.8550 C   0  0  0  0  0  1  0  0  0  0  0  0
  188.6480  177.8290  142.2580 C   0  0  0  0  0  2  0  0  0  0  0  0
  187.1440  177.8750  141.9870 C   0  0  1  0  0  3  0  0  0  0  0  0
  186.8740  177.7910  140.5590 N   0  0  0  0  0  2  0  0  0  0  0  0
  187.0990  176.5080  140.1890 O   0  0  0  0  0  1  0  0  0  0  0  0
  186.4600  176.7970  142.6870 N   0  0  0  0  0  2  0  0  0  0  0  0
  185.7340  178.9230  143.6330 C   0  0  0  0  0  2  0  0  0  0  0  0
  184.8190  179.5710  144.6700 C   0  0  0  0  0  2  0  0  0  0  0  0
  184.9660  177.5100  146.0850 C   0  0  0  0  0  2  0  0  0  0  0  0
  185.5640  177.4050  143.6570 C   0  0  0  0  0  3  0  0  0  0  0  0
  185.1350  179.0270  146.0610 C   0  0  0  0  0  2  0  0  0  0  0  0
  185.8800  176.8630  145.0470 C   0  0  0  0  0  2  0  0  0  0  0  0
  1  7  1  0  0  0  0
  1  5  1  0  0  0  0
  2 15  1  6  0  0  0
  2  6  1  0  0  0  0
  3  1  2  0  0  0  0
  4  6  1  0  0  0  0
  5  4  1  0  0  0  0
  7  2  1  0  0  0  0
  7  8  1  1  0  0  0
 10  8  1  0  0  0  0
 10  9  2  0  0  0  0
 11 10  1  0  0  0  0
 12 11  1  0  0  0  0
 12 13  2  0  0  0  0
 14 12  1  0  0  0  0
 16 15  1  6  0  0  0
 16 19  1  0  0  0  0
 17 16  1  0  0  0  0
 18 17  1  0  0  0  0
 19 23  1  0  0  0  0
 20 23  1  0  0  0  0
 20 21  1  0  0  0  0
 21 24  1  0  0  0  0
 23 25  1  0  0  0  0
 24 22  1  0  0  0  0
 25 22  1  0  0  0  0
M  END
>  <MODEL>
9

>  <REMARK>
 VINA RESULT:      -6.0      3.078      5.387
  Name = 
  6 active torsions:
  status: ('A' for Active; 'I' for Inactive)
    1  A    between atoms: C_2  and  C_7
    2  A    between atoms: C_2  and  N_9
    3  A    between atoms: C_2  and  N_23
    4  A    between atoms: N_3  and  C_25
    5  A    between atoms: C_6  and  C_7
    6  A    between atoms: C_20  and  N_23
                            x       y       z     vdW  Elec       q    Type
                         _______ _______ _______ _____ _____    ______ ____

>  <TORSDO>
F 6

$$$$
