=
 OpenBabel11072408453D

 36 40  0  0  1  0  0  0  0  0999 V2000
  190.2790  175.5580  145.9190 C   0  0  0  0  0  0  0  0  0  0  0  0
  192.6330  175.0310  145.6720 C   0  0  0  0  0  0  0  0  0  0  0  0
  192.8680  171.6850  144.2160 C   0  0  0  0  0  3  0  0  0  0  0  0
  191.5560  171.3560  144.0890 N   0  0  0  0  0  0  0  0  0  0  0  0
  193.2270  172.8900  144.7350 N   0  0  0  0  0  0  0  0  0  0  0  0
  192.2820  173.7840  145.1340 C   0  0  0  0  0  0  0  0  0  0  0  0
  189.5790  177.6920  146.8040 O   0  0  0  0  0  1  0  0  0  0  0  0
  190.9200  173.4570  145.0080 C   0  0  0  0  0  0  0  0  0  0  0  0
  191.6270  175.9180  146.0600 C   0  0  0  0  0  3  0  0  0  0  0  0
  189.2410  176.4730  146.3200 N   0  0  0  0  0  0  0  0  0  0  0  0
  190.5770  172.2180  144.4740 C   0  0  0  0  0  3  0  0  0  0  0  0
  189.9630  174.3380  145.3980 N   0  0  0  0  0  0  0  0  0  0  0  0
  184.2590  178.7380  144.5920 C   0  0  0  0  0  0  0  0  0  0  0  0
  183.3940  179.1330  143.7690 O   0  0  0  0  0  0  0  0  0  0  0  0
  185.8270  176.8770  145.0700 C   0  0  2  0  0  3  0  0  0  0  0  0
  187.8190  176.1450  146.2360 C   0  0  2  0  0  3  0  0  0  0  0  0
  185.4890  178.0360  144.1240 C   0  0  0  0  0  2  0  0  0  0  0  0
  184.0860  178.9670  145.9880 N   0  0  0  0  0  2  0  0  0  0  0  0
  185.1640  178.5940  146.8930 C   0  0  0  0  0  2  0  0  0  0  0  0
  185.6580  177.1790  146.5770 C   0  0  2  0  0  3  0  0  0  0  0  0
  187.2620  176.4440  144.8580 C   0  0  0  0  0  2  0  0  0  0  0  0
  187.0030  176.9470  147.2310 C   0  0  0  0  0  2  0  0  0  0  0  0
  194.0610  175.4410  145.8130 C   0  0  0  0  0  2  0  0  0  0  0  0
  194.4800  176.3050  144.6280 C   0  0  0  0  0  2  0  0  0  0  0  0
  195.9320  176.0710  144.2100 C   0  0  2  0  0  3  0  0  0  0  0  0
  196.1080  173.6540  143.8000 N   0  0  0  0  0  2  0  0  0  0  0  0
  196.1170  176.2330  142.7230 C   0  0  0  0  0  3  0  0  0  0  0  0
  196.4500  175.2080  141.9290 C   0  0  0  0  0  0  0  0  0  0  0  0
  196.8120  173.8740  142.5370 C   0  0  0  0  0  2  0  0  0  0  0  0
  196.4740  174.7300  144.7190 C   0  0  0  0  0  2  0  0  0  0  0  0
  193.5450  173.9800  138.6780 C   0  0  0  0  0  1  0  0  0  0  0  0
  196.6440  175.4350  140.4810 C   0  0  0  0  0  0  0  0  0  0  0  0
  193.7330  175.2730  140.6600 O   0  0  0  0  0  0  0  0  0  0  0  0
  197.6580  176.0710  140.0840 O   0  0  0  0  0  0  0  0  0  0  0  0
  194.3270  174.7430  139.6840 C   0  0  0  0  0  0  0  0  0  0  0  0
  195.7380  174.9120  139.5020 N   0  0  0  0  0  2  0  0  0  0  0  0
  1  9  1  0  0  0  0
  1 10  1  0  0  0  0
  2 23  1  0  0  0  0
  2  9  2  0  0  0  0
  3  5  1  0  0  0  0
  4  3  2  0  0  0  0
  4 11  1  0  0  0  0
  5  6  2  0  0  0  0
  6  2  1  0  0  0  0
  8  6  1  0  0  0  0
  8 12  1  0  0  0  0
 10  7  1  0  0  0  0
 11  8  2  0  0  0  0
 12  1  2  0  0  0  0
 13 18  1  0  0  0  0
 14 13  2  0  0  0  0
 15 17  1  6  0  0  0
 15 20  1  0  0  0  0
 16 10  1  6  0  0  0
 16 22  1  0  0  0  0
 17 13  1  0  0  0  0
 18 19  1  0  0  0  0
 20 19  1  6  0  0  0
 20 22  1  0  0  0  0
 21 15  1  0  0  0  0
 21 16  1  0  0  0  0
 24 23  1  0  0  0  0
 25 24  1  6  0  0  0
 25 30  1  0  0  0  0
 26 30  1  0  0  0  0
 27 25  1  0  0  0  0
 28 29  1  0  0  0  0
 28 27  2  0  0  0  0
 29 26  1  0  0  0  0
 31 35  1  0  0  0  0
 32 28  1  0  0  0  0
 34 32  2  0  0  0  0
 35 33  2  0  0  0  0
 36 35  1  0  0  0  0
 36 32  1  0  0  0  0
M  END
>  <MODEL>
1

>  <REMARK>
 VINA RESULT:      -8.2      0.000      0.000
  Name = 
  5 active torsions:
  status: ('A' for Active; 'I' for Inactive)
    1  A    between atoms: C_4  and  C_13
    2  A    between atoms: C_5  and  C_22
    3  A    between atoms: C_10  and  N_33
    4  A    between atoms: C_13  and  C_22
    5  A    between atoms: C_15  and  C_20
                            x       y       z     vdW  Elec       q    Type
                         _______ _______ _______ _____ _____    ______ ____

>  <TORSDO>
F 5

$$$$
=
 OpenBabel11072408453D

 36 40  0  0  1  0  0  0  0  0999 V2000
  191.4970  173.4320  144.2650 C   0  0  0  0  0  0  0  0  0  0  0  0
  191.2780  174.8160  146.2440 C   0  0  0  0  0  0  0  0  0  0  0  0
  194.2580  176.9260  146.4510 C   0  0  0  0  0  3  0  0  0  0  0  0
  194.9470  176.5220  145.3510 N   0  0  0  0  0  0  0  0  0  0  0  0
  193.0530  176.3690  146.7470 N   0  0  0  0  0  0  0  0  0  0  0  0
  192.5190  175.4020  145.9520 C   0  0  0  0  0  0  0  0  0  0  0  0
  189.7570  171.8780  143.6470 O   0  0  0  0  0  1  0  0  0  0  0  0
  193.2220  174.9750  144.8120 C   0  0  0  0  0  0  0  0  0  0  0  0
  190.7680  173.8330  145.3920 C   0  0  0  0  0  3  0  0  0  0  0  0
  190.9720  172.4160  143.3880 N   0  0  0  0  0  0  0  0  0  0  0  0
  194.4530  175.5590  144.5280 C   0  0  0  0  0  3  0  0  0  0  0  0
  192.7040  174.0130  144.0060 N   0  0  0  0  0  0  0  0  0  0  0  0
  190.0360  169.8780  138.3260 C   0  0  0  0  0  0  0  0  0  0  0  0
  189.6600  169.7940  137.1290 O   0  0  0  0  0  0  0  0  0  0  0  0
  191.2790  171.3270  139.9090 C   0  0  2  0  0  3  0  0  0  0  0  0
  191.6980  171.9260  142.2170 C   0  0  2  0  0  3  0  0  0  0  0  0
  190.0260  171.1910  139.0350 C   0  0  0  0  0  2  0  0  0  0  0  0
  190.4640  168.7180  139.0330 N   0  0  0  0  0  2  0  0  0  0  0  0
  190.7820  168.8420  140.4490 C   0  0  0  0  0  2  0  0  0  0  0  0
  191.6880  170.0540  140.6840 C   0  0  2  0  0  3  0  0  0  0  0  0
  191.0750  172.4270  140.9290 C   0  0  0  0  0  2  0  0  0  0  0  0
  191.6950  170.4110  142.1560 C   0  0  0  0  0  2  0  0  0  0  0  0
  190.4770  175.2420  147.4290 C   0  0  0  0  0  2  0  0  0  0  0  0
  188.9890  175.0690  147.1480 C   0  0  0  0  0  2  0  0  0  0  0  0
  188.2880  176.3910  146.8340 C   0  0  2  0  0  3  0  0  0  0  0  0
  189.7530  177.5360  145.2270 N   0  0  0  0  0  2  0  0  0  0  0  0
  187.3160  176.2510  145.6920 C   0  0  0  0  0  3  0  0  0  0  0  0
  187.4990  176.8670  144.5170 C   0  0  0  0  0  0  0  0  0  0  0  0
  188.6210  177.8650  144.3610 C   0  0  0  0  0  2  0  0  0  0  0  0
  189.2830  177.5360  146.6110 C   0  0  0  0  0  2  0  0  0  0  0  0
  188.2720  174.9840  140.4710 C   0  0  0  0  0  1  0  0  0  0  0  0
  186.4960  176.7120  143.4440 C   0  0  0  0  0  0  0  0  0  0  0  0
  188.3680  174.5620  142.8050 O   0  0  0  0  0  0  0  0  0  0  0  0
  185.3040  177.0650  143.6530 O   0  0  0  0  0  0  0  0  0  0  0  0
  187.8570  175.2400  141.8750 C   0  0  0  0  0  0  0  0  0  0  0  0
  186.8430  176.2140  142.1450 N   0  0  0  0  0  2  0  0  0  0  0  0
  1  9  1  0  0  0  0
  2 23  1  0  0  0  0
  3  5  1  0  0  0  0
  4  3  2  0  0  0  0
  6  2  1  0  0  0  0
  6  5  2  0  0  0  0
  8  6  1  0  0  0  0
  9  2  2  0  0  0  0
 10  7  1  0  0  0  0
 10  1  1  0  0  0  0
 11  8  2  0  0  0  0
 11  4  1  0  0  0  0
 12  1  2  0  0  0  0
 12  8  1  0  0  0  0
 13 18  1  0  0  0  0
 13 17  1  0  0  0  0
 14 13  2  0  0  0  0
 15 17  1  1  0  0  0
 15 20  1  0  0  0  0
 15 21  1  0  0  0  0
 16 10  1  1  0  0  0
 18 19  1  0  0  0  0
 20 19  1  1  0  0  0
 20 22  1  0  0  0  0
 21 16  1  0  0  0  0
 22 16  1  0  0  0  0
 24 23  1  0  0  0  0
 25 24  1  6  0  0  0
 26 30  1  0  0  0  0
 27 25  1  0  0  0  0
 28 27  2  0  0  0  0
 29 28  1  0  0  0  0
 29 26  1  0  0  0  0
 30 25  1  0  0  0  0
 31 35  1  0  0  0  0
 32 34  2  0  0  0  0
 32 28  1  0  0  0  0
 35 36  1  0  0  0  0
 35 33  2  0  0  0  0
 36 32  1  0  0  0  0
M  END
>  <MODEL>
2

>  <REMARK>
 VINA RESULT:      -8.1      3.380      8.130
  Name = 
  5 active torsions:
  status: ('A' for Active; 'I' for Inactive)
    1  A    between atoms: C_4  and  C_13
    2  A    between atoms: C_5  and  C_22
    3  A    between atoms: C_10  and  N_33
    4  A    between atoms: C_13  and  C_22
    5  A    between atoms: C_15  and  C_20
                            x       y       z     vdW  Elec       q    Type
                         _______ _______ _______ _____ _____    ______ ____

>  <TORSDO>
F 5

$$$$
=
 OpenBabel11072408453D

 36 40  0  0  1  0  0  0  0  0999 V2000
  193.6200  176.1030  143.2160 C   0  0  0  0  0  0  0  0  0  0  0  0
  191.4380  177.0330  143.7230 C   0  0  0  0  0  0  0  0  0  0  0  0
  190.6370  176.1480  147.1790 C   0  0  0  0  0  3  0  0  0  0  0  0
  191.7410  175.4410  147.5370 N   0  0  0  0  0  0  0  0  0  0  0  0
  190.5330  176.6730  145.9290 N   0  0  0  0  0  0  0  0  0  0  0  0
  191.5290  176.5000  145.0180 C   0  0  0  0  0  0  0  0  0  0  0  0
  194.6350  176.4450  141.0530 O   0  0  0  0  0  1  0  0  0  0  0  0
  192.6770  175.7710  145.3740 C   0  0  0  0  0  0  0  0  0  0  0  0
  192.4900  176.8360  142.8260 C   0  0  0  0  0  3  0  0  0  0  0  0
  194.7040  175.8980  142.2900 N   0  0  0  0  0  0  0  0  0  0  0  0
  192.7610  175.2430  146.6600 C   0  0  0  0  0  3  0  0  0  0  0  0
  193.6810  175.5910  144.4790 N   0  0  0  0  0  0  0  0  0  0  0  0
  196.3880  171.6380  145.7470 C   0  0  0  0  0  0  0  0  0  0  0  0
  196.4750  170.4540  146.1620 O   0  0  0  0  0  0  0  0  0  0  0  0
  196.4780  173.0210  143.6910 C   0  0  2  0  0  3  0  0  0  0  0  0
  195.8920  175.1130  142.6210 C   0  0  2  0  0  3  0  0  0  0  0  0
  195.7030  171.9420  144.4570 C   0  0  0  0  0  2  0  0  0  0  0  0
  196.9310  172.7120  146.5090 N   0  0  0  0  0  2  0  0  0  0  0  0
  196.7080  174.0750  146.0470 C   0  0  0  0  0  2  0  0  0  0  0  0
  197.0190  174.1860  144.5510 C   0  0  2  0  0  3  0  0  0  0  0  0
  195.5920  173.6270  142.6230 C   0  0  0  0  0  2  0  0  0  0  0  0
  196.4250  175.4630  143.9960 C   0  0  0  0  0  2  0  0  0  0  0  0
  190.2530  177.8320  143.2940 C   0  0  0  0  0  2  0  0  0  0  0  0
  189.3480  176.9920  142.4000 C   0  0  0  0  0  2  0  0  0  0  0  0
  188.1150  177.7570  141.9190 C   0  0  2  0  0  3  0  0  0  0  0  0
  186.2100  176.2750  142.3830 N   0  0  0  0  0  2  0  0  0  0  0  0
  187.5540  178.6470  142.9970 C   0  0  0  0  0  3  0  0  0  0  0  0
  186.3520  178.4340  143.5470 C   0  0  0  0  0  0  0  0  0  0  0  0
  185.4440  177.3720  142.9750 C   0  0  0  0  0  2  0  0  0  0  0  0
  187.0510  176.8270  141.3230 C   0  0  0  0  0  2  0  0  0  0  0  0
  185.9410  177.4530  147.9490 C   0  0  0  0  0  1  0  0  0  0  0  0
  185.8450  179.3580  144.5820 C   0  0  0  0  0  0  0  0  0  0  0  0
  187.5110  177.5600  146.1720 O   0  0  0  0  0  0  0  0  0  0  0  0
  185.5490  180.5420  144.2650 O   0  0  0  0  0  0  0  0  0  0  0  0
  186.4100  177.9610  146.6340 C   0  0  0  0  0  0  0  0  0  0  0  0
  185.6300  178.9380  145.9360 N   0  0  0  0  0  2  0  0  0  0  0  0
  1 12  1  0  0  0  0
  2  6  2  0  0  0  0
  3  4  1  0  0  0  0
  5  3  2  0  0  0  0
  6  8  1  0  0  0  0
  6  5  1  0  0  0  0
  7 10  1  0  0  0  0
  8 11  1  0  0  0  0
  9  1  2  0  0  0  0
  9  2  1  0  0  0  0
 10  1  1  0  0  0  0
 11  4  2  0  0  0  0
 12  8  2  0  0  0  0
 13 14  2  0  0  0  0
 13 18  1  0  0  0  0
 15 21  1  6  0  0  0
 15 17  1  0  0  0  0
 15 20  1  0  0  0  0
 16 10  1  1  0  0  0
 16 21  1  0  0  0  0
 16 22  1  0  0  0  0
 17 13  1  0  0  0  0
 19 18  1  0  0  0  0
 20 22  1  6  0  0  0
 20 19  1  0  0  0  0
 23  2  1  0  0  0  0
 24 23  1  0  0  0  0
 25 24  1  1  0  0  0
 25 27  1  0  0  0  0
 26 29  1  0  0  0  0
 27 28  2  0  0  0  0
 28 32  1  0  0  0  0
 29 28  1  0  0  0  0
 30 25  1  0  0  0  0
 30 26  1  0  0  0  0
 32 36  1  0  0  0  0
 33 35  2  0  0  0  0
 34 32  2  0  0  0  0
 35 31  1  0  0  0  0
 36 35  1  0  0  0  0
M  END
>  <MODEL>
3

>  <REMARK>
 VINA RESULT:      -8.0      2.620      9.559
  Name = 
  5 active torsions:
  status: ('A' for Active; 'I' for Inactive)
    1  A    between atoms: C_4  and  C_13
    2  A    between atoms: C_5  and  C_22
    3  A    between atoms: C_10  and  N_33
    4  A    between atoms: C_13  and  C_22
    5  A    between atoms: C_15  and  C_20
                            x       y       z     vdW  Elec       q    Type
                         _______ _______ _______ _____ _____    ______ ____

>  <TORSDO>
F 5

$$$$
=
 OpenBabel11072408453D

 36 40  0  0  1  0  0  0  0  0999 V2000
  189.3690  174.7670  144.9100 C   0  0  0  0  0  0  0  0  0  0  0  0
  190.3670  172.7390  144.0310 C   0  0  0  0  0  0  0  0  0  0  0  0
  189.7000  172.6490  140.4370 C   0  0  0  0  0  3  0  0  0  0  0  0
  188.9960  173.7980  140.2670 N   0  0  0  0  0  0  0  0  0  0  0  0
  190.1530  172.2970  141.6710 N   0  0  0  0  0  0  0  0  0  0  0  0
  189.9090  173.0870  142.7520 C   0  0  0  0  0  0  0  0  0  0  0  0
  189.5660  175.3250  147.2510 O   0  0  0  0  0  1  0  0  0  0  0  0
  189.1810  174.2790  142.5900 C   0  0  0  0  0  0  0  0  0  0  0  0
  190.0990  173.5860  145.1090 C   0  0  0  0  0  3  0  0  0  0  0  0
  189.0910  175.6400  146.0220 N   0  0  0  0  0  0  0  0  0  0  0  0
  188.7280  174.6180  141.3180 C   0  0  0  0  0  3  0  0  0  0  0  0
  188.9310  175.0800  143.6570 N   0  0  0  0  0  0  0  0  0  0  0  0
  184.9220  177.9160  142.8010 C   0  0  0  0  0  0  0  0  0  0  0  0
  183.7500  178.0730  142.3710 O   0  0  0  0  0  0  0  0  0  0  0  0
  186.2420  177.6310  144.8810 C   0  0  2  0  0  3  0  0  0  0  0  0
  188.3050  176.8660  145.8900 C   0  0  2  0  0  3  0  0  0  0  0  0
  185.1930  177.0060  143.9510 C   0  0  0  0  0  2  0  0  0  0  0  0
  186.0140  178.5930  142.1860 N   0  0  0  0  0  2  0  0  0  0  0  0
  187.3640  178.2940  142.6420 C   0  0  0  0  0  2  0  0  0  0  0  0
  187.4270  178.3250  144.1720 C   0  0  2  0  0  3  0  0  0  0  0  0
  186.8230  176.5650  145.7870 C   0  0  0  0  0  2  0  0  0  0  0  0
  188.6920  177.6440  144.6480 C   0  0  0  0  0  2  0  0  0  0  0  0
  191.1610  171.4960  144.2610 C   0  0  0  0  0  2  0  0  0  0  0  0
  192.6380  171.7570  143.9870 C   0  0  0  0  0  2  0  0  0  0  0  0
  193.4150  172.1440  145.2450 C   0  0  2  0  0  3  0  0  0  0  0  0
  195.7860  171.9200  144.6390 N   0  0  0  0  0  2  0  0  0  0  0  0
  193.6760  173.6260  145.3060 C   0  0  0  0  0  3  0  0  0  0  0  0
  194.9110  174.1390  145.2250 C   0  0  0  0  0  0  0  0  0  0  0  0
  196.1070  173.2180  145.2320 C   0  0  0  0  0  2  0  0  0  0  0  0
  194.6990  171.3220  145.4100 C   0  0  0  0  0  2  0  0  0  0  0  0
  196.4400  176.7890  141.8860 C   0  0  0  0  0  1  0  0  0  0  0  0
  195.1050  175.6010  145.3180 C   0  0  0  0  0  0  0  0  0  0  0  0
  194.7250  175.2460  142.4430 O   0  0  0  0  0  0  0  0  0  0  0  0
  194.7750  176.2040  146.3750 O   0  0  0  0  0  0  0  0  0  0  0  0
  195.5830  176.0680  142.8620 C   0  0  0  0  0  0  0  0  0  0  0  0
  195.7070  176.3560  144.2590 N   0  0  0  0  0  2  0  0  0  0  0  0
  1  9  1  0  0  0  0
  1 10  1  0  0  0  0
  2 23  1  0  0  0  0
  2  9  2  0  0  0  0
  3  5  1  0  0  0  0
  4  3  2  0  0  0  0
  4 11  1  0  0  0  0
  5  6  2  0  0  0  0
  6  2  1  0  0  0  0
  8  6  1  0  0  0  0
  8 12  1  0  0  0  0
 10  7  1  0  0  0  0
 11  8  2  0  0  0  0
 12  1  2  0  0  0  0
 13 17  1  0  0  0  0
 14 13  2  0  0  0  0
 15 17  1  6  0  0  0
 15 21  1  0  0  0  0
 16 10  1  6  0  0  0
 18 19  1  0  0  0  0
 18 13  1  0  0  0  0
 20 19  1  6  0  0  0
 20 22  1  0  0  0  0
 20 15  1  0  0  0  0
 21 16  1  0  0  0  0
 22 16  1  0  0  0  0
 24 23  1  0  0  0  0
 25 24  1  6  0  0  0
 25 27  1  0  0  0  0
 25 30  1  0  0  0  0
 26 29  1  0  0  0  0
 26 30  1  0  0  0  0
 28 29  1  0  0  0  0
 28 27  2  0  0  0  0
 28 32  1  0  0  0  0
 31 35  1  0  0  0  0
 32 34  2  0  0  0  0
 33 35  2  0  0  0  0
 35 36  1  0  0  0  0
 36 32  1  0  0  0  0
M  END
>  <MODEL>
4

>  <REMARK>
 VINA RESULT:      -8.0      2.376      3.719
  Name = 
  5 active torsions:
  status: ('A' for Active; 'I' for Inactive)
    1  A    between atoms: C_4  and  C_13
    2  A    between atoms: C_5  and  C_22
    3  A    between atoms: C_10  and  N_33
    4  A    between atoms: C_13  and  C_22
    5  A    between atoms: C_15  and  C_20
                            x       y       z     vdW  Elec       q    Type
                         _______ _______ _______ _____ _____    ______ ____

>  <TORSDO>
F 5

$$$$
=
 OpenBabel11072408453D

 36 40  0  0  1  0  0  0  0  0999 V2000
  191.5390  174.9000  145.5100 C   0  0  0  0  0  0  0  0  0  0  0  0
  193.3190  173.3330  145.0020 C   0  0  0  0  0  0  0  0  0  0  0  0
  196.2910  175.2800  144.1400 C   0  0  0  0  0  3  0  0  0  0  0  0
  195.8240  176.5500  144.2660 N   0  0  0  0  0  0  0  0  0  0  0  0
  195.4720  174.2210  144.3810 N   0  0  0  0  0  0  0  0  0  0  0  0
  194.1770  174.4130  144.7510 C   0  0  0  0  0  0  0  0  0  0  0  0
  189.3590  174.1150  146.1860 O   0  0  0  0  0  1  0  0  0  0  0  0
  193.6810  175.7220  144.8850 C   0  0  0  0  0  0  0  0  0  0  0  0
  191.9990  173.5810  145.3870 C   0  0  0  0  0  3  0  0  0  0  0  0
  190.1780  175.1570  145.9060 N   0  0  0  0  0  0  0  0  0  0  0  0
  194.5380  176.7910  144.6330 C   0  0  0  0  0  3  0  0  0  0  0  0
  192.3920  175.9330  145.2550 N   0  0  0  0  0  0  0  0  0  0  0  0
  185.1520  177.9220  145.7260 C   0  0  0  0  0  0  0  0  0  0  0  0
  184.0230  178.2920  146.1380 O   0  0  0  0  0  0  0  0  0  0  0  0
  187.5050  177.5980  146.4380 C   0  0  2  0  0  3  0  0  0  0  0  0
  189.6240  176.5050  146.0160 C   0  0  2  0  0  3  0  0  0  0  0  0
  186.0560  177.1240  146.6040 C   0  0  0  0  0  2  0  0  0  0  0  0
  185.5820  178.2450  144.4070 N   0  0  0  0  0  2  0  0  0  0  0  0
  186.8460  177.7000  143.9340 C   0  0  0  0  0  2  0  0  0  0  0  0
  187.9400  177.9050  144.9870 C   0  0  2  0  0  3  0  0  0  0  0  0
  188.4530  176.5470  146.9770 C   0  0  0  0  0  2  0  0  0  0  0  0
  189.1230  177.0120  144.6780 C   0  0  0  0  0  2  0  0  0  0  0  0
  193.7930  171.9220  144.8950 C   0  0  0  0  0  2  0  0  0  0  0  0
  192.7140  171.0500  144.2620 C   0  0  0  0  0  2  0  0  0  0  0  0
  192.9170  170.8540  142.7600 C   0  0  2  0  0  3  0  0  0  0  0  0
  190.8170  169.8690  141.9450 N   0  0  0  0  0  2  0  0  0  0  0  0
  192.5260  172.0800  141.9780 C   0  0  0  0  0  3  0  0  0  0  0  0
  191.4860  172.0900  141.1350 C   0  0  0  0  0  0  0  0  0  0  0  0
  190.7650  170.8010  140.8190 C   0  0  0  0  0  2  0  0  0  0  0  0
  192.2210  169.5890  142.2410 C   0  0  0  0  0  2  0  0  0  0  0  0
  187.7980  174.6500  141.7320 C   0  0  0  0  0  1  0  0  0  0  0  0
  191.1680  173.3170  140.3760 C   0  0  0  0  0  0  0  0  0  0  0  0
  189.6940  173.7690  142.8570 O   0  0  0  0  0  0  0  0  0  0  0  0
  191.9930  173.7520  139.5270 O   0  0  0  0  0  0  0  0  0  0  0  0
  189.1790  174.1020  141.7570 C   0  0  0  0  0  0  0  0  0  0  0  0
  189.9230  174.0100  140.5370 N   0  0  0  0  0  2  0  0  0  0  0  0
  1 10  1  0  0  0  0
  2  9  2  0  0  0  0
  3  4  2  0  0  0  0
  3  5  1  0  0  0  0
  4 11  1  0  0  0  0
  5  6  2  0  0  0  0
  6  8  1  0  0  0  0
  6  2  1  0  0  0  0
  8 12  1  0  0  0  0
  9  1  1  0  0  0  0
 10  7  1  0  0  0  0
 11  8  2  0  0  0  0
 12  1  2  0  0  0  0
 13 14  2  0  0  0  0
 13 17  1  0  0  0  0
 15 17  1  6  0  0  0
 15 21  1  0  0  0  0
 16 10  1  6  0  0  0
 16 21  1  0  0  0  0
 18 13  1  0  0  0  0
 19 18  1  0  0  0  0
 20 19  1  6  0  0  0
 20 15  1  0  0  0  0
 22 20  1  0  0  0  0
 22 16  1  0  0  0  0
 23  2  1  0  0  0  0
 24 23  1  0  0  0  0
 25 24  1  1  0  0  0
 26 30  1  0  0  0  0
 27 25  1  0  0  0  0
 28 27  2  0  0  0  0
 29 28  1  0  0  0  0
 29 26  1  0  0  0  0
 30 25  1  0  0  0  0
 31 35  1  0  0  0  0
 32 36  1  0  0  0  0
 32 28  1  0  0  0  0
 34 32  2  0  0  0  0
 35 33  2  0  0  0  0
 36 35  1  0  0  0  0
M  END
>  <MODEL>
5

>  <REMARK>
 VINA RESULT:      -7.9      2.389      4.516
  Name = 
  5 active torsions:
  status: ('A' for Active; 'I' for Inactive)
    1  A    between atoms: C_4  and  C_13
    2  A    between atoms: C_5  and  C_22
    3  A    between atoms: C_10  and  N_33
    4  A    between atoms: C_13  and  C_22
    5  A    between atoms: C_15  and  C_20
                            x       y       z     vdW  Elec       q    Type
                         _______ _______ _______ _____ _____    ______ ____

>  <TORSDO>
F 5

$$$$
=
 OpenBabel11072408453D

 36 40  0  0  1  0  0  0  0  0999 V2000
  188.3330  175.4440  142.2910 C   0  0  0  0  0  0  0  0  0  0  0  0
  188.5160  177.0960  144.0580 C   0  0  0  0  0  0  0  0  0  0  0  0
  185.4420  179.0770  144.0380 C   0  0  0  0  0  3  0  0  0  0  0  0
  184.7600  178.5010  143.0140 N   0  0  0  0  0  0  0  0  0  0  0  0
  186.6750  178.6190  144.3850 N   0  0  0  0  0  0  0  0  0  0  0  0
  187.2450  177.5810  143.7150 C   0  0  0  0  0  0  0  0  0  0  0  0
  190.1000  173.8440  141.9110 O   0  0  0  0  0  1  0  0  0  0  0  0
  186.5500  176.9760  142.6520 C   0  0  0  0  0  0  0  0  0  0  0  0
  189.0550  176.0220  143.3450 C   0  0  0  0  0  3  0  0  0  0  0  0
  188.8900  174.3380  141.5550 N   0  0  0  0  0  0  0  0  0  0  0  0
  185.2890  177.4610  142.3160 C   0  0  0  0  0  3  0  0  0  0  0  0
  187.1020  175.9370  141.9740 N   0  0  0  0  0  0  0  0  0  0  0  0
  190.0310  171.6950  136.5900 C   0  0  0  0  0  0  0  0  0  0  0  0
  190.4140  170.7600  135.8420 O   0  0  0  0  0  0  0  0  0  0  0  0
  188.6740  172.1820  138.6080 C   0  0  2  0  0  3  0  0  0  0  0  0
  188.2070  173.7140  140.4230 C   0  0  2  0  0  3  0  0  0  0  0  0
  189.9340  171.4960  138.0650 C   0  0  0  0  0  2  0  0  0  0  0  0
  189.6980  172.9680  136.0440 N   0  0  0  0  0  2  0  0  0  0  0  0
  189.3710  174.0540  136.9580 C   0  0  0  0  0  2  0  0  0  0  0  0
  188.3690  173.5750  138.0130 C   0  0  2  0  0  3  0  0  0  0  0  0
  188.7880  172.3500  140.1090 C   0  0  0  0  0  2  0  0  0  0  0  0
  188.3330  174.5550  139.1670 C   0  0  0  0  0  2  0  0  0  0  0  0
  189.2930  177.6850  145.1870 C   0  0  0  0  0  2  0  0  0  0  0  0
  188.8210  177.0980  146.5130 C   0  0  0  0  0  2  0  0  0  0  0  0
  189.9120  176.3010  147.2290 C   0  0  2  0  0  3  0  0  0  0  0  0
  190.3260  174.3420  145.8040 N   0  0  0  0  0  2  0  0  0  0  0  0
  191.2900  176.7570  146.8280 C   0  0  0  0  0  3  0  0  0  0  0  0
  192.1330  175.9710  146.1450 C   0  0  0  0  0  0  0  0  0  0  0  0
  191.7740  174.5260  145.8960 C   0  0  0  0  0  2  0  0  0  0  0  0
  189.7290  174.7880  147.0610 C   0  0  0  0  0  2  0  0  0  0  0  0
  193.9540  175.9450  141.9990 C   0  0  0  0  0  1  0  0  0  0  0  0
  193.4830  176.4660  145.8040 C   0  0  0  0  0  0  0  0  0  0  0  0
  192.0990  176.7420  143.2460 O   0  0  0  0  0  0  0  0  0  0  0  0
  194.1920  176.9990  146.7000 O   0  0  0  0  0  0  0  0  0  0  0  0
  193.2930  176.3420  143.2690 C   0  0  0  0  0  0  0  0  0  0  0  0
  194.0380  176.3150  144.4910 N   0  0  0  0  0  2  0  0  0  0  0  0
  1  9  1  0  0  0  0
  2 23  1  0  0  0  0
  3  5  1  0  0  0  0
  4  3  2  0  0  0  0
  6  2  1  0  0  0  0
  6  5  2  0  0  0  0
  8  6  1  0  0  0  0
  9  2  2  0  0  0  0
 10  7  1  0  0  0  0
 10  1  1  0  0  0  0
 11  8  2  0  0  0  0
 11  4  1  0  0  0  0
 12  1  2  0  0  0  0
 12  8  1  0  0  0  0
 13 17  1  0  0  0  0
 14 13  2  0  0  0  0
 15 17  1  6  0  0  0
 15 21  1  0  0  0  0
 16 10  1  1  0  0  0
 18 13  1  0  0  0  0
 18 19  1  0  0  0  0
 20 19  1  6  0  0  0
 20 15  1  0  0  0  0
 20 22  1  0  0  0  0
 21 16  1  0  0  0  0
 22 16  1  0  0  0  0
 23 24  1  0  0  0  0
 25 24  1  6  0  0  0
 26 29  1  0  0  0  0
 26 30  1  0  0  0  0
 27 25  1  0  0  0  0
 28 27  2  0  0  0  0
 29 28  1  0  0  0  0
 30 25  1  0  0  0  0
 31 35  1  0  0  0  0
 32 28  1  0  0  0  0
 32 34  2  0  0  0  0
 33 35  2  0  0  0  0
 35 36  1  0  0  0  0
 36 32  1  0  0  0  0
M  END
>  <MODEL>
6

>  <REMARK>
 VINA RESULT:      -7.9      3.615      7.638
  Name = 
  5 active torsions:
  status: ('A' for Active; 'I' for Inactive)
    1  A    between atoms: C_4  and  C_13
    2  A    between atoms: C_5  and  C_22
    3  A    between atoms: C_10  and  N_33
    4  A    between atoms: C_13  and  C_22
    5  A    between atoms: C_15  and  C_20
                            x       y       z     vdW  Elec       q    Type
                         _______ _______ _______ _____ _____    ______ ____

>  <TORSDO>
F 5

$$$$
=
 OpenBabel11072408453D

 36 40  0  0  1  0  0  0  0  0999 V2000
  191.0640  173.7810  143.7810 C   0  0  0  0  0  0  0  0  0  0  0  0
  190.8260  174.7310  145.9990 C   0  0  0  0  0  0  0  0  0  0  0  0
  193.8320  176.6960  146.6880 C   0  0  0  0  0  3  0  0  0  0  0  0
  194.5380  176.5150  145.5400 N   0  0  0  0  0  0  0  0  0  0  0  0
  192.6130  176.1120  146.8430 N   0  0  0  0  0  0  0  0  0  0  0  0
  192.0810  175.3410  145.8560 C   0  0  0  0  0  0  0  0  0  0  0  0
  189.3130  172.4210  142.8260 O   0  0  0  0  0  1  0  0  0  0  0  0
  192.8000  175.1450  144.6640 C   0  0  0  0  0  0  0  0  0  0  0  0
  190.3180  173.9540  144.9550 C   0  0  0  0  0  3  0  0  0  0  0  0
  190.5410  172.9790  142.7040 N   0  0  0  0  0  0  0  0  0  0  0  0
  194.0460  175.7520  144.5280 C   0  0  0  0  0  3  0  0  0  0  0  0
  192.2840  174.3810  143.6680 N   0  0  0  0  0  0  0  0  0  0  0  0
  189.6880  171.3660  137.2630 C   0  0  0  0  0  0  0  0  0  0  0  0
  189.3170  171.4870  136.0680 O   0  0  0  0  0  0  0  0  0  0  0  0
  190.8860  172.5410  139.0880 C   0  0  2  0  0  3  0  0  0  0  0  0
  191.2830  172.7280  141.4700 C   0  0  2  0  0  3  0  0  0  0  0  0
  189.6390  172.5290  138.1950 C   0  0  0  0  0  2  0  0  0  0  0  0
  190.1480  170.1100  137.7530 N   0  0  0  0  0  2  0  0  0  0  0  0
  190.4600  169.9870  139.1700 C   0  0  0  0  0  2  0  0  0  0  0  0
  191.3310  171.1620  139.6260 C   0  0  2  0  0  3  0  0  0  0  0  0
  190.6480  173.4340  140.2880 C   0  0  0  0  0  2  0  0  0  0  0  0
  191.3240  171.2490  141.1370 C   0  0  0  0  0  2  0  0  0  0  0  0
  190.0080  174.9180  147.2330 C   0  0  0  0  0  2  0  0  0  0  0  0
  188.5660  175.2500  146.8640 C   0  0  0  0  0  2  0  0  0  0  0  0
  188.2790  176.7520  146.8930 C   0  0  2  0  0  3  0  0  0  0  0  0
  188.6980  177.5360  144.6010 N   0  0  0  0  0  2  0  0  0  0  0  0
  186.8280  177.0480  146.6200 C   0  0  0  0  0  3  0  0  0  0  0  0
  186.4250  177.6950  145.5190 C   0  0  0  0  0  0  0  0  0  0  0  0
  187.4470  178.2960  144.5860 C   0  0  0  0  0  2  0  0  0  0  0  0
  189.2150  177.5390  145.9680 C   0  0  0  0  0  2  0  0  0  0  0  0
  184.3820  178.1580  141.5030 C   0  0  0  0  0  1  0  0  0  0  0  0
  184.9880  177.9790  145.3210 C   0  0  0  0  0  0  0  0  0  0  0  0
  185.6700  176.6510  142.8100 O   0  0  0  0  0  0  0  0  0  0  0  0
  184.2260  178.0470  146.3230 O   0  0  0  0  0  0  0  0  0  0  0  0
  184.8870  177.6380  142.8000 C   0  0  0  0  0  0  0  0  0  0  0  0
  184.4350  178.2320  144.0220 N   0  0  0  0  0  2  0  0  0  0  0  0
  1  9  1  0  0  0  0
  2 23  1  0  0  0  0
  3  5  1  0  0  0  0
  4  3  2  0  0  0  0
  6  2  1  0  0  0  0
  6  5  2  0  0  0  0
  8  6  1  0  0  0  0
  9  2  2  0  0  0  0
 10  7  1  0  0  0  0
 10  1  1  0  0  0  0
 11  8  2  0  0  0  0
 11  4  1  0  0  0  0
 12  1  2  0  0  0  0
 12  8  1  0  0  0  0
 13 18  1  0  0  0  0
 13 17  1  0  0  0  0
 14 13  2  0  0  0  0
 15 17  1  1  0  0  0
 15 20  1  0  0  0  0
 15 21  1  0  0  0  0
 16 10  1  1  0  0  0
 18 19  1  0  0  0  0
 20 19  1  1  0  0  0
 20 22  1  0  0  0  0
 21 16  1  0  0  0  0
 22 16  1  0  0  0  0
 24 23  1  0  0  0  0
 25 24  1  6  0  0  0
 26 30  1  0  0  0  0
 27 25  1  0  0  0  0
 28 27  2  0  0  0  0
 29 26  1  0  0  0  0
 29 28  1  0  0  0  0
 30 25  1  0  0  0  0
 31 35  1  0  0  0  0
 32 28  1  0  0  0  0
 32 34  2  0  0  0  0
 35 33  2  0  0  0  0
 35 36  1  0  0  0  0
 36 32  1  0  0  0  0
M  END
>  <MODEL>
7

>  <REMARK>
 VINA RESULT:      -7.9      3.146      8.717
  Name = 
  5 active torsions:
  status: ('A' for Active; 'I' for Inactive)
    1  A    between atoms: C_4  and  C_13
    2  A    between atoms: C_5  and  C_22
    3  A    between atoms: C_10  and  N_33
    4  A    between atoms: C_13  and  C_22
    5  A    between atoms: C_15  and  C_20
                            x       y       z     vdW  Elec       q    Type
                         _______ _______ _______ _____ _____    ______ ____

>  <TORSDO>
F 5

$$$$
=
 OpenBabel11072408453D

 36 40  0  0  1  0  0  0  0  0999 V2000
  191.9700  173.3770  144.1170 C   0  0  0  0  0  0  0  0  0  0  0  0
  191.8580  174.8520  146.0390 C   0  0  0  0  0  0  0  0  0  0  0  0
  194.7120  177.1300  145.8500 C   0  0  0  0  0  3  0  0  0  0  0  0
  195.3170  176.7060  144.7080 N   0  0  0  0  0  0  0  0  0  0  0  0
  193.5760  176.5250  146.2900 N   0  0  0  0  0  0  0  0  0  0  0  0
  193.0280  175.4890  145.5990 C   0  0  0  0  0  0  0  0  0  0  0  0
  190.2740  171.6990  143.7490 O   0  0  0  0  0  1  0  0  0  0  0  0
  193.6430  175.0400  144.4170 C   0  0  0  0  0  0  0  0  0  0  0  0
  191.3290  173.7980  145.2910 C   0  0  0  0  0  3  0  0  0  0  0  0
  191.4250  172.2890  143.3460 N   0  0  0  0  0  0  0  0  0  0  0  0
  194.8050  175.6750  143.9850 C   0  0  0  0  0  3  0  0  0  0  0  0
  193.1090  174.0090  143.7130 N   0  0  0  0  0  0  0  0  0  0  0  0
  190.0990  169.8860  138.3050 C   0  0  0  0  0  0  0  0  0  0  0  0
  189.6610  169.8420  137.1280 O   0  0  0  0  0  0  0  0  0  0  0  0
  191.4990  171.2380  139.8430 C   0  0  2  0  0  3  0  0  0  0  0  0
  192.0630  171.7770  142.1350 C   0  0  2  0  0  3  0  0  0  0  0  0
  190.1990  171.1860  139.0300 C   0  0  0  0  0  2  0  0  0  0  0  0
  190.4950  168.6930  138.9750 N   0  0  0  0  0  2  0  0  0  0  0  0
  190.8880  168.7770  140.3750 C   0  0  0  0  0  2  0  0  0  0  0  0
  191.8720  169.9320  140.5800 C   0  0  2  0  0  3  0  0  0  0  0  0
  191.4080  172.3330  140.8860 C   0  0  0  0  0  2  0  0  0  0  0  0
  191.9710  170.2660  142.0540 C   0  0  0  0  0  2  0  0  0  0  0  0
  191.1500  175.2960  147.2760 C   0  0  0  0  0  2  0  0  0  0  0  0
  189.6430  175.1450  147.1020 C   0  0  0  0  0  2  0  0  0  0  0  0
  188.9390  176.4790  146.8550 C   0  0  2  0  0  3  0  0  0  0  0  0
  190.0260  177.4270  144.8640 N   0  0  0  0  0  2  0  0  0  0  0  0
  187.7200  176.3150  145.9850 C   0  0  0  0  0  3  0  0  0  0  0  0
  187.6430  176.8380  144.7550 C   0  0  0  0  0  0  0  0  0  0  0  0
  188.7340  177.7570  144.2620 C   0  0  0  0  0  2  0  0  0  0  0  0
  189.8960  177.5490  146.3140 C   0  0  0  0  0  2  0  0  0  0  0  0
  183.7190  178.9630  145.5270 C   0  0  0  0  0  1  0  0  0  0  0  0
  186.4090  176.6650  143.9600 C   0  0  0  0  0  0  0  0  0  0  0  0
  186.0170  179.3390  145.0690 O   0  0  0  0  0  0  0  0  0  0  0  0
  186.4270  175.9200  142.9430 O   0  0  0  0  0  0  0  0  0  0  0  0
  185.0400  178.5490  144.9880 C   0  0  0  0  0  0  0  0  0  0  0  0
  185.1700  177.2800  144.3370 N   0  0  0  0  0  2  0  0  0  0  0  0
  1  9  1  0  0  0  0
  2 23  1  0  0  0  0
  3  5  1  0  0  0  0
  4  3  2  0  0  0  0
  6  2  1  0  0  0  0
  6  5  2  0  0  0  0
  8  6  1  0  0  0  0
  9  2  2  0  0  0  0
 10  7  1  0  0  0  0
 10  1  1  0  0  0  0
 11  8  2  0  0  0  0
 11  4  1  0  0  0  0
 12  1  2  0  0  0  0
 12  8  1  0  0  0  0
 13 18  1  0  0  0  0
 13 17  1  0  0  0  0
 14 13  2  0  0  0  0
 15 17  1  1  0  0  0
 15 20  1  0  0  0  0
 15 21  1  0  0  0  0
 16 10  1  1  0  0  0
 18 19  1  0  0  0  0
 20 19  1  1  0  0  0
 20 22  1  0  0  0  0
 21 16  1  0  0  0  0
 22 16  1  0  0  0  0
 24 23  1  0  0  0  0
 25 24  1  6  0  0  0
 26 30  1  0  0  0  0
 27 25  1  0  0  0  0
 28 27  2  0  0  0  0
 29 28  1  0  0  0  0
 29 26  1  0  0  0  0
 30 25  1  0  0  0  0
 32 36  1  0  0  0  0
 32 28  1  0  0  0  0
 34 32  2  0  0  0  0
 35 33  2  0  0  0  0
 35 31  1  0  0  0  0
 36 35  1  0  0  0  0
M  END
>  <MODEL>
8

>  <REMARK>
 VINA RESULT:      -7.8      3.132      8.644
  Name = 
  5 active torsions:
  status: ('A' for Active; 'I' for Inactive)
    1  A    between atoms: C_4  and  C_13
    2  A    between atoms: C_5  and  C_22
    3  A    between atoms: C_10  and  N_33
    4  A    between atoms: C_13  and  C_22
    5  A    between atoms: C_15  and  C_20
                            x       y       z     vdW  Elec       q    Type
                         _______ _______ _______ _____ _____    ______ ____

>  <TORSDO>
F 5

$$$$
=
 OpenBabel11072408453D

 36 40  0  0  1  0  0  0  0  0999 V2000
  188.6290  175.0360  141.6740 C   0  0  0  0  0  0  0  0  0  0  0  0
  187.4890  176.2540  143.4340 C   0  0  0  0  0  0  0  0  0  0  0  0
  185.1490  178.5670  141.8390 C   0  0  0  0  0  3  0  0  0  0  0  0
  185.3680  178.3040  140.5240 N   0  0  0  0  0  0  0  0  0  0  0  0
  185.8430  177.8960  142.7980 N   0  0  0  0  0  0  0  0  0  0  0  0
  186.7640  176.9550  142.4590 C   0  0  0  0  0  0  0  0  0  0  0  0
  190.2610  173.3390  142.2050 O   0  0  0  0  0  1  0  0  0  0  0  0
  187.0010  176.6730  141.1020 C   0  0  0  0  0  0  0  0  0  0  0  0
  188.4190  175.2900  143.0370 C   0  0  0  0  0  3  0  0  0  0  0  0
  189.5890  174.0430  141.2640 N   0  0  0  0  0  0  0  0  0  0  0  0
  186.2790  177.3710  140.1380 C   0  0  0  0  0  3  0  0  0  0  0  0
  187.9150  175.7340  140.7450 N   0  0  0  0  0  0  0  0  0  0  0  0
  190.9110  169.6510  137.8140 C   0  0  0  0  0  0  0  0  0  0  0  0
  190.7080  168.6010  137.1520 O   0  0  0  0  0  0  0  0  0  0  0  0
  189.9430  171.8730  138.3400 C   0  0  2  0  0  3  0  0  0  0  0  0
  189.8830  173.7560  139.8610 C   0  0  2  0  0  3  0  0  0  0  0  0
  189.7820  170.3550  138.4880 C   0  0  0  0  0  2  0  0  0  0  0  0
  192.2280  170.1800  137.9440 N   0  0  0  0  0  2  0  0  0  0  0  0
  192.4330  171.3320  138.8120 C   0  0  0  0  0  2  0  0  0  0  0  0
  191.3820  172.4080  138.5230 C   0  0  2  0  0  3  0  0  0  0  0  0
  189.0690  172.5820  139.3530 C   0  0  0  0  0  2  0  0  0  0  0  0
  191.3450  173.4070  139.6600 C   0  0  0  0  0  2  0  0  0  0  0  0
  187.2670  176.4960  144.8900 C   0  0  0  0  0  2  0  0  0  0  0  0
  188.2670  177.5230  145.4110 C   0  0  0  0  0  2  0  0  0  0  0  0
  189.1440  176.9760  146.5380 C   0  0  2  0  0  3  0  0  0  0  0  0
  189.4580  174.5950  146.0180 N   0  0  0  0  0  2  0  0  0  0  0  0
  190.6100  177.1320  146.2300 C   0  0  0  0  0  3  0  0  0  0  0  0
  191.4150  176.0800  146.0300 C   0  0  0  0  0  0  0  0  0  0  0  0
  190.8960  174.6830  146.2720 C   0  0  0  0  0  2  0  0  0  0  0  0
  188.7790  175.5330  146.9080 C   0  0  0  0  0  2  0  0  0  0  0  0
  193.4720  175.2980  142.0720 C   0  0  0  0  0  1  0  0  0  0  0  0
  192.8510  176.2970  145.7580 C   0  0  0  0  0  0  0  0  0  0  0  0
  191.7100  176.5300  143.0790 O   0  0  0  0  0  0  0  0  0  0  0  0
  193.5830  176.7940  146.6560 O   0  0  0  0  0  0  0  0  0  0  0  0
  192.8090  175.9360  143.2380 C   0  0  0  0  0  0  0  0  0  0  0  0
  193.4560  175.9140  144.5160 N   0  0  0  0  0  2  0  0  0  0  0  0
  1  9  1  0  0  0  0
  2 23  1  0  0  0  0
  3  5  1  0  0  0  0
  4  3  2  0  0  0  0
  6  5  2  0  0  0  0
  6  2  1  0  0  0  0
  8  6  1  0  0  0  0
  9  2  2  0  0  0  0
 10  1  1  0  0  0  0
 10  7  1  0  0  0  0
 11  4  1  0  0  0  0
 11  8  2  0  0  0  0
 12  8  1  0  0  0  0
 12  1  2  0  0  0  0
 13 18  1  0  0  0  0
 13 17  1  0  0  0  0
 14 13  2  0  0  0  0
 15 17  1  1  0  0  0
 15 20  1  0  0  0  0
 15 21  1  0  0  0  0
 16 10  1  1  0  0  0
 18 19  1  0  0  0  0
 20 19  1  1  0  0  0
 20 22  1  0  0  0  0
 21 16  1  0  0  0  0
 22 16  1  0  0  0  0
 23 24  1  0  0  0  0
 25 24  1  6  0  0  0
 25 30  1  0  0  0  0
 26 29  1  0  0  0  0
 26 30  1  0  0  0  0
 27 25  1  0  0  0  0
 28 27  2  0  0  0  0
 28 29  1  0  0  0  0
 31 35  1  0  0  0  0
 32 28  1  0  0  0  0
 32 34  2  0  0  0  0
 33 35  2  0  0  0  0
 35 36  1  0  0  0  0
 36 32  1  0  0  0  0
M  END
>  <MODEL>
9

>  <REMARK>
 VINA RESULT:      -7.8      3.608      8.256
  Name = 
  5 active torsions:
  status: ('A' for Active; 'I' for Inactive)
    1  A    between atoms: C_4  and  C_13
    2  A    between atoms: C_5  and  C_22
    3  A    between atoms: C_10  and  N_33
    4  A    between atoms: C_13  and  C_22
    5  A    between atoms: C_15  and  C_20
                            x       y       z     vdW  Elec       q    Type
                         _______ _______ _______ _____ _____    ______ ____

>  <TORSDO>
F 5

$$$$
