=
 OpenBabel11062422143D

 44 48  0  0  1  0  0  0  0  0999 V2000
  192.4320  176.9920  145.7460 O   0  0  0  0  0  1  0  0  0  0  0  0
  190.9470  176.0590  147.7360 C   0  0  2  0  0  3  0  0  0  0  0  0
  191.9010  175.9090  146.5010 C   0  0  1  0  0  0  0  0  0  0  0  0
  189.7870  176.7170  145.3680 C   0  0  2  0  0  3  0  0  0  0  0  0
  190.0830  175.8190  144.1810 C   0  0  0  0  0  0  0  0  0  0  0  0
  190.0880  174.3540  144.4130 C   0  0  0  0  0  2  0  0  0  0  0  0
  190.3460  175.7930  146.3650 C   0  0  2  0  0  0  0  0  0  0  0  0
  189.9760  174.3140  145.9560 C   0  0  0  0  0  2  0  0  0  0  0  0
  190.5990  176.3040  143.1960 O   0  0  0  0  0  0  0  0  0  0  0  0
  184.4540  177.8860  143.1730 C   0  0  0  0  0  1  0  0  0  0  0  0
  185.5470  177.8890  144.1960 C   0  0  0  0  0  0  0  0  0  0  0  0
  187.3730  176.4880  146.4950 C   0  0  0  0  0  3  0  0  0  0  0  0
  186.0990  176.9100  146.6440 C   0  0  0  0  0  3  0  0  0  0  0  0
  186.7590  178.1730  143.7780 C   0  0  0  0  0  0  0  0  0  0  0  0
  188.0050  177.7820  144.4700 C   0  0  0  0  0  3  0  0  0  0  0  0
  188.2780  176.8980  145.4540 C   0  0  0  0  0  0  0  0  0  0  0  0
  186.9450  178.9220  142.6280 O   0  0  0  0  0  1  0  0  0  0  0  0
  184.0540  178.0830  146.1260 O   0  0  0  0  0  1  0  0  0  0  0  0
  185.3410  177.8590  145.7050 C   0  0  2  0  0  3  0  0  0  0  0  0
  189.9180  178.2200  148.0360 O   0  0  0  0  0  0  0  0  0  0  0  0
  191.7470  177.8370  149.2840 O   0  0  0  0  0  1  0  0  0  0  0  0
  190.9100  177.4780  148.3290 C   0  0  0  0  0  0  0  0  0  0  0  0
  192.3690  174.6730  146.0770 O   0  0  0  0  0  0  0  0  0  0  0  0
  194.8000  173.6270  143.7080 C   0  0  0  0  0  0  0  0  0  0  0  0
  194.7280  174.8040  146.1610 C   0  0  0  0  0  3  0  0  0  0  0  0
  193.5750  173.8220  144.2300 C   0  0  0  0  0  3  0  0  0  0  0  0
  195.9730  174.6140  145.5630 C   0  0  0  0  0  3  0  0  0  0  0  0
  195.9500  174.0030  144.2760 C   0  0  0  0  0  0  0  0  0  0  0  0
  195.0920  173.0720  142.4650 C   0  0  0  0  0  0  0  0  0  0  0  0
  193.5710  174.4330  145.5310 C   0  0  0  0  0  0  0  0  0  0  0  0
  196.4510  173.1440  142.3640 N   0  0  0  0  0  0  0  0  0  0  0  0
  196.9900  173.6840  143.4690 N   0  0  0  0  0  2  0  0  0  0  0  0
  194.1110  172.8750  141.4130 N   0  0  0  0  0  2  0  0  0  0  0  0
  193.4560  173.9620  140.6530 C   0  0  2  0  0  3  0  0  0  0  0  0
  194.3050  175.2370  140.6300 C   0  0  0  0  0  0  0  0  0  0  0  0
  194.0600  176.1430  141.4400 O   0  0  0  0  0  0  0  0  0  0  0  0
  195.4390  175.3290  139.7540 N   0  0  0  0  0  1  0  0  0  0  0  0
  192.0410  174.2240  141.0360 N   0  0  0  0  0  2  0  0  0  0  0  0
  190.7040  172.0370  141.8030 O   0  0  0  0  0  1  0  0  0  0  0  0
  190.7860  173.0520  140.6740 P   0  0  2  0  0  0  0  0  0  0  0  0
  190.8740  172.1690  139.1910 O   0  0  0  0  0  0  0  0  0  0  0  0
  189.2960  174.1190  140.7170 C   0  0  0  0  0  2  0  0  0  0  0  0
  187.3390  174.9590  142.0740 C   0  0  0  0  0  1  0  0  0  0  0  0
  188.0890  173.7290  141.5990 C   0  0  0  0  0  2  0  0  0  0  0  0
  2 22  1  6  0  0  0
  3  1  1  6  0  0  0
  3  2  1  0  0  0  0
  4 16  1  1  0  0  0
  4  7  1  0  0  0  0
  5  6  1  0  0  0  0
  5  4  1  0  0  0  0
  6  8  1  0  0  0  0
  7  8  1  6  0  0  0
  7  3  1  0  0  0  0
  7  2  1  0  0  0  0
  9  5  2  0  0  0  0
 10 11  1  0  0  0  0
 11 19  1  0  0  0  0
 12 13  2  0  0  0  0
 14 11  2  0  0  0  0
 14 15  1  0  0  0  0
 15 16  2  0  0  0  0
 16 12  1  0  0  0  0
 17 14  1  0  0  0  0
 19 18  1  6  0  0  0
 19 13  1  0  0  0  0
 20 22  2  0  0  0  0
 22 21  1  0  0  0  0
 23  3  1  0  0  0  0
 24 26  2  0  0  0  0
 24 28  1  0  0  0  0
 26 30  1  0  0  0  0
 27 25  1  0  0  0  0
 28 27  2  0  0  0  0
 29 24  1  0  0  0  0
 30 23  1  0  0  0  0
 30 25  2  0  0  0  0
 31 29  2  0  0  0  0
 31 32  1  0  0  0  0
 32 28  1  0  0  0  0
 33 29  1  0  0  0  0
 34 35  1  1  0  0  0
 34 38  1  0  0  0  0
 34 33  1  0  0  0  0
 35 36  2  0  0  0  0
 37 35  1  0  0  0  0
 40 41  2  6  0  0  0
 40 42  1  0  0  0  0
 40 38  1  0  0  0  0
 40 39  1  0  0  0  0
 42 44  1  0  0  0  0
 44 43  1  0  0  0  0
M  END
>  <MODEL>
1

>  <REMARK>
 VINA RESULT:      -7.5      0.000      0.000
  Name = 
  11 active torsions:
  status: ('A' for Active; 'I' for Inactive)
    1  A    between atoms: C_8  and  C_29
    2  A    between atoms: C_10  and  C_44
    3  A    between atoms: C_11  and  O_43
    4  A    between atoms: C_13  and  C_30
    5  A    between atoms: P_19  and  N_24
    6  A    between atoms: P_19  and  C_29
    7  A    between atoms: N_24  and  C_25
    8  A    between atoms: C_25  and  C_26
    9  A    between atoms: C_25  and  N_37
   10  A    between atoms: C_31  and  N_37
   11  A    between atoms: C_32  and  O_43
                            x       y       z     vdW  Elec       q    Type
                         _______ _______ _______ _____ _____    ______ ____

>  <TORSDO>
F 11

$$$$
=
 OpenBabel11062422143D

 44 48  0  0  1  0  0  0  0  0999 V2000
  192.2060  176.6880  145.3460 O   0  0  0  0  0  1  0  0  0  0  0  0
  190.7460  175.8140  147.3810 C   0  0  2  0  0  3  0  0  0  0  0  0
  191.6360  175.6260  146.1040 C   0  0  1  0  0  0  0  0  0  0  0  0
  189.5350  176.5910  145.0760 C   0  0  2  0  0  3  0  0  0  0  0  0
  189.7220  175.7000  143.8620 C   0  0  0  0  0  0  0  0  0  0  0  0
  189.6410  174.2330  144.0690 C   0  0  0  0  0  2  0  0  0  0  0  0
  190.0730  175.6130  146.0330 C   0  0  2  0  0  0  0  0  0  0  0  0
  189.5900  174.1700  145.6140 C   0  0  0  0  0  2  0  0  0  0  0  0
  190.2280  176.1700  142.8640 O   0  0  0  0  0  0  0  0  0  0  0  0
  184.1940  178.0990  143.1200 C   0  0  0  0  0  1  0  0  0  0  0  0
  185.3300  178.0320  144.0930 C   0  0  0  0  0  0  0  0  0  0  0  0
  187.1640  176.5150  146.3110 C   0  0  0  0  0  3  0  0  0  0  0  0
  185.9270  177.0180  146.5160 C   0  0  0  0  0  3  0  0  0  0  0  0
  186.5370  178.2390  143.6200 C   0  0  0  0  0  0  0  0  0  0  0  0
  187.7860  177.7690  144.2570 C   0  0  0  0  0  3  0  0  0  0  0  0
  188.0460  176.8680  145.2290 C   0  0  0  0  0  0  0  0  0  0  0  0
  186.7180  178.9750  142.4610 O   0  0  0  0  0  1  0  0  0  0  0  0
  183.9400  178.3190  146.0880 O   0  0  0  0  0  1  0  0  0  0  0  0
  185.1900  178.0130  145.6090 C   0  0  2  0  0  3  0  0  0  0  0  0
  189.8570  178.0170  147.7910 O   0  0  0  0  0  0  0  0  0  0  0  0
  191.7480  177.5160  148.8970 O   0  0  0  0  0  1  0  0  0  0  0  0
  190.8260  177.2190  147.9990 C   0  0  0  0  0  0  0  0  0  0  0  0
  192.0050  174.3710  145.6400 O   0  0  0  0  0  0  0  0  0  0  0  0
  194.5760  173.1320  143.5260 C   0  0  0  0  0  0  0  0  0  0  0  0
  194.3370  174.2320  146.0040 C   0  0  0  0  0  3  0  0  0  0  0  0
  193.3260  173.4470  143.9100 C   0  0  0  0  0  3  0  0  0  0  0  0
  195.6170  173.9230  145.5470 C   0  0  0  0  0  3  0  0  0  0  0  0
  195.6830  173.3580  144.2410 C   0  0  0  0  0  0  0  0  0  0  0  0
  194.9550  172.5870  142.3020 C   0  0  0  0  0  0  0  0  0  0  0  0
  193.2300  174.0150  145.2280 C   0  0  0  0  0  0  0  0  0  0  0  0
  196.3150  172.5080  142.3640 N   0  0  0  0  0  0  0  0  0  0  0  0
  196.7730  172.9490  143.5470 N   0  0  0  0  0  2  0  0  0  0  0  0
  194.0920  172.5350  141.1350 N   0  0  0  0  0  2  0  0  0  0  0  0
  193.8220  173.6750  140.2310 C   0  0  2  0  0  3  0  0  0  0  0  0
  192.3420  173.7630  139.8470 C   0  0  0  0  0  0  0  0  0  0  0  0
  192.0340  173.9240  138.6570 O   0  0  0  0  0  0  0  0  0  0  0  0
  191.3280  173.5490  140.8400 N   0  0  0  0  0  1  0  0  0  0  0  0
  194.7270  173.7590  139.0510 N   0  0  0  0  0  2  0  0  0  0  0  0
  196.4520  175.4430  137.8910 O   0  0  0  0  0  0  0  0  0  0  0  0
  196.2530  174.6190  139.1540 P   0  0  2  0  0  0  0  0  0  0  0  0
  197.7020  173.7160  139.4150 O   0  0  0  0  0  1  0  0  0  0  0  0
  195.9180  175.7470  140.5600 C   0  0  0  0  0  2  0  0  0  0  0  0
  196.4390  176.6300  142.8680 C   0  0  0  0  0  1  0  0  0  0  0  0
  197.0240  176.0400  141.5980 C   0  0  0  0  0  2  0  0  0  0  0  0
  2 22  1  6  0  0  0
  3  1  1  6  0  0  0
  3  2  1  0  0  0  0
  4 16  1  1  0  0  0
  4  7  1  0  0  0  0
  5  6  1  0  0  0  0
  5  4  1  0  0  0  0
  6  8  1  0  0  0  0
  7  8  1  6  0  0  0
  7  3  1  0  0  0  0
  7  2  1  0  0  0  0
  9  5  2  0  0  0  0
 10 11  1  0  0  0  0
 11 19  1  0  0  0  0
 12 13  2  0  0  0  0
 14 11  2  0  0  0  0
 14 15  1  0  0  0  0
 15 16  2  0  0  0  0
 16 12  1  0  0  0  0
 17 14  1  0  0  0  0
 19 18  1  6  0  0  0
 19 13  1  0  0  0  0
 20 22  2  0  0  0  0
 22 21  1  0  0  0  0
 23  3  1  0  0  0  0
 24 26  2  0  0  0  0
 24 28  1  0  0  0  0
 26 30  1  0  0  0  0
 27 25  1  0  0  0  0
 28 27  2  0  0  0  0
 29 31  2  0  0  0  0
 29 24  1  0  0  0  0
 30 23  1  0  0  0  0
 30 25  2  0  0  0  0
 31 32  1  0  0  0  0
 32 28  1  0  0  0  0
 33 29  1  0  0  0  0
 34 38  1  6  0  0  0
 34 33  1  0  0  0  0
 35 34  1  0  0  0  0
 35 37  1  0  0  0  0
 36 35  2  0  0  0  0
 38 40  1  0  0  0  0
 40 39  2  6  0  0  0
 40 41  1  0  0  0  0
 40 42  1  0  0  0  0
 42 44  1  0  0  0  0
 44 43  1  0  0  0  0
M  END
>  <MODEL>
2

>  <REMARK>
 VINA RESULT:      -7.3      1.634      3.112
  Name = 
  11 active torsions:
  status: ('A' for Active; 'I' for Inactive)
    1  A    between atoms: C_8  and  C_29
    2  A    between atoms: C_10  and  C_44
    3  A    between atoms: C_11  and  O_43
    4  A    between atoms: C_13  and  C_30
    5  A    between atoms: P_19  and  N_24
    6  A    between atoms: P_19  and  C_29
    7  A    between atoms: N_24  and  C_25
    8  A    between atoms: C_25  and  C_26
    9  A    between atoms: C_25  and  N_37
   10  A    between atoms: C_31  and  N_37
   11  A    between atoms: C_32  and  O_43
                            x       y       z     vdW  Elec       q    Type
                         _______ _______ _______ _____ _____    ______ ____

>  <TORSDO>
F 11

$$$$
=
 OpenBabel11062422143D

 44 48  0  0  1  0  0  0  0  0999 V2000
  192.1940  176.7470  145.2600 O   0  0  0  0  0  1  0  0  0  0  0  0
  190.7480  175.8010  147.2730 C   0  0  2  0  0  3  0  0  0  0  0  0
  191.6340  175.6590  145.9870 C   0  0  1  0  0  0  0  0  0  0  0  0
  189.5230  176.6450  144.9990 C   0  0  2  0  0  3  0  0  0  0  0  0
  189.7090  175.7930  143.7570 C   0  0  0  0  0  0  0  0  0  0  0  0
  189.6360  174.3200  143.9180 C   0  0  0  0  0  2  0  0  0  0  0  0
  190.0700  175.6400  145.9220 C   0  0  2  0  0  0  0  0  0  0  0  0
  189.5930  174.2080  145.4610 C   0  0  0  0  0  2  0  0  0  0  0  0
  190.2080  176.2970  142.7720 O   0  0  0  0  0  0  0  0  0  0  0  0
  184.1550  178.1330  143.1030 C   0  0  0  0  0  1  0  0  0  0  0  0
  185.2990  178.0650  144.0660 C   0  0  0  0  0  0  0  0  0  0  0  0
  187.1630  176.5380  146.2520 C   0  0  0  0  0  3  0  0  0  0  0  0
  185.9240  177.0290  146.4720 C   0  0  0  0  0  3  0  0  0  0  0  0
  186.5010  178.2850  143.5850 C   0  0  0  0  0  0  0  0  0  0  0  0
  187.7580  177.8180  144.2060 C   0  0  0  0  0  3  0  0  0  0  0  0
  188.0330  176.9090  145.1670 C   0  0  0  0  0  0  0  0  0  0  0  0
  186.6670  179.0350  142.4330 O   0  0  0  0  0  1  0  0  0  0  0  0
  183.9240  178.3200  146.0750 O   0  0  0  0  0  1  0  0  0  0  0  0
  185.1720  178.0290  145.5830 C   0  0  2  0  0  3  0  0  0  0  0  0
  189.8490  177.9850  147.7590 O   0  0  0  0  0  0  0  0  0  0  0  0
  191.7500  177.4610  148.8350 O   0  0  0  0  0  1  0  0  0  0  0  0
  190.8240  177.1870  147.9350 C   0  0  0  0  0  0  0  0  0  0  0  0
  192.0060  174.4210  145.4820 O   0  0  0  0  0  0  0  0  0  0  0  0
  194.4440  173.9400  142.9430 C   0  0  0  0  0  0  0  0  0  0  0  0
  194.2860  173.8200  145.6580 C   0  0  0  0  0  3  0  0  0  0  0  0
  193.2380  174.2130  143.4740 C   0  0  0  0  0  3  0  0  0  0  0  0
  195.5250  173.5810  145.0640 C   0  0  0  0  0  3  0  0  0  0  0  0
  195.5500  173.6670  143.6420 C   0  0  0  0  0  0  0  0  0  0  0  0
  194.7790  173.9630  141.5920 C   0  0  0  0  0  0  0  0  0  0  0  0
  193.1830  174.1280  144.9080 C   0  0  0  0  0  0  0  0  0  0  0  0
  196.1130  173.6830  141.5620 N   0  0  0  0  0  0  0  0  0  0  0  0
  196.5930  173.4740  142.7990 N   0  0  0  0  0  2  0  0  0  0  0  0
  193.9510  174.5610  140.5610 N   0  0  0  0  0  2  0  0  0  0  0  0
  192.9340  173.8360  139.7660 C   0  0  2  0  0  3  0  0  0  0  0  0
  192.8700  174.3410  138.3210 C   0  0  0  0  0  0  0  0  0  0  0  0
  193.6780  175.2030  137.9450 O   0  0  0  0  0  0  0  0  0  0  0  0
  191.9590  173.7390  137.3890 N   0  0  0  0  0  1  0  0  0  0  0  0
  191.5910  173.7530  140.4040 N   0  0  0  0  0  2  0  0  0  0  0  0
  191.0220  171.7080  142.0330 O   0  0  0  0  0  1  0  0  0  0  0  0
  190.7960  172.2030  140.6130 P   0  0  2  0  0  0  0  0  0  0  0  0
  191.2030  170.9070  139.5440 O   0  0  0  0  0  0  0  0  0  0  0  0
  189.0390  172.6880  140.4180 C   0  0  0  0  0  2  0  0  0  0  0  0
  188.2430  174.2020  138.5610 C   0  0  0  0  0  1  0  0  0  0  0  0
  188.6760  174.1340  140.0130 C   0  0  0  0  0  2  0  0  0  0  0  0
  2 22  1  6  0  0  0
  3  1  1  6  0  0  0
  3  2  1  0  0  0  0
  4 16  1  1  0  0  0
  4  7  1  0  0  0  0
  5  6  1  0  0  0  0
  5  4  1  0  0  0  0
  6  8  1  0  0  0  0
  7  8  1  6  0  0  0
  7  3  1  0  0  0  0
  7  2  1  0  0  0  0
  9  5  2  0  0  0  0
 10 11  1  0  0  0  0
 11 19  1  0  0  0  0
 12 13  2  0  0  0  0
 14 11  2  0  0  0  0
 14 15  1  0  0  0  0
 15 16  2  0  0  0  0
 16 12  1  0  0  0  0
 17 14  1  0  0  0  0
 19 18  1  6  0  0  0
 19 13  1  0  0  0  0
 20 22  2  0  0  0  0
 22 21  1  0  0  0  0
 23  3  1  0  0  0  0
 24 26  2  0  0  0  0
 24 28  1  0  0  0  0
 26 30  1  0  0  0  0
 27 25  1  0  0  0  0
 28 27  2  0  0  0  0
 29 24  1  0  0  0  0
 30 23  1  0  0  0  0
 30 25  2  0  0  0  0
 31 29  2  0  0  0  0
 31 32  1  0  0  0  0
 32 28  1  0  0  0  0
 33 29  1  0  0  0  0
 34 35  1  6  0  0  0
 34 38  1  0  0  0  0
 34 33  1  0  0  0  0
 36 35  2  0  0  0  0
 37 35  1  0  0  0  0
 38 40  1  0  0  0  0
 40 41  2  6  0  0  0
 40 39  1  0  0  0  0
 42 40  1  0  0  0  0
 43 44  1  0  0  0  0
 44 42  1  0  0  0  0
M  END
>  <MODEL>
3

>  <REMARK>
 VINA RESULT:      -7.2      1.196      1.379
  Name = 
  11 active torsions:
  status: ('A' for Active; 'I' for Inactive)
    1  A    between atoms: C_8  and  C_29
    2  A    between atoms: C_10  and  C_44
    3  A    between atoms: C_11  and  O_43
    4  A    between atoms: C_13  and  C_30
    5  A    between atoms: P_19  and  N_24
    6  A    between atoms: P_19  and  C_29
    7  A    between atoms: N_24  and  C_25
    8  A    between atoms: C_25  and  C_26
    9  A    between atoms: C_25  and  N_37
   10  A    between atoms: C_31  and  N_37
   11  A    between atoms: C_32  and  O_43
                            x       y       z     vdW  Elec       q    Type
                         _______ _______ _______ _____ _____    ______ ____

>  <TORSDO>
F 11

$$$$
=
 OpenBabel11062422143D

 44 48  0  0  1  0  0  0  0  0999 V2000
  192.3140  177.0030  145.6410 O   0  0  0  0  0  1  0  0  0  0  0  0
  190.8100  176.1090  147.6350 C   0  0  2  0  0  3  0  0  0  0  0  0
  191.7500  175.9340  146.3920 C   0  0  1  0  0  0  0  0  0  0  0  0
  189.6590  176.8220  145.2790 C   0  0  2  0  0  3  0  0  0  0  0  0
  189.9150  175.9230  144.0840 C   0  0  0  0  0  0  0  0  0  0  0  0
  189.8710  174.4570  144.3060 C   0  0  0  0  0  2  0  0  0  0  0  0
  190.1920  175.8720  146.2660 C   0  0  2  0  0  0  0  0  0  0  0  0
  189.7670  174.4100  145.8500 C   0  0  0  0  0  2  0  0  0  0  0  0
  190.4410  176.3960  143.0990 O   0  0  0  0  0  0  0  0  0  0  0  0
  184.3300  178.0400  143.1010 C   0  0  0  0  0  1  0  0  0  0  0  0
  185.4390  178.0640  144.1060 C   0  0  0  0  0  0  0  0  0  0  0  0
  187.2570  176.7300  146.4510 C   0  0  0  0  0  3  0  0  0  0  0  0
  185.9990  177.1990  146.5950 C   0  0  0  0  0  3  0  0  0  0  0  0
  186.6520  178.2870  143.6560 C   0  0  0  0  0  0  0  0  0  0  0  0
  187.8960  177.8940  144.3500 C   0  0  0  0  0  3  0  0  0  0  0  0
  188.1580  177.0550  145.3770 C   0  0  0  0  0  0  0  0  0  0  0  0
  186.8420  178.9670  142.4650 O   0  0  0  0  0  1  0  0  0  0  0  0
  183.9830  178.4070  146.0440 O   0  0  0  0  0  1  0  0  0  0  0  0
  185.2560  178.1200  145.6170 C   0  0  2  0  0  3  0  0  0  0  0  0
  189.8260  178.2770  148.0130 O   0  0  0  0  0  0  0  0  0  0  0  0
  191.7280  177.8680  149.1380 O   0  0  0  0  0  1  0  0  0  0  0  0
  190.8270  177.5230  148.2370 C   0  0  0  0  0  0  0  0  0  0  0  0
  192.1730  174.6850  145.9570 O   0  0  0  0  0  0  0  0  0  0  0  0
  194.6820  173.4540  143.7650 C   0  0  0  0  0  0  0  0  0  0  0  0
  194.5280  174.7720  146.1420 C   0  0  0  0  0  3  0  0  0  0  0  0
  193.4400  173.7030  144.2190 C   0  0  0  0  0  3  0  0  0  0  0  0
  195.7940  174.5230  145.6130 C   0  0  0  0  0  3  0  0  0  0  0  0
  195.8140  173.8390  144.3640 C   0  0  0  0  0  0  0  0  0  0  0  0
  195.0170  172.8220  142.5710 C   0  0  0  0  0  0  0  0  0  0  0  0
  193.3910  174.3890  145.4810 C   0  0  0  0  0  0  0  0  0  0  0  0
  196.3800  172.8600  142.5290 N   0  0  0  0  0  0  0  0  0  0  0  0
  196.8820  173.4520  143.6250 N   0  0  0  0  0  2  0  0  0  0  0  0
  194.0790  172.5840  141.4880 N   0  0  0  0  0  2  0  0  0  0  0  0
  193.4160  173.6430  140.6950 C   0  0  2  0  0  3  0  0  0  0  0  0
  194.3360  174.8460  140.4650 C   0  0  0  0  0  0  0  0  0  0  0  0
  195.1270  174.8300  139.5100 O   0  0  0  0  0  0  0  0  0  0  0  0
  194.2010  176.0200  141.2800 N   0  0  0  0  0  1  0  0  0  0  0  0
  192.0680  174.0380  141.1900 N   0  0  0  0  0  2  0  0  0  0  0  0
  190.8320  173.3790  138.9110 O   0  0  0  0  0  0  0  0  0  0  0  0
  190.6170  173.4260  140.4160 P   0  0  2  0  0  0  0  0  0  0  0  0
  189.1170  174.2360  140.6980 O   0  0  0  0  0  1  0  0  0  0  0  0
  190.5740  171.7140  141.0700 C   0  0  0  0  0  2  0  0  0  0  0  0
  191.8140  170.3030  142.7580 C   0  0  0  0  0  1  0  0  0  0  0  0
  190.8400  171.4510  142.5690 C   0  0  0  0  0  2  0  0  0  0  0  0
  2 22  1  6  0  0  0
  3  1  1  6  0  0  0
  3  2  1  0  0  0  0
  4 16  1  1  0  0  0
  4  7  1  0  0  0  0
  5  6  1  0  0  0  0
  5  4  1  0  0  0  0
  6  8  1  0  0  0  0
  7  8  1  6  0  0  0
  7  3  1  0  0  0  0
  7  2  1  0  0  0  0
  9  5  2  0  0  0  0
 10 11  1  0  0  0  0
 11 19  1  0  0  0  0
 12 13  2  0  0  0  0
 14 11  2  0  0  0  0
 14 15  1  0  0  0  0
 15 16  2  0  0  0  0
 16 12  1  0  0  0  0
 17 14  1  0  0  0  0
 19 18  1  6  0  0  0
 19 13  1  0  0  0  0
 20 22  2  0  0  0  0
 22 21  1  0  0  0  0
 23  3  1  0  0  0  0
 24 26  2  0  0  0  0
 24 28  1  0  0  0  0
 26 30  1  0  0  0  0
 27 25  1  0  0  0  0
 28 27  2  0  0  0  0
 29 24  1  0  0  0  0
 30 23  1  0  0  0  0
 30 25  2  0  0  0  0
 31 29  2  0  0  0  0
 31 32  1  0  0  0  0
 32 28  1  0  0  0  0
 33 29  1  0  0  0  0
 34 35  1  1  0  0  0
 34 38  1  0  0  0  0
 34 33  1  0  0  0  0
 35 37  1  0  0  0  0
 36 35  2  0  0  0  0
 40 39  2  6  0  0  0
 40 41  1  0  0  0  0
 40 42  1  0  0  0  0
 40 38  1  0  0  0  0
 42 44  1  0  0  0  0
 44 43  1  0  0  0  0
M  END
>  <MODEL>
4

>  <REMARK>
 VINA RESULT:      -7.2      1.177      1.481
  Name = 
  11 active torsions:
  status: ('A' for Active; 'I' for Inactive)
    1  A    between atoms: C_8  and  C_29
    2  A    between atoms: C_10  and  C_44
    3  A    between atoms: C_11  and  O_43
    4  A    between atoms: C_13  and  C_30
    5  A    between atoms: P_19  and  N_24
    6  A    between atoms: P_19  and  C_29
    7  A    between atoms: N_24  and  C_25
    8  A    between atoms: C_25  and  C_26
    9  A    between atoms: C_25  and  N_37
   10  A    between atoms: C_31  and  N_37
   11  A    between atoms: C_32  and  O_43
                            x       y       z     vdW  Elec       q    Type
                         _______ _______ _______ _____ _____    ______ ____

>  <TORSDO>
F 11

$$$$
=
 OpenBabel11062422143D

 44 48  0  0  1  0  0  0  0  0999 V2000
  190.5790  173.8120  144.8330 O   0  0  0  0  0  1  0  0  0  0  0  0
  190.7580  175.5550  142.8410 C   0  0  2  0  0  3  0  0  0  0  0  0
  191.1210  174.9970  144.2610 C   0  0  1  0  0  0  0  0  0  0  0  0
  188.7400  175.7610  144.6510 C   0  0  2  0  0  3  0  0  0  0  0  0
  189.1130  176.2000  146.0550 C   0  0  0  0  0  0  0  0  0  0  0  0
  190.1000  177.2990  146.1900 C   0  0  0  0  0  2  0  0  0  0  0  0
  190.0410  176.1120  144.0610 C   0  0  2  0  0  0  0  0  0  0  0  0
  190.5560  177.4500  144.7190 C   0  0  0  0  0  2  0  0  0  0  0  0
  188.8540  175.4650  146.9840 O   0  0  0  0  0  0  0  0  0  0  0  0
  183.9180  179.0420  145.4260 C   0  0  0  0  0  1  0  0  0  0  0  0
  184.8150  178.0650  144.7320 C   0  0  0  0  0  0  0  0  0  0  0  0
  187.3960  177.2840  142.9120 C   0  0  0  0  0  3  0  0  0  0  0  0
  186.2370  177.8110  142.4590 C   0  0  0  0  0  3  0  0  0  0  0  0
  185.3900  177.1480  145.4740 C   0  0  2  0  0  3  0  0  0  0  0  0
  186.6270  176.4220  145.1130 C   0  0  0  0  0  3  0  0  0  0  0  0
  187.5820  176.6290  144.1800 C   0  0  0  0  0  0  0  0  0  0  0  0
  184.8250  176.7660  146.6790 O   0  0  0  0  0  1  0  0  0  0  0  0
  183.9190  178.4850  142.4930 O   0  0  0  0  0  1  0  0  0  0  0  0
  184.9080  177.8740  143.2240 C   0  0  0  0  0  0  0  0  0  0  0  0
  188.9630  174.8920  141.3740 O   0  0  0  0  0  0  0  0  0  0  0  0
  190.6550  173.4250  141.5570 O   0  0  0  0  0  1  0  0  0  0  0  0
  190.0500  174.5380  141.9320 C   0  0  0  0  0  0  0  0  0  0  0  0
  192.0790  175.5970  145.0660 O   0  0  0  0  0  0  0  0  0  0  0  0
  195.2880  174.0860  145.2580 C   0  0  0  0  0  0  0  0  0  0  0  0
  194.1860  176.4120  144.3680 C   0  0  0  0  0  3  0  0  0  0  0  0
  193.9580  174.2050  145.4190 C   0  0  0  0  0  3  0  0  0  0  0  0
  195.5560  176.2270  144.1900 C   0  0  0  0  0  3  0  0  0  0  0  0
  196.0770  174.9890  144.6660 C   0  0  0  0  0  0  0  0  0  0  0  0
  196.0700  172.9890  145.6050 C   0  0  0  0  0  0  0  0  0  0  0  0
  193.4070  175.4480  144.9520 C   0  0  0  0  0  0  0  0  0  0  0  0
  197.3290  173.3160  145.1940 N   0  0  0  0  0  0  0  0  0  0  0  0
  197.3550  174.5410  144.6430 N   0  0  0  0  0  2  0  0  0  0  0  0
  195.5330  171.6820  145.9390 N   0  0  0  0  0  2  0  0  0  0  0  0
  195.0040  170.7100  144.9570 C   0  0  2  0  0  3  0  0  0  0  0  0
  195.2390  169.2620  145.4000 C   0  0  0  0  0  0  0  0  0  0  0  0
  195.7220  168.4530  144.5940 O   0  0  0  0  0  0  0  0  0  0  0  0
  195.0080  168.8810  146.7650 N   0  0  0  0  0  1  0  0  0  0  0  0
  195.4270  170.9540  143.5500 N   0  0  0  0  0  2  0  0  0  0  0  0
  192.9140  171.6920  143.0060 O   0  0  0  0  0  1  0  0  0  0  0  0
  194.2570  171.4440  142.3370 P   0  0  2  0  0  0  0  0  0  0  0  0
  193.9760  170.4060  140.9840 O   0  0  0  0  0  0  0  0  0  0  0  0
  194.9660  173.0470  141.8010 C   0  0  0  0  0  2  0  0  0  0  0  0
  194.7650  175.2600  140.6020 C   0  0  0  0  0  1  0  0  0  0  0  0
  194.0340  174.2210  141.4330 C   0  0  0  0  0  2  0  0  0  0  0  0
  2 22  1  6  0  0  0
  2  7  1  0  0  0  0
  2  3  1  0  0  0  0
  3  1  1  1  0  0  0
  3 23  1  0  0  0  0
  4 16  1  6  0  0  0
  4  5  1  0  0  0  0
  5  6  1  0  0  0  0
  5  9  2  0  0  0  0
  7  3  1  0  0  0  0
  7  4  1  0  0  0  0
  7  8  1  1  0  0  0
  8  6  1  0  0  0  0
 11 10  1  0  0  0  0
 11 14  1  0  0  0  0
 12 16  1  0  0  0  0
 13 12  2  0  0  0  0
 13 19  1  0  0  0  0
 14 17  1  6  0  0  0
 15 14  1  0  0  0  0
 16 15  2  0  0  0  0
 18 19  1  0  0  0  0
 19 11  2  0  0  0  0
 20 22  2  0  0  0  0
 21 22  1  0  0  0  0
 24 26  1  0  0  0  0
 24 29  1  0  0  0  0
 25 30  1  0  0  0  0
 27 25  2  0  0  0  0
 27 28  1  0  0  0  0
 28 24  2  0  0  0  0
 29 33  1  0  0  0  0
 30 23  1  0  0  0  0
 30 26  2  0  0  0  0
 31 29  2  0  0  0  0
 32 28  1  0  0  0  0
 32 31  1  0  0  0  0
 34 38  1  6  0  0  0
 34 35  1  0  0  0  0
 34 33  1  0  0  0  0
 35 37  1  0  0  0  0
 36 35  2  0  0  0  0
 40 41  2  6  0  0  0
 40 39  1  0  0  0  0
 40 38  1  0  0  0  0
 42 40  1  0  0  0  0
 43 44  1  0  0  0  0
 44 42  1  0  0  0  0
M  END
>  <MODEL>
5

>  <REMARK>
 VINA RESULT:      -7.1      2.437      4.518
  Name = 
  11 active torsions:
  status: ('A' for Active; 'I' for Inactive)
    1  A    between atoms: C_8  and  C_29
    2  A    between atoms: C_10  and  C_44
    3  A    between atoms: C_11  and  O_43
    4  A    between atoms: C_13  and  C_30
    5  A    between atoms: P_19  and  N_24
    6  A    between atoms: P_19  and  C_29
    7  A    between atoms: N_24  and  C_25
    8  A    between atoms: C_25  and  C_26
    9  A    between atoms: C_25  and  N_37
   10  A    between atoms: C_31  and  N_37
   11  A    between atoms: C_32  and  O_43
                            x       y       z     vdW  Elec       q    Type
                         _______ _______ _______ _____ _____    ______ ____

>  <TORSDO>
F 11

$$$$
=
 OpenBabel11062422143D

 44 48  0  0  1  0  0  0  0  0999 V2000
  192.2750  176.8560  145.5870 O   0  0  0  0  0  1  0  0  0  0  0  0
  190.7860  175.9900  147.6050 C   0  0  2  0  0  3  0  0  0  0  0  0
  191.7050  175.7970  146.3490 C   0  0  1  0  0  0  0  0  0  0  0  0
  189.6120  176.7150  145.2640 C   0  0  2  0  0  3  0  0  0  0  0  0
  189.8370  175.8100  144.0670 C   0  0  0  0  0  0  0  0  0  0  0  0
  189.7730  174.3450  144.2940 C   0  0  0  0  0  2  0  0  0  0  0  0
  190.1440  175.7600  146.2460 C   0  0  2  0  0  0  0  0  0  0  0  0
  189.6910  174.3030  145.8390 C   0  0  0  0  0  2  0  0  0  0  0  0
  190.3570  176.2730  143.0740 O   0  0  0  0  0  0  0  0  0  0  0  0
  184.2940  178.1330  143.1810 C   0  0  0  0  0  1  0  0  0  0  0  0
  185.4100  178.0890  144.1780 C   0  0  0  0  0  0  0  0  0  0  0  0
  187.2160  176.6150  146.4470 C   0  0  0  0  0  3  0  0  0  0  0  0
  185.9680  177.1010  146.6210 C   0  0  0  0  0  3  0  0  0  0  0  0
  186.6240  178.3100  143.7300 C   0  0  0  0  0  0  0  0  0  0  0  0
  187.8650  177.8620  144.3970 C   0  0  0  0  0  3  0  0  0  0  0  0
  188.1170  176.9720  145.3830 C   0  0  0  0  0  0  0  0  0  0  0  0
  186.8200  179.0400  142.5700 O   0  0  0  0  0  1  0  0  0  0  0  0
  183.9720  178.3710  146.1400 O   0  0  0  0  0  1  0  0  0  0  0  0
  185.2370  178.0800  145.6910 C   0  0  2  0  0  3  0  0  0  0  0  0
  189.8460  178.1780  147.9840 O   0  0  0  0  0  0  0  0  0  0  0  0
  191.7470  177.7350  149.0980 O   0  0  0  0  0  1  0  0  0  0  0  0
  190.8330  177.4050  148.2030 C   0  0  0  0  0  0  0  0  0  0  0  0
  192.1020  174.5410  145.9110 O   0  0  0  0  0  0  0  0  0  0  0  0
  194.8340  172.3630  145.2710 C   0  0  0  0  0  0  0  0  0  0  0  0
  194.4270  174.9650  145.9610 C   0  0  0  0  0  3  0  0  0  0  0  0
  193.5500  172.7400  145.4120 C   0  0  0  0  0  3  0  0  0  0  0  0
  195.7400  174.5380  145.7680 C   0  0  0  0  0  3  0  0  0  0  0  0
  195.8930  173.1690  145.3990 C   0  0  0  0  0  0  0  0  0  0  0  0
  195.2920  171.1020  144.9010 C   0  0  0  0  0  0  0  0  0  0  0  0
  193.3680  174.1150  145.7890 C   0  0  0  0  0  0  0  0  0  0  0  0
  196.6480  171.2310  144.8360 N   0  0  0  0  0  0  0  0  0  0  0  0
  197.0330  172.4770  145.1620 N   0  0  0  0  0  2  0  0  0  0  0  0
  194.4480  170.0670  144.3310 N   0  0  0  0  0  2  0  0  0  0  0  0
  194.1190  169.9400  142.8940 C   0  0  2  0  0  3  0  0  0  0  0  0
  195.1050  169.0260  142.1590 C   0  0  0  0  0  0  0  0  0  0  0  0
  195.9060  168.3460  142.8180 O   0  0  0  0  0  0  0  0  0  0  0  0
  195.0220  168.8780  140.7340 N   0  0  0  0  0  1  0  0  0  0  0  0
  193.9030  171.2350  142.1900 N   0  0  0  0  0  2  0  0  0  0  0  0
  191.3280  171.3530  142.9030 O   0  0  0  0  0  1  0  0  0  0  0  0
  192.2820  171.7800  141.7980 P   0  0  2  0  0  0  0  0  0  0  0  0
  191.5800  171.2960  140.2950 O   0  0  0  0  0  0  0  0  0  0  0  0
  192.5040  173.5980  141.8660 C   0  0  0  0  0  2  0  0  0  0  0  0
  193.8390  175.6710  142.4130 C   0  0  0  0  0  1  0  0  0  0  0  0
  193.9150  174.1990  142.0530 C   0  0  0  0  0  2  0  0  0  0  0  0
  2 22  1  6  0  0  0
  3  1  1  6  0  0  0
  3  2  1  0  0  0  0
  4 16  1  1  0  0  0
  4  7  1  0  0  0  0
  5  6  1  0  0  0  0
  5  4  1  0  0  0  0
  6  8  1  0  0  0  0
  7  8  1  6  0  0  0
  7  3  1  0  0  0  0
  7  2  1  0  0  0  0
  9  5  2  0  0  0  0
 10 11  1  0  0  0  0
 11 19  1  0  0  0  0
 12 13  2  0  0  0  0
 14 11  2  0  0  0  0
 14 15  1  0  0  0  0
 15 16  2  0  0  0  0
 16 12  1  0  0  0  0
 17 14  1  0  0  0  0
 19 18  1  6  0  0  0
 19 13  1  0  0  0  0
 20 22  2  0  0  0  0
 22 21  1  0  0  0  0
 23  3  1  0  0  0  0
 24 28  2  0  0  0  0
 24 26  1  0  0  0  0
 26 30  2  0  0  0  0
 27 25  2  0  0  0  0
 28 27  1  0  0  0  0
 29 24  1  0  0  0  0
 30 23  1  0  0  0  0
 30 25  1  0  0  0  0
 31 29  2  0  0  0  0
 31 32  1  0  0  0  0
 32 28  1  0  0  0  0
 33 29  1  0  0  0  0
 34 35  1  6  0  0  0
 34 33  1  0  0  0  0
 35 36  2  0  0  0  0
 37 35  1  0  0  0  0
 38 34  1  0  0  0  0
 40 41  2  6  0  0  0
 40 42  1  0  0  0  0
 40 38  1  0  0  0  0
 40 39  1  0  0  0  0
 42 44  1  0  0  0  0
 44 43  1  0  0  0  0
M  END
>  <MODEL>
6

>  <REMARK>
 VINA RESULT:      -7.1      1.877      2.761
  Name = 
  11 active torsions:
  status: ('A' for Active; 'I' for Inactive)
    1  A    between atoms: C_8  and  C_29
    2  A    between atoms: C_10  and  C_44
    3  A    between atoms: C_11  and  O_43
    4  A    between atoms: C_13  and  C_30
    5  A    between atoms: P_19  and  N_24
    6  A    between atoms: P_19  and  C_29
    7  A    between atoms: N_24  and  C_25
    8  A    between atoms: C_25  and  C_26
    9  A    between atoms: C_25  and  N_37
   10  A    between atoms: C_31  and  N_37
   11  A    between atoms: C_32  and  O_43
                            x       y       z     vdW  Elec       q    Type
                         _______ _______ _______ _____ _____    ______ ____

>  <TORSDO>
F 11

$$$$
=
 OpenBabel11062422143D

 44 48  0  0  1  0  0  0  0  0999 V2000
  190.6540  174.3780  144.4730 O   0  0  0  0  0  1  0  0  0  0  0  0
  189.8800  176.3250  142.8470 C   0  0  2  0  0  3  0  0  0  0  0  0
  190.7740  175.7060  143.9760 C   0  0  1  0  0  0  0  0  0  0  0  0
  188.5590  175.9010  145.1840 C   0  0  2  0  0  3  0  0  0  0  0  0
  189.2920  176.2540  146.4650 C   0  0  0  0  0  0  0  0  0  0  0  0
  190.0710  177.5160  146.4840 C   0  0  0  0  0  2  0  0  0  0  0  0
  189.5180  176.5810  144.3010 C   0  0  2  0  0  0  0  0  0  0  0  0
  189.9900  177.9190  144.9920 C   0  0  0  0  0  2  0  0  0  0  0  0
  189.4770  175.3850  147.2910 O   0  0  0  0  0  0  0  0  0  0  0  0
  183.8300  178.4980  142.8350 C   0  0  0  0  0  1  0  0  0  0  0  0
  184.8820  178.2410  143.8690 C   0  0  0  0  0  0  0  0  0  0  0  0
  186.2080  176.5250  146.2940 C   0  0  0  0  0  3  0  0  0  0  0  0
  185.1300  177.3330  146.3930 C   0  0  0  0  0  3  0  0  0  0  0  0
  186.1170  178.1000  143.4450 C   0  0  0  0  0  0  0  0  0  0  0  0
  187.1880  177.3950  144.1830 C   0  0  0  0  0  3  0  0  0  0  0  0
  187.1830  176.5500  145.2360 C   0  0  0  0  0  0  0  0  0  0  0  0
  186.5130  178.6610  142.2430 O   0  0  0  0  0  1  0  0  0  0  0  0
  183.5460  179.0400  145.7580 O   0  0  0  0  0  1  0  0  0  0  0  0
  184.6950  178.3940  145.3720 C   0  0  2  0  0  3  0  0  0  0  0  0
  187.8500  175.4860  141.8510 O   0  0  0  0  0  1  0  0  0  0  0  0
  189.7180  174.3420  141.3500 O   0  0  0  0  0  0  0  0  0  0  0  0
  189.0930  175.2850  142.0310 C   0  0  0  0  0  0  0  0  0  0  0  0
  191.8280  176.4050  144.5470 O   0  0  0  0  0  0  0  0  0  0  0  0
  195.0860  175.2490  143.7300 C   0  0  0  0  0  0  0  0  0  0  0  0
  193.6230  175.7920  145.9600 C   0  0  0  0  0  3  0  0  0  0  0  0
  193.8300  175.6790  143.5170 C   0  0  0  0  0  3  0  0  0  0  0  0
  194.9430  175.3790  146.1290 C   0  0  0  0  0  3  0  0  0  0  0  0
  195.6640  175.1170  144.9280 C   0  0  0  0  0  0  0  0  0  0  0  0
  196.0310  174.9350  142.7570 C   0  0  0  0  0  0  0  0  0  0  0  0
  193.0780  175.9450  144.7130 C   0  0  0  0  0  0  0  0  0  0  0  0
  197.1560  174.6130  143.4570 N   0  0  0  0  0  0  0  0  0  0  0  0
  196.9430  174.6940  144.7810 N   0  0  0  0  0  2  0  0  0  0  0  0
  195.9030  175.2920  141.3560 N   0  0  0  0  0  2  0  0  0  0  0  0
  195.5120  174.3570  140.2770 C   0  0  2  0  0  3  0  0  0  0  0  0
  195.4840  175.0420  138.9070 C   0  0  0  0  0  0  0  0  0  0  0  0
  196.5550  175.2980  138.3370 O   0  0  0  0  0  0  0  0  0  0  0  0
  194.2320  175.2810  138.2480 N   0  0  0  0  0  1  0  0  0  0  0  0
  194.2760  173.5730  140.5510 N   0  0  0  0  0  2  0  0  0  0  0  0
  195.8170  171.4960  141.2340 O   0  0  0  0  0  1  0  0  0  0  0  0
  194.3690  171.8680  140.9550 P   0  0  2  0  0  0  0  0  0  0  0  0
  193.7470  170.7110  139.8320 O   0  0  0  0  0  0  0  0  0  0  0  0
  193.4250  171.8340  142.5260 C   0  0  0  0  0  2  0  0  0  0  0  0
  193.4350  172.1440  145.0320 C   0  0  0  0  0  1  0  0  0  0  0  0
  194.1440  171.5030  143.8530 C   0  0  0  0  0  2  0  0  0  0  0  0
  2 22  1  1  0  0  0
  2  3  1  0  0  0  0
  2  7  1  0  0  0  0
  3  7  1  0  0  0  0
  3  1  1  1  0  0  0
  3 23  1  0  0  0  0
  4 16  1  1  0  0  0
  4  5  1  0  0  0  0
  5  6  1  0  0  0  0
  5  9  2  0  0  0  0
  7  8  1  1  0  0  0
  7  4  1  0  0  0  0
  8  6  1  0  0  0  0
 10 11  1  0  0  0  0
 11 19  1  0  0  0  0
 12 13  2  0  0  0  0
 14 11  2  0  0  0  0
 14 15  1  0  0  0  0
 15 16  2  0  0  0  0
 16 12  1  0  0  0  0
 17 14  1  0  0  0  0
 19 18  1  6  0  0  0
 19 13  1  0  0  0  0
 20 22  1  0  0  0  0
 21 22  2  0  0  0  0
 23 30  1  0  0  0  0
 24 28  1  0  0  0  0
 25 27  1  0  0  0  0
 26 24  2  0  0  0  0
 26 30  1  0  0  0  0
 28 27  2  0  0  0  0
 29 31  2  0  0  0  0
 29 24  1  0  0  0  0
 30 25  2  0  0  0  0
 31 32  1  0  0  0  0
 32 28  1  0  0  0  0
 33 29  1  0  0  0  0
 34 35  1  6  0  0  0
 34 38  1  0  0  0  0
 34 33  1  0  0  0  0
 36 35  2  0  0  0  0
 37 35  1  0  0  0  0
 38 40  1  0  0  0  0
 40 41  2  6  0  0  0
 40 39  1  0  0  0  0
 40 42  1  0  0  0  0
 42 44  1  0  0  0  0
 44 43  1  0  0  0  0
M  END
>  <MODEL>
7

>  <REMARK>
 VINA RESULT:      -7.0      1.948      3.524
  Name = 
  11 active torsions:
  status: ('A' for Active; 'I' for Inactive)
    1  A    between atoms: C_8  and  C_29
    2  A    between atoms: C_10  and  C_44
    3  A    between atoms: C_11  and  O_43
    4  A    between atoms: C_13  and  C_30
    5  A    between atoms: P_19  and  N_24
    6  A    between atoms: P_19  and  C_29
    7  A    between atoms: N_24  and  C_25
    8  A    between atoms: C_25  and  C_26
    9  A    between atoms: C_25  and  N_37
   10  A    between atoms: C_31  and  N_37
   11  A    between atoms: C_32  and  O_43
                            x       y       z     vdW  Elec       q    Type
                         _______ _______ _______ _____ _____    ______ ____

>  <TORSDO>
F 11

$$$$
=
 OpenBabel11062422143D

 44 48  0  0  1  0  0  0  0  0999 V2000
  190.7050  174.2160  144.7880 O   0  0  0  0  0  1  0  0  0  0  0  0
  190.1110  174.8360  142.2780 C   0  0  2  0  0  3  0  0  0  0  0  0
  190.9810  174.9160  143.5800 C   0  0  1  0  0  0  0  0  0  0  0  0
  188.9030  176.1540  144.3260 C   0  0  2  0  0  3  0  0  0  0  0  0
  189.7630  177.1030  145.1400 C   0  0  0  0  0  0  0  0  0  0  0  0
  190.7150  177.9690  144.4030 C   0  0  0  0  0  2  0  0  0  0  0  0
  189.8880  175.9860  143.2480 C   0  0  2  0  0  0  0  0  0  0  0  0
  190.5930  177.3730  142.9790 C   0  0  0  0  0  2  0  0  0  0  0  0
  189.8760  176.9110  146.3320 O   0  0  0  0  0  0  0  0  0  0  0  0
  183.9320  179.1300  145.3520 C   0  0  0  0  0  1  0  0  0  0  0  0
  184.8340  178.1700  144.6400 C   0  0  0  0  0  0  0  0  0  0  0  0
  187.2860  177.4420  142.6300 C   0  0  0  0  0  3  0  0  0  0  0  0
  186.0530  177.8490  142.2590 C   0  0  0  0  0  3  0  0  0  0  0  0
  185.5470  177.3550  145.3820 C   0  0  2  0  0  3  0  0  0  0  0  0
  186.7970  176.6940  144.9490 C   0  0  0  0  0  3  0  0  0  0  0  0
  187.6420  176.8990  143.9150 C   0  0  0  0  0  0  0  0  0  0  0  0
  185.1290  177.0240  146.6600 O   0  0  0  0  0  1  0  0  0  0  0  0
  183.7030  178.3560  142.4770 O   0  0  0  0  0  1  0  0  0  0  0  0
  184.8000  177.8740  143.1470 C   0  0  0  0  0  0  0  0  0  0  0  0
  187.8850  173.9090  142.2800 O   0  0  0  0  0  1  0  0  0  0  0  0
  189.5490  172.4290  141.9820 O   0  0  0  0  0  0  0  0  0  0  0  0
  189.1310  173.6520  142.2530 C   0  0  0  0  0  0  0  0  0  0  0  0
  192.1610  175.6450  143.6350 O   0  0  0  0  0  0  0  0  0  0  0  0
  194.9100  173.7910  144.9080 C   0  0  0  0  0  0  0  0  0  0  0  0
  193.7900  176.2500  145.2380 C   0  0  0  0  0  3  0  0  0  0  0  0
  193.8140  174.0410  144.1690 C   0  0  0  0  0  3  0  0  0  0  0  0
  194.9490  175.9580  145.9560 C   0  0  0  0  0  3  0  0  0  0  0  0
  195.4960  174.6600  145.7380 C   0  0  0  0  0  0  0  0  0  0  0  0
  195.6700  172.6240  144.8960 C   0  0  0  0  0  0  0  0  0  0  0  0
  193.2380  175.3420  144.3740 C   0  0  0  0  0  0  0  0  0  0  0  0
  196.6980  172.8720  145.7570 N   0  0  0  0  0  0  0  0  0  0  0  0
  196.5940  174.0970  146.2980 N   0  0  0  0  0  2  0  0  0  0  0  0
  195.5650  171.5980  143.8740 N   0  0  0  0  0  2  0  0  0  0  0  0
  196.5970  171.3160  142.8510 C   0  0  2  0  0  3  0  0  0  0  0  0
  197.3850  170.0420  143.1700 C   0  0  0  0  0  0  0  0  0  0  0  0
  197.8730  169.8990  144.3020 O   0  0  0  0  0  0  0  0  0  0  0  0
  197.4610  168.9820  142.2050 N   0  0  0  0  0  1  0  0  0  0  0  0
  197.4790  172.4690  142.5230 N   0  0  0  0  0  2  0  0  0  0  0  0
  195.7100  173.5780  140.8520 O   0  0  0  0  0  1  0  0  0  0  0  0
  197.2060  173.4200  141.0740 P   0  0  2  0  0  0  0  0  0  0  0  0
  197.8950  172.8840  139.5830 O   0  0  0  0  0  0  0  0  0  0  0  0
  197.9120  175.0340  141.5830 C   0  0  0  0  0  2  0  0  0  0  0  0
  196.3990  176.7590  142.6360 C   0  0  0  0  0  1  0  0  0  0  0  0
  197.4520  175.6990  142.8990 C   0  0  0  0  0  2  0  0  0  0  0  0
  2 22  1  1  0  0  0
  2  7  1  0  0  0  0
  2  3  1  0  0  0  0
  3 23  1  0  0  0  0
  3  1  1  1  0  0  0
  4 16  1  6  0  0  0
  4  5  1  0  0  0  0
  5  9  2  0  0  0  0
  6  5  1  0  0  0  0
  7  8  1  6  0  0  0
  7  3  1  0  0  0  0
  7  4  1  0  0  0  0
  8  6  1  0  0  0  0
 11 10  1  0  0  0  0
 11 14  1  0  0  0  0
 12 16  1  0  0  0  0
 13 12  2  0  0  0  0
 13 19  1  0  0  0  0
 14 17  1  6  0  0  0
 15 14  1  0  0  0  0
 16 15  2  0  0  0  0
 18 19  1  0  0  0  0
 19 11  2  0  0  0  0
 21 22  2  0  0  0  0
 22 20  1  0  0  0  0
 23 30  1  0  0  0  0
 24 28  1  0  0  0  0
 25 27  1  0  0  0  0
 26 30  1  0  0  0  0
 26 24  2  0  0  0  0
 28 27  2  0  0  0  0
 28 32  1  0  0  0  0
 29 24  1  0  0  0  0
 29 31  2  0  0  0  0
 30 25  2  0  0  0  0
 31 32  1  0  0  0  0
 33 29  1  0  0  0  0
 34 38  1  1  0  0  0
 34 35  1  0  0  0  0
 34 33  1  0  0  0  0
 35 36  2  0  0  0  0
 37 35  1  0  0  0  0
 39 40  1  0  0  0  0
 40 41  2  6  0  0  0
 40 42  1  0  0  0  0
 40 38  1  0  0  0  0
 42 44  1  0  0  0  0
 43 44  1  0  0  0  0
M  END
>  <MODEL>
8

>  <REMARK>
 VINA RESULT:      -7.0      2.642      4.884
  Name = 
  11 active torsions:
  status: ('A' for Active; 'I' for Inactive)
    1  A    between atoms: C_8  and  C_29
    2  A    between atoms: C_10  and  C_44
    3  A    between atoms: C_11  and  O_43
    4  A    between atoms: C_13  and  C_30
    5  A    between atoms: P_19  and  N_24
    6  A    between atoms: P_19  and  C_29
    7  A    between atoms: N_24  and  C_25
    8  A    between atoms: C_25  and  C_26
    9  A    between atoms: C_25  and  N_37
   10  A    between atoms: C_31  and  N_37
   11  A    between atoms: C_32  and  O_43
                            x       y       z     vdW  Elec       q    Type
                         _______ _______ _______ _____ _____    ______ ____

>  <TORSDO>
F 11

$$$$
=
 OpenBabel11062422143D

 44 48  0  0  1  0  0  0  0  0999 V2000
  189.9440  176.1520  143.3570 O   0  0  0  0  0  1  0  0  0  0  0  0
  189.8150  173.9820  144.8770 C   0  0  2  0  0  3  0  0  0  0  0  0
  189.7400  175.5270  144.6190 C   0  0  1  0  0  0  0  0  0  0  0  0
  192.2220  175.1210  144.3360 C   0  0  2  0  0  3  0  0  0  0  0  0
  192.5130  176.4630  144.9830 C   0  0  0  0  0  0  0  0  0  0  0  0
  192.1170  176.6410  146.4020 C   0  0  0  0  0  2  0  0  0  0  0  0
  191.0380  174.8390  145.1610 C   0  0  2  0  0  0  0  0  0  0  0  0
  191.3090  175.3410  146.6330 C   0  0  0  0  0  2  0  0  0  0  0  0
  192.7560  177.4140  144.2710 O   0  0  0  0  0  0  0  0  0  0  0  0
  197.9410  173.7390  144.4270 C   0  0  0  0  0  1  0  0  0  0  0  0
  196.4740  173.4950  144.2590 C   0  0  0  0  0  0  0  0  0  0  0  0
  193.4660  173.0050  145.3980 C   0  0  0  0  0  3  0  0  0  0  0  0
  194.4640  172.0950  145.3790 C   0  0  0  0  0  3  0  0  0  0  0  0
  195.7900  174.3920  143.5870 C   0  0  0  0  0  0  0  0  0  0  0  0
  194.3310  174.6040  143.7030 C   0  0  0  0  0  3  0  0  0  0  0  0
  193.4070  174.2040  144.6040 C   0  0  0  0  0  0  0  0  0  0  0  0
  196.4220  175.2050  142.6610 O   0  0  0  0  0  1  0  0  0  0  0  0
  196.5790  171.1040  144.7720 O   0  0  0  0  0  1  0  0  0  0  0  0
  195.7590  172.1850  144.5610 C   0  0  2  0  0  3  0  0  0  0  0  0
  188.6080  172.7550  143.1890 O   0  0  0  0  0  1  0  0  0  0  0  0
  190.8140  172.9850  142.8270 O   0  0  0  0  0  0  0  0  0  0  0  0
  189.7520  173.1310  143.5990 C   0  0  0  0  0  0  0  0  0  0  0  0
  189.3930  176.4260  145.6180 O   0  0  0  0  0  0  0  0  0  0  0  0
  186.1880  177.9530  145.5190 C   0  0  0  0  0  0  0  0  0  0  0  0
  187.5510  176.1870  147.0800 C   0  0  0  0  0  3  0  0  0  0  0  0
  187.4470  177.6770  145.1320 C   0  0  0  0  0  3  0  0  0  0  0  0
  186.2300  176.4760  147.4200 C   0  0  0  0  0  3  0  0  0  0  0  0
  185.5630  177.3990  146.5630 C   0  0  0  0  0  0  0  0  0  0  0  0
  185.2890  178.7970  144.8730 C   0  0  0  0  0  0  0  0  0  0  0  0
  188.1450  176.7520  145.9830 C   0  0  0  0  0  0  0  0  0  0  0  0
  184.1400  178.7020  145.6020 N   0  0  0  0  0  0  0  0  0  0  0  0
  184.2970  177.8750  146.6490 N   0  0  0  0  0  2  0  0  0  0  0  0
  185.4710  179.2960  143.5220 N   0  0  0  0  0  2  0  0  0  0  0  0
  185.1120  178.5560  142.2920 C   0  0  2  0  0  3  0  0  0  0  0  0
  183.5950  178.4530  142.1080 C   0  0  0  0  0  0  0  0  0  0  0  0
  182.8470  178.8460  143.0160 O   0  0  0  0  0  0  0  0  0  0  0  0
  183.0510  178.0110  140.8550 N   0  0  0  0  0  1  0  0  0  0  0  0
  185.7990  177.2450  142.1330 N   0  0  0  0  0  2  0  0  0  0  0  0
  188.1990  177.9580  141.1910 O   0  0  0  0  0  1  0  0  0  0  0  0
  187.0330  177.0250  140.9050 P   0  0  2  0  0  0  0  0  0  0  0  0
  186.6020  177.2340  139.2440 O   0  0  0  0  0  0  0  0  0  0  0  0
  187.5490  175.2980  141.2390 C   0  0  0  0  0  2  0  0  0  0  0  0
  188.1910  174.1030  139.1100 C   0  0  0  0  0  1  0  0  0  0  0  0
  188.6980  174.6630  140.4260 C   0  0  0  0  0  2  0  0  0  0  0  0
  2 22  1  6  0  0  0
  2  7  1  0  0  0  0
  3  1  1  6  0  0  0
  3  2  1  0  0  0  0
  3  7  1  0  0  0  0
  3 23  1  0  0  0  0
  4 16  1  1  0  0  0
  4  5  1  0  0  0  0
  4  7  1  0  0  0  0
  5  6  1  0  0  0  0
  6  8  1  0  0  0  0
  7  8  1  1  0  0  0
  9  5  2  0  0  0  0
 11 10  1  0  0  0  0
 11 19  1  0  0  0  0
 13 12  2  0  0  0  0
 14 15  1  0  0  0  0
 14 11  2  0  0  0  0
 15 16  2  0  0  0  0
 16 12  1  0  0  0  0
 17 14  1  0  0  0  0
 19 18  1  1  0  0  0
 19 13  1  0  0  0  0
 20 22  1  0  0  0  0
 21 22  2  0  0  0  0
 23 30  1  0  0  0  0
 24 28  1  0  0  0  0
 25 27  1  0  0  0  0
 26 24  2  0  0  0  0
 26 30  1  0  0  0  0
 28 32  1  0  0  0  0
 28 27  2  0  0  0  0
 29 24  1  0  0  0  0
 29 31  2  0  0  0  0
 30 25  2  0  0  0  0
 31 32  1  0  0  0  0
 33 29  1  0  0  0  0
 34 35  1  1  0  0  0
 34 33  1  0  0  0  0
 35 36  2  0  0  0  0
 37 35  1  0  0  0  0
 38 34  1  0  0  0  0
 40 41  2  6  0  0  0
 40 39  1  0  0  0  0
 40 42  1  0  0  0  0
 40 38  1  0  0  0  0
 43 44  1  0  0  0  0
 44 42  1  0  0  0  0
M  END
>  <MODEL>
9

>  <REMARK>
 VINA RESULT:      -6.9      3.946      8.494
  Name = 
  11 active torsions:
  status: ('A' for Active; 'I' for Inactive)
    1  A    between atoms: C_8  and  C_29
    2  A    between atoms: C_10  and  C_44
    3  A    between atoms: C_11  and  O_43
    4  A    between atoms: C_13  and  C_30
    5  A    between atoms: P_19  and  N_24
    6  A    between atoms: P_19  and  C_29
    7  A    between atoms: N_24  and  C_25
    8  A    between atoms: C_25  and  C_26
    9  A    between atoms: C_25  and  N_37
   10  A    between atoms: C_31  and  N_37
   11  A    between atoms: C_32  and  O_43
                            x       y       z     vdW  Elec       q    Type
                         _______ _______ _______ _____ _____    ______ ____

>  <TORSDO>
F 11

$$$$
