=
 OpenBabel11072408483D

 26 28  0  0  1  0  0  0  0  0999 V2000
  191.5990  176.8620  144.0700 C   0  0  0  0  0  2  0  0  0  0  0  0
  190.3240  175.0820  142.7790 C   0  0  1  0  0  3  0  0  0  0  0  0
  190.9180  175.4870  144.1400 C   0  0  2  0  0  3  0  0  0  0  0  0
  192.4600  177.0560  142.8260 C   0  0  0  0  0  2  0  0  0  0  0  0
  193.2920  175.8120  142.5640 C   0  0  0  0  0  2  0  0  0  0  0  0
  192.5940  174.8560  141.7280 N   0  0  0  0  0  0  0  0  0  0  0  0
  191.3520  174.5010  141.8300 C   0  0  0  0  0  3  0  0  0  0  0  0
  188.0830  175.5260  147.2910 N   0  0  0  0  0  0  0  0  0  0  0  0
  188.8680  176.3290  145.2230 N   0  0  0  0  0  0  0  0  0  0  0  0
  187.9500  176.3670  146.2270 C   0  0  0  0  0  0  0  0  0  0  0  0
  190.0670  174.6030  146.3480 C   0  0  0  0  0  3  0  0  0  0  0  0
  189.9170  175.4670  145.2580 C   0  0  0  0  0  0  0  0  0  0  0  0
  189.1190  174.6520  147.3680 C   0  0  0  0  0  3  0  0  0  0  0  0
  186.7750  178.2230  145.1690 C   0  0  0  0  0  3  0  0  0  0  0  0
  186.8180  177.3130  146.1560 C   0  0  0  0  0  0  0  0  0  0  0  0
  185.6730  179.2380  145.0390 C   0  0  1  0  0  3  0  0  0  0  0  0
  184.7250  178.3550  147.1470 C   0  0  0  0  0  2  0  0  0  0  0  0
  185.6630  177.1500  147.1190 C   0  0  0  0  0  2  0  0  0  0  0  0
  185.4050  179.5240  143.5770 C   0  0  0  0  0  1  0  0  0  0  0  0
  184.3920  178.7780  145.7240 C   0  0  0  0  0  2  0  0  0  0  0  0
  189.2860  174.1510  142.9280 O   0  0  0  0  0  0  0  0  0  0  0  0
  188.4030  174.4070  141.8750 C   0  0  2  0  0  3  0  0  0  0  0  0
  187.3070  175.2360  142.3450 N   0  0  0  0  0  1  0  0  0  0  0  0
  187.8670  173.1240  141.3300 C   0  0  0  0  0  0  0  0  0  0  0  0
  188.1540  172.7580  140.0220 O   0  0  0  0  0  0  0  0  0  0  0  0
  187.1570  172.3720  142.0490 O   0  0  0  0  0  1  0  0  0  0  0  0
  1  3  1  0  0  0  0
  2 21  1  1  0  0  0
  2  3  1  0  0  0  0
  3 12  1  1  0  0  0
  4  1  1  0  0  0  0
  5  4  1  0  0  0  0
  6  7  2  0  0  0  0
  6  5  1  0  0  0  0
  7  2  1  0  0  0  0
  8 13  1  0  0  0  0
  9 12  2  0  0  0  0
  9 10  1  0  0  0  0
 10  8  2  0  0  0  0
 11 13  2  0  0  0  0
 12 11  1  0  0  0  0
 14 15  2  0  0  0  0
 15 10  1  0  0  0  0
 15 18  1  0  0  0  0
 16 19  1  6  0  0  0
 16 14  1  0  0  0  0
 16 20  1  0  0  0  0
 18 17  1  0  0  0  0
 20 17  1  0  0  0  0
 22 23  1  1  0  0  0
 22 21  1  0  0  0  0
 24 22  1  0  0  0  0
 24 26  1  0  0  0  0
 25 24  2  0  0  0  0
M  END
>  <MODEL>
1

>  <REMARK>
 VINA RESULT:      -7.2      0.000      0.000
  Name = 
  5 active torsions:
  status: ('A' for Active; 'I' for Inactive)
    1  A    between atoms: C_3  and  C_8
    2  A    between atoms: C_4  and  O_25
    3  A    between atoms: C_5  and  C_20
    4  A    between atoms: C_8  and  O_25
    5  A    between atoms: C_9  and  C_11
                            x       y       z     vdW  Elec       q    Type
                         _______ _______ _______ _____ _____    ______ ____

>  <TORSDO>
F 5

$$$$
=
 OpenBabel11072408483D

 26 28  0  0  1  0  0  0  0  0999 V2000
  189.9870  173.0780  143.3650 C   0  0  0  0  0  2  0  0  0  0  0  0
  191.7100  174.9000  143.7810 C   0  0  1  0  0  3  0  0  0  0  0  0
  190.2110  174.5520  143.7340 C   0  0  2  0  0  3  0  0  0  0  0  0
  190.8710  172.5920  142.2200 C   0  0  0  0  0  2  0  0  0  0  0  0
  190.9090  173.6290  141.1100 C   0  0  0  0  0  2  0  0  0  0  0  0
  191.9730  174.5930  141.3020 N   0  0  0  0  0  0  0  0  0  0  0  0
  192.2990  175.1750  142.4120 C   0  0  0  0  0  3  0  0  0  0  0  0
  188.1530  175.5680  147.2980 N   0  0  0  0  0  0  0  0  0  0  0  0
  188.5150  175.8310  144.9880 N   0  0  0  0  0  0  0  0  0  0  0  0
  187.8470  176.1810  146.1210 C   0  0  0  0  0  0  0  0  0  0  0  0
  189.8100  174.2460  146.2100 C   0  0  0  0  0  3  0  0  0  0  0  0
  189.4840  174.8780  145.0050 C   0  0  0  0  0  0  0  0  0  0  0  0
  189.1170  174.6130  147.3610 C   0  0  0  0  0  3  0  0  0  0  0  0
  186.8010  178.1150  145.0670 C   0  0  0  0  0  3  0  0  0  0  0  0
  186.7970  177.2180  146.0670 C   0  0  0  0  0  0  0  0  0  0  0  0
  185.7850  179.2180  144.9520 C   0  0  1  0  0  3  0  0  0  0  0  0
  184.8280  178.4460  147.0990 C   0  0  0  0  0  2  0  0  0  0  0  0
  185.6610  177.1650  147.0640 C   0  0  0  0  0  2  0  0  0  0  0  0
  185.4990  179.5060  143.4930 C   0  0  0  0  0  1  0  0  0  0  0  0
  184.4900  178.8760  145.6800 C   0  0  0  0  0  2  0  0  0  0  0  0
  191.9530  176.0130  144.5980 O   0  0  0  0  0  0  0  0  0  0  0  0
  193.1490  175.7290  145.2650 C   0  0  2  0  0  3  0  0  0  0  0  0
  193.2160  174.3100  145.5680 N   0  0  0  0  0  1  0  0  0  0  0  0
  193.2320  176.5180  146.5300 C   0  0  0  0  0  0  0  0  0  0  0  0
  194.3710  177.2640  146.8030 O   0  0  0  0  0  0  0  0  0  0  0  0
  192.2750  176.5130  147.3500 O   0  0  0  0  0  1  0  0  0  0  0  0
  1  3  1  0  0  0  0
  2 21  1  1  0  0  0
  3  2  1  0  0  0  0
  3 12  1  1  0  0  0
  4  1  1  0  0  0  0
  5  6  1  0  0  0  0
  5  4  1  0  0  0  0
  6  7  2  0  0  0  0
  7  2  1  0  0  0  0
  8 13  1  0  0  0  0
  9 12  2  0  0  0  0
  9 10  1  0  0  0  0
 10  8  2  0  0  0  0
 11 13  2  0  0  0  0
 12 11  1  0  0  0  0
 14 15  2  0  0  0  0
 15 10  1  0  0  0  0
 15 18  1  0  0  0  0
 16 19  1  6  0  0  0
 16 14  1  0  0  0  0
 16 20  1  0  0  0  0
 18 17  1  0  0  0  0
 20 17  1  0  0  0  0
 21 22  1  0  0  0  0
 22 23  1  1  0  0  0
 22 24  1  0  0  0  0
 24 25  2  0  0  0  0
 24 26  1  0  0  0  0
M  END
>  <MODEL>
2

>  <REMARK>
 VINA RESULT:      -7.2      2.346      3.923
  Name = 
  5 active torsions:
  status: ('A' for Active; 'I' for Inactive)
    1  A    between atoms: C_3  and  C_8
    2  A    between atoms: C_4  and  O_25
    3  A    between atoms: C_5  and  C_20
    4  A    between atoms: C_8  and  O_25
    5  A    between atoms: C_9  and  C_11
                            x       y       z     vdW  Elec       q    Type
                         _______ _______ _______ _____ _____    ______ ____

>  <TORSDO>
F 5

$$$$
=
 OpenBabel11072408483D

 26 28  0  0  1  0  0  0  0  0999 V2000
  187.8930  173.5590  141.6850 C   0  0  0  0  0  2  0  0  0  0  0  0
  189.7720  175.0620  142.5050 C   0  0  1  0  0  3  0  0  0  0  0  0
  188.6110  174.9050  141.5060 C   0  0  2  0  0  3  0  0  0  0  0  0
  188.8410  172.3790  141.8720 C   0  0  0  0  0  2  0  0  0  0  0  0
  189.9930  172.4700  140.8850 C   0  0  0  0  0  2  0  0  0  0  0  0
  191.1050  173.2340  141.4150 N   0  0  0  0  0  0  0  0  0  0  0  0
  191.0360  174.3530  142.0630 C   0  0  0  0  0  3  0  0  0  0  0  0
  185.7530  178.0270  141.7370 N   0  0  0  0  0  0  0  0  0  0  0  0
  187.0310  176.3320  142.7520 N   0  0  0  0  0  0  0  0  0  0  0  0
  186.1030  177.3240  142.8500 C   0  0  0  0  0  0  0  0  0  0  0  0
  187.2600  176.7400  140.4150 C   0  0  0  0  0  3  0  0  0  0  0  0
  187.6170  176.0280  141.5650 C   0  0  0  0  0  0  0  0  0  0  0  0
  186.3110  177.7530  140.5300 C   0  0  0  0  0  3  0  0  0  0  0  0
  185.8220  176.9030  145.2350 C   0  0  0  0  0  3  0  0  0  0  0  0
  185.4890  177.6310  144.1570 C   0  0  0  0  0  0  0  0  0  0  0  0
  185.2230  177.1340  146.5960 C   0  0  1  0  0  3  0  0  0  0  0  0
  183.7910  178.8760  145.5780 C   0  0  0  0  0  2  0  0  0  0  0  0
  184.5970  178.8470  144.2800 C   0  0  0  0  0  2  0  0  0  0  0  0
  186.2500  176.8350  147.6680 C   0  0  0  0  0  1  0  0  0  0  0  0
  184.7020  178.5560  146.7540 C   0  0  0  0  0  2  0  0  0  0  0  0
  190.0780  176.4110  142.7280 O   0  0  0  0  0  0  0  0  0  0  0  0
  190.6110  176.4630  144.0200 C   0  0  2  0  0  3  0  0  0  0  0  0
  189.5490  176.7250  144.9760 N   0  0  0  0  0  1  0  0  0  0  0  0
  191.6440  177.5370  144.1080 C   0  0  0  0  0  0  0  0  0  0  0  0
  191.3400  178.8220  143.6780 O   0  0  0  0  0  0  0  0  0  0  0  0
  192.7890  177.2850  144.5690 O   0  0  0  0  0  1  0  0  0  0  0  0
  1  4  1  0  0  0  0
  2 21  1  6  0  0  0
  3 12  1  1  0  0  0
  3  1  1  0  0  0  0
  3  2  1  0  0  0  0
  5  6  1  0  0  0  0
  5  4  1  0  0  0  0
  6  7  2  0  0  0  0
  7  2  1  0  0  0  0
  8 10  2  0  0  0  0
  9 10  1  0  0  0  0
 10 15  1  0  0  0  0
 11 13  2  0  0  0  0
 11 12  1  0  0  0  0
 12  9  2  0  0  0  0
 13  8  1  0  0  0  0
 14 16  1  0  0  0  0
 15 18  1  0  0  0  0
 15 14  2  0  0  0  0
 16 20  1  0  0  0  0
 16 19  1  1  0  0  0
 17 20  1  0  0  0  0
 18 17  1  0  0  0  0
 21 22  1  0  0  0  0
 22 24  1  0  0  0  0
 22 23  1  1  0  0  0
 24 26  1  0  0  0  0
 25 24  2  0  0  0  0
M  END
>  <MODEL>
3

>  <REMARK>
 VINA RESULT:      -7.1      2.187      4.653
  Name = 
  5 active torsions:
  status: ('A' for Active; 'I' for Inactive)
    1  A    between atoms: C_3  and  C_8
    2  A    between atoms: C_4  and  O_25
    3  A    between atoms: C_5  and  C_20
    4  A    between atoms: C_8  and  O_25
    5  A    between atoms: C_9  and  C_11
                            x       y       z     vdW  Elec       q    Type
                         _______ _______ _______ _____ _____    ______ ____

>  <TORSDO>
F 5

$$$$
=
 OpenBabel11072408483D

 26 28  0  0  1  0  0  0  0  0999 V2000
  187.4360  176.5580  146.4700 C   0  0  0  0  0  2  0  0  0  0  0  0
  186.5070  178.1230  144.6950 C   0  0  1  0  0  3  0  0  0  0  0  0
  187.7630  177.6680  145.4610 C   0  0  2  0  0  3  0  0  0  0  0  0
  186.1620  176.8130  147.2700 C   0  0  0  0  0  2  0  0  0  0  0  0
  186.1140  178.2600  147.7310 C   0  0  0  0  0  2  0  0  0  0  0  0
  185.4750  179.1210  146.7560 N   0  0  0  0  0  0  0  0  0  0  0  0
  185.6610  179.1090  145.4740 C   0  0  0  0  0  3  0  0  0  0  0  0
  190.9090  176.3430  142.9480 N   0  0  0  0  0  0  0  0  0  0  0  0
  188.7480  176.0870  143.8440 N   0  0  0  0  0  0  0  0  0  0  0  0
  189.7480  175.6360  143.0370 C   0  0  0  0  0  0  0  0  0  0  0  0
  190.0740  177.9620  144.4830 C   0  0  0  0  0  3  0  0  0  0  0  0
  188.8830  177.2320  144.5630 C   0  0  0  0  0  0  0  0  0  0  0  0
  191.0880  177.4900  143.6520 C   0  0  0  0  0  3  0  0  0  0  0  0
  188.7950  174.3960  141.1660 C   0  0  0  0  0  3  0  0  0  0  0  0
  189.5660  174.3900  142.2650 C   0  0  0  0  0  0  0  0  0  0  0  0
  188.5380  173.1670  140.3390 C   0  0  1  0  0  3  0  0  0  0  0  0
  189.8610  171.8830  141.9900 C   0  0  0  0  0  2  0  0  0  0  0  0
  190.3610  173.1640  142.6550 C   0  0  0  0  0  2  0  0  0  0  0  0
  188.3970  173.5460  138.8800 C   0  0  0  0  0  1  0  0  0  0  0  0
  189.6410  172.1290  140.5040 C   0  0  0  0  0  2  0  0  0  0  0  0
  186.8390  178.7030  143.4630 O   0  0  0  0  0  0  0  0  0  0  0  0
  185.9330  178.1650  142.5430 C   0  0  2  0  0  3  0  0  0  0  0  0
  185.4460  176.8860  143.0280 N   0  0  0  0  0  1  0  0  0  0  0  0
  186.5950  177.9820  141.2170 C   0  0  0  0  0  0  0  0  0  0  0  0
  185.8200  177.8690  140.0710 O   0  0  0  0  0  0  0  0  0  0  0  0
  187.8510  177.9310  141.1320 O   0  0  0  0  0  1  0  0  0  0  0  0
  1  4  1  0  0  0  0
  2 21  1  6  0  0  0
  2  3  1  0  0  0  0
  2  7  1  0  0  0  0
  3 12  1  6  0  0  0
  3  1  1  0  0  0  0
  4  5  1  0  0  0  0
  6  5  1  0  0  0  0
  7  6  2  0  0  0  0
  8 10  2  0  0  0  0
  8 13  1  0  0  0  0
  9 12  2  0  0  0  0
 10  9  1  0  0  0  0
 11 12  1  0  0  0  0
 13 11  2  0  0  0  0
 14 15  2  0  0  0  0
 15 18  1  0  0  0  0
 15 10  1  0  0  0  0
 16 19  1  6  0  0  0
 16 20  1  0  0  0  0
 16 14  1  0  0  0  0
 17 18  1  0  0  0  0
 20 17  1  0  0  0  0
 22 23  1  1  0  0  0
 22 21  1  0  0  0  0
 24 22  1  0  0  0  0
 25 24  2  0  0  0  0
 26 24  1  0  0  0  0
M  END
>  <MODEL>
4

>  <REMARK>
 VINA RESULT:      -7.1      2.512      6.371
  Name = 
  5 active torsions:
  status: ('A' for Active; 'I' for Inactive)
    1  A    between atoms: C_3  and  C_8
    2  A    between atoms: C_4  and  O_25
    3  A    between atoms: C_5  and  C_20
    4  A    between atoms: C_8  and  O_25
    5  A    between atoms: C_9  and  C_11
                            x       y       z     vdW  Elec       q    Type
                         _______ _______ _______ _____ _____    ______ ____

>  <TORSDO>
F 5

$$$$
=
 OpenBabel11072408483D

 26 28  0  0  1  0  0  0  0  0999 V2000
  187.4870  176.5630  146.5150 C   0  0  0  0  0  2  0  0  0  0  0  0
  186.3460  177.8080  144.6140 C   0  0  1  0  0  3  0  0  0  0  0  0
  187.6670  177.5700  145.3690 C   0  0  2  0  0  3  0  0  0  0  0  0
  186.2230  176.7910  147.3380 C   0  0  0  0  0  2  0  0  0  0  0  0
  186.0470  178.2720  147.6290 C   0  0  0  0  0  2  0  0  0  0  0  0
  185.2920  178.9450  146.5900 N   0  0  0  0  0  0  0  0  0  0  0  0
  185.4340  178.7960  145.3110 C   0  0  0  0  0  3  0  0  0  0  0  0
  190.8410  176.2540  142.8860 N   0  0  0  0  0  0  0  0  0  0  0  0
  188.7580  175.8970  143.9210 N   0  0  0  0  0  0  0  0  0  0  0  0
  189.7700  175.4480  143.1290 C   0  0  0  0  0  0  0  0  0  0  0  0
  189.8910  177.9690  144.2400 C   0  0  0  0  0  3  0  0  0  0  0  0
  188.7930  177.1360  144.4770 C   0  0  0  0  0  0  0  0  0  0  0  0
  190.9180  177.4980  143.4250 C   0  0  0  0  0  3  0  0  0  0  0  0
  189.3950  173.9570  141.2360 C   0  0  0  0  0  3  0  0  0  0  0  0
  189.6980  174.0970  142.5370 C   0  0  0  0  0  0  0  0  0  0  0  0
  189.2760  172.6180  140.5620 C   0  0  1  0  0  3  0  0  0  0  0  0
  189.6910  171.5670  142.7640 C   0  0  0  0  0  2  0  0  0  0  0  0
  190.1000  172.9060  143.3770 C   0  0  0  0  0  2  0  0  0  0  0  0
  189.7400  172.7210  139.1240 C   0  0  0  0  0  1  0  0  0  0  0  0
  190.0720  171.5420  141.2910 C   0  0  0  0  0  2  0  0  0  0  0  0
  186.5760  178.2640  143.3090 O   0  0  0  0  0  0  0  0  0  0  0  0
  185.8510  177.4000  142.4810 C   0  0  2  0  0  3  0  0  0  0  0  0
  186.7320  176.8320  141.4770 N   0  0  0  0  0  1  0  0  0  0  0  0
  184.7390  178.1400  141.8140 C   0  0  0  0  0  0  0  0  0  0  0  0
  184.9260  178.6650  140.5430 O   0  0  0  0  0  0  0  0  0  0  0  0
  183.6320  178.2910  142.3970 O   0  0  0  0  0  1  0  0  0  0  0  0
  1  4  1  0  0  0  0
  2 21  1  6  0  0  0
  2  7  1  0  0  0  0
  2  3  1  0  0  0  0
  3 12  1  6  0  0  0
  3  1  1  0  0  0  0
  4  5  1  0  0  0  0
  6  5  1  0  0  0  0
  7  6  2  0  0  0  0
  8 10  2  0  0  0  0
  8 13  1  0  0  0  0
  9 12  2  0  0  0  0
 10  9  1  0  0  0  0
 11 12  1  0  0  0  0
 13 11  2  0  0  0  0
 14 15  2  0  0  0  0
 15 10  1  0  0  0  0
 15 18  1  0  0  0  0
 16 19  1  6  0  0  0
 16 14  1  0  0  0  0
 16 20  1  0  0  0  0
 17 18  1  0  0  0  0
 20 17  1  0  0  0  0
 22 23  1  6  0  0  0
 22 21  1  0  0  0  0
 24 26  1  0  0  0  0
 24 22  1  0  0  0  0
 25 24  2  0  0  0  0
M  END
>  <MODEL>
5

>  <REMARK>
 VINA RESULT:      -6.7      2.843      6.538
  Name = 
  5 active torsions:
  status: ('A' for Active; 'I' for Inactive)
    1  A    between atoms: C_3  and  C_8
    2  A    between atoms: C_4  and  O_25
    3  A    between atoms: C_5  and  C_20
    4  A    between atoms: C_8  and  O_25
    5  A    between atoms: C_9  and  C_11
                            x       y       z     vdW  Elec       q    Type
                         _______ _______ _______ _____ _____    ______ ____

>  <TORSDO>
F 5

$$$$
=
 OpenBabel11072408483D

 26 28  0  0  1  0  0  0  0  0999 V2000
  192.9480  176.9260  144.5650 C   0  0  0  0  0  2  0  0  0  0  0  0
  191.9240  174.6470  144.0970 C   0  0  1  0  0  3  0  0  0  0  0  0
  191.7030  176.0400  144.7140 C   0  0  2  0  0  3  0  0  0  0  0  0
  194.2550  176.2030  144.8780 C   0  0  0  0  0  2  0  0  0  0  0  0
  194.1010  175.3600  146.1330 C   0  0  0  0  0  2  0  0  0  0  0  0
  193.6260  174.0240  145.8360 N   0  0  0  0  0  0  0  0  0  0  0  0
  192.6780  173.7040  145.0130 C   0  0  0  0  0  3  0  0  0  0  0  0
  188.2470  177.9860  143.2180 N   0  0  0  0  0  0  0  0  0  0  0  0
  189.4110  176.9190  144.9620 N   0  0  0  0  0  0  0  0  0  0  0  0
  188.2860  177.5320  144.5010 C   0  0  0  0  0  0  0  0  0  0  0  0
  190.4680  177.2070  142.8450 C   0  0  0  0  0  3  0  0  0  0  0  0
  190.5000  176.7500  144.1670 C   0  0  0  0  0  0  0  0  0  0  0  0
  189.3110  177.8350  142.3880 C   0  0  0  0  0  3  0  0  0  0  0  0
  186.1340  178.5410  145.0420 C   0  0  0  0  0  3  0  0  0  0  0  0
  187.1230  177.7030  145.3940 C   0  0  0  0  0  0  0  0  0  0  0  0
  184.9270  178.7910  145.9050 C   0  0  1  0  0  3  0  0  0  0  0  0
  185.9400  177.3080  147.6070 C   0  0  0  0  0  2  0  0  0  0  0  0
  187.0050  176.8280  146.6220 C   0  0  0  0  0  2  0  0  0  0  0  0
  183.7140  179.0410  145.0340 C   0  0  0  0  0  1  0  0  0  0  0  0
  184.6570  177.6320  146.8560 C   0  0  0  0  0  2  0  0  0  0  0  0
  190.7090  174.0430  143.7460 O   0  0  0  0  0  0  0  0  0  0  0  0
  191.0280  173.1250  142.7390 C   0  0  2  0  0  3  0  0  0  0  0  0
  190.8590  173.7480  141.4390 N   0  0  0  0  0  1  0  0  0  0  0  0
  190.1460  171.9240  142.8400 C   0  0  0  0  0  0  0  0  0  0  0  0
  189.0920  171.9180  143.7440 O   0  0  0  0  0  1  0  0  0  0  0  0
  190.3530  170.9180  142.1110 O   0  0  0  0  0  0  0  0  0  0  0  0
  1  3  1  0  0  0  0
  1  4  1  0  0  0  0
  2 21  1  1  0  0  0
  2  3  1  0  0  0  0
  2  7  1  0  0  0  0
  3 12  1  6  0  0  0
  4  5  1  0  0  0  0
  6  5  1  0  0  0  0
  7  6  2  0  0  0  0
  8 10  2  0  0  0  0
 10  9  1  0  0  0  0
 10 15  1  0  0  0  0
 11 12  1  0  0  0  0
 12  9  2  0  0  0  0
 13 11  2  0  0  0  0
 13  8  1  0  0  0  0
 14 15  2  0  0  0  0
 14 16  1  0  0  0  0
 15 18  1  0  0  0  0
 16 19  1  6  0  0  0
 16 20  1  0  0  0  0
 18 17  1  0  0  0  0
 20 17  1  0  0  0  0
 22 23  1  6  0  0  0
 22 24  1  0  0  0  0
 22 21  1  0  0  0  0
 24 25  1  0  0  0  0
 26 24  2  0  0  0  0
M  END
>  <MODEL>
6

>  <REMARK>
 VINA RESULT:      -6.7      2.095      2.948
  Name = 
  5 active torsions:
  status: ('A' for Active; 'I' for Inactive)
    1  A    between atoms: C_3  and  C_8
    2  A    between atoms: C_4  and  O_25
    3  A    between atoms: C_5  and  C_20
    4  A    between atoms: C_8  and  O_25
    5  A    between atoms: C_9  and  C_11
                            x       y       z     vdW  Elec       q    Type
                         _______ _______ _______ _____ _____    ______ ____

>  <TORSDO>
F 5

$$$$
=
 OpenBabel11072408483D

 26 28  0  0  1  0  0  0  0  0999 V2000
  186.4290  178.6030  143.8170 C   0  0  0  0  0  2  0  0  0  0  0  0
  186.8170  177.0770  145.8130 C   0  0  1  0  0  3  0  0  0  0  0  0
  186.5370  177.1500  144.3010 C   0  0  2  0  0  3  0  0  0  0  0  0
  185.6080  179.4970  144.7420 C   0  0  0  0  0  2  0  0  0  0  0  0
  184.3450  178.7750  145.1820 C   0  0  0  0  0  2  0  0  0  0  0  0
  184.5540  178.0010  146.3900 N   0  0  0  0  0  0  0  0  0  0  0  0
  185.5700  177.2430  146.6570 C   0  0  0  0  0  3  0  0  0  0  0  0
  189.4400  175.1270  141.9660 N   0  0  0  0  0  0  0  0  0  0  0  0
  188.8650  176.5360  143.7610 N   0  0  0  0  0  0  0  0  0  0  0  0
  189.8160  175.9040  143.0200 C   0  0  0  0  0  0  0  0  0  0  0  0
  187.1470  175.6160  142.3880 C   0  0  0  0  0  3  0  0  0  0  0  0
  187.5440  176.4070  143.4720 C   0  0  0  0  0  0  0  0  0  0  0  0
  188.1310  174.9740  141.6400 C   0  0  0  0  0  3  0  0  0  0  0  0
  191.5870  176.5090  144.5820 C   0  0  0  0  0  3  0  0  0  0  0  0
  191.2430  176.0630  143.3640 C   0  0  0  0  0  0  0  0  0  0  0  0
  193.0150  176.7230  145.0040 C   0  0  1  0  0  3  0  0  0  0  0  0
  193.6980  176.0870  142.7120 C   0  0  0  0  0  2  0  0  0  0  0  0
  192.2920  175.5920  142.3810 C   0  0  0  0  0  2  0  0  0  0  0  0
  193.1680  176.4180  146.4790 C   0  0  0  0  0  1  0  0  0  0  0  0
  193.9820  175.8710  144.1910 C   0  0  0  0  0  2  0  0  0  0  0  0
  187.4300  175.8660  146.1640 O   0  0  0  0  0  0  0  0  0  0  0  0
  188.3610  176.1940  147.1550 C   0  0  2  0  0  3  0  0  0  0  0  0
  188.9080  177.5140  146.8950 N   0  0  0  0  0  1  0  0  0  0  0  0
  189.4630  175.1880  147.1780 C   0  0  0  0  0  0  0  0  0  0  0  0
  189.4530  174.1340  146.2740 O   0  0  0  0  0  0  0  0  0  0  0  0
  190.4020  175.2880  148.0120 O   0  0  0  0  0  1  0  0  0  0  0  0
  1  3  1  0  0  0  0
  1  4  1  0  0  0  0
  2 21  1  6  0  0  0
  2  7  1  0  0  0  0
  3 12  1  6  0  0  0
  3  2  1  0  0  0  0
  4  5  1  0  0  0  0
  5  6  1  0  0  0  0
  6  7  2  0  0  0  0
  8 10  2  0  0  0  0
 10 15  1  0  0  0  0
 10  9  1  0  0  0  0
 11 12  1  0  0  0  0
 12  9  2  0  0  0  0
 13  8  1  0  0  0  0
 13 11  2  0  0  0  0
 14 16  1  0  0  0  0
 15 14  2  0  0  0  0
 16 19  1  1  0  0  0
 17 20  1  0  0  0  0
 18 17  1  0  0  0  0
 18 15  1  0  0  0  0
 20 16  1  0  0  0  0
 21 22  1  0  0  0  0
 22 23  1  6  0  0  0
 22 24  1  0  0  0  0
 24 26  1  0  0  0  0
 25 24  2  0  0  0  0
M  END
>  <MODEL>
7

>  <REMARK>
 VINA RESULT:      -6.7      2.205      6.768
  Name = 
  5 active torsions:
  status: ('A' for Active; 'I' for Inactive)
    1  A    between atoms: C_3  and  C_8
    2  A    between atoms: C_4  and  O_25
    3  A    between atoms: C_5  and  C_20
    4  A    between atoms: C_8  and  O_25
    5  A    between atoms: C_9  and  C_11
                            x       y       z     vdW  Elec       q    Type
                         _______ _______ _______ _____ _____    ______ ____

>  <TORSDO>
F 5

$$$$
=
 OpenBabel11072408483D

 26 28  0  0  1  0  0  0  0  0999 V2000
  192.4620  176.7550  145.1550 C   0  0  0  0  0  2  0  0  0  0  0  0
  191.8380  174.5930  143.9740 C   0  0  1  0  0  3  0  0  0  0  0  0
  191.7530  175.3990  145.2820 C   0  0  2  0  0  3  0  0  0  0  0  0
  193.8120  176.6770  144.4490 C   0  0  0  0  0  2  0  0  0  0  0  0
  194.6010  175.4820  144.9580 C   0  0  0  0  0  2  0  0  0  0  0  0
  194.3200  174.2810  144.1970 N   0  0  0  0  0  0  0  0  0  0  0  0
  193.1570  173.8640  143.8100 C   0  0  0  0  0  3  0  0  0  0  0  0
  187.7890  176.0570  146.6320 N   0  0  0  0  0  0  0  0  0  0  0  0
  189.5310  176.4550  145.1010 N   0  0  0  0  0  0  0  0  0  0  0  0
  188.2570  176.6900  145.5210 C   0  0  0  0  0  0  0  0  0  0  0  0
  189.8780  174.9480  146.9150 C   0  0  0  0  0  3  0  0  0  0  0  0
  190.3470  175.5990  145.7690 C   0  0  0  0  0  0  0  0  0  0  0  0
  188.5720  175.1960  147.3310 C   0  0  0  0  0  3  0  0  0  0  0  0
  187.5060  177.7020  143.4340 C   0  0  0  0  0  3  0  0  0  0  0  0
  187.3950  177.6240  144.7700 C   0  0  0  0  0  0  0  0  0  0  0  0
  186.6850  178.6450  142.5970 C   0  0  1  0  0  3  0  0  0  0  0  0
  185.7050  179.5190  144.6940 C   0  0  0  0  0  2  0  0  0  0  0  0
  186.3100  178.3760  145.5080 C   0  0  0  0  0  2  0  0  0  0  0  0
  186.3890  178.0150  141.2520 C   0  0  0  0  0  1  0  0  0  0  0  0
  185.3840  179.0330  143.2890 C   0  0  0  0  0  2  0  0  0  0  0  0
  190.8010  173.6540  143.8800 O   0  0  0  0  0  0  0  0  0  0  0  0
  190.4750  173.5950  142.5210 C   0  0  2  0  0  3  0  0  0  0  0  0
  190.1460  174.9240  142.0380 N   0  0  0  0  0  1  0  0  0  0  0  0
  189.3140  172.6800  142.3110 C   0  0  0  0  0  0  0  0  0  0  0  0
  188.9240  171.8170  143.3260 O   0  0  0  0  0  1  0  0  0  0  0  0
  188.6860  172.6870  141.2190 O   0  0  0  0  0  0  0  0  0  0  0  0
  1  3  1  0  0  0  0
  2 21  1  1  0  0  0
  2  3  1  0  0  0  0
  3 12  1  6  0  0  0
  4  5  1  0  0  0  0
  4  1  1  0  0  0  0
  6  5  1  0  0  0  0
  7  2  1  0  0  0  0
  7  6  2  0  0  0  0
  8 13  1  0  0  0  0
  9 10  1  0  0  0  0
  9 12  2  0  0  0  0
 10  8  2  0  0  0  0
 11 13  2  0  0  0  0
 12 11  1  0  0  0  0
 14 15  2  0  0  0  0
 15 18  1  0  0  0  0
 15 10  1  0  0  0  0
 16 19  1  6  0  0  0
 16 20  1  0  0  0  0
 16 14  1  0  0  0  0
 17 18  1  0  0  0  0
 20 17  1  0  0  0  0
 22 23  1  1  0  0  0
 22 21  1  0  0  0  0
 24 22  1  0  0  0  0
 24 25  1  0  0  0  0
 26 24  2  0  0  0  0
M  END
>  <MODEL>
8

>  <REMARK>
 VINA RESULT:      -6.6      1.701      2.134
  Name = 
  5 active torsions:
  status: ('A' for Active; 'I' for Inactive)
    1  A    between atoms: C_3  and  C_8
    2  A    between atoms: C_4  and  O_25
    3  A    between atoms: C_5  and  C_20
    4  A    between atoms: C_8  and  O_25
    5  A    between atoms: C_9  and  C_11
                            x       y       z     vdW  Elec       q    Type
                         _______ _______ _______ _____ _____    ______ ____

>  <TORSDO>
F 5

$$$$
=
 OpenBabel11072408483D

 26 28  0  0  1  0  0  0  0  0999 V2000
  186.3680  177.5150  145.7730 C   0  0  0  0  0  2  0  0  0  0  0  0
  187.4900  176.9190  143.5710 C   0  0  1  0  0  3  0  0  0  0  0  0
  187.7010  177.3960  145.0190 C   0  0  2  0  0  3  0  0  0  0  0  0
  185.2600  178.1730  144.9560 C   0  0  0  0  0  2  0  0  0  0  0  0
  185.8000  179.3910  144.2250 C   0  0  0  0  0  2  0  0  0  0  0  0
  186.3310  179.0510  142.9200 N   0  0  0  0  0  0  0  0  0  0  0  0
  187.0830  178.0360  142.6310 C   0  0  0  0  0  3  0  0  0  0  0  0
  190.4460  174.9540  147.1350 N   0  0  0  0  0  0  0  0  0  0  0  0
  189.9800  176.5830  145.5010 N   0  0  0  0  0  0  0  0  0  0  0  0
  190.8790  175.8020  146.1600 C   0  0  0  0  0  0  0  0  0  0  0  0
  188.1980  175.6660  146.7920 C   0  0  0  0  0  3  0  0  0  0  0  0
  188.6550  176.5370  145.7970 C   0  0  0  0  0  0  0  0  0  0  0  0
  189.1300  174.8740  147.4590 C   0  0  0  0  0  3  0  0  0  0  0  0
  193.1160  174.8350  146.0760 C   0  0  0  0  0  3  0  0  0  0  0  0
  192.3130  175.8800  145.8170 C   0  0  0  0  0  0  0  0  0  0  0  0
  194.5910  174.8420  145.7810 C   0  0  1  0  0  3  0  0  0  0  0  0
  194.3450  177.1900  145.0380 C   0  0  0  0  0  2  0  0  0  0  0  0
  192.8210  177.0850  145.0570 C   0  0  0  0  0  2  0  0  0  0  0  0
  195.0450  173.4520  145.3890 C   0  0  0  0  0  1  0  0  0  0  0  0
  194.9470  175.8380  144.6840 C   0  0  0  0  0  2  0  0  0  0  0  0
  188.6430  176.3100  143.0580 O   0  0  0  0  0  0  0  0  0  0  0  0
  188.2330  175.0450  142.6230 C   0  0  2  0  0  3  0  0  0  0  0  0
  188.9920  174.0200  143.3160 N   0  0  0  0  0  1  0  0  0  0  0  0
  188.4400  174.9160  141.1500 C   0  0  0  0  0  0  0  0  0  0  0  0
  189.3260  173.9660  140.6600 O   0  0  0  0  0  1  0  0  0  0  0  0
  187.8170  175.6630  140.3490 O   0  0  0  0  0  0  0  0  0  0  0  0
  2 21  1  6  0  0  0
  2  3  1  0  0  0  0
  3  1  1  0  0  0  0
  3 12  1  1  0  0  0
  4  1  1  0  0  0  0
  5  4  1  0  0  0  0
  6  5  1  0  0  0  0
  7  6  2  0  0  0  0
  7  2  1  0  0  0  0
  8 13  1  0  0  0  0
  9 12  2  0  0  0  0
  9 10  1  0  0  0  0
 10  8  2  0  0  0  0
 11 13  2  0  0  0  0
 12 11  1  0  0  0  0
 15 14  2  0  0  0  0
 15 10  1  0  0  0  0
 16 19  1  6  0  0  0
 16 14  1  0  0  0  0
 17 18  1  0  0  0  0
 18 15  1  0  0  0  0
 20 17  1  0  0  0  0
 20 16  1  0  0  0  0
 22 21  1  0  0  0  0
 22 23  1  1  0  0  0
 24 22  1  0  0  0  0
 25 24  1  0  0  0  0
 26 24  2  0  0  0  0
M  END
>  <MODEL>
9

>  <REMARK>
 VINA RESULT:      -6.4      2.206      5.965
  Name = 
  5 active torsions:
  status: ('A' for Active; 'I' for Inactive)
    1  A    between atoms: C_3  and  C_8
    2  A    between atoms: C_4  and  O_25
    3  A    between atoms: C_5  and  C_20
    4  A    between atoms: C_8  and  O_25
    5  A    between atoms: C_9  and  C_11
                            x       y       z     vdW  Elec       q    Type
                         _______ _______ _______ _____ _____    ______ ____

>  <TORSDO>
F 5

$$$$
