=
 OpenBabel11072408353D

 26 28  0  0  1  0  0  0  0  0999 V2000
  189.7520  176.4670  145.2960 C   0  0  2  0  0  3  0  0  0  0  0  0
  192.6370  176.2610  144.9500 C   0  0  1  0  0  3  0  0  0  0  0  0
  187.4680  176.1420  142.0750 C   0  0  0  0  0  0  0  0  0  0  0  0
  188.9930  176.0020  142.0730 C   0  0  0  0  0  2  0  0  0  0  0  0
  190.0000  175.3440  146.3260 C   0  0  2  0  0  3  0  0  0  0  0  0
  191.3120  175.4210  146.9730 N   0  0  0  0  0  0  0  0  0  0  0  0
  189.4320  175.2800  143.1910 O   0  0  0  0  0  0  0  0  0  0  0  0
  193.5980  175.0060  146.7550 O   0  0  0  0  0  0  0  0  0  0  0  0
  187.0790  176.7470  140.8790 O   0  0  0  0  0  1  0  0  0  0  0  0
  191.7330  175.6850  143.8910 C   0  0  0  0  0  0  0  0  0  0  0  0
  191.3460  175.1740  148.6960 Cl  0  0  0  0  0  0  0  0  0  0  0  0
  186.9540  176.9770  143.2270 C   0  0  0  0  0  0  0  0  0  0  0  0
  188.2740  176.9080  145.3170 C   0  0  2  0  0  3  0  0  0  0  0  0
  189.7090  173.9360  145.8230 C   0  0  0  0  0  1  0  0  0  0  0  0
  192.1810  174.6110  143.0340 S   0  0  0  0  0  0  0  0  0  0  0  0
  186.8960  174.8680  142.1350 O   0  0  0  0  0  1  0  0  0  0  0  0
  190.2910  176.1580  143.8740 C   0  0  2  0  0  3  0  0  0  0  0  0
  192.5570  175.5170  146.2570 C   0  0  0  0  0  0  0  0  0  0  0  0
  185.7520  177.0170  143.4470 O   0  0  0  0  0  0  0  0  0  0  0  0
  187.8720  177.7620  144.1150 C   0  0  0  0  0  2  0  0  0  0  0  0
  186.4840  178.0480  146.5240 O   0  0  0  0  0  0  0  0  0  0  0  0
  186.5880  176.8150  147.1960 C   0  0  0  0  0  2  0  0  0  0  0  0
  187.7870  177.5150  146.6530 C   0  0  1  0  0  3  0  0  0  0  0  0
  194.8450  177.4930  145.2750 N   0  0  0  0  0  1  0  0  0  0  0  0
  194.4600  176.1670  143.4090 O   0  0  0  0  0  0  0  0  0  0  0  0
  194.0210  176.6360  144.4910 C   0  0  0  0  0  0  0  0  0  0  0  0
  1 13  1  0  0  0  0
  1  5  1  0  0  0  0
  2 18  1  0  0  0  0
  3 16  1  0  0  0  0
  3 12  1  0  0  0  0
  4  3  1  0  0  0  0
  4  7  1  0  0  0  0
  5  6  1  0  0  0  0
  6 11  1  0  0  0  0
  7 17  1  0  0  0  0
  9  3  1  0  0  0  0
 10  2  1  0  0  0  0
 12 19  2  0  0  0  0
 12 20  1  0  0  0  0
 13 23  1  0  0  0  0
 14  5  1  0  0  0  0
 15 10  2  0  0  0  0
 17 10  1  0  0  0  0
 17  1  1  0  0  0  0
 18  8  2  0  0  0  0
 18  6  1  0  0  0  0
 20 13  1  0  0  0  0
 21 23  1  0  0  0  0
 21 22  1  0  0  0  0
 23 22  1  0  0  0  0
 25 26  2  0  0  0  0
 26  2  1  0  0  0  0
 26 24  1  0  0  0  0
M  END
>  <MODEL>
1

>  <REMARK>
 VINA RESULT:      -6.7      0.000      0.000
  Name = 
  2 active torsions:
  status: ('A' for Active; 'I' for Inactive)
    1  A    between atoms: C_2  and  C_22
    2  A    between atoms: C_13  and  C_18
                            x       y       z     vdW  Elec       q    Type
                         _______ _______ _______ _____ _____    ______ ____

>  <TORSDO>
F 2

$$$$
=
 OpenBabel11072408353D

 26 28  0  0  1  0  0  0  0  0999 V2000
  189.8240  174.2370  143.9340 C   0  0  2  0  0  3  0  0  0  0  0  0
  188.2940  176.4150  145.1160 C   0  0  1  0  0  3  0  0  0  0  0  0
  189.0400  173.2400  140.1800 C   0  0  0  0  0  0  0  0  0  0  0  0
  188.3680  174.3950  140.9290 C   0  0  0  0  0  2  0  0  0  0  0  0
  191.0210  175.0990  144.3930 C   0  0  2  0  0  3  0  0  0  0  0  0
  190.7490  175.8800  145.6020 N   0  0  0  0  0  0  0  0  0  0  0  0
  189.2950  175.0920  141.7130 O   0  0  0  0  0  0  0  0  0  0  0  0
  189.7180  177.7800  146.4810 O   0  0  0  0  0  0  0  0  0  0  0  0
  188.1050  172.6690  139.3160 O   0  0  0  0  0  1  0  0  0  0  0  0
  188.3820  176.3160  143.6150 C   0  0  0  0  0  0  0  0  0  0  0  0
  191.9980  175.8930  146.8150 Cl  0  0  0  0  0  0  0  0  0  0  0  0
  189.5640  172.1630  141.1040 C   0  0  0  0  0  0  0  0  0  0  0  0
  190.3140  172.8980  143.3440 C   0  0  2  0  0  3  0  0  0  0  0  0
  191.6470  175.9590  143.3030 C   0  0  0  0  0  1  0  0  0  0  0  0
  188.2210  177.4870  142.7820 S   0  0  0  0  0  0  0  0  0  0  0  0
  190.0960  173.7490  139.4180 O   0  0  0  0  0  1  0  0  0  0  0  0
  188.8110  174.9840  143.0280 C   0  0  2  0  0  3  0  0  0  0  0  0
  189.6130  176.7490  145.7610 C   0  0  0  0  0  0  0  0  0  0  0  0
  190.2780  171.2800  140.6510 O   0  0  0  0  0  0  0  0  0  0  0  0
  189.2370  172.1410  142.5670 C   0  0  0  0  0  2  0  0  0  0  0  0
  191.6070  170.8520  143.6680 O   0  0  0  0  0  0  0  0  0  0  0  0
  192.5240  171.8670  144.0010 C   0  0  0  0  0  2  0  0  0  0  0  0
  191.0750  171.9830  144.3300 C   0  0  1  0  0  3  0  0  0  0  0  0
  186.2730  176.5780  146.6610 N   0  0  0  0  0  1  0  0  0  0  0  0
  186.8310  178.3010  145.2120 O   0  0  0  0  0  0  0  0  0  0  0  0
  187.0950  177.1520  145.6510 C   0  0  0  0  0  0  0  0  0  0  0  0
  1  5  1  0  0  0  0
  2 26  1  0  0  0  0
  2 18  1  0  0  0  0
  3  4  1  0  0  0  0
  3 12  1  0  0  0  0
  4  7  1  0  0  0  0
  5  6  1  0  0  0  0
  6 18  1  0  0  0  0
  6 11  1  0  0  0  0
  7 17  1  0  0  0  0
  9  3  1  0  0  0  0
 10  2  1  0  0  0  0
 12 20  1  0  0  0  0
 13  1  1  0  0  0  0
 13 23  1  0  0  0  0
 14  5  1  0  0  0  0
 15 10  2  0  0  0  0
 16  3  1  0  0  0  0
 17 10  1  0  0  0  0
 17  1  1  0  0  0  0
 18  8  2  0  0  0  0
 19 12  2  0  0  0  0
 20 13  1  0  0  0  0
 21 22  1  0  0  0  0
 21 23  1  0  0  0  0
 22 23  1  0  0  0  0
 25 26  2  0  0  0  0
 26 24  1  0  0  0  0
M  END
>  <MODEL>
2

>  <REMARK>
 VINA RESULT:      -6.6      3.036      5.318
  Name = 
  2 active torsions:
  status: ('A' for Active; 'I' for Inactive)
    1  A    between atoms: C_2  and  C_22
    2  A    between atoms: C_13  and  C_18
                            x       y       z     vdW  Elec       q    Type
                         _______ _______ _______ _____ _____    ______ ____

>  <TORSDO>
F 2

$$$$
=
 OpenBabel11072408353D

 26 28  0  0  1  0  0  0  0  0999 V2000
  189.1560  177.1020  143.8190 C   0  0  2  0  0  3  0  0  0  0  0  0
  186.4860  178.2640  143.7480 C   0  0  1  0  0  3  0  0  0  0  0  0
  190.6900  176.1910  147.3570 C   0  0  0  0  0  0  0  0  0  0  0  0
  189.2820  176.7540  147.1420 C   0  0  0  0  0  2  0  0  0  0  0  0
  188.5220  176.0920  142.8390 C   0  0  2  0  0  3  0  0  0  0  0  0
  187.4680  176.6700  142.0020 N   0  0  0  0  0  0  0  0  0  0  0  0
  188.6750  176.1730  146.0210 O   0  0  0  0  0  0  0  0  0  0  0  0
  185.2410  177.3610  141.9070 O   0  0  0  0  0  0  0  0  0  0  0  0
  191.1920  176.7000  148.5550 O   0  0  0  0  0  1  0  0  0  0  0  0
  186.9080  177.4810  144.9640 C   0  0  0  0  0  0  0  0  0  0  0  0
  187.4980  176.2500  140.3120 Cl  0  0  0  0  0  0  0  0  0  0  0  0
  191.6460  176.5510  146.2420 C   0  0  0  0  0  0  0  0  0  0  0  0
  190.6640  176.8230  143.9880 C   0  0  2  0  0  3  0  0  0  0  0  0
  188.0740  174.7800  143.4700 C   0  0  0  0  0  1  0  0  0  0  0  0
  185.9290  176.8410  145.8140 S   0  0  0  0  0  0  0  0  0  0  0  0
  190.6090  174.7990  147.4640 O   0  0  0  0  0  1  0  0  0  0  0  0
  188.3950  177.2500  145.1630 C   0  0  2  0  0  3  0  0  0  0  0  0
  186.3440  177.4070  142.5180 C   0  0  0  0  0  0  0  0  0  0  0  0
  192.7450  176.0160  146.1990 O   0  0  0  0  0  0  0  0  0  0  0  0
  191.2910  177.5470  145.1790 C   0  0  0  0  0  2  0  0  0  0  0  0
  192.8790  176.7340  142.9630 O   0  0  0  0  0  0  0  0  0  0  0  0
  192.1820  175.7000  142.3090 C   0  0  0  0  0  2  0  0  0  0  0  0
  191.5090  176.9710  142.7020 C   0  0  1  0  0  3  0  0  0  0  0  0
  184.0380  178.8720  144.1190 N   0  0  0  0  0  1  0  0  0  0  0  0
  185.6930  180.4970  144.0520 O   0  0  0  0  0  0  0  0  0  0  0  0
  185.3950  179.2770  143.9720 C   0  0  0  0  0  0  0  0  0  0  0  0
  1 13  1  0  0  0  0
  1 17  1  0  0  0  0
  2 26  1  0  0  0  0
  2 10  1  0  0  0  0
  3 16  1  0  0  0  0
  3  9  1  0  0  0  0
  4  3  1  0  0  0  0
  5 14  1  0  0  0  0
  5  1  1  0  0  0  0
  6 18  1  0  0  0  0
  6  5  1  0  0  0  0
  7  4  1  0  0  0  0
  8 18  2  0  0  0  0
 10 17  1  0  0  0  0
 10 15  2  0  0  0  0
 11  6  1  0  0  0  0
 12  3  1  0  0  0  0
 13 20  1  0  0  0  0
 17  7  1  0  0  0  0
 18  2  1  0  0  0  0
 19 12  2  0  0  0  0
 20 12  1  0  0  0  0
 22 23  1  0  0  0  0
 22 21  1  0  0  0  0
 23 21  1  0  0  0  0
 23 13  1  0  0  0  0
 26 25  2  0  0  0  0
 26 24  1  0  0  0  0
M  END
>  <MODEL>
3

>  <REMARK>
 VINA RESULT:      -6.6      3.616      6.733
  Name = 
  2 active torsions:
  status: ('A' for Active; 'I' for Inactive)
    1  A    between atoms: C_2  and  C_22
    2  A    between atoms: C_13  and  C_18
                            x       y       z     vdW  Elec       q    Type
                         _______ _______ _______ _____ _____    ______ ____

>  <TORSDO>
F 2

$$$$
=
 OpenBabel11072408353D

 26 28  0  0  1  0  0  0  0  0999 V2000
  190.5290  176.2520  144.1830 C   0  0  2  0  0  3  0  0  0  0  0  0
  193.4020  175.8130  144.3630 C   0  0  1  0  0  3  0  0  0  0  0  0
  188.5680  174.5160  141.2100 C   0  0  0  0  0  0  0  0  0  0  0  0
  190.0650  174.3410  141.4790 C   0  0  0  0  0  2  0  0  0  0  0  0
  190.5640  175.7440  145.6410 C   0  0  2  0  0  3  0  0  0  0  0  0
  191.8050  176.0740  146.3460 N   0  0  0  0  0  0  0  0  0  0  0  0
  190.3180  174.2210  142.8520 O   0  0  0  0  0  0  0  0  0  0  0  0
  194.0530  175.5310  146.6550 O   0  0  0  0  0  0  0  0  0  0  0  0
  188.3600  174.4940  139.8300 O   0  0  0  0  0  1  0  0  0  0  0  0
  192.5630  174.8340  143.5830 C   0  0  0  0  0  0  0  0  0  0  0  0
  191.6380  176.6720  147.9730 Cl  0  0  0  0  0  0  0  0  0  0  0  0
  188.0160  175.8130  141.7600 C   0  0  0  0  0  0  0  0  0  0  0  0
  189.1030  176.6990  143.7980 C   0  0  2  0  0  3  0  0  0  0  0  0
  190.1980  174.2750  145.8170 C   0  0  0  0  0  1  0  0  0  0  0  0
  192.9950  173.4680  143.3940 S   0  0  0  0  0  0  0  0  0  0  0  0
  187.8770  173.4420  141.7800 O   0  0  0  0  0  1  0  0  0  0  0  0
  191.1800  175.2890  143.1560 C   0  0  2  0  0  3  0  0  0  0  0  0
  193.1210  175.7800  145.8420 C   0  0  0  0  0  0  0  0  0  0  0  0
  186.8070  175.9910  141.7740 O   0  0  0  0  0  0  0  0  0  0  0  0
  188.9070  176.8940  142.2950 C   0  0  0  0  0  2  0  0  0  0  0  0
  187.2320  178.2180  144.1950 O   0  0  0  0  0  0  0  0  0  0  0  0
  187.3310  177.5070  145.4070 C   0  0  0  0  0  2  0  0  0  0  0  0
  188.5390  177.8810  144.6190 C   0  0  1  0  0  3  0  0  0  0  0  0
  195.2450  176.3440  142.6840 N   0  0  0  0  0  1  0  0  0  0  0  0
  195.7340  175.5400  144.8050 O   0  0  0  0  0  0  0  0  0  0  0  0
  194.8550  175.8800  143.9720 C   0  0  0  0  0  0  0  0  0  0  0  0
  1  5  1  0  0  0  0
  2 18  1  0  0  0  0
  3  4  1  0  0  0  0
  3 12  1  0  0  0  0
  3 16  1  0  0  0  0
  4  7  1  0  0  0  0
  5 14  1  0  0  0  0
  5  6  1  0  0  0  0
  6 11  1  0  0  0  0
  7 17  1  0  0  0  0
  9  3  1  0  0  0  0
 10  2  1  0  0  0  0
 12 19  2  0  0  0  0
 12 20  1  0  0  0  0
 13  1  1  0  0  0  0
 13 23  1  0  0  0  0
 15 10  2  0  0  0  0
 17 10  1  0  0  0  0
 17  1  1  0  0  0  0
 18  6  1  0  0  0  0
 18  8  2  0  0  0  0
 20 13  1  0  0  0  0
 21 23  1  0  0  0  0
 21 22  1  0  0  0  0
 23 22  1  0  0  0  0
 24 26  1  0  0  0  0
 26  2  1  0  0  0  0
 26 25  2  0  0  0  0
M  END
>  <MODEL>
4

>  <REMARK>
 VINA RESULT:      -6.6      1.475      1.790
  Name = 
  2 active torsions:
  status: ('A' for Active; 'I' for Inactive)
    1  A    between atoms: C_2  and  C_22
    2  A    between atoms: C_13  and  C_18
                            x       y       z     vdW  Elec       q    Type
                         _______ _______ _______ _____ _____    ______ ____

>  <TORSDO>
F 2

$$$$
=
 OpenBabel11072408353D

 26 28  0  0  1  0  0  0  0  0999 V2000
  187.4570  176.3940  143.3640 C   0  0  2  0  0  3  0  0  0  0  0  0
  188.2200  174.3820  141.4010 C   0  0  1  0  0  3  0  0  0  0  0  0
  189.6770  176.7390  146.6280 C   0  0  0  0  0  0  0  0  0  0  0  0
  189.9730  175.7730  145.4770 C   0  0  0  0  0  2  0  0  0  0  0  0
  187.5320  177.3280  142.1360 C   0  0  2  0  0  3  0  0  0  0  0  0
  187.1890  176.6650  140.8750 N   0  0  0  0  0  0  0  0  0  0  0  0
  189.7330  176.3810  144.2370 O   0  0  0  0  0  0  0  0  0  0  0  0
  187.9270  175.2410  139.1800 O   0  0  0  0  0  0  0  0  0  0  0  0
  190.0590  176.1310  147.8250 O   0  0  0  0  0  1  0  0  0  0  0  0
  189.2540  174.8730  142.3820 C   0  0  0  0  0  0  0  0  0  0  0  0
  186.1380  177.5410  139.7980 Cl  0  0  0  0  0  0  0  0  0  0  0  0
  188.2140  177.1130  146.7230 C   0  0  0  0  0  0  0  0  0  0  0  0
  186.9450  177.1620  144.6000 C   0  0  2  0  0  3  0  0  0  0  0  0
  188.8250  178.1240  142.0130 C   0  0  0  0  0  1  0  0  0  0  0  0
  190.6630  174.8130  142.0680 S   0  0  0  0  0  0  0  0  0  0  0  0
  190.4390  177.8980  146.4540 O   0  0  0  0  0  1  0  0  0  0  0  0
  188.7520  175.5810  143.6260 C   0  0  2  0  0  3  0  0  0  0  0  0
  187.7930  175.4410  140.4190 C   0  0  0  0  0  0  0  0  0  0  0  0
  187.8730  178.0120  147.4790 O   0  0  0  0  0  0  0  0  0  0  0  0
  187.1590  176.4160  145.9170 C   0  0  0  0  0  2  0  0  0  0  0  0
  185.1150  178.3710  145.6730 O   0  0  0  0  0  0  0  0  0  0  0  0
  185.4730  179.2150  144.6030 C   0  0  0  0  0  2  0  0  0  0  0  0
  185.5130  177.7300  144.4770 C   0  0  1  0  0  3  0  0  0  0  0  0
  188.1910  172.7340  139.4560 N   0  0  0  0  0  1  0  0  0  0  0  0
  188.9430  172.1110  141.5610 O   0  0  0  0  0  0  0  0  0  0  0  0
  188.4670  173.0130  140.8250 C   0  0  0  0  0  0  0  0  0  0  0  0
  1 17  1  0  0  0  0
  1 13  1  0  0  0  0
  2 10  1  0  0  0  0
  3 12  1  0  0  0  0
  3  9  1  0  0  0  0
  4  3  1  0  0  0  0
  5  1  1  0  0  0  0
  6  5  1  0  0  0  0
  7  4  1  0  0  0  0
  8 18  2  0  0  0  0
 10 17  1  0  0  0  0
 11  6  1  0  0  0  0
 12 19  2  0  0  0  0
 13 20  1  0  0  0  0
 14  5  1  0  0  0  0
 15 10  2  0  0  0  0
 16  3  1  0  0  0  0
 17  7  1  0  0  0  0
 18  6  1  0  0  0  0
 18  2  1  0  0  0  0
 20 12  1  0  0  0  0
 22 21  1  0  0  0  0
 23 13  1  0  0  0  0
 23 22  1  0  0  0  0
 23 21  1  0  0  0  0
 24 26  1  0  0  0  0
 26  2  1  0  0  0  0
 26 25  2  0  0  0  0
M  END
>  <MODEL>
5

>  <REMARK>
 VINA RESULT:      -6.4      3.779      5.722
  Name = 
  2 active torsions:
  status: ('A' for Active; 'I' for Inactive)
    1  A    between atoms: C_2  and  C_22
    2  A    between atoms: C_13  and  C_18
                            x       y       z     vdW  Elec       q    Type
                         _______ _______ _______ _____ _____    ______ ____

>  <TORSDO>
F 2

$$$$
=
 OpenBabel11072408353D

 26 28  0  0  1  0  0  0  0  0999 V2000
  188.5790  174.8820  143.2310 C   0  0  2  0  0  3  0  0  0  0  0  0
  186.4990  176.9190  143.3080 C   0  0  1  0  0  3  0  0  0  0  0  0
  189.2870  173.0800  139.7740 C   0  0  0  0  0  0  0  0  0  0  0  0
  188.2700  174.2080  139.9710 C   0  0  0  0  0  2  0  0  0  0  0  0
  189.4330  176.0190  143.8320 C   0  0  2  0  0  3  0  0  0  0  0  0
  188.6670  176.9470  144.6680 N   0  0  0  0  0  0  0  0  0  0  0  0
  188.7780  175.1980  140.8230 O   0  0  0  0  0  0  0  0  0  0  0  0
  187.1890  178.7530  144.6920 O   0  0  0  0  0  0  0  0  0  0  0  0
  188.7870  172.1950  138.8180 O   0  0  0  0  0  1  0  0  0  0  0  0
  187.1220  176.5620  141.9830 C   0  0  0  0  0  0  0  0  0  0  0  0
  189.3960  177.4150  146.1780 Cl  0  0  0  0  0  0  0  0  0  0  0  0
  189.5650  172.3080  141.0450 C   0  0  0  0  0  0  0  0  0  0  0  0
  189.3890  173.5700  143.1660 C   0  0  2  0  0  3  0  0  0  0  0  0
  190.3050  176.7640  142.8290 C   0  0  0  0  0  1  0  0  0  0  0  0
  187.1390  177.5080  140.8900 S   0  0  0  0  0  0  0  0  0  0  0  0
  190.4820  173.6250  139.2940 O   0  0  0  0  0  1  0  0  0  0  0  0
  187.8750  175.2480  141.8980 C   0  0  2  0  0  3  0  0  0  0  0  0
  187.4600  177.6050  144.2430 C   0  0  0  0  0  0  0  0  0  0  0  0
  190.4870  171.5040  141.0680 O   0  0  0  0  0  0  0  0  0  0  0  0
  188.7470  172.4970  142.2870 C   0  0  0  0  0  2  0  0  0  0  0  0
  190.5570  171.7970  144.3710 O   0  0  0  0  0  0  0  0  0  0  0  0
  191.3330  172.9390  144.6500 C   0  0  0  0  0  2  0  0  0  0  0  0
  189.8490  173.0100  144.5310 C   0  0  1  0  0  3  0  0  0  0  0  0
  184.4750  177.7280  141.9860 N   0  0  0  0  0  1  0  0  0  0  0  0
  184.5100  177.7900  144.3050 O   0  0  0  0  0  0  0  0  0  0  0  0
  185.1150  177.5080  143.2390 C   0  0  0  0  0  0  0  0  0  0  0  0
  1  5  1  0  0  0  0
  2 18  1  0  0  0  0
  3  4  1  0  0  0  0
  3 12  1  0  0  0  0
  4  7  1  0  0  0  0
  5  6  1  0  0  0  0
  6 11  1  0  0  0  0
  7 17  1  0  0  0  0
  9  3  1  0  0  0  0
 10  2  1  0  0  0  0
 12 19  2  0  0  0  0
 12 20  1  0  0  0  0
 13  1  1  0  0  0  0
 13 23  1  0  0  0  0
 14  5  1  0  0  0  0
 15 10  2  0  0  0  0
 16  3  1  0  0  0  0
 17 10  1  0  0  0  0
 17  1  1  0  0  0  0
 18  6  1  0  0  0  0
 18  8  2  0  0  0  0
 20 13  1  0  0  0  0
 21 23  1  0  0  0  0
 21 22  1  0  0  0  0
 23 22  1  0  0  0  0
 24 26  1  0  0  0  0
 26  2  1  0  0  0  0
 26 25  2  0  0  0  0
M  END
>  <MODEL>
6

>  <REMARK>
 VINA RESULT:      -6.3      3.441      5.983
  Name = 
  2 active torsions:
  status: ('A' for Active; 'I' for Inactive)
    1  A    between atoms: C_2  and  C_22
    2  A    between atoms: C_13  and  C_18
                            x       y       z     vdW  Elec       q    Type
                         _______ _______ _______ _____ _____    ______ ____

>  <TORSDO>
F 2

$$$$
=
 OpenBabel11072408353D

 26 28  0  0  1  0  0  0  0  0999 V2000
  191.5590  176.1430  143.6570 C   0  0  2  0  0  3  0  0  0  0  0  0
  194.3580  175.9040  142.8890 C   0  0  1  0  0  3  0  0  0  0  0  0
  188.8740  174.1480  141.5320 C   0  0  0  0  0  0  0  0  0  0  0  0
  190.3860  174.0860  141.2960 C   0  0  0  0  0  2  0  0  0  0  0  0
  192.1080  175.7040  145.0310 C   0  0  2  0  0  3  0  0  0  0  0  0
  193.4820  176.1480  145.2810 N   0  0  0  0  0  0  0  0  0  0  0  0
  191.0820  174.0450  142.5110 O   0  0  0  0  0  0  0  0  0  0  0  0
  195.7420  175.7690  144.8440 O   0  0  0  0  0  0  0  0  0  0  0  0
  188.2290  174.0510  140.2980 O   0  0  0  0  0  1  0  0  0  0  0  0
  193.3880  174.8370  142.4500 C   0  0  0  0  0  0  0  0  0  0  0  0
  193.8110  176.8050  146.8600 Cl  0  0  0  0  0  0  0  0  0  0  0  0
  188.4340  175.4290  142.2060 C   0  0  0  0  0  0  0  0  0  0  0  0
  190.0560  176.4770  143.7540 C   0  0  2  0  0  3  0  0  0  0  0  0
  191.9350  174.2240  145.3480 C   0  0  0  0  0  1  0  0  0  0  0  0
  193.8390  173.4960  142.1570 S   0  0  0  0  0  0  0  0  0  0  0  0
  188.4930  173.0570  142.3200 O   0  0  0  0  0  1  0  0  0  0  0  0
  191.9100  175.1800  142.4920 C   0  0  2  0  0  3  0  0  0  0  0  0
  194.5790  175.9190  144.3790 C   0  0  0  0  0  0  0  0  0  0  0  0
  187.2860  175.5280  142.6140 O   0  0  0  0  0  0  0  0  0  0  0  0
  189.3640  176.5900  142.3950 C   0  0  0  0  0  2  0  0  0  0  0  0
  188.3130  177.9240  144.6660 O   0  0  0  0  0  0  0  0  0  0  0  0
  188.7970  177.2490  145.8030 C   0  0  0  0  0  2  0  0  0  0  0  0
  189.7010  177.6540  144.6900 C   0  0  1  0  0  3  0  0  0  0  0  0
  196.6650  175.1180  142.1410 N   0  0  0  0  0  1  0  0  0  0  0  0
  195.6670  176.9970  141.2160 O   0  0  0  0  0  0  0  0  0  0  0  0
  195.5930  176.0500  142.0400 C   0  0  0  0  0  0  0  0  0  0  0  0
  1 13  1  0  0  0  0
  1  5  1  0  0  0  0
  2 18  1  0  0  0  0
  3 12  1  0  0  0  0
  3 16  1  0  0  0  0
  4  3  1  0  0  0  0
  4  7  1  0  0  0  0
  5  6  1  0  0  0  0
  5 14  1  0  0  0  0
  6 11  1  0  0  0  0
  9  3  1  0  0  0  0
 10 17  1  0  0  0  0
 10  2  1  0  0  0  0
 12 20  1  0  0  0  0
 12 19  2  0  0  0  0
 13 23  1  0  0  0  0
 15 10  2  0  0  0  0
 17  7  1  0  0  0  0
 17  1  1  0  0  0  0
 18  8  2  0  0  0  0
 18  6  1  0  0  0  0
 20 13  1  0  0  0  0
 21 23  1  0  0  0  0
 21 22  1  0  0  0  0
 23 22  1  0  0  0  0
 25 26  2  0  0  0  0
 26 24  1  0  0  0  0
 26  2  1  0  0  0  0
M  END
>  <MODEL>
7

>  <REMARK>
 VINA RESULT:      -6.3      2.079      2.694
  Name = 
  2 active torsions:
  status: ('A' for Active; 'I' for Inactive)
    1  A    between atoms: C_2  and  C_22
    2  A    between atoms: C_13  and  C_18
                            x       y       z     vdW  Elec       q    Type
                         _______ _______ _______ _____ _____    ______ ____

>  <TORSDO>
F 2

$$$$
=
 OpenBabel11072408353D

 26 28  0  0  1  0  0  0  0  0999 V2000
  188.7550  175.5880  143.9590 C   0  0  2  0  0  3  0  0  0  0  0  0
  188.8930  174.0140  141.5120 C   0  0  1  0  0  3  0  0  0  0  0  0
  191.9050  175.5650  146.3620 C   0  0  0  0  0  0  0  0  0  0  0  0
  191.8370  174.8390  145.0150 C   0  0  0  0  0  2  0  0  0  0  0  0
  188.3990  176.7190  142.9710 C   0  0  2  0  0  3  0  0  0  0  0  0
  187.6840  176.2540  141.7800 N   0  0  0  0  0  0  0  0  0  0  0  0
  191.1900  175.6260  144.0530 O   0  0  0  0  0  0  0  0  0  0  0  0
  187.8700  175.2100  139.7020 O   0  0  0  0  0  0  0  0  0  0  0  0
  192.6730  174.7980  147.2400 O   0  0  0  0  0  1  0  0  0  0  0  0
  190.1760  174.4200  142.1920 C   0  0  0  0  0  0  0  0  0  0  0  0
  186.3150  177.2040  141.2750 Cl  0  0  0  0  0  0  0  0  0  0  0  0
  190.5430  175.7860  146.9820 C   0  0  0  0  0  0  0  0  0  0  0  0
  188.6510  176.0850  145.4160 C   0  0  2  0  0  3  0  0  0  0  0  0
  189.5590  177.6350  142.6010 C   0  0  0  0  0  1  0  0  0  0  0  0
  191.4080  174.5390  141.4460 S   0  0  0  0  0  0  0  0  0  0  0  0
  192.5370  176.7990  146.1810 O   0  0  0  0  0  1  0  0  0  0  0  0
  190.0870  174.8590  143.6420 C   0  0  2  0  0  3  0  0  0  0  0  0
  188.1400  175.1830  140.9340 C   0  0  0  0  0  0  0  0  0  0  0  0
  190.4420  176.5100  147.9630 O   0  0  0  0  0  0  0  0  0  0  0  0
  189.3030  175.1470  146.4320 C   0  0  0  0  0  2  0  0  0  0  0  0
  187.1060  176.4770  147.2660 O   0  0  0  0  0  0  0  0  0  0  0  0
  187.2740  177.7600  146.7110 C   0  0  0  0  0  2  0  0  0  0  0  0
  187.2420  176.5380  145.8590 C   0  0  1  0  0  3  0  0  0  0  0  0
  189.9180  171.7570  140.9160 N   0  0  0  0  0  1  0  0  0  0  0  0
  188.1920  172.6730  139.6640 O   0  0  0  0  0  0  0  0  0  0  0  0
  188.9780  172.7910  140.6390 C   0  0  0  0  0  0  0  0  0  0  0  0
  1 13  1  0  0  0  0
  2 10  1  0  0  0  0
  3 12  1  0  0  0  0
  3  9  1  0  0  0  0
  4  3  1  0  0  0  0
  5  1  1  0  0  0  0
  6  5  1  0  0  0  0
  7  4  1  0  0  0  0
  8 18  2  0  0  0  0
 10 17  1  0  0  0  0
 11  6  1  0  0  0  0
 12 19  2  0  0  0  0
 13 23  1  0  0  0  0
 13 20  1  0  0  0  0
 14  5  1  0  0  0  0
 15 10  2  0  0  0  0
 16  3  1  0  0  0  0
 17  1  1  0  0  0  0
 17  7  1  0  0  0  0
 18  2  1  0  0  0  0
 18  6  1  0  0  0  0
 20 12  1  0  0  0  0
 22 21  1  0  0  0  0
 23 22  1  0  0  0  0
 23 21  1  0  0  0  0
 25 26  2  0  0  0  0
 26 24  1  0  0  0  0
 26  2  1  0  0  0  0
M  END
>  <MODEL>
8

>  <REMARK>
 VINA RESULT:      -6.2      3.233      5.615
  Name = 
  2 active torsions:
  status: ('A' for Active; 'I' for Inactive)
    1  A    between atoms: C_2  and  C_22
    2  A    between atoms: C_13  and  C_18
                            x       y       z     vdW  Elec       q    Type
                         _______ _______ _______ _____ _____    ______ ____

>  <TORSDO>
F 2

$$$$
=
 OpenBabel11072408353D

 26 28  0  0  1  0  0  0  0  0999 V2000
  190.5600  175.4090  143.9930 C   0  0  2  0  0  3  0  0  0  0  0  0
  193.0150  175.9760  145.4550 C   0  0  1  0  0  3  0  0  0  0  0  0
  190.4630  172.1710  141.7110 C   0  0  0  0  0  0  0  0  0  0  0  0
  191.6520  172.5800  142.5850 C   0  0  0  0  0  2  0  0  0  0  0  0
  189.9350  175.5230  145.4010 C   0  0  2  0  0  3  0  0  0  0  0  0
  190.6410  176.4580  146.2800 N   0  0  0  0  0  0  0  0  0  0  0  0
  191.2200  173.0680  143.8250 O   0  0  0  0  0  0  0  0  0  0  0  0
  192.4990  176.7900  147.6510 O   0  0  0  0  0  0  0  0  0  0  0  0
  190.9520  171.5700  140.5510 O   0  0  0  0  0  1  0  0  0  0  0  0
  192.7570  174.5690  144.9790 C   0  0  0  0  0  0  0  0  0  0  0  0
  189.6500  177.5410  147.2180 Cl  0  0  0  0  0  0  0  0  0  0  0  0
  189.5900  173.3420  141.3160 C   0  0  0  0  0  0  0  0  0  0  0  0
  189.4620  175.2170  142.9260 C   0  0  2  0  0  3  0  0  0  0  0  0
  189.6750  174.1930  146.0970 C   0  0  0  0  0  1  0  0  0  0  0  0
  193.3590  173.4360  145.6460 S   0  0  0  0  0  0  0  0  0  0  0  0
  189.6910  171.2340  142.4060 O   0  0  0  0  0  1  0  0  0  0  0  0
  191.7170  174.3810  143.8900 C   0  0  2  0  0  3  0  0  0  0  0  0
  192.0570  176.4160  146.5310 C   0  0  0  0  0  0  0  0  0  0  0  0
  188.5140  173.1320  140.7750 O   0  0  0  0  0  0  0  0  0  0  0  0
  190.0010  174.7620  141.5690 C   0  0  0  0  0  2  0  0  0  0  0  0
  187.7050  176.2770  141.6030 O   0  0  0  0  0  0  0  0  0  0  0  0
  187.0410  175.9250  142.7940 C   0  0  0  0  0  2  0  0  0  0  0  0
  188.4590  176.3850  142.7950 C   0  0  1  0  0  3  0  0  0  0  0  0
  194.9410  177.6440  145.3880 N   0  0  0  0  0  1  0  0  0  0  0  0
  195.2470  175.4690  146.1370 O   0  0  0  0  0  0  0  0  0  0  0  0
  194.4600  176.3340  145.6740 C   0  0  0  0  0  0  0  0  0  0  0  0
  1  5  1  0  0  0  0
  2 26  1  0  0  0  0
  2 18  1  0  0  0  0
  3 16  1  0  0  0  0
  3  4  1  0  0  0  0
  4  7  1  0  0  0  0
  5 14  1  0  0  0  0
  5  6  1  0  0  0  0
  6 18  1  0  0  0  0
  6 11  1  0  0  0  0
  7 17  1  0  0  0  0
  9  3  1  0  0  0  0
 10  2  1  0  0  0  0
 10 15  2  0  0  0  0
 12 20  1  0  0  0  0
 12  3  1  0  0  0  0
 13  1  1  0  0  0  0
 17  1  1  0  0  0  0
 17 10  1  0  0  0  0
 18  8  2  0  0  0  0
 19 12  2  0  0  0  0
 20 13  1  0  0  0  0
 21 22  1  0  0  0  0
 21 23  1  0  0  0  0
 22 23  1  0  0  0  0
 23 13  1  0  0  0  0
 24 26  1  0  0  0  0
 26 25  2  0  0  0  0
M  END
>  <MODEL>
9

>  <REMARK>
 VINA RESULT:      -6.2      2.318      3.494
  Name = 
  2 active torsions:
  status: ('A' for Active; 'I' for Inactive)
    1  A    between atoms: C_2  and  C_22
    2  A    between atoms: C_13  and  C_18
                            x       y       z     vdW  Elec       q    Type
                         _______ _______ _______ _____ _____    ______ ____

>  <TORSDO>
F 2

$$$$
