=
 OpenBabel11072409443D

 59 65  0  0  1  0  0  0  0  0999 V2000
  192.2500  174.6810  145.1890 C   0  0  0  0  0  0  0  0  0  0  0  0
  193.4930  176.7240  145.6150 C   0  0  0  0  0  3  0  0  0  0  0  0
  191.5320  176.2980  147.0600 C   0  0  0  0  0  2  0  0  0  0  0  0
  191.1190  173.7110  145.4270 C   0  0  0  0  0  2  0  0  0  0  0  0
  189.6190  174.9040  147.0930 C   0  0  0  0  0  2  0  0  0  0  0  0
  194.1330  175.2930  143.7700 C   0  0  0  0  0  0  0  0  0  0  0  0
  194.3260  176.4480  144.5280 C   0  0  0  0  0  3  0  0  0  0  0  0
  190.9060  175.1700  147.7330 N   0  0  0  0  0  2  0  0  0  0  0  0
  193.1030  174.4080  144.1130 C   0  0  0  0  0  3  0  0  0  0  0  0
  192.4570  175.8510  145.9630 C   0  0  0  0  0  0  0  0  0  0  0  0
  189.7550  174.3910  145.6480 C   0  0  1  0  0  3  0  0  0  0  0  0
  187.7360  176.4730  146.3470 C   0  0  0  0  0  2  0  0  0  0  0  0
  186.2950  178.3230  145.6380 N   0  0  0  0  0  0  0  0  0  0  0  0
  188.2820  176.4120  144.9350 C   0  0  0  0  0  0  0  0  0  0  0  0
  189.2970  174.9520  143.2650 N   0  0  0  0  0  2  0  0  0  0  0  0
  185.2390  178.7420  148.2670 C   0  0  0  0  0  1  0  0  0  0  0  0
  186.7610  178.2030  144.2930 C   0  0  0  0  0  0  0  0  0  0  0  0
  190.6070  176.7130  142.4070 O   0  0  0  0  0  1  0  0  0  0  0  0
  186.2180  177.7210  147.9230 N   0  0  0  0  0  2  0  0  0  0  0  0
  189.3770  176.0560  142.3090 C   0  0  2  0  0  3  0  0  0  0  0  0
  188.2140  177.0400  142.5050 C   0  0  2  0  0  3  0  0  0  0  0  0
  189.4480  175.4990  144.6140 C   0  0  2  0  0  3  0  0  0  0  0  0
  186.7240  177.5590  146.5970 C   0  0  0  0  0  0  0  0  0  0  0  0
  187.7840  177.1960  143.9540 C   0  0  0  0  0  0  0  0  0  0  0  0
  186.3040  178.9750  143.4090 O   0  0  0  0  0  0  0  0  0  0  0  0
  187.1270  176.6200  141.7320 O   0  0  0  0  0  0  0  0  0  0  0  0
  187.1250  177.4700  140.6190 C   0  0  0  0  0  2  0  0  0  0  0  0
  185.7470  177.4940  139.9770 C   0  0  0  0  0  2  0  0  0  0  0  0
  184.9670  178.7010  140.4480 C   0  0  0  0  0  2  0  0  0  0  0  0
  182.4660  178.3750  140.4730 N   0  0  0  0  0  2  0  0  0  0  0  0
  183.7910  177.7840  142.3050 O   0  0  0  0  0  0  0  0  0  0  0  0
  183.7250  178.2660  141.1410 C   0  0  0  0  0  0  0  0  0  0  0  0
  180.8740  179.0680  141.9940 C   0  0  0  0  0  2  0  0  0  0  0  0
  179.1800  178.9640  140.3410 C   0  0  0  0  0  2  0  0  0  0  0  0
  179.4070  179.3470  141.7760 C   0  0  0  0  0  2  0  0  0  0  0  0
  181.2660  177.9900  141.0910 N   0  0  0  0  0  0  0  0  0  0  0  0
  180.2540  177.9340  140.0390 C   0  0  0  0  0  2  0  0  0  0  0  0
  195.0320  175.0280  142.5960 C   0  0  2  0  0  3  0  0  0  0  0  0
  197.0930  175.9210  143.4000 O   0  0  0  0  0  0  0  0  0  0  0  0
  196.4740  174.9010  143.0060 C   0  0  0  0  0  0  0  0  0  0  0  0
  197.8180  173.2780  141.9530 O   0  0  0  0  0  0  0  0  0  0  0  0
  197.0110  172.5860  144.0080 N   0  0  0  0  0  2  0  0  0  0  0  0
  197.1260  173.5720  142.9650 C   0  0  0  0  0  0  0  0  0  0  0  0
  196.8870  173.5210  146.2900 C   0  0  0  0  0  1  0  0  0  0  0  0
  195.9310  171.2440  145.7780 C   0  0  0  0  0  1  0  0  0  0  0  0
  196.2320  172.6340  145.2440 C   0  0  0  0  0  3  0  0  0  0  0  0
  194.8510  176.0530  141.4780 C   0  0  0  0  0  2  0  0  0  0  0  0
  195.5730  175.6280  140.2390 C   0  0  0  0  0  0  0  0  0  0  0  0
  194.9330  174.8040  139.2630 N   0  0  0  0  0  2  0  0  0  0  0  0
  196.7670  175.9880  140.0590 O   0  0  0  0  0  0  0  0  0  0  0  0
  193.5340  174.4140  139.3550 C   0  0  0  0  0  2  0  0  0  0  0  0
  191.5580  173.6850  141.5000 F   0  0  0  0  0  0  0  0  0  0  0  0
  191.0380  173.0900  140.3600 C   0  0  2  0  0  3  0  0  0  0  0  0
  191.9470  170.8720  139.7920 C   0  0  0  0  0  2  0  0  0  0  0  0
  193.3890  172.9400  139.0240 C   0  0  2  0  0  3  0  0  0  0  0  0
  190.0600  172.0750  140.7500 N   0  0  0  0  0  2  0  0  0  0  0  0
  192.1510  172.7210  138.1650 C   0  0  0  0  0  2  0  0  0  0  0  0
  192.1230  172.3430  139.6330 C   0  0  2  0  0  0  0  0  0  0  0  0
  190.7440  170.7770  140.7270 C   0  0  0  0  0  2  0  0  0  0  0  0
  1  4  1  0  0  0  0
  1 10  1  0  0  0  0
  2 10  2  0  0  0  0
  3  8  1  0  0  0  0
  5  8  1  0  0  0  0
  6  9  1  0  0  0  0
  6  7  2  0  0  0  0
  7  2  1  0  0  0  0
  9  1  2  0  0  0  0
 10  3  1  0  0  0  0
 11  4  1  6  0  0  0
 11  5  1  0  0  0  0
 12 23  1  0  0  0  0
 13 23  2  0  0  0  0
 14 12  1  0  0  0  0
 17 13  1  0  0  0  0
 19 16  1  0  0  0  0
 20 18  1  1  0  0  0
 20 21  1  0  0  0  0
 20 15  1  0  0  0  0
 21 26  1  6  0  0  0
 21 24  1  0  0  0  0
 22 15  1  6  0  0  0
 22 14  1  0  0  0  0
 22 11  1  0  0  0  0
 23 19  1  0  0  0  0
 24 17  1  0  0  0  0
 24 14  2  0  0  0  0
 25 17  2  0  0  0  0
 27 26  1  0  0  0  0
 28 29  1  0  0  0  0
 28 27  1  0  0  0  0
 29 32  1  0  0  0  0
 30 36  1  0  0  0  0
 30 32  1  0  0  0  0
 32 31  2  0  0  0  0
 34 35  1  0  0  0  0
 35 33  1  0  0  0  0
 36 33  1  0  0  0  0
 37 34  1  0  0  0  0
 37 36  1  0  0  0  0
 38 47  1  6  0  0  0
 38 40  1  0  0  0  0
 38  6  1  0  0  0  0
 40 39  2  0  0  0  0
 41 43  2  0  0  0  0
 42 46  1  0  0  0  0
 43 40  1  0  0  0  0
 43 42  1  0  0  0  0
 46 45  1  0  0  0  0
 46 44  1  0  0  0  0
 48 47  1  0  0  0  0
 49 51  1  0  0  0  0
 49 48  1  0  0  0  0
 50 48  2  0  0  0  0
 53 56  1  0  0  0  0
 53 52  1  1  0  0  0
 54 59  1  0  0  0  0
 55 51  1  1  0  0  0
 55 58  1  0  0  0  0
 57 55  1  0  0  0  0
 58 57  1  6  0  0  0
 58 54  1  0  0  0  0
 58 53  1  0  0  0  0
 59 56  1  0  0  0  0
M  END
>  <MODEL>
1

>  <REMARK>
 VINA RESULT:      -8.2      0.000      0.000
  Name = 
  15 active torsions:
  status: ('A' for Active; 'I' for Inactive)
    1  A    between atoms: C_6  and  C_34
    2  A    between atoms: C_12  and  C_18
    3  A    between atoms: C_12  and  C_32
    4  A    between atoms: C_18  and  C_57
    5  A    between atoms: O_21  and  C_32
    6  A    between atoms: O_21  and  C_39
    7  A    between atoms: N_24  and  C_28
    8  A    between atoms: N_26  and  N_29
    9  A    between atoms: N_27  and  C_40
   10  A    between atoms: C_34  and  C_47
   11  A    between atoms: C_35  and  C_47
   12  A    between atoms: C_40  and  C_43
   13  A    between atoms: C_45  and  C_49
   14  A    between atoms: C_47  and  C_49
   15  A    between atoms: C_51  and  C_56
                            x       y       z     vdW  Elec       q    Type
                         _______ _______ _______ _____ _____    ______ ____

>  <TORSDO>
F 15

$$$$
=
 OpenBabel11072409443D

 59 65  0  0  1  0  0  0  0  0999 V2000
  192.4920  174.8370  145.6350 C   0  0  0  0  0  0  0  0  0  0  0  0
  193.9290  176.7480  146.0660 C   0  0  0  0  0  3  0  0  0  0  0  0
  191.8570  176.5950  147.4080 C   0  0  0  0  0  2  0  0  0  0  0  0
  191.2500  174.0060  145.8380 C   0  0  0  0  0  2  0  0  0  0  0  0
  189.8020  175.4190  147.3740 C   0  0  0  0  0  2  0  0  0  0  0  0
  194.5050  175.1850  144.3090 C   0  0  0  0  0  0  0  0  0  0  0  0
  194.7850  176.3410  145.0390 C   0  0  0  0  0  3  0  0  0  0  0  0
  191.0750  175.5690  148.0790 N   0  0  0  0  0  2  0  0  0  0  0  0
  193.3660  174.4320  144.6200 C   0  0  0  0  0  3  0  0  0  0  0  0
  192.7860  176.0070  146.3810 C   0  0  0  0  0  0  0  0  0  0  0  0
  189.9590  174.8390  145.9570 C   0  0  1  0  0  3  0  0  0  0  0  0
  187.4840  176.5030  145.8890 C   0  0  0  0  0  2  0  0  0  0  0  0
  186.0680  178.1150  144.7060 N   0  0  0  0  0  0  0  0  0  0  0  0
  188.4840  176.6140  144.7570 C   0  0  0  0  0  0  0  0  0  0  0  0
  190.2580  175.4430  143.5600 N   0  0  0  0  0  2  0  0  0  0  0  0
  184.1140  178.2010  146.7980 C   0  0  0  0  0  1  0  0  0  0  0  0
  186.9820  178.1490  143.6100 C   0  0  0  0  0  0  0  0  0  0  0  0
  191.4440  177.4470  143.1970 O   0  0  0  0  0  1  0  0  0  0  0  0
  185.3180  177.3840  146.8260 N   0  0  0  0  0  2  0  0  0  0  0  0
  190.4620  176.5950  142.6820 C   0  0  2  0  0  3  0  0  0  0  0  0
  189.1470  177.3530  142.4510 C   0  0  2  0  0  3  0  0  0  0  0  0
  189.8340  175.9330  144.8710 C   0  0  2  0  0  3  0  0  0  0  0  0
  186.2700  177.3840  145.7620 C   0  0  0  0  0  0  0  0  0  0  0  0
  188.2220  177.3530  143.6580 C   0  0  0  0  0  0  0  0  0  0  0  0
  186.7280  178.8790  142.6150 O   0  0  0  0  0  0  0  0  0  0  0  0
  188.4870  176.7960  141.3510 O   0  0  0  0  0  0  0  0  0  0  0  0
  187.9790  175.5760  141.8150 C   0  0  0  0  0  2  0  0  0  0  0  0
  188.4700  174.4340  140.9410 C   0  0  0  0  0  2  0  0  0  0  0  0
  187.8360  173.1300  141.3710 C   0  0  0  0  0  2  0  0  0  0  0  0
  189.9460  171.7530  141.4880 N   0  0  0  0  0  2  0  0  0  0  0  0
  188.6460  172.1550  143.3870 O   0  0  0  0  0  0  0  0  0  0  0  0
  188.8120  172.3190  142.1480 C   0  0  0  0  0  0  0  0  0  0  0  0
  191.6030  170.1750  141.1830 C   0  0  0  0  0  2  0  0  0  0  0  0
  193.2200  171.6180  142.1400 C   0  0  0  0  0  2  0  0  0  0  0  0
  193.0780  170.2730  141.4840 C   0  0  0  0  0  2  0  0  0  0  0  0
  190.8870  170.9710  142.1760 N   0  0  0  0  0  0  0  0  0  0  0  0
  191.8590  171.8970  142.7520 C   0  0  0  0  0  2  0  0  0  0  0  0
  195.4320  174.7780  143.1990 C   0  0  2  0  0  3  0  0  0  0  0  0
  197.3980  174.3750  144.4900 O   0  0  0  0  0  0  0  0  0  0  0  0
  196.5510  173.9010  143.6900 C   0  0  0  0  0  0  0  0  0  0  0  0
  196.8700  172.2590  142.0310 O   0  0  0  0  0  0  0  0  0  0  0  0
  196.4010  171.3610  144.1120 N   0  0  0  0  0  2  0  0  0  0  0  0
  196.6170  172.4900  143.2440 C   0  0  0  0  0  0  0  0  0  0  0  0
  196.6780  170.1750  146.2600 C   0  0  0  0  0  1  0  0  0  0  0  0
  194.5260  171.3740  145.7190 C   0  0  0  0  0  1  0  0  0  0  0  0
  196.0330  171.3400  145.5260 C   0  0  0  0  0  3  0  0  0  0  0  0
  195.9570  175.9750  142.4080 C   0  0  0  0  0  2  0  0  0  0  0  0
  196.7060  175.5270  141.1930 C   0  0  0  0  0  0  0  0  0  0  0  0
  196.0380  175.3520  139.9430 N   0  0  0  0  0  2  0  0  0  0  0  0
  197.9410  175.2880  141.2750 O   0  0  0  0  0  0  0  0  0  0  0  0
  194.6360  175.6850  139.7450 C   0  0  0  0  0  2  0  0  0  0  0  0
  192.9890  175.8560  137.2360 F   0  0  0  0  0  0  0  0  0  0  0  0
  193.3680  174.5220  137.2880 C   0  0  2  0  0  3  0  0  0  0  0  0
  191.9540  173.0540  138.6720 C   0  0  0  0  0  2  0  0  0  0  0  0
  193.7790  174.4510  139.9640 C   0  0  2  0  0  3  0  0  0  0  0  0
  192.5040  173.7420  136.4030 N   0  0  0  0  0  2  0  0  0  0  0  0
  194.3600  173.2720  139.1970 C   0  0  0  0  0  2  0  0  0  0  0  0
  193.1250  173.9760  138.6690 C   0  0  2  0  0  0  0  0  0  0  0  0
  191.4540  173.1430  137.2340 C   0  0  0  0  0  2  0  0  0  0  0  0
  1  4  1  0  0  0  0
  1 10  1  0  0  0  0
  2 10  2  0  0  0  0
  3  8  1  0  0  0  0
  5  8  1  0  0  0  0
  6  9  1  0  0  0  0
  6  7  2  0  0  0  0
  7  2  1  0  0  0  0
  9  1  2  0  0  0  0
 10  3  1  0  0  0  0
 11  4  1  1  0  0  0
 11  5  1  0  0  0  0
 13 23  2  0  0  0  0
 14 22  1  0  0  0  0
 14 12  1  0  0  0  0
 16 19  1  0  0  0  0
 17 24  1  0  0  0  0
 17 13  1  0  0  0  0
 20 18  1  1  0  0  0
 20 15  1  0  0  0  0
 21 26  1  6  0  0  0
 21 20  1  0  0  0  0
 21 24  1  0  0  0  0
 22 15  1  6  0  0  0
 22 11  1  0  0  0  0
 23 12  1  0  0  0  0
 23 19  1  0  0  0  0
 24 14  2  0  0  0  0
 25 17  2  0  0  0  0
 26 27  1  0  0  0  0
 28 29  1  0  0  0  0
 28 27  1  0  0  0  0
 29 32  1  0  0  0  0
 30 32  1  0  0  0  0
 30 36  1  0  0  0  0
 32 31  2  0  0  0  0
 33 35  1  0  0  0  0
 33 36  1  0  0  0  0
 34 37  1  0  0  0  0
 35 34  1  0  0  0  0
 36 37  1  0  0  0  0
 38 47  1  1  0  0  0
 38 40  1  0  0  0  0
 38  6  1  0  0  0  0
 40 39  2  0  0  0  0
 41 43  2  0  0  0  0
 42 46  1  0  0  0  0
 43 40  1  0  0  0  0
 43 42  1  0  0  0  0
 46 45  1  0  0  0  0
 46 44  1  0  0  0  0
 48 50  2  0  0  0  0
 48 47  1  0  0  0  0
 49 48  1  0  0  0  0
 51 49  1  0  0  0  0
 53 52  1  1  0  0  0
 53 58  1  0  0  0  0
 55 51  1  6  0  0  0
 56 59  1  0  0  0  0
 56 53  1  0  0  0  0
 57 55  1  0  0  0  0
 58 54  1  1  0  0  0
 58 57  1  0  0  0  0
 58 55  1  0  0  0  0
 59 54  1  0  0  0  0
M  END
>  <MODEL>
2

>  <REMARK>
 VINA RESULT:      -8.1      2.663      5.028
  Name = 
  15 active torsions:
  status: ('A' for Active; 'I' for Inactive)
    1  A    between atoms: C_6  and  C_34
    2  A    between atoms: C_12  and  C_18
    3  A    between atoms: C_12  and  C_32
    4  A    between atoms: C_18  and  C_57
    5  A    between atoms: O_21  and  C_32
    6  A    between atoms: O_21  and  C_39
    7  A    between atoms: N_24  and  C_28
    8  A    between atoms: N_26  and  N_29
    9  A    between atoms: N_27  and  C_40
   10  A    between atoms: C_34  and  C_47
   11  A    between atoms: C_35  and  C_47
   12  A    between atoms: C_40  and  C_43
   13  A    between atoms: C_45  and  C_49
   14  A    between atoms: C_47  and  C_49
   15  A    between atoms: C_51  and  C_56
                            x       y       z     vdW  Elec       q    Type
                         _______ _______ _______ _____ _____    ______ ____

>  <TORSDO>
F 15

$$$$
=
 OpenBabel11072409443D

 59 65  0  0  1  0  0  0  0  0999 V2000
  192.6170  174.7970  145.3510 C   0  0  0  0  0  0  0  0  0  0  0  0
  193.9880  176.7840  145.6240 C   0  0  0  0  0  3  0  0  0  0  0  0
  192.0420  176.5630  147.1350 C   0  0  0  0  0  2  0  0  0  0  0  0
  191.4380  173.9130  145.6720 C   0  0  0  0  0  2  0  0  0  0  0  0
  190.0520  175.2900  147.2940 C   0  0  0  0  0  2  0  0  0  0  0  0
  194.4960  175.2100  143.8560 C   0  0  0  0  0  0  0  0  0  0  0  0
  194.7760  176.3940  144.5380 C   0  0  0  0  0  3  0  0  0  0  0  0
  191.3690  175.5170  147.8890 N   0  0  0  0  0  2  0  0  0  0  0  0
  193.4240  174.4100  144.2750 C   0  0  0  0  0  3  0  0  0  0  0  0
  192.9120  175.9960  146.0470 C   0  0  0  0  0  0  0  0  0  0  0  0
  190.1220  174.6850  145.8800 C   0  0  1  0  0  3  0  0  0  0  0  0
  187.7460  176.4660  146.1730 C   0  0  0  0  0  2  0  0  0  0  0  0
  186.2130  178.1030  145.1870 N   0  0  0  0  0  0  0  0  0  0  0  0
  188.5360  176.4880  144.8810 C   0  0  0  0  0  0  0  0  0  0  0  0
  190.0200  175.1910  143.4440 N   0  0  0  0  0  2  0  0  0  0  0  0
  184.6620  178.3570  147.5810 C   0  0  0  0  0  1  0  0  0  0  0  0
  186.9220  178.0550  143.9480 C   0  0  0  0  0  0  0  0  0  0  0  0
  191.2080  177.1210  142.7960 O   0  0  0  0  0  1  0  0  0  0  0  0
  185.8170  177.4830  147.4340 N   0  0  0  0  0  2  0  0  0  0  0  0
  190.1160  176.3010  142.4960 C   0  0  2  0  0  3  0  0  0  0  0  0
  188.8140  177.1150  142.4650 C   0  0  2  0  0  3  0  0  0  0  0  0
  189.8540  175.7470  144.7870 C   0  0  2  0  0  3  0  0  0  0  0  0
  186.5660  177.4000  146.2210 C   0  0  0  0  0  0  0  0  0  0  0  0
  188.1160  177.2020  143.8130 C   0  0  0  0  0  0  0  0  0  0  0  0
  186.5280  178.7620  142.9830 O   0  0  0  0  0  0  0  0  0  0  0  0
  187.9480  176.5530  141.5210 O   0  0  0  0  0  0  0  0  0  0  0  0
  188.5370  175.3310  141.1740 C   0  0  0  0  0  2  0  0  0  0  0  0
  188.0030  174.8500  139.8350 C   0  0  0  0  0  2  0  0  0  0  0  0
  188.7540  173.6190  139.3780 C   0  0  0  0  0  2  0  0  0  0  0  0
  190.7380  173.7620  137.8280 N   0  0  0  0  0  2  0  0  0  0  0  0
  188.5580  174.0820  137.0500 O   0  0  0  0  0  0  0  0  0  0  0  0
  189.3250  173.8440  138.0230 C   0  0  0  0  0  0  0  0  0  0  0  0
  192.3860  174.9650  136.7480 C   0  0  0  0  0  2  0  0  0  0  0  0
  193.4670  172.9690  136.0720 C   0  0  0  0  0  2  0  0  0  0  0  0
  193.6120  174.4640  136.0250 C   0  0  0  0  0  2  0  0  0  0  0  0
  191.3240  173.9790  136.5710 N   0  0  0  0  0  0  0  0  0  0  0  0
  191.9740  172.7260  136.1920 C   0  0  0  0  0  2  0  0  0  0  0  0
  195.3480  174.8210  142.6810 C   0  0  2  0  0  3  0  0  0  0  0  0
  197.4970  175.4590  143.4980 O   0  0  0  0  0  0  0  0  0  0  0  0
  196.7660  174.5230  143.0860 C   0  0  0  0  0  0  0  0  0  0  0  0
  197.9410  172.7870  142.0130 O   0  0  0  0  0  0  0  0  0  0  0  0
  197.0100  172.1350  144.0280 N   0  0  0  0  0  2  0  0  0  0  0  0
  197.2620  173.1300  143.0180 C   0  0  0  0  0  0  0  0  0  0  0  0
  196.8540  173.1630  146.2680 C   0  0  0  0  0  1  0  0  0  0  0  0
  195.8920  170.8730  145.8330 C   0  0  0  0  0  1  0  0  0  0  0  0
  196.2100  172.2390  145.2480 C   0  0  0  0  0  3  0  0  0  0  0  0
  195.2860  175.8470  141.5510 C   0  0  0  0  0  2  0  0  0  0  0  0
  196.1610  175.4390  140.4090 C   0  0  0  0  0  0  0  0  0  0  0  0
  195.7620  174.4000  139.5140 N   0  0  0  0  0  2  0  0  0  0  0  0
  197.2730  176.0090  140.2410 O   0  0  0  0  0  0  0  0  0  0  0  0
  194.4620  173.7500  139.5900 C   0  0  0  0  0  2  0  0  0  0  0  0
  192.1480  174.1490  141.4670 F   0  0  0  0  0  0  0  0  0  0  0  0
  191.9860  172.8460  141.0200 C   0  0  2  0  0  3  0  0  0  0  0  0
  193.2700  171.1250  142.2260 C   0  0  0  0  0  2  0  0  0  0  0  0
  194.5820  172.4490  140.3620 C   0  0  2  0  0  3  0  0  0  0  0  0
  191.0780  172.1380  141.9210 N   0  0  0  0  0  2  0  0  0  0  0  0
  193.6150  171.4180  139.7970 C   0  0  0  0  0  2  0  0  0  0  0  0
  193.2940  172.1090  141.1070 C   0  0  2  0  0  0  0  0  0  0  0  0
  191.9050  171.3720  142.8600 C   0  0  0  0  0  2  0  0  0  0  0  0
  1  4  1  0  0  0  0
  1 10  1  0  0  0  0
  2 10  2  0  0  0  0
  3  8  1  0  0  0  0
  5  8  1  0  0  0  0
  6  9  1  0  0  0  0
  6  7  2  0  0  0  0
  7  2  1  0  0  0  0
  9  1  2  0  0  0  0
 10  3  1  0  0  0  0
 11  4  1  6  0  0  0
 11  5  1  0  0  0  0
 12 23  1  0  0  0  0
 13 23  2  0  0  0  0
 14 12  1  0  0  0  0
 17 13  1  0  0  0  0
 19 16  1  0  0  0  0
 20 18  1  1  0  0  0
 20 15  1  0  0  0  0
 21 26  1  6  0  0  0
 21 20  1  0  0  0  0
 21 24  1  0  0  0  0
 22 15  1  6  0  0  0
 22 14  1  0  0  0  0
 22 11  1  0  0  0  0
 23 19  1  0  0  0  0
 24 17  1  0  0  0  0
 24 14  2  0  0  0  0
 25 17  2  0  0  0  0
 27 26  1  0  0  0  0
 28 27  1  0  0  0  0
 29 28  1  0  0  0  0
 30 32  1  0  0  0  0
 31 32  2  0  0  0  0
 32 29  1  0  0  0  0
 34 37  1  0  0  0  0
 35 34  1  0  0  0  0
 35 33  1  0  0  0  0
 36 33  1  0  0  0  0
 36 30  1  0  0  0  0
 37 36  1  0  0  0  0
 38 47  1  6  0  0  0
 38 40  1  0  0  0  0
 38  6  1  0  0  0  0
 40 39  2  0  0  0  0
 41 43  2  0  0  0  0
 42 46  1  0  0  0  0
 43 40  1  0  0  0  0
 43 42  1  0  0  0  0
 46 45  1  0  0  0  0
 46 44  1  0  0  0  0
 48 47  1  0  0  0  0
 49 51  1  0  0  0  0
 49 48  1  0  0  0  0
 50 48  2  0  0  0  0
 53 58  1  0  0  0  0
 53 52  1  1  0  0  0
 53 56  1  0  0  0  0
 54 59  1  0  0  0  0
 55 51  1  6  0  0  0
 55 58  1  0  0  0  0
 56 59  1  0  0  0  0
 57 55  1  0  0  0  0
 58 57  1  6  0  0  0
 58 54  1  0  0  0  0
M  END
>  <MODEL>
3

>  <REMARK>
 VINA RESULT:      -8.0      2.643      4.762
  Name = 
  15 active torsions:
  status: ('A' for Active; 'I' for Inactive)
    1  A    between atoms: C_6  and  C_34
    2  A    between atoms: C_12  and  C_18
    3  A    between atoms: C_12  and  C_32
    4  A    between atoms: C_18  and  C_57
    5  A    between atoms: O_21  and  C_32
    6  A    between atoms: O_21  and  C_39
    7  A    between atoms: N_24  and  C_28
    8  A    between atoms: N_26  and  N_29
    9  A    between atoms: N_27  and  C_40
   10  A    between atoms: C_34  and  C_47
   11  A    between atoms: C_35  and  C_47
   12  A    between atoms: C_40  and  C_43
   13  A    between atoms: C_45  and  C_49
   14  A    between atoms: C_47  and  C_49
   15  A    between atoms: C_51  and  C_56
                            x       y       z     vdW  Elec       q    Type
                         _______ _______ _______ _____ _____    ______ ____

>  <TORSDO>
F 15

$$$$
=
 OpenBabel11072409443D

 59 65  0  0  1  0  0  0  0  0999 V2000
  189.6930  174.2520  143.2790 C   0  0  0  0  0  0  0  0  0  0  0  0
  189.2390  176.5750  142.7340 C   0  0  0  0  0  3  0  0  0  0  0  0
  188.4940  174.8850  141.0880 C   0  0  0  0  0  2  0  0  0  0  0  0
  189.6860  172.7700  142.9960 C   0  0  0  0  0  2  0  0  0  0  0  0
  188.8680  172.5990  140.5980 C   0  0  0  0  0  2  0  0  0  0  0  0
  190.4720  176.0340  144.7450 C   0  0  0  0  0  0  0  0  0  0  0  0
  189.9100  176.9820  143.8890 C   0  0  0  0  0  3  0  0  0  0  0  0
  187.8860  173.5640  141.0920 N   0  0  0  0  0  2  0  0  0  0  0  0
  190.3480  174.6720  144.4410 C   0  0  0  0  0  3  0  0  0  0  0  0
  189.1140  175.2180  142.4170 C   0  0  0  0  0  0  0  0  0  0  0  0
  190.0650  172.4130  141.5470 C   0  0  1  0  0  3  0  0  0  0  0  0
  190.8500  172.1060  138.6850 C   0  0  0  0  0  2  0  0  0  0  0  0
  192.5170  172.4240  136.9180 N   0  0  0  0  0  0  0  0  0  0  0  0
  191.7860  172.8180  139.6390 C   0  0  0  0  0  0  0  0  0  0  0  0
  192.4360  173.0410  141.9800 N   0  0  0  0  0  2  0  0  0  0  0  0
  190.8540  171.2640  134.8960 C   0  0  0  0  0  1  0  0  0  0  0  0
  193.4220  173.0230  137.8460 C   0  0  0  0  0  0  0  0  0  0  0  0
  192.9040  175.3350  141.7140 O   0  0  0  0  0  1  0  0  0  0  0  0
  190.4760  171.4070  136.2940 N   0  0  0  0  0  2  0  0  0  0  0  0
  193.4400  174.0460  141.6340 C   0  0  2  0  0  3  0  0  0  0  0  0
  194.0250  173.7840  140.2380 C   0  0  2  0  0  3  0  0  0  0  0  0
  191.3210  173.1610  141.0400 C   0  0  2  0  0  3  0  0  0  0  0  0
  191.3370  172.0040  137.2640 C   0  0  0  0  0  0  0  0  0  0  0  0
  193.0220  173.2060  139.2540 C   0  0  0  0  0  0  0  0  0  0  0  0
  194.5520  173.4100  137.4470 O   0  0  0  0  0  0  0  0  0  0  0  0
  195.1190  172.9210  140.3580 O   0  0  0  0  0  0  0  0  0  0  0  0
  195.7690  173.3220  141.5310 C   0  0  0  0  0  2  0  0  0  0  0  0
  196.4920  172.1430  142.1630 C   0  0  0  0  0  2  0  0  0  0  0  0
  195.6570  170.8880  142.0450 C   0  0  0  0  0  2  0  0  0  0  0  0
  195.5370  169.6790  144.2560 N   0  0  0  0  0  2  0  0  0  0  0  0
  197.1250  169.1090  142.6390 O   0  0  0  0  0  0  0  0  0  0  0  0
  196.1620  169.8490  142.9820 C   0  0  0  0  0  0  0  0  0  0  0  0
  196.9580  169.3770  146.0500 C   0  0  0  0  0  2  0  0  0  0  0  0
  195.1430  168.7700  147.4470 C   0  0  0  0  0  2  0  0  0  0  0  0
  196.6270  169.0080  147.4750 C   0  0  0  0  0  2  0  0  0  0  0  0
  195.9880  168.7220  145.1780 N   0  0  0  0  0  0  0  0  0  0  0  0
  194.8410  168.3740  146.0130 C   0  0  0  0  0  2  0  0  0  0  0  0
  191.2040  176.4970  145.9720 C   0  0  2  0  0  3  0  0  0  0  0  0
  192.5050  174.9340  147.2210 O   0  0  0  0  0  0  0  0  0  0  0  0
  192.4530  175.6960  146.2220 C   0  0  0  0  0  0  0  0  0  0  0  0
  193.6860  176.8450  144.5760 O   0  0  0  0  0  0  0  0  0  0  0  0
  194.5710  174.7680  145.0810 N   0  0  0  0  0  2  0  0  0  0  0  0
  193.5830  175.7980  145.2710 C   0  0  0  0  0  0  0  0  0  0  0  0
  196.0840  172.9220  145.7170 C   0  0  0  0  0  1  0  0  0  0  0  0
  193.6950  172.4590  145.0550 C   0  0  0  0  0  1  0  0  0  0  0  0
  194.6570  173.4450  145.6970 C   0  0  0  0  0  3  0  0  0  0  0  0
  190.3060  176.5420  147.2070 C   0  0  0  0  0  2  0  0  0  0  0  0
  189.1180  175.6490  147.0370 C   0  0  0  0  0  0  0  0  0  0  0  0
  187.8240  176.1920  146.7710 N   0  0  0  0  0  2  0  0  0  0  0  0
  189.2560  174.4010  147.1450 O   0  0  0  0  0  0  0  0  0  0  0  0
  187.5950  177.6120  146.5510 C   0  0  0  0  0  2  0  0  0  0  0  0
  186.8850  178.6260  143.8110 F   0  0  0  0  0  0  0  0  0  0  0  0
  185.8350  177.7770  144.1290 C   0  0  2  0  0  3  0  0  0  0  0  0
  184.0200  178.7620  145.4730 C   0  0  0  0  0  2  0  0  0  0  0  0
  186.1380  177.9450  146.8140 C   0  0  2  0  0  3  0  0  0  0  0  0
  184.7040  178.0600  143.2450 N   0  0  0  0  0  2  0  0  0  0  0  0
  185.2500  176.8020  146.3420 C   0  0  0  0  0  2  0  0  0  0  0  0
  185.3410  178.0720  145.5190 C   0  0  2  0  0  0  0  0  0  0  0  0
  183.7880  178.9430  143.9760 C   0  0  0  0  0  2  0  0  0  0  0  0
  1  9  1  0  0  0  0
  2  7  2  0  0  0  0
  3  8  1  0  0  0  0
  3 10  1  0  0  0  0
  4  1  1  0  0  0  0
  5  8  1  0  0  0  0
  6 38  1  0  0  0  0
  7  6  1  0  0  0  0
  9  6  2  0  0  0  0
 10  2  1  0  0  0  0
 10  1  2  0  0  0  0
 11  5  1  6  0  0  0
 11  4  1  0  0  0  0
 12 14  1  0  0  0  0
 13 23  2  0  0  0  0
 13 17  1  0  0  0  0
 16 19  1  0  0  0  0
 17 24  1  0  0  0  0
 19 23  1  0  0  0  0
 20 18  1  6  0  0  0
 20 15  1  0  0  0  0
 21 26  1  1  0  0  0
 21 20  1  0  0  0  0
 22 14  1  6  0  0  0
 22 11  1  0  0  0  0
 22 15  1  0  0  0  0
 23 12  1  0  0  0  0
 24 14  2  0  0  0  0
 24 21  1  0  0  0  0
 25 17  2  0  0  0  0
 26 27  1  0  0  0  0
 27 28  1  0  0  0  0
 29 28  1  0  0  0  0
 29 32  1  0  0  0  0
 30 36  1  0  0  0  0
 31 32  2  0  0  0  0
 32 30  1  0  0  0  0
 33 35  1  0  0  0  0
 34 35  1  0  0  0  0
 36 37  1  0  0  0  0
 36 33  1  0  0  0  0
 37 34  1  0  0  0  0
 38 40  1  0  0  0  0
 38 47  1  1  0  0  0
 40 39  2  0  0  0  0
 41 43  2  0  0  0  0
 42 43  1  0  0  0  0
 42 46  1  0  0  0  0
 43 40  1  0  0  0  0
 45 46  1  0  0  0  0
 46 44  1  0  0  0  0
 48 50  2  0  0  0  0
 48 47  1  0  0  0  0
 49 48  1  0  0  0  0
 51 49  1  0  0  0  0
 53 52  1  6  0  0  0
 53 58  1  0  0  0  0
 55 51  1  6  0  0  0
 56 59  1  0  0  0  0
 56 53  1  0  0  0  0
 57 55  1  0  0  0  0
 58 54  1  1  0  0  0
 58 57  1  0  0  0  0
 58 55  1  0  0  0  0
 59 54  1  0  0  0  0
M  END
>  <MODEL>
4

>  <REMARK>
 VINA RESULT:      -7.6      3.081     10.251
  Name = 
  15 active torsions:
  status: ('A' for Active; 'I' for Inactive)
    1  A    between atoms: C_6  and  C_34
    2  A    between atoms: C_12  and  C_18
    3  A    between atoms: C_12  and  C_32
    4  A    between atoms: C_18  and  C_57
    5  A    between atoms: O_21  and  C_32
    6  A    between atoms: O_21  and  C_39
    7  A    between atoms: N_24  and  C_28
    8  A    between atoms: N_26  and  N_29
    9  A    between atoms: N_27  and  C_40
   10  A    between atoms: C_34  and  C_47
   11  A    between atoms: C_35  and  C_47
   12  A    between atoms: C_40  and  C_43
   13  A    between atoms: C_45  and  C_49
   14  A    between atoms: C_47  and  C_49
   15  A    between atoms: C_51  and  C_56
                            x       y       z     vdW  Elec       q    Type
                         _______ _______ _______ _____ _____    ______ ____

>  <TORSDO>
F 15

$$$$
=
 OpenBabel11072409443D

 59 65  0  0  1  0  0  0  0  0999 V2000
  191.5460  175.0390  146.3350 C   0  0  0  0  0  0  0  0  0  0  0  0
  193.1600  176.7720  145.7920 C   0  0  0  0  0  3  0  0  0  0  0  0
  190.9410  177.5310  146.5780 C   0  0  0  0  0  2  0  0  0  0  0  0
  190.1900  174.5420  146.7710 C   0  0  0  0  0  2  0  0  0  0  0  0
  188.7690  176.6430  146.8900 C   0  0  0  0  0  2  0  0  0  0  0  0
  193.7310  174.4460  145.4360 C   0  0  0  0  0  0  0  0  0  0  0  0
  194.0710  175.7980  145.3740 C   0  0  0  0  0  3  0  0  0  0  0  0
  189.9570  177.1480  147.5780 N   0  0  0  0  0  2  0  0  0  0  0  0
  192.4740  174.0730  145.9290 C   0  0  0  0  0  3  0  0  0  0  0  0
  191.9000  176.4110  146.2800 C   0  0  0  0  0  0  0  0  0  0  0  0
  189.0160  175.3190  146.1470 C   0  0  1  0  0  3  0  0  0  0  0  0
  186.8830  176.8270  144.7050 C   0  0  0  0  0  2  0  0  0  0  0  0
  185.8630  177.5150  142.5870 N   0  0  0  0  0  0  0  0  0  0  0  0
  187.9680  176.1310  143.9100 C   0  0  0  0  0  0  0  0  0  0  0  0
  189.5910  174.3110  143.9430 N   0  0  0  0  0  2  0  0  0  0  0  0
  183.8060  179.0410  143.8690 C   0  0  0  0  0  1  0  0  0  0  0  0
  186.8480  176.7900  141.8490 C   0  0  0  0  0  0  0  0  0  0  0  0
  191.1340  175.5580  142.6720 O   0  0  0  0  0  1  0  0  0  0  0  0
  184.8420  178.2980  144.5710 N   0  0  0  0  0  2  0  0  0  0  0  0
  190.0590  174.6670  142.6040 C   0  0  2  0  0  3  0  0  0  0  0  0
  188.9180  175.2510  141.7580 C   0  0  2  0  0  3  0  0  0  0  0  0
  189.1650  175.5340  144.6220 C   0  0  2  0  0  3  0  0  0  0  0  0
  185.8550  177.5610  143.8850 C   0  0  0  0  0  0  0  0  0  0  0  0
  187.9220  176.0720  142.5610 C   0  0  0  0  0  0  0  0  0  0  0  0
  186.7990  176.7860  140.5910 O   0  0  0  0  0  0  0  0  0  0  0  0
  188.2530  174.2070  141.1080 O   0  0  0  0  0  0  0  0  0  0  0  0
  188.8970  174.0840  139.8700 C   0  0  0  0  0  2  0  0  0  0  0  0
  188.1900  173.0500  139.0080 C   0  0  0  0  0  2  0  0  0  0  0  0
  188.5770  173.2210  137.5560 C   0  0  0  0  0  2  0  0  0  0  0  0
  190.6240  171.7740  137.8350 N   0  0  0  0  0  2  0  0  0  0  0  0
  190.7480  173.8810  136.8320 O   0  0  0  0  0  0  0  0  0  0  0  0
  190.0380  172.9980  137.3880 C   0  0  0  0  0  0  0  0  0  0  0  0
  192.6670  172.1800  138.8310 C   0  0  0  0  0  2  0  0  0  0  0  0
  193.0370  169.8590  139.1290 C   0  0  0  0  0  2  0  0  0  0  0  0
  193.6470  171.2000  139.4260 C   0  0  0  0  0  2  0  0  0  0  0  0
  191.9990  171.5240  137.7100 N   0  0  0  0  0  0  0  0  0  0  0  0
  192.1820  170.0860  137.8960 C   0  0  0  0  0  2  0  0  0  0  0  0
  194.7220  173.4200  144.9650 C   0  0  2  0  0  3  0  0  0  0  0  0
  194.1940  171.4000  146.1210 O   0  0  0  0  0  0  0  0  0  0  0  0
  194.1630  172.0240  145.0300 C   0  0  0  0  0  0  0  0  0  0  0  0
  192.3580  171.6900  143.5550 O   0  0  0  0  0  0  0  0  0  0  0  0
  194.2670  170.5490  142.9170 N   0  0  0  0  0  2  0  0  0  0  0  0
  193.5620  171.4250  143.8160 C   0  0  0  0  0  0  0  0  0  0  0  0
  196.3830  170.1790  141.6980 C   0  0  0  0  0  1  0  0  0  0  0  0
  195.6580  168.6030  143.5300 C   0  0  0  0  0  1  0  0  0  0  0  0
  195.6300  170.0310  143.0110 C   0  0  0  0  0  3  0  0  0  0  0  0
  196.0620  173.5260  145.6890 C   0  0  0  0  0  2  0  0  0  0  0  0
  197.1800  173.0430  144.8210 C   0  0  0  0  0  0  0  0  0  0  0  0
  197.6660  173.8400  143.7390 N   0  0  0  0  0  2  0  0  0  0  0  0
  197.6920  171.9120  145.0360 O   0  0  0  0  0  0  0  0  0  0  0  0
  197.1860  175.1880  143.4760 C   0  0  0  0  0  2  0  0  0  0  0  0
  194.9590  173.8000  142.0080 F   0  0  0  0  0  0  0  0  0  0  0  0
  194.9840  175.0660  141.4430 C   0  0  2  0  0  3  0  0  0  0  0  0
  196.6050  175.4010  139.6190 C   0  0  0  0  0  2  0  0  0  0  0  0
  197.5640  175.6020  142.0660 C   0  0  2  0  0  3  0  0  0  0  0  0
  194.2620  175.0400  140.1720 N   0  0  0  0  0  2  0  0  0  0  0  0
  196.7440  176.8130  141.6420 C   0  0  0  0  0  2  0  0  0  0  0  0
  196.3980  175.4420  141.0940 C   0  0  2  0  0  0  0  0  0  0  0  0
  195.2600  174.8950  139.1060 C   0  0  0  0  0  2  0  0  0  0  0  0
  1  4  1  0  0  0  0
  2 10  2  0  0  0  0
  3  8  1  0  0  0  0
  5  8  1  0  0  0  0
  6  9  1  0  0  0  0
  7  6  2  0  0  0  0
  7  2  1  0  0  0  0
  9  1  2  0  0  0  0
 10  1  1  0  0  0  0
 10  3  1  0  0  0  0
 11  4  1  1  0  0  0
 11  5  1  0  0  0  0
 13 23  2  0  0  0  0
 14 12  1  0  0  0  0
 15 22  1  0  0  0  0
 16 19  1  0  0  0  0
 17 24  1  0  0  0  0
 17 13  1  0  0  0  0
 20 18  1  1  0  0  0
 20 15  1  0  0  0  0
 21 26  1  1  0  0  0
 21 24  1  0  0  0  0
 21 20  1  0  0  0  0
 22 14  1  6  0  0  0
 22 11  1  0  0  0  0
 23 19  1  0  0  0  0
 23 12  1  0  0  0  0
 24 14  2  0  0  0  0
 25 17  2  0  0  0  0
 27 26  1  0  0  0  0
 28 27  1  0  0  0  0
 29 28  1  0  0  0  0
 31 32  2  0  0  0  0
 32 29  1  0  0  0  0
 32 30  1  0  0  0  0
 33 35  1  0  0  0  0
 34 35  1  0  0  0  0
 36 30  1  0  0  0  0
 36 37  1  0  0  0  0
 36 33  1  0  0  0  0
 37 34  1  0  0  0  0
 38 40  1  0  0  0  0
 38  6  1  0  0  0  0
 38 47  1  1  0  0  0
 40 39  2  0  0  0  0
 41 43  2  0  0  0  0
 42 46  1  0  0  0  0
 42 43  1  0  0  0  0
 43 40  1  0  0  0  0
 44 46  1  0  0  0  0
 46 45  1  0  0  0  0
 48 50  2  0  0  0  0
 48 47  1  0  0  0  0
 49 48  1  0  0  0  0
 51 49  1  0  0  0  0
 53 52  1  6  0  0  0
 55 51  1  1  0  0  0
 56 53  1  0  0  0  0
 57 55  1  0  0  0  0
 58 54  1  6  0  0  0
 58 53  1  0  0  0  0
 58 57  1  0  0  0  0
 58 55  1  0  0  0  0
 59 54  1  0  0  0  0
 59 56  1  0  0  0  0
M  END
>  <MODEL>
5

>  <REMARK>
 VINA RESULT:      -7.3      2.567      6.153
  Name = 
  15 active torsions:
  status: ('A' for Active; 'I' for Inactive)
    1  A    between atoms: C_6  and  C_34
    2  A    between atoms: C_12  and  C_18
    3  A    between atoms: C_12  and  C_32
    4  A    between atoms: C_18  and  C_57
    5  A    between atoms: O_21  and  C_32
    6  A    between atoms: O_21  and  C_39
    7  A    between atoms: N_24  and  C_28
    8  A    between atoms: N_26  and  N_29
    9  A    between atoms: N_27  and  C_40
   10  A    between atoms: C_34  and  C_47
   11  A    between atoms: C_35  and  C_47
   12  A    between atoms: C_40  and  C_43
   13  A    between atoms: C_45  and  C_49
   14  A    between atoms: C_47  and  C_49
   15  A    between atoms: C_51  and  C_56
                            x       y       z     vdW  Elec       q    Type
                         _______ _______ _______ _____ _____    ______ ____

>  <TORSDO>
F 15

$$$$
=
 OpenBabel11072409443D

 59 65  0  0  1  0  0  0  0  0999 V2000
  190.3570  176.9000  144.6160 C   0  0  0  0  0  0  0  0  0  0  0  0
  188.5720  175.7930  145.8380 C   0  0  0  0  0  3  0  0  0  0  0  0
  190.8870  175.2110  146.4880 C   0  0  0  0  0  2  0  0  0  0  0  0
  191.8030  177.1650  144.2800 C   0  0  0  0  0  2  0  0  0  0  0  0
  193.0820  175.4360  145.6290 C   0  0  0  0  0  2  0  0  0  0  0  0
  188.0290  177.2820  144.0080 C   0  0  0  0  0  0  0  0  0  0  0  0
  187.6230  176.4150  145.0230 C   0  0  0  0  0  3  0  0  0  0  0  0
  192.1620  175.8860  146.6730 N   0  0  0  0  0  2  0  0  0  0  0  0
  189.3950  177.5300  143.8180 C   0  0  0  0  0  3  0  0  0  0  0  0
  189.9390  176.0280  145.6540 C   0  0  0  0  0  0  0  0  0  0  0  0
  192.6690  175.8930  144.2190 C   0  0  1  0  0  3  0  0  0  0  0  0
  193.5430  173.0930  144.7600 C   0  0  0  0  0  2  0  0  0  0  0  0
  193.5640  170.7330  144.0990 N   0  0  0  0  0  0  0  0  0  0  0  0
  192.6330  173.3720  143.5820 C   0  0  0  0  0  0  0  0  0  0  0  0
  191.9230  175.0760  141.9880 N   0  0  0  0  0  2  0  0  0  0  0  0
  195.1450  169.9340  146.3500 C   0  0  0  0  0  1  0  0  0  0  0  0
  192.7700  171.0240  142.9480 C   0  0  0  0  0  0  0  0  0  0  0  0
  189.7240  174.2300  141.9430 O   0  0  0  0  0  1  0  0  0  0  0  0
  194.7250  171.3010  146.0800 N   0  0  0  0  0  2  0  0  0  0  0  0
  190.9920  174.1400  141.3600 C   0  0  2  0  0  3  0  0  0  0  0  0
  191.5230  172.7010  141.4320 C   0  0  2  0  0  3  0  0  0  0  0  0
  192.0180  174.7470  143.4100 C   0  0  2  0  0  3  0  0  0  0  0  0
  193.9250  171.6490  144.9480 C   0  0  0  0  0  0  0  0  0  0  0  0
  192.3090  172.4030  142.6990 C   0  0  0  0  0  0  0  0  0  0  0  0
  192.4530  170.0910  142.1640 O   0  0  0  0  0  0  0  0  0  0  0  0
  192.3230  172.4550  140.3110 O   0  0  0  0  0  0  0  0  0  0  0  0
  191.5410  172.8410  139.2170 C   0  0  0  0  0  2  0  0  0  0  0  0
  192.4170  173.0660  137.9950 C   0  0  0  0  0  2  0  0  0  0  0  0
  192.6970  174.5410  137.8120 C   0  0  0  0  0  2  0  0  0  0  0  0
  194.1900  175.1640  139.7470 N   0  0  0  0  0  2  0  0  0  0  0  0
  195.0440  174.8810  137.5910 O   0  0  0  0  0  0  0  0  0  0  0  0
  194.0410  174.8750  138.3560 C   0  0  0  0  0  0  0  0  0  0  0  0
  195.2100  176.5770  141.2610 C   0  0  0  0  0  2  0  0  0  0  0  0
  195.9780  174.7350  142.5370 C   0  0  0  0  0  2  0  0  0  0  0  0
  195.9540  176.2370  142.5280 C   0  0  0  0  0  2  0  0  0  0  0  0
  195.4350  175.4970  140.3040 N   0  0  0  0  0  0  0  0  0  0  0  0
  195.8720  174.3360  141.0760 C   0  0  0  0  0  2  0  0  0  0  0  0
  186.9900  177.9260  143.1350 C   0  0  2  0  0  3  0  0  0  0  0  0
  184.7910  177.4280  143.9170 O   0  0  0  0  0  0  0  0  0  0  0  0
  185.7370  178.2570  143.8990 C   0  0  0  0  0  0  0  0  0  0  0  0
  185.5650  180.6050  143.9740 O   0  0  0  0  0  0  0  0  0  0  0  0
  185.6760  179.6410  146.0740 N   0  0  0  0  0  2  0  0  0  0  0  0
  185.6540  179.5370  144.6380 C   0  0  0  0  0  0  0  0  0  0  0  0
  184.4930  178.0330  147.5280 C   0  0  0  0  0  1  0  0  0  0  0  0
  186.6910  179.0410  148.2440 C   0  0  0  0  0  1  0  0  0  0  0  0
  185.8340  178.5870  147.0740 C   0  0  0  0  0  3  0  0  0  0  0  0
  186.6880  177.1040  141.8830 C   0  0  0  0  0  2  0  0  0  0  0  0
  185.9380  177.9170  140.8770 C   0  0  0  0  0  0  0  0  0  0  0  0
  186.0140  177.6120  139.4840 N   0  0  0  0  0  2  0  0  0  0  0  0
  185.2390  178.8930  141.2600 O   0  0  0  0  0  0  0  0  0  0  0  0
  186.7300  176.4550  138.9680 C   0  0  0  0  0  2  0  0  0  0  0  0
  188.9440  174.4350  138.7370 F   0  0  0  0  0  0  0  0  0  0  0  0
  188.1660  174.1970  137.6140 C   0  0  2  0  0  3  0  0  0  0  0  0
  188.6300  175.6220  135.6580 C   0  0  0  0  0  2  0  0  0  0  0  0
  187.0670  176.6700  137.5040 C   0  0  2  0  0  3  0  0  0  0  0  0
  188.9400  173.4190  136.6480 N   0  0  0  0  0  2  0  0  0  0  0  0
  186.3670  175.6210  136.6510 C   0  0  0  0  0  2  0  0  0  0  0  0
  187.8530  175.4970  136.9240 C   0  0  2  0  0  0  0  0  0  0  0  0
  189.4920  174.3630  135.6690 C   0  0  0  0  0  2  0  0  0  0  0  0
  1 10  1  0  0  0  0
  3  8  1  0  0  0  0
  4  1  1  0  0  0  0
  5  8  1  0  0  0  0
  6  7  2  0  0  0  0
  7  2  1  0  0  0  0
  9  6  1  0  0  0  0
  9  1  2  0  0  0  0
 10  2  2  0  0  0  0
 10  3  1  0  0  0  0
 11  4  1  1  0  0  0
 11  5  1  0  0  0  0
 12 23  1  0  0  0  0
 13 23  2  0  0  0  0
 14 12  1  0  0  0  0
 17 13  1  0  0  0  0
 19 16  1  0  0  0  0
 20 21  1  0  0  0  0
 20 18  1  1  0  0  0
 20 15  1  0  0  0  0
 21 26  1  6  0  0  0
 21 24  1  0  0  0  0
 22 15  1  6  0  0  0
 22 14  1  0  0  0  0
 22 11  1  0  0  0  0
 23 19  1  0  0  0  0
 24 17  1  0  0  0  0
 24 14  2  0  0  0  0
 25 17  2  0  0  0  0
 27 26  1  0  0  0  0
 28 27  1  0  0  0  0
 29 28  1  0  0  0  0
 29 32  1  0  0  0  0
 30 36  1  0  0  0  0
 31 32  2  0  0  0  0
 32 30  1  0  0  0  0
 33 35  1  0  0  0  0
 35 34  1  0  0  0  0
 36 37  1  0  0  0  0
 36 33  1  0  0  0  0
 37 34  1  0  0  0  0
 38 47  1  6  0  0  0
 38 40  1  0  0  0  0
 38  6  1  0  0  0  0
 40 39  2  0  0  0  0
 40 43  1  0  0  0  0
 41 43  2  0  0  0  0
 42 46  1  0  0  0  0
 43 42  1  0  0  0  0
 46 44  1  0  0  0  0
 46 45  1  0  0  0  0
 48 50  2  0  0  0  0
 48 47  1  0  0  0  0
 49 48  1  0  0  0  0
 51 49  1  0  0  0  0
 53 52  1  1  0  0  0
 54 59  1  0  0  0  0
 55 51  1  1  0  0  0
 56 53  1  0  0  0  0
 57 58  1  0  0  0  0
 57 55  1  0  0  0  0
 58 54  1  6  0  0  0
 58 55  1  0  0  0  0
 58 53  1  0  0  0  0
 59 56  1  0  0  0  0
M  END
>  <MODEL>
6

>  <REMARK>
 VINA RESULT:      -7.3      2.757      9.336
  Name = 
  15 active torsions:
  status: ('A' for Active; 'I' for Inactive)
    1  A    between atoms: C_6  and  C_34
    2  A    between atoms: C_12  and  C_18
    3  A    between atoms: C_12  and  C_32
    4  A    between atoms: C_18  and  C_57
    5  A    between atoms: O_21  and  C_32
    6  A    between atoms: O_21  and  C_39
    7  A    between atoms: N_24  and  C_28
    8  A    between atoms: N_26  and  N_29
    9  A    between atoms: N_27  and  C_40
   10  A    between atoms: C_34  and  C_47
   11  A    between atoms: C_35  and  C_47
   12  A    between atoms: C_40  and  C_43
   13  A    between atoms: C_45  and  C_49
   14  A    between atoms: C_47  and  C_49
   15  A    between atoms: C_51  and  C_56
                            x       y       z     vdW  Elec       q    Type
                         _______ _______ _______ _____ _____    ______ ____

>  <TORSDO>
F 15

$$$$
=
 OpenBabel11072409443D

 59 65  0  0  1  0  0  0  0  0999 V2000
  193.0310  174.8280  145.7650 C   0  0  0  0  0  0  0  0  0  0  0  0
  193.9820  177.0560  145.5860 C   0  0  0  0  0  3  0  0  0  0  0  0
  192.0040  176.8090  147.0510 C   0  0  0  0  0  2  0  0  0  0  0  0
  192.0170  173.8250  146.2580 C   0  0  0  0  0  2  0  0  0  0  0  0
  190.2810  175.2370  147.4580 C   0  0  0  0  0  2  0  0  0  0  0  0
  194.9060  175.2480  144.2680 C   0  0  0  0  0  0  0  0  0  0  0  0
  194.9080  176.5900  144.6500 C   0  0  0  0  0  3  0  0  0  0  0  0
  191.4830  175.8540  148.0170 N   0  0  0  0  0  2  0  0  0  0  0  0
  193.9750  174.3710  144.8380 C   0  0  0  0  0  3  0  0  0  0  0  0
  193.0430  176.1900  146.1580 C   0  0  0  0  0  0  0  0  0  0  0  0
  190.5680  174.3470  146.2360 C   0  0  1  0  0  3  0  0  0  0  0  0
  188.1180  176.0480  146.1740 C   0  0  0  0  0  2  0  0  0  0  0  0
  186.4520  177.2860  144.8720 N   0  0  0  0  0  0  0  0  0  0  0  0
  188.8400  175.7380  144.8790 C   0  0  0  0  0  0  0  0  0  0  0  0
  190.3180  174.1480  143.7660 N   0  0  0  0  0  2  0  0  0  0  0  0
  185.0120  178.1400  147.1950 C   0  0  0  0  0  1  0  0  0  0  0  0
  187.1000  176.9210  143.6520 C   0  0  0  0  0  0  0  0  0  0  0  0
  191.3660  175.8630  142.5360 O   0  0  0  0  0  1  0  0  0  0  0  0
  186.2030  177.3040  147.2230 N   0  0  0  0  0  2  0  0  0  0  0  0
  190.3060  174.9510  142.5440 C   0  0  2  0  0  3  0  0  0  0  0  0
  188.9630  175.6750  142.3720 C   0  0  2  0  0  3  0  0  0  0  0  0
  190.1900  175.0500  144.9110 C   0  0  2  0  0  3  0  0  0  0  0  0
  186.8940  176.9140  146.0360 C   0  0  0  0  0  0  0  0  0  0  0  0
  188.3300  176.1090  143.6840 C   0  0  0  0  0  0  0  0  0  0  0  0
  186.6210  177.3150  142.5560 O   0  0  0  0  0  0  0  0  0  0  0  0
  188.0820  174.8400  141.6760 O   0  0  0  0  0  0  0  0  0  0  0  0
  188.7260  174.5640  140.4640 C   0  0  0  0  0  2  0  0  0  0  0  0
  188.2170  173.2560  139.8820 C   0  0  0  0  0  2  0  0  0  0  0  0
  188.5520  173.1680  138.4100 C   0  0  0  0  0  2  0  0  0  0  0  0
  190.8190  172.1420  138.8230 N   0  0  0  0  0  2  0  0  0  0  0  0
  190.5710  174.0620  137.5150 O   0  0  0  0  0  0  0  0  0  0  0  0
  190.0280  173.1690  138.2220 C   0  0  0  0  0  0  0  0  0  0  0  0
  192.7690  171.6310  139.9490 C   0  0  0  0  0  2  0  0  0  0  0  0
  193.3220  169.9830  138.3390 C   0  0  0  0  0  2  0  0  0  0  0  0
  193.8000  170.5740  139.6350 C   0  0  0  0  0  2  0  0  0  0  0  0
  192.2150  172.1080  138.6840 N   0  0  0  0  0  0  0  0  0  0  0  0
  192.5120  171.0860  137.6840 C   0  0  0  0  0  2  0  0  0  0  0  0
  195.9010  174.7760  143.2470 C   0  0  2  0  0  3  0  0  0  0  0  0
  197.6730  174.4100  144.8030 O   0  0  0  0  0  0  0  0  0  0  0  0
  196.9870  173.9360  143.8620 C   0  0  0  0  0  0  0  0  0  0  0  0
  197.8240  172.4040  142.2810 O   0  0  0  0  0  0  0  0  0  0  0  0
  196.7480  171.3750  144.0510 N   0  0  0  0  0  2  0  0  0  0  0  0
  197.2060  172.5570  143.3680 C   0  0  0  0  0  0  0  0  0  0  0  0
  196.6790  170.4400  146.3360 C   0  0  0  0  0  1  0  0  0  0  0  0
  194.5580  170.7460  145.0050 C   0  0  0  0  0  1  0  0  0  0  0  0
  195.9610  171.2620  145.2780 C   0  0  0  0  0  3  0  0  0  0  0  0
  196.4760  175.9220  142.4170 C   0  0  0  0  0  2  0  0  0  0  0  0
  195.6980  176.1140  141.1550 C   0  0  0  0  0  0  0  0  0  0  0  0
  196.2290  175.7020  139.8950 N   0  0  0  0  0  2  0  0  0  0  0  0
  194.5620  176.6590  141.2000 O   0  0  0  0  0  0  0  0  0  0  0  0
  197.4930  174.9930  139.7670 C   0  0  0  0  0  2  0  0  0  0  0  0
  196.8860  172.1180  139.1290 F   0  0  0  0  0  0  0  0  0  0  0  0
  196.3580  172.8120  138.0500 C   0  0  2  0  0  3  0  0  0  0  0  0
  197.9410  173.3640  136.2440 C   0  0  0  0  0  2  0  0  0  0  0  0
  197.9390  174.9940  138.3160 C   0  0  2  0  0  3  0  0  0  0  0  0
  196.1400  171.8830  136.9410 N   0  0  0  0  0  2  0  0  0  0  0  0
  196.7360  175.1840  137.4030 C   0  0  0  0  0  2  0  0  0  0  0  0
  197.3630  173.8110  137.5440 C   0  0  2  0  0  0  0  0  0  0  0  0
  197.2920  171.9990  136.0410 C   0  0  0  0  0  2  0  0  0  0  0  0
  1 10  1  0  0  0  0
  1  4  1  0  0  0  0
  2 10  2  0  0  0  0
  3  8  1  0  0  0  0
  5  8  1  0  0  0  0
  6  7  2  0  0  0  0
  6  9  1  0  0  0  0
  7  2  1  0  0  0  0
  9  1  2  0  0  0  0
 10  3  1  0  0  0  0
 11  4  1  6  0  0  0
 11  5  1  0  0  0  0
 13 23  2  0  0  0  0
 14 22  1  0  0  0  0
 14 12  1  0  0  0  0
 16 19  1  0  0  0  0
 17 24  1  0  0  0  0
 17 13  1  0  0  0  0
 20 18  1  1  0  0  0
 20 15  1  0  0  0  0
 21 26  1  1  0  0  0
 21 20  1  0  0  0  0
 21 24  1  0  0  0  0
 22 15  1  6  0  0  0
 22 11  1  0  0  0  0
 23 12  1  0  0  0  0
 23 19  1  0  0  0  0
 24 14  2  0  0  0  0
 25 17  2  0  0  0  0
 27 26  1  0  0  0  0
 28 27  1  0  0  0  0
 29 28  1  0  0  0  0
 31 32  2  0  0  0  0
 32 29  1  0  0  0  0
 32 30  1  0  0  0  0
 34 35  1  0  0  0  0
 35 33  1  0  0  0  0
 36 30  1  0  0  0  0
 36 33  1  0  0  0  0
 37 34  1  0  0  0  0
 37 36  1  0  0  0  0
 38 47  1  1  0  0  0
 38 40  1  0  0  0  0
 38  6  1  0  0  0  0
 40 39  2  0  0  0  0
 41 43  2  0  0  0  0
 42 46  1  0  0  0  0
 43 40  1  0  0  0  0
 43 42  1  0  0  0  0
 45 46  1  0  0  0  0
 46 44  1  0  0  0  0
 48 50  2  0  0  0  0
 48 47  1  0  0  0  0
 49 48  1  0  0  0  0
 51 49  1  0  0  0  0
 53 52  1  1  0  0  0
 55 51  1  1  0  0  0
 56 53  1  0  0  0  0
 57 58  1  0  0  0  0
 57 55  1  0  0  0  0
 58 54  1  6  0  0  0
 58 53  1  0  0  0  0
 58 55  1  0  0  0  0
 59 54  1  0  0  0  0
 59 56  1  0  0  0  0
M  END
>  <MODEL>
7

>  <REMARK>
 VINA RESULT:      -7.3      2.973      5.688
  Name = 
  15 active torsions:
  status: ('A' for Active; 'I' for Inactive)
    1  A    between atoms: C_6  and  C_34
    2  A    between atoms: C_12  and  C_18
    3  A    between atoms: C_12  and  C_32
    4  A    between atoms: C_18  and  C_57
    5  A    between atoms: O_21  and  C_32
    6  A    between atoms: O_21  and  C_39
    7  A    between atoms: N_24  and  C_28
    8  A    between atoms: N_26  and  N_29
    9  A    between atoms: N_27  and  C_40
   10  A    between atoms: C_34  and  C_47
   11  A    between atoms: C_35  and  C_47
   12  A    between atoms: C_40  and  C_43
   13  A    between atoms: C_45  and  C_49
   14  A    between atoms: C_47  and  C_49
   15  A    between atoms: C_51  and  C_56
                            x       y       z     vdW  Elec       q    Type
                         _______ _______ _______ _____ _____    ______ ____

>  <TORSDO>
F 15

$$$$
=
 OpenBabel11072409443D

 59 65  0  0  1  0  0  0  0  0999 V2000
  191.1280  176.1240  144.6320 C   0  0  0  0  0  0  0  0  0  0  0  0
  189.3410  175.8800  146.2600 C   0  0  0  0  0  3  0  0  0  0  0  0
  191.6420  175.4740  147.0710 C   0  0  0  0  0  2  0  0  0  0  0  0
  192.5690  176.0740  144.1880 C   0  0  0  0  0  2  0  0  0  0  0  0
  193.7970  175.0780  146.1750 C   0  0  0  0  0  2  0  0  0  0  0  0
  188.8030  176.3750  143.9520 C   0  0  0  0  0  0  0  0  0  0  0  0
  188.3940  176.1260  145.2630 C   0  0  0  0  0  3  0  0  0  0  0  0
  192.9690  176.0440  146.8960 N   0  0  0  0  0  2  0  0  0  0  0  0
  190.1700  176.3850  143.6470 C   0  0  0  0  0  3  0  0  0  0  0  0
  190.7090  175.8820  145.9650 C   0  0  0  0  0  0  0  0  0  0  0  0
  193.3410  174.8530  144.7220 C   0  0  1  0  0  3  0  0  0  0  0  0
  194.7800  172.2960  145.2650 C   0  0  0  0  0  2  0  0  0  0  0  0
  194.8460  169.8510  145.1220 N   0  0  0  0  0  0  0  0  0  0  0  0
  193.3930  172.2530  144.6580 C   0  0  0  0  0  0  0  0  0  0  0  0
  191.7690  173.5060  143.3380 N   0  0  0  0  0  2  0  0  0  0  0  0
  197.3990  169.6690  146.4080 C   0  0  0  0  0  1  0  0  0  0  0  0
  193.5710  169.8310  144.4790 C   0  0  0  0  0  0  0  0  0  0  0  0
  189.9630  172.5770  144.5330 O   0  0  0  0  0  1  0  0  0  0  0  0
  196.6990  170.9160  146.1350 N   0  0  0  0  0  2  0  0  0  0  0  0
  190.8060  172.4090  143.4310 C   0  0  2  0  0  3  0  0  0  0  0  0
  191.5210  171.0510  143.4940 C   0  0  2  0  0  3  0  0  0  0  0  0
  192.5690  173.5220  144.5620 C   0  0  2  0  0  3  0  0  0  0  0  0
  195.4200  170.9540  145.5010 C   0  0  0  0  0  0  0  0  0  0  0  0
  192.8440  171.0910  144.2410 C   0  0  0  0  0  0  0  0  0  0  0  0
  193.0690  168.7280  144.1360 O   0  0  0  0  0  0  0  0  0  0  0  0
  191.7290  170.5860  142.1910 O   0  0  0  0  0  0  0  0  0  0  0  0
  192.1270  171.7140  141.4640 C   0  0  0  0  0  2  0  0  0  0  0  0
  193.5650  171.5590  140.9950 C   0  0  0  0  0  2  0  0  0  0  0  0
  193.8080  172.3890  139.7550 C   0  0  0  0  0  2  0  0  0  0  0  0
  195.2790  173.6890  141.3380 N   0  0  0  0  0  2  0  0  0  0  0  0
  195.5240  173.8680  139.0210 O   0  0  0  0  0  0  0  0  0  0  0  0
  194.9090  173.3590  139.9980 C   0  0  0  0  0  0  0  0  0  0  0  0
  195.6680  175.8710  141.9850 C   0  0  0  0  0  2  0  0  0  0  0  0
  196.8240  175.1410  143.9200 C   0  0  0  0  0  2  0  0  0  0  0  0
  196.3490  176.3870  143.2290 C   0  0  0  0  0  2  0  0  0  0  0  0
  196.3030  174.6080  141.6160 N   0  0  0  0  0  0  0  0  0  0  0  0
  196.9900  174.1190  142.8090 C   0  0  0  0  0  2  0  0  0  0  0  0
  187.7640  176.6200  142.8950 C   0  0  2  0  0  3  0  0  0  0  0  0
  185.5460  176.2950  143.7140 O   0  0  0  0  0  0  0  0  0  0  0  0
  186.4690  177.1160  143.4790 C   0  0  0  0  0  0  0  0  0  0  0  0
  186.5960  179.3940  142.8930 O   0  0  0  0  0  0  0  0  0  0  0  0
  185.8810  179.0600  145.0680 N   0  0  0  0  0  2  0  0  0  0  0  0
  186.3190  178.5560  143.7920 C   0  0  0  0  0  0  0  0  0  0  0  0
  184.0650  178.3090  146.5630 C   0  0  0  0  0  1  0  0  0  0  0  0
  186.3530  178.8390  147.4820 C   0  0  0  0  0  1  0  0  0  0  0  0
  185.5600  178.3270  146.2910 C   0  0  0  0  0  3  0  0  0  0  0  0
  187.5490  175.4050  141.9950 C   0  0  0  0  0  2  0  0  0  0  0  0
  187.5600  175.7980  140.5520 C   0  0  0  0  0  0  0  0  0  0  0  0
  188.2290  174.9960  139.5780 N   0  0  0  0  0  2  0  0  0  0  0  0
  186.9840  176.8600  140.1910 O   0  0  0  0  0  0  0  0  0  0  0  0
  188.8450  173.7180  139.8990 C   0  0  0  0  0  2  0  0  0  0  0  0
  190.8880  174.4320  137.8120 F   0  0  0  0  0  0  0  0  0  0  0  0
  190.9600  173.0480  137.8800 C   0  0  2  0  0  3  0  0  0  0  0  0
  189.3170  171.8160  136.5190 C   0  0  0  0  0  2  0  0  0  0  0  0
  188.4600  172.6850  138.8560 C   0  0  2  0  0  3  0  0  0  0  0  0
  191.6350  172.5420  136.6850 N   0  0  0  0  0  2  0  0  0  0  0  0
  189.3710  171.4710  138.9650 C   0  0  0  0  0  2  0  0  0  0  0  0
  189.5750  172.4630  137.8370 C   0  0  2  0  0  0  0  0  0  0  0  0
  190.5930  172.1210  135.7410 C   0  0  0  0  0  2  0  0  0  0  0  0
  1 10  1  0  0  0  0
  4  1  1  0  0  0  0
  5  8  1  0  0  0  0
  6  7  2  0  0  0  0
  7  2  1  0  0  0  0
  8  3  1  0  0  0  0
  9  6  1  0  0  0  0
  9  1  2  0  0  0  0
 10  2  2  0  0  0  0
 10  3  1  0  0  0  0
 11  4  1  1  0  0  0
 11  5  1  0  0  0  0
 12 23  1  0  0  0  0
 13 23  2  0  0  0  0
 14 12  1  0  0  0  0
 15 20  1  0  0  0  0
 17 13  1  0  0  0  0
 19 16  1  0  0  0  0
 20 21  1  0  0  0  0
 20 18  1  1  0  0  0
 21 26  1  6  0  0  0
 21 24  1  0  0  0  0
 22 15  1  6  0  0  0
 22 14  1  0  0  0  0
 22 11  1  0  0  0  0
 23 19  1  0  0  0  0
 24 17  1  0  0  0  0
 24 14  2  0  0  0  0
 25 17  2  0  0  0  0
 27 26  1  0  0  0  0
 28 27  1  0  0  0  0
 29 32  1  0  0  0  0
 29 28  1  0  0  0  0
 30 36  1  0  0  0  0
 31 32  2  0  0  0  0
 32 30  1  0  0  0  0
 33 35  1  0  0  0  0
 35 34  1  0  0  0  0
 36 33  1  0  0  0  0
 36 37  1  0  0  0  0
 37 34  1  0  0  0  0
 38 47  1  1  0  0  0
 38 40  1  0  0  0  0
 38  6  1  0  0  0  0
 40 39  2  0  0  0  0
 40 43  1  0  0  0  0
 41 43  2  0  0  0  0
 42 46  1  0  0  0  0
 43 42  1  0  0  0  0
 46 44  1  0  0  0  0
 46 45  1  0  0  0  0
 48 47  1  0  0  0  0
 49 51  1  0  0  0  0
 49 48  1  0  0  0  0
 50 48  2  0  0  0  0
 53 52  1  6  0  0  0
 55 57  1  0  0  0  0
 55 51  1  1  0  0  0
 56 53  1  0  0  0  0
 58 54  1  6  0  0  0
 58 53  1  0  0  0  0
 58 55  1  0  0  0  0
 58 57  1  0  0  0  0
 59 54  1  0  0  0  0
 59 56  1  0  0  0  0
M  END
>  <MODEL>
8

>  <REMARK>
 VINA RESULT:      -7.2      2.936      9.448
  Name = 
  15 active torsions:
  status: ('A' for Active; 'I' for Inactive)
    1  A    between atoms: C_6  and  C_34
    2  A    between atoms: C_12  and  C_18
    3  A    between atoms: C_12  and  C_32
    4  A    between atoms: C_18  and  C_57
    5  A    between atoms: O_21  and  C_32
    6  A    between atoms: O_21  and  C_39
    7  A    between atoms: N_24  and  C_28
    8  A    between atoms: N_26  and  N_29
    9  A    between atoms: N_27  and  C_40
   10  A    between atoms: C_34  and  C_47
   11  A    between atoms: C_35  and  C_47
   12  A    between atoms: C_40  and  C_43
   13  A    between atoms: C_45  and  C_49
   14  A    between atoms: C_47  and  C_49
   15  A    between atoms: C_51  and  C_56
                            x       y       z     vdW  Elec       q    Type
                         _______ _______ _______ _____ _____    ______ ____

>  <TORSDO>
F 15

$$$$
=
 OpenBabel11072409443D

 59 65  0  0  1  0  0  0  0  0999 V2000
  192.1390  174.5740  145.5290 C   0  0  0  0  0  0  0  0  0  0  0  0
  193.6330  176.3860  144.9050 C   0  0  0  0  0  3  0  0  0  0  0  0
  191.4840  177.0300  145.9480 C   0  0  0  0  0  2  0  0  0  0  0  0
  190.8520  174.0110  146.0760 C   0  0  0  0  0  2  0  0  0  0  0  0
  189.3840  176.0520  146.4370 C   0  0  0  0  0  2  0  0  0  0  0  0
  194.2370  174.1000  144.3850 C   0  0  0  0  0  0  0  0  0  0  0  0
  194.5260  175.4650  144.3520 C   0  0  0  0  0  3  0  0  0  0  0  0
  190.6210  176.5690  147.0230 N   0  0  0  0  0  2  0  0  0  0  0  0
  193.0500  173.6610  144.9860 C   0  0  0  0  0  3  0  0  0  0  0  0
  192.4420  175.9590  145.5020 C   0  0  0  0  0  0  0  0  0  0  0  0
  189.5950  174.7710  145.6110 C   0  0  1  0  0  3  0  0  0  0  0  0
  187.7170  176.8420  144.5710 C   0  0  0  0  0  2  0  0  0  0  0  0
  186.6130  177.9070  142.6610 N   0  0  0  0  0  0  0  0  0  0  0  0
  188.4780  175.9710  143.5930 C   0  0  0  0  0  0  0  0  0  0  0  0
  189.5950  173.8210  143.3090 N   0  0  0  0  0  2  0  0  0  0  0  0
  185.1910  179.7770  144.3000 C   0  0  0  0  0  1  0  0  0  0  0  0
  187.2780  177.0260  141.7550 C   0  0  0  0  0  0  0  0  0  0  0  0
  191.2040  174.7580  141.8650 O   0  0  0  0  0  1  0  0  0  0  0  0
  186.1010  178.7600  144.8060 N   0  0  0  0  0  2  0  0  0  0  0  0
  189.9450  174.1550  141.9290 C   0  0  2  0  0  3  0  0  0  0  0  0
  188.8760  175.0530  141.2900 C   0  0  2  0  0  3  0  0  0  0  0  0
  189.5790  175.0570  144.0910 C   0  0  2  0  0  3  0  0  0  0  0  0
  186.7970  177.8570  143.9460 C   0  0  0  0  0  0  0  0  0  0  0  0
  188.2320  176.0240  142.2660 C   0  0  0  0  0  0  0  0  0  0  0  0
  187.0560  177.1270  140.5190 O   0  0  0  0  0  0  0  0  0  0  0  0
  187.8910  174.2460  140.7090 O   0  0  0  0  0  0  0  0  0  0  0  0
  188.5900  173.3800  139.8580 C   0  0  0  0  0  2  0  0  0  0  0  0
  188.2200  173.6520  138.4090 C   0  0  0  0  0  2  0  0  0  0  0  0
  189.4630  173.7290  137.5530 C   0  0  0  0  0  2  0  0  0  0  0  0
  190.6720  171.5270  137.7800 N   0  0  0  0  0  2  0  0  0  0  0  0
  189.3130  171.9870  135.9360 O   0  0  0  0  0  0  0  0  0  0  0  0
  189.8060  172.3800  137.0290 C   0  0  0  0  0  0  0  0  0  0  0  0
  192.3280  169.9240  137.9130 C   0  0  0  0  0  2  0  0  0  0  0  0
  190.7960  168.3470  138.7960 C   0  0  0  0  0  2  0  0  0  0  0  0
  192.2490  168.5170  138.4520 C   0  0  0  0  0  2  0  0  0  0  0  0
  191.0340  170.2510  137.3200 N   0  0  0  0  0  0  0  0  0  0  0  0
  190.0650  169.3140  137.8830 C   0  0  0  0  0  2  0  0  0  0  0  0
  195.2050  173.1310  143.7680 C   0  0  2  0  0  3  0  0  0  0  0  0
  197.5160  173.7140  143.6450 O   0  0  0  0  0  0  0  0  0  0  0  0
  196.5840  173.2590  144.3560 C   0  0  0  0  0  0  0  0  0  0  0  0
  197.0400  173.7880  146.6060 O   0  0  0  0  0  0  0  0  0  0  0  0
  196.7920  171.5160  146.2460 N   0  0  0  0  0  2  0  0  0  0  0  0
  196.8100  172.8740  145.7680 C   0  0  0  0  0  0  0  0  0  0  0  0
  195.1680  169.8170  145.4860 C   0  0  0  0  0  1  0  0  0  0  0  0
  197.5600  169.1840  145.9760 C   0  0  0  0  0  1  0  0  0  0  0  0
  196.6180  170.2750  145.4940 C   0  0  0  0  0  3  0  0  0  0  0  0
  195.2310  173.2210  142.2440 C   0  0  0  0  0  2  0  0  0  0  0  0
  194.6570  171.9870  141.6250 C   0  0  0  0  0  0  0  0  0  0  0  0
  194.6970  171.7880  140.2110 N   0  0  0  0  0  2  0  0  0  0  0  0
  194.1160  171.1160  142.3570 O   0  0  0  0  0  0  0  0  0  0  0  0
  195.3740  172.7050  139.3050 C   0  0  0  0  0  2  0  0  0  0  0  0
  193.2620  174.8140  138.9510 F   0  0  0  0  0  0  0  0  0  0  0  0
  194.0230  174.9170  137.7960 C   0  0  2  0  0  3  0  0  0  0  0  0
  193.4370  173.3620  135.9770 C   0  0  0  0  0  2  0  0  0  0  0  0
  194.9900  172.3880  137.8710 C   0  0  2  0  0  3  0  0  0  0  0  0
  193.2660  175.6530  136.7850 N   0  0  0  0  0  2  0  0  0  0  0  0
  195.7210  173.3240  136.9190 C   0  0  0  0  0  2  0  0  0  0  0  0
  194.2510  173.5490  137.2120 C   0  0  2  0  0  0  0  0  0  0  0  0
  192.6410  174.6620  135.9010 C   0  0  0  0  0  2  0  0  0  0  0  0
  1  4  1  0  0  0  0
  2 10  2  0  0  0  0
  3  8  1  0  0  0  0
  5  8  1  0  0  0  0
  6  9  1  0  0  0  0
  7  6  2  0  0  0  0
  7  2  1  0  0  0  0
  9  1  2  0  0  0  0
 10  1  1  0  0  0  0
 10  3  1  0  0  0  0
 11  4  1  1  0  0  0
 11  5  1  0  0  0  0
 13 23  2  0  0  0  0
 14 22  1  0  0  0  0
 14 12  1  0  0  0  0
 16 19  1  0  0  0  0
 17 24  1  0  0  0  0
 17 13  1  0  0  0  0
 20 18  1  1  0  0  0
 20 15  1  0  0  0  0
 21 26  1  1  0  0  0
 21 20  1  0  0  0  0
 21 24  1  0  0  0  0
 22 15  1  6  0  0  0
 22 11  1  0  0  0  0
 23 12  1  0  0  0  0
 23 19  1  0  0  0  0
 24 14  2  0  0  0  0
 25 17  2  0  0  0  0
 27 26  1  0  0  0  0
 28 27  1  0  0  0  0
 29 28  1  0  0  0  0
 31 32  2  0  0  0  0
 32 29  1  0  0  0  0
 32 30  1  0  0  0  0
 33 35  1  0  0  0  0
 35 34  1  0  0  0  0
 36 30  1  0  0  0  0
 36 37  1  0  0  0  0
 36 33  1  0  0  0  0
 37 34  1  0  0  0  0
 38 47  1  6  0  0  0
 38 40  1  0  0  0  0
 38  6  1  0  0  0  0
 39 40  2  0  0  0  0
 40 43  1  0  0  0  0
 43 42  1  0  0  0  0
 43 41  2  0  0  0  0
 44 46  1  0  0  0  0
 46 45  1  0  0  0  0
 46 42  1  0  0  0  0
 48 47  1  0  0  0  0
 48 50  2  0  0  0  0
 49 48  1  0  0  0  0
 51 49  1  0  0  0  0
 53 52  1  1  0  0  0
 55 51  1  1  0  0  0
 56 53  1  0  0  0  0
 57 58  1  0  0  0  0
 57 55  1  0  0  0  0
 58 54  1  6  0  0  0
 58 53  1  0  0  0  0
 58 55  1  0  0  0  0
 59 54  1  0  0  0  0
 59 56  1  0  0  0  0
M  END
>  <MODEL>
9

>  <REMARK>
 VINA RESULT:      -7.0      2.816      5.768
  Name = 
  15 active torsions:
  status: ('A' for Active; 'I' for Inactive)
    1  A    between atoms: C_6  and  C_34
    2  A    between atoms: C_12  and  C_18
    3  A    between atoms: C_12  and  C_32
    4  A    between atoms: C_18  and  C_57
    5  A    between atoms: O_21  and  C_32
    6  A    between atoms: O_21  and  C_39
    7  A    between atoms: N_24  and  C_28
    8  A    between atoms: N_26  and  N_29
    9  A    between atoms: N_27  and  C_40
   10  A    between atoms: C_34  and  C_47
   11  A    between atoms: C_35  and  C_47
   12  A    between atoms: C_40  and  C_43
   13  A    between atoms: C_45  and  C_49
   14  A    between atoms: C_47  and  C_49
   15  A    between atoms: C_51  and  C_56
                            x       y       z     vdW  Elec       q    Type
                         _______ _______ _______ _____ _____    ______ ____

>  <TORSDO>
F 15

$$$$
