=
 OpenBabel11062420053D

 42 46  0  0  1  0  0  0  0  0999 V2000
  195.2420  175.1150  142.1690 C   0  0  0  0  0  3  0  0  0  0  0  0
  193.7830  175.9530  144.3540 C   0  0  0  0  0  0  0  0  0  0  0  0
  195.0390  175.4500  144.5140 N   0  0  0  0  0  0  0  0  0  0  0  0
  191.8580  175.0790  146.0930 S   0  0  0  0  0  0  0  0  0  0  0  0
  189.4060  175.5810  144.9200 C   0  0  1  0  0  3  0  0  0  0  0  0
  190.9730  175.3750  143.1010 O   0  0  0  0  0  0  0  0  0  0  0  0
  191.8270  176.4450  142.8240 C   0  0  0  0  0  2  0  0  0  0  0  0
  193.2370  176.0130  143.0580 C   0  0  0  0  0  0  0  0  0  0  0  0
  193.9810  175.5900  142.0030 N   0  0  0  0  0  0  0  0  0  0  0  0
  193.8630  176.8470  146.7040 C   0  0  0  0  0  1  0  0  0  0  0  0
  189.7570  175.9580  143.4670 C   0  0  1  0  0  3  0  0  0  0  0  0
  192.9850  176.3960  145.5490 C   0  0  1  0  0  3  0  0  0  0  0  0
  190.4160  176.1690  145.8950 C   0  0  0  0  0  2  0  0  0  0  0  0
  195.7810  175.0360  143.4530 C   0  0  0  0  0  0  0  0  0  0  0  0
  188.6930  175.4830  142.4840 C   0  0  0  0  0  2  0  0  0  0  0  0
  188.4830  176.4930  141.4570 N   0  0  0  0  0  2  0  0  0  0  0  0
  187.0920  176.9110  141.5370 C   0  0  0  0  0  2  0  0  0  0  0  0
  186.9720  178.2290  142.2920 C   0  0  0  0  0  2  0  0  0  0  0  0
  185.5790  179.4800  143.9020 C   0  0  0  0  0  2  0  0  0  0  0  0
  185.9920  178.0960  143.4440 C   0  0  0  0  0  3  0  0  0  0  0  0
  184.6550  178.6690  143.0210 C   0  0  0  0  0  2  0  0  0  0  0  0
  197.1680  174.5310  143.6570 C   0  0  0  0  0  2  0  0  0  0  0  0
  197.3670  174.0430  145.0850 C   0  0  0  0  0  2  0  0  0  0  0  0
  195.7590  171.9110  145.6570 S   0  0  0  0  0  0  0  0  0  0  0  0
  197.0040  169.7180  144.5800 C   0  0  0  0  0  0  0  0  0  0  0  0
  197.2710  168.3600  144.4410 O   0  0  0  0  0  1  0  0  0  0  0  0
  197.3920  172.5230  145.1500 C   0  0  1  0  0  3  0  0  0  0  0  0
  197.9360  170.1390  142.3210 O   0  0  0  0  0  1  0  0  0  0  0  0
  196.2880  170.1820  145.6280 C   0  0  0  0  0  0  0  0  0  0  0  0
  197.7180  171.9410  143.8080 C   0  0  0  0  0  3  0  0  0  0  0  0
  197.5550  170.6400  143.5590 C   0  0  0  0  0  0  0  0  0  0  0  0
  196.8030  168.9680  147.7590 O   0  0  0  0  0  1  0  0  0  0  0  0
  195.8940  169.3190  146.7660 C   0  0  0  0  0  0  0  0  0  0  0  0
  194.7060  168.9110  146.8600 O   0  0  0  0  0  0  0  0  0  0  0  0
  188.0340  176.1080  145.3120 C   0  0  0  0  0  2  0  0  0  0  0  0
  188.0000  176.3910  146.8020 C   0  0  0  0  0  2  0  0  0  0  0  0
  187.2050  178.6130  147.6370 C   0  0  0  0  0  3  0  0  0  0  0  0
  185.5420  177.3270  146.9180 C   0  0  0  0  0  0  0  0  0  0  0  0
  185.8920  179.2720  147.7780 C   0  0  0  0  0  3  0  0  0  0  0  0
  184.9200  176.3420  146.4430 O   0  0  0  0  0  0  0  0  0  0  0  0
  186.9700  177.4250  147.1020 C   0  0  0  0  0  0  0  0  0  0  0  0
  184.9220  178.5200  147.3580 N   0  0  0  0  0  0  0  0  0  0  0  0
  1 14  1  0  0  0  0
  2  3  1  0  0  0  0
  2 12  1  0  0  0  0
  5 35  1  1  0  0  0
  5 13  1  0  0  0  0
  6 11  1  0  0  0  0
  7  8  1  0  0  0  0
  7  6  1  0  0  0  0
  8  2  2  0  0  0  0
  9  1  2  0  0  0  0
  9  8  1  0  0  0  0
 11 15  1  6  0  0  0
 11  5  1  0  0  0  0
 12  4  1  0  0  0  0
 12 10  1  1  0  0  0
 13  4  1  0  0  0  0
 14 22  1  0  0  0  0
 14  3  2  0  0  0  0
 16 17  1  0  0  0  0
 16 15  1  0  0  0  0
 17 18  1  0  0  0  0
 18 20  1  0  0  0  0
 20 19  1  0  0  0  0
 21 20  1  0  0  0  0
 21 19  1  0  0  0  0
 22 23  1  0  0  0  0
 25 29  2  0  0  0  0
 26 25  1  0  0  0  0
 27 23  1  6  0  0  0
 27 24  1  0  0  0  0
 28 31  1  0  0  0  0
 29 24  1  0  0  0  0
 29 33  1  0  0  0  0
 30 27  1  0  0  0  0
 31 30  2  0  0  0  0
 31 25  1  0  0  0  0
 33 34  2  0  0  0  0
 33 32  1  0  0  0  0
 35 36  1  0  0  0  0
 36 41  1  0  0  0  0
 37 39  1  0  0  0  0
 38 41  1  0  0  0  0
 38 42  1  0  0  0  0
 40 38  2  0  0  0  0
 41 37  2  0  0  0  0
 42 39  2  0  0  0  0
M  END
>  <MODEL>
1

>  <REMARK>
 VINA RESULT:      -7.2      0.000      0.000
  Name = 
  12 active torsions:
  status: ('A' for Active; 'I' for Inactive)
    1  A    between atoms: C_1  and  C_15
    2  A    between atoms: C_1  and  C_16
    3  A    between atoms: C_7  and  N_10
    4  A    between atoms: C_7  and  C_36
    5  A    between atoms: N_10  and  C_16
    6  A    between atoms: C_11  and  C_24
    7  A    between atoms: C_12  and  C_30
    8  A    between atoms: C_12  and  C_42
    9  A    between atoms: C_18  and  C_23
   10  A    between atoms: C_20  and  C_30
   11  A    between atoms: C_23  and  C_34
   12  A    between atoms: C_34  and  C_38
                            x       y       z     vdW  Elec       q    Type
                         _______ _______ _______ _____ _____    ______ ____

>  <TORSDO>
F 12

$$$$
=
 OpenBabel11062420053D

 42 46  0  0  1  0  0  0  0  0999 V2000
  194.9230  175.9070  141.9100 C   0  0  0  0  0  3  0  0  0  0  0  0
  193.8050  176.3110  144.3980 C   0  0  0  0  0  0  0  0  0  0  0  0
  195.1190  175.9740  144.2790 N   0  0  0  0  0  0  0  0  0  0  0  0
  192.3500  175.0100  146.3180 S   0  0  0  0  0  0  0  0  0  0  0  0
  189.6820  175.2840  145.6510 C   0  0  1  0  0  3  0  0  0  0  0  0
  190.8990  175.4800  143.5800 O   0  0  0  0  0  0  0  0  0  0  0  0
  191.5550  176.6800  143.2960 C   0  0  0  0  0  2  0  0  0  0  0  0
  193.0250  176.4260  143.2310 C   0  0  0  0  0  0  0  0  0  0  0  0
  193.6060  176.2180  142.0210 N   0  0  0  0  0  0  0  0  0  0  0  0
  194.2110  176.9680  146.7920 C   0  0  0  0  0  1  0  0  0  0  0  0
  189.7120  175.8500  144.2170 C   0  0  1  0  0  3  0  0  0  0  0  0
  193.1940  176.5180  145.7570 C   0  0  1  0  0  3  0  0  0  0  0  0
  190.7780  175.9050  146.5040 C   0  0  0  0  0  2  0  0  0  0  0  0
  195.6950  175.7750  143.0640 C   0  0  0  0  0  0  0  0  0  0  0  0
  188.5480  175.3330  143.3780 C   0  0  0  0  0  2  0  0  0  0  0  0
  188.7270  175.7280  141.9890 N   0  0  0  0  0  2  0  0  0  0  0  0
  188.1390  177.0500  141.8340 C   0  0  0  0  0  2  0  0  0  0  0  0
  187.0860  177.2960  142.9060 C   0  0  0  0  0  2  0  0  0  0  0  0
  184.8210  178.2810  142.8380 C   0  0  0  0  0  2  0  0  0  0  0  0
  185.6900  177.1500  142.3260 C   0  0  0  0  0  3  0  0  0  0  0  0
  185.3970  178.3440  141.4410 C   0  0  0  0  0  2  0  0  0  0  0  0
  197.1460  175.4480  142.9660 C   0  0  0  0  0  2  0  0  0  0  0  0
  197.3530  174.0190  142.4860 C   0  0  0  0  0  2  0  0  0  0  0  0
  195.5900  171.9560  142.1690 S   0  0  0  0  0  0  0  0  0  0  0  0
  195.5130  170.6560  144.5820 C   0  0  0  0  0  0  0  0  0  0  0  0
  194.9600  169.8230  145.5490 O   0  0  0  0  0  1  0  0  0  0  0  0
  196.5180  173.0390  143.2950 C   0  0  1  0  0  3  0  0  0  0  0  0
  197.7530  170.3720  145.6080 O   0  0  0  0  0  1  0  0  0  0  0  0
  194.7820  171.0730  143.5250 C   0  0  0  0  0  0  0  0  0  0  0  0
  197.3940  172.1820  144.1580 C   0  0  0  0  0  3  0  0  0  0  0  0
  196.9170  171.0930  144.7660 C   0  0  0  0  0  0  0  0  0  0  0  0
  192.4200  171.4010  144.2920 O   0  0  0  0  0  1  0  0  0  0  0  0
  193.3270  170.8180  143.4130 C   0  0  0  0  0  0  0  0  0  0  0  0
  192.8890  170.0810  142.4910 O   0  0  0  0  0  0  0  0  0  0  0  0
  188.3540  175.5740  146.3320 C   0  0  0  0  0  2  0  0  0  0  0  0
  188.2760  177.0440  146.7000 C   0  0  0  0  0  2  0  0  0  0  0  0
  185.8290  176.9490  146.1840 C   0  0  0  0  0  3  0  0  0  0  0  0
  186.3220  178.5030  147.6920 C   0  0  0  0  0  0  0  0  0  0  0  0
  184.6320  177.6860  146.6330 C   0  0  0  0  0  3  0  0  0  0  0  0
  186.9840  179.2360  148.4730 O   0  0  0  0  0  0  0  0  0  0  0  0
  186.8530  177.4590  146.8490 C   0  0  0  0  0  0  0  0  0  0  0  0
  184.9220  178.5940  147.5130 N   0  0  0  0  0  0  0  0  0  0  0  0
  1  9  2  0  0  0  0
  1 14  1  0  0  0  0
  2 12  1  0  0  0  0
  3  2  1  0  0  0  0
  4 13  1  0  0  0  0
  5 35  1  1  0  0  0
  5 13  1  0  0  0  0
  6 11  1  0  0  0  0
  7  6  1  0  0  0  0
  8  7  1  0  0  0  0
  8  2  2  0  0  0  0
  9  8  1  0  0  0  0
 11 15  1  6  0  0  0
 11  5  1  0  0  0  0
 12  4  1  0  0  0  0
 12 10  1  1  0  0  0
 14  3  2  0  0  0  0
 16 15  1  0  0  0  0
 17 16  1  0  0  0  0
 17 18  1  0  0  0  0
 20 19  1  0  0  0  0
 20 18  1  0  0  0  0
 21 20  1  0  0  0  0
 21 19  1  0  0  0  0
 22 14  1  0  0  0  0
 23 22  1  0  0  0  0
 24 27  1  0  0  0  0
 24 29  1  0  0  0  0
 25 31  1  0  0  0  0
 25 26  1  0  0  0  0
 27 23  1  6  0  0  0
 27 30  1  0  0  0  0
 29 25  2  0  0  0  0
 30 31  2  0  0  0  0
 31 28  1  0  0  0  0
 33 29  1  0  0  0  0
 33 32  1  0  0  0  0
 34 33  2  0  0  0  0
 35 36  1  0  0  0  0
 36 41  1  0  0  0  0
 37 39  1  0  0  0  0
 37 41  2  0  0  0  0
 38 40  2  0  0  0  0
 39 42  2  0  0  0  0
 41 38  1  0  0  0  0
 42 38  1  0  0  0  0
M  END
>  <MODEL>
2

>  <REMARK>
 VINA RESULT:      -6.9      1.761      2.129
  Name = 
  12 active torsions:
  status: ('A' for Active; 'I' for Inactive)
    1  A    between atoms: C_1  and  C_15
    2  A    between atoms: C_1  and  C_16
    3  A    between atoms: C_7  and  N_10
    4  A    between atoms: C_7  and  C_36
    5  A    between atoms: N_10  and  C_16
    6  A    between atoms: C_11  and  C_24
    7  A    between atoms: C_12  and  C_30
    8  A    between atoms: C_12  and  C_42
    9  A    between atoms: C_18  and  C_23
   10  A    between atoms: C_20  and  C_30
   11  A    between atoms: C_23  and  C_34
   12  A    between atoms: C_34  and  C_38
                            x       y       z     vdW  Elec       q    Type
                         _______ _______ _______ _____ _____    ______ ____

>  <TORSDO>
F 12

$$$$
=
 OpenBabel11062420053D

 42 46  0  0  1  0  0  0  0  0999 V2000
  195.2450  175.0320  143.8450 C   0  0  0  0  0  3  0  0  0  0  0  0
  193.1240  175.8590  145.4020 C   0  0  0  0  0  0  0  0  0  0  0  0
  194.2120  175.2690  145.9730 N   0  0  0  0  0  0  0  0  0  0  0  0
  190.6600  175.0310  146.2580 S   0  0  0  0  0  0  0  0  0  0  0  0
  188.8330  175.7440  144.3120 C   0  0  1  0  0  3  0  0  0  0  0  0
  190.9470  175.5230  143.1760 O   0  0  0  0  0  0  0  0  0  0  0  0
  191.8890  176.5480  143.3020 C   0  0  0  0  0  2  0  0  0  0  0  0
  193.0950  176.0150  144.0020 C   0  0  0  0  0  0  0  0  0  0  0  0
  194.1550  175.5950  143.2640 N   0  0  0  0  0  0  0  0  0  0  0  0
  192.3750  176.6350  147.6740 C   0  0  0  0  0  1  0  0  0  0  0  0
  189.7080  176.1650  143.1140 C   0  0  1  0  0  3  0  0  0  0  0  0
  191.9630  176.2960  146.2510 C   0  0  1  0  0  3  0  0  0  0  0  0
  189.4390  176.2200  145.6240 C   0  0  0  0  0  2  0  0  0  0  0  0
  195.2720  174.8590  145.2290 C   0  0  0  0  0  0  0  0  0  0  0  0
  189.0590  175.8060  141.7820 C   0  0  0  0  0  2  0  0  0  0  0  0
  189.4780  174.4740  141.3710 N   0  0  0  0  0  2  0  0  0  0  0  0
  188.2750  173.7230  141.0450 C   0  0  0  0  0  2  0  0  0  0  0  0
  188.5010  172.8610  139.8100 C   0  0  0  0  0  2  0  0  0  0  0  0
  188.9580  173.0130  137.3870 C   0  0  0  0  0  2  0  0  0  0  0  0
  189.2280  173.6500  138.7350 C   0  0  0  0  0  3  0  0  0  0  0  0
  188.2070  174.2600  137.7970 C   0  0  0  0  0  2  0  0  0  0  0  0
  196.4650  174.2560  145.8890 C   0  0  0  0  0  2  0  0  0  0  0  0
  196.8920  172.9770  145.1840 C   0  0  0  0  0  2  0  0  0  0  0  0
  195.3960  171.1290  143.8380 S   0  0  0  0  0  0  0  0  0  0  0  0
  194.6570  169.2590  145.7020 C   0  0  0  0  0  0  0  0  0  0  0  0
  193.8760  168.2270  146.2130 O   0  0  0  0  0  1  0  0  0  0  0  0
  195.8960  171.8540  145.4270 C   0  0  1  0  0  3  0  0  0  0  0  0
  196.4960  168.6420  147.2470 O   0  0  0  0  0  1  0  0  0  0  0  0
  194.2590  169.9590  144.6170 C   0  0  0  0  0  0  0  0  0  0  0  0
  196.5100  170.7740  146.2660 C   0  0  0  0  0  3  0  0  0  0  0  0
  195.9200  169.5840  146.4040 C   0  0  0  0  0  0  0  0  0  0  0  0
  191.9210  170.7490  144.1870 O   0  0  0  0  0  1  0  0  0  0  0  0
  192.9170  169.7940  144.0120 C   0  0  0  0  0  0  0  0  0  0  0  0
  192.6700  168.7840  143.3010 O   0  0  0  0  0  0  0  0  0  0  0  0
  187.4370  176.3390  144.2120 C   0  0  0  0  0  2  0  0  0  0  0  0
  187.4360  177.7440  144.7840 C   0  0  0  0  0  2  0  0  0  0  0  0
  185.1940  178.8550  144.8310 C   0  0  0  0  0  3  0  0  0  0  0  0
  185.5640  177.6050  146.6300 C   0  0  0  0  0  0  0  0  0  0  0  0
  184.0590  178.8890  145.7740 C   0  0  0  0  0  3  0  0  0  0  0  0
  186.1340  176.8370  147.4480 O   0  0  0  0  0  0  0  0  0  0  0  0
  186.1030  178.0580  145.3700 C   0  0  0  0  0  0  0  0  0  0  0  0
  184.2770  178.1590  146.8240 N   0  0  0  0  0  0  0  0  0  0  0  0
  1 14  1  0  0  0  0
  2  3  1  0  0  0  0
  2 12  1  0  0  0  0
  5 35  1  6  0  0  0
  5 13  1  0  0  0  0
  6  7  1  0  0  0  0
  7  8  1  0  0  0  0
  8  2  2  0  0  0  0
  9  1  2  0  0  0  0
  9  8  1  0  0  0  0
 11 15  1  6  0  0  0
 11  6  1  0  0  0  0
 11  5  1  0  0  0  0
 12  4  1  0  0  0  0
 12 10  1  1  0  0  0
 13  4  1  0  0  0  0
 14 22  1  0  0  0  0
 14  3  2  0  0  0  0
 16 15  1  0  0  0  0
 17 16  1  0  0  0  0
 18 17  1  0  0  0  0
 19 21  1  0  0  0  0
 19 20  1  0  0  0  0
 20 18  1  0  0  0  0
 21 20  1  0  0  0  0
 23 22  1  0  0  0  0
 24 29  1  0  0  0  0
 24 27  1  0  0  0  0
 25 26  1  0  0  0  0
 25 31  1  0  0  0  0
 27 23  1  6  0  0  0
 27 30  1  0  0  0  0
 29 25  2  0  0  0  0
 30 31  2  0  0  0  0
 31 28  1  0  0  0  0
 33 32  1  0  0  0  0
 33 29  1  0  0  0  0
 34 33  2  0  0  0  0
 35 36  1  0  0  0  0
 36 41  1  0  0  0  0
 37 41  2  0  0  0  0
 37 39  1  0  0  0  0
 38 42  1  0  0  0  0
 38 40  2  0  0  0  0
 39 42  2  0  0  0  0
 41 38  1  0  0  0  0
M  END
>  <MODEL>
3

>  <REMARK>
 VINA RESULT:      -6.8      2.199      3.389
  Name = 
  12 active torsions:
  status: ('A' for Active; 'I' for Inactive)
    1  A    between atoms: C_1  and  C_15
    2  A    between atoms: C_1  and  C_16
    3  A    between atoms: C_7  and  N_10
    4  A    between atoms: C_7  and  C_36
    5  A    between atoms: N_10  and  C_16
    6  A    between atoms: C_11  and  C_24
    7  A    between atoms: C_12  and  C_30
    8  A    between atoms: C_12  and  C_42
    9  A    between atoms: C_18  and  C_23
   10  A    between atoms: C_20  and  C_30
   11  A    between atoms: C_23  and  C_34
   12  A    between atoms: C_34  and  C_38
                            x       y       z     vdW  Elec       q    Type
                         _______ _______ _______ _____ _____    ______ ____

>  <TORSDO>
F 12

$$$$
=
 OpenBabel11062420053D

 42 46  0  0  1  0  0  0  0  0999 V2000
  191.5820  176.3520  147.6400 C   0  0  0  0  0  3  0  0  0  0  0  0
  192.1890  176.7000  144.9730 C   0  0  0  0  0  0  0  0  0  0  0  0
  190.8920  176.6680  145.3870 N   0  0  0  0  0  0  0  0  0  0  0  0
  192.8180  175.2670  142.7260 S   0  0  0  0  0  0  0  0  0  0  0  0
  195.5500  174.8530  142.7560 C   0  0  1  0  0  3  0  0  0  0  0  0
  194.9070  175.1470  145.0600 O   0  0  0  0  0  0  0  0  0  0  0  0
  194.6450  176.4380  145.5260 C   0  0  0  0  0  2  0  0  0  0  0  0
  193.2100  176.5280  145.9270 C   0  0  0  0  0  0  0  0  0  0  0  0
  192.8780  176.3560  147.2330 N   0  0  0  0  0  0  0  0  0  0  0  0
  191.4400  177.6380  142.7620 C   0  0  0  0  0  1  0  0  0  0  0  0
  195.9780  175.2840  144.1740 C   0  0  1  0  0  3  0  0  0  0  0  0
  192.5170  176.8750  143.5150 C   0  0  1  0  0  3  0  0  0  0  0  0
  194.4810  175.7840  142.2030 C   0  0  0  0  0  2  0  0  0  0  0  0
  190.5670  176.5040  146.6960 C   0  0  0  0  0  0  0  0  0  0  0  0
  197.1340  174.4400  144.6990 C   0  0  0  0  0  2  0  0  0  0  0  0
  196.6820  173.6250  145.8180 N   0  0  0  0  0  2  0  0  0  0  0  0
  197.1240  172.2620  145.5680 C   0  0  0  0  0  2  0  0  0  0  0  0
  195.9680  171.2850  145.7380 C   0  0  0  0  0  2  0  0  0  0  0  0
  194.0920  170.1200  144.6320 C   0  0  0  0  0  2  0  0  0  0  0  0
  195.2240  171.1060  144.4270 C   0  0  0  0  0  3  0  0  0  0  0  0
  193.8040  171.6040  144.5940 C   0  0  0  0  0  2  0  0  0  0  0  0
  189.1390  176.5170  147.1230 C   0  0  0  0  0  2  0  0  0  0  0  0
  188.2490  175.8610  146.0760 C   0  0  0  0  0  2  0  0  0  0  0  0
  186.6540  176.2090  143.8870 S   0  0  0  0  0  0  0  0  0  0  0  0
  184.9270  178.2390  144.5300 C   0  0  0  0  0  0  0  0  0  0  0  0
  184.0310  179.2680  144.2560 O   0  0  0  0  0  1  0  0  0  0  0  0
  187.2960  176.8690  145.4530 C   0  0  1  0  0  3  0  0  0  0  0  0
  184.0350  178.0670  146.8370 O   0  0  0  0  0  1  0  0  0  0  0  0
  185.6770  177.6930  143.5480 C   0  0  0  0  0  0  0  0  0  0  0  0
  186.1360  177.1340  146.3640 C   0  0  0  0  0  3  0  0  0  0  0  0
  185.0530  177.7870  145.9350 C   0  0  0  0  0  0  0  0  0  0  0  0
  184.5870  178.2940  141.3740 O   0  0  0  0  0  0  0  0  0  0  0  0
  185.7220  178.2500  142.1770 C   0  0  0  0  0  0  0  0  0  0  0  0
  186.8000  178.7220  141.7270 O   0  0  0  0  0  1  0  0  0  0  0  0
  196.7250  174.8840  141.7910 C   0  0  0  0  0  2  0  0  0  0  0  0
  196.5440  176.0180  140.7990 C   0  0  0  0  0  2  0  0  0  0  0  0
  197.9410  175.4660  138.7960 C   0  0  0  0  0  3  0  0  0  0  0  0
  195.7810  175.0640  138.4670 C   0  0  0  0  0  0  0  0  0  0  0  0
  197.6730  174.9480  137.4410 C   0  0  0  0  0  3  0  0  0  0  0  0
  194.5420  174.9810  138.6700 O   0  0  0  0  0  0  0  0  0  0  0  0
  196.7700  175.5240  139.4120 C   0  0  0  0  0  0  0  0  0  0  0  0
  196.4120  174.7140  137.2500 N   0  0  0  0  0  0  0  0  0  0  0  0
  2  3  2  0  0  0  0
  2  8  1  0  0  0  0
  3 14  1  0  0  0  0
  4 12  1  0  0  0  0
  5 35  1  6  0  0  0
  5 11  1  0  0  0  0
  6  7  1  0  0  0  0
  7  8  1  0  0  0  0
  8  9  2  0  0  0  0
  9  1  1  0  0  0  0
 11 15  1  1  0  0  0
 11  6  1  0  0  0  0
 12 10  1  6  0  0  0
 12  2  1  0  0  0  0
 13  4  1  0  0  0  0
 13  5  1  0  0  0  0
 14 22  1  0  0  0  0
 14  1  2  0  0  0  0
 15 16  1  0  0  0  0
 17 18  1  0  0  0  0
 17 16  1  0  0  0  0
 20 21  1  0  0  0  0
 20 19  1  0  0  0  0
 20 18  1  0  0  0  0
 21 19  1  0  0  0  0
 23 22  1  0  0  0  0
 24 27  1  0  0  0  0
 25 31  1  0  0  0  0
 26 25  1  0  0  0  0
 27 23  1  1  0  0  0
 27 30  1  0  0  0  0
 29 24  1  0  0  0  0
 29 25  2  0  0  0  0
 31 30  2  0  0  0  0
 31 28  1  0  0  0  0
 32 33  2  0  0  0  0
 33 29  1  0  0  0  0
 34 33  1  0  0  0  0
 36 35  1  0  0  0  0
 37 41  2  0  0  0  0
 38 40  2  0  0  0  0
 38 41  1  0  0  0  0
 39 37  1  0  0  0  0
 41 36  1  0  0  0  0
 42 39  2  0  0  0  0
 42 38  1  0  0  0  0
M  END
>  <MODEL>
4

>  <REMARK>
 VINA RESULT:      -6.6      3.164     10.941
  Name = 
  12 active torsions:
  status: ('A' for Active; 'I' for Inactive)
    1  A    between atoms: C_1  and  C_15
    2  A    between atoms: C_1  and  C_16
    3  A    between atoms: C_7  and  N_10
    4  A    between atoms: C_7  and  C_36
    5  A    between atoms: N_10  and  C_16
    6  A    between atoms: C_11  and  C_24
    7  A    between atoms: C_12  and  C_30
    8  A    between atoms: C_12  and  C_42
    9  A    between atoms: C_18  and  C_23
   10  A    between atoms: C_20  and  C_30
   11  A    between atoms: C_23  and  C_34
   12  A    between atoms: C_34  and  C_38
                            x       y       z     vdW  Elec       q    Type
                         _______ _______ _______ _____ _____    ______ ____

>  <TORSDO>
F 12

$$$$
=
 OpenBabel11062420053D

 42 46  0  0  1  0  0  0  0  0999 V2000
  190.3260  176.7690  146.2910 C   0  0  0  0  0  3  0  0  0  0  0  0
  190.0280  174.6780  144.5180 C   0  0  0  0  0  0  0  0  0  0  0  0
  191.0410  174.6730  145.4270 N   0  0  0  0  0  0  0  0  0  0  0  0
  190.6480  173.9560  141.9510 S   0  0  0  0  0  0  0  0  0  0  0  0
  188.6500  174.9410  140.3160 C   0  0  1  0  0  3  0  0  0  0  0  0
  188.6720  176.3690  142.2580 O   0  0  0  0  0  0  0  0  0  0  0  0
  188.0920  175.9040  143.4410 C   0  0  0  0  0  2  0  0  0  0  0  0
  189.1520  175.7810  144.4850 C   0  0  0  0  0  0  0  0  0  0  0  0
  189.3280  176.7950  145.3700 N   0  0  0  0  0  0  0  0  0  0  0  0
  190.4350  172.2350  144.0770 C   0  0  0  0  0  1  0  0  0  0  0  0
  187.8520  175.8910  141.2320 C   0  0  1  0  0  3  0  0  0  0  0  0
  189.8760  173.5430  143.5420 C   0  0  1  0  0  3  0  0  0  0  0  0
  189.0800  173.6910  141.0700 C   0  0  0  0  0  2  0  0  0  0  0  0
  191.2060  175.6880  146.3150 C   0  0  0  0  0  0  0  0  0  0  0  0
  187.3070  177.0920  140.4680 C   0  0  0  0  0  2  0  0  0  0  0  0
  185.9860  177.4400  140.9720 N   0  0  0  0  0  2  0  0  0  0  0  0
  186.1320  178.6430  141.7780 C   0  0  0  0  0  2  0  0  0  0  0  0
  185.0780  178.6810  142.8770 C   0  0  0  0  0  2  0  0  0  0  0  0
  184.6710  179.2310  145.2510 C   0  0  0  0  0  2  0  0  0  0  0  0
  185.5730  179.4930  144.0610 C   0  0  0  0  0  3  0  0  0  0  0  0
  186.0170  178.5460  145.1560 C   0  0  0  0  0  2  0  0  0  0  0  0
  192.3000  175.6310  147.3270 C   0  0  0  0  0  2  0  0  0  0  0  0
  193.5070  176.4400  146.8730 C   0  0  0  0  0  2  0  0  0  0  0  0
  195.0110  177.0130  144.6660 S   0  0  0  0  0  0  0  0  0  0  0  0
  196.2510  174.6690  143.9720 C   0  0  0  0  0  0  0  0  0  0  0  0
  196.9060  173.7950  143.1100 O   0  0  0  0  0  1  0  0  0  0  0  0
  194.2260  175.7580  145.7190 C   0  0  1  0  0  3  0  0  0  0  0  0
  197.1370  173.4200  145.9220 O   0  0  0  0  0  1  0  0  0  0  0  0
  195.6470  175.7830  143.5030 C   0  0  0  0  0  0  0  0  0  0  0  0
  195.2910  174.8370  146.2300 C   0  0  0  0  0  3  0  0  0  0  0  0
  196.2120  174.3210  145.4110 C   0  0  0  0  0  0  0  0  0  0  0  0
  196.3580  176.9220  141.3880 O   0  0  0  0  0  0  0  0  0  0  0  0
  195.4960  176.0580  142.0560 C   0  0  0  0  0  0  0  0  0  0  0  0
  194.5870  175.4820  141.4000 O   0  0  0  0  0  1  0  0  0  0  0  0
  187.8170  174.4920  139.1260 C   0  0  0  0  0  2  0  0  0  0  0  0
  188.5130  173.3470  138.4150 C   0  0  0  0  0  2  0  0  0  0  0  0
  189.1790  174.2930  136.1960 C   0  0  0  0  0  3  0  0  0  0  0  0
  190.9120  174.0030  137.5540 C   0  0  0  0  0  0  0  0  0  0  0  0
  190.4510  174.6950  135.5660 C   0  0  0  0  0  3  0  0  0  0  0  0
  191.5900  173.6990  138.5700 O   0  0  0  0  0  0  0  0  0  0  0  0
  189.4810  173.8780  137.4160 C   0  0  0  0  0  0  0  0  0  0  0  0
  191.4620  174.5240  136.3600 N   0  0  0  0  0  0  0  0  0  0  0  0
  1 14  1  0  0  0  0
  2  3  1  0  0  0  0
  3 14  2  0  0  0  0
  4 12  1  0  0  0  0
  5 35  1  6  0  0  0
  5 13  1  0  0  0  0
  5 11  1  0  0  0  0
  6  7  1  0  0  0  0
  7  8  1  0  0  0  0
  8  2  2  0  0  0  0
  8  9  1  0  0  0  0
  9  1  2  0  0  0  0
 11 15  1  6  0  0  0
 11  6  1  0  0  0  0
 12 10  1  1  0  0  0
 12  2  1  0  0  0  0
 13  4  1  0  0  0  0
 14 22  1  0  0  0  0
 15 16  1  0  0  0  0
 16 17  1  0  0  0  0
 17 18  1  0  0  0  0
 18 20  1  0  0  0  0
 20 21  1  0  0  0  0
 20 19  1  0  0  0  0
 21 19  1  0  0  0  0
 23 22  1  0  0  0  0
 24 27  1  0  0  0  0
 25 31  1  0  0  0  0
 26 25  1  0  0  0  0
 27 30  1  0  0  0  0
 27 23  1  1  0  0  0
 29 25  2  0  0  0  0
 29 24  1  0  0  0  0
 31 28  1  0  0  0  0
 31 30  2  0  0  0  0
 32 33  2  0  0  0  0
 33 29  1  0  0  0  0
 34 33  1  0  0  0  0
 36 35  1  0  0  0  0
 37 41  2  0  0  0  0
 38 40  2  0  0  0  0
 39 37  1  0  0  0  0
 39 42  2  0  0  0  0
 41 38  1  0  0  0  0
 41 36  1  0  0  0  0
 42 38  1  0  0  0  0
M  END
>  <MODEL>
5

>  <REMARK>
 VINA RESULT:      -6.6      3.379      6.675
  Name = 
  12 active torsions:
  status: ('A' for Active; 'I' for Inactive)
    1  A    between atoms: C_1  and  C_15
    2  A    between atoms: C_1  and  C_16
    3  A    between atoms: C_7  and  N_10
    4  A    between atoms: C_7  and  C_36
    5  A    between atoms: N_10  and  C_16
    6  A    between atoms: C_11  and  C_24
    7  A    between atoms: C_12  and  C_30
    8  A    between atoms: C_12  and  C_42
    9  A    between atoms: C_18  and  C_23
   10  A    between atoms: C_20  and  C_30
   11  A    between atoms: C_23  and  C_34
   12  A    between atoms: C_34  and  C_38
                            x       y       z     vdW  Elec       q    Type
                         _______ _______ _______ _____ _____    ______ ____

>  <TORSDO>
F 12

$$$$
=
 OpenBabel11062420053D

 42 46  0  0  1  0  0  0  0  0999 V2000
  191.3370  176.7610  142.7540 C   0  0  0  0  0  3  0  0  0  0  0  0
  191.0360  174.0690  142.2340 C   0  0  0  0  0  0  0  0  0  0  0  0
  189.9450  174.8800  142.3370 N   0  0  0  0  0  0  0  0  0  0  0  0
  190.9210  171.6520  143.5140 S   0  0  0  0  0  0  0  0  0  0  0  0
  193.5200  170.7670  143.8290 C   0  0  1  0  0  3  0  0  0  0  0  0
  193.6580  173.1690  143.6890 O   0  0  0  0  0  0  0  0  0  0  0  0
  193.5420  173.7780  142.4370 C   0  0  0  0  0  2  0  0  0  0  0  0
  192.3150  174.6270  142.4220 C   0  0  0  0  0  0  0  0  0  0  0  0
  192.4290  175.9560  142.6790 N   0  0  0  0  0  0  0  0  0  0  0  0
  189.5920  172.2880  141.2010 C   0  0  0  0  0  1  0  0  0  0  0  0
  194.3790  171.9940  143.4640 C   0  0  1  0  0  3  0  0  0  0  0  0
  190.8670  172.5990  141.9650 C   0  0  1  0  0  3  0  0  0  0  0  0
  192.3140  170.6530  142.9080 C   0  0  0  0  0  2  0  0  0  0  0  0
  190.0680  176.2100  142.5860 C   0  0  0  0  0  0  0  0  0  0  0  0
  195.6570  172.0600  144.2930 C   0  0  0  0  0  2  0  0  0  0  0  0
  195.3480  172.5120  145.6420 N   0  0  0  0  0  2  0  0  0  0  0  0
  196.2600  173.6020  145.9530 C   0  0  0  0  0  2  0  0  0  0  0  0
  195.7420  174.9140  145.3780 C   0  0  0  0  0  2  0  0  0  0  0  0
  194.1500  176.7690  145.7310 C   0  0  0  0  0  2  0  0  0  0  0  0
  194.9360  175.6710  146.4190 C   0  0  0  0  0  3  0  0  0  0  0  0
  193.4610  175.4830  146.1320 C   0  0  0  0  0  2  0  0  0  0  0  0
  188.8570  177.0760  142.6490 C   0  0  0  0  0  2  0  0  0  0  0  0
  187.5850  176.2400  142.6590 C   0  0  0  0  0  2  0  0  0  0  0  0
  187.4590  177.9030  144.8220 S   0  0  0  0  0  0  0  0  0  0  0  0
  184.7900  178.3110  145.3010 C   0  0  0  0  0  0  0  0  0  0  0  0
  183.6860  178.6610  146.0720 O   0  0  0  0  0  1  0  0  0  0  0  0
  186.6180  176.7200  143.7300 C   0  0  1  0  0  3  0  0  0  0  0  0
  183.4740  178.6840  143.2330 O   0  0  0  0  0  1  0  0  0  0  0  0
  186.0010  178.1230  145.8700 C   0  0  0  0  0  0  0  0  0  0  0  0
  185.4390  177.4060  143.1090 C   0  0  0  0  0  3  0  0  0  0  0  0
  184.5870  178.1240  143.8460 C   0  0  0  0  0  0  0  0  0  0  0  0
  186.3050  176.9130  148.0430 O   0  0  0  0  0  1  0  0  0  0  0  0
  186.1970  178.1080  147.3380 C   0  0  0  0  0  0  0  0  0  0  0  0
  186.2960  179.1940  147.9680 O   0  0  0  0  0  0  0  0  0  0  0  0
  194.3150  169.4770  143.7000 C   0  0  0  0  0  2  0  0  0  0  0  0
  194.1050  168.6200  144.9350 C   0  0  0  0  0  2  0  0  0  0  0  0
  196.5680  168.6050  145.3840 C   0  0  0  0  0  3  0  0  0  0  0  0
  195.3620  168.7540  147.2440 C   0  0  0  0  0  0  0  0  0  0  0  0
  197.4140  168.6600  146.5910 C   0  0  0  0  0  3  0  0  0  0  0  0
  194.3720  168.8210  148.0170 O   0  0  0  0  0  0  0  0  0  0  0  0
  195.3140  168.6710  145.8040 C   0  0  0  0  0  0  0  0  0  0  0  0
  196.7090  168.7460  147.6760 N   0  0  0  0  0  0  0  0  0  0  0  0
  2  3  2  0  0  0  0
  2  8  1  0  0  0  0
  3 14  1  0  0  0  0
  5 35  1  6  0  0  0
  7  6  1  0  0  0  0
  8  7  1  0  0  0  0
  8  9  2  0  0  0  0
  9  1  1  0  0  0  0
 11  6  1  0  0  0  0
 11  5  1  0  0  0  0
 11 15  1  1  0  0  0
 12 10  1  1  0  0  0
 12  2  1  0  0  0  0
 12  4  1  0  0  0  0
 13  4  1  0  0  0  0
 13  5  1  0  0  0  0
 14 22  1  0  0  0  0
 14  1  2  0  0  0  0
 15 16  1  0  0  0  0
 16 17  1  0  0  0  0
 18 17  1  0  0  0  0
 18 20  1  0  0  0  0
 19 21  1  0  0  0  0
 19 20  1  0  0  0  0
 21 20  1  0  0  0  0
 22 23  1  0  0  0  0
 24 29  1  0  0  0  0
 25 29  2  0  0  0  0
 25 26  1  0  0  0  0
 27 23  1  6  0  0  0
 27 24  1  0  0  0  0
 28 31  1  0  0  0  0
 29 33  1  0  0  0  0
 30 27  1  0  0  0  0
 30 31  2  0  0  0  0
 31 25  1  0  0  0  0
 33 34  2  0  0  0  0
 33 32  1  0  0  0  0
 35 36  1  0  0  0  0
 36 41  1  0  0  0  0
 37 41  2  0  0  0  0
 37 39  1  0  0  0  0
 38 42  1  0  0  0  0
 38 40  2  0  0  0  0
 39 42  2  0  0  0  0
 41 38  1  0  0  0  0
M  END
>  <MODEL>
6

>  <REMARK>
 VINA RESULT:      -6.5      2.764     10.523
  Name = 
  12 active torsions:
  status: ('A' for Active; 'I' for Inactive)
    1  A    between atoms: C_1  and  C_15
    2  A    between atoms: C_1  and  C_16
    3  A    between atoms: C_7  and  N_10
    4  A    between atoms: C_7  and  C_36
    5  A    between atoms: N_10  and  C_16
    6  A    between atoms: C_11  and  C_24
    7  A    between atoms: C_12  and  C_30
    8  A    between atoms: C_12  and  C_42
    9  A    between atoms: C_18  and  C_23
   10  A    between atoms: C_20  and  C_30
   11  A    between atoms: C_23  and  C_34
   12  A    between atoms: C_34  and  C_38
                            x       y       z     vdW  Elec       q    Type
                         _______ _______ _______ _____ _____    ______ ____

>  <TORSDO>
F 12

$$$$
=
 OpenBabel11062420053D

 42 46  0  0  1  0  0  0  0  0999 V2000
  192.1160  171.5540  142.1410 C   0  0  0  0  0  3  0  0  0  0  0  0
  190.1960  173.5320  142.0400 C   0  0  0  0  0  0  0  0  0  0  0  0
  190.9190  173.2130  140.9300 N   0  0  0  0  0  0  0  0  0  0  0  0
  189.8480  176.1920  142.5820 S   0  0  0  0  0  0  0  0  0  0  0  0
  189.1760  176.4030  145.2550 C   0  0  1  0  0  3  0  0  0  0  0  0
  190.4260  174.3520  145.0530 O   0  0  0  0  0  0  0  0  0  0  0  0
  189.7920  173.2270  144.5200 C   0  0  0  0  0  2  0  0  0  0  0  0
  190.4650  172.8500  143.2420 C   0  0  0  0  0  0  0  0  0  0  0  0
  191.4180  171.8820  143.2590 N   0  0  0  0  0  0  0  0  0  0  0  0
  188.5710  174.7970  140.5960 C   0  0  0  0  0  1  0  0  0  0  0  0
  189.4540  174.9960  145.8210 C   0  0  1  0  0  3  0  0  0  0  0  0
  189.1600  174.6210  141.9850 C   0  0  1  0  0  3  0  0  0  0  0  0
  188.5640  176.3190  143.8640 C   0  0  0  0  0  2  0  0  0  0  0  0
  191.8660  172.2390  140.9520 C   0  0  0  0  0  0  0  0  0  0  0  0
  189.9530  175.0520  147.2610 C   0  0  0  0  0  2  0  0  0  0  0  0
  191.4080  175.0180  147.2810 N   0  0  0  0  0  2  0  0  0  0  0  0
  191.8680  176.3580  147.6110 C   0  0  0  0  0  2  0  0  0  0  0  0
  193.1530  176.6830  146.8600 C   0  0  0  0  0  2  0  0  0  0  0  0
  194.5120  176.0300  144.9030 C   0  0  0  0  0  2  0  0  0  0  0  0
  193.5520  175.5250  145.9620 C   0  0  0  0  0  3  0  0  0  0  0  0
  195.0400  175.2810  146.1060 C   0  0  0  0  0  2  0  0  0  0  0  0
  192.6080  171.8850  139.7090 C   0  0  0  0  0  2  0  0  0  0  0  0
  194.0750  171.6070  140.0090 C   0  0  0  0  0  2  0  0  0  0  0  0
  195.7020  173.2660  141.4450 S   0  0  0  0  0  0  0  0  0  0  0  0
  197.1270  174.7050  139.5980 C   0  0  0  0  0  0  0  0  0  0  0  0
  197.8950  175.7760  139.1520 O   0  0  0  0  0  1  0  0  0  0  0  0
  194.9170  172.8640  139.8570 C   0  0  1  0  0  3  0  0  0  0  0  0
  197.9380  173.3270  137.7030 O   0  0  0  0  0  1  0  0  0  0  0  0
  196.4940  174.7540  140.7910 C   0  0  0  0  0  0  0  0  0  0  0  0
  195.9940  172.6600  138.8360 C   0  0  0  0  0  3  0  0  0  0  0  0
  197.0020  173.5270  138.7090 C   0  0  0  0  0  0  0  0  0  0  0  0
  197.3280  176.2050  142.6540 O   0  0  0  0  0  1  0  0  0  0  0  0
  196.4350  175.9850  141.6110 C   0  0  0  0  0  0  0  0  0  0  0  0
  195.5780  176.8710  141.3500 O   0  0  0  0  0  0  0  0  0  0  0  0
  188.2030  177.1720  146.1350 C   0  0  0  0  0  2  0  0  0  0  0  0
  186.8750  176.4420  146.1910 C   0  0  0  0  0  2  0  0  0  0  0  0
  185.1400  178.0530  147.0040 C   0  0  0  0  0  3  0  0  0  0  0  0
  185.0950  177.7920  144.7980 C   0  0  0  0  0  0  0  0  0  0  0  0
  184.0830  178.8650  146.3700 C   0  0  0  0  0  3  0  0  0  0  0  0
  185.3800  177.3840  143.6430 O   0  0  0  0  0  0  0  0  0  0  0  0
  185.7530  177.4070  146.0240 C   0  0  0  0  0  0  0  0  0  0  0  0
  184.0580  178.7110  145.0830 N   0  0  0  0  0  0  0  0  0  0  0  0
  1  9  1  0  0  0  0
  2  8  1  0  0  0  0
  3 14  1  0  0  0  0
  3  2  2  0  0  0  0
  4 13  1  0  0  0  0
  5 11  1  0  0  0  0
  5 35  1  1  0  0  0
  6 11  1  0  0  0  0
  7  6  1  0  0  0  0
  8  9  2  0  0  0  0
  8  7  1  0  0  0  0
 11 15  1  1  0  0  0
 12 10  1  6  0  0  0
 12  2  1  0  0  0  0
 12  4  1  0  0  0  0
 13  5  1  0  0  0  0
 14  1  2  0  0  0  0
 15 16  1  0  0  0  0
 16 17  1  0  0  0  0
 18 17  1  0  0  0  0
 19 20  1  0  0  0  0
 19 21  1  0  0  0  0
 20 21  1  0  0  0  0
 20 18  1  0  0  0  0
 22 23  1  0  0  0  0
 22 14  1  0  0  0  0
 25 29  2  0  0  0  0
 26 25  1  0  0  0  0
 27 23  1  1  0  0  0
 27 24  1  0  0  0  0
 28 31  1  0  0  0  0
 29 24  1  0  0  0  0
 29 33  1  0  0  0  0
 30 27  1  0  0  0  0
 31 30  2  0  0  0  0
 31 25  1  0  0  0  0
 33 32  1  0  0  0  0
 34 33  2  0  0  0  0
 35 36  1  0  0  0  0
 38 42  1  0  0  0  0
 38 41  1  0  0  0  0
 39 37  1  0  0  0  0
 40 38  2  0  0  0  0
 41 36  1  0  0  0  0
 41 37  2  0  0  0  0
 42 39  2  0  0  0  0
M  END
>  <MODEL>
7

>  <REMARK>
 VINA RESULT:      -6.5      3.709      5.932
  Name = 
  12 active torsions:
  status: ('A' for Active; 'I' for Inactive)
    1  A    between atoms: C_1  and  C_15
    2  A    between atoms: C_1  and  C_16
    3  A    between atoms: C_7  and  N_10
    4  A    between atoms: C_7  and  C_36
    5  A    between atoms: N_10  and  C_16
    6  A    between atoms: C_11  and  C_24
    7  A    between atoms: C_12  and  C_30
    8  A    between atoms: C_12  and  C_42
    9  A    between atoms: C_18  and  C_23
   10  A    between atoms: C_20  and  C_30
   11  A    between atoms: C_23  and  C_34
   12  A    between atoms: C_34  and  C_38
                            x       y       z     vdW  Elec       q    Type
                         _______ _______ _______ _____ _____    ______ ____

>  <TORSDO>
F 12

$$$$
=
 OpenBabel11062420053D

 42 46  0  0  1  0  0  0  0  0999 V2000
  195.1750  175.2520  142.7670 C   0  0  0  0  0  3  0  0  0  0  0  0
  193.3340  175.9550  144.6960 C   0  0  0  0  0  0  0  0  0  0  0  0
  194.5220  175.3900  145.0480 N   0  0  0  0  0  0  0  0  0  0  0  0
  191.0840  175.0120  145.9380 S   0  0  0  0  0  0  0  0  0  0  0  0
  188.9240  175.7130  144.3640 C   0  0  1  0  0  3  0  0  0  0  0  0
  190.8130  175.6030  142.8720 O   0  0  0  0  0  0  0  0  0  0  0  0
  191.7300  176.6580  142.8680 C   0  0  0  0  0  2  0  0  0  0  0  0
  193.0550  176.1510  143.3290 C   0  0  0  0  0  0  0  0  0  0  0  0
  193.9830  175.7910  142.4040 N   0  0  0  0  0  0  0  0  0  0  0  0
  192.9700  176.6380  147.0890 C   0  0  0  0  0  1  0  0  0  0  0  0
  189.5630  176.2010  143.0480 C   0  0  1  0  0  3  0  0  0  0  0  0
  192.3260  176.3240  145.7490 C   0  0  1  0  0  3  0  0  0  0  0  0
  189.7350  176.1730  145.5670 C   0  0  0  0  0  2  0  0  0  0  0  0
  195.4480  175.0400  144.1180 C   0  0  0  0  0  0  0  0  0  0  0  0
  188.7020  175.8570  141.8370 C   0  0  0  0  0  2  0  0  0  0  0  0
  188.6160  174.4110  141.6880 N   0  0  0  0  0  2  0  0  0  0  0  0
  189.3170  174.0600  140.4620 C   0  0  0  0  0  2  0  0  0  0  0  0
  190.0350  172.7260  140.6200 C   0  0  0  0  0  2  0  0  0  0  0  0
  190.6360  170.8950  142.1660 C   0  0  0  0  0  2  0  0  0  0  0  0
  189.9540  172.2440  142.0580 C   0  0  0  0  0  3  0  0  0  0  0  0
  191.3550  172.1450  142.6240 C   0  0  0  0  0  2  0  0  0  0  0  0
  196.7570  174.4640  144.5390 C   0  0  0  0  0  2  0  0  0  0  0  0
  196.6400  173.7740  145.8910 C   0  0  0  0  0  2  0  0  0  0  0  0
  194.9860  171.6040  145.7500 S   0  0  0  0  0  0  0  0  0  0  0  0
  196.5010  169.5720  144.7050 C   0  0  0  0  0  0  0  0  0  0  0  0
  196.8230  168.2440  144.4430 O   0  0  0  0  0  1  0  0  0  0  0  0
  196.6800  172.2610  145.7430 C   0  0  1  0  0  3  0  0  0  0  0  0
  197.9400  170.2980  142.8200 O   0  0  0  0  0  1  0  0  0  0  0  0
  195.5440  169.8900  145.6040 C   0  0  0  0  0  0  0  0  0  0  0  0
  197.3330  171.8720  144.4510 C   0  0  0  0  0  3  0  0  0  0  0  0
  197.2620  170.6220  143.9880 C   0  0  0  0  0  0  0  0  0  0  0  0
  193.7860  168.1660  146.0630 O   0  0  0  0  0  0  0  0  0  0  0  0
  194.9060  168.8790  146.4780 C   0  0  0  0  0  0  0  0  0  0  0  0
  195.3950  168.6340  147.6130 O   0  0  0  0  0  1  0  0  0  0  0  0
  187.5140  176.2590  144.5300 C   0  0  0  0  0  2  0  0  0  0  0  0
  187.5690  177.6480  145.1370 C   0  0  0  0  0  2  0  0  0  0  0  0
  185.5810  178.5610  146.3510 C   0  0  0  0  0  3  0  0  0  0  0  0
  185.2700  178.4710  144.1530 C   0  0  0  0  0  0  0  0  0  0  0  0
  184.2430  179.0450  145.9590 C   0  0  0  0  0  3  0  0  0  0  0  0
  185.4800  178.2640  142.9300 O   0  0  0  0  0  0  0  0  0  0  0  0
  186.1980  178.2200  145.2300 C   0  0  0  0  0  0  0  0  0  0  0  0
  184.0630  178.9910  144.6750 N   0  0  0  0  0  0  0  0  0  0  0  0
  1 14  1  0  0  0  0
  2  3  1  0  0  0  0
  2 12  1  0  0  0  0
  5 35  1  1  0  0  0
  5 13  1  0  0  0  0
  6 11  1  0  0  0  0
  7  6  1  0  0  0  0
  7  8  1  0  0  0  0
  8  2  2  0  0  0  0
  9  1  2  0  0  0  0
  9  8  1  0  0  0  0
 11 15  1  6  0  0  0
 11  5  1  0  0  0  0
 12  4  1  0  0  0  0
 12 10  1  1  0  0  0
 13  4  1  0  0  0  0
 14 22  1  0  0  0  0
 14  3  2  0  0  0  0
 16 15  1  0  0  0  0
 17 18  1  0  0  0  0
 17 16  1  0  0  0  0
 18 20  1  0  0  0  0
 19 21  1  0  0  0  0
 20 19  1  0  0  0  0
 20 21  1  0  0  0  0
 22 23  1  0  0  0  0
 25 29  2  0  0  0  0
 26 25  1  0  0  0  0
 27 24  1  0  0  0  0
 27 23  1  6  0  0  0
 28 31  1  0  0  0  0
 29 24  1  0  0  0  0
 29 33  1  0  0  0  0
 30 27  1  0  0  0  0
 31 30  2  0  0  0  0
 31 25  1  0  0  0  0
 32 33  2  0  0  0  0
 33 34  1  0  0  0  0
 35 36  1  0  0  0  0
 36 41  1  0  0  0  0
 38 42  1  0  0  0  0
 38 41  1  0  0  0  0
 39 37  1  0  0  0  0
 40 38  2  0  0  0  0
 41 37  2  0  0  0  0
 42 39  2  0  0  0  0
M  END
>  <MODEL>
8

>  <REMARK>
 VINA RESULT:      -6.5      1.795      3.025
  Name = 
  12 active torsions:
  status: ('A' for Active; 'I' for Inactive)
    1  A    between atoms: C_1  and  C_15
    2  A    between atoms: C_1  and  C_16
    3  A    between atoms: C_7  and  N_10
    4  A    between atoms: C_7  and  C_36
    5  A    between atoms: N_10  and  C_16
    6  A    between atoms: C_11  and  C_24
    7  A    between atoms: C_12  and  C_30
    8  A    between atoms: C_12  and  C_42
    9  A    between atoms: C_18  and  C_23
   10  A    between atoms: C_20  and  C_30
   11  A    between atoms: C_23  and  C_34
   12  A    between atoms: C_34  and  C_38
                            x       y       z     vdW  Elec       q    Type
                         _______ _______ _______ _____ _____    ______ ____

>  <TORSDO>
F 12

$$$$
=
 OpenBabel11062420053D

 42 46  0  0  1  0  0  0  0  0999 V2000
  191.8260  170.9250  143.3700 C   0  0  0  0  0  3  0  0  0  0  0  0
  189.5880  172.4340  142.8060 C   0  0  0  0  0  0  0  0  0  0  0  0
  189.9920  171.4520  141.9530 N   0  0  0  0  0  0  0  0  0  0  0  0
  188.8570  174.8290  141.6990 S   0  0  0  0  0  0  0  0  0  0  0  0
  188.9960  176.7320  143.6970 C   0  0  1  0  0  3  0  0  0  0  0  0
  190.5370  174.9940  144.3400 O   0  0  0  0  0  0  0  0  0  0  0  0
  190.0280  173.8120  144.8840 C   0  0  0  0  0  2  0  0  0  0  0  0
  190.3480  172.6790  143.9670 C   0  0  0  0  0  0  0  0  0  0  0  0
  191.4460  171.9190  144.2140 N   0  0  0  0  0  0  0  0  0  0  0  0
  187.3710  172.5250  141.6220 C   0  0  0  0  0  1  0  0  0  0  0  0
  189.7270  176.0130  144.8480 C   0  0  1  0  0  3  0  0  0  0  0  0
  188.3760  173.2660  142.4880 C   0  0  1  0  0  3  0  0  0  0  0  0
  188.0250  175.7930  142.9970 C   0  0  0  0  0  2  0  0  0  0  0  0
  191.0880  170.6910  142.2110 C   0  0  0  0  0  0  0  0  0  0  0  0
  190.6140  176.9660  145.6420 C   0  0  0  0  0  2  0  0  0  0  0  0
  190.5370  176.6480  147.0600 N   0  0  0  0  0  2  0  0  0  0  0  0
  191.8940  176.6680  147.5840 C   0  0  0  0  0  2  0  0  0  0  0  0
  192.7930  175.7410  146.7770 C   0  0  0  0  0  2  0  0  0  0  0  0
  195.0510  175.3940  145.8370 C   0  0  0  0  0  2  0  0  0  0  0  0
  194.1450  176.3890  146.5340 C   0  0  0  0  0  3  0  0  0  0  0  0
  194.3810  176.4930  145.0420 C   0  0  0  0  0  2  0  0  0  0  0  0
  191.4780  169.5960  141.2780 C   0  0  0  0  0  2  0  0  0  0  0  0
  192.2390  170.1440  140.0790 C   0  0  0  0  0  2  0  0  0  0  0  0
  191.5070  172.3320  138.6160 S   0  0  0  0  0  0  0  0  0  0  0  0
  190.1820  171.3590  136.4220 C   0  0  0  0  0  0  0  0  0  0  0  0
  189.3170  171.4340  135.3350 O   0  0  0  0  0  1  0  0  0  0  0  0
  191.2890  170.5630  138.9680 C   0  0  1  0  0  3  0  0  0  0  0  0
  191.2770  169.3720  135.4230 O   0  0  0  0  0  1  0  0  0  0  0  0
  190.2160  172.3410  137.3500 C   0  0  0  0  0  0  0  0  0  0  0  0
  191.5710  169.7930  137.7130 C   0  0  0  0  0  3  0  0  0  0  0  0
  191.0390  170.1570  136.5430 C   0  0  0  0  0  0  0  0  0  0  0  0
  189.4220  174.5910  136.5860 O   0  0  0  0  0  0  0  0  0  0  0  0
  189.2400  173.4540  137.3680 C   0  0  0  0  0  0  0  0  0  0  0  0
  188.2060  173.3700  138.0820 O   0  0  0  0  0  1  0  0  0  0  0  0
  188.1940  177.9190  144.2080 C   0  0  0  0  0  2  0  0  0  0  0  0
  186.8260  177.9340  143.5520 C   0  0  0  0  0  2  0  0  0  0  0  0
  184.9170  179.1910  144.5730 C   0  0  0  0  0  3  0  0  0  0  0  0
  185.5020  177.4110  145.7670 C   0  0  0  0  0  0  0  0  0  0  0  0
  184.0920  179.0410  145.7870 C   0  0  0  0  0  3  0  0  0  0  0  0
  186.1110  176.3740  146.1350 O   0  0  0  0  0  0  0  0  0  0  0  0
  185.7710  178.1790  144.5750 C   0  0  0  0  0  0  0  0  0  0  0  0
  184.4350  178.0020  146.4830 N   0  0  0  0  0  0  0  0  0  0  0  0
  1  9  1  0  0  0  0
  2  8  1  0  0  0  0
  3 14  1  0  0  0  0
  3  2  2  0  0  0  0
  4 12  1  0  0  0  0
  4 13  1  0  0  0  0
  5 35  1  1  0  0  0
  5 11  1  0  0  0  0
  6 11  1  0  0  0  0
  6  7  1  0  0  0  0
  8  9  2  0  0  0  0
  8  7  1  0  0  0  0
 11 15  1  6  0  0  0
 12 10  1  6  0  0  0
 12  2  1  0  0  0  0
 13  5  1  0  0  0  0
 14  1  2  0  0  0  0
 15 16  1  0  0  0  0
 16 17  1  0  0  0  0
 18 17  1  0  0  0  0
 19 20  1  0  0  0  0
 20 18  1  0  0  0  0
 21 19  1  0  0  0  0
 21 20  1  0  0  0  0
 22 14  1  0  0  0  0
 23 22  1  0  0  0  0
 24 27  1  0  0  0  0
 25 31  1  0  0  0  0
 25 29  2  0  0  0  0
 26 25  1  0  0  0  0
 27 23  1  1  0  0  0
 28 31  1  0  0  0  0
 29 33  1  0  0  0  0
 29 24  1  0  0  0  0
 30 27  1  0  0  0  0
 31 30  2  0  0  0  0
 32 33  2  0  0  0  0
 33 34  1  0  0  0  0
 36 35  1  0  0  0  0
 36 41  1  0  0  0  0
 37 41  2  0  0  0  0
 37 39  1  0  0  0  0
 38 40  2  0  0  0  0
 38 42  1  0  0  0  0
 39 42  2  0  0  0  0
 41 38  1  0  0  0  0
M  END
>  <MODEL>
9

>  <REMARK>
 VINA RESULT:      -6.4      4.717      7.446
  Name = 
  12 active torsions:
  status: ('A' for Active; 'I' for Inactive)
    1  A    between atoms: C_1  and  C_15
    2  A    between atoms: C_1  and  C_16
    3  A    between atoms: C_7  and  N_10
    4  A    between atoms: C_7  and  C_36
    5  A    between atoms: N_10  and  C_16
    6  A    between atoms: C_11  and  C_24
    7  A    between atoms: C_12  and  C_30
    8  A    between atoms: C_12  and  C_42
    9  A    between atoms: C_18  and  C_23
   10  A    between atoms: C_20  and  C_30
   11  A    between atoms: C_23  and  C_34
   12  A    between atoms: C_34  and  C_38
                            x       y       z     vdW  Elec       q    Type
                         _______ _______ _______ _____ _____    ______ ____

>  <TORSDO>
F 12

$$$$
