=
 OpenBabel11062421153D

 33 36  0  0  1  0  0  0  0  0999 V2000
  191.0670  174.4130  141.4040 C   0  0  0  0  0  0  0  0  0  0  0  0
  189.3110  171.9440  139.2680 N   0  0  0  0  0  1  0  0  0  0  0  0
  192.9250  173.8310  140.5140 C   0  0  0  0  0  3  0  0  0  0  0  0
  190.8370  173.4290  140.4910 C   0  0  0  0  0  0  0  0  0  0  0  0
  188.7270  174.5520  141.9150 C   0  0  0  0  0  0  0  0  0  0  0  0
  188.4880  173.5280  140.9620 C   0  0  0  0  0  3  0  0  0  0  0  0
  189.5510  172.9560  140.2380 C   0  0  0  0  0  0  0  0  0  0  0  0
  190.0420  175.0060  142.1380 C   0  0  0  0  0  3  0  0  0  0  0  0
  191.9920  173.0410  139.9170 N   0  0  0  0  0  0  0  0  0  0  0  0
  192.3790  174.6730  141.4240 N   0  0  0  0  0  0  0  0  0  0  0  0
  192.2570  176.8920  142.8550 O   0  0  0  0  0  0  0  0  0  0  0  0
  193.2190  175.8300  142.4020 S   0  0  0  0  0  0  0  0  0  0  0  0
  194.3050  176.4770  141.5910 O   0  0  0  0  0  0  0  0  0  0  0  0
  193.9200  175.0260  143.8250 C   0  0  0  0  0  2  0  0  0  0  0  0
  192.9940  174.1340  144.3630 O   0  0  0  0  0  0  0  0  0  0  0  0
  193.2770  174.1170  145.7270 C   0  0  0  0  0  2  0  0  0  0  0  0
  193.0900  175.7890  146.4110 S   0  0  0  0  0  0  0  0  0  0  0  0
  191.6870  175.2900  147.4630 C   0  0  1  0  0  3  0  0  0  0  0  0
  190.8410  176.4680  147.7360 N   0  0  0  0  0  2  0  0  0  0  0  0
  190.3410  175.9270  145.4910 O   0  0  0  0  0  1  0  0  0  0  0  0
  190.3920  175.4360  146.7980 C   0  0  1  0  0  0  0  0  0  0  0  0
  189.1980  174.6700  147.3260 C   0  0  0  0  0  1  0  0  0  0  0  0
  186.8010  176.2140  142.2200 C   0  0  0  0  0  0  0  0  0  0  0  0
  187.6600  175.1550  142.6580 N   0  0  0  0  0  2  0  0  0  0  0  0
  186.9340  176.7220  141.0730 O   0  0  0  0  0  0  0  0  0  0  0  0
  185.8150  176.6870  143.0890 O   0  0  0  0  0  0  0  0  0  0  0  0
  184.6150  178.2660  144.5060 C   0  0  0  0  0  2  0  0  0  0  0  0
  184.8630  178.9280  146.9120 C   0  0  0  0  0  1  0  0  0  0  0  0
  185.7710  176.7060  146.1690 C   0  0  0  0  0  2  0  0  0  0  0  0
  185.8750  177.9840  143.6730 C   0  0  1  0  0  3  0  0  0  0  0  0
  187.1620  177.1880  145.7310 C   0  0  0  0  0  2  0  0  0  0  0  0
  187.1390  178.1290  144.5170 C   0  0  0  0  0  2  0  0  0  0  0  0
  184.6830  177.7620  145.9560 C   0  0  2  0  0  3  0  0  0  0  0  0
  1 10  1  0  0  0  0
  1  8  1  0  0  0  0
  2  7  1  0  0  0  0
  3 10  1  0  0  0  0
  4  1  2  0  0  0  0
  5  8  2  0  0  0  0
  5 24  1  0  0  0  0
  6  5  1  0  0  0  0
  7  4  1  0  0  0  0
  7  6  2  0  0  0  0
  9  4  1  0  0  0  0
  9  3  2  0  0  0  0
 10 12  1  0  0  0  0
 12 11  2  0  0  0  0
 12 14  1  0  0  0  0
 13 12  2  0  0  0  0
 14 15  1  0  0  0  0
 15 16  1  0  0  0  0
 16 17  1  0  0  0  0
 18 17  1  6  0  0  0
 18 19  1  0  0  0  0
 20 21  1  0  0  0  0
 21 22  1  1  0  0  0
 21 18  1  0  0  0  0
 21 19  1  0  0  0  0
 23 24  1  0  0  0  0
 23 26  1  0  0  0  0
 25 23  2  0  0  0  0
 27 33  1  0  0  0  0
 30 26  1  1  0  0  0
 30 27  1  0  0  0  0
 30 32  1  0  0  0  0
 31 29  1  0  0  0  0
 32 31  1  0  0  0  0
 33 29  1  0  0  0  0
 33 28  1  1  0  0  0
M  END
>  <MODEL>
1

>  <REMARK>
 VINA RESULT:      -6.9      0.000      0.000
  Name = 
  9 active torsions:
  status: ('A' for Active; 'I' for Inactive)
    1  A    between atoms: C_2  and  S_25
    2  A    between atoms: S_8  and  C_18
    3  A    between atoms: S_8  and  N_32
    4  A    between atoms: C_11  and  O_16
    5  A    between atoms: O_13  and  C_18
    6  A    between atoms: O_13  and  C_23
    7  A    between atoms: C_14  and  N_22
    8  A    between atoms: O_16  and  C_19
    9  A    between atoms: C_23  and  S_25
                            x       y       z     vdW  Elec       q    Type
                         _______ _______ _______ _____ _____    ______ ____

>  <TORSDO>
F 9

$$$$
=
 OpenBabel11062421153D

 33 36  0  0  1  0  0  0  0  0999 V2000
  187.2130  177.5040  144.2220 C   0  0  0  0  0  0  0  0  0  0  0  0
  185.6270  177.7170  147.5650 N   0  0  0  0  0  1  0  0  0  0  0  0
  185.2950  177.7970  143.3150 C   0  0  0  0  0  3  0  0  0  0  0  0
  186.2720  177.6240  145.1970 C   0  0  0  0  0  0  0  0  0  0  0  0
  188.9470  177.2490  145.8590 C   0  0  0  0  0  0  0  0  0  0  0  0
  187.9650  177.3770  146.8760 C   0  0  0  0  0  3  0  0  0  0  0  0
  186.6100  177.5670  146.5470 C   0  0  0  0  0  0  0  0  0  0  0  0
  188.5640  177.3160  144.5050 C   0  0  0  0  0  3  0  0  0  0  0  0
  185.0530  177.8080  144.6540 N   0  0  0  0  0  0  0  0  0  0  0  0
  186.6070  177.6120  143.0330 N   0  0  0  0  0  0  0  0  0  0  0  0
  188.5160  178.4500  141.4080 O   0  0  0  0  0  0  0  0  0  0  0  0
  187.3290  177.5300  141.4610 S   0  0  0  0  0  0  0  0  0  0  0  0
  186.3310  177.9690  140.4280 O   0  0  0  0  0  0  0  0  0  0  0  0
  187.8590  175.8660  141.1230 C   0  0  0  0  0  2  0  0  0  0  0  0
  187.4470  175.0250  142.1550 O   0  0  0  0  0  0  0  0  0  0  0  0
  188.6140  174.3920  142.5770 C   0  0  0  0  0  2  0  0  0  0  0  0
  188.5640  172.6380  142.1060 S   0  0  0  0  0  0  0  0  0  0  0  0
  189.8620  172.8550  140.8460 C   0  0  1  0  0  3  0  0  0  0  0  0
  189.9800  171.6180  140.0500 N   0  0  0  0  0  2  0  0  0  0  0  0
  187.9810  172.6000  139.2630 O   0  0  0  0  0  1  0  0  0  0  0  0
  189.3460  172.8070  139.4780 C   0  0  1  0  0  0  0  0  0  0  0  0
  190.1690  173.4020  138.3550 C   0  0  0  0  0  1  0  0  0  0  0  0
  191.0030  175.8130  146.3840 C   0  0  0  0  0  0  0  0  0  0  0  0
  190.3340  177.0610  146.1690 N   0  0  0  0  0  2  0  0  0  0  0  0
  190.3750  174.7210  146.3090 O   0  0  0  0  0  0  0  0  0  0  0  0
  192.3660  175.8210  146.6890 O   0  0  0  0  0  0  0  0  0  0  0  0
  194.7630  176.0400  146.3010 C   0  0  0  0  0  2  0  0  0  0  0  0
  196.3720  174.8040  144.8280 C   0  0  0  0  0  1  0  0  0  0  0  0
  194.2220  173.6790  145.4830 C   0  0  0  0  0  2  0  0  0  0  0  0
  193.3440  176.3270  145.7850 C   0  0  1  0  0  3  0  0  0  0  0  0
  193.3510  174.2200  144.3410 C   0  0  0  0  0  2  0  0  0  0  0  0
  193.1340  175.7390  144.3910 C   0  0  0  0  0  2  0  0  0  0  0  0
  195.3170  174.6610  145.9100 C   0  0  2  0  0  3  0  0  0  0  0  0
  1  8  2  0  0  0  0
  1  4  1  0  0  0  0
  3  9  2  0  0  0  0
  4  7  2  0  0  0  0
  5 24  1  0  0  0  0
  5  6  2  0  0  0  0
  7  6  1  0  0  0  0
  7  2  1  0  0  0  0
  8  5  1  0  0  0  0
  9  4  1  0  0  0  0
 10  3  1  0  0  0  0
 10  1  1  0  0  0  0
 11 12  2  0  0  0  0
 12 10  1  0  0  0  0
 13 12  2  0  0  0  0
 14 12  1  0  0  0  0
 14 15  1  0  0  0  0
 15 16  1  0  0  0  0
 17 16  1  0  0  0  0
 18 17  1  1  0  0  0
 19 18  1  0  0  0  0
 20 21  1  0  0  0  0
 21 22  1  6  0  0  0
 21 19  1  0  0  0  0
 21 18  1  0  0  0  0
 23 26  1  0  0  0  0
 24 23  1  0  0  0  0
 25 23  2  0  0  0  0
 29 33  1  0  0  0  0
 30 27  1  0  0  0  0
 30 26  1  1  0  0  0
 31 32  1  0  0  0  0
 31 29  1  0  0  0  0
 32 30  1  0  0  0  0
 33 28  1  6  0  0  0
 33 27  1  0  0  0  0
M  END
>  <MODEL>
2

>  <REMARK>
 VINA RESULT:      -6.7      2.638      7.760
  Name = 
  9 active torsions:
  status: ('A' for Active; 'I' for Inactive)
    1  A    between atoms: C_2  and  S_25
    2  A    between atoms: S_8  and  C_18
    3  A    between atoms: S_8  and  N_32
    4  A    between atoms: C_11  and  O_16
    5  A    between atoms: O_13  and  C_18
    6  A    between atoms: O_13  and  C_23
    7  A    between atoms: C_14  and  N_22
    8  A    between atoms: O_16  and  C_19
    9  A    between atoms: C_23  and  S_25
                            x       y       z     vdW  Elec       q    Type
                         _______ _______ _______ _____ _____    ______ ____

>  <TORSDO>
F 9

$$$$
=
 OpenBabel11062421153D

 33 36  0  0  1  0  0  0  0  0999 V2000
  187.1550  177.5220  144.2220 C   0  0  0  0  0  0  0  0  0  0  0  0
  185.4720  177.8570  147.5070 N   0  0  0  0  0  1  0  0  0  0  0  0
  185.2790  177.8670  143.2480 C   0  0  0  0  0  3  0  0  0  0  0  0
  186.1880  177.6950  145.1640 C   0  0  0  0  0  0  0  0  0  0  0  0
  188.8250  177.2360  145.9190 C   0  0  0  0  0  0  0  0  0  0  0  0
  187.8160  177.4190  146.9010 C   0  0  0  0  0  3  0  0  0  0  0  0
  186.4810  177.6520  146.5250 C   0  0  0  0  0  0  0  0  0  0  0  0
  188.4890  177.2910  144.5530 C   0  0  0  0  0  3  0  0  0  0  0  0
  184.9950  177.9120  144.5780 N   0  0  0  0  0  0  0  0  0  0  0  0
  186.5920  177.6290  143.0120 N   0  0  0  0  0  0  0  0  0  0  0  0
  188.5670  178.3850  141.4260 O   0  0  0  0  0  0  0  0  0  0  0  0
  187.3600  177.4900  141.4660 S   0  0  0  0  0  0  0  0  0  0  0  0
  186.4040  177.9220  140.3910 O   0  0  0  0  0  0  0  0  0  0  0  0
  187.8650  175.8080  141.1890 C   0  0  0  0  0  2  0  0  0  0  0  0
  187.2740  174.9780  142.1390 O   0  0  0  0  0  0  0  0  0  0  0  0
  188.0780  173.8410  142.1600 C   0  0  0  0  0  2  0  0  0  0  0  0
  188.8270  173.5910  140.5240 S   0  0  0  0  0  0  0  0  0  0  0  0
  189.9980  172.3480  141.1590 C   0  0  1  0  0  3  0  0  0  0  0  0
  191.0460  172.1060  140.1490 N   0  0  0  0  0  2  0  0  0  0  0  0
  191.6120  174.2160  141.0470 O   0  0  0  0  0  1  0  0  0  0  0  0
  191.3470  172.8790  141.3560 C   0  0  1  0  0  0  0  0  0  0  0  0
  192.3050  172.1490  142.2730 C   0  0  0  0  0  1  0  0  0  0  0  0
  190.7420  175.8050  146.8380 C   0  0  0  0  0  0  0  0  0  0  0  0
  190.1940  177.0050  146.2780 N   0  0  0  0  0  2  0  0  0  0  0  0
  190.0080  174.8060  147.0690 O   0  0  0  0  0  0  0  0  0  0  0  0
  192.1060  175.7620  147.1370 O   0  0  0  0  0  0  0  0  0  0  0  0
  192.5640  174.8030  144.9440 C   0  0  0  0  0  2  0  0  0  0  0  0
  194.1440  175.4360  143.1010 C   0  0  0  0  0  1  0  0  0  0  0  0
  193.4660  177.1880  144.7700 C   0  0  0  0  0  2  0  0  0  0  0  0
  193.0190  174.9520  146.4040 C   0  0  1  0  0  3  0  0  0  0  0  0
  194.5530  176.9070  145.8170 C   0  0  0  0  0  2  0  0  0  0  0  0
  194.4290  175.5320  146.4870 C   0  0  0  0  0  2  0  0  0  0  0  0
  193.0340  175.9310  144.0110 C   0  0  2  0  0  3  0  0  0  0  0  0
  1  8  2  0  0  0  0
  1  4  1  0  0  0  0
  3  9  2  0  0  0  0
  4  7  2  0  0  0  0
  5 24  1  0  0  0  0
  5  6  2  0  0  0  0
  7  6  1  0  0  0  0
  7  2  1  0  0  0  0
  8  5  1  0  0  0  0
  9  4  1  0  0  0  0
 10  3  1  0  0  0  0
 10  1  1  0  0  0  0
 11 12  2  0  0  0  0
 12 10  1  0  0  0  0
 13 12  2  0  0  0  0
 14 12  1  0  0  0  0
 14 15  1  0  0  0  0
 15 16  1  0  0  0  0
 17 16  1  0  0  0  0
 18 17  1  6  0  0  0
 18 21  1  0  0  0  0
 19 18  1  0  0  0  0
 19 21  1  0  0  0  0
 20 21  1  0  0  0  0
 21 22  1  1  0  0  0
 23 25  2  0  0  0  0
 23 26  1  0  0  0  0
 24 23  1  0  0  0  0
 27 30  1  0  0  0  0
 29 31  1  0  0  0  0
 30 32  1  0  0  0  0
 30 26  1  1  0  0  0
 31 32  1  0  0  0  0
 33 28  1  1  0  0  0
 33 29  1  0  0  0  0
 33 27  1  0  0  0  0
M  END
>  <MODEL>
3

>  <REMARK>
 VINA RESULT:      -6.7      2.499      7.392
  Name = 
  9 active torsions:
  status: ('A' for Active; 'I' for Inactive)
    1  A    between atoms: C_2  and  S_25
    2  A    between atoms: S_8  and  C_18
    3  A    between atoms: S_8  and  N_32
    4  A    between atoms: C_11  and  O_16
    5  A    between atoms: O_13  and  C_18
    6  A    between atoms: O_13  and  C_23
    7  A    between atoms: C_14  and  N_22
    8  A    between atoms: O_16  and  C_19
    9  A    between atoms: C_23  and  S_25
                            x       y       z     vdW  Elec       q    Type
                         _______ _______ _______ _____ _____    ______ ____

>  <TORSDO>
F 9

$$$$
=
 OpenBabel11062421153D

 33 36  0  0  1  0  0  0  0  0999 V2000
  192.3450  174.5630  143.6780 C   0  0  0  0  0  0  0  0  0  0  0  0
  195.1080  176.7860  144.7540 N   0  0  0  0  0  1  0  0  0  0  0  0
  193.7790  173.2370  142.8030 C   0  0  0  0  0  3  0  0  0  0  0  0
  193.5940  175.0720  143.8630 C   0  0  0  0  0  0  0  0  0  0  0  0
  191.3660  176.4170  144.8440 C   0  0  0  0  0  0  0  0  0  0  0  0
  192.6690  176.9460  145.0370 C   0  0  0  0  0  3  0  0  0  0  0  0
  193.8000  176.2690  144.5430 C   0  0  0  0  0  0  0  0  0  0  0  0
  191.2000  175.2010  144.1530 C   0  0  0  0  0  3  0  0  0  0  0  0
  194.5180  174.2570  143.3180 N   0  0  0  0  0  0  0  0  0  0  0  0
  192.4520  173.4070  143.0130 N   0  0  0  0  0  0  0  0  0  0  0  0
  190.4720  171.8080  143.7250 O   0  0  0  0  0  0  0  0  0  0  0  0
  191.1780  172.3460  142.5120 S   0  0  0  0  0  0  0  0  0  0  0  0
  191.7580  171.1960  141.7400 O   0  0  0  0  0  0  0  0  0  0  0  0
  190.0140  173.2320  141.5000 C   0  0  0  0  0  2  0  0  0  0  0  0
  188.7180  172.8270  141.8130 O   0  0  0  0  0  0  0  0  0  0  0  0
  188.0430  174.0100  142.1060 C   0  0  0  0  0  2  0  0  0  0  0  0
  188.2300  175.1780  140.7290 S   0  0  0  0  0  0  0  0  0  0  0  0
  187.2650  176.4670  141.5820 C   0  0  1  0  0  3  0  0  0  0  0  0
  187.8270  177.7920  141.2580 N   0  0  0  0  0  2  0  0  0  0  0  0
  186.6910  177.1690  139.2830 O   0  0  0  0  0  1  0  0  0  0  0  0
  186.5610  177.3600  140.6610 C   0  0  1  0  0  0  0  0  0  0  0  0
  185.3890  178.1730  141.1670 C   0  0  0  0  0  1  0  0  0  0  0  0
  189.4870  176.7780  146.5490 C   0  0  0  0  0  0  0  0  0  0  0  0
  190.2000  177.0840  145.3440 N   0  0  0  0  0  2  0  0  0  0  0  0
  189.8630  175.8380  147.3010 O   0  0  0  0  0  0  0  0  0  0  0  0
  188.3580  177.5310  146.8750 O   0  0  0  0  0  0  0  0  0  0  0  0
  186.0720  177.8870  147.6430 C   0  0  0  0  0  2  0  0  0  0  0  0
  183.9860  178.6650  146.4880 C   0  0  0  0  0  1  0  0  0  0  0  0
  186.2140  179.2560  145.4890 C   0  0  0  0  0  2  0  0  0  0  0  0
  187.0480  176.9720  146.8880 C   0  0  1  0  0  3  0  0  0  0  0  0
  186.4000  177.9920  144.6380 C   0  0  0  0  0  2  0  0  0  0  0  0
  186.5680  176.7080  145.4620 C   0  0  0  0  0  2  0  0  0  0  0  0
  185.4390  178.9920  146.7820 C   0  0  2  0  0  3  0  0  0  0  0  0
  1  4  2  0  0  0  0
  1  8  1  0  0  0  0
  3 10  1  0  0  0  0
  3  9  2  0  0  0  0
  4  7  1  0  0  0  0
  5  6  1  0  0  0  0
  5 24  1  0  0  0  0
  7  2  1  0  0  0  0
  7  6  2  0  0  0  0
  8  5  2  0  0  0  0
  9  4  1  0  0  0  0
 10  1  1  0  0  0  0
 12 10  1  0  0  0  0
 12 11  2  0  0  0  0
 13 12  2  0  0  0  0
 14 15  1  0  0  0  0
 14 12  1  0  0  0  0
 15 16  1  0  0  0  0
 17 16  1  0  0  0  0
 18 17  1  6  0  0  0
 19 18  1  0  0  0  0
 20 21  1  0  0  0  0
 21 22  1  1  0  0  0
 21 19  1  0  0  0  0
 21 18  1  0  0  0  0
 23 26  1  0  0  0  0
 23 25  2  0  0  0  0
 24 23  1  0  0  0  0
 29 33  1  0  0  0  0
 30 26  1  6  0  0  0
 30 27  1  0  0  0  0
 31 32  1  0  0  0  0
 31 29  1  0  0  0  0
 32 30  1  0  0  0  0
 33 28  1  6  0  0  0
 33 27  1  0  0  0  0
M  END
>  <MODEL>
4

>  <REMARK>
 VINA RESULT:      -6.7      2.733      5.304
  Name = 
  9 active torsions:
  status: ('A' for Active; 'I' for Inactive)
    1  A    between atoms: C_2  and  S_25
    2  A    between atoms: S_8  and  C_18
    3  A    between atoms: S_8  and  N_32
    4  A    between atoms: C_11  and  O_16
    5  A    between atoms: O_13  and  C_18
    6  A    between atoms: O_13  and  C_23
    7  A    between atoms: C_14  and  N_22
    8  A    between atoms: O_16  and  C_19
    9  A    between atoms: C_23  and  S_25
                            x       y       z     vdW  Elec       q    Type
                         _______ _______ _______ _____ _____    ______ ____

>  <TORSDO>
F 9

$$$$
=
 OpenBabel11062421153D

 33 36  0  0  1  0  0  0  0  0999 V2000
  189.9190  172.9940  141.1650 C   0  0  0  0  0  0  0  0  0  0  0  0
  189.0170  173.4120  137.5950 N   0  0  0  0  0  1  0  0  0  0  0  0
  191.2720  171.4270  140.6200 C   0  0  0  0  0  3  0  0  0  0  0  0
  189.8710  172.8120  139.8170 C   0  0  0  0  0  0  0  0  0  0  0  0
  188.3050  174.7640  141.0310 C   0  0  0  0  0  0  0  0  0  0  0  0
  188.2570  174.5740  139.6260 C   0  0  0  0  0  3  0  0  0  0  0  0
  189.0470  173.5890  139.0060 C   0  0  0  0  0  0  0  0  0  0  0  0
  189.1540  173.9600  141.8170 C   0  0  0  0  0  3  0  0  0  0  0  0
  190.7120  171.8280  139.4460 N   0  0  0  0  0  0  0  0  0  0  0  0
  190.7990  172.1270  141.6790 N   0  0  0  0  0  0  0  0  0  0  0  0
  191.9870  170.6270  143.5020 O   0  0  0  0  0  0  0  0  0  0  0  0
  191.2460  171.9240  143.3400 S   0  0  0  0  0  0  0  0  0  0  0  0
  190.0090  171.8840  144.1900 O   0  0  0  0  0  0  0  0  0  0  0  0
  192.2930  173.2670  143.8540 C   0  0  0  0  0  2  0  0  0  0  0  0
  191.5220  174.2570  144.4600 O   0  0  0  0  0  0  0  0  0  0  0  0
  191.8880  175.4330  143.8090 C   0  0  0  0  0  2  0  0  0  0  0  0
  191.9650  176.7960  145.0070 S   0  0  0  0  0  0  0  0  0  0  0  0
  190.9620  175.8880  146.2280 C   0  0  1  0  0  3  0  0  0  0  0  0
  190.6340  176.7860  147.3520 N   0  0  0  0  0  2  0  0  0  0  0  0
  189.2230  177.5320  145.6100 O   0  0  0  0  0  1  0  0  0  0  0  0
  189.6090  176.4250  146.3710 C   0  0  1  0  0  0  0  0  0  0  0  0
  188.5270  175.5560  146.9740 C   0  0  0  0  0  1  0  0  0  0  0  0
  187.9890  176.9890  142.2630 C   0  0  0  0  0  0  0  0  0  0  0  0
  187.5150  175.7660  141.6850 N   0  0  0  0  0  2  0  0  0  0  0  0
  189.2140  177.2860  142.2330 O   0  0  0  0  0  0  0  0  0  0  0  0
  187.0700  177.8470  142.8720 O   0  0  0  0  0  0  0  0  0  0  0  0
  185.8630  176.8610  144.7460 C   0  0  0  0  0  2  0  0  0  0  0  0
  184.3460  177.8260  146.4950 C   0  0  0  0  0  1  0  0  0  0  0  0
  185.9650  179.3490  145.3240 C   0  0  0  0  0  2  0  0  0  0  0  0
  185.7900  177.4030  143.3100 C   0  0  1  0  0  3  0  0  0  0  0  0
  185.0750  179.7150  144.1270 C   0  0  0  0  0  2  0  0  0  0  0  0
  184.7680  178.5330  143.1970 C   0  0  0  0  0  2  0  0  0  0  0  0
  185.7120  177.9310  145.8400 C   0  0  2  0  0  3  0  0  0  0  0  0
  1 10  1  0  0  0  0
  1  8  1  0  0  0  0
  2  7  1  0  0  0  0
  3 10  1  0  0  0  0
  4  1  2  0  0  0  0
  5 24  1  0  0  0  0
  5  8  2  0  0  0  0
  6  5  1  0  0  0  0
  7  6  2  0  0  0  0
  7  4  1  0  0  0  0
  9  4  1  0  0  0  0
  9  3  2  0  0  0  0
 10 12  1  0  0  0  0
 12 11  2  0  0  0  0
 12 14  1  0  0  0  0
 12 13  2  0  0  0  0
 14 15  1  0  0  0  0
 16 15  1  0  0  0  0
 16 17  1  0  0  0  0
 18 17  1  6  0  0  0
 18 21  1  0  0  0  0
 18 19  1  0  0  0  0
 20 21  1  0  0  0  0
 21 22  1  1  0  0  0
 21 19  1  0  0  0  0
 23 26  1  0  0  0  0
 24 23  1  0  0  0  0
 25 23  2  0  0  0  0
 27 33  1  0  0  0  0
 29 33  1  0  0  0  0
 30 26  1  1  0  0  0
 30 27  1  0  0  0  0
 31 29  1  0  0  0  0
 32 30  1  0  0  0  0
 32 31  1  0  0  0  0
 33 28  1  6  0  0  0
M  END
>  <MODEL>
5

>  <REMARK>
 VINA RESULT:      -6.7      1.920      2.600
  Name = 
  9 active torsions:
  status: ('A' for Active; 'I' for Inactive)
    1  A    between atoms: C_2  and  S_25
    2  A    between atoms: S_8  and  C_18
    3  A    between atoms: S_8  and  N_32
    4  A    between atoms: C_11  and  O_16
    5  A    between atoms: O_13  and  C_18
    6  A    between atoms: O_13  and  C_23
    7  A    between atoms: C_14  and  N_22
    8  A    between atoms: O_16  and  C_19
    9  A    between atoms: C_23  and  S_25
                            x       y       z     vdW  Elec       q    Type
                         _______ _______ _______ _____ _____    ______ ____

>  <TORSDO>
F 9

$$$$
=
 OpenBabel11062421153D

 33 36  0  0  1  0  0  0  0  0999 V2000
  190.3470  176.4810  145.2170 C   0  0  0  0  0  0  0  0  0  0  0  0
  191.4720  177.1640  148.6810 N   0  0  0  0  0  1  0  0  0  0  0  0
  188.4190  177.2710  145.7080 C   0  0  0  0  0  3  0  0  0  0  0  0
  190.3420  176.8660  146.5220 C   0  0  0  0  0  0  0  0  0  0  0  0
  192.6380  175.7890  145.3800 C   0  0  0  0  0  0  0  0  0  0  0  0
  192.6320  176.1920  146.7410 C   0  0  0  0  0  3  0  0  0  0  0  0
  191.4740  176.7390  147.3240 C   0  0  0  0  0  0  0  0  0  0  0  0
  191.4740  175.9380  144.6020 C   0  0  0  0  0  3  0  0  0  0  0  0
  189.1380  177.3660  146.8600 N   0  0  0  0  0  0  0  0  0  0  0  0
  189.1410  176.7330  144.6960 N   0  0  0  0  0  0  0  0  0  0  0  0
  188.6110  174.9580  142.8110 O   0  0  0  0  0  0  0  0  0  0  0  0
  188.5980  176.4360  143.0780 S   0  0  0  0  0  0  0  0  0  0  0  0
  189.5250  177.1100  142.1070 O   0  0  0  0  0  0  0  0  0  0  0  0
  186.9440  177.0570  142.8700 C   0  0  0  0  0  2  0  0  0  0  0  0
  186.9830  178.2760  142.1960 O   0  0  0  0  0  0  0  0  0  0  0  0
  185.9960  179.0460  142.8090 C   0  0  0  0  0  2  0  0  0  0  0  0
  184.8080  177.9600  143.6510 S   0  0  0  0  0  0  0  0  0  0  0  0
  184.8510  178.9580  145.1750 C   0  0  1  0  0  3  0  0  0  0  0  0
  183.6520  178.6630  145.9840 N   0  0  0  0  0  2  0  0  0  0  0  0
  185.0120  176.7540  146.2830 O   0  0  0  0  0  1  0  0  0  0  0  0
  184.9620  178.1470  146.3880 C   0  0  1  0  0  0  0  0  0  0  0  0
  185.4540  178.7900  147.6670 C   0  0  0  0  0  1  0  0  0  0  0  0
  195.0550  175.9040  144.5380 C   0  0  0  0  0  0  0  0  0  0  0  0
  193.8080  175.2360  144.7620 N   0  0  0  0  0  2  0  0  0  0  0  0
  195.2200  177.1040  144.8930 O   0  0  0  0  0  0  0  0  0  0  0  0
  196.0890  175.2090  143.9070 O   0  0  0  0  0  0  0  0  0  0  0  0
  196.4890  173.7760  145.8390 C   0  0  0  0  0  2  0  0  0  0  0  0
  196.8860  171.3120  146.0820 C   0  0  0  0  0  1  0  0  0  0  0  0
  195.7220  172.1520  144.0200 C   0  0  0  0  0  2  0  0  0  0  0  0
  197.0980  174.5180  144.6390 C   0  0  1  0  0  3  0  0  0  0  0  0
  196.9740  172.4290  143.1750 C   0  0  0  0  0  2  0  0  0  0  0  0
  197.8560  173.5590  143.7230 C   0  0  0  0  0  2  0  0  0  0  0  0
  195.9570  172.3710  145.5170 C   0  0  2  0  0  3  0  0  0  0  0  0
  1  4  1  0  0  0  0
  3  9  2  0  0  0  0
  4  9  1  0  0  0  0
  4  7  2  0  0  0  0
  5  6  2  0  0  0  0
  6  7  1  0  0  0  0
  7  2  1  0  0  0  0
  8  1  2  0  0  0  0
  8  5  1  0  0  0  0
 10  1  1  0  0  0  0
 10  3  1  0  0  0  0
 11 12  2  0  0  0  0
 12 10  1  0  0  0  0
 13 12  2  0  0  0  0
 14 12  1  0  0  0  0
 15 16  1  0  0  0  0
 15 14  1  0  0  0  0
 16 17  1  0  0  0  0
 18 17  1  6  0  0  0
 18 19  1  0  0  0  0
 18 21  1  0  0  0  0
 19 21  1  0  0  0  0
 20 21  1  0  0  0  0
 21 22  1  1  0  0  0
 23 24  1  0  0  0  0
 23 25  2  0  0  0  0
 24  5  1  0  0  0  0
 26 23  1  0  0  0  0
 29 33  1  0  0  0  0
 30 26  1  6  0  0  0
 30 27  1  0  0  0  0
 31 32  1  0  0  0  0
 31 29  1  0  0  0  0
 32 30  1  0  0  0  0
 33 27  1  0  0  0  0
 33 28  1  6  0  0  0
M  END
>  <MODEL>
6

>  <REMARK>
 VINA RESULT:      -6.6      3.343      8.583
  Name = 
  9 active torsions:
  status: ('A' for Active; 'I' for Inactive)
    1  A    between atoms: C_2  and  S_25
    2  A    between atoms: S_8  and  C_18
    3  A    between atoms: S_8  and  N_32
    4  A    between atoms: C_11  and  O_16
    5  A    between atoms: O_13  and  C_18
    6  A    between atoms: O_13  and  C_23
    7  A    between atoms: C_14  and  N_22
    8  A    between atoms: O_16  and  C_19
    9  A    between atoms: C_23  and  S_25
                            x       y       z     vdW  Elec       q    Type
                         _______ _______ _______ _____ _____    ______ ____

>  <TORSDO>
F 9

$$$$
=
 OpenBabel11062421153D

 33 36  0  0  1  0  0  0  0  0999 V2000
  185.9900  177.9560  143.1080 C   0  0  0  0  0  0  0  0  0  0  0  0
  185.9640  177.5540  139.4230 N   0  0  0  0  0  1  0  0  0  0  0  0
  183.8750  178.2900  143.0660 C   0  0  0  0  0  3  0  0  0  0  0  0
  185.5540  177.8970  141.8200 C   0  0  0  0  0  0  0  0  0  0  0  0
  188.2410  177.5020  142.4160 C   0  0  0  0  0  0  0  0  0  0  0  0
  187.7850  177.4390  141.0740 C   0  0  0  0  0  3  0  0  0  0  0  0
  186.4270  177.6380  140.7660 C   0  0  0  0  0  0  0  0  0  0  0  0
  187.3260  177.7630  143.4540 C   0  0  0  0  0  3  0  0  0  0  0  0
  184.2240  178.1070  141.7640 N   0  0  0  0  0  0  0  0  0  0  0  0
  184.9390  178.2020  143.9000 N   0  0  0  0  0  0  0  0  0  0  0  0
  183.5580  178.8130  146.0690 O   0  0  0  0  0  0  0  0  0  0  0  0
  184.9260  178.3800  145.6230 S   0  0  0  0  0  0  0  0  0  0  0  0
  185.9200  179.4300  146.0260 O   0  0  0  0  0  0  0  0  0  0  0  0
  185.3330  176.8300  146.3950 C   0  0  0  0  0  2  0  0  0  0  0  0
  186.2840  177.0390  147.3920 O   0  0  0  0  0  0  0  0  0  0  0  0
  187.4210  176.3750  146.9360 C   0  0  0  0  0  2  0  0  0  0  0  0
  188.8020  177.5460  146.8070 S   0  0  0  0  0  0  0  0  0  0  0  0
  190.0060  176.2170  146.4800 C   0  0  1  0  0  3  0  0  0  0  0  0
  191.3030  176.8150  146.1110 N   0  0  0  0  0  2  0  0  0  0  0  0
  191.1690  177.1660  148.4440 O   0  0  0  0  0  1  0  0  0  0  0  0
  191.1190  176.2060  147.4300 C   0  0  1  0  0  0  0  0  0  0  0  0
  191.9410  174.9450  147.5920 C   0  0  0  0  0  1  0  0  0  0  0  0
  190.3560  176.0730  142.6400 C   0  0  0  0  0  0  0  0  0  0  0  0
  189.6190  177.2960  142.7560 N   0  0  0  0  0  2  0  0  0  0  0  0
  189.8070  175.0250  142.2040 O   0  0  0  0  0  0  0  0  0  0  0  0
  191.6970  176.0540  143.0310 O   0  0  0  0  0  0  0  0  0  0  0  0
  193.9700  176.1280  142.1540 C   0  0  0  0  0  2  0  0  0  0  0  0
  196.1450  175.1810  142.9690 C   0  0  0  0  0  1  0  0  0  0  0  0
  194.2840  175.5340  144.6200 C   0  0  0  0  0  2  0  0  0  0  0  0
  192.6840  175.3060  142.3270 C   0  0  1  0  0  3  0  0  0  0  0  0
  193.5850  174.1800  144.4350 C   0  0  0  0  0  2  0  0  0  0  0  0
  192.9630  173.9870  143.0450 C   0  0  0  0  0  2  0  0  0  0  0  0
  194.9480  176.0390  143.3360 C   0  0  2  0  0  3  0  0  0  0  0  0
  1  8  1  0  0  0  0
  1 10  1  0  0  0  0
  2  7  1  0  0  0  0
  3 10  1  0  0  0  0
  4  1  2  0  0  0  0
  5 24  1  0  0  0  0
  5  8  2  0  0  0  0
  6  5  1  0  0  0  0
  7  6  2  0  0  0  0
  7  4  1  0  0  0  0
  9  4  1  0  0  0  0
  9  3  2  0  0  0  0
 10 12  1  0  0  0  0
 12 13  2  0  0  0  0
 12 11  2  0  0  0  0
 12 14  1  0  0  0  0
 14 15  1  0  0  0  0
 16 15  1  0  0  0  0
 17 16  1  0  0  0  0
 18 17  1  1  0  0  0
 18 21  1  0  0  0  0
 19 18  1  0  0  0  0
 19 21  1  0  0  0  0
 21 22  1  1  0  0  0
 21 20  1  0  0  0  0
 23 24  1  0  0  0  0
 23 26  1  0  0  0  0
 25 23  2  0  0  0  0
 27 30  1  0  0  0  0
 27 33  1  0  0  0  0
 30 26  1  1  0  0  0
 30 32  1  0  0  0  0
 31 29  1  0  0  0  0
 32 31  1  0  0  0  0
 33 28  1  6  0  0  0
 33 29  1  0  0  0  0
M  END
>  <MODEL>
7

>  <REMARK>
 VINA RESULT:      -6.6      3.005      7.102
  Name = 
  9 active torsions:
  status: ('A' for Active; 'I' for Inactive)
    1  A    between atoms: C_2  and  S_25
    2  A    between atoms: S_8  and  C_18
    3  A    between atoms: S_8  and  N_32
    4  A    between atoms: C_11  and  O_16
    5  A    between atoms: O_13  and  C_18
    6  A    between atoms: O_13  and  C_23
    7  A    between atoms: C_14  and  N_22
    8  A    between atoms: O_16  and  C_19
    9  A    between atoms: C_23  and  S_25
                            x       y       z     vdW  Elec       q    Type
                         _______ _______ _______ _____ _____    ______ ____

>  <TORSDO>
F 9

$$$$
=
 OpenBabel11062421153D

 33 36  0  0  1  0  0  0  0  0999 V2000
  189.9870  172.9840  141.5600 C   0  0  0  0  0  0  0  0  0  0  0  0
  188.8490  173.3090  138.0480 N   0  0  0  0  0  1  0  0  0  0  0  0
  191.3410  171.4390  140.9580 C   0  0  0  0  0  3  0  0  0  0  0  0
  189.8580  172.7740  140.2220 C   0  0  0  0  0  0  0  0  0  0  0  0
  188.3240  174.7120  141.4990 C   0  0  0  0  0  0  0  0  0  0  0  0
  188.1920  174.4930  140.1030 C   0  0  0  0  0  3  0  0  0  0  0  0
  188.9650  173.5150  139.4510 C   0  0  0  0  0  0  0  0  0  0  0  0
  189.2420  173.9430  142.2420 C   0  0  0  0  0  3  0  0  0  0  0  0
  190.6980  171.8030  139.8150 N   0  0  0  0  0  0  0  0  0  0  0  0
  190.9200  172.1480  142.0320 N   0  0  0  0  0  0  0  0  0  0  0  0
  192.2740  170.7220  143.7980 O   0  0  0  0  0  0  0  0  0  0  0  0
  191.4770  171.9880  143.6640 S   0  0  0  0  0  0  0  0  0  0  0  0
  190.2970  171.9170  144.5910 O   0  0  0  0  0  0  0  0  0  0  0  0
  192.5030  173.3760  144.0930 C   0  0  0  0  0  2  0  0  0  0  0  0
  192.2530  173.7540  145.4110 O   0  0  0  0  0  0  0  0  0  0  0  0
  191.7080  175.0320  145.3110 C   0  0  0  0  0  2  0  0  0  0  0  0
  192.5420  176.1460  146.4790 S   0  0  0  0  0  0  0  0  0  0  0  0
  193.6020  176.8520  145.1760 C   0  0  1  0  0  3  0  0  0  0  0  0
  194.7370  177.5580  145.8010 N   0  0  0  0  0  2  0  0  0  0  0  0
  195.2810  175.2750  146.0730 O   0  0  0  0  0  1  0  0  0  0  0  0
  194.9410  176.2640  145.1460 C   0  0  1  0  0  0  0  0  0  0  0  0
  195.7780  176.3900  143.8900 C   0  0  0  0  0  1  0  0  0  0  0  0
  187.9960  177.0090  142.5840 C   0  0  0  0  0  0  0  0  0  0  0  0
  187.5530  175.7070  142.1830 N   0  0  0  0  0  2  0  0  0  0  0  0
  189.1730  177.3940  142.3450 O   0  0  0  0  0  0  0  0  0  0  0  0
  187.1040  177.8480  143.2560 O   0  0  0  0  0  0  0  0  0  0  0  0
  185.7160  176.9470  145.0450 C   0  0  0  0  0  2  0  0  0  0  0  0
  184.0660  177.9950  146.6160 C   0  0  0  0  0  1  0  0  0  0  0  0
  185.8110  179.4520  145.5460 C   0  0  0  0  0  2  0  0  0  0  0  0
  185.7820  177.4400  143.5910 C   0  0  1  0  0  3  0  0  0  0  0  0
  185.0390  179.7890  144.2630 C   0  0  0  0  0  2  0  0  0  0  0  0
  184.7950  178.5800  143.3490 C   0  0  0  0  0  2  0  0  0  0  0  0
  185.4860  178.0560  146.0840 C   0  0  2  0  0  3  0  0  0  0  0  0
  1 10  1  0  0  0  0
  1  8  1  0  0  0  0
  2  7  1  0  0  0  0
  3 10  1  0  0  0  0
  4  1  2  0  0  0  0
  5 24  1  0  0  0  0
  5  8  2  0  0  0  0
  6  5  1  0  0  0  0
  7  6  2  0  0  0  0
  7  4  1  0  0  0  0
  9  4  1  0  0  0  0
  9  3  2  0  0  0  0
 10 12  1  0  0  0  0
 12 11  2  0  0  0  0
 12 14  1  0  0  0  0
 12 13  2  0  0  0  0
 14 15  1  0  0  0  0
 16 15  1  0  0  0  0
 16 17  1  0  0  0  0
 18 19  1  0  0  0  0
 18 17  1  1  0  0  0
 21 22  1  6  0  0  0
 21 18  1  0  0  0  0
 21 19  1  0  0  0  0
 21 20  1  0  0  0  0
 23 26  1  0  0  0  0
 24 23  1  0  0  0  0
 25 23  2  0  0  0  0
 27 33  1  0  0  0  0
 29 33  1  0  0  0  0
 30 26  1  1  0  0  0
 30 27  1  0  0  0  0
 31 29  1  0  0  0  0
 32 30  1  0  0  0  0
 32 31  1  0  0  0  0
 33 28  1  6  0  0  0
M  END
>  <MODEL>
8

>  <REMARK>
 VINA RESULT:      -6.4      2.216      3.184
  Name = 
  9 active torsions:
  status: ('A' for Active; 'I' for Inactive)
    1  A    between atoms: C_2  and  S_25
    2  A    between atoms: S_8  and  C_18
    3  A    between atoms: S_8  and  N_32
    4  A    between atoms: C_11  and  O_16
    5  A    between atoms: O_13  and  C_18
    6  A    between atoms: O_13  and  C_23
    7  A    between atoms: C_14  and  N_22
    8  A    between atoms: O_16  and  C_19
    9  A    between atoms: C_23  and  S_25
                            x       y       z     vdW  Elec       q    Type
                         _______ _______ _______ _____ _____    ______ ____

>  <TORSDO>
F 9

$$$$
=
 OpenBabel11062421153D

 33 36  0  0  1  0  0  0  0  0999 V2000
  186.0380  177.6350  144.5450 C   0  0  0  0  0  0  0  0  0  0  0  0
  184.1680  178.4930  141.4620 N   0  0  0  0  0  1  0  0  0  0  0  0
  184.9050  179.1020  145.6160 C   0  0  0  0  0  3  0  0  0  0  0  0
  185.1680  178.2400  143.6900 C   0  0  0  0  0  0  0  0  0  0  0  0
  186.8620  176.2270  142.7860 C   0  0  0  0  0  0  0  0  0  0  0  0
  185.9540  176.8570  141.8960 C   0  0  0  0  0  3  0  0  0  0  0  0
  185.0940  177.8750  142.3470 C   0  0  0  0  0  0  0  0  0  0  0  0
  186.9030  176.6210  144.1380 C   0  0  0  0  0  3  0  0  0  0  0  0
  184.4430  179.1710  144.3380 N   0  0  0  0  0  0  0  0  0  0  0  0
  185.8780  178.1710  145.7600 N   0  0  0  0  0  0  0  0  0  0  0  0
  186.0480  176.6220  147.8950 O   0  0  0  0  0  0  0  0  0  0  0  0
  186.7300  177.7760  147.2160 S   0  0  0  0  0  0  0  0  0  0  0  0
  186.7140  178.9590  148.1420 O   0  0  0  0  0  0  0  0  0  0  0  0
  188.4070  177.3260  146.8340 C   0  0  0  0  0  2  0  0  0  0  0  0
  188.5810  175.9570  147.0280 O   0  0  0  0  0  0  0  0  0  0  0  0
  189.9520  175.8020  147.2210 C   0  0  0  0  0  2  0  0  0  0  0  0
  190.8550  176.6020  145.8630 S   0  0  0  0  0  0  0  0  0  0  0  0
  191.5200  175.0160  145.2610 C   0  0  1  0  0  3  0  0  0  0  0  0
  192.5690  175.2780  144.2560 N   0  0  0  0  0  2  0  0  0  0  0  0
  193.6130  175.8130  146.3070 O   0  0  0  0  0  1  0  0  0  0  0  0
  192.9300  174.8200  145.6000 C   0  0  1  0  0  0  0  0  0  0  0  0
  193.5070  173.4210  145.5860 C   0  0  0  0  0  1  0  0  0  0  0  0
  189.1630  175.2690  142.1940 C   0  0  0  0  0  0  0  0  0  0  0  0
  187.7420  175.1820  142.3510 N   0  0  0  0  0  2  0  0  0  0  0  0
  189.7770  176.3420  142.4440 O   0  0  0  0  0  0  0  0  0  0  0  0
  189.8630  174.1460  141.7470 O   0  0  0  0  0  0  0  0  0  0  0  0
  190.0170  171.9650  140.6690 C   0  0  0  0  0  2  0  0  0  0  0  0
  190.8790  169.7390  141.4380 C   0  0  0  0  0  1  0  0  0  0  0  0
  191.6920  171.8170  142.5940 C   0  0  0  0  0  2  0  0  0  0  0  0
  189.2590  172.8590  141.6620 C   0  0  1  0  0  3  0  0  0  0  0  0
  190.5730  171.9200  143.6410 C   0  0  0  0  0  2  0  0  0  0  0  0
  189.1890  172.2120  143.0440 C   0  0  0  0  0  2  0  0  0  0  0  0
  191.2130  171.2110  141.2730 C   0  0  2  0  0  3  0  0  0  0  0  0
  1 10  1  0  0  0  0
  2  7  1  0  0  0  0
  3 10  1  0  0  0  0
  4  9  1  0  0  0  0
  4  1  2  0  0  0  0
  5  8  2  0  0  0  0
  6  7  2  0  0  0  0
  6  5  1  0  0  0  0
  7  4  1  0  0  0  0
  8  1  1  0  0  0  0
  9  3  2  0  0  0  0
 10 12  1  0  0  0  0
 12 11  2  0  0  0  0
 12 13  2  0  0  0  0
 14 15  1  0  0  0  0
 14 12  1  0  0  0  0
 15 16  1  0  0  0  0
 17 16  1  0  0  0  0
 18 21  1  0  0  0  0
 18 17  1  1  0  0  0
 19 18  1  0  0  0  0
 19 21  1  0  0  0  0
 21 22  1  1  0  0  0
 21 20  1  0  0  0  0
 23 24  1  0  0  0  0
 23 25  2  0  0  0  0
 24  5  1  0  0  0  0
 26 23  1  0  0  0  0
 27 33  1  0  0  0  0
 27 30  1  0  0  0  0
 29 31  1  0  0  0  0
 30 26  1  1  0  0  0
 30 32  1  0  0  0  0
 32 31  1  0  0  0  0
 33 28  1  1  0  0  0
 33 29  1  0  0  0  0
M  END
>  <MODEL>
9

>  <REMARK>
 VINA RESULT:      -6.3      2.955      6.883
  Name = 
  9 active torsions:
  status: ('A' for Active; 'I' for Inactive)
    1  A    between atoms: C_2  and  S_25
    2  A    between atoms: S_8  and  C_18
    3  A    between atoms: S_8  and  N_32
    4  A    between atoms: C_11  and  O_16
    5  A    between atoms: O_13  and  C_18
    6  A    between atoms: O_13  and  C_23
    7  A    between atoms: C_14  and  N_22
    8  A    between atoms: O_16  and  C_19
    9  A    between atoms: C_23  and  S_25
                            x       y       z     vdW  Elec       q    Type
                         _______ _______ _______ _____ _____    ______ ____

>  <TORSDO>
F 9

$$$$
