=
 OpenBabel11062421163D

 56 61  0  0  1  0  0  0  0  0999 V2000
  191.0570  170.6000  140.4370 C   0  0  0  0  0  0  0  0  0  0  0  0
  190.5350  170.7360  139.2510 C   0  0  0  0  0  0  0  0  0  0  0  0
  191.5760  170.4810  141.6270 C   0  0  0  0  0  0  0  0  0  0  0  0
  189.8670  169.6710  138.6610 O   0  0  0  0  0  1  0  0  0  0  0  0
  190.7090  171.1480  143.0470 S   0  0  0  0  0  0  0  0  0  0  0  0
  187.7160  173.5480  141.5730 C   0  0  0  0  0  2  0  0  0  0  0  0
  189.9590  174.6170  141.4450 C   0  0  0  0  0  2  0  0  0  0  0  0
  188.4710  174.8630  141.7120 C   0  0  1  0  0  3  0  0  0  0  0  0
  190.4650  173.6920  142.3770 O   0  0  0  0  0  0  0  0  0  0  0  0
  188.3960  172.4650  142.4050 C   0  0  0  0  0  2  0  0  0  0  0  0
  189.8880  172.4440  142.0730 C   0  0  2  0  0  3  0  0  0  0  0  0
  187.9070  175.8880  140.7410 C   0  0  0  0  0  2  0  0  0  0  0  0
  187.9020  178.0710  141.6270 O   0  0  0  0  0  0  0  0  0  0  0  0
  187.2810  177.0300  141.4790 C   0  0  0  0  0  0  0  0  0  0  0  0
  185.9080  176.8910  142.0470 C   0  0  0  0  0  2  0  0  0  0  0  0
  185.0340  177.9130  141.4950 N   0  0  0  0  0  2  0  0  0  0  0  0
  184.2810  178.4170  142.5660 N   0  0  0  0  0  2  0  0  0  0  0  0
  184.7130  177.7030  143.7580 C   0  0  0  0  0  2  0  0  0  0  0  0
  187.8060  176.1140  146.7640 C   0  0  0  0  0  2  0  0  0  0  0  0
  184.3960  178.5210  146.2050 C   0  0  1  0  0  3  0  0  0  0  0  0
  187.7020  177.6060  146.5410 C   0  0  1  0  0  0  0  0  0  0  0  0
  185.1170  178.6940  144.8450 C   0  0  1  0  0  3  0  0  0  0  0  0
  184.5200  177.0860  146.7140 C   0  0  0  0  0  2  0  0  0  0  0  0
  186.7120  178.3180  147.5020 C   0  0  0  0  0  2  0  0  0  0  0  0
  186.5960  179.0850  144.8160 C   0  0  0  0  0  2  0  0  0  0  0  0
  187.6150  177.9580  145.0650 C   0  0  2  0  0  3  0  0  0  0  0  0
  185.1630  178.2050  147.5000 C   0  0  1  0  0  3  0  0  0  0  0  0
  187.0400  176.6420  145.5700 C   0  0  1  0  0  3  0  0  0  0  0  0
  192.8110  169.6760  141.8200 C   0  0  0  0  0  2  0  0  0  0  0  0
  193.5490  170.1280  143.0670 C   0  0  0  0  0  2  0  0  0  0  0  0
  194.4620  171.3010  142.7540 C   0  0  2  0  0  3  0  0  0  0  0  0
  195.8900  170.9960  143.2010 C   0  0  2  0  0  3  0  0  0  0  0  0
  196.4500  169.7460  142.5410 C   0  0  0  0  0  1  0  0  0  0  0  0
  195.9430  170.8590  144.5890 O   0  0  0  0  0  1  0  0  0  0  0  0
  193.9730  172.5010  143.3460 O   0  0  0  0  0  0  0  0  0  0  0  0
  193.8980  173.7070  142.6450 C   0  0  0  0  0  0  0  0  0  0  0  0
  193.5420  173.6910  141.4360 O   0  0  0  0  0  0  0  0  0  0  0  0
  194.2440  175.0110  143.3080 C   0  0  2  0  0  3  0  0  0  0  0  0
  195.2510  175.4950  145.4180 O   0  0  0  0  0  0  0  0  0  0  0  0
  195.6850  175.3500  143.0800 C   0  0  0  0  0  2  0  0  0  0  0  0
  194.1080  174.9270  144.8230 C   0  0  1  0  0  3  0  0  0  0  0  0
  196.2840  175.4150  144.4670 C   0  0  2  0  0  3  0  0  0  0  0  0
  197.0920  174.2310  144.7220 N   0  0  0  0  0  2  0  0  0  0  0  0
  196.8840  173.8690  146.1120 C   0  0  0  0  0  1  0  0  0  0  0  0
  192.8270  175.6230  145.3560 C   0  0  1  0  0  0  0  0  0  0  0  0
  191.7430  174.7910  145.0720 O   0  0  0  0  0  1  0  0  0  0  0  0
  191.5580  175.3930  147.5870 C   0  0  0  0  0  1  0  0  0  0  0  0
  192.8470  175.7990  146.8880 C   0  0  0  0  0  2  0  0  0  0  0  0
  192.5770  176.8610  144.7050 O   0  0  0  0  0  0  0  0  0  0  0  0
  191.1970  177.0620  144.5130 C   0  0  0  0  0  2  0  0  0  0  0  0
  190.9620  177.6760  143.1470 C   0  0  0  0  0  1  0  0  0  0  0  0
  190.6850  172.0330  138.5240 C   0  0  0  0  0  2  0  0  0  0  0  0
  189.0460  172.3620  136.8240 F   0  0  0  0  0  0  0  0  0  0  0  0
  188.3410  172.1300  138.9580 F   0  0  0  0  0  0  0  0  0  0  0  0
  189.3380  172.6390  138.1460 C   0  0  0  0  0  0  0  0  0  0  0  0
  189.4010  174.0070  138.3150 F   0  0  0  0  0  0  0  0  0  0  0  0
  1  3  2  0  0  0  0
  2  1  2  0  0  0  0
  3 29  1  0  0  0  0
  3  5  1  0  0  0  0
  4  2  1  0  0  0  0
  6  8  1  0  0  0  0
  6 10  1  0  0  0  0
  7  8  1  0  0  0  0
  7  9  1  0  0  0  0
  8 12  1  6  0  0  0
 11  9  1  0  0  0  0
 11 10  1  0  0  0  0
 11  5  1  1  0  0  0
 12 14  1  0  0  0  0
 14 13  2  0  0  0  0
 14 15  1  0  0  0  0
 16 15  1  0  0  0  0
 16 17  1  0  0  0  0
 17 18  1  0  0  0  0
 20 23  1  6  0  0  0
 20 27  1  0  0  0  0
 21 19  1  1  0  0  0
 21 24  1  0  0  0  0
 22 18  1  1  0  0  0
 22 20  1  0  0  0  0
 25 22  1  0  0  0  0
 26 25  1  1  0  0  0
 26 28  1  0  0  0  0
 26 21  1  0  0  0  0
 27 23  1  6  0  0  0
 27 24  1  0  0  0  0
 28 21  1  0  0  0  0
 28 19  1  6  0  0  0
 29 30  1  0  0  0  0
 31 30  1  1  0  0  0
 31 32  1  0  0  0  0
 31 35  1  0  0  0  0
 32 33  1  6  0  0  0
 32 34  1  0  0  0  0
 36 35  1  0  0  0  0
 37 36  2  0  0  0  0
 38 36  1  6  0  0  0
 38 41  1  0  0  0  0
 40 38  1  0  0  0  0
 40 42  1  0  0  0  0
 41 45  1  1  0  0  0
 41 39  1  0  0  0  0
 42 43  1  1  0  0  0
 42 39  1  0  0  0  0
 43 44  1  0  0  0  0
 45 46  1  6  0  0  0
 45 48  1  0  0  0  0
 48 47  1  0  0  0  0
 49 45  1  0  0  0  0
 50 49  1  0  0  0  0
 51 50  1  0  0  0  0
 52  2  1  0  0  0  0
 53 55  1  0  0  0  0
 55 56  1  0  0  0  0
 55 52  1  0  0  0  0
 55 54  1  0  0  0  0
M  END
>  <MODEL>
1

>  <REMARK>
 VINA RESULT:      -6.4      0.000      0.000
  Name = 
  23 active torsions:
  status: ('A' for Active; 'I' for Inactive)
    1  A    between atoms: C_1  and  C_33
    2  A    between atoms: C_1  and  C_47
    3  A    between atoms: C_2  and  N_38
    4  A    between atoms: C_2  and  C_53
    5  A    between atoms: N_4  and  C_55
    6  A    between atoms: C_6  and  C_7
    7  A    between atoms: C_6  and  O_50
    8  A    between atoms: N_9  and  N_38
    9  A    between atoms: N_9  and  C_43
   10  A    between atoms: O_10  and  C_29
   11  A    between atoms: O_10  and  C_30
   12  A    between atoms: C_11  and  C_32
   13  A    between atoms: C_11  and  C_46
   14  A    between atoms: C_12  and  C_23
   15  A    between atoms: C_12  and  C_53
   16  A    between atoms: C_13  and  C_42
   17  A    between atoms: C_24  and  C_43
   18  A    between atoms: C_30  and  C_31
   19  A    between atoms: C_30  and  C_56
   20  A    between atoms: C_33  and  S_40
   21  A    between atoms: S_40  and  C_52
   22  A    between atoms: C_42  and  C_47
   23  A    between atoms: C_42  and  O_50
                            x       y       z     vdW  Elec       q    Type
                         _______ _______ _______ _____ _____    ______ ____

>  <TORSDO>
F 23

$$$$
=
 OpenBabel11062421163D

 56 61  0  0  1  0  0  0  0  0999 V2000
  193.5550  174.1720  144.1750 C   0  0  0  0  0  0  0  0  0  0  0  0
  192.8700  173.1300  144.5540 C   0  0  0  0  0  0  0  0  0  0  0  0
  194.2320  175.2240  143.8090 C   0  0  0  0  0  0  0  0  0  0  0  0
  193.4580  171.8720  144.5390 O   0  0  0  0  0  1  0  0  0  0  0  0
  194.9360  176.3070  145.0510 S   0  0  0  0  0  0  0  0  0  0  0  0
  190.9850  177.4360  144.9830 C   0  0  0  0  0  2  0  0  0  0  0  0
  191.6840  176.5090  147.1840 C   0  0  0  0  0  2  0  0  0  0  0  0
  190.5450  176.5790  146.1620 C   0  0  1  0  0  3  0  0  0  0  0  0
  192.8220  175.9300  146.5910 O   0  0  0  0  0  0  0  0  0  0  0  0
  192.3420  176.9630  144.4710 C   0  0  0  0  0  2  0  0  0  0  0  0
  193.3110  176.8560  145.6490 C   0  0  2  0  0  3  0  0  0  0  0  0
  189.2900  177.1660  146.7870 C   0  0  0  0  0  2  0  0  0  0  0  0
  188.5850  174.9230  146.9340 O   0  0  0  0  0  0  0  0  0  0  0  0
  188.2710  176.0980  147.0350 C   0  0  0  0  0  0  0  0  0  0  0  0
  186.8690  176.4690  147.3890 C   0  0  0  0  0  2  0  0  0  0  0  0
  186.5610  177.7980  146.8850 N   0  0  0  0  0  2  0  0  0  0  0  0
  185.3770  177.6790  146.1440 N   0  0  0  0  0  2  0  0  0  0  0  0
  185.6320  178.2790  144.8430 C   0  0  0  0  0  2  0  0  0  0  0  0
  189.0850  177.8880  141.8340 C   0  0  0  0  0  2  0  0  0  0  0  0
  184.9110  177.8230  142.3870 C   0  0  1  0  0  3  0  0  0  0  0  0
  188.1560  176.7140  142.0370 C   0  0  1  0  0  0  0  0  0  0  0  0
  185.4060  177.2510  143.7380 C   0  0  1  0  0  3  0  0  0  0  0  0
  185.8250  178.9450  141.8970 C   0  0  0  0  0  2  0  0  0  0  0  0
  186.9380  176.7020  141.0740 C   0  0  0  0  0  2  0  0  0  0  0  0
  186.4050  176.0920  143.7500 C   0  0  0  0  0  2  0  0  0  0  0  0
  187.8830  176.4490  143.5080 C   0  0  2  0  0  3  0  0  0  0  0  0
  185.7240  177.6710  141.0900 C   0  0  1  0  0  3  0  0  0  0  0  0
  188.1530  177.8670  143.0270 C   0  0  1  0  0  3  0  0  0  0  0  0
  194.5340  175.4470  142.3710 C   0  0  0  0  0  2  0  0  0  0  0  0
  195.6280  174.5040  141.9040 C   0  0  0  0  0  2  0  0  0  0  0  0
  195.3530  174.0210  140.4900 C   0  0  2  0  0  3  0  0  0  0  0  0
  196.5530  174.3070  139.5900 C   0  0  2  0  0  3  0  0  0  0  0  0
  197.8210  174.5800  140.3830 C   0  0  0  0  0  1  0  0  0  0  0  0
  196.2800  175.3880  138.7510 O   0  0  0  0  0  1  0  0  0  0  0  0
  194.1610  174.6040  139.9740 O   0  0  0  0  0  0  0  0  0  0  0  0
  193.2120  173.8660  139.2620 C   0  0  0  0  0  0  0  0  0  0  0  0
  193.2670  173.8530  138.0030 O   0  0  0  0  0  0  0  0  0  0  0  0
  192.1290  173.1040  139.9730 C   0  0  2  0  0  3  0  0  0  0  0  0
  190.9790  171.0900  139.4070 O   0  0  0  0  0  0  0  0  0  0  0  0
  192.7150  171.9820  140.7730 C   0  0  0  0  0  2  0  0  0  0  0  0
  191.1850  172.4200  138.9930 C   0  0  1  0  0  3  0  0  0  0  0  0
  192.0920  170.7330  140.1900 C   0  0  2  0  0  3  0  0  0  0  0  0
  193.0620  170.0250  139.3670 N   0  0  0  0  0  2  0  0  0  0  0  0
  193.9430  169.3100  140.2740 C   0  0  0  0  0  1  0  0  0  0  0  0
  189.8230  173.1510  138.8520 C   0  0  1  0  0  0  0  0  0  0  0  0
  188.8570  172.1920  138.5400 O   0  0  0  0  0  1  0  0  0  0  0  0
  188.2200  173.0950  140.8690 C   0  0  0  0  0  1  0  0  0  0  0  0
  189.3690  173.8090  140.1710 C   0  0  0  0  0  2  0  0  0  0  0  0
  189.8260  174.0930  137.7880 O   0  0  0  0  0  0  0  0  0  0  0  0
  189.5950  173.4600  136.5520 C   0  0  0  0  0  2  0  0  0  0  0  0
  190.5770  173.9880  135.5240 C   0  0  0  0  0  1  0  0  0  0  0  0
  191.4470  173.2980  144.9760 C   0  0  0  0  0  2  0  0  0  0  0  0
  190.7120  174.5270  143.0690 F   0  0  0  0  0  0  0  0  0  0  0  0
  190.6910  172.2710  142.9600 F   0  0  0  0  0  0  0  0  0  0  0  0
  190.4980  173.3640  143.7840 C   0  0  0  0  0  0  0  0  0  0  0  0
  189.1980  173.3550  144.2480 F   0  0  0  0  0  0  0  0  0  0  0  0
  1  2  2  0  0  0  0
  2 52  1  0  0  0  0
  3  1  2  0  0  0  0
  3  5  1  0  0  0  0
  4  2  1  0  0  0  0
  6  8  1  0  0  0  0
  8 12  1  1  0  0  0
  8  7  1  0  0  0  0
  9  7  1  0  0  0  0
 10  6  1  0  0  0  0
 10 11  1  0  0  0  0
 11  5  1  6  0  0  0
 11  9  1  0  0  0  0
 12 14  1  0  0  0  0
 13 14  2  0  0  0  0
 14 15  1  0  0  0  0
 16 15  1  0  0  0  0
 17 16  1  0  0  0  0
 18 17  1  0  0  0  0
 19 21  1  0  0  0  0
 20 23  1  1  0  0  0
 20 22  1  0  0  0  0
 21 24  1  6  0  0  0
 21 28  1  0  0  0  0
 21 26  1  0  0  0  0
 22 25  1  0  0  0  0
 22 18  1  6  0  0  0
 26 25  1  6  0  0  0
 27 24  1  1  0  0  0
 27 23  1  0  0  0  0
 27 20  1  0  0  0  0
 28 19  1  1  0  0  0
 28 26  1  0  0  0  0
 29  3  1  0  0  0  0
 30 29  1  0  0  0  0
 31 30  1  1  0  0  0
 32 33  1  1  0  0  0
 32 31  1  0  0  0  0
 34 32  1  0  0  0  0
 35 31  1  0  0  0  0
 36 35  1  0  0  0  0
 37 36  2  0  0  0  0
 38 36  1  6  0  0  0
 38 40  1  0  0  0  0
 39 42  1  0  0  0  0
 41 45  1  1  0  0  0
 41 39  1  0  0  0  0
 41 38  1  0  0  0  0
 42 43  1  6  0  0  0
 42 40  1  0  0  0  0
 43 44  1  0  0  0  0
 45 46  1  6  0  0  0
 45 48  1  0  0  0  0
 48 47  1  0  0  0  0
 49 45  1  0  0  0  0
 50 49  1  0  0  0  0
 51 50  1  0  0  0  0
 53 55  1  0  0  0  0
 54 55  1  0  0  0  0
 55 56  1  0  0  0  0
 55 52  1  0  0  0  0
M  END
>  <MODEL>
2

>  <REMARK>
 VINA RESULT:      -6.3      2.851      6.018
  Name = 
  23 active torsions:
  status: ('A' for Active; 'I' for Inactive)
    1  A    between atoms: C_1  and  C_33
    2  A    between atoms: C_1  and  C_47
    3  A    between atoms: C_2  and  N_38
    4  A    between atoms: C_2  and  C_53
    5  A    between atoms: N_4  and  C_55
    6  A    between atoms: C_6  and  C_7
    7  A    between atoms: C_6  and  O_50
    8  A    between atoms: N_9  and  N_38
    9  A    between atoms: N_9  and  C_43
   10  A    between atoms: O_10  and  C_29
   11  A    between atoms: O_10  and  C_30
   12  A    between atoms: C_11  and  C_32
   13  A    between atoms: C_11  and  C_46
   14  A    between atoms: C_12  and  C_23
   15  A    between atoms: C_12  and  C_53
   16  A    between atoms: C_13  and  C_42
   17  A    between atoms: C_24  and  C_43
   18  A    between atoms: C_30  and  C_31
   19  A    between atoms: C_30  and  C_56
   20  A    between atoms: C_33  and  S_40
   21  A    between atoms: S_40  and  C_52
   22  A    between atoms: C_42  and  C_47
   23  A    between atoms: C_42  and  O_50
                            x       y       z     vdW  Elec       q    Type
                         _______ _______ _______ _____ _____    ______ ____

>  <TORSDO>
F 23

$$$$
=
 OpenBabel11062421163D

 56 61  0  0  1  0  0  0  0  0999 V2000
  195.9020  173.6730  144.4760 C   0  0  0  0  0  0  0  0  0  0  0  0
  195.8620  172.7760  145.4200 C   0  0  0  0  0  0  0  0  0  0  0  0
  195.9270  174.5750  143.5360 C   0  0  0  0  0  0  0  0  0  0  0  0
  197.0200  172.4440  146.1110 O   0  0  0  0  0  1  0  0  0  0  0  0
  195.3600  176.2400  143.8840 S   0  0  0  0  0  0  0  0  0  0  0  0
  192.5820  175.7250  146.8690 C   0  0  0  0  0  2  0  0  0  0  0  0
  191.6110  175.4580  144.5930 C   0  0  0  0  0  2  0  0  0  0  0  0
  191.3570  175.9920  146.0060 C   0  0  1  0  0  3  0  0  0  0  0  0
  192.7250  176.1100  144.0300 O   0  0  0  0  0  0  0  0  0  0  0  0
  193.8380  176.2220  146.1600 C   0  0  0  0  0  2  0  0  0  0  0  0
  193.8600  175.6670  144.7350 C   0  0  2  0  0  3  0  0  0  0  0  0
  190.1350  175.3320  146.6240 C   0  0  0  0  0  2  0  0  0  0  0  0
  189.2910  177.5220  146.8250 O   0  0  0  0  0  0  0  0  0  0  0  0
  189.0360  176.3280  146.8240 C   0  0  0  0  0  0  0  0  0  0  0  0
  187.6340  175.8630  147.0390 C   0  0  0  0  0  2  0  0  0  0  0  0
  186.7310  177.0020  147.0800 N   0  0  0  0  0  2  0  0  0  0  0  0
  185.6980  176.7260  146.1730 N   0  0  0  0  0  2  0  0  0  0  0  0
  185.8070  177.7020  145.0990 C   0  0  0  0  0  2  0  0  0  0  0  0
  189.4420  177.8980  142.2920 C   0  0  0  0  0  2  0  0  0  0  0  0
  185.2410  177.9600  142.5750 C   0  0  1  0  0  3  0  0  0  0  0  0
  188.4460  176.7740  142.1210 C   0  0  1  0  0  0  0  0  0  0  0  0
  185.6110  177.0200  143.7490 C   0  0  1  0  0  3  0  0  0  0  0  0
  186.2410  179.1100  142.4560 C   0  0  0  0  0  2  0  0  0  0  0  0
  187.3000  177.0970  141.1240 C   0  0  0  0  0  2  0  0  0  0  0  0
  186.5500  175.8360  143.5040 C   0  0  0  0  0  2  0  0  0  0  0  0
  188.0570  176.1480  143.4490 C   0  0  2  0  0  3  0  0  0  0  0  0
  186.1360  178.1040  141.3320 C   0  0  1  0  0  3  0  0  0  0  0  0
  188.4280  177.6220  143.3830 C   0  0  1  0  0  3  0  0  0  0  0  0
  196.5490  174.2620  142.2230 C   0  0  0  0  0  2  0  0  0  0  0  0
  196.4470  172.7770  141.9270 C   0  0  0  0  0  2  0  0  0  0  0  0
  195.4750  172.5230  140.7870 C   0  0  2  0  0  3  0  0  0  0  0  0
  196.2310  172.0970  139.5310 C   0  0  2  0  0  3  0  0  0  0  0  0
  196.0500  173.0770  138.3840 C   0  0  0  0  0  1  0  0  0  0  0  0
  195.8240  170.8230  139.1300 O   0  0  0  0  0  1  0  0  0  0  0  0
  194.6610  173.6670  140.5450 O   0  0  0  0  0  0  0  0  0  0  0  0
  193.2680  173.6320  140.6460 C   0  0  0  0  0  0  0  0  0  0  0  0
  192.6570  174.6630  141.0360 O   0  0  0  0  0  0  0  0  0  0  0  0
  192.4980  172.3860  140.3090 C   0  0  2  0  0  3  0  0  0  0  0  0
  190.1520  171.9530  140.2160 O   0  0  0  0  0  0  0  0  0  0  0  0
  192.0680  172.4050  138.8750 C   0  0  0  0  0  2  0  0  0  0  0  0
  191.1970  172.2990  141.0960 C   0  0  1  0  0  3  0  0  0  0  0  0
  190.5570  172.3520  138.9300 C   0  0  2  0  0  3  0  0  0  0  0  0
  189.9970  173.6600  138.6250 N   0  0  0  0  0  2  0  0  0  0  0  0
  188.5720  173.4720  138.4190 C   0  0  0  0  0  1  0  0  0  0  0  0
  191.2630  171.2840  142.2680 C   0  0  1  0  0  0  0  0  0  0  0  0
  192.5720  170.8040  142.3390 O   0  0  0  0  0  1  0  0  0  0  0  0
  189.4920  172.1410  143.9330 C   0  0  0  0  0  1  0  0  0  0  0  0
  190.9710  171.9410  143.6330 C   0  0  0  0  0  2  0  0  0  0  0  0
  190.4230  170.1590  142.0550 O   0  0  0  0  0  0  0  0  0  0  0  0
  191.1770  169.0200  141.7150 C   0  0  0  0  0  2  0  0  0  0  0  0
  190.6050  168.3910  140.4610 C   0  0  0  0  0  1  0  0  0  0  0  0
  194.5690  172.0930  145.7320 C   0  0  0  0  0  2  0  0  0  0  0  0
  195.5350  170.3130  144.4730 F   0  0  0  0  0  0  0  0  0  0  0  0
  195.0380  169.9400  146.6460 F   0  0  0  0  0  0  0  0  0  0  0  0
  194.6420  170.5900  145.4920 C   0  0  0  0  0  0  0  0  0  0  0  0
  193.3900  170.1360  145.1270 F   0  0  0  0  0  0  0  0  0  0  0  0
  1  2  2  0  0  0  0
  2 52  1  0  0  0  0
  2  4  1  0  0  0  0
  3  5  1  0  0  0  0
  3  1  2  0  0  0  0
  7  8  1  0  0  0  0
  8 12  1  1  0  0  0
  8  6  1  0  0  0  0
  9  7  1  0  0  0  0
  9 11  1  0  0  0  0
 10  6  1  0  0  0  0
 11  5  1  6  0  0  0
 11 10  1  0  0  0  0
 12 14  1  0  0  0  0
 14 13  2  0  0  0  0
 14 15  1  0  0  0  0
 15 16  1  0  0  0  0
 17 16  1  0  0  0  0
 18 17  1  0  0  0  0
 20 23  1  1  0  0  0
 20 22  1  0  0  0  0
 21 24  1  6  0  0  0
 21 19  1  0  0  0  0
 21 28  1  0  0  0  0
 21 26  1  0  0  0  0
 22 18  1  1  0  0  0
 25 22  1  0  0  0  0
 26 25  1  6  0  0  0
 27 24  1  1  0  0  0
 27 23  1  0  0  0  0
 27 20  1  0  0  0  0
 28 19  1  1  0  0  0
 28 26  1  0  0  0  0
 29  3  1  0  0  0  0
 30 29  1  0  0  0  0
 31 30  1  1  0  0  0
 32 33  1  6  0  0  0
 32 31  1  0  0  0  0
 34 32  1  0  0  0  0
 35 36  1  0  0  0  0
 35 31  1  0  0  0  0
 36 37  2  0  0  0  0
 38 36  1  1  0  0  0
 38 41  1  0  0  0  0
 39 41  1  0  0  0  0
 40 42  1  0  0  0  0
 40 38  1  0  0  0  0
 41 45  1  1  0  0  0
 42 43  1  1  0  0  0
 42 39  1  0  0  0  0
 44 43  1  0  0  0  0
 45 46  1  1  0  0  0
 45 48  1  0  0  0  0
 48 47  1  0  0  0  0
 49 45  1  0  0  0  0
 50 49  1  0  0  0  0
 51 50  1  0  0  0  0
 53 55  1  0  0  0  0
 55 52  1  0  0  0  0
 55 54  1  0  0  0  0
 56 55  1  0  0  0  0
M  END
>  <MODEL>
3

>  <REMARK>
 VINA RESULT:      -6.3      3.341      6.376
  Name = 
  23 active torsions:
  status: ('A' for Active; 'I' for Inactive)
    1  A    between atoms: C_1  and  C_33
    2  A    between atoms: C_1  and  C_47
    3  A    between atoms: C_2  and  N_38
    4  A    between atoms: C_2  and  C_53
    5  A    between atoms: N_4  and  C_55
    6  A    between atoms: C_6  and  C_7
    7  A    between atoms: C_6  and  O_50
    8  A    between atoms: N_9  and  N_38
    9  A    between atoms: N_9  and  C_43
   10  A    between atoms: O_10  and  C_29
   11  A    between atoms: O_10  and  C_30
   12  A    between atoms: C_11  and  C_32
   13  A    between atoms: C_11  and  C_46
   14  A    between atoms: C_12  and  C_23
   15  A    between atoms: C_12  and  C_53
   16  A    between atoms: C_13  and  C_42
   17  A    between atoms: C_24  and  C_43
   18  A    between atoms: C_30  and  C_31
   19  A    between atoms: C_30  and  C_56
   20  A    between atoms: C_33  and  S_40
   21  A    between atoms: S_40  and  C_52
   22  A    between atoms: C_42  and  C_47
   23  A    between atoms: C_42  and  O_50
                            x       y       z     vdW  Elec       q    Type
                         _______ _______ _______ _____ _____    ______ ____

>  <TORSDO>
F 23

$$$$
=
 OpenBabel11062421163D

 56 61  0  0  1  0  0  0  0  0999 V2000
  196.0010  173.1090  143.7140 C   0  0  0  0  0  0  0  0  0  0  0  0
  196.8740  172.3090  144.2560 C   0  0  0  0  0  0  0  0  0  0  0  0
  195.1240  173.9180  143.1870 C   0  0  0  0  0  0  0  0  0  0  0  0
  197.9410  171.8360  143.5030 O   0  0  0  0  0  1  0  0  0  0  0  0
  195.2280  175.6780  143.5150 S   0  0  0  0  0  0  0  0  0  0  0  0
  192.5340  174.5760  146.4170 C   0  0  0  0  0  2  0  0  0  0  0  0
  192.3260  176.9700  145.7680 C   0  0  0  0  0  2  0  0  0  0  0  0
  192.2630  175.9810  146.9370 C   0  0  1  0  0  3  0  0  0  0  0  0
  193.6040  176.9320  145.1800 O   0  0  0  0  0  0  0  0  0  0  0  0
  193.8060  174.5670  145.5750 C   0  0  0  0  0  2  0  0  0  0  0  0
  193.7250  175.6860  144.5360 C   0  0  2  0  0  3  0  0  0  0  0  0
  190.9040  176.0280  147.6150 C   0  0  0  0  0  2  0  0  0  0  0  0
  189.9660  174.5250  146.0630 O   0  0  0  0  0  0  0  0  0  0  0  0
  189.8280  175.5680  146.6820 C   0  0  0  0  0  0  0  0  0  0  0  0
  188.5970  176.3910  146.4940 C   0  0  0  0  0  2  0  0  0  0  0  0
  187.7300  176.2630  147.6550 N   0  0  0  0  0  2  0  0  0  0  0  0
  186.7310  177.2380  147.5160 N   0  0  0  0  0  2  0  0  0  0  0  0
  186.7870  177.7070  146.1400 C   0  0  0  0  0  2  0  0  0  0  0  0
  186.8230  178.3270  141.5850 C   0  0  0  0  0  2  0  0  0  0  0  0
  184.6230  178.7530  145.1500 C   0  0  1  0  0  3  0  0  0  0  0  0
  185.7800  177.4170  142.1910 C   0  0  1  0  0  0  0  0  0  0  0  0
  185.4460  177.4760  145.4510 C   0  0  1  0  0  3  0  0  0  0  0  0
  185.4550  179.7730  144.3750 C   0  0  0  0  0  2  0  0  0  0  0  0
  184.4570  178.1380  142.5650 C   0  0  0  0  0  2  0  0  0  0  0  0
  185.4500  176.3230  144.4450 C   0  0  0  0  0  2  0  0  0  0  0  0
  186.3750  176.4740  143.2230 C   0  0  2  0  0  3  0  0  0  0  0  0
  184.2420  179.1580  143.7160 C   0  0  1  0  0  3  0  0  0  0  0  0
  186.9800  177.8540  143.0150 C   0  0  1  0  0  3  0  0  0  0  0  0
  194.1300  173.4010  142.2120 C   0  0  0  0  0  2  0  0  0  0  0  0
  193.5920  172.0550  142.6630 C   0  0  0  0  0  2  0  0  0  0  0  0
  192.7000  171.4480  141.5940 C   0  0  2  0  0  3  0  0  0  0  0  0
  193.0770  169.9870  141.3560 C   0  0  2  0  0  3  0  0  0  0  0  0
  191.8610  169.0770  141.2930 C   0  0  0  0  0  1  0  0  0  0  0  0
  193.9450  169.5440  142.3540 O   0  0  0  0  0  1  0  0  0  0  0  0
  192.7570  172.2060  140.3900 O   0  0  0  0  0  0  0  0  0  0  0  0
  191.6700  172.9450  139.9160 C   0  0  0  0  0  0  0  0  0  0  0  0
  191.8710  174.1000  139.4520 O   0  0  0  0  0  0  0  0  0  0  0  0
  190.2750  172.3880  139.9630 C   0  0  2  0  0  3  0  0  0  0  0  0
  188.1490  173.4160  139.6090 O   0  0  0  0  0  0  0  0  0  0  0  0
  189.8020  172.0390  138.5850 C   0  0  0  0  0  2  0  0  0  0  0  0
  189.2730  173.4220  140.4590 C   0  0  1  0  0  3  0  0  0  0  0  0
  188.5810  172.9050  138.3720 C   0  0  2  0  0  3  0  0  0  0  0  0
  188.8970  174.0050  137.4720 N   0  0  0  0  0  2  0  0  0  0  0  0
  187.6920  174.8060  137.3450 C   0  0  0  0  0  1  0  0  0  0  0  0
  188.8320  173.1840  141.9270 C   0  0  1  0  0  0  0  0  0  0  0  0
  187.4470  173.0020  141.9300 O   0  0  0  0  0  1  0  0  0  0  0  0
  189.6110  171.9210  144.0350 C   0  0  0  0  0  1  0  0  0  0  0  0
  189.4370  171.8960  142.5230 C   0  0  0  0  0  2  0  0  0  0  0  0
  189.1010  174.3040  142.7590 O   0  0  0  0  0  0  0  0  0  0  0  0
  189.7060  175.3440  142.0280 C   0  0  0  0  0  2  0  0  0  0  0  0
  190.4630  176.2530  142.9750 C   0  0  0  0  0  1  0  0  0  0  0  0
  196.7030  171.8860  145.6790 C   0  0  0  0  0  2  0  0  0  0  0  0
  194.4350  171.1980  145.9410 F   0  0  0  0  0  0  0  0  0  0  0  0
  195.8140  169.8920  144.7180 F   0  0  0  0  0  0  0  0  0  0  0  0
  195.7270  170.7230  145.8190 C   0  0  0  0  0  0  0  0  0  0  0  0
  196.0500  170.0050  146.9530 F   0  0  0  0  0  0  0  0  0  0  0  0
  1  2  2  0  0  0  0
  2 52  1  0  0  0  0
  3  5  1  0  0  0  0
  3  1  2  0  0  0  0
  4  2  1  0  0  0  0
  6  8  1  0  0  0  0
  7  8  1  0  0  0  0
  8 12  1  6  0  0  0
  9  7  1  0  0  0  0
 10  6  1  0  0  0  0
 11  5  1  1  0  0  0
 11  9  1  0  0  0  0
 11 10  1  0  0  0  0
 13 14  2  0  0  0  0
 14 12  1  0  0  0  0
 15 14  1  0  0  0  0
 15 16  1  0  0  0  0
 17 16  1  0  0  0  0
 18 17  1  0  0  0  0
 20 23  1  6  0  0  0
 20 22  1  0  0  0  0
 21 19  1  6  0  0  0
 21 24  1  0  0  0  0
 21 28  1  0  0  0  0
 21 26  1  0  0  0  0
 22 18  1  6  0  0  0
 25 22  1  0  0  0  0
 26 25  1  1  0  0  0
 27 24  1  6  0  0  0
 27 23  1  0  0  0  0
 27 20  1  0  0  0  0
 28 19  1  6  0  0  0
 28 26  1  0  0  0  0
 29 30  1  0  0  0  0
 29  3  1  0  0  0  0
 31 30  1  1  0  0  0
 32 33  1  1  0  0  0
 32 31  1  0  0  0  0
 32 34  1  0  0  0  0
 35 31  1  0  0  0  0
 36 35  1  0  0  0  0
 37 36  2  0  0  0  0
 38 36  1  6  0  0  0
 38 41  1  0  0  0  0
 39 41  1  0  0  0  0
 40 38  1  0  0  0  0
 41 45  1  1  0  0  0
 42 43  1  6  0  0  0
 42 40  1  0  0  0  0
 42 39  1  0  0  0  0
 44 43  1  0  0  0  0
 45 46  1  6  0  0  0
 45 48  1  0  0  0  0
 45 49  1  0  0  0  0
 48 47  1  0  0  0  0
 50 49  1  0  0  0  0
 50 51  1  0  0  0  0
 52 55  1  0  0  0  0
 54 55  1  0  0  0  0
 55 53  1  0  0  0  0
 55 56  1  0  0  0  0
M  END
>  <MODEL>
4

>  <REMARK>
 VINA RESULT:      -5.9      3.423      6.420
  Name = 
  23 active torsions:
  status: ('A' for Active; 'I' for Inactive)
    1  A    between atoms: C_1  and  C_33
    2  A    between atoms: C_1  and  C_47
    3  A    between atoms: C_2  and  N_38
    4  A    between atoms: C_2  and  C_53
    5  A    between atoms: N_4  and  C_55
    6  A    between atoms: C_6  and  C_7
    7  A    between atoms: C_6  and  O_50
    8  A    between atoms: N_9  and  N_38
    9  A    between atoms: N_9  and  C_43
   10  A    between atoms: O_10  and  C_29
   11  A    between atoms: O_10  and  C_30
   12  A    between atoms: C_11  and  C_32
   13  A    between atoms: C_11  and  C_46
   14  A    between atoms: C_12  and  C_23
   15  A    between atoms: C_12  and  C_53
   16  A    between atoms: C_13  and  C_42
   17  A    between atoms: C_24  and  C_43
   18  A    between atoms: C_30  and  C_31
   19  A    between atoms: C_30  and  C_56
   20  A    between atoms: C_33  and  S_40
   21  A    between atoms: S_40  and  C_52
   22  A    between atoms: C_42  and  C_47
   23  A    between atoms: C_42  and  O_50
                            x       y       z     vdW  Elec       q    Type
                         _______ _______ _______ _____ _____    ______ ____

>  <TORSDO>
F 23

$$$$
=
 OpenBabel11062421163D

 56 61  0  0  1  0  0  0  0  0999 V2000
  196.2760  171.7290  143.5980 C   0  0  0  0  0  0  0  0  0  0  0  0
  196.6530  170.6520  144.2260 C   0  0  0  0  0  0  0  0  0  0  0  0
  195.9030  172.8170  142.9830 C   0  0  0  0  0  0  0  0  0  0  0  0
  197.2560  169.6160  143.5250 O   0  0  0  0  0  1  0  0  0  0  0  0
  196.9270  174.2860  143.0730 S   0  0  0  0  0  0  0  0  0  0  0  0
  194.0230  176.6670  144.7420 C   0  0  0  0  0  2  0  0  0  0  0  0
  194.5900  174.7020  146.1600 C   0  0  0  0  0  2  0  0  0  0  0  0
  193.4530  175.6080  145.6760 C   0  0  1  0  0  3  0  0  0  0  0  0
  195.1980  174.0700  145.0600 O   0  0  0  0  0  0  0  0  0  0  0  0
  194.8840  176.0090  143.6690 C   0  0  0  0  0  2  0  0  0  0  0  0
  195.8840  175.0670  144.3400 C   0  0  2  0  0  3  0  0  0  0  0  0
  192.7540  176.2760  146.8490 C   0  0  0  0  0  2  0  0  0  0  0  0
  191.4240  175.1680  148.4470 O   0  0  0  0  0  0  0  0  0  0  0  0
  191.5580  175.4830  147.2750 C   0  0  0  0  0  0  0  0  0  0  0  0
  190.5390  175.0640  146.2680 C   0  0  0  0  0  2  0  0  0  0  0  0
  189.2070  175.4210  146.7270 N   0  0  0  0  0  2  0  0  0  0  0  0
  189.2220  176.8040  146.9620 N   0  0  0  0  0  2  0  0  0  0  0  0
  188.2460  177.3950  146.0590 C   0  0  0  0  0  2  0  0  0  0  0  0
  184.8680  179.9670  144.2970 C   0  0  0  0  0  2  0  0  0  0  0  0
  186.1960  177.7440  147.6180 C   0  0  1  0  0  3  0  0  0  0  0  0
  184.5720  178.5360  144.6820 C   0  0  1  0  0  0  0  0  0  0  0  0
  186.8380  176.9570  146.4490 C   0  0  1  0  0  3  0  0  0  0  0  0
  186.2360  179.2490  147.3560 C   0  0  0  0  0  2  0  0  0  0  0  0
  184.0700  178.3680  146.1420 C   0  0  0  0  0  2  0  0  0  0  0  0
  185.9720  176.5140  145.2680 C   0  0  0  0  0  2  0  0  0  0  0  0
  185.6530  177.5810  144.2040 C   0  0  2  0  0  3  0  0  0  0  0  0
  184.8980  178.5510  147.4420 C   0  0  1  0  0  3  0  0  0  0  0  0
  186.0110  179.0130  144.5720 C   0  0  1  0  0  3  0  0  0  0  0  0
  194.7070  172.7970  142.1010 C   0  0  0  0  0  2  0  0  0  0  0  0
  195.1130  172.5420  140.6610 C   0  0  0  0  0  2  0  0  0  0  0  0
  194.7950  171.1110  140.2610 C   0  0  2  0  0  3  0  0  0  0  0  0
  195.9780  170.4930  139.5190 C   0  0  2  0  0  3  0  0  0  0  0  0
  195.9900  168.9760  139.6060 C   0  0  0  0  0  1  0  0  0  0  0  0
  197.1790  171.0030  140.0150 O   0  0  0  0  0  1  0  0  0  0  0  0
  193.6020  171.0500  139.4860 O   0  0  0  0  0  0  0  0  0  0  0  0
  192.3790  170.6390  140.0220 C   0  0  0  0  0  0  0  0  0  0  0  0
  192.3550  169.6510  140.8030 O   0  0  0  0  0  0  0  0  0  0  0  0
  191.1010  171.3490  139.6710 C   0  0  2  0  0  3  0  0  0  0  0  0
  190.6920  173.5420  138.8220 O   0  0  0  0  0  0  0  0  0  0  0  0
  190.8300  171.2460  138.2010 C   0  0  0  0  0  2  0  0  0  0  0  0
  191.1980  172.8460  139.9370 C   0  0  1  0  0  3  0  0  0  0  0  0
  190.8100  172.6790  137.7180 C   0  0  2  0  0  3  0  0  0  0  0  0
  192.0350  172.9800  136.9900 N   0  0  0  0  0  2  0  0  0  0  0  0
  192.1910  171.9480  135.9800 C   0  0  0  0  0  1  0  0  0  0  0  0
  190.4470  173.2830  141.2230 C   0  0  1  0  0  0  0  0  0  0  0  0
  189.8140  172.1550  141.7480 O   0  0  0  0  0  1  0  0  0  0  0  0
  191.4770  175.3050  142.4440 C   0  0  0  0  0  1  0  0  0  0  0  0
  191.4060  173.7900  142.3200 C   0  0  0  0  0  2  0  0  0  0  0  0
  189.4310  174.2390  140.9540 O   0  0  0  0  0  0  0  0  0  0  0  0
  188.2080  173.8530  141.5340 C   0  0  0  0  0  2  0  0  0  0  0  0
  187.5860  175.0420  142.2390 C   0  0  0  0  0  1  0  0  0  0  0  0
  196.4070  170.5320  145.6950 C   0  0  0  0  0  2  0  0  0  0  0  0
  194.8780  169.4920  147.2010 F   0  0  0  0  0  0  0  0  0  0  0  0
  194.1980  171.3390  146.0920 F   0  0  0  0  0  0  0  0  0  0  0  0
  194.9560  170.1860  146.0090 C   0  0  0  0  0  0  0  0  0  0  0  0
  194.4580  169.3920  144.9940 F   0  0  0  0  0  0  0  0  0  0  0  0
  1  2  2  0  0  0  0
  2 52  1  0  0  0  0
  3  5  1  0  0  0  0
  3  1  2  0  0  0  0
  4  2  1  0  0  0  0
  6  8  1  0  0  0  0
  8  7  1  0  0  0  0
  8 12  1  1  0  0  0
  9  7  1  0  0  0  0
 10 11  1  0  0  0  0
 10  6  1  0  0  0  0
 11  5  1  6  0  0  0
 11  9  1  0  0  0  0
 12 14  1  0  0  0  0
 14 13  2  0  0  0  0
 15 16  1  0  0  0  0
 15 14  1  0  0  0  0
 16 17  1  0  0  0  0
 18 17  1  0  0  0  0
 20 23  1  6  0  0  0
 21 19  1  6  0  0  0
 21 24  1  0  0  0  0
 22 18  1  6  0  0  0
 22 20  1  0  0  0  0
 23 27  1  0  0  0  0
 25 22  1  0  0  0  0
 26 28  1  0  0  0  0
 26 21  1  0  0  0  0
 26 25  1  1  0  0  0
 27 24  1  6  0  0  0
 27 20  1  0  0  0  0
 28 19  1  6  0  0  0
 28 21  1  0  0  0  0
 29  3  1  0  0  0  0
 30 29  1  0  0  0  0
 31 30  1  6  0  0  0
 32 33  1  1  0  0  0
 32 34  1  0  0  0  0
 32 31  1  0  0  0  0
 35 36  1  0  0  0  0
 35 31  1  0  0  0  0
 36 37  2  0  0  0  0
 38 41  1  0  0  0  0
 38 36  1  6  0  0  0
 39 41  1  0  0  0  0
 40 38  1  0  0  0  0
 41 45  1  1  0  0  0
 42 43  1  1  0  0  0
 42 40  1  0  0  0  0
 42 39  1  0  0  0  0
 44 43  1  0  0  0  0
 45 46  1  1  0  0  0
 45 48  1  0  0  0  0
 48 47  1  0  0  0  0
 49 45  1  0  0  0  0
 49 50  1  0  0  0  0
 50 51  1  0  0  0  0
 52 55  1  0  0  0  0
 55 54  1  0  0  0  0
 55 53  1  0  0  0  0
 56 55  1  0  0  0  0
M  END
>  <MODEL>
5

>  <REMARK>
 VINA RESULT:      -5.9      3.536      6.407
  Name = 
  23 active torsions:
  status: ('A' for Active; 'I' for Inactive)
    1  A    between atoms: C_1  and  C_33
    2  A    between atoms: C_1  and  C_47
    3  A    between atoms: C_2  and  N_38
    4  A    between atoms: C_2  and  C_53
    5  A    between atoms: N_4  and  C_55
    6  A    between atoms: C_6  and  C_7
    7  A    between atoms: C_6  and  O_50
    8  A    between atoms: N_9  and  N_38
    9  A    between atoms: N_9  and  C_43
   10  A    between atoms: O_10  and  C_29
   11  A    between atoms: O_10  and  C_30
   12  A    between atoms: C_11  and  C_32
   13  A    between atoms: C_11  and  C_46
   14  A    between atoms: C_12  and  C_23
   15  A    between atoms: C_12  and  C_53
   16  A    between atoms: C_13  and  C_42
   17  A    between atoms: C_24  and  C_43
   18  A    between atoms: C_30  and  C_31
   19  A    between atoms: C_30  and  C_56
   20  A    between atoms: C_33  and  S_40
   21  A    between atoms: S_40  and  C_52
   22  A    between atoms: C_42  and  C_47
   23  A    between atoms: C_42  and  O_50
                            x       y       z     vdW  Elec       q    Type
                         _______ _______ _______ _____ _____    ______ ____

>  <TORSDO>
F 23

$$$$
=
 OpenBabel11062421163D

 56 61  0  0  1  0  0  0  0  0999 V2000
  190.7260  171.4940  138.8000 C   0  0  0  0  0  0  0  0  0  0  0  0
  191.4390  170.5300  139.3100 C   0  0  0  0  0  0  0  0  0  0  0  0
  190.0240  172.4600  138.2760 C   0  0  0  0  0  0  0  0  0  0  0  0
  190.8140  169.4770  139.9640 O   0  0  0  0  0  1  0  0  0  0  0  0
  189.7060  172.4730  136.5120 S   0  0  0  0  0  0  0  0  0  0  0  0
  192.8170  175.1550  136.6520 C   0  0  0  0  0  2  0  0  0  0  0  0
  193.5140  172.9130  135.8270 C   0  0  0  0  0  2  0  0  0  0  0  0
  193.9310  174.1180  136.6760 C   0  0  1  0  0  3  0  0  0  0  0  0
  192.3400  172.3420  136.3530 O   0  0  0  0  0  0  0  0  0  0  0  0
  191.4850  174.4970  136.9980 C   0  0  0  0  0  2  0  0  0  0  0  0
  191.2970  173.2590  136.1210 C   0  0  2  0  0  3  0  0  0  0  0  0
  195.2190  174.7320  136.1500 C   0  0  0  0  0  2  0  0  0  0  0  0
  197.1330  175.7440  137.0780 O   0  0  0  0  0  0  0  0  0  0  0  0
  196.1610  175.0320  137.2740 C   0  0  0  0  0  0  0  0  0  0  0  0
  195.9230  174.4470  138.6270 C   0  0  0  0  0  2  0  0  0  0  0  0
  196.0550  175.4760  139.6450 N   0  0  0  0  0  2  0  0  0  0  0  0
  194.8280  175.5280  140.3230 N   0  0  0  0  0  2  0  0  0  0  0  0
  195.0080  174.8140  141.5770 C   0  0  0  0  0  2  0  0  0  0  0  0
  195.7920  173.0000  145.7280 C   0  0  0  0  0  2  0  0  0  0  0  0
  193.2520  175.4170  143.3960 C   0  0  1  0  0  3  0  0  0  0  0  0
  195.7550  174.5040  145.5820 C   0  0  1  0  0  0  0  0  0  0  0  0
  194.6290  175.7110  142.7510 C   0  0  1  0  0  3  0  0  0  0  0  0
  193.1310  173.9450  143.7860 C   0  0  0  0  0  2  0  0  0  0  0  0
  194.3500  175.1230  145.8040 C   0  0  0  0  0  2  0  0  0  0  0  0
  195.8100  176.1150  143.6360 C   0  0  0  0  0  2  0  0  0  0  0  0
  196.5430  174.9800  144.3730 C   0  0  2  0  0  3  0  0  0  0  0  0
  193.1150  174.9980  144.8700 C   0  0  1  0  0  3  0  0  0  0  0  0
  195.8580  173.6210  144.3490 C   0  0  1  0  0  3  0  0  0  0  0  0
  189.3780  173.4680  139.1560 C   0  0  0  0  0  2  0  0  0  0  0  0
  190.1720  173.6430  140.4370 C   0  0  0  0  0  2  0  0  0  0  0  0
  189.2810  174.1600  141.5550 C   0  0  2  0  0  3  0  0  0  0  0  0
  188.7070  172.9940  142.3560 C   0  0  2  0  0  3  0  0  0  0  0  0
  189.6400  171.7950  142.3860 C   0  0  0  0  0  1  0  0  0  0  0  0
  187.4680  172.6150  141.8370 O   0  0  0  0  0  1  0  0  0  0  0  0
  188.2520  174.9990  141.0400 O   0  0  0  0  0  0  0  0  0  0  0  0
  187.8570  176.1790  141.6770 C   0  0  0  0  0  0  0  0  0  0  0  0
  187.8380  177.2530  141.0180 O   0  0  0  0  0  0  0  0  0  0  0  0
  187.4690  176.1830  143.1290 C   0  0  2  0  0  3  0  0  0  0  0  0
  187.1360  177.9730  144.6720 O   0  0  0  0  0  0  0  0  0  0  0  0
  185.9970  176.4120  143.2790 C   0  0  0  0  0  2  0  0  0  0  0  0
  188.1140  177.3400  143.8810 C   0  0  1  0  0  3  0  0  0  0  0  0
  185.8920  177.6900  144.0820 C   0  0  2  0  0  3  0  0  0  0  0  0
  185.4970  178.7940  143.2190 N   0  0  0  0  0  2  0  0  0  0  0  0
  184.4640  178.2890  142.3320 C   0  0  0  0  0  1  0  0  0  0  0  0
  189.3110  176.8980  144.7640 C   0  0  1  0  0  0  0  0  0  0  0  0
  189.7190  175.6370  144.3250 O   0  0  0  0  0  1  0  0  0  0  0  0
  190.8650  178.1950  143.1690 C   0  0  0  0  0  1  0  0  0  0  0  0
  190.5330  177.8260  144.6080 C   0  0  0  0  0  2  0  0  0  0  0  0
  188.9480  176.7600  146.1310 O   0  0  0  0  0  0  0  0  0  0  0  0
  188.8500  175.4040  146.4950 C   0  0  0  0  0  2  0  0  0  0  0  0
  189.9020  175.0840  147.5380 C   0  0  0  0  0  1  0  0  0  0  0  0
  192.9300  170.5830  139.2090 C   0  0  0  0  0  2  0  0  0  0  0  0
  192.9460  171.5830  141.3730 F   0  0  0  0  0  0  0  0  0  0  0  0
  194.8950  171.4610  140.2370 F   0  0  0  0  0  0  0  0  0  0  0  0
  193.5300  171.6460  140.1220 C   0  0  0  0  0  0  0  0  0  0  0  0
  193.2880  172.8910  139.5760 F   0  0  0  0  0  0  0  0  0  0  0  0
  1  2  2  0  0  0  0
  2  4  1  0  0  0  0
  3  1  2  0  0  0  0
  3 29  1  0  0  0  0
  5  3  1  0  0  0  0
  6  8  1  0  0  0  0
  6 10  1  0  0  0  0
  7  9  1  0  0  0  0
  7  8  1  0  0  0  0
  8 12  1  6  0  0  0
 11  9  1  0  0  0  0
 11  5  1  1  0  0  0
 11 10  1  0  0  0  0
 12 14  1  0  0  0  0
 13 14  2  0  0  0  0
 14 15  1  0  0  0  0
 15 16  1  0  0  0  0
 16 17  1  0  0  0  0
 17 18  1  0  0  0  0
 20 23  1  6  0  0  0
 20 27  1  0  0  0  0
 21 19  1  1  0  0  0
 21 24  1  0  0  0  0
 22 18  1  1  0  0  0
 22 20  1  0  0  0  0
 22 25  1  0  0  0  0
 26 25  1  6  0  0  0
 26 21  1  0  0  0  0
 27 23  1  6  0  0  0
 27 24  1  0  0  0  0
 28 26  1  0  0  0  0
 28 21  1  0  0  0  0
 28 19  1  1  0  0  0
 29 30  1  0  0  0  0
 31 30  1  6  0  0  0
 31 32  1  0  0  0  0
 32 33  1  6  0  0  0
 34 32  1  0  0  0  0
 35 31  1  0  0  0  0
 35 36  1  0  0  0  0
 37 36  2  0  0  0  0
 38 36  1  6  0  0  0
 38 40  1  0  0  0  0
 38 41  1  0  0  0  0
 40 42  1  0  0  0  0
 41 39  1  0  0  0  0
 41 45  1  1  0  0  0
 42 43  1  6  0  0  0
 42 39  1  0  0  0  0
 44 43  1  0  0  0  0
 45 46  1  6  0  0  0
 45 49  1  0  0  0  0
 47 48  1  0  0  0  0
 48 45  1  0  0  0  0
 49 50  1  0  0  0  0
 50 51  1  0  0  0  0
 52  2  1  0  0  0  0
 52 55  1  0  0  0  0
 55 54  1  0  0  0  0
 55 53  1  0  0  0  0
 56 55  1  0  0  0  0
M  END
>  <MODEL>
6

>  <REMARK>
 VINA RESULT:      -5.9      3.013      7.770
  Name = 
  23 active torsions:
  status: ('A' for Active; 'I' for Inactive)
    1  A    between atoms: C_1  and  C_33
    2  A    between atoms: C_1  and  C_47
    3  A    between atoms: C_2  and  N_38
    4  A    between atoms: C_2  and  C_53
    5  A    between atoms: N_4  and  C_55
    6  A    between atoms: C_6  and  C_7
    7  A    between atoms: C_6  and  O_50
    8  A    between atoms: N_9  and  N_38
    9  A    between atoms: N_9  and  C_43
   10  A    between atoms: O_10  and  C_29
   11  A    between atoms: O_10  and  C_30
   12  A    between atoms: C_11  and  C_32
   13  A    between atoms: C_11  and  C_46
   14  A    between atoms: C_12  and  C_23
   15  A    between atoms: C_12  and  C_53
   16  A    between atoms: C_13  and  C_42
   17  A    between atoms: C_24  and  C_43
   18  A    between atoms: C_30  and  C_31
   19  A    between atoms: C_30  and  C_56
   20  A    between atoms: C_33  and  S_40
   21  A    between atoms: S_40  and  C_52
   22  A    between atoms: C_42  and  C_47
   23  A    between atoms: C_42  and  O_50
                            x       y       z     vdW  Elec       q    Type
                         _______ _______ _______ _____ _____    ______ ____

>  <TORSDO>
F 23

$$$$
=
 OpenBabel11062421163D

 56 61  0  0  1  0  0  0  0  0999 V2000
  191.3190  174.2230  145.4460 C   0  0  0  0  0  0  0  0  0  0  0  0
  190.0330  174.0140  145.4150 C   0  0  0  0  0  0  0  0  0  0  0  0
  192.6030  174.4470  145.4700 C   0  0  0  0  0  0  0  0  0  0  0  0
  189.4230  173.2970  146.4360 O   0  0  0  0  0  1  0  0  0  0  0  0
  193.2180  176.0430  146.0090 S   0  0  0  0  0  0  0  0  0  0  0  0
  191.4270  176.9170  142.4150 C   0  0  0  0  0  2  0  0  0  0  0  0
  190.3490  178.0760  144.3350 C   0  0  0  0  0  2  0  0  0  0  0  0
  190.0960  177.3750  142.9970 C   0  0  1  0  0  3  0  0  0  0  0  0
  190.9640  177.1840  145.2330 O   0  0  0  0  0  0  0  0  0  0  0  0
  192.2150  176.1380  143.4630 C   0  0  0  0  0  2  0  0  0  0  0  0
  192.2680  176.9530  144.7550 C   0  0  2  0  0  3  0  0  0  0  0  0
  189.3970  178.3060  142.0190 C   0  0  0  0  0  2  0  0  0  0  0  0
  187.8870  176.6910  141.2070 O   0  0  0  0  0  0  0  0  0  0  0  0
  188.0260  177.8020  141.6940 C   0  0  0  0  0  0  0  0  0  0  0  0
  186.8320  178.6620  141.9480 C   0  0  0  0  0  2  0  0  0  0  0  0
  185.6380  177.8400  142.0520 N   0  0  0  0  0  2  0  0  0  0  0  0
  184.6870  178.6020  142.7460 N   0  0  0  0  0  2  0  0  0  0  0  0
  185.2380  178.8640  144.0670 C   0  0  0  0  0  2  0  0  0  0  0  0
  186.7070  179.3930  148.3900 C   0  0  0  0  0  2  0  0  0  0  0  0
  186.4110  176.7850  145.0970 C   0  0  1  0  0  3  0  0  0  0  0  0
  185.6790  178.3260  148.0930 C   0  0  1  0  0  0  0  0  0  0  0  0
  185.1160  177.6200  144.9420 C   0  0  1  0  0  3  0  0  0  0  0  0
  187.5750  177.6580  145.5650 C   0  0  0  0  0  2  0  0  0  0  0  0
  186.2910  176.9400  147.7530 C   0  0  0  0  0  2  0  0  0  0  0  0
  184.1740  177.7860  146.1350 C   0  0  0  0  0  2  0  0  0  0  0  0
  184.5690  178.8370  147.1890 C   0  0  2  0  0  3  0  0  0  0  0  0
  187.0720  176.5540  146.4670 C   0  0  1  0  0  3  0  0  0  0  0  0
  185.9760  179.4050  147.0640 C   0  0  1  0  0  3  0  0  0  0  0  0
  193.5550  173.3420  145.1840 C   0  0  0  0  0  2  0  0  0  0  0  0
  194.9710  173.8760  145.0750 C   0  0  0  0  0  2  0  0  0  0  0  0
  195.8800  172.8540  144.4120 C   0  0  2  0  0  3  0  0  0  0  0  0
  197.0030  172.4470  145.3630 C   0  0  2  0  0  3  0  0  0  0  0  0
  196.8390  171.0270  145.8800 C   0  0  0  0  0  1  0  0  0  0  0  0
  197.0720  173.3340  146.4380 O   0  0  0  0  0  1  0  0  0  0  0  0
  196.3920  173.3510  143.1790 O   0  0  0  0  0  0  0  0  0  0  0  0
  196.2310  172.6690  141.9700 C   0  0  0  0  0  0  0  0  0  0  0  0
  196.6470  171.4820  141.8770 O   0  0  0  0  0  0  0  0  0  0  0  0
  195.5840  173.3320  140.7870 C   0  0  2  0  0  3  0  0  0  0  0  0
  193.8930  175.0100  140.6430 O   0  0  0  0  0  0  0  0  0  0  0  0
  196.2420  174.6450  140.4950 C   0  0  0  0  0  2  0  0  0  0  0  0
  194.1300  173.6880  141.0660 C   0  0  1  0  0  3  0  0  0  0  0  0
  195.1370  175.6660  140.6480 C   0  0  2  0  0  3  0  0  0  0  0  0
  195.2990  176.3990  141.8950 N   0  0  0  0  0  2  0  0  0  0  0  0
  196.7250  176.5860  142.0920 C   0  0  0  0  0  1  0  0  0  0  0  0
  193.1260  172.7220  140.3830 C   0  0  1  0  0  0  0  0  0  0  0  0
  193.8310  171.9780  139.4350 O   0  0  0  0  0  1  0  0  0  0  0  0
  191.2730  170.9970  140.8680 C   0  0  0  0  0  1  0  0  0  0  0  0
  192.5250  171.7020  141.3720 C   0  0  0  0  0  2  0  0  0  0  0  0
  192.1020  173.4160  139.6840 O   0  0  0  0  0  0  0  0  0  0  0  0
  192.1530  173.1370  138.3050 C   0  0  0  0  0  2  0  0  0  0  0  0
  192.5970  174.3780  137.5560 C   0  0  0  0  0  1  0  0  0  0  0  0
  189.2320  174.5260  144.2630 C   0  0  0  0  0  2  0  0  0  0  0  0
  188.0580  173.6620  142.3760 F   0  0  0  0  0  0  0  0  0  0  0  0
  190.3060  173.8420  142.2460 F   0  0  0  0  0  0  0  0  0  0  0  0
  189.2420  173.5620  143.0820 C   0  0  0  0  0  0  0  0  0  0  0  0
  189.3710  172.2730  143.5600 F   0  0  0  0  0  0  0  0  0  0  0  0
  1  3  2  0  0  0  0
  2  1  2  0  0  0  0
  2  4  1  0  0  0  0
  3  5  1  0  0  0  0
  6  8  1  0  0  0  0
  6 10  1  0  0  0  0
  7  9  1  0  0  0  0
  8 12  1  6  0  0  0
  8  7  1  0  0  0  0
 10 11  1  0  0  0  0
 11  9  1  0  0  0  0
 11  5  1  1  0  0  0
 13 14  2  0  0  0  0
 14 15  1  0  0  0  0
 14 12  1  0  0  0  0
 15 16  1  0  0  0  0
 16 17  1  0  0  0  0
 17 18  1  0  0  0  0
 20 23  1  6  0  0  0
 20 27  1  0  0  0  0
 21 24  1  6  0  0  0
 21 19  1  0  0  0  0
 22 18  1  1  0  0  0
 22 20  1  0  0  0  0
 22 25  1  0  0  0  0
 26 25  1  6  0  0  0
 26 21  1  0  0  0  0
 27 23  1  6  0  0  0
 27 24  1  0  0  0  0
 28 26  1  0  0  0  0
 28 21  1  0  0  0  0
 28 19  1  1  0  0  0
 29  3  1  0  0  0  0
 30 29  1  0  0  0  0
 31 30  1  1  0  0  0
 31 32  1  0  0  0  0
 32 33  1  1  0  0  0
 32 34  1  0  0  0  0
 35 31  1  0  0  0  0
 36 35  1  0  0  0  0
 37 36  2  0  0  0  0
 38 41  1  0  0  0  0
 38 36  1  1  0  0  0
 39 42  1  0  0  0  0
 39 41  1  0  0  0  0
 40 42  1  0  0  0  0
 40 38  1  0  0  0  0
 41 45  1  6  0  0  0
 42 43  1  1  0  0  0
 43 44  1  0  0  0  0
 45 46  1  6  0  0  0
 45 48  1  0  0  0  0
 47 48  1  0  0  0  0
 49 45  1  0  0  0  0
 50 49  1  0  0  0  0
 51 50  1  0  0  0  0
 52  2  1  0  0  0  0
 53 55  1  0  0  0  0
 54 55  1  0  0  0  0
 55 56  1  0  0  0  0
 55 52  1  0  0  0  0
M  END
>  <MODEL>
7

>  <REMARK>
 VINA RESULT:      -5.9      2.336      4.588
  Name = 
  23 active torsions:
  status: ('A' for Active; 'I' for Inactive)
    1  A    between atoms: C_1  and  C_33
    2  A    between atoms: C_1  and  C_47
    3  A    between atoms: C_2  and  N_38
    4  A    between atoms: C_2  and  C_53
    5  A    between atoms: N_4  and  C_55
    6  A    between atoms: C_6  and  C_7
    7  A    between atoms: C_6  and  O_50
    8  A    between atoms: N_9  and  N_38
    9  A    between atoms: N_9  and  C_43
   10  A    between atoms: O_10  and  C_29
   11  A    between atoms: O_10  and  C_30
   12  A    between atoms: C_11  and  C_32
   13  A    between atoms: C_11  and  C_46
   14  A    between atoms: C_12  and  C_23
   15  A    between atoms: C_12  and  C_53
   16  A    between atoms: C_13  and  C_42
   17  A    between atoms: C_24  and  C_43
   18  A    between atoms: C_30  and  C_31
   19  A    between atoms: C_30  and  C_56
   20  A    between atoms: C_33  and  S_40
   21  A    between atoms: S_40  and  C_52
   22  A    between atoms: C_42  and  C_47
   23  A    between atoms: C_42  and  O_50
                            x       y       z     vdW  Elec       q    Type
                         _______ _______ _______ _____ _____    ______ ____

>  <TORSDO>
F 23

$$$$
=
 OpenBabel11062421163D

 56 61  0  0  1  0  0  0  0  0999 V2000
  189.1910  174.5820  141.3870 C   0  0  0  0  0  0  0  0  0  0  0  0
  188.5580  175.6050  141.8890 C   0  0  0  0  0  0  0  0  0  0  0  0
  189.8280  173.5540  140.9000 C   0  0  0  0  0  0  0  0  0  0  0  0
  187.3790  176.0460  141.3040 O   0  0  0  0  0  1  0  0  0  0  0  0
  189.6600  171.9500  141.6830 S   0  0  0  0  0  0  0  0  0  0  0  0
  192.3860  173.9040  144.0590 C   0  0  0  0  0  2  0  0  0  0  0  0
  190.3500  173.2010  145.3060 C   0  0  0  0  0  2  0  0  0  0  0  0
  191.4020  174.3040  145.1500 C   0  0  1  0  0  3  0  0  0  0  0  0
  189.6540  173.0300  144.0950 O   0  0  0  0  0  0  0  0  0  0  0  0
  191.6300  173.4890  142.8010 C   0  0  0  0  0  2  0  0  0  0  0  0
  190.5590  172.4650  143.1770 C   0  0  2  0  0  3  0  0  0  0  0  0
  192.1440  174.5360  146.4560 C   0  0  0  0  0  2  0  0  0  0  0  0
  191.5580  175.6770  148.4320 O   0  0  0  0  0  0  0  0  0  0  0  0
  191.5460  175.6810  147.2110 C   0  0  0  0  0  0  0  0  0  0  0  0
  190.9210  176.8190  146.4730 C   0  0  0  0  0  2  0  0  0  0  0  0
  189.7510  177.2980  147.1920 N   0  0  0  0  0  2  0  0  0  0  0  0
  188.7400  176.3470  146.9870 N   0  0  0  0  0  2  0  0  0  0  0  0
  187.9230  176.8310  145.8850 C   0  0  0  0  0  2  0  0  0  0  0  0
  185.2150  180.1780  144.2720 C   0  0  0  0  0  2  0  0  0  0  0  0
  185.9480  177.4990  147.4380 C   0  0  1  0  0  3  0  0  0  0  0  0
  184.6130  178.8190  144.5470 C   0  0  1  0  0  0  0  0  0  0  0  0
  186.4430  176.6770  146.2220 C   0  0  1  0  0  3  0  0  0  0  0  0
  186.3120  178.9750  147.2880 C   0  0  0  0  0  2  0  0  0  0  0  0
  184.0450  178.6600  145.9820 C   0  0  0  0  0  2  0  0  0  0  0  0
  185.5380  176.5100  145.0000 C   0  0  0  0  0  2  0  0  0  0  0  0
  185.4820  177.6910  144.0140 C   0  0  2  0  0  3  0  0  0  0  0  0
  184.8550  178.5730  147.3040 C   0  0  1  0  0  3  0  0  0  0  0  0
  186.1230  178.9860  144.4920 C   0  0  1  0  0  3  0  0  0  0  0  0
  190.5790  173.6830  139.6240 C   0  0  0  0  0  2  0  0  0  0  0  0
  191.2490  172.3700  139.2660 C   0  0  0  0  0  2  0  0  0  0  0  0
  192.0920  172.5220  138.0110 C   0  0  2  0  0  3  0  0  0  0  0  0
  191.4130  171.8310  136.8310 C   0  0  2  0  0  3  0  0  0  0  0  0
  190.3430  170.8450  137.2720 C   0  0  0  0  0  1  0  0  0  0  0  0
  192.3610  171.1750  136.0440 O   0  0  0  0  0  1  0  0  0  0  0  0
  193.4110  172.0270  138.2190 O   0  0  0  0  0  0  0  0  0  0  0  0
  193.7240  171.1280  139.2420 C   0  0  0  0  0  0  0  0  0  0  0  0
  193.0310  170.0830  139.3700 O   0  0  0  0  0  0  0  0  0  0  0  0
  194.8580  171.3970  140.1900 C   0  0  2  0  0  3  0  0  0  0  0  0
  194.8810  171.9580  142.5100 O   0  0  0  0  0  0  0  0  0  0  0  0
  195.1930  170.1650  140.9730 C   0  0  0  0  0  2  0  0  0  0  0  0
  194.4770  172.4280  141.2450 C   0  0  1  0  0  3  0  0  0  0  0  0
  194.9620  170.5570  142.4150 C   0  0  2  0  0  3  0  0  0  0  0  0
  193.7270  169.9620  142.9060 N   0  0  0  0  0  2  0  0  0  0  0  0
  193.5420  170.4340  144.2670 C   0  0  0  0  0  1  0  0  0  0  0  0
  195.0910  173.8270  140.9760 C   0  0  1  0  0  0  0  0  0  0  0  0
  196.0730  173.6790  139.9950 O   0  0  0  0  0  1  0  0  0  0  0  0
  194.3350  175.2700  138.9780 C   0  0  0  0  0  1  0  0  0  0  0  0
  194.0590  174.8230  140.4060 C   0  0  0  0  0  2  0  0  0  0  0  0
  195.7340  174.3630  142.1240 O   0  0  0  0  0  0  0  0  0  0  0  0
  195.1170  175.5580  142.5390 C   0  0  0  0  0  2  0  0  0  0  0  0
  195.3350  175.7490  144.0270 C   0  0  0  0  0  1  0  0  0  0  0  0
  189.1260  176.3100  143.0780 C   0  0  0  0  0  2  0  0  0  0  0  0
  191.0630  177.5260  142.4000 F   0  0  0  0  0  0  0  0  0  0  0  0
  189.0500  178.2060  141.6320 F   0  0  0  0  0  0  0  0  0  0  0  0
  189.7230  177.6640  142.7110 C   0  0  0  0  0  0  0  0  0  0  0  0
  189.5990  178.5130  143.7930 F   0  0  0  0  0  0  0  0  0  0  0  0
  1  2  2  0  0  0  0
  2 52  1  0  0  0  0
  3  1  2  0  0  0  0
  3  5  1  0  0  0  0
  4  2  1  0  0  0  0
  6  8  1  0  0  0  0
  8  7  1  0  0  0  0
  8 12  1  1  0  0  0
  9  7  1  0  0  0  0
 10 11  1  0  0  0  0
 10  6  1  0  0  0  0
 11  5  1  6  0  0  0
 11  9  1  0  0  0  0
 12 14  1  0  0  0  0
 14 13  2  0  0  0  0
 15 16  1  0  0  0  0
 15 14  1  0  0  0  0
 17 16  1  0  0  0  0
 18 17  1  0  0  0  0
 20 23  1  6  0  0  0
 21 19  1  6  0  0  0
 21 24  1  0  0  0  0
 22 18  1  6  0  0  0
 22 20  1  0  0  0  0
 23 27  1  0  0  0  0
 25 22  1  0  0  0  0
 26 28  1  0  0  0  0
 26 21  1  0  0  0  0
 26 25  1  1  0  0  0
 27 24  1  6  0  0  0
 27 20  1  0  0  0  0
 28 19  1  6  0  0  0
 28 21  1  0  0  0  0
 29  3  1  0  0  0  0
 30 29  1  0  0  0  0
 31 35  1  0  0  0  0
 31 30  1  1  0  0  0
 32 33  1  1  0  0  0
 32 31  1  0  0  0  0
 34 32  1  0  0  0  0
 35 36  1  0  0  0  0
 36 37  2  0  0  0  0
 38 36  1  6  0  0  0
 38 40  1  0  0  0  0
 38 41  1  0  0  0  0
 40 42  1  0  0  0  0
 41 45  1  6  0  0  0
 41 39  1  0  0  0  0
 42 39  1  0  0  0  0
 42 43  1  6  0  0  0
 43 44  1  0  0  0  0
 45 46  1  6  0  0  0
 45 49  1  0  0  0  0
 47 48  1  0  0  0  0
 48 45  1  0  0  0  0
 49 50  1  0  0  0  0
 50 51  1  0  0  0  0
 53 55  1  0  0  0  0
 54 55  1  0  0  0  0
 55 52  1  0  0  0  0
 55 56  1  0  0  0  0
M  END
>  <MODEL>
8

>  <REMARK>
 VINA RESULT:      -5.8      2.799      5.486
  Name = 
  23 active torsions:
  status: ('A' for Active; 'I' for Inactive)
    1  A    between atoms: C_1  and  C_33
    2  A    between atoms: C_1  and  C_47
    3  A    between atoms: C_2  and  N_38
    4  A    between atoms: C_2  and  C_53
    5  A    between atoms: N_4  and  C_55
    6  A    between atoms: C_6  and  C_7
    7  A    between atoms: C_6  and  O_50
    8  A    between atoms: N_9  and  N_38
    9  A    between atoms: N_9  and  C_43
   10  A    between atoms: O_10  and  C_29
   11  A    between atoms: O_10  and  C_30
   12  A    between atoms: C_11  and  C_32
   13  A    between atoms: C_11  and  C_46
   14  A    between atoms: C_12  and  C_23
   15  A    between atoms: C_12  and  C_53
   16  A    between atoms: C_13  and  C_42
   17  A    between atoms: C_24  and  C_43
   18  A    between atoms: C_30  and  C_31
   19  A    between atoms: C_30  and  C_56
   20  A    between atoms: C_33  and  S_40
   21  A    between atoms: S_40  and  C_52
   22  A    between atoms: C_42  and  C_47
   23  A    between atoms: C_42  and  O_50
                            x       y       z     vdW  Elec       q    Type
                         _______ _______ _______ _____ _____    ______ ____

>  <TORSDO>
F 23

$$$$
=
 OpenBabel11062421163D

 56 61  0  0  1  0  0  0  0  0999 V2000
  186.9430  178.1830  144.0380 C   0  0  0  0  0  0  0  0  0  0  0  0
  186.2470  179.1070  144.6380 C   0  0  0  0  0  0  0  0  0  0  0  0
  187.6320  177.2470  143.4480 C   0  0  0  0  0  0  0  0  0  0  0  0
  185.7750  180.1960  143.9180 O   0  0  0  0  0  1  0  0  0  0  0  0
  186.8330  175.7090  142.9890 S   0  0  0  0  0  0  0  0  0  0  0  0
  190.1170  173.4880  141.9070 C   0  0  0  0  0  2  0  0  0  0  0  0
  188.9710  174.5250  139.9570 C   0  0  0  0  0  2  0  0  0  0  0  0
  189.7070  173.2780  140.4550 C   0  0  1  0  0  3  0  0  0  0  0  0
  187.8190  174.7420  140.7360 O   0  0  0  0  0  0  0  0  0  0  0  0
  188.9180  173.9530  142.7260 C   0  0  0  0  0  2  0  0  0  0  0  0
  188.2560  175.1340  142.0160 C   0  0  2  0  0  3  0  0  0  0  0  0
  190.9370  172.9980  139.6060 C   0  0  0  0  0  2  0  0  0  0  0  0
  189.7070  171.3940  138.3960 O   0  0  0  0  0  0  0  0  0  0  0  0
  190.7890  171.7050  138.8680 C   0  0  0  0  0  0  0  0  0  0  0  0
  191.9580  170.7870  138.7220 C   0  0  0  0  0  2  0  0  0  0  0  0
  192.8270  170.8990  139.8820 N   0  0  0  0  0  2  0  0  0  0  0  0
  194.1440  170.8310  139.4030 N   0  0  0  0  0  2  0  0  0  0  0  0
  194.7230  172.1550  139.5730 C   0  0  0  0  0  2  0  0  0  0  0  0
  197.6220  175.6830  140.1060 C   0  0  0  0  0  2  0  0  0  0  0  0
  194.8740  173.7770  137.5470 C   0  0  1  0  0  3  0  0  0  0  0  0
  197.8670  174.6970  138.9870 C   0  0  1  0  0  0  0  0  0  0  0  0
  195.4700  172.5670  138.3090 C   0  0  1  0  0  3  0  0  0  0  0  0
  194.6910  174.9760  138.4760 C   0  0  0  0  0  2  0  0  0  0  0  0
  197.1900  175.0870  137.6450 C   0  0  0  0  0  2  0  0  0  0  0  0
  196.9890  172.4020  138.3980 C   0  0  0  0  0  2  0  0  0  0  0  0
  197.7170  173.2580  139.4500 C   0  0  2  0  0  3  0  0  0  0  0  0
  195.6690  175.0750  137.3280 C   0  0  1  0  0  3  0  0  0  0  0  0
  196.8900  174.3570  140.1010 C   0  0  1  0  0  3  0  0  0  0  0  0
  189.0360  177.5070  143.0370 C   0  0  0  0  0  2  0  0  0  0  0  0
  189.9110  177.7460  144.2530 C   0  0  0  0  0  2  0  0  0  0  0  0
  190.5890  176.4570  144.6880 C   0  0  2  0  0  3  0  0  0  0  0  0
  190.0560  176.0120  146.0480 C   0  0  2  0  0  3  0  0  0  0  0  0
  189.3170  177.1240  146.7740 C   0  0  0  0  0  1  0  0  0  0  0  0
  191.1000  175.5410  146.8450 O   0  0  0  0  0  1  0  0  0  0  0  0
  192.0050  176.6050  144.7030 O   0  0  0  0  0  0  0  0  0  0  0  0
  192.8620  175.6850  144.0940 C   0  0  0  0  0  0  0  0  0  0  0  0
  192.8070  175.5320  142.8430 O   0  0  0  0  0  0  0  0  0  0  0  0
  193.8320  174.8730  144.9060 C   0  0  2  0  0  3  0  0  0  0  0  0
  195.8500  173.7500  144.3010 O   0  0  0  0  0  0  0  0  0  0  0  0
  194.9930  175.7170  145.3350 C   0  0  0  0  0  2  0  0  0  0  0  0
  194.4580  173.7550  144.0830 C   0  0  1  0  0  3  0  0  0  0  0  0
  196.1990  175.0470  144.7160 C   0  0  2  0  0  3  0  0  0  0  0  0
  196.6700  175.8170  143.5740 N   0  0  0  0  0  2  0  0  0  0  0  0
  196.4350  177.2160  143.8810 C   0  0  0  0  0  1  0  0  0  0  0  0
  193.8630  172.3590  144.4050 C   0  0  1  0  0  0  0  0  0  0  0  0
  193.2110  172.4490  145.6360 O   0  0  0  0  0  1  0  0  0  0  0  0
  191.5680  171.2610  143.9930 C   0  0  0  0  0  1  0  0  0  0  0  0
  192.7940  171.9240  143.3810 C   0  0  0  0  0  2  0  0  0  0  0  0
  194.8680  171.3640  144.5430 O   0  0  0  0  0  0  0  0  0  0  0  0
  194.7520  170.6950  145.7760 C   0  0  0  0  0  2  0  0  0  0  0  0
  195.4770  169.3660  145.7000 C   0  0  0  0  0  1  0  0  0  0  0  0
  185.9860  178.9960  146.1060 C   0  0  0  0  0  2  0  0  0  0  0  0
  183.6660  178.8070  145.5880 F   0  0  0  0  0  0  0  0  0  0  0  0
  184.7810  176.9400  146.1990 F   0  0  0  0  0  0  0  0  0  0  0  0
  184.6620  178.3020  146.4030 C   0  0  0  0  0  0  0  0  0  0  0  0
  184.3240  178.5320  147.7210 F   0  0  0  0  0  0  0  0  0  0  0  0
  1  2  2  0  0  0  0
  2 52  1  0  0  0  0
  3  1  2  0  0  0  0
  4  2  1  0  0  0  0
  5  3  1  0  0  0  0
  6 10  1  0  0  0  0
  7  8  1  0  0  0  0
  7  9  1  0  0  0  0
  8 12  1  6  0  0  0
  8  6  1  0  0  0  0
  9 11  1  0  0  0  0
 11 10  1  0  0  0  0
 11  5  1  1  0  0  0
 13 14  2  0  0  0  0
 14 12  1  0  0  0  0
 15 14  1  0  0  0  0
 15 16  1  0  0  0  0
 17 18  1  0  0  0  0
 17 16  1  0  0  0  0
 20 22  1  0  0  0  0
 20 23  1  1  0  0  0
 21 24  1  6  0  0  0
 21 26  1  0  0  0  0
 21 28  1  0  0  0  0
 21 19  1  0  0  0  0
 22 25  1  0  0  0  0
 22 18  1  1  0  0  0
 26 25  1  6  0  0  0
 26 28  1  0  0  0  0
 27 20  1  0  0  0  0
 27 24  1  1  0  0  0
 27 23  1  0  0  0  0
 28 19  1  1  0  0  0
 29  3  1  0  0  0  0
 29 30  1  0  0  0  0
 31 30  1  1  0  0  0
 31 35  1  0  0  0  0
 31 32  1  0  0  0  0
 32 33  1  1  0  0  0
 32 34  1  0  0  0  0
 36 35  1  0  0  0  0
 37 36  2  0  0  0  0
 38 36  1  6  0  0  0
 38 40  1  0  0  0  0
 39 42  1  0  0  0  0
 41 39  1  0  0  0  0
 41 45  1  1  0  0  0
 41 38  1  0  0  0  0
 42 43  1  6  0  0  0
 42 40  1  0  0  0  0
 43 44  1  0  0  0  0
 45 49  1  0  0  0  0
 45 46  1  1  0  0  0
 48 47  1  0  0  0  0
 48 45  1  0  0  0  0
 49 50  1  0  0  0  0
 51 50  1  0  0  0  0
 52 55  1  0  0  0  0
 53 55  1  0  0  0  0
 54 55  1  0  0  0  0
 55 56  1  0  0  0  0
M  END
>  <MODEL>
9

>  <REMARK>
 VINA RESULT:      -5.7      3.848      8.792
  Name = 
  23 active torsions:
  status: ('A' for Active; 'I' for Inactive)
    1  A    between atoms: C_1  and  C_33
    2  A    between atoms: C_1  and  C_47
    3  A    between atoms: C_2  and  N_38
    4  A    between atoms: C_2  and  C_53
    5  A    between atoms: N_4  and  C_55
    6  A    between atoms: C_6  and  C_7
    7  A    between atoms: C_6  and  O_50
    8  A    between atoms: N_9  and  N_38
    9  A    between atoms: N_9  and  C_43
   10  A    between atoms: O_10  and  C_29
   11  A    between atoms: O_10  and  C_30
   12  A    between atoms: C_11  and  C_32
   13  A    between atoms: C_11  and  C_46
   14  A    between atoms: C_12  and  C_23
   15  A    between atoms: C_12  and  C_53
   16  A    between atoms: C_13  and  C_42
   17  A    between atoms: C_24  and  C_43
   18  A    between atoms: C_30  and  C_31
   19  A    between atoms: C_30  and  C_56
   20  A    between atoms: C_33  and  S_40
   21  A    between atoms: S_40  and  C_52
   22  A    between atoms: C_42  and  C_47
   23  A    between atoms: C_42  and  O_50
                            x       y       z     vdW  Elec       q    Type
                         _______ _______ _______ _____ _____    ______ ____

>  <TORSDO>
F 23

$$$$
