=
 OpenBabel11072409403D

 25 28  0  0  1  0  0  0  0  0999 V2000
  189.8330  174.5800  145.7040 C   0  0  0  0  0  1  0  0  0  0  0  0
  189.7780  176.0840  145.9710 C   0  0  1  0  0  0  0  0  0  0  0  0
  192.5990  176.3880  146.3570 C   0  0  0  0  0  0  0  0  0  0  0  0
  190.8500  176.6680  142.5560 O   0  0  0  0  0  0  0  0  0  0  0  0
  194.0530  176.1640  146.5640 C   0  0  0  0  0  1  0  0  0  0  0  0
  190.1000  176.7420  143.5650 C   0  0  0  0  0  0  0  0  0  0  0  0
  186.4290  177.1340  144.4010 C   0  0  0  0  0  0  0  0  0  0  0  0
  188.6810  176.8050  143.4060 N   0  0  0  0  0  2  0  0  0  0  0  0
  191.6840  176.4330  147.5220 C   0  0  0  0  0  3  0  0  0  0  0  0
  187.4720  176.4950  146.9410 C   0  0  0  0  0  3  0  0  0  0  0  0
  187.8070  176.8340  144.5490 C   0  0  0  0  0  0  0  0  0  0  0  0
  188.3330  176.5310  145.8350 C   0  0  0  0  0  0  0  0  0  0  0  0
  186.1180  176.7890  146.7940 C   0  0  0  0  0  3  0  0  0  0  0  0
  185.6050  177.1020  145.5370 C   0  0  0  0  0  3  0  0  0  0  0  0
  190.3560  176.3350  147.3490 C   0  0  0  0  0  3  0  0  0  0  0  0
  192.1170  176.5370  145.1170 C   0  0  0  0  0  3  0  0  0  0  0  0
  190.6520  176.8460  144.9510 C   0  0  2  0  0  3  0  0  0  0  0  0
  184.4580  177.8500  143.0290 C   0  0  0  0  0  3  0  0  0  0  0  0
  185.8120  177.4840  143.0910 C   0  0  0  0  0  0  0  0  0  0  0  0
  185.9580  177.8540  140.7020 C   0  0  0  0  0  3  0  0  0  0  0  0
  184.6430  178.1950  140.6740 N   0  0  0  0  0  0  0  0  0  0  0  0
  183.8840  178.2020  141.8050 C   0  0  0  0  0  0  0  0  0  0  0  0
  186.5630  177.4970  141.9090 C   0  0  0  0  0  3  0  0  0  0  0  0
  182.5360  178.5570  141.7610 O   0  0  0  0  0  0  0  0  0  0  0  0
  181.6930  178.1850  140.6800 C   0  0  0  0  0  1  0  0  0  0  0  0
  2  1  1  6  0  0  0
  2 15  1  0  0  0  0
  3  5  1  0  0  0  0
  3  9  1  0  0  0  0
  4  6  2  0  0  0  0
  6 17  1  0  0  0  0
  7 11  2  0  0  0  0
  7 14  1  0  0  0  0
  8  6  1  0  0  0  0
  8 11  1  0  0  0  0
 11 12  1  0  0  0  0
 12  2  1  0  0  0  0
 12 10  2  0  0  0  0
 13 10  1  0  0  0  0
 14 13  2  0  0  0  0
 15  9  2  0  0  0  0
 16  3  2  0  0  0  0
 17 16  1  6  0  0  0
 17  2  1  0  0  0  0
 18 19  2  0  0  0  0
 19  7  1  0  0  0  0
 20 23  2  0  0  0  0
 21 20  1  0  0  0  0
 21 22  2  0  0  0  0
 22 18  1  0  0  0  0
 23 19  1  0  0  0  0
 24 22  1  0  0  0  0
 25 24  1  0  0  0  0
M  END
>  <MODEL>
1

>  <REMARK>
 VINA RESULT:      -8.8      0.000      0.000
  Name = 
  2 active torsions:
  status: ('A' for Active; 'I' for Inactive)
    1  A    between atoms: C_3  and  C_12
    2  A    between atoms: C_11  and  O_17
                            x       y       z     vdW  Elec       q    Type
                         _______ _______ _______ _____ _____    ______ ____

>  <TORSDO>
F 2

$$$$
=
 OpenBabel11072409403D

 25 28  0  0  1  0  0  0  0  0999 V2000
  189.7210  174.4910  145.7100 C   0  0  0  0  0  1  0  0  0  0  0  0
  189.7030  175.9980  145.9660 C   0  0  1  0  0  0  0  0  0  0  0  0
  192.5260  176.2300  146.3830 C   0  0  0  0  0  0  0  0  0  0  0  0
  190.8290  176.5290  142.5600 O   0  0  0  0  0  0  0  0  0  0  0  0
  193.9710  175.9680  146.6090 C   0  0  0  0  0  1  0  0  0  0  0  0
  190.0700  176.6300  143.5600 C   0  0  0  0  0  0  0  0  0  0  0  0
  186.4020  177.1260  144.3490 C   0  0  0  0  0  0  0  0  0  0  0  0
  188.6550  176.7300  143.3830 N   0  0  0  0  0  2  0  0  0  0  0  0
  191.5990  176.3080  147.5370 C   0  0  0  0  0  3  0  0  0  0  0  0
  187.3970  176.4780  146.9050 C   0  0  0  0  0  3  0  0  0  0  0  0
  187.7690  176.7910  144.5160 C   0  0  0  0  0  0  0  0  0  0  0  0
  188.2710  176.4830  145.8100 C   0  0  0  0  0  0  0  0  0  0  0  0
  186.0540  176.8070  146.7410 C   0  0  0  0  0  3  0  0  0  0  0  0
  185.5640  177.1250  145.4760 C   0  0  0  0  0  3  0  0  0  0  0  0
  190.2710  176.2440  147.3490 C   0  0  0  0  0  3  0  0  0  0  0  0
  192.0630  176.3830  145.1360 C   0  0  0  0  0  3  0  0  0  0  0  0
  190.6080  176.7290  144.9510 C   0  0  2  0  0  3  0  0  0  0  0  0
  186.5640  177.3290  141.8560 C   0  0  0  0  0  3  0  0  0  0  0  0
  185.8090  177.4830  143.0300 C   0  0  0  0  0  0  0  0  0  0  0  0
  183.9550  178.2380  141.6650 C   0  0  0  0  0  3  0  0  0  0  0  0
  184.7160  178.0870  140.5490 N   0  0  0  0  0  0  0  0  0  0  0  0
  186.0020  177.6410  140.6170 C   0  0  0  0  0  0  0  0  0  0  0  0
  184.4870  177.9350  142.9200 C   0  0  0  0  0  3  0  0  0  0  0  0
  186.7690  177.4890  139.4610 O   0  0  0  0  0  0  0  0  0  0  0  0
  186.4030  176.5860  138.4280 C   0  0  0  0  0  1  0  0  0  0  0  0
  2  1  1  6  0  0  0
  2 15  1  0  0  0  0
  3  5  1  0  0  0  0
  3  9  1  0  0  0  0
  4  6  2  0  0  0  0
  6 17  1  0  0  0  0
  7 11  2  0  0  0  0
  7 14  1  0  0  0  0
  8  6  1  0  0  0  0
  8 11  1  0  0  0  0
 11 12  1  0  0  0  0
 12  2  1  0  0  0  0
 12 10  2  0  0  0  0
 13 10  1  0  0  0  0
 14 13  2  0  0  0  0
 15  9  2  0  0  0  0
 16  3  2  0  0  0  0
 17 16  1  6  0  0  0
 17  2  1  0  0  0  0
 18 19  2  0  0  0  0
 19  7  1  0  0  0  0
 20 23  2  0  0  0  0
 21 22  2  0  0  0  0
 21 20  1  0  0  0  0
 22 18  1  0  0  0  0
 23 19  1  0  0  0  0
 24 22  1  0  0  0  0
 25 24  1  0  0  0  0
M  END
>  <MODEL>
2

>  <REMARK>
 VINA RESULT:      -8.6      1.127      1.759
  Name = 
  2 active torsions:
  status: ('A' for Active; 'I' for Inactive)
    1  A    between atoms: C_3  and  C_12
    2  A    between atoms: C_11  and  O_17
                            x       y       z     vdW  Elec       q    Type
                         _______ _______ _______ _____ _____    ______ ____

>  <TORSDO>
F 2

$$$$
=
 OpenBabel11072409403D

 25 28  0  0  1  0  0  0  0  0999 V2000
  191.0090  174.4830  144.6110 C   0  0  0  0  0  1  0  0  0  0  0  0
  191.0860  175.6850  145.5520 C   0  0  1  0  0  0  0  0  0  0  0  0
  193.9110  176.0590  145.2730 C   0  0  0  0  0  0  0  0  0  0  0  0
  191.1770  177.8680  142.6570 O   0  0  0  0  0  0  0  0  0  0  0  0
  195.3560  175.9110  144.9590 C   0  0  0  0  0  1  0  0  0  0  0  0
  190.7430  177.3970  143.7420 C   0  0  0  0  0  0  0  0  0  0  0  0
  187.4720  176.9970  145.6020 C   0  0  0  0  0  0  0  0  0  0  0  0
  189.3410  177.3850  144.0130 N   0  0  0  0  0  2  0  0  0  0  0  0
  193.3620  175.4760  146.5200 C   0  0  0  0  0  3  0  0  0  0  0  0
  189.1610  175.3760  147.1730 C   0  0  0  0  0  3  0  0  0  0  0  0
  188.8240  176.8010  145.2230 C   0  0  0  0  0  0  0  0  0  0  0  0
  189.6780  175.9990  146.0290 C   0  0  0  0  0  0  0  0  0  0  0  0
  187.8320  175.5680  147.5440 C   0  0  0  0  0  3  0  0  0  0  0  0
  186.9990  176.3670  146.7650 C   0  0  0  0  0  3  0  0  0  0  0  0
  192.0360  175.3360  146.6790 C   0  0  0  0  0  3  0  0  0  0  0  0
  193.1070  176.7100  144.4230 C   0  0  0  0  0  3  0  0  0  0  0  0
  191.6660  176.9120  144.8150 C   0  0  2  0  0  3  0  0  0  0  0  0
  185.9540  177.3490  143.6400 C   0  0  0  0  0  3  0  0  0  0  0  0
  186.5250  177.8420  144.8230 C   0  0  0  0  0  0  0  0  0  0  0  0
  185.2420  179.8750  144.5230 C   0  0  0  0  0  3  0  0  0  0  0  0
  184.7140  179.3720  143.3760 N   0  0  0  0  0  0  0  0  0  0  0  0
  185.0480  178.1320  142.9210 C   0  0  0  0  0  0  0  0  0  0  0  0
  186.1510  179.1180  145.2650 C   0  0  0  0  0  3  0  0  0  0  0  0
  184.4950  177.6280  141.7430 O   0  0  0  0  0  0  0  0  0  0  0  0
  184.7730  178.2020  140.4740 C   0  0  0  0  0  1  0  0  0  0  0  0
  2  1  1  6  0  0  0
  2 12  1  0  0  0  0
  2 15  1  0  0  0  0
  3  9  1  0  0  0  0
  4  6  2  0  0  0  0
  5  3  1  0  0  0  0
  6  8  1  0  0  0  0
  6 17  1  0  0  0  0
  7 14  1  0  0  0  0
  8 11  1  0  0  0  0
  9 15  2  0  0  0  0
 10 13  1  0  0  0  0
 11  7  2  0  0  0  0
 11 12  1  0  0  0  0
 12 10  2  0  0  0  0
 14 13  2  0  0  0  0
 16  3  2  0  0  0  0
 17 16  1  6  0  0  0
 17  2  1  0  0  0  0
 18 19  2  0  0  0  0
 19 23  1  0  0  0  0
 19  7  1  0  0  0  0
 20 23  2  0  0  0  0
 21 20  1  0  0  0  0
 22 21  2  0  0  0  0
 22 18  1  0  0  0  0
 24 22  1  0  0  0  0
 25 24  1  0  0  0  0
M  END
>  <MODEL>
3

>  <REMARK>
 VINA RESULT:      -8.4      1.442      2.114
  Name = 
  2 active torsions:
  status: ('A' for Active; 'I' for Inactive)
    1  A    between atoms: C_3  and  C_12
    2  A    between atoms: C_11  and  O_17
                            x       y       z     vdW  Elec       q    Type
                         _______ _______ _______ _____ _____    ______ ____

>  <TORSDO>
F 2

$$$$
=
 OpenBabel11072409403D

 25 28  0  0  1  0  0  0  0  0999 V2000
  185.9730  179.8190  143.5110 C   0  0  0  0  0  1  0  0  0  0  0  0
  185.3500  178.4940  143.9530 C   0  0  1  0  0  0  0  0  0  0  0  0
  183.5550  178.2910  141.7310 C   0  0  0  0  0  0  0  0  0  0  0  0
  187.4610  176.7730  141.5580 O   0  0  0  0  0  0  0  0  0  0  0  0
  182.7320  178.5470  140.5210 C   0  0  0  0  0  1  0  0  0  0  0  0
  186.9810  177.0580  142.6870 C   0  0  0  0  0  0  0  0  0  0  0  0
  187.9910  177.0330  146.3340 C   0  0  0  0  0  0  0  0  0  0  0  0
  187.7930  176.9680  143.8590 N   0  0  0  0  0  2  0  0  0  0  0  0
  183.0360  178.6570  143.0700 C   0  0  0  0  0  3  0  0  0  0  0  0
  185.5730  178.4740  146.4790 C   0  0  0  0  0  3  0  0  0  0  0  0
  187.2750  177.3410  145.1500 C   0  0  0  0  0  0  0  0  0  0  0  0
  186.0460  178.0520  145.2290 C   0  0  0  0  0  0  0  0  0  0  0  0
  186.2760  178.1710  147.6410 C   0  0  0  0  0  3  0  0  0  0  0  0
  187.4730  177.4600  147.5670 C   0  0  0  0  0  3  0  0  0  0  0  0
  183.8620  178.7130  144.1280 C   0  0  0  0  0  3  0  0  0  0  0  0
  184.7700  177.7400  141.6070 C   0  0  0  0  0  3  0  0  0  0  0  0
  185.5400  177.4180  142.8620 C   0  0  2  0  0  3  0  0  0  0  0  0
  190.4610  176.8980  146.7370 C   0  0  0  0  0  3  0  0  0  0  0  0
  189.2720  176.2720  146.3330 C   0  0  0  0  0  0  0  0  0  0  0  0
  190.5310  174.2280  146.0090 C   0  0  0  0  0  3  0  0  0  0  0  0
  191.6660  174.8660  146.3960 N   0  0  0  0  0  0  0  0  0  0  0  0
  191.6580  176.1800  146.7590 C   0  0  0  0  0  0  0  0  0  0  0  0
  189.3170  174.9180  145.9750 C   0  0  0  0  0  3  0  0  0  0  0  0
  192.8320  176.8200  147.1560 O   0  0  0  0  0  0  0  0  0  0  0  0
  194.0750  176.5820  146.5130 C   0  0  0  0  0  1  0  0  0  0  0  0
  2  1  1  6  0  0  0
  2 15  1  0  0  0  0
  2 12  1  0  0  0  0
  3  9  1  0  0  0  0
  4  6  2  0  0  0  0
  5  3  1  0  0  0  0
  6 17  1  0  0  0  0
  6  8  1  0  0  0  0
  7 14  1  0  0  0  0
  8 11  1  0  0  0  0
  9 15  2  0  0  0  0
 10 13  1  0  0  0  0
 11 12  1  0  0  0  0
 11  7  2  0  0  0  0
 12 10  2  0  0  0  0
 14 13  2  0  0  0  0
 16  3  2  0  0  0  0
 17 16  1  6  0  0  0
 17  2  1  0  0  0  0
 18 22  1  0  0  0  0
 19  7  1  0  0  0  0
 19 18  2  0  0  0  0
 20 21  1  0  0  0  0
 21 22  2  0  0  0  0
 22 24  1  0  0  0  0
 23 20  2  0  0  0  0
 23 19  1  0  0  0  0
 25 24  1  0  0  0  0
M  END
>  <MODEL>
4

>  <REMARK>
 VINA RESULT:      -8.2      1.945      7.336
  Name = 
  2 active torsions:
  status: ('A' for Active; 'I' for Inactive)
    1  A    between atoms: C_3  and  C_12
    2  A    between atoms: C_11  and  O_17
                            x       y       z     vdW  Elec       q    Type
                         _______ _______ _______ _____ _____    ______ ____

>  <TORSDO>
F 2

$$$$
=
 OpenBabel11072409403D

 25 28  0  0  1  0  0  0  0  0999 V2000
  192.4580  175.2790  142.4750 C   0  0  0  0  0  1  0  0  0  0  0  0
  191.5530  175.0620  143.6890 C   0  0  1  0  0  0  0  0  0  0  0  0
  193.5510  175.7270  145.6300 C   0  0  0  0  0  0  0  0  0  0  0  0
  191.0880  178.6520  143.9080 O   0  0  0  0  0  0  0  0  0  0  0  0
  194.8190  176.0490  146.3340 C   0  0  0  0  0  1  0  0  0  0  0  0
  190.7520  177.4440  143.7890 C   0  0  0  0  0  0  0  0  0  0  0  0
  188.0150  175.3590  142.2130 C   0  0  0  0  0  0  0  0  0  0  0  0
  189.6230  177.0850  142.9910 N   0  0  0  0  0  2  0  0  0  0  0  0
  193.1520  174.3130  145.4340 C   0  0  0  0  0  3  0  0  0  0  0  0
  189.8470  173.3430  142.9380 C   0  0  0  0  0  3  0  0  0  0  0  0
  189.2580  175.7050  142.8010 C   0  0  0  0  0  0  0  0  0  0  0  0
  190.1720  174.6840  143.1820 C   0  0  0  0  0  0  0  0  0  0  0  0
  188.6270  173.0030  142.3610 C   0  0  0  0  0  3  0  0  0  0  0  0
  187.7230  174.0010  142.0020 C   0  0  0  0  0  3  0  0  0  0  0  0
  192.1860  173.9940  144.5570 C   0  0  0  0  0  3  0  0  0  0  0  0
  192.7770  176.7160  145.1640 C   0  0  0  0  0  3  0  0  0  0  0  0
  191.4590  176.3540  144.5300 C   0  0  2  0  0  3  0  0  0  0  0  0
  186.0600  176.8330  142.7450 C   0  0  0  0  0  3  0  0  0  0  0  0
  186.9990  176.3700  141.8100 C   0  0  0  0  0  0  0  0  0  0  0  0
  186.0250  177.8740  140.1800 C   0  0  0  0  0  3  0  0  0  0  0  0
  185.1240  178.2940  141.1060 N   0  0  0  0  0  0  0  0  0  0  0  0
  185.1210  177.7990  142.3750 C   0  0  0  0  0  0  0  0  0  0  0  0
  186.9760  176.9090  140.5170 C   0  0  0  0  0  3  0  0  0  0  0  0
  184.1920  178.2430  143.3160 O   0  0  0  0  0  0  0  0  0  0  0  0
  184.5500  178.5000  144.6660 C   0  0  0  0  0  1  0  0  0  0  0  0
  2  1  1  6  0  0  0
  2 17  1  0  0  0  0
  2 15  1  0  0  0  0
  3  5  1  0  0  0  0
  6  4  2  0  0  0  0
  6 17  1  0  0  0  0
  7 11  1  0  0  0  0
  8  6  1  0  0  0  0
  9  3  1  0  0  0  0
 10 12  1  0  0  0  0
 11  8  1  0  0  0  0
 11 12  2  0  0  0  0
 12  2  1  0  0  0  0
 13 10  2  0  0  0  0
 14  7  2  0  0  0  0
 14 13  1  0  0  0  0
 15  9  2  0  0  0  0
 16  3  2  0  0  0  0
 17 16  1  6  0  0  0
 19  7  1  0  0  0  0
 19 18  2  0  0  0  0
 20 23  2  0  0  0  0
 20 21  1  0  0  0  0
 21 22  2  0  0  0  0
 22 18  1  0  0  0  0
 22 24  1  0  0  0  0
 23 19  1  0  0  0  0
 24 25  1  0  0  0  0
M  END
>  <MODEL>
5

>  <REMARK>
 VINA RESULT:      -8.0      2.156      3.089
  Name = 
  2 active torsions:
  status: ('A' for Active; 'I' for Inactive)
    1  A    between atoms: C_3  and  C_12
    2  A    between atoms: C_11  and  O_17
                            x       y       z     vdW  Elec       q    Type
                         _______ _______ _______ _____ _____    ______ ____

>  <TORSDO>
F 2

$$$$
=
 OpenBabel11072409403D

 25 28  0  0  1  0  0  0  0  0999 V2000
  189.3270  177.5680  145.0010 C   0  0  0  0  0  1  0  0  0  0  0  0
  188.3080  176.4380  145.1540 C   0  0  1  0  0  0  0  0  0  0  0  0
  186.2980  178.0600  146.3900 C   0  0  0  0  0  0  0  0  0  0  0  0
  186.5770  177.6870  142.2220 O   0  0  0  0  0  0  0  0  0  0  0  0
  185.5420  179.1510  147.0560 C   0  0  0  0  0  1  0  0  0  0  0  0
  187.1930  176.8540  142.9380 C   0  0  0  0  0  0  0  0  0  0  0  0
  189.4670  173.8530  142.5530 C   0  0  0  0  0  0  0  0  0  0  0  0
  188.0520  175.8830  142.3370 N   0  0  0  0  0  2  0  0  0  0  0  0
  187.0710  177.0910  147.2030 C   0  0  0  0  0  3  0  0  0  0  0  0
  189.6940  174.3220  145.3240 C   0  0  0  0  0  3  0  0  0  0  0  0
  188.8060  174.9600  143.1440 C   0  0  0  0  0  0  0  0  0  0  0  0
  188.9080  175.1820  144.5450 C   0  0  0  0  0  0  0  0  0  0  0  0
  190.3440  173.2360  144.7430 C   0  0  0  0  0  3  0  0  0  0  0  0
  190.2310  173.0070  143.3730 C   0  0  0  0  0  3  0  0  0  0  0  0
  187.9860  176.2950  146.6270 C   0  0  0  0  0  3  0  0  0  0  0  0
  186.2880  177.9600  145.0540 C   0  0  0  0  0  3  0  0  0  0  0  0
  186.9970  176.7920  144.4190 C   0  0  2  0  0  3  0  0  0  0  0  0
  190.4940  173.7790  140.2690 C   0  0  0  0  0  3  0  0  0  0  0  0
  189.3870  173.5430  141.0990 C   0  0  0  0  0  0  0  0  0  0  0  0
  188.2050  172.6750  139.1710 C   0  0  0  0  0  3  0  0  0  0  0  0
  189.2910  172.9250  138.3930 N   0  0  0  0  0  0  0  0  0  0  0  0
  190.4290  173.4670  138.9090 C   0  0  0  0  0  0  0  0  0  0  0  0
  188.2370  172.9760  140.5340 C   0  0  0  0  0  3  0  0  0  0  0  0
  191.5370  173.7140  138.0980 O   0  0  0  0  0  0  0  0  0  0  0  0
  191.4050  174.2020  136.7710 C   0  0  0  0  0  1  0  0  0  0  0  0
  2  1  1  6  0  0  0
  2 15  1  0  0  0  0
  3  5  1  0  0  0  0
  3  9  1  0  0  0  0
  4  6  2  0  0  0  0
  6 17  1  0  0  0  0
  7 11  2  0  0  0  0
  7 14  1  0  0  0  0
  8  6  1  0  0  0  0
  8 11  1  0  0  0  0
 11 12  1  0  0  0  0
 12  2  1  0  0  0  0
 12 10  2  0  0  0  0
 13 10  1  0  0  0  0
 14 13  2  0  0  0  0
 15  9  2  0  0  0  0
 16  3  2  0  0  0  0
 17 16  1  1  0  0  0
 17  2  1  0  0  0  0
 18 19  2  0  0  0  0
 19  7  1  0  0  0  0
 20 23  2  0  0  0  0
 21 22  2  0  0  0  0
 21 20  1  0  0  0  0
 22 18  1  0  0  0  0
 23 19  1  0  0  0  0
 24 22  1  0  0  0  0
 25 24  1  0  0  0  0
M  END
>  <MODEL>
6

>  <REMARK>
 VINA RESULT:      -8.0      3.549      5.974
  Name = 
  2 active torsions:
  status: ('A' for Active; 'I' for Inactive)
    1  A    between atoms: C_3  and  C_12
    2  A    between atoms: C_11  and  O_17
                            x       y       z     vdW  Elec       q    Type
                         _______ _______ _______ _____ _____    ______ ____

>  <TORSDO>
F 2

$$$$
=
 OpenBabel11072409403D

 25 28  0  0  1  0  0  0  0  0999 V2000
  192.5300  177.1240  144.0960 C   0  0  0  0  0  1  0  0  0  0  0  0
  191.9660  175.7520  144.4670 C   0  0  1  0  0  0  0  0  0  0  0  0
  194.4090  174.7510  145.5760 C   0  0  0  0  0  0  0  0  0  0  0  0
  191.6420  176.8800  147.8980 O   0  0  0  0  0  0  0  0  0  0  0  0
  195.8210  174.5440  145.9860 C   0  0  0  0  0  1  0  0  0  0  0  0
  191.2640  176.4280  146.7850 C   0  0  0  0  0  0  0  0  0  0  0  0
  188.1730  176.3700  144.6020 C   0  0  0  0  0  0  0  0  0  0  0  0
  189.9600  176.7350  146.2880 N   0  0  0  0  0  2  0  0  0  0  0  0
  193.9450  174.2700  144.2520 C   0  0  0  0  0  3  0  0  0  0  0  0
  190.0910  175.3430  142.8090 C   0  0  0  0  0  3  0  0  0  0  0  0
  189.5320  176.2710  144.9940 C   0  0  0  0  0  0  0  0  0  0  0  0
  190.4930  175.7350  144.0930 C   0  0  0  0  0  0  0  0  0  0  0  0
  188.7560  175.4410  142.4240 C   0  0  0  0  0  3  0  0  0  0  0  0
  187.8100  175.9500  143.3120 C   0  0  0  0  0  3  0  0  0  0  0  0
  192.7800  174.7000  143.7420 C   0  0  0  0  0  3  0  0  0  0  0  0
  193.5600  175.3810  146.3980 C   0  0  0  0  0  3  0  0  0  0  0  0
  192.1160  175.4980  145.9820 C   0  0  2  0  0  3  0  0  0  0  0  0
  186.0820  177.7000  144.9720 C   0  0  0  0  0  3  0  0  0  0  0  0
  187.1060  176.8970  145.4980 C   0  0  0  0  0  0  0  0  0  0  0  0
  186.0450  177.0700  147.6680 C   0  0  0  0  0  3  0  0  0  0  0  0
  185.0720  177.8520  147.1300 N   0  0  0  0  0  0  0  0  0  0  0  0
  185.0680  178.1760  145.8060 C   0  0  0  0  0  0  0  0  0  0  0  0
  187.0730  176.5780  146.8620 C   0  0  0  0  0  3  0  0  0  0  0  0
  184.0610  178.9770  145.2680 O   0  0  0  0  0  0  0  0  0  0  0  0
  183.8200  179.0470  143.8700 C   0  0  0  0  0  1  0  0  0  0  0  0
  2  1  1  6  0  0  0
  2 17  1  0  0  0  0
  3  5  1  0  0  0  0
  3 16  2  0  0  0  0
  6  4  2  0  0  0  0
  7 11  1  0  0  0  0
  7 19  1  0  0  0  0
  8  6  1  0  0  0  0
  9  3  1  0  0  0  0
 10 12  1  0  0  0  0
 11  8  1  0  0  0  0
 12  2  1  0  0  0  0
 12 11  2  0  0  0  0
 13 10  2  0  0  0  0
 13 14  1  0  0  0  0
 14  7  2  0  0  0  0
 15  9  2  0  0  0  0
 15  2  1  0  0  0  0
 17 16  1  1  0  0  0
 17  6  1  0  0  0  0
 18 19  2  0  0  0  0
 18 22  1  0  0  0  0
 19 23  1  0  0  0  0
 21 20  1  0  0  0  0
 22 21  2  0  0  0  0
 23 20  2  0  0  0  0
 24 22  1  0  0  0  0
 25 24  1  0  0  0  0
M  END
>  <MODEL>
7

>  <REMARK>
 VINA RESULT:      -8.0      2.526      3.988
  Name = 
  2 active torsions:
  status: ('A' for Active; 'I' for Inactive)
    1  A    between atoms: C_3  and  C_12
    2  A    between atoms: C_11  and  O_17
                            x       y       z     vdW  Elec       q    Type
                         _______ _______ _______ _____ _____    ______ ____

>  <TORSDO>
F 2

$$$$
=
 OpenBabel11072409403D

 25 28  0  0  1  0  0  0  0  0999 V2000
  187.0590  176.2390  144.0340 C   0  0  0  0  0  1  0  0  0  0  0  0
  187.7100  177.4030  144.7820 C   0  0  1  0  0  0  0  0  0  0  0  0
  185.3910  178.0540  146.3300 C   0  0  0  0  0  0  0  0  0  0  0  0
  188.1900  175.2190  147.6380 O   0  0  0  0  0  0  0  0  0  0  0  0
  184.0170  178.1530  146.8880 C   0  0  0  0  0  1  0  0  0  0  0  0
  188.5200  175.9970  146.7030 C   0  0  0  0  0  0  0  0  0  0  0  0
  191.4700  176.6780  144.4330 C   0  0  0  0  0  0  0  0  0  0  0  0
  189.7750  175.8340  146.0390 N   0  0  0  0  0  2  0  0  0  0  0  0
  185.7940  178.9240  145.2000 C   0  0  0  0  0  3  0  0  0  0  0  0
  189.4970  178.2770  143.2100 C   0  0  0  0  0  3  0  0  0  0  0  0
  190.1440  176.6800  144.9350 C   0  0  0  0  0  0  0  0  0  0  0  0
  189.1560  177.5020  144.3260 C   0  0  0  0  0  0  0  0  0  0  0  0
  190.7990  178.2750  142.7170 C   0  0  0  0  0  3  0  0  0  0  0  0
  191.7720  177.4830  143.3220 C   0  0  0  0  0  3  0  0  0  0  0  0
  186.9040  178.6520  144.4940 C   0  0  0  0  0  3  0  0  0  0  0  0
  186.2570  177.1710  146.8420 C   0  0  0  0  0  3  0  0  0  0  0  0
  187.6650  177.1570  146.3060 C   0  0  2  0  0  3  0  0  0  0  0  0
  192.5840  174.4720  144.8450 C   0  0  0  0  0  3  0  0  0  0  0  0
  192.5630  175.8630  145.0310 C   0  0  0  0  0  0  0  0  0  0  0  0
  194.6310  175.6650  146.2780 C   0  0  0  0  0  3  0  0  0  0  0  0
  194.6170  174.3190  146.0870 N   0  0  0  0  0  0  0  0  0  0  0  0
  193.6210  173.7090  145.3850 C   0  0  0  0  0  0  0  0  0  0  0  0
  193.6090  176.4560  145.7510 C   0  0  0  0  0  3  0  0  0  0  0  0
  193.6220  172.3270  145.1960 O   0  0  0  0  0  0  0  0  0  0  0  0
  192.7590  171.6930  144.2630 C   0  0  0  0  0  1  0  0  0  0  0  0
  2  1  1  6  0  0  0
  2 17  1  0  0  0  0
  3 16  2  0  0  0  0
  3  5  1  0  0  0  0
  6  4  2  0  0  0  0
  7 11  1  0  0  0  0
  7 19  1  0  0  0  0
  8  6  1  0  0  0  0
  9  3  1  0  0  0  0
 10 12  1  0  0  0  0
 11  8  1  0  0  0  0
 12  2  1  0  0  0  0
 12 11  2  0  0  0  0
 13 10  2  0  0  0  0
 13 14  1  0  0  0  0
 14  7  2  0  0  0  0
 15  2  1  0  0  0  0
 15  9  2  0  0  0  0
 17  6  1  0  0  0  0
 17 16  1  6  0  0  0
 18 19  2  0  0  0  0
 18 22  1  0  0  0  0
 19 23  1  0  0  0  0
 21 20  1  0  0  0  0
 22 21  2  0  0  0  0
 23 20  2  0  0  0  0
 24 22  1  0  0  0  0
 25 24  1  0  0  0  0
M  END
>  <MODEL>
8

>  <REMARK>
 VINA RESULT:      -7.8      3.433      7.562
  Name = 
  2 active torsions:
  status: ('A' for Active; 'I' for Inactive)
    1  A    between atoms: C_3  and  C_12
    2  A    between atoms: C_11  and  O_17
                            x       y       z     vdW  Elec       q    Type
                         _______ _______ _______ _____ _____    ______ ____

>  <TORSDO>
F 2

$$$$
=
 OpenBabel11072409403D

 25 28  0  0  1  0  0  0  0  0999 V2000
  189.6650  177.4590  145.4850 C   0  0  0  0  0  1  0  0  0  0  0  0
  188.5730  176.4270  145.2020 C   0  0  1  0  0  0  0  0  0  0  0  0
  186.3980  178.1290  145.9610 C   0  0  0  0  0  0  0  0  0  0  0  0
  187.9070  178.0900  142.0480 O   0  0  0  0  0  0  0  0  0  0  0  0
  185.5530  179.2290  146.4910 C   0  0  0  0  0  1  0  0  0  0  0  0
  188.2170  177.1410  142.8170 C   0  0  0  0  0  0  0  0  0  0  0  0
  190.2870  173.9730  142.7890 C   0  0  0  0  0  0  0  0  0  0  0  0
  189.1490  176.1450  142.3920 N   0  0  0  0  0  2  0  0  0  0  0  0
  186.8180  177.0220  146.8530 C   0  0  0  0  0  3  0  0  0  0  0  0
  189.6920  174.1770  145.5370 C   0  0  0  0  0  3  0  0  0  0  0  0
  189.5550  175.0850  143.2780 C   0  0  0  0  0  0  0  0  0  0  0  0
  189.2410  175.1740  144.6620 C   0  0  0  0  0  0  0  0  0  0  0  0
  190.4110  173.0850  145.0560 C   0  0  0  0  0  3  0  0  0  0  0  0
  190.7050  172.9880  143.6980 C   0  0  0  0  0  3  0  0  0  0  0  0
  187.8080  176.1910  146.4880 C   0  0  0  0  0  3  0  0  0  0  0  0
  186.7890  178.1450  144.6800 C   0  0  0  0  0  3  0  0  0  0  0  0
  187.5750  176.9710  144.1570 C   0  0  2  0  0  3  0  0  0  0  0  0
  189.6140  173.6650  140.3950 C   0  0  0  0  0  3  0  0  0  0  0  0
  190.6330  173.7980  141.3510 C   0  0  0  0  0  0  0  0  0  0  0  0
  192.2520  173.6610  139.5540 C   0  0  0  0  0  3  0  0  0  0  0  0
  191.2420  173.5250  138.6550 N   0  0  0  0  0  0  0  0  0  0  0  0
  189.9360  173.5250  139.0430 C   0  0  0  0  0  0  0  0  0  0  0  0
  191.9640  173.8030  140.9130 C   0  0  0  0  0  3  0  0  0  0  0  0
  188.9100  173.3880  138.1080 O   0  0  0  0  0  0  0  0  0  0  0  0
  188.2070  174.5080  137.5900 C   0  0  0  0  0  1  0  0  0  0  0  0
  2  1  1  1  0  0  0
  2 15  1  0  0  0  0
  3  5  1  0  0  0  0
  3  9  1  0  0  0  0
  4  6  2  0  0  0  0
  6 17  1  0  0  0  0
  7 11  2  0  0  0  0
  7 14  1  0  0  0  0
  8  6  1  0  0  0  0
  8 11  1  0  0  0  0
 11 12  1  0  0  0  0
 12  2  1  0  0  0  0
 12 10  2  0  0  0  0
 13 10  1  0  0  0  0
 14 13  2  0  0  0  0
 15  9  2  0  0  0  0
 16  3  2  0  0  0  0
 17 16  1  1  0  0  0
 17  2  1  0  0  0  0
 18 19  2  0  0  0  0
 19  7  1  0  0  0  0
 20 23  2  0  0  0  0
 21 22  2  0  0  0  0
 21 20  1  0  0  0  0
 22 18  1  0  0  0  0
 23 19  1  0  0  0  0
 24 22  1  0  0  0  0
 25 24  1  0  0  0  0
M  END
>  <MODEL>
9

>  <REMARK>
 VINA RESULT:      -7.7      3.258      5.768
  Name = 
  2 active torsions:
  status: ('A' for Active; 'I' for Inactive)
    1  A    between atoms: C_3  and  C_12
    2  A    between atoms: C_11  and  O_17
                            x       y       z     vdW  Elec       q    Type
                         _______ _______ _______ _____ _____    ______ ____

>  <TORSDO>
F 2

$$$$
