=
 OpenBabel11062420173D

 25 27  0  0  1  0  0  0  0  0999 V2000
  188.2090  175.6990  141.3490 C   0  0  0  0  0  2  0  0  0  0  0  0
  188.5300  175.9890  142.8110 C   0  0  2  0  0  3  0  0  0  0  0  0
  188.8060  174.0300  139.7660 C   0  0  0  0  0  1  0  0  0  0  0  0
  190.7970  173.9800  141.7080 C   0  0  0  0  0  1  0  0  0  0  0  0
  188.3650  174.2640  141.1370 N   0  0  0  0  0  0  0  0  0  0  0  0
  189.0050  174.6650  143.3720 C   0  0  1  0  0  3  0  0  0  0  0  0
  189.3300  173.8130  142.1500 C   0  0  2  0  0  3  0  0  0  0  0  0
  190.8840  175.9960  144.4570 N   0  0  0  0  0  2  0  0  0  0  0  0
  190.0980  174.7980  144.3920 C   0  0  0  0  0  0  0  0  0  0  0  0
  190.2970  173.8540  145.2010 O   0  0  0  0  0  0  0  0  0  0  0  0
  193.3770  176.0130  144.5910 C   0  0  0  0  0  3  0  0  0  0  0  0
  194.2840  176.1350  145.5890 N   0  0  0  0  0  0  0  0  0  0  0  0
  192.3490  176.3100  146.5020 C   0  0  0  0  0  0  0  0  0  0  0  0
  192.1260  176.1440  145.1540 C   0  0  0  0  0  0  0  0  0  0  0  0
  193.6400  176.3070  146.7090 O   0  0  0  0  0  0  0  0  0  0  0  0
  191.3750  176.4060  147.5340 N   0  0  0  0  0  1  0  0  0  0  0  0
  187.3290  176.4110  143.5150 N   0  0  0  0  0  2  0  0  0  0  0  0
  188.4170  178.0190  144.8070 O   0  0  0  0  0  0  0  0  0  0  0  0
  187.3360  177.4460  144.5010 C   0  0  0  0  0  0  0  0  0  0  0  0
  185.4190  177.0700  146.2600 C   0  0  0  0  0  3  0  0  0  0  0  0
  185.3270  178.8760  144.8880 C   0  0  0  0  0  0  0  0  0  0  0  0
  185.5990  179.8590  143.8940 N   0  0  0  0  0  1  0  0  0  0  0  0
  184.1940  178.9110  145.7210 N   0  0  0  0  0  0  0  0  0  0  0  0
  186.0730  177.8300  145.1550 C   0  0  0  0  0  0  0  0  0  0  0  0
  184.1940  177.8140  146.5980 N   0  0  0  0  0  2  0  0  0  0  0  0
  1  2  1  0  0  0  0
  2  6  1  0  0  0  0
  2 17  1  1  0  0  0
  3  5  1  0  0  0  0
  5  1  1  0  0  0  0
  5  7  1  0  0  0  0
  6  9  1  1  0  0  0
  7  4  1  6  0  0  0
  7  6  1  0  0  0  0
  8 14  1  0  0  0  0
  9  8  1  0  0  0  0
  9 10  2  0  0  0  0
 11 14  1  0  0  0  0
 11 12  2  0  0  0  0
 12 15  1  0  0  0  0
 13 15  1  0  0  0  0
 13 16  1  0  0  0  0
 14 13  2  0  0  0  0
 17 19  1  0  0  0  0
 19 18  2  0  0  0  0
 19 24  1  0  0  0  0
 20 25  1  0  0  0  0
 21 24  1  0  0  0  0
 21 23  2  0  0  0  0
 22 21  1  0  0  0  0
 23 25  1  0  0  0  0
 24 20  2  0  0  0  0
M  END
>  <MODEL>
1

>  <REMARK>
 VINA RESULT:      -6.5      0.000      0.000
  Name = 
  4 active torsions:
  status: ('A' for Active; 'I' for Inactive)
    1  A    between atoms: C_2  and  N_12
    2  A    between atoms: N_3  and  C_20
    3  A    between atoms: C_15  and  C_17
    4  A    between atoms: C_16  and  C_24
                            x       y       z     vdW  Elec       q    Type
                         _______ _______ _______ _____ _____    ______ ____

>  <TORSDO>
F 4

$$$$
=
 OpenBabel11062420173D

 25 27  0  0  1  0  0  0  0  0999 V2000
  188.1690  175.6830  141.3010 C   0  0  0  0  0  2  0  0  0  0  0  0
  188.5150  175.9590  142.7600 C   0  0  2  0  0  3  0  0  0  0  0  0
  188.7460  174.0350  139.6880 C   0  0  0  0  0  1  0  0  0  0  0  0
  190.7730  173.9760  141.5930 C   0  0  0  0  0  1  0  0  0  0  0  0
  188.3290  174.2510  141.0700 N   0  0  0  0  0  0  0  0  0  0  0  0
  189.0080  174.6320  143.2970 C   0  0  1  0  0  3  0  0  0  0  0  0
  189.3160  173.7960  142.0600 C   0  0  2  0  0  3  0  0  0  0  0  0
  190.8940  175.9660  144.3660 N   0  0  0  0  0  2  0  0  0  0  0  0
  190.1190  174.7620  144.2980 C   0  0  0  0  0  0  0  0  0  0  0  0
  190.3430  173.8080  145.0890 O   0  0  0  0  0  0  0  0  0  0  0  0
  192.3040  176.3570  146.3900 C   0  0  0  0  0  3  0  0  0  0  0  0
  193.6270  176.5240  146.6200 N   0  0  0  0  0  0  0  0  0  0  0  0
  193.4160  176.1860  144.5110 C   0  0  0  0  0  0  0  0  0  0  0  0
  192.1480  176.1160  145.0410 C   0  0  0  0  0  0  0  0  0  0  0  0
  194.2580  176.4200  145.4840 O   0  0  0  0  0  0  0  0  0  0  0  0
  193.7850  176.0920  143.1400 N   0  0  0  0  0  1  0  0  0  0  0  0
  187.3240  176.3660  143.4900 N   0  0  0  0  0  2  0  0  0  0  0  0
  188.4130  178.0140  144.7300 O   0  0  0  0  0  0  0  0  0  0  0  0
  187.3360  177.4150  144.4610 C   0  0  0  0  0  0  0  0  0  0  0  0
  185.4510  176.9980  146.2450 C   0  0  0  0  0  3  0  0  0  0  0  0
  185.3290  178.8300  144.9090 C   0  0  0  0  0  0  0  0  0  0  0  0
  185.5810  179.8320  143.9300 N   0  0  0  0  0  1  0  0  0  0  0  0
  184.2110  178.8450  145.7630 N   0  0  0  0  0  0  0  0  0  0  0  0
  186.0830  177.7820  145.1440 C   0  0  0  0  0  0  0  0  0  0  0  0
  184.2300  177.7310  146.6180 N   0  0  0  0  0  2  0  0  0  0  0  0
  1  2  1  0  0  0  0
  2  6  1  0  0  0  0
  2 17  1  1  0  0  0
  3  5  1  0  0  0  0
  5  1  1  0  0  0  0
  5  7  1  0  0  0  0
  6  9  1  6  0  0  0
  7  4  1  6  0  0  0
  7  6  1  0  0  0  0
  8 14  1  0  0  0  0
  9  8  1  0  0  0  0
  9 10  2  0  0  0  0
 11 12  2  0  0  0  0
 13 14  2  0  0  0  0
 13 15  1  0  0  0  0
 14 11  1  0  0  0  0
 15 12  1  0  0  0  0
 16 13  1  0  0  0  0
 17 19  1  0  0  0  0
 19 18  2  0  0  0  0
 19 24  1  0  0  0  0
 20 25  1  0  0  0  0
 21 24  1  0  0  0  0
 21 23  2  0  0  0  0
 22 21  1  0  0  0  0
 23 25  1  0  0  0  0
 24 20  2  0  0  0  0
M  END
>  <MODEL>
2

>  <REMARK>
 VINA RESULT:      -6.5      0.632      1.241
  Name = 
  4 active torsions:
  status: ('A' for Active; 'I' for Inactive)
    1  A    between atoms: C_2  and  N_12
    2  A    between atoms: N_3  and  C_20
    3  A    between atoms: C_15  and  C_17
    4  A    between atoms: C_16  and  C_24
                            x       y       z     vdW  Elec       q    Type
                         _______ _______ _______ _____ _____    ______ ____

>  <TORSDO>
F 4

$$$$
=
 OpenBabel11062420173D

 25 27  0  0  1  0  0  0  0  0999 V2000
  188.2760  175.5170  141.4810 C   0  0  0  0  0  2  0  0  0  0  0  0
  188.6170  175.8530  142.9280 C   0  0  2  0  0  3  0  0  0  0  0  0
  188.8980  173.8320  139.9250 C   0  0  0  0  0  1  0  0  0  0  0  0
  190.9310  173.9000  141.8230 C   0  0  0  0  0  1  0  0  0  0  0  0
  188.4790  174.0830  141.3000 N   0  0  0  0  0  0  0  0  0  0  0  0
  189.1520  174.5620  143.5090 C   0  0  1  0  0  3  0  0  0  0  0  0
  189.4810  173.6920  142.3020 C   0  0  2  0  0  3  0  0  0  0  0  0
  190.9260  176.0250  144.5990 N   0  0  0  0  0  2  0  0  0  0  0  0
  190.2610  174.7590  144.5020 C   0  0  0  0  0  0  0  0  0  0  0  0
  190.5790  173.8050  145.2590 O   0  0  0  0  0  0  0  0  0  0  0  0
  193.4060  176.3110  144.6560 C   0  0  0  0  0  3  0  0  0  0  0  0
  194.3320  176.4700  145.6300 N   0  0  0  0  0  0  0  0  0  0  0  0
  192.4270  176.3700  146.6130 C   0  0  0  0  0  0  0  0  0  0  0  0
  192.1710  176.2660  145.2650 C   0  0  0  0  0  0  0  0  0  0  0  0
  193.7180  176.4980  146.7790 O   0  0  0  0  0  0  0  0  0  0  0  0
  191.4880  176.2920  147.6800 N   0  0  0  0  0  1  0  0  0  0  0  0
  187.4160  176.2500  143.6490 N   0  0  0  0  0  2  0  0  0  0  0  0
  188.3930  178.1230  144.6350 O   0  0  0  0  0  0  0  0  0  0  0  0
  187.3650  177.4090  144.4830 C   0  0  0  0  0  0  0  0  0  0  0  0
  184.9980  178.5490  144.5560 C   0  0  0  0  0  3  0  0  0  0  0  0
  185.7490  177.4340  146.3850 C   0  0  0  0  0  0  0  0  0  0  0  0
  186.5270  176.6760  147.3050 N   0  0  0  0  0  1  0  0  0  0  0  0
  184.4720  177.9420  146.6860 N   0  0  0  0  0  0  0  0  0  0  0  0
  186.1050  177.7550  145.1630 C   0  0  0  0  0  0  0  0  0  0  0  0
  183.9510  178.6460  145.5870 N   0  0  0  0  0  2  0  0  0  0  0  0
  1  2  1  0  0  0  0
  2  6  1  0  0  0  0
  2 17  1  1  0  0  0
  3  5  1  0  0  0  0
  5  1  1  0  0  0  0
  5  7  1  0  0  0  0
  6  9  1  6  0  0  0
  7  4  1  6  0  0  0
  7  6  1  0  0  0  0
  8 14  1  0  0  0  0
  9  8  1  0  0  0  0
  9 10  2  0  0  0  0
 11 14  1  0  0  0  0
 11 12  2  0  0  0  0
 12 15  1  0  0  0  0
 13 15  1  0  0  0  0
 13 16  1  0  0  0  0
 14 13  2  0  0  0  0
 17 19  1  0  0  0  0
 19 18  2  0  0  0  0
 19 24  1  0  0  0  0
 20 24  2  0  0  0  0
 20 25  1  0  0  0  0
 21 23  2  0  0  0  0
 21 22  1  0  0  0  0
 24 21  1  0  0  0  0
 25 23  1  0  0  0  0
M  END
>  <MODEL>
3

>  <REMARK>
 VINA RESULT:      -6.3      0.602      1.218
  Name = 
  4 active torsions:
  status: ('A' for Active; 'I' for Inactive)
    1  A    between atoms: C_2  and  N_12
    2  A    between atoms: N_3  and  C_20
    3  A    between atoms: C_15  and  C_17
    4  A    between atoms: C_16  and  C_24
                            x       y       z     vdW  Elec       q    Type
                         _______ _______ _______ _____ _____    ______ ____

>  <TORSDO>
F 4

$$$$
=
 OpenBabel11062420173D

 25 27  0  0  1  0  0  0  0  0999 V2000
  187.7130  177.9470  146.7420 C   0  0  0  0  0  2  0  0  0  0  0  0
  187.8960  177.5800  145.2740 C   0  0  2  0  0  3  0  0  0  0  0  0
  185.9550  177.8030  148.3350 C   0  0  0  0  0  1  0  0  0  0  0  0
  184.7260  177.7350  145.8390 C   0  0  0  0  0  1  0  0  0  0  0  0
  186.6730  177.0810  147.2890 N   0  0  0  0  0  0  0  0  0  0  0  0
  186.8120  176.5610  144.9930 C   0  0  1  0  0  3  0  0  0  0  0  0
  185.8280  176.7030  146.1480 C   0  0  2  0  0  3  0  0  0  0  0  0
  185.6980  177.9110  143.1450 N   0  0  0  0  0  2  0  0  0  0  0  0
  186.2280  176.6640  143.6130 C   0  0  0  0  0  0  0  0  0  0  0  0
  186.2340  175.6470  142.8710 O   0  0  0  0  0  0  0  0  0  0  0  0
  183.4850  178.2270  142.0320 C   0  0  0  0  0  3  0  0  0  0  0  0
  183.0530  178.2720  140.7500 N   0  0  0  0  0  0  0  0  0  0  0  0
  185.1820  178.0130  140.6650 C   0  0  0  0  0  0  0  0  0  0  0  0
  184.8550  178.0830  142.0000 C   0  0  0  0  0  0  0  0  0  0  0  0
  184.0850  178.1400  139.9650 O   0  0  0  0  0  0  0  0  0  0  0  0
  186.4670  177.7800  140.1010 N   0  0  0  0  0  1  0  0  0  0  0  0
  189.2010  176.9700  145.0670 N   0  0  0  0  0  2  0  0  0  0  0  0
  189.5750  178.0090  143.0130 O   0  0  0  0  0  0  0  0  0  0  0  0
  190.0020  177.2350  143.9130 C   0  0  0  0  0  0  0  0  0  0  0  0
  192.5370  176.9840  144.5590 C   0  0  0  0  0  3  0  0  0  0  0  0
  191.6480  175.5980  142.9970 C   0  0  0  0  0  0  0  0  0  0  0  0
  190.7720  174.9340  142.0920 N   0  0  0  0  0  1  0  0  0  0  0  0
  193.0030  175.2560  143.1530 N   0  0  0  0  0  0  0  0  0  0  0  0
  191.3220  176.5940  143.7870 C   0  0  0  0  0  0  0  0  0  0  0  0
  193.6120  176.0820  144.1120 N   0  0  0  0  0  2  0  0  0  0  0  0
  1  5  1  0  0  0  0
  2 17  1  1  0  0  0
  2  1  1  0  0  0  0
  5  3  1  0  0  0  0
  6  9  1  6  0  0  0
  6  2  1  0  0  0  0
  6  7  1  0  0  0  0
  7  4  1  6  0  0  0
  7  5  1  0  0  0  0
  8  9  1  0  0  0  0
 10  9  2  0  0  0  0
 12 11  2  0  0  0  0
 13 14  2  0  0  0  0
 14 11  1  0  0  0  0
 14  8  1  0  0  0  0
 15 13  1  0  0  0  0
 15 12  1  0  0  0  0
 16 13  1  0  0  0  0
 18 19  2  0  0  0  0
 19 17  1  0  0  0  0
 21 23  2  0  0  0  0
 21 24  1  0  0  0  0
 22 21  1  0  0  0  0
 23 25  1  0  0  0  0
 24 19  1  0  0  0  0
 24 20  2  0  0  0  0
 25 20  1  0  0  0  0
M  END
>  <MODEL>
4

>  <REMARK>
 VINA RESULT:      -6.1      2.775      7.554
  Name = 
  4 active torsions:
  status: ('A' for Active; 'I' for Inactive)
    1  A    between atoms: C_2  and  N_12
    2  A    between atoms: N_3  and  C_20
    3  A    between atoms: C_15  and  C_17
    4  A    between atoms: C_16  and  C_24
                            x       y       z     vdW  Elec       q    Type
                         _______ _______ _______ _____ _____    ______ ____

>  <TORSDO>
F 4

$$$$
=
 OpenBabel11062420173D

 25 27  0  0  1  0  0  0  0  0999 V2000
  186.1640  176.3910  142.7420 C   0  0  0  0  0  2  0  0  0  0  0  0
  187.6440  176.0490  142.8750 C   0  0  2  0  0  3  0  0  0  0  0  0
  184.7090  178.0550  143.6150 C   0  0  0  0  0  1  0  0  0  0  0  0
  186.8660  177.9370  145.3680 C   0  0  0  0  0  1  0  0  0  0  0  0
  186.0140  177.8180  143.0060 N   0  0  0  0  0  0  0  0  0  0  0  0
  188.2940  177.3270  143.3590 C   0  0  1  0  0  3  0  0  0  0  0  0
  187.1430  178.1850  143.8730 C   0  0  2  0  0  3  0  0  0  0  0  0
  189.6680  175.7980  144.8600 N   0  0  0  0  0  2  0  0  0  0  0  0
  189.4280  177.1030  144.3180 C   0  0  0  0  0  0  0  0  0  0  0  0
  190.1730  178.0720  144.6180 O   0  0  0  0  0  0  0  0  0  0  0  0
  190.0800  175.4800  147.3020 C   0  0  0  0  0  3  0  0  0  0  0  0
  191.1700  175.2500  148.0700 N   0  0  0  0  0  0  0  0  0  0  0  0
  191.8600  175.3120  146.0380 C   0  0  0  0  0  0  0  0  0  0  0  0
  190.4970  175.5020  145.9890 C   0  0  0  0  0  0  0  0  0  0  0  0
  192.2090  175.1590  147.2890 O   0  0  0  0  0  0  0  0  0  0  0  0
  192.7750  175.3370  144.9490 N   0  0  0  0  0  1  0  0  0  0  0  0
  188.1940  175.6860  141.5770 N   0  0  0  0  0  2  0  0  0  0  0  0
  188.0190  173.3880  141.9290 O   0  0  0  0  0  0  0  0  0  0  0  0
  188.3460  174.3290  141.1560 C   0  0  0  0  0  0  0  0  0  0  0  0
  188.1620  174.2570  138.5350 C   0  0  0  0  0  3  0  0  0  0  0  0
  190.0820  173.5680  139.5320 C   0  0  0  0  0  0  0  0  0  0  0  0
  191.0910  173.2270  140.4770 N   0  0  0  0  0  1  0  0  0  0  0  0
  190.2450  173.4280  138.1410 N   0  0  0  0  0  0  0  0  0  0  0  0
  188.8930  174.0440  139.8180 C   0  0  1  0  0  3  0  0  0  0  0  0
  189.0850  173.8410  137.4660 N   0  0  0  0  0  0  0  0  0  0  0  0
  1  2  1  0  0  0  0
  1  5  1  0  0  0  0
  2 17  1  6  0  0  0
  2  6  1  0  0  0  0
  5  3  1  0  0  0  0
  5  7  1  0  0  0  0
  6  7  1  0  0  0  0
  6  9  1  1  0  0  0
  7  4  1  1  0  0  0
  8 14  1  0  0  0  0
  9 10  2  0  0  0  0
  9  8  1  0  0  0  0
 11 12  2  0  0  0  0
 13 15  1  0  0  0  0
 14 13  2  0  0  0  0
 14 11  1  0  0  0  0
 15 12  1  0  0  0  0
 16 13  1  0  0  0  0
 19 17  1  0  0  0  0
 19 18  2  0  0  0  0
 20 24  1  0  0  0  0
 21 24  1  0  0  0  0
 21 22  1  0  0  0  0
 23 21  2  0  0  0  0
 24 19  1  6  0  0  0
 25 23  1  0  0  0  0
 25 20  2  0  0  0  0
M  END
>  <MODEL>
5

>  <REMARK>
 VINA RESULT:      -6.0      2.062      5.764
  Name = 
  4 active torsions:
  status: ('A' for Active; 'I' for Inactive)
    1  A    between atoms: C_2  and  N_12
    2  A    between atoms: N_3  and  C_20
    3  A    between atoms: C_15  and  C_17
    4  A    between atoms: C_16  and  C_24
                            x       y       z     vdW  Elec       q    Type
                         _______ _______ _______ _____ _____    ______ ____

>  <TORSDO>
F 4

$$$$
=
 OpenBabel11062420173D

 25 27  0  0  1  0  0  0  0  0999 V2000
  188.2100  174.8100  141.2570 C   0  0  0  0  0  2  0  0  0  0  0  0
  188.8340  175.5450  142.4380 C   0  0  2  0  0  3  0  0  0  0  0  0
  188.8290  172.9960  139.8510 C   0  0  0  0  0  1  0  0  0  0  0  0
  191.2050  173.9700  140.9240 C   0  0  0  0  0  1  0  0  0  0  0  0
  188.7620  173.4590  141.2340 N   0  0  0  0  0  0  0  0  0  0  0  0
  189.8640  174.5830  142.9910 C   0  0  1  0  0  3  0  0  0  0  0  0
  190.0760  173.5540  141.8870 C   0  0  2  0  0  3  0  0  0  0  0  0
  191.9450  174.5830  144.4560 N   0  0  0  0  0  2  0  0  0  0  0  0
  191.1010  175.2550  143.5120 C   0  0  0  0  0  0  0  0  0  0  0  0
  191.3950  176.4040  143.0900 O   0  0  0  0  0  0  0  0  0  0  0  0
  194.3200  175.0050  145.1030 C   0  0  0  0  0  3  0  0  0  0  0  0
  194.9380  175.6860  146.0960 N   0  0  0  0  0  0  0  0  0  0  0  0
  192.8300  175.9800  146.3780 C   0  0  0  0  0  0  0  0  0  0  0  0
  192.9640  175.1990  145.2520 C   0  0  0  0  0  0  0  0  0  0  0  0
  194.0250  176.2500  146.8360 O   0  0  0  0  0  0  0  0  0  0  0  0
  191.6220  176.3920  147.0060 N   0  0  0  0  0  1  0  0  0  0  0  0
  187.8260  175.8130  143.4520 N   0  0  0  0  0  2  0  0  0  0  0  0
  188.6740  177.9110  144.0170 O   0  0  0  0  0  0  0  0  0  0  0  0
  187.7930  177.0280  144.2040 C   0  0  0  0  0  0  0  0  0  0  0  0
  186.8750  177.0050  146.6670 C   0  0  0  0  0  3  0  0  0  0  0  0
  185.5000  177.6400  144.9760 C   0  0  0  0  0  0  0  0  0  0  0  0
  184.9520  177.9670  143.7040 N   0  0  0  0  0  1  0  0  0  0  0  0
  184.7690  177.7160  146.1760 N   0  0  0  0  0  0  0  0  0  0  0  0
  186.7270  177.2330  145.2000 C   0  0  0  0  0  0  0  0  0  0  0  0
  185.5700  177.3330  147.2650 N   0  0  0  0  0  2  0  0  0  0  0  0
  1  2  1  0  0  0  0
  2  6  1  0  0  0  0
  2 17  1  1  0  0  0
  3  5  1  0  0  0  0
  5  1  1  0  0  0  0
  5  7  1  0  0  0  0
  6  9  1  6  0  0  0
  7  4  1  6  0  0  0
  7  6  1  0  0  0  0
  8 14  1  0  0  0  0
  9  8  1  0  0  0  0
 10  9  2  0  0  0  0
 11 14  1  0  0  0  0
 11 12  2  0  0  0  0
 12 15  1  0  0  0  0
 13 15  1  0  0  0  0
 13 16  1  0  0  0  0
 14 13  2  0  0  0  0
 17 19  1  0  0  0  0
 18 19  2  0  0  0  0
 19 24  1  0  0  0  0
 20 25  1  0  0  0  0
 21 24  1  0  0  0  0
 21 23  2  0  0  0  0
 22 21  1  0  0  0  0
 23 25  1  0  0  0  0
 24 20  2  0  0  0  0
M  END
>  <MODEL>
6

>  <REMARK>
 VINA RESULT:      -6.0      1.270      1.316
  Name = 
  4 active torsions:
  status: ('A' for Active; 'I' for Inactive)
    1  A    between atoms: C_2  and  N_12
    2  A    between atoms: N_3  and  C_20
    3  A    between atoms: C_15  and  C_17
    4  A    between atoms: C_16  and  C_24
                            x       y       z     vdW  Elec       q    Type
                         _______ _______ _______ _____ _____    ______ ____

>  <TORSDO>
F 4

$$$$
=
 OpenBabel11062420173D

 25 27  0  0  1  0  0  0  0  0999 V2000
  191.1440  175.5990  145.7200 C   0  0  0  0  0  2  0  0  0  0  0  0
  190.1110  175.8890  144.6360 C   0  0  2  0  0  3  0  0  0  0  0  0
  191.2380  175.7910  148.0870 C   0  0  0  0  0  1  0  0  0  0  0  0
  189.2380  177.5410  147.2630 C   0  0  0  0  0  1  0  0  0  0  0  0
  190.4220  175.3440  146.9620 N   0  0  0  0  0  0  0  0  0  0  0  0
  188.7840  175.9160  145.3650 C   0  0  1  0  0  3  0  0  0  0  0  0
  189.1460  176.0620  146.8380 C   0  0  2  0  0  3  0  0  0  0  0  0
  186.4090  176.7730  145.0430 N   0  0  0  0  0  2  0  0  0  0  0  0
  187.8170  176.9270  144.8200 C   0  0  0  0  0  0  0  0  0  0  0  0
  188.2630  177.9200  144.1880 O   0  0  0  0  0  0  0  0  0  0  0  0
  185.1910  177.4740  142.9790 C   0  0  0  0  0  3  0  0  0  0  0  0
  184.1670  178.3160  142.7080 N   0  0  0  0  0  0  0  0  0  0  0  0
  184.4410  178.3580  144.8370 C   0  0  0  0  0  0  0  0  0  0  0  0
  185.3710  177.4700  144.3460 C   0  0  0  0  0  0  0  0  0  0  0  0
  183.7470  178.8250  143.8320 O   0  0  0  0  0  0  0  0  0  0  0  0
  184.2730  178.7750  146.1870 N   0  0  0  0  0  1  0  0  0  0  0  0
  190.1020  174.8170  143.6510 N   0  0  0  0  0  2  0  0  0  0  0  0
  189.5190  176.2000  141.8670 O   0  0  0  0  0  0  0  0  0  0  0  0
  189.8070  175.0410  142.2710 C   0  0  0  0  0  0  0  0  0  0  0  0
  191.0020  173.5430  140.4720 C   0  0  0  0  0  3  0  0  0  0  0  0
  188.8770  173.0440  141.0970 C   0  0  0  0  0  0  0  0  0  0  0  0
  187.5940  173.0410  141.7150 N   0  0  0  0  0  1  0  0  0  0  0  0
  189.2750  172.0990  140.1340 N   0  0  0  0  0  0  0  0  0  0  0  0
  189.8380  173.9060  141.3320 C   0  0  1  0  0  3  0  0  0  0  0  0
  190.5880  172.3550  139.7060 N   0  0  0  0  0  0  0  0  0  0  0  0
  1  5  1  0  0  0  0
  2 17  1  6  0  0  0
  2  6  1  0  0  0  0
  2  1  1  0  0  0  0
  5  3  1  0  0  0  0
  6  9  1  6  0  0  0
  6  7  1  0  0  0  0
  7  5  1  0  0  0  0
  7  4  1  6  0  0  0
  9  8  1  0  0  0  0
 10  9  2  0  0  0  0
 11 14  1  0  0  0  0
 12 11  2  0  0  0  0
 12 15  1  0  0  0  0
 13 16  1  0  0  0  0
 14 13  2  0  0  0  0
 14  8  1  0  0  0  0
 15 13  1  0  0  0  0
 18 19  2  0  0  0  0
 19 17  1  0  0  0  0
 20 24  1  0  0  0  0
 21 24  1  0  0  0  0
 21 22  1  0  0  0  0
 23 21  2  0  0  0  0
 24 19  1  1  0  0  0
 25 23  1  0  0  0  0
 25 20  2  0  0  0  0
M  END
>  <MODEL>
7

>  <REMARK>
 VINA RESULT:      -6.0      2.217      7.090
  Name = 
  4 active torsions:
  status: ('A' for Active; 'I' for Inactive)
    1  A    between atoms: C_2  and  N_12
    2  A    between atoms: N_3  and  C_20
    3  A    between atoms: C_15  and  C_17
    4  A    between atoms: C_16  and  C_24
                            x       y       z     vdW  Elec       q    Type
                         _______ _______ _______ _____ _____    ______ ____

>  <TORSDO>
F 4

$$$$
=
 OpenBabel11062420173D

 25 27  0  0  1  0  0  0  0  0999 V2000
  191.0500  175.5240  145.6200 C   0  0  0  0  0  2  0  0  0  0  0  0
  190.0040  175.8710  144.5660 C   0  0  2  0  0  3  0  0  0  0  0  0
  191.1920  175.6350  147.9900 C   0  0  0  0  0  1  0  0  0  0  0  0
  189.2160  177.4530  147.2610 C   0  0  0  0  0  1  0  0  0  0  0  0
  190.3460  175.2420  146.8660 N   0  0  0  0  0  0  0  0  0  0  0  0
  188.6920  175.9030  145.3200 C   0  0  1  0  0  3  0  0  0  0  0  0
  189.0840  175.9920  146.7900 C   0  0  2  0  0  3  0  0  0  0  0  0
  186.3260  176.7940  145.0250 N   0  0  0  0  0  2  0  0  0  0  0  0
  187.7380  176.9520  144.8280 C   0  0  0  0  0  0  0  0  0  0  0  0
  188.1980  177.9780  144.2620 O   0  0  0  0  0  0  0  0  0  0  0  0
  185.0690  177.5410  143.0010 C   0  0  0  0  0  3  0  0  0  0  0  0
  184.0810  178.4340  142.7600 N   0  0  0  0  0  0  0  0  0  0  0  0
  184.4420  178.4830  144.8750 C   0  0  0  0  0  0  0  0  0  0  0  0
  185.3010  177.5400  144.3590 C   0  0  0  0  0  0  0  0  0  0  0  0
  183.7340  178.9770  143.8920 O   0  0  0  0  0  0  0  0  0  0  0  0
  184.3500  178.9230  146.2250 N   0  0  0  0  0  1  0  0  0  0  0  0
  189.9540  174.8330  143.5470 N   0  0  0  0  0  2  0  0  0  0  0  0
  189.3220  176.2790  141.8300 O   0  0  0  0  0  0  0  0  0  0  0  0
  189.6140  175.1050  142.1850 C   0  0  0  0  0  0  0  0  0  0  0  0
  188.3770  173.3180  140.7070 C   0  0  0  0  0  3  0  0  0  0  0  0
  190.6420  173.4470  140.6290 C   0  0  0  0  0  0  0  0  0  0  0  0
  192.0030  173.8100  140.8360 N   0  0  0  0  0  1  0  0  0  0  0  0
  190.2390  172.4210  139.7540 N   0  0  0  0  0  0  0  0  0  0  0  0
  189.6050  174.0020  141.2090 C   0  0  1  0  0  3  0  0  0  0  0  0
  188.8410  172.2920  139.7590 N   0  0  0  0  0  0  0  0  0  0  0  0
  1  5  1  0  0  0  0
  2 17  1  6  0  0  0
  2  6  1  0  0  0  0
  2  1  1  0  0  0  0
  5  3  1  0  0  0  0
  6  9  1  6  0  0  0
  6  7  1  0  0  0  0
  7  5  1  0  0  0  0
  7  4  1  6  0  0  0
  9  8  1  0  0  0  0
 10  9  2  0  0  0  0
 11 14  1  0  0  0  0
 12 11  2  0  0  0  0
 12 15  1  0  0  0  0
 13 16  1  0  0  0  0
 14 13  2  0  0  0  0
 14  8  1  0  0  0  0
 15 13  1  0  0  0  0
 18 19  2  0  0  0  0
 19 17  1  0  0  0  0
 20 24  1  0  0  0  0
 21 22  1  0  0  0  0
 21 24  1  0  0  0  0
 23 25  1  0  0  0  0
 23 21  2  0  0  0  0
 24 19  1  6  0  0  0
 25 20  2  0  0  0  0
M  END
>  <MODEL>
8

>  <REMARK>
 VINA RESULT:      -5.9      2.265      7.122
  Name = 
  4 active torsions:
  status: ('A' for Active; 'I' for Inactive)
    1  A    between atoms: C_2  and  N_12
    2  A    between atoms: N_3  and  C_20
    3  A    between atoms: C_15  and  C_17
    4  A    between atoms: C_16  and  C_24
                            x       y       z     vdW  Elec       q    Type
                         _______ _______ _______ _____ _____    ______ ____

>  <TORSDO>
F 4

$$$$
=
 OpenBabel11062420173D

 25 27  0  0  1  0  0  0  0  0999 V2000
  192.6210  175.9040  144.7890 C   0  0  0  0  0  2  0  0  0  0  0  0
  191.1620  175.5140  144.5770 C   0  0  2  0  0  3  0  0  0  0  0  0
  194.0410  176.2580  146.6620 C   0  0  0  0  0  1  0  0  0  0  0  0
  191.4440  176.5710  147.6090 C   0  0  0  0  0  1  0  0  0  0  0  0
  193.0390  175.3700  146.0810 N   0  0  0  0  0  0  0  0  0  0  0  0
  190.7470  174.8530  145.8740 C   0  0  1  0  0  3  0  0  0  0  0  0
  191.8120  175.2620  146.8840 C   0  0  2  0  0  3  0  0  0  0  0  0
  188.5320  176.0520  145.5030 N   0  0  0  0  0  2  0  0  0  0  0  0
  189.3250  175.1330  146.2670 C   0  0  0  0  0  0  0  0  0  0  0  0
  188.8360  174.5330  147.2590 O   0  0  0  0  0  0  0  0  0  0  0  0
  186.9810  177.0040  147.2130 C   0  0  0  0  0  3  0  0  0  0  0  0
  185.6960  177.4280  147.2130 N   0  0  0  0  0  0  0  0  0  0  0  0
  186.1390  176.8330  145.1990 C   0  0  0  0  0  0  0  0  0  0  0  0
  187.2940  176.6360  145.9220 C   0  0  0  0  0  0  0  0  0  0  0  0
  185.2260  177.3110  146.0030 O   0  0  0  0  0  0  0  0  0  0  0  0
  185.9140  176.5230  143.8290 N   0  0  0  0  0  1  0  0  0  0  0  0
  191.0520  174.5560  143.4870 N   0  0  0  0  0  2  0  0  0  0  0  0
  189.5450  175.8410  142.2540 O   0  0  0  0  0  0  0  0  0  0  0  0
  190.2290  174.7850  142.3400 C   0  0  0  0  0  0  0  0  0  0  0  0
  191.2940  173.5060  140.3060 C   0  0  0  0  0  3  0  0  0  0  0  0
  189.1980  172.9610  140.9840 C   0  0  0  0  0  0  0  0  0  0  0  0
  187.9510  172.8970  141.6690 N   0  0  0  0  0  1  0  0  0  0  0  0
  189.5230  172.1370  139.8920 N   0  0  0  0  0  0  0  0  0  0  0  0
  190.1870  173.7750  141.2690 C   0  0  2  0  0  3  0  0  0  0  0  0
  190.8160  172.4280  139.4240 N   0  0  0  0  0  0  0  0  0  0  0  0
  1  5  1  0  0  0  0
  2 17  1  6  0  0  0
  2  1  1  0  0  0  0
  2  6  1  0  0  0  0
  5  3  1  0  0  0  0
  5  7  1  0  0  0  0
  6  9  1  1  0  0  0
  6  7  1  0  0  0  0
  7  4  1  6  0  0  0
  8 14  1  0  0  0  0
  8  9  1  0  0  0  0
  9 10  2  0  0  0  0
 12 11  2  0  0  0  0
 13 14  2  0  0  0  0
 13 15  1  0  0  0  0
 14 11  1  0  0  0  0
 15 12  1  0  0  0  0
 16 13  1  0  0  0  0
 18 19  2  0  0  0  0
 19 17  1  0  0  0  0
 20 24  1  0  0  0  0
 21 24  1  0  0  0  0
 21 22  1  0  0  0  0
 23 21  2  0  0  0  0
 24 19  1  6  0  0  0
 25 23  1  0  0  0  0
 25 20  2  0  0  0  0
M  END
>  <MODEL>
9

>  <REMARK>
 VINA RESULT:      -5.9      2.137      6.675
  Name = 
  4 active torsions:
  status: ('A' for Active; 'I' for Inactive)
    1  A    between atoms: C_2  and  N_12
    2  A    between atoms: N_3  and  C_20
    3  A    between atoms: C_15  and  C_17
    4  A    between atoms: C_16  and  C_24
                            x       y       z     vdW  Elec       q    Type
                         _______ _______ _______ _____ _____    ______ ____

>  <TORSDO>
F 4

$$$$
