=
 OpenBabel11062418553D

 33 37  0  0  1  0  0  0  0  0999 V2000
  187.9470  177.8490  142.5160 C   0  0  0  0  0  2  0  0  0  0  0  0
  187.0510  176.8790  141.7320 C   0  0  1  0  0  3  0  0  0  0  0  0
  189.7900  176.3830  143.0490 O   0  0  0  0  0  0  0  0  0  0  0  0
  189.7670  175.2330  142.2230 C   0  0  1  0  0  3  0  0  0  0  0  0
  188.4170  173.8090  141.1060 C   0  0  0  0  0  0  0  0  0  0  0  0
  189.4330  177.5270  142.3060 C   0  0  2  0  0  3  0  0  0  0  0  0
  188.6280  172.6520  141.6080 N   0  0  0  0  0  0  0  0  0  0  0  0
  188.1920  174.8590  140.0800 O   0  0  0  0  0  0  0  0  0  0  0  0
  189.3740  172.7930  142.8350 C   0  0  0  0  0  3  0  0  0  0  0  0
  187.2710  175.5400  142.1050 O   0  0  0  0  0  0  0  0  0  0  0  0
  189.9650  173.9890  143.1650 C   0  0  0  0  0  0  0  0  0  0  0  0
  188.4220  175.1430  141.4080 C   0  0  2  0  0  0  0  0  0  0  0  0
  192.0910  175.2890  146.8220 C   0  0  0  0  0  3  0  0  0  0  0  0
  193.1700  174.0280  144.9700 C   0  0  0  0  0  3  0  0  0  0  0  0
  190.1540  174.2900  145.6110 C   0  0  0  0  0  3  0  0  0  0  0  0
  193.1470  175.0060  146.0630 C   0  0  0  0  0  0  0  0  0  0  0  0
  192.1460  173.6300  144.2200 C   0  0  0  0  0  3  0  0  0  0  0  0
  190.7140  174.7890  146.7120 C   0  0  0  0  0  0  0  0  0  0  0  0
  190.7940  174.0880  144.3400 N   0  0  0  0  0  0  0  0  0  0  0  0
  189.9090  174.9100  147.8370 O   0  0  0  0  0  1  0  0  0  0  0  0
  194.2680  176.9530  146.7890 O   0  0  0  0  0  1  0  0  0  0  0  0
  194.4500  175.6110  146.4530 C   0  0  0  0  0  2  0  0  0  0  0  0
  190.2690  178.6250  142.6040 O   0  0  0  0  0  0  0  0  0  0  0  0
  190.9970  178.3410  143.7720 C   0  0  0  0  0  1  0  0  0  0  0  0
  185.5870  177.2260  141.9400 C   0  0  0  0  0  2  0  0  0  0  0  0
  184.5240  178.2460  145.2250 C   0  0  0  0  0  0  0  0  0  0  0  0
  185.2950  177.4260  143.3880 C   0  0  0  0  0  0  0  0  0  0  0  0
  183.8310  178.9760  145.9820 O   0  0  0  0  0  0  0  0  0  0  0  0
  185.4510  177.1830  145.6870 C   0  0  1  0  0  3  0  0  0  0  0  0
  184.4910  178.3430  143.8110 N   0  0  0  0  0  0  0  0  0  0  0  0
  185.9360  176.6660  144.4140 N   0  0  0  0  0  2  0  0  0  0  0  0
  186.6020  177.7980  146.4650 C   0  0  0  0  0  2  0  0  0  0  0  0
  187.9170  177.1760  146.0360 C   0  0  0  0  0  1  0  0  0  0  0  0
  2 25  1  1  0  0  0
  2 10  1  0  0  0  0
  2  1  1  0  0  0  0
  4  3  1  1  0  0  0
  4 11  1  0  0  0  0
  5 12  1  0  0  0  0
  5  7  2  0  0  0  0
  6  1  1  0  0  0  0
  6 23  1  1  0  0  0
  6  3  1  0  0  0  0
  7  9  1  0  0  0  0
  8  5  1  0  0  0  0
  9 11  2  0  0  0  0
 11 19  1  0  0  0  0
 12  8  1  6  0  0  0
 12 10  1  0  0  0  0
 12  4  1  0  0  0  0
 14 16  1  0  0  0  0
 15 18  2  0  0  0  0
 16 22  1  0  0  0  0
 16 13  2  0  0  0  0
 17 19  1  0  0  0  0
 17 14  2  0  0  0  0
 18 13  1  0  0  0  0
 18 20  1  0  0  0  0
 19 15  1  0  0  0  0
 22 21  1  0  0  0  0
 23 24  1  0  0  0  0
 25 27  1  0  0  0  0
 26 29  1  0  0  0  0
 26 28  2  0  0  0  0
 27 30  2  0  0  0  0
 27 31  1  0  0  0  0
 29 32  1  1  0  0  0
 30 26  1  0  0  0  0
 31 29  1  0  0  0  0
 33 32  1  0  0  0  0
M  END
>  <MODEL>
1

>  <REMARK>
 VINA RESULT:      -7.8      0.000      0.000
  Name = 
  6 active torsions:
  status: ('A' for Active; 'I' for Inactive)
    1  A    between atoms: C_4  and  C_31
    2  A    between atoms: C_8  and  C_31
    3  A    between atoms: C_12  and  O_24
    4  A    between atoms: C_13  and  C_20
    5  A    between atoms: C_15  and  C_17
    6  A    between atoms: N_27  and  C_29
                            x       y       z     vdW  Elec       q    Type
                         _______ _______ _______ _____ _____    ______ ____

>  <TORSDO>
F 6

$$$$
=
 OpenBabel11062418553D

 33 37  0  0  1  0  0  0  0  0999 V2000
  189.3930  175.5610  143.0400 C   0  0  0  0  0  2  0  0  0  0  0  0
  188.8550  176.4870  144.1400 C   0  0  1  0  0  3  0  0  0  0  0  0
  191.3290  174.6530  144.1620 O   0  0  0  0  0  0  0  0  0  0  0  0
  191.2430  174.8690  145.5590 C   0  0  1  0  0  3  0  0  0  0  0  0
  190.4620  176.2700  147.1490 C   0  0  0  0  0  0  0  0  0  0  0  0
  190.0640  174.3160  143.6390 C   0  0  2  0  0  3  0  0  0  0  0  0
  191.4860  176.6700  147.8030 N   0  0  0  0  0  0  0  0  0  0  0  0
  189.0890  175.7710  146.8860 O   0  0  0  0  0  0  0  0  0  0  0  0
  192.6830  176.3180  147.0770 C   0  0  0  0  0  3  0  0  0  0  0  0
  189.8730  176.9110  145.0160 O   0  0  0  0  0  0  0  0  0  0  0  0
  192.6330  175.4410  146.0200 C   0  0  0  0  0  0  0  0  0  0  0  0
  190.0590  175.8480  145.9120 C   0  0  2  0  0  0  0  0  0  0  0  0
  195.9280  174.6440  143.1760 C   0  0  0  0  0  3  0  0  0  0  0  0
  195.0200  172.9470  144.7510 C   0  0  0  0  0  3  0  0  0  0  0  0
  194.7460  176.0260  144.8810 C   0  0  0  0  0  3  0  0  0  0  0  0
  195.6180  173.3870  143.4860 C   0  0  0  0  0  0  0  0  0  0  0  0
  194.2490  173.6560  145.5700 C   0  0  0  0  0  3  0  0  0  0  0  0
  195.6790  175.8730  143.9420 C   0  0  0  0  0  0  0  0  0  0  0  0
  193.8480  175.0170  145.3720 N   0  0  0  0  0  0  0  0  0  0  0  0
  196.4360  176.9870  143.6080 O   0  0  0  0  0  1  0  0  0  0  0  0
  197.1170  172.7900  141.7620 O   0  0  0  0  0  1  0  0  0  0  0  0
  196.0600  172.3220  142.5430 C   0  0  0  0  0  2  0  0  0  0  0  0
  190.1470  173.2530  142.7140 O   0  0  0  0  0  0  0  0  0  0  0  0
  189.2880  172.2200  143.1270 C   0  0  0  0  0  1  0  0  0  0  0  0
  188.1820  177.7020  143.5250 C   0  0  0  0  0  2  0  0  0  0  0  0
  184.7500  178.4990  144.2600 C   0  0  0  0  0  0  0  0  0  0  0  0
  186.7930  177.8530  144.0450 C   0  0  0  0  0  0  0  0  0  0  0  0
  183.6590  179.0530  143.9630 O   0  0  0  0  0  0  0  0  0  0  0  0
  184.9880  177.7000  145.4880 C   0  0  1  0  0  3  0  0  0  0  0  0
  185.9000  178.5570  143.4340 N   0  0  0  0  0  0  0  0  0  0  0  0
  186.3720  177.2910  145.2880 N   0  0  0  0  0  2  0  0  0  0  0  0
  184.8860  178.5910  146.7160 C   0  0  0  0  0  2  0  0  0  0  0  0
  186.0670  178.3510  147.6370 C   0  0  0  0  0  1  0  0  0  0  0  0
  1  6  1  0  0  0  0
  1  2  1  0  0  0  0
  2 25  1  6  0  0  0
  2 10  1  0  0  0  0
  4  3  1  6  0  0  0
  4 12  1  0  0  0  0
  4 11  1  0  0  0  0
  5  7  2  0  0  0  0
  6 23  1  6  0  0  0
  6  3  1  0  0  0  0
  8  5  1  0  0  0  0
  9  7  1  0  0  0  0
 11  9  2  0  0  0  0
 12 10  1  6  0  0  0
 12  8  1  0  0  0  0
 12  5  1  0  0  0  0
 13 16  2  0  0  0  0
 13 18  1  0  0  0  0
 14 17  2  0  0  0  0
 15 19  1  0  0  0  0
 16 14  1  0  0  0  0
 18 15  2  0  0  0  0
 19 17  1  0  0  0  0
 19 11  1  0  0  0  0
 20 18  1  0  0  0  0
 21 22  1  0  0  0  0
 22 16  1  0  0  0  0
 23 24  1  0  0  0  0
 25 27  1  0  0  0  0
 26 29  1  0  0  0  0
 27 31  1  0  0  0  0
 28 26  2  0  0  0  0
 29 32  1  1  0  0  0
 30 27  2  0  0  0  0
 30 26  1  0  0  0  0
 31 29  1  0  0  0  0
 32 33  1  0  0  0  0
M  END
>  <MODEL>
2

>  <REMARK>
 VINA RESULT:      -7.4      2.493      4.528
  Name = 
  6 active torsions:
  status: ('A' for Active; 'I' for Inactive)
    1  A    between atoms: C_4  and  C_31
    2  A    between atoms: C_8  and  C_31
    3  A    between atoms: C_12  and  O_24
    4  A    between atoms: C_13  and  C_20
    5  A    between atoms: C_15  and  C_17
    6  A    between atoms: N_27  and  C_29
                            x       y       z     vdW  Elec       q    Type
                         _______ _______ _______ _____ _____    ______ ____

>  <TORSDO>
F 6

$$$$
=
 OpenBabel11062418553D

 33 37  0  0  1  0  0  0  0  0999 V2000
  190.5800  176.0540  146.9880 C   0  0  0  0  0  2  0  0  0  0  0  0
  189.3700  176.1630  146.0490 C   0  0  1  0  0  3  0  0  0  0  0  0
  192.2270  175.1800  145.4530 O   0  0  0  0  0  0  0  0  0  0  0  0
  191.8100  175.3700  144.1130 C   0  0  1  0  0  3  0  0  0  0  0  0
  190.0070  175.4960  142.7580 C   0  0  0  0  0  0  0  0  0  0  0  0
  191.8930  176.3060  146.2340 C   0  0  2  0  0  3  0  0  0  0  0  0
  190.1390  174.5540  141.9030 N   0  0  0  0  0  0  0  0  0  0  0  0
  189.7150  176.8450  143.3050 O   0  0  0  0  0  0  0  0  0  0  0  0
  191.1790  173.6530  142.3430 C   0  0  0  0  0  3  0  0  0  0  0  0
  189.4480  175.2510  144.9800 O   0  0  0  0  0  0  0  0  0  0  0  0
  192.0240  174.0020  143.3690 C   0  0  0  0  0  0  0  0  0  0  0  0
  190.3090  175.8460  144.0450 C   0  0  2  0  0  0  0  0  0  0  0  0
  194.8050  171.1990  145.3670 C   0  0  0  0  0  3  0  0  0  0  0  0
  195.5320  173.2660  144.1900 C   0  0  0  0  0  3  0  0  0  0  0  0
  192.8570  171.7380  143.9080 C   0  0  0  0  0  3  0  0  0  0  0  0
  195.6250  172.2390  145.2340 C   0  0  0  0  0  0  0  0  0  0  0  0
  194.4430  173.6580  143.5360 C   0  0  0  0  0  3  0  0  0  0  0  0
  193.5960  170.8710  144.5980 C   0  0  0  0  0  0  0  0  0  0  0  0
  193.1210  173.1390  143.7280 N   0  0  0  0  0  0  0  0  0  0  0  0
  193.1520  169.5570  144.6540 O   0  0  0  0  0  1  0  0  0  0  0  0
  197.1710  173.6040  146.3840 O   0  0  0  0  0  1  0  0  0  0  0  0
  196.8250  172.2790  146.1140 C   0  0  0  0  0  2  0  0  0  0  0  0
  192.9470  176.6730  147.0980 O   0  0  0  0  0  0  0  0  0  0  0  0
  194.1720  176.4360  146.4510 C   0  0  0  0  0  1  0  0  0  0  0  0
  188.0810  175.9270  146.8180 C   0  0  0  0  0  2  0  0  0  0  0  0
  185.1040  177.8260  146.1230 C   0  0  0  0  0  0  0  0  0  0  0  0
  186.9980  176.8190  146.3160 C   0  0  0  0  0  0  0  0  0  0  0  0
  183.9450  178.2100  146.4300 O   0  0  0  0  0  0  0  0  0  0  0  0
  185.8350  178.2340  144.8980 C   0  0  1  0  0  3  0  0  0  0  0  0
  185.8720  176.9530  146.9330 N   0  0  0  0  0  0  0  0  0  0  0  0
  187.0980  177.5320  145.0820 N   0  0  0  0  0  2  0  0  0  0  0  0
  185.1240  177.7000  143.6650 C   0  0  0  0  0  2  0  0  0  0  0  0
  186.0090  176.7040  142.9400 C   0  0  0  0  0  1  0  0  0  0  0  0
  2 25  1  1  0  0  0
  2  1  1  0  0  0  0
  3  6  1  0  0  0  0
  4 11  1  6  0  0  0
  4  3  1  0  0  0  0
  5  8  1  0  0  0  0
  6  1  1  0  0  0  0
  6 23  1  1  0  0  0
  7  9  1  0  0  0  0
  7  5  2  0  0  0  0
  8 12  1  0  0  0  0
  9 11  2  0  0  0  0
 10  2  1  0  0  0  0
 11 19  1  0  0  0  0
 12  5  1  6  0  0  0
 12  4  1  0  0  0  0
 12 10  1  0  0  0  0
 14 16  1  0  0  0  0
 15 18  2  0  0  0  0
 16 13  2  0  0  0  0
 16 22  1  0  0  0  0
 17 19  1  0  0  0  0
 17 14  2  0  0  0  0
 18 20  1  0  0  0  0
 18 13  1  0  0  0  0
 19 15  1  0  0  0  0
 22 21  1  0  0  0  0
 24 23  1  0  0  0  0
 26 28  2  0  0  0  0
 26 30  1  0  0  0  0
 27 25  1  0  0  0  0
 27 30  2  0  0  0  0
 29 32  1  6  0  0  0
 29 31  1  0  0  0  0
 29 26  1  0  0  0  0
 31 27  1  0  0  0  0
 33 32  1  0  0  0  0
M  END
>  <MODEL>
3

>  <REMARK>
 VINA RESULT:      -7.3      2.428      3.861
  Name = 
  6 active torsions:
  status: ('A' for Active; 'I' for Inactive)
    1  A    between atoms: C_4  and  C_31
    2  A    between atoms: C_8  and  C_31
    3  A    between atoms: C_12  and  O_24
    4  A    between atoms: C_13  and  C_20
    5  A    between atoms: C_15  and  C_17
    6  A    between atoms: N_27  and  C_29
                            x       y       z     vdW  Elec       q    Type
                         _______ _______ _______ _____ _____    ______ ____

>  <TORSDO>
F 6

$$$$
=
 OpenBabel11062418553D

 33 37  0  0  1  0  0  0  0  0999 V2000
  190.3560  172.7980  143.3980 C   0  0  0  0  0  2  0  0  0  0  0  0
  191.6760  173.5190  143.7090 C   0  0  1  0  0  3  0  0  0  0  0  0
  188.9130  174.6990  143.0310 O   0  0  0  0  0  0  0  0  0  0  0  0
  189.6790  175.8700  142.8060 C   0  0  1  0  0  3  0  0  0  0  0  0
  191.6180  176.9130  143.3090 C   0  0  0  0  0  0  0  0  0  0  0  0
  189.5110  173.5930  142.3930 C   0  0  2  0  0  3  0  0  0  0  0  0
  191.2930  178.0130  143.8740 N   0  0  0  0  0  0  0  0  0  0  0  0
  192.3340  175.9690  142.4140 O   0  0  0  0  0  0  0  0  0  0  0  0
  189.8910  177.9760  144.2200 C   0  0  0  0  0  3  0  0  0  0  0  0
  191.4620  174.8080  144.2320 O   0  0  0  0  0  0  0  0  0  0  0  0
  189.0680  176.9970  143.7160 C   0  0  0  0  0  0  0  0  0  0  0  0
  191.2030  175.6230  143.1200 C   0  0  2  0  0  0  0  0  0  0  0  0
  184.8160  178.1260  144.1930 C   0  0  0  0  0  3  0  0  0  0  0  0
  186.0970  176.8190  145.8770 C   0  0  0  0  0  3  0  0  0  0  0  0
  186.7560  177.2620  142.8860 C   0  0  0  0  0  3  0  0  0  0  0  0
  185.0790  177.7860  145.4530 C   0  0  0  0  0  0  0  0  0  0  0  0
  187.2170  176.4930  145.2380 C   0  0  0  0  0  3  0  0  0  0  0  0
  185.5050  177.7140  142.9620 C   0  0  0  0  0  0  0  0  0  0  0  0
  187.6530  177.0320  143.9850 N   0  0  0  0  0  0  0  0  0  0  0  0
  184.8110  177.8740  141.7700 O   0  0  0  0  0  1  0  0  0  0  0  0
  184.8950  178.6610  147.6380 O   0  0  0  0  0  1  0  0  0  0  0  0
  184.1620  178.3050  146.5050 C   0  0  0  0  0  2  0  0  0  0  0  0
  188.5540  172.7870  141.7390 O   0  0  0  0  0  0  0  0  0  0  0  0
  188.5620  173.0900  140.3670 C   0  0  0  0  0  1  0  0  0  0  0  0
  192.5020  172.7080  144.6920 C   0  0  0  0  0  2  0  0  0  0  0  0
  195.8910  173.7060  145.3800 C   0  0  0  0  0  0  0  0  0  0  0  0
  193.9170  173.1760  144.7010 C   0  0  0  0  0  0  0  0  0  0  0  0
  196.8750  173.8030  146.1600 O   0  0  0  0  0  0  0  0  0  0  0  0
  195.8820  174.1590  143.9670 C   0  0  1  0  0  3  0  0  0  0  0  0
  194.6540  173.1270  145.7590 N   0  0  0  0  0  0  0  0  0  0  0  0
  194.5370  173.7750  143.5620 N   0  0  0  0  0  2  0  0  0  0  0  0
  196.0280  175.6710  143.9040 C   0  0  0  0  0  2  0  0  0  0  0  0
  197.2820  176.0450  143.1380 C   0  0  0  0  0  1  0  0  0  0  0  0
  1  2  1  0  0  0  0
  2 10  1  0  0  0  0
  2 25  1  1  0  0  0
  4  3  1  1  0  0  0
  4 12  1  0  0  0  0
  4 11  1  0  0  0  0
  5  7  2  0  0  0  0
  6 23  1  1  0  0  0
  6  3  1  0  0  0  0
  6  1  1  0  0  0  0
  7  9  1  0  0  0  0
  8  5  1  0  0  0  0
 11 19  1  0  0  0  0
 11  9  2  0  0  0  0
 12  8  1  6  0  0  0
 12  5  1  0  0  0  0
 12 10  1  0  0  0  0
 13 16  2  0  0  0  0
 15 18  2  0  0  0  0
 15 19  1  0  0  0  0
 16 14  1  0  0  0  0
 16 22  1  0  0  0  0
 17 14  2  0  0  0  0
 18 13  1  0  0  0  0
 19 17  1  0  0  0  0
 20 18  1  0  0  0  0
 22 21  1  0  0  0  0
 24 23  1  0  0  0  0
 25 27  1  0  0  0  0
 26 30  1  0  0  0  0
 26 28  2  0  0  0  0
 27 30  2  0  0  0  0
 29 32  1  1  0  0  0
 29 26  1  0  0  0  0
 31 29  1  0  0  0  0
 31 27  1  0  0  0  0
 33 32  1  0  0  0  0
M  END
>  <MODEL>
4

>  <REMARK>
 VINA RESULT:      -7.2      2.357      7.769
  Name = 
  6 active torsions:
  status: ('A' for Active; 'I' for Inactive)
    1  A    between atoms: C_4  and  C_31
    2  A    between atoms: C_8  and  C_31
    3  A    between atoms: C_12  and  O_24
    4  A    between atoms: C_13  and  C_20
    5  A    between atoms: C_15  and  C_17
    6  A    between atoms: N_27  and  C_29
                            x       y       z     vdW  Elec       q    Type
                         _______ _______ _______ _____ _____    ______ ____

>  <TORSDO>
F 6

$$$$
=
 OpenBabel11062418553D

 33 37  0  0  1  0  0  0  0  0999 V2000
  192.7530  176.6250  144.8470 C   0  0  0  0  0  2  0  0  0  0  0  0
  192.9270  175.7250  143.6150 C   0  0  1  0  0  3  0  0  0  0  0  0
  190.3950  176.3160  145.2660 O   0  0  0  0  0  0  0  0  0  0  0  0
  189.9140  175.1690  144.5880 C   0  0  1  0  0  3  0  0  0  0  0  0
  190.1790  173.8850  142.7490 C   0  0  0  0  0  0  0  0  0  0  0  0
  191.6790  176.0710  145.7930 C   0  0  2  0  0  3  0  0  0  0  0  0
  189.0650  173.9270  142.1230 N   0  0  0  0  0  0  0  0  0  0  0  0
  191.4190  173.3240  143.3440 O   0  0  0  0  0  0  0  0  0  0  0  0
  188.2500  174.9860  142.6700 C   0  0  0  0  0  3  0  0  0  0  0  0
  191.7270  175.5850  142.8910 O   0  0  0  0  0  0  0  0  0  0  0  0
  188.5880  175.5920  143.8560 C   0  0  0  0  0  0  0  0  0  0  0  0
  190.9880  174.6110  143.5790 C   0  0  2  0  0  0  0  0  0  0  0  0
  185.2630  177.7440  145.8290 C   0  0  0  0  0  3  0  0  0  0  0  0
  186.4340  178.5720  143.7980 C   0  0  0  0  0  3  0  0  0  0  0  0
  187.4000  176.4600  145.8410 C   0  0  0  0  0  3  0  0  0  0  0  0
  185.2670  178.3960  144.6680 C   0  0  0  0  0  0  0  0  0  0  0  0
  187.4960  177.7780  143.6990 C   0  0  0  0  0  3  0  0  0  0  0  0
  186.3490  176.9880  146.4680 C   0  0  0  0  0  0  0  0  0  0  0  0
  187.7110  176.5740  144.4440 N   0  0  0  0  0  0  0  0  0  0  0  0
  186.2310  176.7470  147.8300 O   0  0  0  0  0  1  0  0  0  0  0  0
  183.5350  178.6660  143.0860 O   0  0  0  0  0  1  0  0  0  0  0  0
  184.0320  179.1410  144.3000 C   0  0  0  0  0  2  0  0  0  0  0  0
  191.8090  176.5740  147.1060 O   0  0  0  0  0  0  0  0  0  0  0  0
  191.1940  175.6810  148.0010 C   0  0  0  0  0  1  0  0  0  0  0  0
  194.0040  176.2830  142.7010 C   0  0  0  0  0  2  0  0  0  0  0  0
  196.8320  174.0550  142.7140 C   0  0  0  0  0  0  0  0  0  0  0  0
  195.2860  175.5450  142.8880 C   0  0  0  0  0  0  0  0  0  0  0  0
  197.4470  173.0520  142.2660 O   0  0  0  0  0  0  0  0  0  0  0  0
  197.3260  174.9370  143.8020 C   0  0  1  0  0  3  0  0  0  0  0  0
  195.5760  174.4830  142.2140 N   0  0  0  0  0  0  0  0  0  0  0  0
  196.2510  175.9180  143.8730 N   0  0  0  0  0  2  0  0  0  0  0  0
  197.4010  174.1600  145.1070 C   0  0  0  0  0  2  0  0  0  0  0  0
  196.0590  174.1870  145.8110 C   0  0  0  0  0  1  0  0  0  0  0  0
  1  6  1  0  0  0  0
  2 25  1  6  0  0  0
  2  1  1  0  0  0  0
  3  6  1  0  0  0  0
  4 11  1  6  0  0  0
  4  3  1  0  0  0  0
  5  8  1  0  0  0  0
  6 23  1  1  0  0  0
  7  9  1  0  0  0  0
  7  5  2  0  0  0  0
  8 12  1  0  0  0  0
  9 11  2  0  0  0  0
 10 12  1  0  0  0  0
 10  2  1  0  0  0  0
 11 19  1  0  0  0  0
 12  5  1  6  0  0  0
 12  4  1  0  0  0  0
 13 18  1  0  0  0  0
 14 16  1  0  0  0  0
 15 18  2  0  0  0  0
 16 13  2  0  0  0  0
 17 14  2  0  0  0  0
 17 19  1  0  0  0  0
 18 20  1  0  0  0  0
 19 15  1  0  0  0  0
 21 22  1  0  0  0  0
 22 16  1  0  0  0  0
 23 24  1  0  0  0  0
 25 27  1  0  0  0  0
 26 29  1  0  0  0  0
 27 31  1  0  0  0  0
 28 26  2  0  0  0  0
 29 31  1  0  0  0  0
 29 32  1  1  0  0  0
 30 26  1  0  0  0  0
 30 27  2  0  0  0  0
 32 33  1  0  0  0  0
M  END
>  <MODEL>
5

>  <REMARK>
 VINA RESULT:      -7.1      2.852      7.741
  Name = 
  6 active torsions:
  status: ('A' for Active; 'I' for Inactive)
    1  A    between atoms: C_4  and  C_31
    2  A    between atoms: C_8  and  C_31
    3  A    between atoms: C_12  and  O_24
    4  A    between atoms: C_13  and  C_20
    5  A    between atoms: C_15  and  C_17
    6  A    between atoms: N_27  and  C_29
                            x       y       z     vdW  Elec       q    Type
                         _______ _______ _______ _____ _____    ______ ____

>  <TORSDO>
F 6

$$$$
=
 OpenBabel11062418553D

 33 37  0  0  1  0  0  0  0  0999 V2000
  190.6350  172.8610  143.1420 C   0  0  0  0  0  2  0  0  0  0  0  0
  191.9480  173.6120  143.4050 C   0  0  1  0  0  3  0  0  0  0  0  0
  189.1150  174.7270  142.9390 O   0  0  0  0  0  0  0  0  0  0  0  0
  189.8300  175.9300  142.7190 C   0  0  1  0  0  3  0  0  0  0  0  0
  191.7630  177.0160  143.1520 C   0  0  0  0  0  0  0  0  0  0  0  0
  189.7080  173.6670  142.2210 C   0  0  2  0  0  3  0  0  0  0  0  0
  191.4380  178.0810  143.7810 N   0  0  0  0  0  0  0  0  0  0  0  0
  192.4530  176.1320  142.1780 O   0  0  0  0  0  0  0  0  0  0  0  0
  190.0620  177.9830  144.2060 C   0  0  0  0  0  3  0  0  0  0  0  0
  191.7260  174.8710  143.9940 O   0  0  0  0  0  0  0  0  0  0  0  0
  189.2410  176.9990  143.7100 C   0  0  0  0  0  0  0  0  0  0  0  0
  191.3770  175.7210  142.9340 C   0  0  2  0  0  0  0  0  0  0  0  0
  184.9680  177.9330  144.3820 C   0  0  0  0  0  3  0  0  0  0  0  0
  186.4140  176.7930  146.0540 C   0  0  0  0  0  3  0  0  0  0  0  0
  186.8730  177.0960  143.0090 C   0  0  0  0  0  3  0  0  0  0  0  0
  185.3210  177.6800  145.6410 C   0  0  0  0  0  0  0  0  0  0  0  0
  187.5120  176.4890  145.3670 C   0  0  0  0  0  3  0  0  0  0  0  0
  185.6050  177.4860  143.1360 C   0  0  0  0  0  0  0  0  0  0  0  0
  187.8430  176.9770  144.0620 N   0  0  0  0  0  0  0  0  0  0  0  0
  184.8370  177.5420  141.9810 O   0  0  0  0  0  1  0  0  0  0  0  0
  185.2100  178.8620  147.6820 O   0  0  0  0  0  1  0  0  0  0  0  0
  184.4400  178.2110  146.7170 C   0  0  0  0  0  2  0  0  0  0  0  0
  188.7390  172.8570  141.5910 O   0  0  0  0  0  0  0  0  0  0  0  0
  188.8750  172.9810  140.1980 C   0  0  0  0  0  1  0  0  0  0  0  0
  192.8560  172.7890  144.3030 C   0  0  0  0  0  2  0  0  0  0  0  0
  196.0940  174.3400  144.0450 C   0  0  0  0  0  0  0  0  0  0  0  0
  194.1750  173.4620  144.4760 C   0  0  0  0  0  0  0  0  0  0  0  0
  197.0460  174.7970  143.3590 O   0  0  0  0  0  0  0  0  0  0  0  0
  196.0460  174.3320  145.5290 C   0  0  1  0  0  3  0  0  0  0  0  0
  194.9230  173.7840  143.4740 N   0  0  0  0  0  0  0  0  0  0  0  0
  194.7380  173.7350  145.7600 N   0  0  0  0  0  2  0  0  0  0  0  0
  197.1320  173.4210  146.0790 C   0  0  0  0  0  2  0  0  0  0  0  0
  196.7620  171.9680  145.8530 C   0  0  0  0  0  1  0  0  0  0  0  0
  1  2  1  0  0  0  0
  2 10  1  0  0  0  0
  2 25  1  1  0  0  0
  4 12  1  0  0  0  0
  4  3  1  1  0  0  0
  4 11  1  0  0  0  0
  5  7  2  0  0  0  0
  6 23  1  1  0  0  0
  6  3  1  0  0  0  0
  6  1  1  0  0  0  0
  7  9  1  0  0  0  0
  8  5  1  0  0  0  0
 11 19  1  0  0  0  0
 11  9  2  0  0  0  0
 12  8  1  6  0  0  0
 12  5  1  0  0  0  0
 12 10  1  0  0  0  0
 13 16  2  0  0  0  0
 15 18  2  0  0  0  0
 15 19  1  0  0  0  0
 16 14  1  0  0  0  0
 16 22  1  0  0  0  0
 17 14  2  0  0  0  0
 18 13  1  0  0  0  0
 19 17  1  0  0  0  0
 20 18  1  0  0  0  0
 22 21  1  0  0  0  0
 24 23  1  0  0  0  0
 25 27  1  0  0  0  0
 26 29  1  0  0  0  0
 27 31  1  0  0  0  0
 28 26  2  0  0  0  0
 29 31  1  0  0  0  0
 29 32  1  1  0  0  0
 30 26  1  0  0  0  0
 30 27  2  0  0  0  0
 33 32  1  0  0  0  0
M  END
>  <MODEL>
6

>  <REMARK>
 VINA RESULT:      -7.1      2.440      7.788
  Name = 
  6 active torsions:
  status: ('A' for Active; 'I' for Inactive)
    1  A    between atoms: C_4  and  C_31
    2  A    between atoms: C_8  and  C_31
    3  A    between atoms: C_12  and  O_24
    4  A    between atoms: C_13  and  C_20
    5  A    between atoms: C_15  and  C_17
    6  A    between atoms: N_27  and  C_29
                            x       y       z     vdW  Elec       q    Type
                         _______ _______ _______ _____ _____    ______ ____

>  <TORSDO>
F 6

$$$$
=
 OpenBabel11062418553D

 33 37  0  0  1  0  0  0  0  0999 V2000
  190.8900  176.3760  146.0610 C   0  0  0  0  0  2  0  0  0  0  0  0
  189.5970  176.2340  145.2460 C   0  0  1  0  0  3  0  0  0  0  0  0
  192.3910  175.0580  144.7050 O   0  0  0  0  0  0  0  0  0  0  0  0
  191.8500  174.8580  143.4120 C   0  0  1  0  0  3  0  0  0  0  0  0
  189.9270  174.6220  142.2490 C   0  0  0  0  0  0  0  0  0  0  0  0
  192.1260  176.3690  145.1500 C   0  0  2  0  0  3  0  0  0  0  0  0
  189.9850  173.4700  141.6980 N   0  0  0  0  0  0  0  0  0  0  0  0
  189.6800  176.0780  142.4030 O   0  0  0  0  0  0  0  0  0  0  0  0
  191.0660  172.7140  142.2860 C   0  0  0  0  0  3  0  0  0  0  0  0
  189.5800  175.0480  144.4860 O   0  0  0  0  0  0  0  0  0  0  0  0
  192.0010  173.3280  143.0840 C   0  0  0  0  0  0  0  0  0  0  0  0
  190.3470  175.3260  143.3450 C   0  0  2  0  0  0  0  0  0  0  0  0
  194.8690  170.9750  145.4960 C   0  0  0  0  0  3  0  0  0  0  0  0
  195.5190  172.9050  144.0690 C   0  0  0  0  0  3  0  0  0  0  0  0
  192.9370  171.2060  143.9390 C   0  0  0  0  0  3  0  0  0  0  0  0
  195.6370  172.0330  145.2420 C   0  0  0  0  0  0  0  0  0  0  0  0
  194.4290  173.1450  143.3460 C   0  0  0  0  0  3  0  0  0  0  0  0
  193.7020  170.4810  144.7540 C   0  0  0  0  0  0  0  0  0  0  0  0
  193.1320  172.5830  143.5780 N   0  0  0  0  0  0  0  0  0  0  0  0
  193.3260  169.1640  144.9770 O   0  0  0  0  0  1  0  0  0  0  0  0
  196.8810  173.6030  146.4920 O   0  0  0  0  0  1  0  0  0  0  0  0
  196.8080  172.2570  146.1340 C   0  0  0  0  0  2  0  0  0  0  0  0
  193.2540  176.9490  145.7700 O   0  0  0  0  0  0  0  0  0  0  0  0
  193.9410  175.9560  146.4890 C   0  0  0  0  0  1  0  0  0  0  0  0
  188.3870  176.2600  146.1640 C   0  0  0  0  0  2  0  0  0  0  0  0
  186.1470  178.3920  144.3220 C   0  0  0  0  0  0  0  0  0  0  0  0
  187.2560  176.9900  145.5240 C   0  0  0  0  0  0  0  0  0  0  0  0
  185.9340  179.2860  143.4620 O   0  0  0  0  0  0  0  0  0  0  0  0
  185.0920  177.7050  145.1100 C   0  0  1  0  0  3  0  0  0  0  0  0
  187.4420  177.9100  144.6380 N   0  0  0  0  0  0  0  0  0  0  0  0
  185.8940  176.7760  145.8950 N   0  0  0  0  0  2  0  0  0  0  0  0
  184.4030  178.6980  146.0320 C   0  0  0  0  0  2  0  0  0  0  0  0
  185.2610  178.9610  147.2550 C   0  0  0  0  0  1  0  0  0  0  0  0
  2  1  1  0  0  0  0
  2 25  1  1  0  0  0
  3  6  1  0  0  0  0
  4 11  1  1  0  0  0
  4  3  1  0  0  0  0
  5  8  1  0  0  0  0
  6 23  1  1  0  0  0
  6  1  1  0  0  0  0
  7  5  2  0  0  0  0
  7  9  1  0  0  0  0
  8 12  1  0  0  0  0
  9 11  2  0  0  0  0
 10  2  1  0  0  0  0
 11 19  1  0  0  0  0
 12  5  1  6  0  0  0
 12  4  1  0  0  0  0
 12 10  1  0  0  0  0
 14 16  1  0  0  0  0
 15 18  2  0  0  0  0
 16 13  2  0  0  0  0
 16 22  1  0  0  0  0
 17 19  1  0  0  0  0
 17 14  2  0  0  0  0
 18 20  1  0  0  0  0
 18 13  1  0  0  0  0
 19 15  1  0  0  0  0
 22 21  1  0  0  0  0
 23 24  1  0  0  0  0
 26 30  1  0  0  0  0
 26 29  1  0  0  0  0
 27 31  1  0  0  0  0
 27 25  1  0  0  0  0
 28 26  2  0  0  0  0
 29 31  1  0  0  0  0
 29 32  1  1  0  0  0
 30 27  2  0  0  0  0
 32 33  1  0  0  0  0
M  END
>  <MODEL>
7

>  <REMARK>
 VINA RESULT:      -7.1      2.568      3.681
  Name = 
  6 active torsions:
  status: ('A' for Active; 'I' for Inactive)
    1  A    between atoms: C_4  and  C_31
    2  A    between atoms: C_8  and  C_31
    3  A    between atoms: C_12  and  O_24
    4  A    between atoms: C_13  and  C_20
    5  A    between atoms: C_15  and  C_17
    6  A    between atoms: N_27  and  C_29
                            x       y       z     vdW  Elec       q    Type
                         _______ _______ _______ _____ _____    ______ ____

>  <TORSDO>
F 6

$$$$
=
 OpenBabel11062418553D

 33 37  0  0  1  0  0  0  0  0999 V2000
  191.1500  175.9890  146.9840 C   0  0  0  0  0  2  0  0  0  0  0  0
  190.0260  175.5890  146.0180 C   0  0  1  0  0  3  0  0  0  0  0  0
  193.0480  175.0250  145.8450 O   0  0  0  0  0  0  0  0  0  0  0  0
  192.7240  174.7310  144.4980 C   0  0  1  0  0  3  0  0  0  0  0  0
  191.0520  174.1130  143.1110 C   0  0  0  0  0  0  0  0  0  0  0  0
  192.4630  176.2480  146.2330 C   0  0  2  0  0  3  0  0  0  0  0  0
  191.4160  173.0030  142.5890 N   0  0  0  0  0  0  0  0  0  0  0  0
  190.4910  175.4840  143.2100 O   0  0  0  0  0  0  0  0  0  0  0  0
  192.5490  172.4820  143.3170 C   0  0  0  0  0  3  0  0  0  0  0  0
  190.3500  174.4340  145.2810 O   0  0  0  0  0  0  0  0  0  0  0  0
  193.2300  173.2690  144.2150 C   0  0  0  0  0  0  0  0  0  0  0  0
  191.1770  174.8770  144.2390 C   0  0  2  0  0  0  0  0  0  0  0  0
  197.2870  171.7900  145.1790 C   0  0  0  0  0  3  0  0  0  0  0  0
  195.1990  170.7910  146.0880 C   0  0  0  0  0  3  0  0  0  0  0  0
  195.5990  173.5920  144.8370 C   0  0  0  0  0  3  0  0  0  0  0  0
  196.5830  170.7430  145.6040 C   0  0  0  0  0  0  0  0  0  0  0  0
  194.2590  171.6720  145.7610 C   0  0  0  0  0  3  0  0  0  0  0  0
  196.8570  173.1840  145.0040 C   0  0  0  0  0  0  0  0  0  0  0  0
  194.4210  172.7710  144.8560 N   0  0  0  0  0  0  0  0  0  0  0  0
  197.8540  174.1470  144.9380 O   0  0  0  0  0  1  0  0  0  0  0  0
  196.9850  168.8650  146.9780 O   0  0  0  0  0  1  0  0  0  0  0  0
  197.3050  169.4500  145.7520 C   0  0  0  0  0  2  0  0  0  0  0  0
  193.3600  177.0430  146.9780 O   0  0  0  0  0  0  0  0  0  0  0  0
  194.5640  177.1660  146.2630 C   0  0  0  0  0  1  0  0  0  0  0  0
  188.7320  175.3530  146.7800 C   0  0  0  0  0  2  0  0  0  0  0  0
  186.0330  177.7320  146.6750 C   0  0  0  0  0  0  0  0  0  0  0  0
  187.7700  176.4650  146.5380 C   0  0  0  0  0  0  0  0  0  0  0  0
  184.9530  178.1940  147.1280 O   0  0  0  0  0  0  0  0  0  0  0  0
  186.7700  178.2850  145.5110 C   0  0  1  0  0  3  0  0  0  0  0  0
  186.6980  176.6160  147.2420 N   0  0  0  0  0  0  0  0  0  0  0  0
  187.9250  177.3990  145.4690 N   0  0  0  0  0  2  0  0  0  0  0  0
  185.9450  178.1180  144.2450 C   0  0  0  0  0  2  0  0  0  0  0  0
  185.2520  179.4200  143.8950 C   0  0  0  0  0  1  0  0  0  0  0  0
  2 25  1  1  0  0  0
  2  1  1  0  0  0  0
  3  6  1  0  0  0  0
  4 11  1  1  0  0  0
  4  3  1  0  0  0  0
  5  8  1  0  0  0  0
  6 23  1  1  0  0  0
  6  1  1  0  0  0  0
  7  5  2  0  0  0  0
  7  9  1  0  0  0  0
  8 12  1  0  0  0  0
  9 11  2  0  0  0  0
 10  2  1  0  0  0  0
 11 19  1  0  0  0  0
 12  5  1  6  0  0  0
 12  4  1  0  0  0  0
 12 10  1  0  0  0  0
 13 16  2  0  0  0  0
 15 19  1  0  0  0  0
 15 18  2  0  0  0  0
 16 22  1  0  0  0  0
 16 14  1  0  0  0  0
 17 14  2  0  0  0  0
 18 13  1  0  0  0  0
 19 17  1  0  0  0  0
 20 18  1  0  0  0  0
 22 21  1  0  0  0  0
 24 23  1  0  0  0  0
 26 28  2  0  0  0  0
 26 30  1  0  0  0  0
 27 25  1  0  0  0  0
 27 30  2  0  0  0  0
 29 32  1  6  0  0  0
 29 26  1  0  0  0  0
 31 29  1  0  0  0  0
 31 27  1  0  0  0  0
 33 32  1  0  0  0  0
M  END
>  <MODEL>
8

>  <REMARK>
 VINA RESULT:      -7.0      3.029      4.801
  Name = 
  6 active torsions:
  status: ('A' for Active; 'I' for Inactive)
    1  A    between atoms: C_4  and  C_31
    2  A    between atoms: C_8  and  C_31
    3  A    between atoms: C_12  and  O_24
    4  A    between atoms: C_13  and  C_20
    5  A    between atoms: C_15  and  C_17
    6  A    between atoms: N_27  and  C_29
                            x       y       z     vdW  Elec       q    Type
                         _______ _______ _______ _____ _____    ______ ____

>  <TORSDO>
F 6

$$$$
=
 OpenBabel11062418553D

 33 37  0  0  1  0  0  0  0  0999 V2000
  191.2300  177.1650  145.7260 C   0  0  0  0  0  2  0  0  0  0  0  0
  192.2370  176.1950  145.0920 C   0  0  1  0  0  3  0  0  0  0  0  0
  189.1830  176.3570  144.7310 O   0  0  0  0  0  0  0  0  0  0  0  0
  189.3680  175.0580  144.1960 C   0  0  1  0  0  3  0  0  0  0  0  0
  190.8700  173.6690  143.2380 C   0  0  0  0  0  0  0  0  0  0  0  0
  189.8720  176.4850  145.9540 C   0  0  2  0  0  3  0  0  0  0  0  0
  190.3960  173.3740  142.0880 N   0  0  0  0  0  0  0  0  0  0  0  0
  191.5180  173.4910  144.5620 O   0  0  0  0  0  0  0  0  0  0  0  0
  189.3030  174.2660  141.7780 C   0  0  0  0  0  3  0  0  0  0  0  0
  191.7810  175.6930  143.8580 O   0  0  0  0  0  0  0  0  0  0  0  0
  188.7530  175.0680  142.7490 C   0  0  0  0  0  0  0  0  0  0  0  0
  190.8920  174.6580  144.1840 C   0  0  2  0  0  0  0  0  0  0  0  0
  185.9500  178.3020  141.6270 C   0  0  0  0  0  3  0  0  0  0  0  0
  185.6110  176.7910  143.5730 C   0  0  0  0  0  3  0  0  0  0  0  0
  187.4370  176.3690  141.1120 C   0  0  0  0  0  3  0  0  0  0  0  0
  185.5090  178.0700  142.8620 C   0  0  0  0  0  0  0  0  0  0  0  0
  186.5200  175.8370  143.3950 C   0  0  0  0  0  3  0  0  0  0  0  0
  186.7000  177.4120  140.7310 C   0  0  0  0  0  0  0  0  0  0  0  0
  187.5970  175.8750  142.4510 N   0  0  0  0  0  0  0  0  0  0  0  0
  186.6920  177.7280  139.3800 O   0  0  0  0  0  1  0  0  0  0  0  0
  185.5570  180.1150  144.0410 O   0  0  0  0  0  1  0  0  0  0  0  0
  184.7070  179.1420  143.5140 C   0  0  0  0  0  2  0  0  0  0  0  0
  189.0930  177.1530  146.9240 O   0  0  0  0  0  0  0  0  0  0  0  0
  187.7330  176.9770  146.6190 C   0  0  0  0  0  1  0  0  0  0  0  0
  193.5770  176.8830  144.8900 C   0  0  0  0  0  2  0  0  0  0  0  0
  196.5250  174.8470  144.5350 C   0  0  0  0  0  0  0  0  0  0  0  0
  194.6910  175.8950  144.9590 C   0  0  0  0  0  0  0  0  0  0  0  0
  197.6500  174.6170  144.0180 O   0  0  0  0  0  0  0  0  0  0  0  0
  195.8660  173.9870  145.5490 C   0  0  1  0  0  3  0  0  0  0  0  0
  195.7430  175.9860  144.2170 N   0  0  0  0  0  0  0  0  0  0  0  0
  194.6430  174.7390  145.7980 N   0  0  0  0  0  2  0  0  0  0  0  0
  195.5250  172.6360  144.9430 C   0  0  0  0  0  2  0  0  0  0  0  0
  194.4450  171.9520  145.7600 C   0  0  0  0  0  1  0  0  0  0  0  0
  1  6  1  0  0  0  0
  2 25  1  6  0  0  0
  2  1  1  0  0  0  0
  3  6  1  0  0  0  0
  4 11  1  6  0  0  0
  4  3  1  0  0  0  0
  5  8  1  0  0  0  0
  6 23  1  1  0  0  0
  7  5  2  0  0  0  0
  9  7  1  0  0  0  0
  9 11  2  0  0  0  0
 10 12  1  0  0  0  0
 10  2  1  0  0  0  0
 12  5  1  6  0  0  0
 12  4  1  0  0  0  0
 12  8  1  0  0  0  0
 13 16  2  0  0  0  0
 15 19  1  0  0  0  0
 16 22  1  0  0  0  0
 16 14  1  0  0  0  0
 17 14  2  0  0  0  0
 18 15  2  0  0  0  0
 18 13  1  0  0  0  0
 19 11  1  0  0  0  0
 19 17  1  0  0  0  0
 20 18  1  0  0  0  0
 22 21  1  0  0  0  0
 24 23  1  0  0  0  0
 25 27  1  0  0  0  0
 26 29  1  0  0  0  0
 27 31  1  0  0  0  0
 28 26  2  0  0  0  0
 29 32  1  6  0  0  0
 29 31  1  0  0  0  0
 30 26  1  0  0  0  0
 30 27  2  0  0  0  0
 32 33  1  0  0  0  0
M  END
>  <MODEL>
9

>  <REMARK>
 VINA RESULT:      -7.0      2.447      7.638
  Name = 
  6 active torsions:
  status: ('A' for Active; 'I' for Inactive)
    1  A    between atoms: C_4  and  C_31
    2  A    between atoms: C_8  and  C_31
    3  A    between atoms: C_12  and  O_24
    4  A    between atoms: C_13  and  C_20
    5  A    between atoms: C_15  and  C_17
    6  A    between atoms: N_27  and  C_29
                            x       y       z     vdW  Elec       q    Type
                         _______ _______ _______ _____ _____    ______ ____

>  <TORSDO>
F 6

$$$$
