=
 OpenBabel11062419463D

 46 50  0  0  1  0  0  0  0  0999 V2000
  186.6170  177.5110  142.8500 C   0  0  0  0  0  0  0  0  0  0  0  0
  185.5230  176.9680  142.8460 O   0  0  0  0  0  0  0  0  0  0  0  0
  187.6670  177.4070  141.4030 S   0  0  0  0  0  0  0  0  0  0  0  0
  189.2060  174.0120  141.9710 N   0  0  0  0  0  0  0  0  0  0  0  0
  188.1820  175.0880  140.1980 O   0  0  0  0  0  0  0  0  0  0  0  0
  187.5370  175.5960  141.3590 C   0  0  1  0  0  3  0  0  0  0  0  0
  189.8710  173.5560  139.7580 O   0  0  0  0  0  0  0  0  0  0  0  0
  188.2920  174.9840  142.5570 C   0  0  0  0  0  2  0  0  0  0  0  0
  189.1320  174.1690  140.5720 C   0  0  0  0  0  0  0  0  0  0  0  0
  190.2930  173.3370  142.6720 C   0  0  2  0  0  3  0  0  0  0  0  0
  189.7920  172.6470  143.9060 C   0  0  0  0  0  0  0  0  0  0  0  0
  188.9940  171.6760  143.8210 O   0  0  0  0  0  0  0  0  0  0  0  0
  190.2330  173.0660  145.1530 O   0  0  0  0  0  1  0  0  0  0  0  0
  191.4230  174.3170  142.9770 C   0  0  0  0  0  2  0  0  0  0  0  0
  193.3610  171.9990  143.7200 C   0  0  0  0  0  3  0  0  0  0  0  0
  194.9260  173.3060  140.6630 C   0  0  0  0  0  0  0  0  0  0  0  0
  192.9690  174.7130  141.0310 C   0  0  0  0  0  3  0  0  0  0  0  0
  193.4820  172.9180  142.5570 C   0  0  0  0  0  0  0  0  0  0  0  0
  192.6470  173.9830  142.1890 C   0  0  0  0  0  0  0  0  0  0  0  0
  194.1040  174.3770  140.2720 C   0  0  0  0  0  3  0  0  0  0  0  0
  195.2810  171.4900  142.3550 N   0  0  0  0  0  0  0  0  0  0  0  0
  196.1260  172.9490  139.8580 C   0  0  0  0  0  1  0  0  0  0  0  0
  194.5700  171.0560  143.5570 C   0  0  0  0  0  2  0  0  0  0  0  0
  194.5830  172.5940  141.8160 C   0  0  0  0  0  0  0  0  0  0  0  0
  187.0820  178.2930  144.0430 C   0  0  2  0  0  3  0  0  0  0  0  0
  191.2470  176.6450  145.6910 N   0  0  0  0  0  0  0  0  0  0  0  0
  189.1370  177.2950  145.0430 C   0  0  0  0  0  0  0  0  0  0  0  0
  192.3190  176.0430  146.4250 C   0  0  0  0  0  0  0  0  0  0  0  0
  187.8070  177.4220  145.0310 C   0  0  0  0  0  2  0  0  0  0  0  0
  190.0690  177.9590  144.0840 C   0  0  0  0  0  3  0  0  0  0  0  0
  192.0700  175.3620  147.4560 O   0  0  0  0  0  0  0  0  0  0  0  0
  189.8500  176.4640  146.0400 C   0  0  0  0  0  3  0  0  0  0  0  0
  191.4520  177.5030  144.5290 C   0  0  0  0  0  3  0  0  0  0  0  0
  193.7370  176.1930  145.9550 C   0  0  1  0  0  3  0  0  0  0  0  0
  194.4770  176.9990  146.8250 O   0  0  0  0  0  1  0  0  0  0  0  0
  194.4230  174.8440  145.7320 C   0  0  0  0  0  2  0  0  0  0  0  0
  197.5260  173.3720  144.4210 C   0  0  0  0  0  3  0  0  0  0  0  0
  195.6540  174.9390  144.8810 C   0  0  0  0  0  0  0  0  0  0  0  0
  196.7950  173.7660  146.6200 F   0  0  0  0  0  0  0  0  0  0  0  0
  197.8880  173.6880  143.1780 C   0  0  0  0  0  3  0  0  0  0  0  0
  196.9490  174.3620  145.3770 C   0  0  1  0  0  3  0  0  0  0  0  0
  196.7050  175.8720  142.8030 C   0  0  0  0  0  3  0  0  0  0  0  0
  197.6910  175.0050  142.5420 C   0  0  0  0  0  3  0  0  0  0  0  0
  195.6060  175.6840  143.7710 C   0  0  0  0  0  3  0  0  0  0  0  0
  185.9330  179.0640  144.6950 C   0  0  0  0  0  2  0  0  0  0  0  0
  185.8080  178.7380  146.1080 N   0  0  0  0  0  1  0  0  0  0  0  0
  1 25  1  0  0  0  0
  2  1  2  0  0  0  0
  3  1  1  0  0  0  0
  4  8  1  0  0  0  0
  4 10  1  0  0  0  0
  5  9  1  0  0  0  0
  5  6  1  0  0  0  0
  6  3  1  1  0  0  0
  6  8  1  0  0  0  0
  7  9  2  0  0  0  0
  9  4  1  0  0  0  0
 10 14  1  1  0  0  0
 10 11  1  0  0  0  0
 11 13  1  0  0  0  0
 12 11  2  0  0  0  0
 16 24  1  0  0  0  0
 17 19  2  0  0  0  0
 18 15  2  0  0  0  0
 19 18  1  0  0  0  0
 19 14  1  0  0  0  0
 20 16  2  0  0  0  0
 20 17  1  0  0  0  0
 21 23  1  0  0  0  0
 22 16  1  0  0  0  0
 23 15  1  0  0  0  0
 24 21  2  0  0  0  0
 24 18  1  0  0  0  0
 25 45  1  1  0  0  0
 25 29  1  0  0  0  0
 26 32  1  0  0  0  0
 26 28  1  0  0  0  0
 27 32  2  0  0  0  0
 28 31  2  0  0  0  0
 29 27  1  0  0  0  0
 30 33  2  0  0  0  0
 30 27  1  0  0  0  0
 33 26  1  0  0  0  0
 34 28  1  0  0  0  0
 34 35  1  1  0  0  0
 36 34  1  0  0  0  0
 37 41  1  0  0  0  0
 38 41  1  0  0  0  0
 38 36  1  0  0  0  0
 40 37  2  0  0  0  0
 41 39  1  1  0  0  0
 42 44  1  0  0  0  0
 43 42  2  0  0  0  0
 43 40  1  0  0  0  0
 44 38  2  0  0  0  0
 45 46  1  0  0  0  0
M  END
>  <MODEL>
1

>  <REMARK>
 VINA RESULT:      -7.1      0.000      0.000
  Name = 
  12 active torsions:
  status: ('A' for Active; 'I' for Inactive)
    1  A    between atoms: C_2  and  C_37
    2  A    between atoms: C_4  and  C_17
    3  A    between atoms: N_5  and  C_37
    4  A    between atoms: C_7  and  C_25
    5  A    between atoms: C_7  and  C_37
    6  A    between atoms: C_11  and  S_15
    7  A    between atoms: C_12  and  C_19
    8  A    between atoms: C_13  and  C_21
    9  A    between atoms: S_15  and  C_33
   10  A    between atoms: C_17  and  C_21
   11  A    between atoms: C_19  and  C_28
   12  A    between atoms: C_19  and  C_33
                            x       y       z     vdW  Elec       q    Type
                         _______ _______ _______ _____ _____    ______ ____

>  <TORSDO>
F 12

$$$$
=
 OpenBabel11062419463D

 46 50  0  0  1  0  0  0  0  0999 V2000
  186.7090  177.3920  142.8460 C   0  0  0  0  0  0  0  0  0  0  0  0
  185.6510  176.7860  142.9250 O   0  0  0  0  0  0  0  0  0  0  0  0
  187.6890  177.2780  141.3510 S   0  0  0  0  0  0  0  0  0  0  0  0
  189.4350  173.9850  141.9240 N   0  0  0  0  0  0  0  0  0  0  0  0
  188.2270  174.9380  140.1960 O   0  0  0  0  0  0  0  0  0  0  0  0
  187.6470  175.4630  141.3840 C   0  0  1  0  0  3  0  0  0  0  0  0
  189.9520  173.4700  139.6840 O   0  0  0  0  0  0  0  0  0  0  0  0
  188.5200  174.9360  142.5420 C   0  0  0  0  0  2  0  0  0  0  0  0
  189.2470  174.0810  140.5310 C   0  0  0  0  0  0  0  0  0  0  0  0
  190.6040  173.3910  142.5630 C   0  0  2  0  0  3  0  0  0  0  0  0
  190.2560  172.8350  143.9130 C   0  0  0  0  0  0  0  0  0  0  0  0
  190.8310  173.2580  144.9500 O   0  0  0  0  0  1  0  0  0  0  0  0
  189.2710  171.8630  144.0200 O   0  0  0  0  0  0  0  0  0  0  0  0
  191.7460  174.4010  142.6320 C   0  0  0  0  0  2  0  0  0  0  0  0
  194.1660  176.2060  141.8790 C   0  0  0  0  0  3  0  0  0  0  0  0
  195.2290  172.9590  140.5250 C   0  0  2  0  0  3  0  0  0  0  0  0
  193.0290  172.5580  141.4960 C   0  0  0  0  0  3  0  0  0  0  0  0
  194.0130  174.7570  141.5790 C   0  0  0  0  0  0  0  0  0  0  0  0
  192.9410  173.9070  141.8820 C   0  0  0  0  0  0  0  0  0  0  0  0
  194.1680  172.0870  140.8180 C   0  0  0  0  0  3  0  0  0  0  0  0
  196.0810  175.3090  140.7210 N   0  0  0  0  0  0  0  0  0  0  0  0
  196.4360  172.4600  139.8100 C   0  0  0  0  0  1  0  0  0  0  0  0
  195.5550  176.5450  141.3000 C   0  0  0  0  0  3  0  0  0  0  0  0
  195.1180  174.2950  140.9220 C   0  0  0  0  0  0  0  0  0  0  0  0
  187.1860  178.2580  143.9750 C   0  0  2  0  0  3  0  0  0  0  0  0
  191.4710  176.7910  145.4760 N   0  0  0  0  0  0  0  0  0  0  0  0
  189.3150  177.3640  144.9150 C   0  0  0  0  0  0  0  0  0  0  0  0
  192.5970  176.2610  146.1850 C   0  0  0  0  0  0  0  0  0  0  0  0
  187.9850  177.4740  144.9770 C   0  0  0  0  0  2  0  0  0  0  0  0
  190.1740  177.9630  143.8520 C   0  0  0  0  0  3  0  0  0  0  0  0
  192.4240  175.6580  147.2780 O   0  0  0  0  0  0  0  0  0  0  0  0
  190.1020  176.6210  145.9260 C   0  0  0  0  0  3  0  0  0  0  0  0
  191.5890  177.5590  144.2420 C   0  0  0  0  0  3  0  0  0  0  0  0
  193.9810  176.3900  145.6160 C   0  0  1  0  0  3  0  0  0  0  0  0
  194.4650  177.6930  145.7550 O   0  0  0  0  0  1  0  0  0  0  0  0
  194.9530  175.3710  146.2110 C   0  0  0  0  0  2  0  0  0  0  0  0
  197.1640  173.0790  144.3740 C   0  0  0  0  0  3  0  0  0  0  0  0
  195.1500  174.1630  145.3430 C   0  0  0  0  0  0  0  0  0  0  0  0
  196.8530  175.4040  144.2200 F   0  0  0  0  0  0  0  0  0  0  0  0
  196.8190  171.7920  144.3180 C   0  0  0  0  0  3  0  0  0  0  0  0
  196.1780  174.1920  144.2480 C   0  0  1  0  0  3  0  0  0  0  0  0
  194.3400  171.8750  144.7120 C   0  0  0  0  0  3  0  0  0  0  0  0
  195.4370  171.2850  144.2210 C   0  0  0  0  0  3  0  0  0  0  0  0
  194.2880  173.1470  145.4590 C   0  0  0  0  0  3  0  0  0  0  0  0
  186.0300  179.0160  144.6290 C   0  0  0  0  0  2  0  0  0  0  0  0
  185.8710  178.6400  146.0260 N   0  0  0  0  0  1  0  0  0  0  0  0
  1  2  2  0  0  0  0
  1 25  1  0  0  0  0
  3  1  1  0  0  0  0
  4  8  1  0  0  0  0
  4 10  1  0  0  0  0
  5  9  1  0  0  0  0
  5  6  1  0  0  0  0
  6  3  1  6  0  0  0
  6  8  1  0  0  0  0
  7  9  2  0  0  0  0
  9  4  1  0  0  0  0
 10 14  1  1  0  0  0
 10 11  1  0  0  0  0
 11 13  2  0  0  0  0
 11 12  1  0  0  0  0
 16 22  1  1  0  0  0
 16 20  1  0  0  0  0
 16 24  1  0  0  0  0
 17 19  1  0  0  0  0
 18 15  1  0  0  0  0
 18 19  2  0  0  0  0
 19 14  1  0  0  0  0
 20 17  2  0  0  0  0
 21 24  2  0  0  0  0
 21 23  1  0  0  0  0
 23 15  2  0  0  0  0
 24 18  1  0  0  0  0
 25 45  1  1  0  0  0
 25 29  1  0  0  0  0
 26 32  1  0  0  0  0
 26 28  1  0  0  0  0
 27 29  1  0  0  0  0
 27 32  2  0  0  0  0
 28 31  2  0  0  0  0
 30 33  2  0  0  0  0
 30 27  1  0  0  0  0
 33 26  1  0  0  0  0
 34 35  1  1  0  0  0
 34 28  1  0  0  0  0
 34 36  1  0  0  0  0
 38 44  2  0  0  0  0
 38 36  1  0  0  0  0
 40 37  2  0  0  0  0
 41 39  1  1  0  0  0
 41 37  1  0  0  0  0
 41 38  1  0  0  0  0
 42 44  1  0  0  0  0
 43 40  1  0  0  0  0
 43 42  2  0  0  0  0
 45 46  1  0  0  0  0
M  END
>  <MODEL>
2

>  <REMARK>
 VINA RESULT:      -6.9      1.135      2.014
  Name = 
  12 active torsions:
  status: ('A' for Active; 'I' for Inactive)
    1  A    between atoms: C_2  and  C_37
    2  A    between atoms: C_4  and  C_17
    3  A    between atoms: N_5  and  C_37
    4  A    between atoms: C_7  and  C_25
    5  A    between atoms: C_7  and  C_37
    6  A    between atoms: C_11  and  S_15
    7  A    between atoms: C_12  and  C_19
    8  A    between atoms: C_13  and  C_21
    9  A    between atoms: S_15  and  C_33
   10  A    between atoms: C_17  and  C_21
   11  A    between atoms: C_19  and  C_28
   12  A    between atoms: C_19  and  C_33
                            x       y       z     vdW  Elec       q    Type
                         _______ _______ _______ _____ _____    ______ ____

>  <TORSDO>
F 12

$$$$
=
 OpenBabel11062419463D

 46 50  0  0  1  0  0  0  0  0999 V2000
  192.4220  172.4040  138.6230 C   0  0  0  0  0  0  0  0  0  0  0  0
  193.2510  171.5970  138.2290 O   0  0  0  0  0  0  0  0  0  0  0  0
  192.7520  174.1590  138.4790 S   0  0  0  0  0  0  0  0  0  0  0  0
  194.8830  174.5370  141.5670 N   0  0  0  0  0  0  0  0  0  0  0  0
  195.0100  175.2540  139.3710 O   0  0  0  0  0  0  0  0  0  0  0  0
  194.3580  173.9920  139.3090 C   0  0  1  0  0  3  0  0  0  0  0  0
  195.8890  176.6020  141.0450 O   0  0  0  0  0  0  0  0  0  0  0  0
  194.1520  173.5560  140.7750 C   0  0  0  0  0  2  0  0  0  0  0  0
  195.3140  175.5430  140.6790 C   0  0  0  0  0  0  0  0  0  0  0  0
  194.8040  174.6900  143.0150 C   0  0  2  0  0  3  0  0  0  0  0  0
  196.0780  174.2500  143.6740 C   0  0  0  0  0  0  0  0  0  0  0  0
  196.6100  174.9480  144.5760 O   0  0  0  0  0  1  0  0  0  0  0  0
  196.6620  173.0460  143.3020 O   0  0  0  0  0  0  0  0  0  0  0  0
  193.5850  173.9530  143.5650 C   0  0  0  0  0  2  0  0  0  0  0  0
  192.0360  176.5840  142.9680 C   0  0  0  0  0  3  0  0  0  0  0  0
  191.5510  176.2600  146.5970 C   0  0  0  0  0  0  0  0  0  0  0  0
  192.9140  174.3410  145.9600 C   0  0  0  0  0  3  0  0  0  0  0  0
  192.2030  175.9350  144.2960 C   0  0  1  0  0  3  0  0  0  0  0  0
  192.9020  174.7630  144.6180 C   0  0  0  0  0  0  0  0  0  0  0  0
  192.2430  175.0880  146.9450 C   0  0  0  0  0  3  0  0  0  0  0  0
  190.9080  177.7950  144.7210 N   0  0  0  0  0  0  0  0  0  0  0  0
  190.8390  177.0480  147.6390 C   0  0  0  0  0  1  0  0  0  0  0  0
  191.1650  177.8170  143.2810 C   0  0  0  0  0  3  0  0  0  0  0  0
  191.5510  176.6570  145.2560 C   0  0  0  0  0  0  0  0  0  0  0  0
  191.1150  171.9450  139.2000 C   0  0  2  0  0  3  0  0  0  0  0  0
  188.7240  174.8560  142.1290 N   0  0  0  0  0  0  0  0  0  0  0  0
  190.0110  173.4020  140.8960 C   0  0  0  0  0  0  0  0  0  0  0  0
  188.1510  175.5630  143.2360 C   0  0  0  0  0  0  0  0  0  0  0  0
  190.9130  172.4620  140.5970 C   0  0  0  0  0  2  0  0  0  0  0  0
  189.1200  174.0780  139.9080 C   0  0  0  0  0  3  0  0  0  0  0  0
  188.5350  175.3100  144.4090 O   0  0  0  0  0  0  0  0  0  0  0  0
  189.7900  173.8820  142.2790 C   0  0  0  0  0  3  0  0  0  0  0  0
  188.2910  175.0400  140.7490 C   0  0  0  0  0  3  0  0  0  0  0  0
  187.1180  176.6270  143.0020 C   0  0  1  0  0  3  0  0  0  0  0  0
  185.8610  176.2210  143.4550 O   0  0  0  0  0  1  0  0  0  0  0  0
  187.5190  177.9720  143.6110 C   0  0  0  0  0  2  0  0  0  0  0  0
  184.2910  178.8830  145.1170 C   0  0  0  0  0  3  0  0  0  0  0  0
  186.6970  178.3480  144.8090 C   0  0  0  0  0  0  0  0  0  0  0  0
  185.5320  179.8620  143.3770 F   0  0  0  0  0  0  0  0  0  0  0  0
  184.0440  178.4680  146.3600 C   0  0  0  0  0  3  0  0  0  0  0  0
  185.6240  179.3910  144.6780 C   0  0  1  0  0  3  0  0  0  0  0  0
  186.3520  178.1010  147.2810 C   0  0  0  0  0  3  0  0  0  0  0  0
  185.0480  178.3590  147.4360 C   0  0  0  0  0  3  0  0  0  0  0  0
  187.0530  177.8630  146.0030 C   0  0  0  0  0  3  0  0  0  0  0  0
  190.9700  170.4240  139.1260 C   0  0  0  0  0  2  0  0  0  0  0  0
  189.7520  170.0400  138.4290 N   0  0  0  0  0  1  0  0  0  0  0  0
  1 25  1  0  0  0  0
  2  1  2  0  0  0  0
  3  1  1  0  0  0  0
  4 10  1  0  0  0  0
  5  9  1  0  0  0  0
  6  3  1  1  0  0  0
  6  5  1  0  0  0  0
  6  8  1  0  0  0  0
  8  4  1  0  0  0  0
  9  7  2  0  0  0  0
  9  4  1  0  0  0  0
 10 14  1  1  0  0  0
 10 11  1  0  0  0  0
 11 12  1  0  0  0  0
 13 11  2  0  0  0  0
 14 19  1  0  0  0  0
 15 23  2  0  0  0  0
 16 20  2  0  0  0  0
 16 22  1  0  0  0  0
 17 20  1  0  0  0  0
 18 15  1  1  0  0  0
 18 19  1  0  0  0  0
 18 24  1  0  0  0  0
 19 17  2  0  0  0  0
 21 24  2  0  0  0  0
 23 21  1  0  0  0  0
 24 16  1  0  0  0  0
 25 45  1  1  0  0  0
 25 29  1  0  0  0  0
 26 32  1  0  0  0  0
 26 28  1  0  0  0  0
 27 32  2  0  0  0  0
 28 31  2  0  0  0  0
 29 27  1  0  0  0  0
 30 33  2  0  0  0  0
 30 27  1  0  0  0  0
 33 26  1  0  0  0  0
 34 28  1  0  0  0  0
 34 35  1  1  0  0  0
 34 36  1  0  0  0  0
 36 38  1  0  0  0  0
 37 40  2  0  0  0  0
 38 44  2  0  0  0  0
 40 43  1  0  0  0  0
 41 39  1  6  0  0  0
 41 38  1  0  0  0  0
 41 37  1  0  0  0  0
 42 43  2  0  0  0  0
 44 42  1  0  0  0  0
 46 45  1  0  0  0  0
M  END
>  <MODEL>
3

>  <REMARK>
 VINA RESULT:      -6.6      3.340      8.314
  Name = 
  12 active torsions:
  status: ('A' for Active; 'I' for Inactive)
    1  A    between atoms: C_2  and  C_37
    2  A    between atoms: C_4  and  C_17
    3  A    between atoms: N_5  and  C_37
    4  A    between atoms: C_7  and  C_25
    5  A    between atoms: C_7  and  C_37
    6  A    between atoms: C_11  and  S_15
    7  A    between atoms: C_12  and  C_19
    8  A    between atoms: C_13  and  C_21
    9  A    between atoms: S_15  and  C_33
   10  A    between atoms: C_17  and  C_21
   11  A    between atoms: C_19  and  C_28
   12  A    between atoms: C_19  and  C_33
                            x       y       z     vdW  Elec       q    Type
                         _______ _______ _______ _____ _____    ______ ____

>  <TORSDO>
F 12

$$$$
=
 OpenBabel11062419463D

 46 50  0  0  1  0  0  0  0  0999 V2000
  195.6990  173.4610  143.6750 C   0  0  0  0  0  0  0  0  0  0  0  0
  195.2430  174.4210  143.0720 O   0  0  0  0  0  0  0  0  0  0  0  0
  196.9750  172.4590  142.9160 S   0  0  0  0  0  0  0  0  0  0  0  0
  193.3930  171.5630  142.1530 N   0  0  0  0  0  0  0  0  0  0  0  0
  195.1300  170.5830  143.3250 O   0  0  0  0  0  0  0  0  0  0  0  0
  195.7560  171.2850  142.2590 C   0  0  1  0  0  3  0  0  0  0  0  0
  192.9510  170.2450  144.0550 O   0  0  0  0  0  0  0  0  0  0  0  0
  194.6240  172.0480  141.5410 C   0  0  0  0  0  2  0  0  0  0  0  0
  193.7690  170.7470  143.2390 C   0  0  0  0  0  0  0  0  0  0  0  0
  192.0680  172.1460  141.9750 C   0  0  2  0  0  3  0  0  0  0  0  0
  191.0800  171.1100  141.5270 C   0  0  0  0  0  0  0  0  0  0  0  0
  190.1010  170.7970  142.2550 O   0  0  0  0  0  1  0  0  0  0  0  0
  191.2320  170.5100  140.2840 O   0  0  0  0  0  0  0  0  0  0  0  0
  192.1300  173.3360  141.0200 C   0  0  0  0  0  2  0  0  0  0  0  0
  189.1600  174.1150  141.5200 C   0  0  0  0  0  3  0  0  0  0  0  0
  190.9260  176.9410  143.0700 C   0  0  0  0  0  0  0  0  0  0  0  0
  192.6810  175.4940  142.1930 C   0  0  0  0  0  3  0  0  0  0  0  0
  190.3610  174.8940  141.9230 C   0  0  0  0  0  0  0  0  0  0  0  0
  191.7140  174.5950  141.7090 C   0  0  0  0  0  0  0  0  0  0  0  0
  192.2880  176.6630  142.8690 C   0  0  0  0  0  3  0  0  0  0  0  0
  188.5800  176.1390  142.6950 N   0  0  0  0  0  0  0  0  0  0  0  0
  190.5110  178.1770  143.7870 C   0  0  0  0  0  1  0  0  0  0  0  0
  187.9890  174.9660  142.0520 C   0  0  0  0  0  2  0  0  0  0  0  0
  189.9840  176.0300  142.5820 C   0  0  0  0  0  0  0  0  0  0  0  0
  195.2240  173.1240  145.0580 C   0  0  2  0  0  3  0  0  0  0  0  0
  191.3290  175.5300  146.4050 N   0  0  0  0  0  0  0  0  0  0  0  0
  193.3300  174.5470  145.8360 C   0  0  0  0  0  0  0  0  0  0  0  0
  190.3660  176.4190  146.9840 C   0  0  0  0  0  0  0  0  0  0  0  0
  194.6450  174.3240  145.7540 C   0  0  0  0  0  2  0  0  0  0  0  0
  192.2750  173.6760  145.2380 C   0  0  0  0  0  3  0  0  0  0  0  0
  190.7510  177.3810  147.7020 O   0  0  0  0  0  0  0  0  0  0  0  0
  192.7620  175.7110  146.5530 C   0  0  0  0  0  3  0  0  0  0  0  0
  190.9670  174.3560  145.6200 C   0  0  0  0  0  3  0  0  0  0  0  0
  188.9020  176.2300  146.7140 C   0  0  1  0  0  3  0  0  0  0  0  0
  188.3970  175.1260  147.4070 O   0  0  0  0  0  1  0  0  0  0  0  0
  188.0870  177.4890  147.0100 C   0  0  0  0  0  2  0  0  0  0  0  0
  184.4860  178.1600  146.6920 C   0  0  0  0  0  3  0  0  0  0  0  0
  186.8500  177.6060  146.1680 C   0  0  0  0  0  0  0  0  0  0  0  0
  185.6730  176.5930  147.9810 F   0  0  0  0  0  0  0  0  0  0  0  0
  184.0590  178.7540  145.5770 C   0  0  0  0  0  3  0  0  0  0  0  0
  185.5380  177.1010  146.6980 C   0  0  1  0  0  3  0  0  0  0  0  0
  185.8780  178.2030  143.9350 C   0  0  0  0  0  3  0  0  0  0  0  0
  184.6140  178.5320  144.2280 C   0  0  0  0  0  3  0  0  0  0  0  0
  186.9790  178.0060  144.8990 C   0  0  0  0  0  3  0  0  0  0  0  0
  196.3250  172.4590  145.8850 C   0  0  0  0  0  2  0  0  0  0  0  0
  197.1550  173.4470  146.5580 N   0  0  0  0  0  1  0  0  0  0  0  0
  1 25  1  0  0  0  0
  2  1  2  0  0  0  0
  3  1  1  0  0  0  0
  4  9  1  0  0  0  0
  6  3  1  1  0  0  0
  6  5  1  0  0  0  0
  8  4  1  0  0  0  0
  8  6  1  0  0  0  0
  9  5  1  0  0  0  0
  9  7  2  0  0  0  0
 10 14  1  6  0  0  0
 10  4  1  0  0  0  0
 11 10  1  0  0  0  0
 11 12  1  0  0  0  0
 13 11  2  0  0  0  0
 14 19  1  0  0  0  0
 15 18  2  0  0  0  0
 15 23  1  0  0  0  0
 16 22  1  0  0  0  0
 17 20  1  0  0  0  0
 18 24  1  0  0  0  0
 19 18  1  0  0  0  0
 19 17  2  0  0  0  0
 20 16  2  0  0  0  0
 23 21  1  0  0  0  0
 24 21  2  0  0  0  0
 24 16  1  0  0  0  0
 25 29  1  1  0  0  0
 25 45  1  0  0  0  0
 26 32  1  0  0  0  0
 26 28  1  0  0  0  0
 27 32  2  0  0  0  0
 28 31  2  0  0  0  0
 29 27  1  0  0  0  0
 30 33  2  0  0  0  0
 30 27  1  0  0  0  0
 33 26  1  0  0  0  0
 34 28  1  0  0  0  0
 34 36  1  0  0  0  0
 34 35  1  1  0  0  0
 37 41  1  0  0  0  0
 38 41  1  0  0  0  0
 38 36  1  0  0  0  0
 40 37  2  0  0  0  0
 41 39  1  1  0  0  0
 42 43  2  0  0  0  0
 42 44  1  0  0  0  0
 43 40  1  0  0  0  0
 44 38  2  0  0  0  0
 45 46  1  0  0  0  0
M  END
>  <MODEL>
4

>  <REMARK>
 VINA RESULT:      -6.2      3.233      7.866
  Name = 
  12 active torsions:
  status: ('A' for Active; 'I' for Inactive)
    1  A    between atoms: C_2  and  C_37
    2  A    between atoms: C_4  and  C_17
    3  A    between atoms: N_5  and  C_37
    4  A    between atoms: C_7  and  C_25
    5  A    between atoms: C_7  and  C_37
    6  A    between atoms: C_11  and  S_15
    7  A    between atoms: C_12  and  C_19
    8  A    between atoms: C_13  and  C_21
    9  A    between atoms: S_15  and  C_33
   10  A    between atoms: C_17  and  C_21
   11  A    between atoms: C_19  and  C_28
   12  A    between atoms: C_19  and  C_33
                            x       y       z     vdW  Elec       q    Type
                         _______ _______ _______ _____ _____    ______ ____

>  <TORSDO>
F 12

$$$$
=
 OpenBabel11062419463D

 46 50  0  0  1  0  0  0  0  0999 V2000
  186.9150  177.5280  143.1160 C   0  0  0  0  0  0  0  0  0  0  0  0
  186.9080  178.3480  142.2110 O   0  0  0  0  0  0  0  0  0  0  0  0
  186.7710  175.7830  142.7370 S   0  0  0  0  0  0  0  0  0  0  0  0
  189.8440  174.2940  141.1370 N   0  0  0  0  0  0  0  0  0  0  0  0
  189.3040  176.3210  142.1140 O   0  0  0  0  0  0  0  0  0  0  0  0
  188.1000  175.8740  141.5030 C   0  0  1  0  0  3  0  0  0  0  0  0
  191.4770  175.5240  142.3080 O   0  0  0  0  0  0  0  0  0  0  0  0
  188.4080  174.4660  140.9550 C   0  0  0  0  0  2  0  0  0  0  0  0
  190.2980  175.4020  141.8810 C   0  0  0  0  0  0  0  0  0  0  0  0
  190.5770  173.0430  140.9840 C   0  0  2  0  0  3  0  0  0  0  0  0
  190.3870  172.4720  139.6100 C   0  0  0  0  0  0  0  0  0  0  0  0
  189.7500  171.3990  139.4410 O   0  0  0  0  0  1  0  0  0  0  0  0
  190.8980  173.1480  138.5100 O   0  0  0  0  0  0  0  0  0  0  0  0
  190.1840  172.0550  142.0790 C   0  0  0  0  0  2  0  0  0  0  0  0
  192.1100  169.6310  141.7680 C   0  0  0  0  0  3  0  0  0  0  0  0
  193.5440  171.3310  144.6940 C   0  0  0  0  0  0  0  0  0  0  0  0
  191.6090  172.6710  144.0600 C   0  0  0  0  0  3  0  0  0  0  0  0
  192.1810  170.6930  142.8070 C   0  0  2  0  0  3  0  0  0  0  0  0
  191.3320  171.7920  142.9980 C   0  0  0  0  0  0  0  0  0  0  0  0
  192.7090  172.4400  144.9050 C   0  0  0  0  0  3  0  0  0  0  0  0
  193.9760  169.3180  143.2620 N   0  0  0  0  0  0  0  0  0  0  0  0
  194.7100  171.0880  145.5870 C   0  0  0  0  0  1  0  0  0  0  0  0
  193.3210  168.7330  142.0920 C   0  0  0  0  0  3  0  0  0  0  0  0
  193.2500  170.4730  143.6290 C   0  0  0  0  0  0  0  0  0  0  0  0
  187.0740  177.9610  144.5440 C   0  0  2  0  0  3  0  0  0  0  0  0
  191.4260  176.5000  145.8460 N   0  0  0  0  0  0  0  0  0  0  0  0
  189.2460  177.0200  145.3290 C   0  0  0  0  0  0  0  0  0  0  0  0
  192.5720  175.8850  146.4470 C   0  0  0  0  0  0  0  0  0  0  0  0
  187.9090  176.9900  145.3300 C   0  0  0  0  0  2  0  0  0  0  0  0
  190.0790  177.9790  144.5450 C   0  0  0  0  0  3  0  0  0  0  0  0
  192.4190  174.9740  147.3050 O   0  0  0  0  0  0  0  0  0  0  0  0
  190.0650  176.0850  146.1330 C   0  0  0  0  0  3  0  0  0  0  0  0
  191.5120  177.6040  144.8970 C   0  0  0  0  0  3  0  0  0  0  0  0
  193.9560  176.2970  146.0350 C   0  0  1  0  0  3  0  0  0  0  0  0
  194.4240  177.3540  146.8200 O   0  0  0  0  0  1  0  0  0  0  0  0
  194.9390  175.1260  146.0400 C   0  0  0  0  0  2  0  0  0  0  0  0
  197.0240  173.0510  143.8340 C   0  0  0  0  0  3  0  0  0  0  0  0
  195.5190  174.8340  144.6880 C   0  0  0  0  0  0  0  0  0  0  0  0
  197.5230  174.2030  145.8220 F   0  0  0  0  0  0  0  0  0  0  0  0
  196.6410  172.9120  142.5650 C   0  0  0  0  0  3  0  0  0  0  0  0
  196.9350  174.3440  144.5740 C   0  0  1  0  0  3  0  0  0  0  0  0
  195.2100  174.9440  142.2010 C   0  0  0  0  0  3  0  0  0  0  0  0
  195.9980  173.9600  141.7500 C   0  0  0  0  0  3  0  0  0  0  0  0
  194.8140  175.1760  143.6040 C   0  0  0  0  0  3  0  0  0  0  0  0
  185.7200  178.2180  145.2080 C   0  0  0  0  0  2  0  0  0  0  0  0
  185.3290  177.1110  146.0660 N   0  0  0  0  0  1  0  0  0  0  0  0
  1 25  1  0  0  0  0
  2  1  2  0  0  0  0
  3  1  1  0  0  0  0
  4  9  1  0  0  0  0
  6  5  1  0  0  0  0
  6  3  1  1  0  0  0
  8  4  1  0  0  0  0
  8  6  1  0  0  0  0
  9  5  1  0  0  0  0
  9  7  2  0  0  0  0
 10  4  1  0  0  0  0
 10 14  1  1  0  0  0
 11 10  1  0  0  0  0
 12 11  1  0  0  0  0
 13 11  2  0  0  0  0
 14 19  1  0  0  0  0
 15 23  2  0  0  0  0
 16 20  2  0  0  0  0
 16 22  1  0  0  0  0
 17 20  1  0  0  0  0
 18 15  1  6  0  0  0
 18 19  1  0  0  0  0
 18 24  1  0  0  0  0
 19 17  2  0  0  0  0
 21 24  2  0  0  0  0
 23 21  1  0  0  0  0
 24 16  1  0  0  0  0
 25 45  1  1  0  0  0
 25 29  1  0  0  0  0
 26 32  1  0  0  0  0
 26 28  1  0  0  0  0
 27 29  1  0  0  0  0
 27 32  2  0  0  0  0
 28 31  2  0  0  0  0
 30 33  2  0  0  0  0
 30 27  1  0  0  0  0
 33 26  1  0  0  0  0
 34 36  1  0  0  0  0
 34 28  1  0  0  0  0
 34 35  1  1  0  0  0
 37 41  1  0  0  0  0
 38 36  1  0  0  0  0
 40 37  2  0  0  0  0
 41 38  1  0  0  0  0
 41 39  1  1  0  0  0
 42 44  1  0  0  0  0
 43 42  2  0  0  0  0
 43 40  1  0  0  0  0
 44 38  2  0  0  0  0
 45 46  1  0  0  0  0
M  END
>  <MODEL>
5

>  <REMARK>
 VINA RESULT:      -6.1      1.684      2.579
  Name = 
  12 active torsions:
  status: ('A' for Active; 'I' for Inactive)
    1  A    between atoms: C_2  and  C_37
    2  A    between atoms: C_4  and  C_17
    3  A    between atoms: N_5  and  C_37
    4  A    between atoms: C_7  and  C_25
    5  A    between atoms: C_7  and  C_37
    6  A    between atoms: C_11  and  S_15
    7  A    between atoms: C_12  and  C_19
    8  A    between atoms: C_13  and  C_21
    9  A    between atoms: S_15  and  C_33
   10  A    between atoms: C_17  and  C_21
   11  A    between atoms: C_19  and  C_28
   12  A    between atoms: C_19  and  C_33
                            x       y       z     vdW  Elec       q    Type
                         _______ _______ _______ _____ _____    ______ ____

>  <TORSDO>
F 12

$$$$
=
 OpenBabel11062419463D

 46 50  0  0  1  0  0  0  0  0999 V2000
  195.9100  175.3900  144.2790 C   0  0  0  0  0  0  0  0  0  0  0  0
  196.3880  174.5810  145.0600 O   0  0  0  0  0  0  0  0  0  0  0  0
  195.0140  176.8090  144.9050 S   0  0  0  0  0  0  0  0  0  0  0  0
  191.3100  176.1160  145.0330 N   0  0  0  0  0  0  0  0  0  0  0  0
  193.1920  174.9350  144.3910 O   0  0  0  0  0  0  0  0  0  0  0  0
  193.4830  176.2910  144.0770 C   0  0  1  0  0  3  0  0  0  0  0  0
  191.4020  173.7790  145.3130 O   0  0  0  0  0  0  0  0  0  0  0  0
  192.2910  177.1090  144.6130 C   0  0  0  0  0  2  0  0  0  0  0  0
  191.9310  174.8550  144.9300 C   0  0  0  0  0  0  0  0  0  0  0  0
  190.1090  176.3860  145.8160 C   0  0  2  0  0  3  0  0  0  0  0  0
  190.2950  175.9740  147.2470 C   0  0  0  0  0  0  0  0  0  0  0  0
  191.0720  176.6110  148.0040 O   0  0  0  0  0  1  0  0  0  0  0  0
  189.5810  174.8920  147.7460 O   0  0  0  0  0  0  0  0  0  0  0  0
  188.8920  175.7220  145.1770 C   0  0  0  0  0  2  0  0  0  0  0  0
  187.7680  177.6560  143.0140 C   0  0  0  0  0  3  0  0  0  0  0  0
  185.3100  178.0720  145.7150 C   0  0  0  0  0  0  0  0  0  0  0  0
  186.9370  176.4720  146.5720 C   0  0  0  0  0  3  0  0  0  0  0  0
  187.1910  177.3990  144.3610 C   0  0  2  0  0  3  0  0  0  0  0  0
  187.6660  176.5520  145.3720 C   0  0  0  0  0  0  0  0  0  0  0  0
  185.7650  177.2300  146.7430 C   0  0  0  0  0  3  0  0  0  0  0  0
  185.7460  178.9120  143.3930 N   0  0  0  0  0  0  0  0  0  0  0  0
  184.0680  178.8730  145.8950 C   0  0  0  0  0  1  0  0  0  0  0  0
  186.7820  178.6630  142.3900 C   0  0  0  0  0  3  0  0  0  0  0  0
  186.0510  178.1320  144.5300 C   0  0  0  0  0  0  0  0  0  0  0  0
  196.0870  175.2260  142.7980 C   0  0  2  0  0  3  0  0  0  0  0  0
  193.4110  172.5290  139.9110 N   0  0  0  0  0  0  0  0  0  0  0  0
  194.7710  173.6340  141.4010 C   0  0  0  0  0  0  0  0  0  0  0  0
  192.7990  171.4850  139.1430 C   0  0  0  0  0  0  0  0  0  0  0  0
  195.6980  173.8490  142.3400 C   0  0  0  0  0  2  0  0  0  0  0  0
  193.9890  174.7010  140.7110 C   0  0  0  0  0  3  0  0  0  0  0  0
  193.1670  170.2900  139.3010 O   0  0  0  0  0  0  0  0  0  0  0  0
  194.4170  172.2760  140.9270 C   0  0  0  0  0  3  0  0  0  0  0  0
  193.0920  173.9420  139.7430 C   0  0  0  0  0  3  0  0  0  0  0  0
  191.6960  171.8040  138.1760 C   0  0  1  0  0  3  0  0  0  0  0  0
  191.9660  171.2780  136.9090 O   0  0  0  0  0  1  0  0  0  0  0  0
  190.3260  171.3510  138.6830 C   0  0  0  0  0  2  0  0  0  0  0  0
  190.4440  172.9640  141.9850 C   0  0  0  0  0  3  0  0  0  0  0  0
  189.7370  172.2790  139.7040 C   0  0  0  0  0  0  0  0  0  0  0  0
  190.4280  170.6990  141.3550 F   0  0  0  0  0  0  0  0  0  0  0  0
  189.9760  174.2080  142.0870 C   0  0  0  0  0  3  0  0  0  0  0  0
  189.7830  171.9110  141.1600 C   0  0  1  0  0  3  0  0  0  0  0  0
  188.4100  174.3640  140.1300 C   0  0  0  0  0  3  0  0  0  0  0  0
  188.8190  174.7460  141.3460 C   0  0  0  0  0  3  0  0  0  0  0  0
  189.0360  173.3350  139.2770 C   0  0  0  0  0  3  0  0  0  0  0  0
  197.5040  175.5970  142.3560 C   0  0  0  0  0  2  0  0  0  0  0  0
  197.6010  175.6940  140.9080 N   0  0  0  0  0  1  0  0  0  0  0  0
  1  3  1  0  0  0  0
  1  2  2  0  0  0  0
  4 10  1  0  0  0  0
  5  9  1  0  0  0  0
  6  5  1  0  0  0  0
  6  8  1  0  0  0  0
  6  3  1  1  0  0  0
  8  4  1  0  0  0  0
  9  4  1  0  0  0  0
  9  7  2  0  0  0  0
 10 14  1  6  0  0  0
 10 11  1  0  0  0  0
 11 13  2  0  0  0  0
 11 12  1  0  0  0  0
 14 19  1  0  0  0  0
 16 22  1  0  0  0  0
 16 20  2  0  0  0  0
 17 20  1  0  0  0  0
 18 15  1  6  0  0  0
 18 24  1  0  0  0  0
 18 19  1  0  0  0  0
 19 17  2  0  0  0  0
 21 24  2  0  0  0  0
 23 15  2  0  0  0  0
 23 21  1  0  0  0  0
 24 16  1  0  0  0  0
 25 29  1  1  0  0  0
 25  1  1  0  0  0  0
 26 32  1  0  0  0  0
 27 29  1  0  0  0  0
 28 31  2  0  0  0  0
 28 26  1  0  0  0  0
 30 27  1  0  0  0  0
 32 27  2  0  0  0  0
 33 26  1  0  0  0  0
 33 30  2  0  0  0  0
 34 35  1  6  0  0  0
 34 36  1  0  0  0  0
 34 28  1  0  0  0  0
 36 38  1  0  0  0  0
 37 40  2  0  0  0  0
 38 41  1  0  0  0  0
 41 39  1  6  0  0  0
 41 37  1  0  0  0  0
 42 43  2  0  0  0  0
 43 40  1  0  0  0  0
 44 38  2  0  0  0  0
 44 42  1  0  0  0  0
 45 25  1  0  0  0  0
 46 45  1  0  0  0  0
M  END
>  <MODEL>
6

>  <REMARK>
 VINA RESULT:      -6.0      2.942      8.690
  Name = 
  12 active torsions:
  status: ('A' for Active; 'I' for Inactive)
    1  A    between atoms: C_2  and  C_37
    2  A    between atoms: C_4  and  C_17
    3  A    between atoms: N_5  and  C_37
    4  A    between atoms: C_7  and  C_25
    5  A    between atoms: C_7  and  C_37
    6  A    between atoms: C_11  and  S_15
    7  A    between atoms: C_12  and  C_19
    8  A    between atoms: C_13  and  C_21
    9  A    between atoms: S_15  and  C_33
   10  A    between atoms: C_17  and  C_21
   11  A    between atoms: C_19  and  C_28
   12  A    between atoms: C_19  and  C_33
                            x       y       z     vdW  Elec       q    Type
                         _______ _______ _______ _____ _____    ______ ____

>  <TORSDO>
F 12

$$$$
=
 OpenBabel11062419463D

 46 50  0  0  1  0  0  0  0  0999 V2000
  191.6030  170.5410  140.7800 C   0  0  0  0  0  0  0  0  0  0  0  0
  190.5110  169.9940  140.7840 O   0  0  0  0  0  0  0  0  0  0  0  0
  192.9530  169.8380  141.7250 S   0  0  0  0  0  0  0  0  0  0  0  0
  194.0450  172.3390  144.3270 N   0  0  0  0  0  0  0  0  0  0  0  0
  193.0440  170.2530  144.3550 O   0  0  0  0  0  0  0  0  0  0  0  0
  192.5700  170.8740  143.1660 C   0  0  1  0  0  3  0  0  0  0  0  0
  194.4630  170.8410  146.0970 O   0  0  0  0  0  0  0  0  0  0  0  0
  193.3250  172.2160  143.0660 C   0  0  0  0  0  2  0  0  0  0  0  0
  193.8830  171.1190  145.0140 C   0  0  0  0  0  0  0  0  0  0  0  0
  195.0800  173.3240  144.6220 C   0  0  2  0  0  3  0  0  0  0  0  0
  196.3890  172.6560  144.9260 C   0  0  0  0  0  0  0  0  0  0  0  0
  196.9790  171.9690  144.0510 O   0  0  0  0  0  0  0  0  0  0  0  0
  196.9670  172.8190  146.1780 O   0  0  0  0  0  1  0  0  0  0  0  0
  194.6310  174.2520  145.7470 C   0  0  0  0  0  2  0  0  0  0  0  0
  192.1220  175.1510  147.3540 C   0  0  0  0  0  3  0  0  0  0  0  0
  191.8320  177.2200  144.3300 C   0  0  0  0  0  0  0  0  0  0  0  0
  193.8420  175.8810  143.9980 C   0  0  0  0  0  3  0  0  0  0  0  0
  192.5420  175.6440  146.0150 C   0  0  0  0  0  0  0  0  0  0  0  0
  193.6500  175.2620  145.2460 C   0  0  0  0  0  0  0  0  0  0  0  0
  192.9360  176.8550  143.5420 C   0  0  0  0  0  3  0  0  0  0  0  0
  190.6260  176.8340  146.4940 N   0  0  0  0  0  0  0  0  0  0  0  0
  190.8740  178.2530  143.8480 C   0  0  0  0  0  1  0  0  0  0  0  0
  190.8460  175.9650  147.6500 C   0  0  0  0  0  2  0  0  0  0  0  0
  191.6650  176.5920  145.5690 C   0  0  0  0  0  0  0  0  0  0  0  0
  191.8400  171.7810  139.9680 C   0  0  2  0  0  3  0  0  0  0  0  0
  188.7590  175.2210  141.1690 N   0  0  0  0  0  0  0  0  0  0  0  0
  190.0940  173.5000  140.4290 C   0  0  0  0  0  0  0  0  0  0  0  0
  187.7100  176.1930  141.2440 C   0  0  0  0  0  0  0  0  0  0  0  0
  190.5560  172.5020  139.6690 C   0  0  0  0  0  2  0  0  0  0  0  0
  190.7520  174.0080  141.6680 C   0  0  0  0  0  3  0  0  0  0  0  0
  186.8380  176.2480  140.3350 O   0  0  0  0  0  0  0  0  0  0  0  0
  188.8470  174.2330  140.1100 C   0  0  0  0  0  3  0  0  0  0  0  0
  189.8440  175.1340  142.1400 C   0  0  0  0  0  3  0  0  0  0  0  0
  187.6230  177.1260  142.4170 C   0  0  1  0  0  3  0  0  0  0  0  0
  187.9420  178.4360  142.0470 O   0  0  0  0  0  1  0  0  0  0  0  0
  186.2640  177.0630  143.1140 C   0  0  0  0  0  2  0  0  0  0  0  0
  184.8060  178.9670  145.9010 C   0  0  0  0  0  3  0  0  0  0  0  0
  186.3060  177.5290  144.5390 C   0  0  0  0  0  0  0  0  0  0  0  0
  185.4800  179.6240  143.7460 F   0  0  0  0  0  0  0  0  0  0  0  0
  184.9540  178.4800  147.1330 C   0  0  0  0  0  3  0  0  0  0  0  0
  185.8910  178.9330  144.8760 C   0  0  1  0  0  3  0  0  0  0  0  0
  186.9800  177.0130  146.8990 C   0  0  0  0  0  3  0  0  0  0  0  0
  186.1470  177.7660  147.6280 C   0  0  0  0  0  3  0  0  0  0  0  0
  186.8720  176.7340  145.4530 C   0  0  0  0  0  3  0  0  0  0  0  0
  192.6370  171.4780  138.6980 C   0  0  0  0  0  2  0  0  0  0  0  0
  192.4880  172.5380  137.7120 N   0  0  0  0  0  1  0  0  0  0  0  0
  1  2  2  0  0  0  0
  1  3  1  0  0  0  0
  4 10  1  0  0  0  0
  4  9  1  0  0  0  0
  5  9  1  0  0  0  0
  6  3  1  6  0  0  0
  6  5  1  0  0  0  0
  8  6  1  0  0  0  0
  8  4  1  0  0  0  0
  9  7  2  0  0  0  0
 10 11  1  0  0  0  0
 10 14  1  1  0  0  0
 11 13  1  0  0  0  0
 12 11  2  0  0  0  0
 15 23  1  0  0  0  0
 16 24  1  0  0  0  0
 17 19  2  0  0  0  0
 18 15  2  0  0  0  0
 19 14  1  0  0  0  0
 19 18  1  0  0  0  0
 20 17  1  0  0  0  0
 20 16  2  0  0  0  0
 21 23  1  0  0  0  0
 22 16  1  0  0  0  0
 24 18  1  0  0  0  0
 24 21  2  0  0  0  0
 25 45  1  6  0  0  0
 25  1  1  0  0  0  0
 26 28  1  0  0  0  0
 26 33  1  0  0  0  0
 27 30  1  0  0  0  0
 28 34  1  0  0  0  0
 29 25  1  0  0  0  0
 29 27  1  0  0  0  0
 30 33  2  0  0  0  0
 31 28  2  0  0  0  0
 32 27  2  0  0  0  0
 32 26  1  0  0  0  0
 34 35  1  6  0  0  0
 34 36  1  0  0  0  0
 36 38  1  0  0  0  0
 37 40  2  0  0  0  0
 38 41  1  0  0  0  0
 38 44  2  0  0  0  0
 40 43  1  0  0  0  0
 41 39  1  6  0  0  0
 41 37  1  0  0  0  0
 42 43  2  0  0  0  0
 44 42  1  0  0  0  0
 46 45  1  0  0  0  0
M  END
>  <MODEL>
7

>  <REMARK>
 VINA RESULT:      -6.0      3.388      8.297
  Name = 
  12 active torsions:
  status: ('A' for Active; 'I' for Inactive)
    1  A    between atoms: C_2  and  C_37
    2  A    between atoms: C_4  and  C_17
    3  A    between atoms: N_5  and  C_37
    4  A    between atoms: C_7  and  C_25
    5  A    between atoms: C_7  and  C_37
    6  A    between atoms: C_11  and  S_15
    7  A    between atoms: C_12  and  C_19
    8  A    between atoms: C_13  and  C_21
    9  A    between atoms: S_15  and  C_33
   10  A    between atoms: C_17  and  C_21
   11  A    between atoms: C_19  and  C_28
   12  A    between atoms: C_19  and  C_33
                            x       y       z     vdW  Elec       q    Type
                         _______ _______ _______ _____ _____    ______ ____

>  <TORSDO>
F 12

$$$$
=
 OpenBabel11062419463D

 46 50  0  0  1  0  0  0  0  0999 V2000
  196.5540  176.0150  143.2150 C   0  0  0  0  0  0  0  0  0  0  0  0
  196.8210  177.1660  143.5260 O   0  0  0  0  0  0  0  0  0  0  0  0
  196.7700  175.4790  141.5200 S   0  0  0  0  0  0  0  0  0  0  0  0
  193.9390  173.4390  140.0900 N   0  0  0  0  0  0  0  0  0  0  0  0
  194.5590  175.6680  140.0450 O   0  0  0  0  0  0  0  0  0  0  0  0
  194.9890  175.1910  141.3150 C   0  0  1  0  0  3  0  0  0  0  0  0
  193.4710  174.7680  138.2010 O   0  0  0  0  0  0  0  0  0  0  0  0
  194.6960  173.6770  141.3120 C   0  0  0  0  0  2  0  0  0  0  0  0
  193.9470  174.6460  139.3610 C   0  0  0  0  0  0  0  0  0  0  0  0
  193.6270  172.1320  139.5230 C   0  0  2  0  0  3  0  0  0  0  0  0
  194.2830  171.9530  138.1860 C   0  0  0  0  0  0  0  0  0  0  0  0
  195.5380  171.9290  138.0840 O   0  0  0  0  0  1  0  0  0  0  0  0
  193.4980  171.7870  137.0530 O   0  0  0  0  0  0  0  0  0  0  0  0
  192.1160  171.9250  139.4570 C   0  0  0  0  0  2  0  0  0  0  0  0
  189.7170  173.7900  140.1250 C   0  0  0  0  0  3  0  0  0  0  0  0
  190.3000  172.1610  143.3680 C   0  0  0  0  0  0  0  0  0  0  0  0
  191.9890  171.2340  141.8730 C   0  0  0  0  0  3  0  0  0  0  0  0
  190.4130  172.8690  141.0630 C   0  0  2  0  0  3  0  0  0  0  0  0
  191.5030  172.0240  140.8160 C   0  0  0  0  0  0  0  0  0  0  0  0
  191.3900  171.3040  143.1440 C   0  0  0  0  0  3  0  0  0  0  0  0
  188.7510  173.8390  142.3330 N   0  0  0  0  0  0  0  0  0  0  0  0
  189.6650  172.2330  144.7120 C   0  0  0  0  0  1  0  0  0  0  0  0
  188.6120  174.4190  140.9970 C   0  0  0  0  0  3  0  0  0  0  0  0
  189.8340  172.9330  142.2990 C   0  0  0  0  0  0  0  0  0  0  0  0
  196.0740  175.0320  144.2430 C   0  0  2  0  0  3  0  0  0  0  0  0
  191.8180  176.0050  146.1690 N   0  0  0  0  0  0  0  0  0  0  0  0
  193.9600  175.6760  145.3980 C   0  0  0  0  0  0  0  0  0  0  0  0
  190.7130  176.3980  146.9920 C   0  0  0  0  0  0  0  0  0  0  0  0
  195.2950  175.7070  145.3360 C   0  0  0  0  0  2  0  0  0  0  0  0
  193.0720  175.0090  144.4000 C   0  0  0  0  0  3  0  0  0  0  0  0
  190.9250  176.9950  148.0820 O   0  0  0  0  0  0  0  0  0  0  0  0
  193.1980  176.3110  146.4970 C   0  0  0  0  0  3  0  0  0  0  0  0
  191.6660  175.2530  144.9280 C   0  0  0  0  0  3  0  0  0  0  0  0
  189.3040  176.1340  146.5480 C   0  0  1  0  0  3  0  0  0  0  0  0
  188.8310  174.9220  147.0580 O   0  0  0  0  0  1  0  0  0  0  0  0
  188.3590  177.2860  146.8900 C   0  0  0  0  0  2  0  0  0  0  0  0
  184.9800  178.3550  145.9120 C   0  0  0  0  0  3  0  0  0  0  0  0
  187.3240  177.5370  145.8330 C   0  0  0  0  0  0  0  0  0  0  0  0
  185.7200  176.6710  147.3750 F   0  0  0  0  0  0  0  0  0  0  0  0
  184.8400  178.9890  144.7470 C   0  0  0  0  0  3  0  0  0  0  0  0
  185.8880  177.1850  146.0980 C   0  0  1  0  0  3  0  0  0  0  0  0
  186.8630  178.2290  143.4670 C   0  0  0  0  0  3  0  0  0  0  0  0
  185.6110  178.6990  143.5220 C   0  0  0  0  0  3  0  0  0  0  0  0
  187.7330  177.9140  144.6170 C   0  0  0  0  0  3  0  0  0  0  0  0
  197.2240  174.1890  144.7950 C   0  0  0  0  0  2  0  0  0  0  0  0
  196.9550  173.7500  146.1560 N   0  0  0  0  0  1  0  0  0  0  0  0
  1  2  2  0  0  0  0
  1 25  1  0  0  0  0
  3  1  1  0  0  0  0
  4  8  1  0  0  0  0
  5  6  1  0  0  0  0
  6  3  1  6  0  0  0
  7  9  2  0  0  0  0
  8  6  1  0  0  0  0
  9  5  1  0  0  0  0
  9  4  1  0  0  0  0
 10 14  1  6  0  0  0
 10  4  1  0  0  0  0
 11 10  1  0  0  0  0
 12 11  1  0  0  0  0
 13 11  2  0  0  0  0
 14 19  1  0  0  0  0
 15 23  2  0  0  0  0
 16 22  1  0  0  0  0
 17 20  1  0  0  0  0
 18 15  1  6  0  0  0
 18 24  1  0  0  0  0
 19 18  1  0  0  0  0
 19 17  2  0  0  0  0
 20 16  2  0  0  0  0
 23 21  1  0  0  0  0
 24 21  2  0  0  0  0
 24 16  1  0  0  0  0
 25 45  1  1  0  0  0
 25 29  1  0  0  0  0
 26 32  1  0  0  0  0
 26 28  1  0  0  0  0
 27 32  2  0  0  0  0
 28 31  2  0  0  0  0
 29 27  1  0  0  0  0
 30 33  2  0  0  0  0
 30 27  1  0  0  0  0
 33 26  1  0  0  0  0
 34 36  1  0  0  0  0
 34 28  1  0  0  0  0
 34 35  1  1  0  0  0
 37 41  1  0  0  0  0
 38 41  1  0  0  0  0
 38 36  1  0  0  0  0
 40 37  2  0  0  0  0
 41 39  1  1  0  0  0
 42 43  2  0  0  0  0
 42 44  1  0  0  0  0
 43 40  1  0  0  0  0
 44 38  2  0  0  0  0
 45 46  1  0  0  0  0
M  END
>  <MODEL>
8

>  <REMARK>
 VINA RESULT:      -5.8      3.228      7.741
  Name = 
  12 active torsions:
  status: ('A' for Active; 'I' for Inactive)
    1  A    between atoms: C_2  and  C_37
    2  A    between atoms: C_4  and  C_17
    3  A    between atoms: N_5  and  C_37
    4  A    between atoms: C_7  and  C_25
    5  A    between atoms: C_7  and  C_37
    6  A    between atoms: C_11  and  S_15
    7  A    between atoms: C_12  and  C_19
    8  A    between atoms: C_13  and  C_21
    9  A    between atoms: S_15  and  C_33
   10  A    between atoms: C_17  and  C_21
   11  A    between atoms: C_19  and  C_28
   12  A    between atoms: C_19  and  C_33
                            x       y       z     vdW  Elec       q    Type
                         _______ _______ _______ _____ _____    ______ ____

>  <TORSDO>
F 12

$$$$
=
 OpenBabel11062419463D

 46 50  0  0  1  0  0  0  0  0999 V2000
  192.0430  171.3670  141.3860 C   0  0  0  0  0  0  0  0  0  0  0  0
  192.1940  170.1560  141.3220 O   0  0  0  0  0  0  0  0  0  0  0  0
  193.2160  172.4530  140.5780 S   0  0  0  0  0  0  0  0  0  0  0  0
  195.3980  172.9320  143.6150 N   0  0  0  0  0  0  0  0  0  0  0  0
  195.7590  172.6150  141.3520 O   0  0  0  0  0  0  0  0  0  0  0  0
  194.5740  171.8850  141.6420 C   0  0  1  0  0  3  0  0  0  0  0  0
  197.2570  173.9180  142.5570 O   0  0  0  0  0  0  0  0  0  0  0  0
  194.2480  172.1870  143.1190 C   0  0  0  0  0  2  0  0  0  0  0  0
  196.2240  173.2000  142.5050 C   0  0  0  0  0  0  0  0  0  0  0  0
  195.4680  173.6380  144.8900 C   0  0  2  0  0  3  0  0  0  0  0  0
  196.5180  173.0410  145.7800 C   0  0  0  0  0  0  0  0  0  0  0  0
  197.2380  173.7740  146.5070 O   0  0  0  0  0  1  0  0  0  0  0  0
  196.6780  171.6620  145.8200 O   0  0  0  0  0  0  0  0  0  0  0  0
  194.0960  173.6740  145.5580 C   0  0  0  0  0  2  0  0  0  0  0  0
  191.8060  174.9120  147.2620 C   0  0  0  0  0  3  0  0  0  0  0  0
  191.9490  177.2460  144.4260 C   0  0  0  0  0  0  0  0  0  0  0  0
  193.6560  175.5690  143.9600 C   0  0  0  0  0  3  0  0  0  0  0  0
  192.3230  175.4240  145.9640 C   0  0  0  0  0  0  0  0  0  0  0  0
  193.3380  174.8970  145.1540 C   0  0  0  0  0  0  0  0  0  0  0  0
  192.9630  176.7370  143.5970 C   0  0  0  0  0  3  0  0  0  0  0  0
  190.6770  176.9240  146.5630 N   0  0  0  0  0  0  0  0  0  0  0  0
  191.2170  178.4840  144.0420 C   0  0  0  0  0  1  0  0  0  0  0  0
  190.7140  175.9340  147.6380 C   0  0  0  0  0  2  0  0  0  0  0  0
  191.6530  176.5610  145.6090 C   0  0  0  0  0  0  0  0  0  0  0  0
  190.8680  171.9590  142.1080 C   0  0  2  0  0  3  0  0  0  0  0  0
  188.3610  176.0180  142.0170 N   0  0  0  0  0  0  0  0  0  0  0  0
  189.7570  174.1900  142.0280 C   0  0  0  0  0  0  0  0  0  0  0  0
  187.8910  177.3710  142.0380 C   0  0  0  0  0  0  0  0  0  0  0  0
  190.8770  173.4600  142.0470 C   0  0  0  0  0  2  0  0  0  0  0  0
  188.3720  173.6320  142.0330 C   0  0  0  0  0  3  0  0  0  0  0  0
  188.7170  178.3210  142.1000 O   0  0  0  0  0  0  0  0  0  0  0  0
  189.7700  175.6700  142.0040 C   0  0  0  0  0  3  0  0  0  0  0  0
  187.4740  174.8600  142.0140 C   0  0  0  0  0  3  0  0  0  0  0  0
  186.4210  177.6650  141.9540 C   0  0  1  0  0  3  0  0  0  0  0  0
  185.9320  177.4350  140.6650 O   0  0  0  0  0  1  0  0  0  0  0  0
  185.6120  176.8960  142.9990 C   0  0  0  0  0  2  0  0  0  0  0  0
  184.1890  178.6640  145.8920 C   0  0  0  0  0  3  0  0  0  0  0  0
  185.7510  177.4550  144.3840 C   0  0  0  0  0  0  0  0  0  0  0  0
  184.4240  179.2950  143.6390 F   0  0  0  0  0  0  0  0  0  0  0  0
  184.5950  178.2960  147.1070 C   0  0  0  0  0  3  0  0  0  0  0  0
  185.1120  178.7720  144.7240 C   0  0  1  0  0  3  0  0  0  0  0  0
  186.8230  177.2340  146.6410 C   0  0  0  0  0  3  0  0  0  0  0  0
  185.9620  177.8590  147.4530 C   0  0  0  0  0  3  0  0  0  0  0  0
  186.5810  176.8450  145.2370 C   0  0  0  0  0  3  0  0  0  0  0  0
  190.7740  171.4440  143.5460 C   0  0  0  0  0  2  0  0  0  0  0  0
  190.7570  172.5400  144.5020 N   0  0  0  0  0  1  0  0  0  0  0  0
  1 25  1  0  0  0  0
  2  1  2  0  0  0  0
  3  1  1  0  0  0  0
  4 10  1  0  0  0  0
  5  6  1  0  0  0  0
  5  9  1  0  0  0  0
  6  3  1  6  0  0  0
  6  8  1  0  0  0  0
  8  4  1  0  0  0  0
  9  7  2  0  0  0  0
  9  4  1  0  0  0  0
 10 14  1  1  0  0  0
 10 11  1  0  0  0  0
 11 13  2  0  0  0  0
 11 12  1  0  0  0  0
 15 23  1  0  0  0  0
 16 24  1  0  0  0  0
 17 19  2  0  0  0  0
 18 15  2  0  0  0  0
 19 14  1  0  0  0  0
 19 18  1  0  0  0  0
 20 17  1  0  0  0  0
 20 16  2  0  0  0  0
 21 23  1  0  0  0  0
 22 16  1  0  0  0  0
 24 18  1  0  0  0  0
 24 21  2  0  0  0  0
 25 29  1  1  0  0  0
 25 45  1  0  0  0  0
 26 28  1  0  0  0  0
 27 30  1  0  0  0  0
 27 29  1  0  0  0  0
 28 31  2  0  0  0  0
 32 26  1  0  0  0  0
 32 27  2  0  0  0  0
 33 26  1  0  0  0  0
 33 30  2  0  0  0  0
 34 35  1  6  0  0  0
 34 28  1  0  0  0  0
 34 36  1  0  0  0  0
 36 38  1  0  0  0  0
 37 40  2  0  0  0  0
 38 41  1  0  0  0  0
 38 44  2  0  0  0  0
 40 43  1  0  0  0  0
 41 39  1  6  0  0  0
 41 37  1  0  0  0  0
 42 43  2  0  0  0  0
 44 42  1  0  0  0  0
 45 46  1  0  0  0  0
M  END
>  <MODEL>
9

>  <REMARK>
 VINA RESULT:      -5.7      3.346      8.189
  Name = 
  12 active torsions:
  status: ('A' for Active; 'I' for Inactive)
    1  A    between atoms: C_2  and  C_37
    2  A    between atoms: C_4  and  C_17
    3  A    between atoms: N_5  and  C_37
    4  A    between atoms: C_7  and  C_25
    5  A    between atoms: C_7  and  C_37
    6  A    between atoms: C_11  and  S_15
    7  A    between atoms: C_12  and  C_19
    8  A    between atoms: C_13  and  C_21
    9  A    between atoms: S_15  and  C_33
   10  A    between atoms: C_17  and  C_21
   11  A    between atoms: C_19  and  C_28
   12  A    between atoms: C_19  and  C_33
                            x       y       z     vdW  Elec       q    Type
                         _______ _______ _______ _____ _____    ______ ____

>  <TORSDO>
F 12

$$$$
