=
 OpenBabel11062421153D

 33 37  0  0  1  0  0  0  0  0999 V2000
  191.5640  175.7290  147.2300 C   0  0  2  0  0  3  0  0  0  0  0  0
  189.2550  177.6320  143.5260 C   0  0  0  0  0  2  0  0  0  0  0  0
  187.8480  177.8560  142.9400 C   0  0  1  0  0  3  0  0  0  0  0  0
  187.0850  177.7240  140.5450 C   0  0  0  0  0  3  0  0  0  0  0  0
  187.6660  177.1000  141.6550 C   0  0  0  0  0  0  0  0  0  0  0  0
  191.1800  172.9510  142.6170 C   0  0  0  0  0  2  0  0  0  0  0  0
  192.8130  174.9960  146.7580 C   0  0  0  0  0  2  0  0  0  0  0  0
  189.0410  173.0530  141.3190 C   0  0  0  0  0  2  0  0  0  0  0  0
  189.3080  176.2880  144.2520 C   0  0  1  0  0  3  0  0  0  0  0  0
  190.6750  176.0390  144.8610 C   0  0  2  0  0  3  0  0  0  0  0  0
  189.0930  176.1580  146.6920 C   0  0  1  0  0  3  0  0  0  0  0  0
  188.0560  175.7600  141.5600 C   0  0  0  0  0  3  0  0  0  0  0  0
  186.1360  176.9300  146.1700 O   0  0  0  0  0  1  0  0  0  0  0  0
  193.0460  175.1620  144.2060 C   0  0  1  0  0  0  0  0  0  0  0  0
  187.3280  175.6760  139.2620 C   0  0  0  0  0  3  0  0  0  0  0  0
  191.4970  175.0590  144.0050 C   0  0  1  0  0  3  0  0  0  0  0  0
  187.2070  177.2950  145.3560 C   0  0  2  0  0  3  0  0  0  0  0  0
  193.4410  175.7320  145.5820 C   0  0  0  0  0  2  0  0  0  0  0  0
  187.9090  175.0460  140.3680 C   0  0  0  0  0  0  0  0  0  0  0  0
  190.8790  173.6490  143.9420 C   0  0  0  0  0  2  0  0  0  0  0  0
  186.7130  177.5070  143.9230 C   0  0  0  0  0  2  0  0  0  0  0  0
  190.4540  173.6010  141.4490 C   0  0  0  0  0  2  0  0  0  0  0  0
  193.7530  173.8140  144.0450 C   0  0  0  0  0  1  0  0  0  0  0  0
  191.2200  175.2560  148.4970 O   0  0  0  0  0  1  0  0  0  0  0  0
  188.3480  173.7200  140.2650 O   0  0  0  0  0  0  0  0  0  0  0  0
  189.3340  177.4560  147.1610 O   0  0  0  0  0  1  0  0  0  0  0  0
  188.2890  176.2020  145.3970 C   0  0  1  0  0  3  0  0  0  0  0  0
  186.9140  177.0120  139.3520 C   0  0  0  0  0  3  0  0  0  0  0  0
  190.4010  175.5010  146.2630 C   0  0  2  0  0  3  0  0  0  0  0  0
  193.5800  176.1290  143.1340 C   0  0  2  0  0  3  0  0  0  0  0  0
  193.2900  175.6620  141.8470 O   0  0  0  0  0  1  0  0  0  0  0  0
  194.9600  176.3250  143.2590 O   0  0  0  0  0  0  0  0  0  0  0  0
  195.4420  176.3130  141.9480 C   0  0  0  0  0  1  0  0  0  0  0  0
  1 24  1  1  0  0  0
  3  2  1  1  0  0  0
  3 21  1  0  0  0  0
  4  5  1  0  0  0  0
  5  3  1  0  0  0  0
  6 20  1  0  0  0  0
  7  1  1  0  0  0  0
  8 22  1  0  0  0  0
  9  2  1  1  0  0  0
  9 10  1  0  0  0  0
  9 27  1  0  0  0  0
 10 29  1  0  0  0  0
 11 26  1  0  0  0  0
 12  5  2  0  0  0  0
 14 18  1  0  0  0  0
 15 28  1  0  0  0  0
 15 19  2  0  0  0  0
 16 14  1  0  0  0  0
 16 10  1  0  0  0  0
 17 27  1  0  0  0  0
 17 13  1  0  0  0  0
 18  7  1  0  0  0  0
 19 12  1  0  0  0  0
 20 16  1  0  0  0  0
 21 17  1  0  0  0  0
 22  6  1  0  0  0  0
 23 14  1  0  0  0  0
 25 19  1  0  0  0  0
 25  8  1  0  0  0  0
 27 11  1  0  0  0  0
 28  4  2  0  0  0  0
 29 11  1  0  0  0  0
 29  1  1  0  0  0  0
 30 32  1  0  0  0  0
 30 14  1  0  0  0  0
 31 30  1  0  0  0  0
 33 32  1  0  0  0  0
M  END
>  <MODEL>
1

>  <REMARK>
 VINA RESULT:      -7.8      0.000      0.000
  Name = 
  2 active torsions:
  status: ('A' for Active; 'I' for Inactive)
    1  A    between atoms: C_6  and  C_15
    2  A    between atoms: C_6  and  O_19
                            x       y       z     vdW  Elec       q    Type
                         _______ _______ _______ _____ _____    ______ ____

>  <TORSDO>
F 2

$$$$
=
 OpenBabel11062421153D

 33 37  0  0  1  0  0  0  0  0999 V2000
  192.0030  176.7900  147.0610 C   0  0  2  0  0  3  0  0  0  0  0  0
  189.9480  176.4910  142.7760 C   0  0  0  0  0  2  0  0  0  0  0  0
  188.6120  176.1850  142.0740 C   0  0  1  0  0  3  0  0  0  0  0  0
  188.1910  174.9150  139.9420 C   0  0  0  0  0  3  0  0  0  0  0  0
  188.7050  174.9380  141.2430 C   0  0  0  0  0  0  0  0  0  0  0  0
  192.6130  172.3040  144.1210 C   0  0  0  0  0  2  0  0  0  0  0  0
  193.3930  176.1680  147.0290 C   0  0  0  0  0  2  0  0  0  0  0  0
  190.6670  171.4550  142.7930 C   0  0  0  0  0  2  0  0  0  0  0  0
  190.0950  175.6150  144.0200 C   0  0  1  0  0  3  0  0  0  0  0  0
  191.3930  175.9010  144.7510 C   0  0  2  0  0  3  0  0  0  0  0  0
  189.5860  176.4910  146.2530 C   0  0  1  0  0  3  0  0  0  0  0  0
  189.2900  173.7790  141.7670 C   0  0  0  0  0  3  0  0  0  0  0  0
  186.6430  176.4160  145.2820 O   0  0  0  0  0  1  0  0  0  0  0  0
  193.9280  175.2800  144.6800 C   0  0  1  0  0  0  0  0  0  0  0  0
  188.8840  172.6000  139.7020 C   0  0  0  0  0  3  0  0  0  0  0  0
  192.4490  174.8200  144.4590 C   0  0  1  0  0  3  0  0  0  0  0  0
  187.7480  176.5920  144.4520 C   0  0  2  0  0  3  0  0  0  0  0  0
  194.0580  176.4400  145.6860 C   0  0  0  0  0  2  0  0  0  0  0  0
  189.4000  172.6140  141.0030 C   0  0  0  0  0  0  0  0  0  0  0  0
  192.0480  173.4280  144.9860 C   0  0  0  0  0  2  0  0  0  0  0  0
  187.4200  176.0840  143.0460 C   0  0  0  0  0  2  0  0  0  0  0  0
  191.9610  172.2540  142.7480 C   0  0  0  0  0  2  0  0  0  0  0  0
  194.8320  174.1450  145.1660 C   0  0  0  0  0  1  0  0  0  0  0  0
  191.5670  176.8440  148.3860 O   0  0  0  0  0  1  0  0  0  0  0  0
  190.0300  171.4740  141.5170 O   0  0  0  0  0  0  0  0  0  0  0  0
  189.5800  177.8860  146.1180 O   0  0  0  0  0  1  0  0  0  0  0  0
  188.9580  175.8360  145.0280 C   0  0  1  0  0  3  0  0  0  0  0  0
  188.2780  173.7480  139.1750 C   0  0  0  0  0  3  0  0  0  0  0  0
  191.0180  175.9670  146.2290 C   0  0  2  0  0  3  0  0  0  0  0  0
  194.4560  175.7830  143.3240 C   0  0  2  0  0  3  0  0  0  0  0  0
  194.5770  174.7300  142.4110 O   0  0  0  0  0  1  0  0  0  0  0  0
  195.6900  176.4270  143.4580 O   0  0  0  0  0  0  0  0  0  0  0  0
  196.2420  176.4130  142.1760 C   0  0  0  0  0  1  0  0  0  0  0  0
  1 24  1  1  0  0  0
  3  2  1  1  0  0  0
  3 21  1  0  0  0  0
  4  5  1  0  0  0  0
  5 12  2  0  0  0  0
  5  3  1  0  0  0  0
  6 20  1  0  0  0  0
  7  1  1  0  0  0  0
  9  2  1  6  0  0  0
  9 10  1  0  0  0  0
  9 27  1  0  0  0  0
 10 29  1  0  0  0  0
 14 23  1  0  0  0  0
 14 18  1  0  0  0  0
 15 19  2  0  0  0  0
 16 14  1  0  0  0  0
 16 10  1  0  0  0  0
 16 20  1  0  0  0  0
 17 27  1  0  0  0  0
 17 13  1  0  0  0  0
 18  7  1  0  0  0  0
 19 25  1  0  0  0  0
 19 12  1  0  0  0  0
 21 17  1  0  0  0  0
 22  8  1  0  0  0  0
 22  6  1  0  0  0  0
 25  8  1  0  0  0  0
 26 11  1  0  0  0  0
 27 11  1  0  0  0  0
 28 15  1  0  0  0  0
 28  4  2  0  0  0  0
 29 11  1  0  0  0  0
 29  1  1  0  0  0  0
 30 32  1  0  0  0  0
 30 14  1  0  0  0  0
 31 30  1  0  0  0  0
 33 32  1  0  0  0  0
M  END
>  <MODEL>
2

>  <REMARK>
 VINA RESULT:      -7.6      1.398      1.890
  Name = 
  2 active torsions:
  status: ('A' for Active; 'I' for Inactive)
    1  A    between atoms: C_6  and  C_15
    2  A    between atoms: C_6  and  O_19
                            x       y       z     vdW  Elec       q    Type
                         _______ _______ _______ _____ _____    ______ ____

>  <TORSDO>
F 2

$$$$
=
 OpenBabel11062421153D

 33 37  0  0  1  0  0  0  0  0999 V2000
  195.6290  174.7110  145.1810 C   0  0  2  0  0  3  0  0  0  0  0  0
  191.6540  177.1060  144.1150 C   0  0  0  0  0  2  0  0  0  0  0  0
  190.2700  177.4970  144.6680 C   0  0  1  0  0  3  0  0  0  0  0  0
  188.0600  177.6300  143.4710 C   0  0  0  0  0  3  0  0  0  0  0  0
  189.1650  176.8690  143.8670 C   0  0  0  0  0  0  0  0  0  0  0  0
  191.8480  172.3710  142.1190 C   0  0  0  0  0  2  0  0  0  0  0  0
  196.1100  173.9170  143.9740 C   0  0  0  0  0  2  0  0  0  0  0  0
  189.4360  172.7620  142.6660 C   0  0  0  0  0  2  0  0  0  0  0  0
  192.0310  175.7060  144.5990 C   0  0  1  0  0  3  0  0  0  0  0  0
  193.3980  175.2930  144.0910 C   0  0  2  0  0  3  0  0  0  0  0  0
  193.5400  175.3920  146.5070 C   0  0  1  0  0  3  0  0  0  0  0  0
  189.2200  175.5130  143.5260 C   0  0  0  0  0  3  0  0  0  0  0  0
  191.1570  176.4530  148.1810 O   0  0  0  0  0  1  0  0  0  0  0  0
  194.5410  174.2750  141.9740 C   0  0  1  0  0  0  0  0  0  0  0  0
  187.1070  175.6830  142.3740 C   0  0  0  0  0  3  0  0  0  0  0  0
  193.2820  174.3210  142.9020 C   0  0  1  0  0  3  0  0  0  0  0  0
  191.4070  176.7930  146.8530 C   0  0  2  0  0  3  0  0  0  0  0  0
  195.8390  174.6930  142.6920 C   0  0  0  0  0  2  0  0  0  0  0  0
  188.2090  174.9160  142.7680 C   0  0  0  0  0  0  0  0  0  0  0  0
  192.6280  172.9780  143.2830 C   0  0  0  0  0  2  0  0  0  0  0  0
  190.0930  177.1650  146.1630 C   0  0  0  0  0  2  0  0  0  0  0  0
  190.6030  173.1750  141.7810 C   0  0  0  0  0  2  0  0  0  0  0  0
  194.7750  172.8900  141.3660 C   0  0  0  0  0  1  0  0  0  0  0  0
  196.1980  174.1660  146.3330 O   0  0  0  0  0  1  0  0  0  0  0  0
  188.2950  173.5710  142.3880 O   0  0  0  0  0  0  0  0  0  0  0  0
  194.1910  176.6210  146.6800 O   0  0  0  0  0  1  0  0  0  0  0  0
  192.0790  175.6120  146.1320 C   0  0  1  0  0  3  0  0  0  0  0  0
  187.0320  177.0370  142.7290 C   0  0  0  0  0  3  0  0  0  0  0  0
  194.1030  174.6650  145.2900 C   0  0  2  0  0  3  0  0  0  0  0  0
  194.3010  175.2790  140.8320 C   0  0  2  0  0  3  0  0  0  0  0  0
  193.4410  174.7450  139.8660 O   0  0  0  0  0  1  0  0  0  0  0  0
  195.5010  175.6660  140.2250 O   0  0  0  0  0  0  0  0  0  0  0  0
  195.3620  175.2910  138.8880 C   0  0  0  0  0  1  0  0  0  0  0  0
  1 29  1  0  0  0  0
  1 24  1  1  0  0  0
  3  2  1  6  0  0  0
  3 21  1  0  0  0  0
  4  5  1  0  0  0  0
  5  3  1  0  0  0  0
  6 20  1  0  0  0  0
  7  1  1  0  0  0  0
  9  2  1  1  0  0  0
  9 27  1  0  0  0  0
 10  9  1  0  0  0  0
 10 29  1  0  0  0  0
 11 26  1  0  0  0  0
 12  5  2  0  0  0  0
 14 18  1  0  0  0  0
 14 16  1  0  0  0  0
 15 28  1  0  0  0  0
 15 19  2  0  0  0  0
 16 20  1  0  0  0  0
 16 10  1  0  0  0  0
 17 13  1  0  0  0  0
 18  7  1  0  0  0  0
 19 12  1  0  0  0  0
 21 17  1  0  0  0  0
 22  6  1  0  0  0  0
 22  8  1  0  0  0  0
 23 14  1  0  0  0  0
 25  8  1  0  0  0  0
 25 19  1  0  0  0  0
 27 11  1  0  0  0  0
 27 17  1  0  0  0  0
 28  4  2  0  0  0  0
 29 11  1  0  0  0  0
 30 14  1  0  0  0  0
 31 30  1  0  0  0  0
 32 30  1  0  0  0  0
 33 32  1  0  0  0  0
M  END
>  <MODEL>
3

>  <REMARK>
 VINA RESULT:      -7.4      1.958      3.373
  Name = 
  2 active torsions:
  status: ('A' for Active; 'I' for Inactive)
    1  A    between atoms: C_6  and  C_15
    2  A    between atoms: C_6  and  O_19
                            x       y       z     vdW  Elec       q    Type
                         _______ _______ _______ _____ _____    ______ ____

>  <TORSDO>
F 2

$$$$
=
 OpenBabel11062421153D

 33 37  0  0  1  0  0  0  0  0999 V2000
  187.9470  177.8650  146.4650 C   0  0  2  0  0  3  0  0  0  0  0  0
  187.6870  178.0690  141.7150 C   0  0  0  0  0  2  0  0  0  0  0  0
  186.7220  177.8820  140.5290 C   0  0  1  0  0  3  0  0  0  0  0  0
  187.1570  176.8480  138.2750 C   0  0  0  0  0  3  0  0  0  0  0  0
  187.1340  176.7220  139.6680 C   0  0  0  0  0  0  0  0  0  0  0  0
  189.6650  173.6790  143.5190 C   0  0  0  0  0  2  0  0  0  0  0  0
  189.2480  177.2020  146.8980 C   0  0  0  0  0  2  0  0  0  0  0  0
  188.3790  173.0350  141.4690 C   0  0  0  0  0  2  0  0  0  0  0  0
  187.3540  177.0680  142.8200 C   0  0  1  0  0  3  0  0  0  0  0  0
  188.2720  177.2350  144.0150 C   0  0  2  0  0  3  0  0  0  0  0  0
  186.0240  177.7320  144.7710 C   0  0  1  0  0  3  0  0  0  0  0  0
  187.4820  175.4970  140.2490 C   0  0  0  0  0  3  0  0  0  0  0  0
  183.6760  177.8560  142.7510 O   0  0  0  0  0  1  0  0  0  0  0  0
  190.6470  176.5370  144.8490 C   0  0  1  0  0  0  0  0  0  0  0  0
  187.9040  174.5460  138.0730 C   0  0  0  0  0  3  0  0  0  0  0  0
  189.3670  176.1520  144.0340 C   0  0  1  0  0  3  0  0  0  0  0  0
  185.0140  178.0760  142.4280 C   0  0  2  0  0  3  0  0  0  0  0  0
  190.3750  177.5840  145.9460 C   0  0  0  0  0  2  0  0  0  0  0  0
  187.8830  174.4120  139.4650 C   0  0  0  0  0  0  0  0  0  0  0  0
  188.8040  174.7290  144.2190 C   0  0  0  0  0  2  0  0  0  0  0  0
  185.2500  177.7240  140.9570 C   0  0  0  0  0  2  0  0  0  0  0  0
  189.5870  173.7900  142.0050 C   0  0  0  0  0  2  0  0  0  0  0  0
  191.3040  175.3280  145.5190 C   0  0  0  0  0  1  0  0  0  0  0  0
  187.0380  177.7990  147.5210 O   0  0  0  0  0  1  0  0  0  0  0  0
  188.2780  173.2050  140.0560 O   0  0  0  0  0  0  0  0  0  0  0  0
  186.0610  179.1330  144.7930 O   0  0  0  0  0  1  0  0  0  0  0  0
  185.9170  177.2260  143.3370 C   0  0  1  0  0  3  0  0  0  0  0  0
  187.5380  175.7620  137.4790 C   0  0  0  0  0  3  0  0  0  0  0  0
  187.3610  177.1630  145.2380 C   0  0  2  0  0  3  0  0  0  0  0  0
  191.6480  177.1550  143.8570 C   0  0  2  0  0  3  0  0  0  0  0  0
  191.0920  177.2540  142.5770 O   0  0  0  0  0  1  0  0  0  0  0  0
  192.8340  176.4140  143.7940 O   0  0  0  0  0  0  0  0  0  0  0  0
  192.9370  176.0190  142.4580 C   0  0  0  0  0  1  0  0  0  0  0  0
  1  7  1  0  0  0  0
  1 24  1  1  0  0  0
  3 21  1  1  0  0  0
  3  2  1  0  0  0  0
  4  5  1  0  0  0  0
  5 12  2  0  0  0  0
  5  3  1  0  0  0  0
  6 20  1  0  0  0  0
  8 22  1  0  0  0  0
  9  2  1  6  0  0  0
  9 27  1  0  0  0  0
  9 10  1  0  0  0  0
 10 16  1  0  0  0  0
 10 29  1  0  0  0  0
 11 26  1  0  0  0  0
 11 29  1  0  0  0  0
 14 23  1  0  0  0  0
 14 18  1  0  0  0  0
 15 19  2  0  0  0  0
 16 20  1  0  0  0  0
 16 14  1  0  0  0  0
 17 13  1  0  0  0  0
 17 27  1  0  0  0  0
 18  7  1  0  0  0  0
 19 25  1  0  0  0  0
 19 12  1  0  0  0  0
 21 17  1  0  0  0  0
 22  6  1  0  0  0  0
 25  8  1  0  0  0  0
 27 11  1  0  0  0  0
 28 15  1  0  0  0  0
 28  4  2  0  0  0  0
 29  1  1  0  0  0  0
 30 14  1  0  0  0  0
 31 30  1  0  0  0  0
 32 30  1  0  0  0  0
 33 32  1  0  0  0  0
M  END
>  <MODEL>
4

>  <REMARK>
 VINA RESULT:      -7.0      1.713      2.941
  Name = 
  2 active torsions:
  status: ('A' for Active; 'I' for Inactive)
    1  A    between atoms: C_6  and  C_15
    2  A    between atoms: C_6  and  O_19
                            x       y       z     vdW  Elec       q    Type
                         _______ _______ _______ _____ _____    ______ ____

>  <TORSDO>
F 2

$$$$
=
 OpenBabel11062421153D

 33 37  0  0  1  0  0  0  0  0999 V2000
  189.6940  176.4480  143.1540 C   0  0  2  0  0  3  0  0  0  0  0  0
  193.0410  173.8370  145.3110 C   0  0  0  0  0  2  0  0  0  0  0  0
  194.4720  173.9010  145.8780 C   0  0  1  0  0  3  0  0  0  0  0  0
  196.3040  172.1790  145.7630 C   0  0  0  0  0  3  0  0  0  0  0  0
  195.4070  173.0220  145.0970 C   0  0  0  0  0  0  0  0  0  0  0  0
  192.8340  173.1850  140.2140 C   0  0  0  0  0  2  0  0  0  0  0  0
  189.0160  175.6400  142.0550 C   0  0  0  0  0  2  0  0  0  0  0  0
  195.2570  172.9780  140.8130 C   0  0  0  0  0  2  0  0  0  0  0  0
  192.9300  174.7310  144.0760 C   0  0  1  0  0  3  0  0  0  0  0  0
  191.5280  174.7110  143.5000 C   0  0  2  0  0  3  0  0  0  0  0  0
  191.9640  176.9810  144.2250 C   0  0  1  0  0  3  0  0  0  0  0  0
  195.4040  173.0500  143.6980 C   0  0  0  0  0  3  0  0  0  0  0  0
  194.5650  177.6690  145.7650 O   0  0  0  0  0  1  0  0  0  0  0  0
  190.0130  173.2780  141.9270 C   0  0  1  0  0  0  0  0  0  0  0  0
  197.1500  171.3860  143.6280 C   0  0  0  0  0  3  0  0  0  0  0  0
  191.4490  173.8090  142.2550 C   0  0  1  0  0  3  0  0  0  0  0  0
  193.9700  176.4090  145.7350 C   0  0  2  0  0  3  0  0  0  0  0  0
  188.8930  174.1820  142.4760 C   0  0  0  0  0  2  0  0  0  0  0  0
  196.2560  172.2270  142.9560 C   0  0  0  0  0  0  0  0  0  0  0  0
  192.3030  174.3260  141.0810 C   0  0  0  0  0  2  0  0  0  0  0  0
  195.0360  175.3330  145.9550 C   0  0  0  0  0  2  0  0  0  0  0  0
  193.8770  172.3500  140.9410 C   0  0  0  0  0  2  0  0  0  0  0  0
  189.7760  173.1110  140.4240 C   0  0  0  0  0  1  0  0  0  0  0  0
  189.4760  177.8050  142.9110 O   0  0  0  0  0  1  0  0  0  0  0  0
  196.2130  172.2240  141.5570 O   0  0  0  0  0  0  0  0  0  0  0  0
  191.2570  177.0080  145.4350 O   0  0  0  0  0  1  0  0  0  0  0  0
  193.2620  176.1980  144.3860 C   0  0  1  0  0  3  0  0  0  0  0  0
  197.1760  171.3650  145.0290 C   0  0  0  0  0  3  0  0  0  0  0  0
  191.1980  176.1670  143.1860 C   0  0  2  0  0  3  0  0  0  0  0  0
  189.8720  171.9020  142.6030 C   0  0  2  0  0  3  0  0  0  0  0  0
  189.3160  172.0260  143.8820 O   0  0  0  0  0  1  0  0  0  0  0  0
  191.1030  171.2430  142.6920 O   0  0  0  0  0  0  0  0  0  0  0  0
  190.9130  170.0380  142.0130 C   0  0  0  0  0  1  0  0  0  0  0  0
  1 24  1  6  0  0  0
  1 29  1  0  0  0  0
  3  2  1  6  0  0  0
  3 21  1  0  0  0  0
  5  4  1  0  0  0  0
  5  3  1  0  0  0  0
  6 22  1  0  0  0  0
  6 20  1  0  0  0  0
  7 18  1  0  0  0  0
  7  1  1  0  0  0  0
  8 22  1  0  0  0  0
  8 25  1  0  0  0  0
  9 27  1  0  0  0  0
  9  2  1  1  0  0  0
 10  9  1  0  0  0  0
 11 27  1  0  0  0  0
 11 26  1  0  0  0  0
 12  5  2  0  0  0  0
 14 16  1  0  0  0  0
 14 18  1  0  0  0  0
 14 30  1  0  0  0  0
 15 28  1  0  0  0  0
 16 10  1  0  0  0  0
 17 13  1  0  0  0  0
 17 21  1  0  0  0  0
 19 15  2  0  0  0  0
 19 12  1  0  0  0  0
 20 16  1  0  0  0  0
 23 14  1  0  0  0  0
 25 19  1  0  0  0  0
 27 17  1  0  0  0  0
 28  4  2  0  0  0  0
 29 10  1  0  0  0  0
 29 11  1  0  0  0  0
 30 32  1  0  0  0  0
 30 31  1  0  0  0  0
 33 32  1  0  0  0  0
M  END
>  <MODEL>
5

>  <REMARK>
 VINA RESULT:      -7.0      2.622      6.845
  Name = 
  2 active torsions:
  status: ('A' for Active; 'I' for Inactive)
    1  A    between atoms: C_6  and  C_15
    2  A    between atoms: C_6  and  O_19
                            x       y       z     vdW  Elec       q    Type
                         _______ _______ _______ _____ _____    ______ ____

>  <TORSDO>
F 2

$$$$
=
 OpenBabel11062421153D

 33 37  0  0  1  0  0  0  0  0999 V2000
  188.8230  173.0230  140.2970 C   0  0  2  0  0  3  0  0  0  0  0  0
  189.7070  174.5370  144.7240 C   0  0  0  0  0  2  0  0  0  0  0  0
  189.7090  175.7940  145.6140 C   0  0  1  0  0  3  0  0  0  0  0  0
  191.3490  176.4730  147.3990 C   0  0  0  0  0  3  0  0  0  0  0  0
  191.1000  176.1410  146.0630 C   0  0  0  0  0  0  0  0  0  0  0  0
  193.9090  174.0300  141.8030 C   0  0  0  0  0  2  0  0  0  0  0  0
  189.8860  172.0260  139.8540 C   0  0  0  0  0  2  0  0  0  0  0  0
  194.3630  175.9970  143.2860 C   0  0  0  0  0  2  0  0  0  0  0  0
  190.1270  174.9050  143.3010 C   0  0  1  0  0  3  0  0  0  0  0  0
  190.1170  173.6950  142.3880 C   0  0  2  0  0  3  0  0  0  0  0  0
  188.4570  175.2400  141.5350 C   0  0  1  0  0  3  0  0  0  0  0  0
  192.1580  176.1560  145.1470 C   0  0  0  0  0  3  0  0  0  0  0  0
  187.7570  177.8200  143.1040 O   0  0  0  0  0  1  0  0  0  0  0  0
  191.6120  171.6600  141.7190 C   0  0  1  0  0  0  0  0  0  0  0  0
  193.7020  176.7910  146.8880 C   0  0  0  0  0  3  0  0  0  0  0  0
  191.5420  173.1630  142.1510 C   0  0  1  0  0  3  0  0  0  0  0  0
  188.2750  176.6600  143.6760 C   0  0  2  0  0  3  0  0  0  0  0  0
  190.3240  171.1670  141.0330 C   0  0  0  0  0  2  0  0  0  0  0  0
  193.4600  176.4610  145.5490 C   0  0  0  0  0  0  0  0  0  0  0  0
  192.4420  174.1630  141.3990 C   0  0  0  0  0  2  0  0  0  0  0  0
  189.0490  177.0160  144.9480 C   0  0  0  0  0  2  0  0  0  0  0  0
  194.1540  174.4900  143.2310 C   0  0  0  0  0  2  0  0  0  0  0  0
  192.7790  171.3720  140.7710 C   0  0  0  0  0  1  0  0  0  0  0  0
  188.1910  173.5370  139.1640 O   0  0  0  0  0  1  0  0  0  0  0  0
  194.5220  176.4250  144.6370 O   0  0  0  0  0  0  0  0  0  0  0  0
  187.2800  174.6470  142.0130 O   0  0  0  0  0  1  0  0  0  0  0  0
  189.1930  175.9470  142.6680 C   0  0  1  0  0  3  0  0  0  0  0  0
  192.6460  176.8000  147.8100 C   0  0  0  0  0  3  0  0  0  0  0  0
  189.4490  174.1650  141.1000 C   0  0  2  0  0  3  0  0  0  0  0  0
  191.8020  170.8270  143.0000 C   0  0  2  0  0  3  0  0  0  0  0  0
  192.2340  171.6300  144.0610 O   0  0  0  0  0  1  0  0  0  0  0  0
  192.7120  169.7830  142.8050 O   0  0  0  0  0  0  0  0  0  0  0  0
  193.0660  169.3730  144.0920 C   0  0  0  0  0  1  0  0  0  0  0  0
  1 24  1  6  0  0  0
  1 29  1  0  0  0  0
  3  2  1  6  0  0  0
  3  5  1  0  0  0  0
  4 28  1  0  0  0  0
  5  4  2  0  0  0  0
  6 22  1  0  0  0  0
  7  1  1  0  0  0  0
  7 18  1  0  0  0  0
  8 25  1  0  0  0  0
  9  2  1  1  0  0  0
 10  9  1  0  0  0  0
 11 26  1  0  0  0  0
 11 27  1  0  0  0  0
 12 19  2  0  0  0  0
 12  5  1  0  0  0  0
 13 17  1  0  0  0  0
 14 16  1  0  0  0  0
 14 30  1  0  0  0  0
 15 28  2  0  0  0  0
 16 10  1  0  0  0  0
 17 21  1  0  0  0  0
 18 14  1  0  0  0  0
 19 15  1  0  0  0  0
 20  6  1  0  0  0  0
 20 16  1  0  0  0  0
 21  3  1  0  0  0  0
 22  8  1  0  0  0  0
 23 14  1  0  0  0  0
 25 19  1  0  0  0  0
 27  9  1  0  0  0  0
 27 17  1  0  0  0  0
 29 11  1  0  0  0  0
 29 10  1  0  0  0  0
 30 31  1  0  0  0  0
 32 30  1  0  0  0  0
 32 33  1  0  0  0  0
M  END
>  <MODEL>
6

>  <REMARK>
 VINA RESULT:      -6.9      2.201      5.999
  Name = 
  2 active torsions:
  status: ('A' for Active; 'I' for Inactive)
    1  A    between atoms: C_6  and  C_15
    2  A    between atoms: C_6  and  O_19
                            x       y       z     vdW  Elec       q    Type
                         _______ _______ _______ _____ _____    ______ ____

>  <TORSDO>
F 2

$$$$
=
 OpenBabel11062421153D

 33 37  0  0  1  0  0  0  0  0999 V2000
  193.9590  173.5500  139.4810 C   0  0  2  0  0  3  0  0  0  0  0  0
  191.7710  176.2970  142.6960 C   0  0  0  0  0  2  0  0  0  0  0  0
  191.9110  176.8730  144.1180 C   0  0  1  0  0  3  0  0  0  0  0  0
  190.1500  177.1740  145.8910 C   0  0  0  0  0  3  0  0  0  0  0  0
  190.8580  176.3220  145.0360 C   0  0  0  0  0  0  0  0  0  0  0  0
  190.0500  171.4530  142.5600 C   0  0  0  0  0  2  0  0  0  0  0  0
  192.9550  172.6320  138.7950 C   0  0  0  0  0  2  0  0  0  0  0  0
  189.9030  172.1430  144.9620 C   0  0  0  0  0  2  0  0  0  0  0  0
  192.3830  174.8980  142.6380 C   0  0  1  0  0  3  0  0  0  0  0  0
  192.2810  174.3050  141.2470 C   0  0  2  0  0  3  0  0  0  0  0  0
  194.6400  174.5400  141.7480 C   0  0  1  0  0  3  0  0  0  0  0  0
  190.5860  174.9490  145.0600 C   0  0  0  0  0  3  0  0  0  0  0  0
  195.5630  175.9620  144.3430 O   0  0  0  0  0  1  0  0  0  0  0  0
  190.5910  173.0350  139.7130 C   0  0  1  0  0  0  0  0  0  0  0  0
  188.8950  175.2800  146.7470 C   0  0  0  0  0  3  0  0  0  0  0  0
  191.1370  173.2790  141.1590 C   0  0  1  0  0  3  0  0  0  0  0  0
  194.3440  176.1870  143.7050 C   0  0  2  0  0  3  0  0  0  0  0  0
  191.6250  173.3510  138.6140 C   0  0  0  0  0  2  0  0  0  0  0  0
  189.5990  174.4210  145.8960 C   0  0  0  0  0  0  0  0  0  0  0  0
  191.3650  172.0430  142.0530 C   0  0  0  0  0  2  0  0  0  0  0  0
  193.3090  176.6580  144.7290 C   0  0  0  0  0  2  0  0  0  0  0  0
  189.3590  172.3670  143.5590 C   0  0  0  0  0  2  0  0  0  0  0  0
  190.1140  171.5970  139.4970 C   0  0  0  0  0  1  0  0  0  0  0  0
  195.2380  173.0190  139.3140 O   0  0  0  0  0  1  0  0  0  0  0  0
  189.2980  173.0540  145.8780 O   0  0  0  0  0  0  0  0  0  0  0  0
  194.9460  175.6980  141.0210 O   0  0  0  0  0  1  0  0  0  0  0  0
  193.8710  174.8960  143.0150 C   0  0  1  0  0  3  0  0  0  0  0  0
  189.1730  176.6530  146.7470 C   0  0  0  0  0  3  0  0  0  0  0  0
  193.6470  173.6790  140.9730 C   0  0  2  0  0  3  0  0  0  0  0  0
  189.3970  173.9860  139.5110 C   0  0  2  0  0  3  0  0  0  0  0  0
  188.8130  174.3250  140.7370 O   0  0  0  0  0  1  0  0  0  0  0  0
  188.4280  173.4240  138.6730 O   0  0  0  0  0  0  0  0  0  0  0  0
  187.8790  174.5080  137.9850 C   0  0  0  0  0  1  0  0  0  0  0  0
  1 24  1  1  0  0  0
  1 29  1  0  0  0  0
  3  2  1  6  0  0  0
  3 21  1  0  0  0  0
  3  5  1  0  0  0  0
  4 28  1  0  0  0  0
  5 12  1  0  0  0  0
  5  4  2  0  0  0  0
  6 22  1  0  0  0  0
  7  1  1  0  0  0  0
  8 25  1  0  0  0  0
  9  2  1  6  0  0  0
  9 27  1  0  0  0  0
 10  9  1  0  0  0  0
 11 27  1  0  0  0  0
 12 19  2  0  0  0  0
 14 16  1  0  0  0  0
 15 28  2  0  0  0  0
 16 10  1  0  0  0  0
 16 20  1  0  0  0  0
 17 13  1  0  0  0  0
 17 21  1  0  0  0  0
 18  7  1  0  0  0  0
 18 14  1  0  0  0  0
 19 15  1  0  0  0  0
 20  6  1  0  0  0  0
 22  8  1  0  0  0  0
 23 14  1  0  0  0  0
 25 19  1  0  0  0  0
 26 11  1  0  0  0  0
 27 17  1  0  0  0  0
 29 10  1  0  0  0  0
 29 11  1  0  0  0  0
 30 14  1  0  0  0  0
 30 31  1  0  0  0  0
 32 30  1  0  0  0  0
 33 32  1  0  0  0  0
M  END
>  <MODEL>
7

>  <REMARK>
 VINA RESULT:      -6.7      2.537      6.398
  Name = 
  2 active torsions:
  status: ('A' for Active; 'I' for Inactive)
    1  A    between atoms: C_6  and  C_15
    2  A    between atoms: C_6  and  O_19
                            x       y       z     vdW  Elec       q    Type
                         _______ _______ _______ _____ _____    ______ ____

>  <TORSDO>
F 2

$$$$
=
 OpenBabel11062421153D

 33 37  0  0  1  0  0  0  0  0999 V2000
  189.7570  172.9860  144.8880 C   0  0  2  0  0  3  0  0  0  0  0  0
  192.6640  174.4310  141.4040 C   0  0  0  0  0  2  0  0  0  0  0  0
  193.7450  173.9390  140.4240 C   0  0  1  0  0  3  0  0  0  0  0  0
  195.8600  175.0860  139.6840 C   0  0  0  0  0  3  0  0  0  0  0  0
  195.0770  174.5660  140.7210 C   0  0  0  0  0  0  0  0  0  0  0  0
  194.4170  175.4100  146.1380 C   0  0  0  0  0  2  0  0  0  0  0  0
  189.7230  174.0140  146.0110 C   0  0  0  0  0  2  0  0  0  0  0  0
  196.4500  174.8990  144.7690 C   0  0  0  0  0  2  0  0  0  0  0  0
  192.7790  173.6770  142.7280 C   0  0  1  0  0  3  0  0  0  0  0  0
  191.7160  174.1210  143.7140 C   0  0  2  0  0  3  0  0  0  0  0  0
  191.3080  171.7810  143.2370 C   0  0  1  0  0  3  0  0  0  0  0  0
  195.5570  174.6210  142.0340 C   0  0  0  0  0  3  0  0  0  0  0  0
  192.9580  170.3070  141.0650 O   0  0  0  0  0  1  0  0  0  0  0  0
  191.2420  176.0080  145.4570 C   0  0  1  0  0  0  0  0  0  0  0  0
  197.5640  175.7340  141.2900 C   0  0  0  0  0  3  0  0  0  0  0  0
  192.2980  175.0800  144.7680 C   0  0  1  0  0  3  0  0  0  0  0  0
  192.7340  171.6830  141.0940 C   0  0  2  0  0  3  0  0  0  0  0  0
  189.8170  175.4220  145.4380 C   0  0  0  0  0  2  0  0  0  0  0  0
  196.7870  175.2160  142.3310 C   0  0  0  0  0  0  0  0  0  0  0  0
  193.3570  174.4140  145.6690 C   0  0  0  0  0  2  0  0  0  0  0  0
  193.8820  172.4040  140.3850 C   0  0  0  0  0  2  0  0  0  0  0  0
  195.3080  175.8780  144.9980 C   0  0  0  0  0  2  0  0  0  0  0  0
  191.5930  176.3220  146.9130 C   0  0  0  0  0  1  0  0  0  0  0  0
  189.3160  171.7600  145.3880 O   0  0  0  0  0  1  0  0  0  0  0  0
  197.2380  175.3120  143.6530 O   0  0  0  0  0  0  0  0  0  0  0  0
  190.2390  171.8810  142.3360 O   0  0  0  0  0  1  0  0  0  0  0  0
  192.6160  172.1600  142.5520 C   0  0  1  0  0  3  0  0  0  0  0  0
  197.1020  175.6660  139.9680 C   0  0  0  0  0  3  0  0  0  0  0  0
  191.1750  172.8340  144.3320 C   0  0  2  0  0  3  0  0  0  0  0  0
  191.2100  177.3270  144.6630 C   0  0  2  0  0  3  0  0  0  0  0  0
  190.0680  178.0720  144.9740 O   0  0  0  0  0  1  0  0  0  0  0  0
  191.2560  177.0990  143.2830 O   0  0  0  0  0  0  0  0  0  0  0  0
  190.1940  177.8410  142.7630 C   0  0  0  0  0  1  0  0  0  0  0  0
  1 24  1  1  0  0  0
  1  7  1  0  0  0  0
  3 21  1  1  0  0  0
  3  5  1  0  0  0  0
  3  2  1  0  0  0  0
  4 28  2  0  0  0  0
  4  5  1  0  0  0  0
  5 12  2  0  0  0  0
  8 22  1  0  0  0  0
  9  2  1  6  0  0  0
  9 10  1  0  0  0  0
 10 29  1  0  0  0  0
 10 16  1  0  0  0  0
 11 29  1  0  0  0  0
 12 19  1  0  0  0  0
 13 17  1  0  0  0  0
 14 23  1  0  0  0  0
 15 19  2  0  0  0  0
 16 14  1  0  0  0  0
 16 20  1  0  0  0  0
 17 27  1  0  0  0  0
 18 14  1  0  0  0  0
 18  7  1  0  0  0  0
 19 25  1  0  0  0  0
 20  6  1  0  0  0  0
 21 17  1  0  0  0  0
 22  6  1  0  0  0  0
 25  8  1  0  0  0  0
 26 11  1  0  0  0  0
 27  9  1  0  0  0  0
 27 11  1  0  0  0  0
 28 15  1  0  0  0  0
 29  1  1  0  0  0  0
 30 31  1  0  0  0  0
 30 14  1  0  0  0  0
 32 30  1  0  0  0  0
 33 32  1  0  0  0  0
M  END
>  <MODEL>
8

>  <REMARK>
 VINA RESULT:      -6.7      2.738      6.652
  Name = 
  2 active torsions:
  status: ('A' for Active; 'I' for Inactive)
    1  A    between atoms: C_6  and  C_15
    2  A    between atoms: C_6  and  O_19
                            x       y       z     vdW  Elec       q    Type
                         _______ _______ _______ _____ _____    ______ ____

>  <TORSDO>
F 2

$$$$
=
 OpenBabel11062421153D

 33 37  0  0  1  0  0  0  0  0999 V2000
  194.9350  171.6030  140.9460 C   0  0  2  0  0  3  0  0  0  0  0  0
  191.4780  172.3110  144.1430 C   0  0  0  0  0  2  0  0  0  0  0  0
  190.1860  173.1100  144.3970 C   0  0  1  0  0  3  0  0  0  0  0  0
  189.3710  174.1770  146.5270 C   0  0  0  0  0  3  0  0  0  0  0  0
  190.3550  174.0720  145.5380 C   0  0  0  0  0  0  0  0  0  0  0  0
  195.7910  174.9430  145.1010 C   0  0  0  0  0  2  0  0  0  0  0  0
  196.2890  171.5140  141.6380 C   0  0  0  0  0  2  0  0  0  0  0  0
  193.9230  176.4280  145.8630 C   0  0  0  0  0  2  0  0  0  0  0  0
  192.4660  173.1610  143.3440 C   0  0  1  0  0  3  0  0  0  0  0  0
  193.7460  172.4000  143.0560 C   0  0  2  0  0  3  0  0  0  0  0  0
  192.7080  172.8770  140.9200 C   0  0  1  0  0  3  0  0  0  0  0  0
  191.4900  174.8880  145.6150 C   0  0  0  0  0  3  0  0  0  0  0  0
  189.8960  174.1760  140.7920 O   0  0  0  0  0  1  0  0  0  0  0  0
  196.0220  171.7810  144.1780 C   0  0  1  0  0  0  0  0  0  0  0  0
  190.6830  175.8750  147.6630 C   0  0  0  0  0  3  0  0  0  0  0  0
  194.8800  172.8380  144.0000 C   0  0  1  0  0  3  0  0  0  0  0  0
  190.3730  173.4200  141.8610 C   0  0  2  0  0  3  0  0  0  0  0  0
  196.1450  170.8150  142.9840 C   0  0  0  0  0  2  0  0  0  0  0  0
  191.6720  175.7770  146.6770 C   0  0  0  0  0  0  0  0  0  0  0  0
  195.2950  174.3090  143.8030 C   0  0  0  0  0  2  0  0  0  0  0  0
  189.6720  173.8560  143.1500 C   0  0  0  0  0  2  0  0  0  0  0  0
  194.6710  175.1260  146.1130 C   0  0  0  0  0  2  0  0  0  0  0  0
  197.3940  172.4260  144.3920 C   0  0  0  0  0  1  0  0  0  0  0  0
  195.1400  171.9080  139.6000 O   0  0  0  0  0  1  0  0  0  0  0  0
  192.8330  176.5540  146.7740 O   0  0  0  0  0  0  0  0  0  0  0  0
  192.1310  171.6340  140.6260 O   0  0  0  0  0  1  0  0  0  0  0  0
  191.8960  173.6010  141.9880 C   0  0  1  0  0  3  0  0  0  0  0  0
  189.5330  175.0780  147.5850 C   0  0  0  0  0  3  0  0  0  0  0  0
  194.0640  172.6840  141.5910 C   0  0  2  0  0  3  0  0  0  0  0  0
  195.6740  170.9410  145.4200 C   0  0  2  0  0  3  0  0  0  0  0  0
  194.5860  171.4890  146.1080 O   0  0  0  0  0  1  0  0  0  0  0  0
  196.7660  170.8290  146.2880 O   0  0  0  0  0  0  0  0  0  0  0  0
  196.8300  169.4710  146.6070 C   0  0  0  0  0  1  0  0  0  0  0  0
  1 24  1  6  0  0  0
  1 29  1  0  0  0  0
  1  7  1  0  0  0  0
  2  3  1  0  0  0  0
  3 21  1  6  0  0  0
  3  5  1  0  0  0  0
  4 28  1  0  0  0  0
  5 12  1  0  0  0  0
  5  4  2  0  0  0  0
  6 22  1  0  0  0  0
  7 18  1  0  0  0  0
  8 22  1  0  0  0  0
  8 25  1  0  0  0  0
  9  2  1  6  0  0  0
 10  9  1  0  0  0  0
 10 16  1  0  0  0  0
 11 29  1  0  0  0  0
 11 27  1  0  0  0  0
 12 19  2  0  0  0  0
 13 17  1  0  0  0  0
 14 23  1  0  0  0  0
 14 30  1  0  0  0  0
 16 14  1  0  0  0  0
 17 27  1  0  0  0  0
 17 21  1  0  0  0  0
 18 14  1  0  0  0  0
 19 25  1  0  0  0  0
 19 15  1  0  0  0  0
 20 16  1  0  0  0  0
 20  6  1  0  0  0  0
 26 11  1  0  0  0  0
 27  9  1  0  0  0  0
 28 15  2  0  0  0  0
 29 10  1  0  0  0  0
 30 31  1  0  0  0  0
 30 32  1  0  0  0  0
 32 33  1  0  0  0  0
M  END
>  <MODEL>
9

>  <REMARK>
 VINA RESULT:      -6.6      3.216      6.712
  Name = 
  2 active torsions:
  status: ('A' for Active; 'I' for Inactive)
    1  A    between atoms: C_6  and  C_15
    2  A    between atoms: C_6  and  O_19
                            x       y       z     vdW  Elec       q    Type
                         _______ _______ _______ _____ _____    ______ ____

>  <TORSDO>
F 2

$$$$
