=
 OpenBabel11072409443D

 59 66  0  0  1  0  0  0  0  0999 V2000
  194.0820  170.8560  143.7440 C   0  0  2  0  0  0  0  0  0  0  0  0
  194.2780  172.3930  145.7510 C   0  0  0  0  0  2  0  0  0  0  0  0
  193.0110  173.0890  145.3060 C   0  0  2  0  0  3  0  0  0  0  0  0
  193.0100  173.2330  143.7790 C   0  0  0  0  0  2  0  0  0  0  0  0
  193.3790  171.9740  142.9590 C   0  0  2  0  0  3  0  0  0  0  0  0
  192.6010  170.7280  143.3570 C   0  0  1  0  0  3  0  0  0  0  0  0
  194.1760  170.9580  145.2810 C   0  0  2  0  0  3  0  0  0  0  0  0
  195.2170  170.1160  142.9700 C   0  0  1  0  0  3  0  0  0  0  0  0
  195.0130  169.9740  141.4790 C   0  0  0  0  0  2  0  0  0  0  0  0
  196.5080  170.9120  143.0510 C   0  0  0  0  0  2  0  0  0  0  0  0
  196.1720  170.7300  140.8690 C   0  0  2  0  0  3  0  0  0  0  0  0
  196.6770  171.6000  141.8460 O   0  0  0  0  0  0  0  0  0  0  0  0
  195.7250  171.4920  139.6250 C   0  0  1  0  0  3  0  0  0  0  0  0
  195.3150  170.6090  138.6270 O   0  0  0  0  0  1  0  0  0  0  0  0
  194.6090  172.4850  139.9440 C   0  0  0  0  0  2  0  0  0  0  0  0
  194.2580  174.8430  140.0750 O   0  0  0  0  0  0  0  0  0  0  0  0
  196.3200  174.2090  139.2150 N   0  0  0  0  0  1  0  0  0  0  0  0
  195.0260  173.9080  139.7350 C   0  0  0  0  0  0  0  0  0  0  0  0
  195.1600  170.0400  145.9410 C   0  0  0  0  0  0  0  0  0  0  0  0
  194.9040  168.6810  146.0520 O   0  0  0  0  0  0  0  0  0  0  0  0
  196.2490  170.5020  146.3740 O   0  0  0  0  0  1  0  0  0  0  0  0
  192.3330  169.8300  142.1600 C   0  0  0  0  0  2  0  0  0  0  0  0
  190.8430  169.7910  141.8480 C   0  0  0  0  0  2  0  0  0  0  0  0
  190.5470  168.7120  138.6340 C   0  0  0  0  0  2  0  0  0  0  0  0
  190.3680  172.7850  141.3170 C   0  0  2  0  0  3  0  0  0  0  0  0
  190.4010  172.0850  138.9310 C   0  0  1  0  0  3  0  0  0  0  0  0
  191.0660  170.0040  139.2140 C   0  0  0  0  0  0  0  0  0  0  0  0
  190.7710  173.9580  140.4290 C   0  0  0  0  0  2  0  0  0  0  0  0
  192.0170  168.8470  139.0420 C   0  0  0  0  0  2  0  0  0  0  0  0
  190.5380  170.4260  140.5230 C   0  0  2  0  0  3  0  0  0  0  0  0
  190.1920  171.6810  140.3340 C   0  0  1  0  0  3  0  0  0  0  0  0
  191.1730  173.3830  139.0700 C   0  0  0  0  0  2  0  0  0  0  0  0
  191.1630  171.0720  138.3080 O   0  0  0  0  0  0  0  0  0  0  0  0
  187.9910  172.6720  141.7000 O   0  0  0  0  0  0  0  0  0  0  0  0
  189.1120  173.1050  142.0770 C   0  0  0  0  0  0  0  0  0  0  0  0
  189.1950  173.8360  143.2540 O   0  0  0  0  0  1  0  0  0  0  0  0
  192.9280  174.3500  145.9240 O   0  0  0  0  0  0  0  0  0  0  0  0
  191.6740  176.4290  145.3450 C   0  0  2  0  0  3  0  0  0  0  0  0
  190.2800  178.2980  144.7850 O   0  0  0  0  0  1  0  0  0  0  0  0
  191.6550  174.9200  145.6850 C   0  0  2  0  0  3  0  0  0  0  0  0
  190.6620  174.5800  146.8000 C   0  0  0  0  0  2  0  0  0  0  0  0
  189.2770  175.1210  146.4760 C   0  0  0  0  0  2  0  0  0  0  0  0
  190.2570  176.9230  145.0390 C   0  0  2  0  0  3  0  0  0  0  0  0
  189.3400  176.6270  146.2290 C   0  0  1  0  0  3  0  0  0  0  0  0
  187.9690  177.1980  146.0320 C   0  0  0  0  0  0  0  0  0  0  0  0
  187.3810  177.8060  146.9660 O   0  0  0  0  0  0  0  0  0  0  0  0
  186.7450  176.9100  143.7210 C   0  0  0  0  0  0  0  0  0  0  0  0
  187.3160  177.0400  144.7690 C   0  0  0  0  0  0  0  0  0  0  0  0
  185.1410  178.5290  140.7760 C   0  0  0  0  0  2  0  0  0  0  0  0
  186.9320  177.0320  141.3400 N   0  0  0  0  0  2  0  0  0  0  0  0
  186.0240  176.7710  142.4560 C   0  0  2  0  0  3  0  0  0  0  0  0
  184.6340  177.9520  142.4200 S   0  0  0  0  0  0  0  0  0  0  0  0
  186.1000  177.4940  140.2370 C   0  0  0  0  0  2  0  0  0  0  0  0
  192.5740  176.7080  144.1460 C   0  0  0  0  0  2  0  0  0  0  0  0
  193.9690  177.0160  144.6520 C   0  0  0  0  0  2  0  0  0  0  0  0
  195.0060  176.1920  143.9170 C   0  0  0  0  0  2  0  0  0  0  0  0
  196.1960  176.9120  143.8630 O   0  0  0  0  0  0  0  0  0  0  0  0
  196.8220  176.4790  142.6940 C   0  0  0  0  0  2  0  0  0  0  0  0
  197.0330  174.9820  142.7550 C   0  0  0  0  0  1  0  0  0  0  0  0
  1  8  1  6  0  0  0
  1  7  1  0  0  0  0
  3  2  1  0  0  0  0
  3 37  1  1  0  0  0
  4  3  1  0  0  0  0
  5  6  1  0  0  0  0
  5  1  1  0  0  0  0
  5  4  1  1  0  0  0
  6 22  1  6  0  0  0
  6  1  1  0  0  0  0
  7  2  1  0  0  0  0
  7 19  1  6  0  0  0
  8  9  1  6  0  0  0
  8 10  1  0  0  0  0
 11 13  1  6  0  0  0
 11  9  1  0  0  0  0
 11 12  1  0  0  0  0
 12 10  1  0  0  0  0
 13 14  1  6  0  0  0
 13 15  1  0  0  0  0
 17 18  1  0  0  0  0
 18 15  1  0  0  0  0
 18 16  2  0  0  0  0
 19 20  2  0  0  0  0
 19 21  1  0  0  0  0
 23 22  1  0  0  0  0
 24 29  1  0  0  0  0
 24 27  1  0  0  0  0
 25 35  1  6  0  0  0
 26 32  1  1  0  0  0
 26 31  1  0  0  0  0
 27 30  1  0  0  0  0
 28 25  1  0  0  0  0
 29 27  1  0  0  0  0
 30 23  1  1  0  0  0
 31 30  1  0  0  0  0
 31 25  1  0  0  0  0
 32 28  1  0  0  0  0
 33 26  1  0  0  0  0
 33 27  1  0  0  0  0
 34 35  2  0  0  0  0
 35 36  1  0  0  0  0
 38 40  1  0  0  0  0
 39 43  1  0  0  0  0
 40 37  1  0  0  0  0
 40 41  1  0  0  0  0
 42 41  1  0  0  0  0
 43 38  1  0  0  0  0
 43 44  1  0  0  0  0
 44 42  1  0  0  0  0
 45 44  1  0  0  0  0
 45 46  2  0  0  0  0
 47 48  3  0  0  0  0
 48 45  1  0  0  0  0
 49 52  1  0  0  0  0
 50 51  1  0  0  0  0
 51 47  1  0  0  0  0
 52 51  1  0  0  0  0
 53 49  1  0  0  0  0
 53 50  1  0  0  0  0
 54 55  1  0  0  0  0
 54 38  1  0  0  0  0
 56 55  1  0  0  0  0
 57 56  1  0  0  0  0
 58 59  1  0  0  0  0
 58 57  1  0  0  0  0
M  END
>  <MODEL>
1

>  <REMARK>
 VINA RESULT:      -6.1      0.000      0.000
  Name = 
  19 active torsions:
  status: ('A' for Active; 'I' for Inactive)
    1  A    between atoms: C_1  and  C_38
    2  A    between atoms: C_1  and  C_59
    3  A    between atoms: C_2  and  C_53
    4  A    between atoms: C_3  and  C_9
    5  A    between atoms: C_4  and  C_26
    6  A    between atoms: C_6  and  O_20
    7  A    between atoms: O_7  and  C_12
    8  A    between atoms: O_7  and  C_32
    9  A    between atoms: C_10  and  C_48
   10  A    between atoms: C_10  and  C_55
   11  A    between atoms: C_12  and  C_16
   12  A    between atoms: C_14  and  C_27
   13  A    between atoms: C_16  and  C_26
   14  A    between atoms: O_20  and  C_36
   15  A    between atoms: C_28  and  C_39
   16  A    between atoms: C_28  and  C_49
   17  A    between atoms: C_33  and  C_34
   18  A    between atoms: C_35  and  C_39
   19  A    between atoms: C_48  and  C_57
                            x       y       z     vdW  Elec       q    Type
                         _______ _______ _______ _____ _____    ______ ____

>  <TORSDO>
F 19

$$$$
=
 OpenBabel11072409443D

 59 66  0  0  1  0  0  0  0  0999 V2000
  192.5490  174.4150  145.5250 C   0  0  2  0  0  0  0  0  0  0  0  0
  190.0800  174.7370  145.0410 C   0  0  0  0  0  2  0  0  0  0  0  0
  190.1180  173.4960  144.1770 C   0  0  2  0  0  3  0  0  0  0  0  0
  191.4230  173.4660  143.3730 C   0  0  0  0  0  2  0  0  0  0  0  0
  192.7290  173.7510  144.1510 C   0  0  2  0  0  3  0  0  0  0  0  0
  192.8870  172.9200  145.4170 C   0  0  1  0  0  3  0  0  0  0  0  0
  191.1300  174.5510  146.1170 C   0  0  2  0  0  3  0  0  0  0  0  0
  193.6190  175.4910  145.8860 C   0  0  1  0  0  3  0  0  0  0  0  0
  195.0400  175.1700  145.4810 C   0  0  0  0  0  2  0  0  0  0  0  0
  193.3430  176.7770  145.1240 C   0  0  0  0  0  2  0  0  0  0  0  0
  195.4090  176.2680  144.5090 C   0  0  2  0  0  3  0  0  0  0  0  0
  194.2190  176.8410  144.0370 O   0  0  0  0  0  0  0  0  0  0  0  0
  196.2520  175.7150  143.3650 C   0  0  1  0  0  3  0  0  0  0  0  0
  197.5020  175.3040  143.8260 O   0  0  0  0  0  1  0  0  0  0  0  0
  195.5460  174.5620  142.6530 C   0  0  0  0  0  2  0  0  0  0  0  0
  193.9440  174.3520  140.8940 O   0  0  0  0  0  0  0  0  0  0  0  0
  195.4340  176.1170  140.6530 N   0  0  0  0  0  1  0  0  0  0  0  0
  194.9360  174.9760  141.3490 C   0  0  0  0  0  0  0  0  0  0  0  0
  190.9850  175.5030  147.2650 C   0  0  0  0  0  0  0  0  0  0  0  0
  190.4230  176.7590  147.0830 O   0  0  0  0  0  0  0  0  0  0  0  0
  191.3500  175.1490  148.4170 O   0  0  0  0  0  1  0  0  0  0  0  0
  194.3440  172.5780  145.6830 C   0  0  0  0  0  2  0  0  0  0  0  0
  194.5500  171.0700  145.6520 C   0  0  0  0  0  2  0  0  0  0  0  0
  197.8490  170.5840  144.9740 C   0  0  0  0  0  2  0  0  0  0  0  0
  193.4590  170.4390  142.8450 C   0  0  2  0  0  3  0  0  0  0  0  0
  195.8680  170.3270  142.2360 C   0  0  1  0  0  3  0  0  0  0  0  0
  196.7140  171.0920  144.1200 C   0  0  0  0  0  0  0  0  0  0  0  0
  193.6420  170.7310  141.3580 C   0  0  0  0  0  2  0  0  0  0  0  0
  197.4920  172.0730  144.9590 C   0  0  0  0  0  2  0  0  0  0  0  0
  195.3520  170.6440  144.4580 C   0  0  2  0  0  3  0  0  0  0  0  0
  194.8590  170.2360  143.3090 C   0  0  1  0  0  3  0  0  0  0  0  0
  195.1190  171.0550  141.1360 C   0  0  0  0  0  2  0  0  0  0  0  0
  196.9520  171.0800  142.7370 O   0  0  0  0  0  0  0  0  0  0  0  0
  192.7640  168.4530  144.0200 O   0  0  0  0  0  1  0  0  0  0  0  0
  192.5900  169.2310  143.0440 C   0  0  0  0  0  0  0  0  0  0  0  0
  191.5310  169.0030  142.1740 O   0  0  0  0  0  0  0  0  0  0  0  0
  189.0040  173.4930  143.3170 O   0  0  0  0  0  0  0  0  0  0  0  0
  188.5320  174.1040  140.9430 C   0  0  2  0  0  3  0  0  0  0  0  0
  188.2750  174.5880  138.6080 O   0  0  0  0  0  1  0  0  0  0  0  0
  189.4340  173.3840  141.9730 C   0  0  2  0  0  3  0  0  0  0  0  0
  189.7270  171.9320  141.5870 C   0  0  0  0  0  2  0  0  0  0  0  0
  190.2790  171.8490  140.1710 C   0  0  0  0  0  2  0  0  0  0  0  0
  189.1260  173.9790  139.5370 C   0  0  2  0  0  3  0  0  0  0  0  0
  189.3120  172.5020  139.1850 C   0  0  1  0  0  3  0  0  0  0  0  0
  189.7780  172.3190  137.7730 C   0  0  0  0  0  0  0  0  0  0  0  0
  188.9700  171.9960  136.8620 O   0  0  0  0  0  0  0  0  0  0  0  0
  192.3160  172.6760  137.1770 C   0  0  0  0  0  0  0  0  0  0  0  0
  191.1610  172.5040  137.4590 C   0  0  0  0  0  0  0  0  0  0  0  0
  195.2930  174.9070  137.3140 C   0  0  0  0  0  2  0  0  0  0  0  0
  194.5590  172.7270  138.0050 N   0  0  0  0  0  2  0  0  0  0  0  0
  193.7150  172.9170  136.8260 C   0  0  2  0  0  3  0  0  0  0  0  0
  193.8940  174.6190  136.1960 S   0  0  0  0  0  0  0  0  0  0  0  0
  195.7440  173.5470  137.7930 C   0  0  0  0  0  2  0  0  0  0  0  0
  188.3710  175.5800  141.2930 C   0  0  0  0  0  2  0  0  0  0  0  0
  187.1320  175.7390  142.1500 C   0  0  0  0  0  2  0  0  0  0  0  0
  187.2200  176.9880  143.0030 C   0  0  0  0  0  2  0  0  0  0  0  0
  187.0370  178.1020  142.1890 O   0  0  0  0  0  0  0  0  0  0  0  0
  186.1360  178.9080  142.8860 C   0  0  0  0  0  2  0  0  0  0  0  0
  186.2670  178.6500  144.3710 C   0  0  0  0  0  1  0  0  0  0  0  0
  1  8  1  1  0  0  0
  1  7  1  0  0  0  0
  2  7  1  0  0  0  0
  3 37  1  6  0  0  0
  3  2  1  0  0  0  0
  4  3  1  0  0  0  0
  5  4  1  6  0  0  0
  5  6  1  0  0  0  0
  5  1  1  0  0  0  0
  6  1  1  0  0  0  0
  6 22  1  1  0  0  0
  7 19  1  1  0  0  0
  8 10  1  6  0  0  0
  9  8  1  0  0  0  0
 11 13  1  6  0  0  0
 11  9  1  0  0  0  0
 12 11  1  0  0  0  0
 12 10  1  0  0  0  0
 13 14  1  1  0  0  0
 15 13  1  0  0  0  0
 16 18  2  0  0  0  0
 17 18  1  0  0  0  0
 18 15  1  0  0  0  0
 19 21  1  0  0  0  0
 20 19  2  0  0  0  0
 23 22  1  0  0  0  0
 25 35  1  6  0  0  0
 25 31  1  0  0  0  0
 26 32  1  6  0  0  0
 26 33  1  0  0  0  0
 26 31  1  0  0  0  0
 27 30  1  0  0  0  0
 27 29  1  0  0  0  0
 27 24  1  0  0  0  0
 28 25  1  0  0  0  0
 29 24  1  0  0  0  0
 30 23  1  6  0  0  0
 31 30  1  0  0  0  0
 32 28  1  0  0  0  0
 33 27  1  0  0  0  0
 35 34  1  0  0  0  0
 36 35  2  0  0  0  0
 38 54  1  0  0  0  0
 38 40  1  0  0  0  0
 39 43  1  0  0  0  0
 40 37  1  0  0  0  0
 41 40  1  0  0  0  0
 42 41  1  0  0  0  0
 43 38  1  0  0  0  0
 44 43  1  0  0  0  0
 44 42  1  0  0  0  0
 45 44  1  0  0  0  0
 46 45  2  0  0  0  0
 47 48  3  0  0  0  0
 48 45  1  0  0  0  0
 49 53  1  0  0  0  0
 51 47  1  0  0  0  0
 51 50  1  0  0  0  0
 52 51  1  0  0  0  0
 52 49  1  0  0  0  0
 53 50  1  0  0  0  0
 54 55  1  0  0  0  0
 55 56  1  0  0  0  0
 57 58  1  0  0  0  0
 57 56  1  0  0  0  0
 58 59  1  0  0  0  0
M  END
>  <MODEL>
2

>  <REMARK>
 VINA RESULT:      -5.9      2.673      7.151
  Name = 
  19 active torsions:
  status: ('A' for Active; 'I' for Inactive)
    1  A    between atoms: C_1  and  C_38
    2  A    between atoms: C_1  and  C_59
    3  A    between atoms: C_2  and  C_53
    4  A    between atoms: C_3  and  C_9
    5  A    between atoms: C_4  and  C_26
    6  A    between atoms: C_6  and  O_20
    7  A    between atoms: O_7  and  C_12
    8  A    between atoms: O_7  and  C_32
    9  A    between atoms: C_10  and  C_48
   10  A    between atoms: C_10  and  C_55
   11  A    between atoms: C_12  and  C_16
   12  A    between atoms: C_14  and  C_27
   13  A    between atoms: C_16  and  C_26
   14  A    between atoms: O_20  and  C_36
   15  A    between atoms: C_28  and  C_39
   16  A    between atoms: C_28  and  C_49
   17  A    between atoms: C_33  and  C_34
   18  A    between atoms: C_35  and  C_39
   19  A    between atoms: C_48  and  C_57
                            x       y       z     vdW  Elec       q    Type
                         _______ _______ _______ _____ _____    ______ ____

>  <TORSDO>
F 19

$$$$
=
 OpenBabel11072409443D

 59 66  0  0  1  0  0  0  0  0999 V2000
  194.2050  171.5750  141.5070 C   0  0  2  0  0  0  0  0  0  0  0  0
  194.4090  173.5680  143.0630 C   0  0  0  0  0  2  0  0  0  0  0  0
  193.1080  174.1000  142.5050 C   0  0  2  0  0  3  0  0  0  0  0  0
  193.0580  173.8600  140.9910 C   0  0  0  0  0  2  0  0  0  0  0  0
  193.4430  172.4460  140.4960 C   0  0  2  0  0  3  0  0  0  0  0  0
  192.7170  171.3200  141.2190 C   0  0  1  0  0  3  0  0  0  0  0  0
  194.3400  172.0580  142.9670 C   0  0  2  0  0  3  0  0  0  0  0  0
  195.3390  170.6930  140.9000 C   0  0  1  0  0  3  0  0  0  0  0  0
  195.1080  170.2000  139.4900 C   0  0  0  0  0  2  0  0  0  0  0  0
  196.6140  171.5080  140.7590 C   0  0  0  0  0  2  0  0  0  0  0  0
  196.2360  170.8120  138.6900 C   0  0  2  0  0  3  0  0  0  0  0  0
  196.7420  171.8960  139.4230 O   0  0  0  0  0  0  0  0  0  0  0  0
  195.7460  171.2510  137.3140 C   0  0  1  0  0  3  0  0  0  0  0  0
  195.5270  170.1450  136.4930 O   0  0  0  0  0  1  0  0  0  0  0  0
  194.4780  172.0970  137.4120 C   0  0  0  0  0  2  0  0  0  0  0  0
  194.1620  174.4520  137.6490 O   0  0  0  0  0  0  0  0  0  0  0  0
  195.5790  173.8260  135.9190 N   0  0  0  0  0  1  0  0  0  0  0  0
  194.7020  173.5200  137.0010 C   0  0  0  0  0  0  0  0  0  0  0  0
  195.3720  171.3580  143.7980 C   0  0  0  0  0  0  0  0  0  0  0  0
  195.2490  170.0080  144.0970 O   0  0  0  0  0  0  0  0  0  0  0  0
  196.3790  171.9930  144.2060 O   0  0  0  0  0  1  0  0  0  0  0  0
  192.4440  170.1470  140.2910 C   0  0  0  0  0  2  0  0  0  0  0  0
  190.9530  170.0340  140.0020 C   0  0  0  0  0  2  0  0  0  0  0  0
  190.8190  168.2520  137.1070 C   0  0  0  0  0  2  0  0  0  0  0  0
  190.2930  172.7940  138.8130 C   0  0  2  0  0  3  0  0  0  0  0  0
  190.4390  171.5880  136.6440 C   0  0  1  0  0  3  0  0  0  0  0  0
  191.2340  169.6740  137.3900 C   0  0  0  0  0  0  0  0  0  0  0  0
  190.6420  173.7680  137.6900 C   0  0  0  0  0  2  0  0  0  0  0  0
  192.2640  168.5780  137.4910 C   0  0  0  0  0  2  0  0  0  0  0  0
  190.6420  170.3360  138.5660 C   0  0  2  0  0  3  0  0  0  0  0  0
  190.2180  171.4900  138.0980 C   0  0  1  0  0  3  0  0  0  0  0  0
  191.1190  172.9360  136.4990 C   0  0  0  0  0  2  0  0  0  0  0  0
  191.2840  170.5190  136.2700 O   0  0  0  0  0  0  0  0  0  0  0  0
  188.8910  174.2590  140.1160 O   0  0  0  0  0  1  0  0  0  0  0  0
  188.9990  173.1840  139.4670 C   0  0  0  0  0  0  0  0  0  0  0  0
  187.8790  172.3800  139.2970 O   0  0  0  0  0  0  0  0  0  0  0  0
  193.0020  175.4730  142.7940 O   0  0  0  0  0  0  0  0  0  0  0  0
  192.4040  175.5870  145.2150 C   0  0  2  0  0  3  0  0  0  0  0  0
  191.6190  175.7560  147.4750 O   0  0  0  0  0  1  0  0  0  0  0  0
  191.9670  175.6880  143.7350 C   0  0  2  0  0  3  0  0  0  0  0  0
  190.7330  174.8360  143.4250 C   0  0  0  0  0  2  0  0  0  0  0  0
  189.6000  175.1530  144.3890 C   0  0  0  0  0  2  0  0  0  0  0  0
  191.2250  175.9020  146.1410 C   0  0  2  0  0  3  0  0  0  0  0  0
  190.0610  174.9580  145.8330 C   0  0  1  0  0  3  0  0  0  0  0  0
  188.9250  175.1440  146.7910 C   0  0  0  0  0  0  0  0  0  0  0  0
  188.7420  174.3370  147.7420 O   0  0  0  0  0  0  0  0  0  0  0  0
  187.2570  177.1530  146.4680 C   0  0  0  0  0  0  0  0  0  0  0  0
  188.0290  176.2450  146.6160 C   0  0  0  0  0  0  0  0  0  0  0  0
  184.3880  178.6100  144.5960 C   0  0  0  0  0  2  0  0  0  0  0  0
  184.9810  177.8130  146.7820 N   0  0  0  0  0  2  0  0  0  0  0  0
  186.2940  178.2420  146.3050 C   0  0  2  0  0  3  0  0  0  0  0  0
  186.1990  178.7040  144.5430 S   0  0  0  0  0  0  0  0  0  0  0  0
  184.0030  178.6130  146.0560 C   0  0  0  0  0  2  0  0  0  0  0  0
  193.5500  176.5470  145.5140 C   0  0  0  0  0  2  0  0  0  0  0  0
  194.7110  175.7510  146.0750 C   0  0  0  0  0  2  0  0  0  0  0  0
  195.8840  175.7520  145.1150 C   0  0  0  0  0  2  0  0  0  0  0  0
  195.6890  176.7540  144.1700 O   0  0  0  0  0  0  0  0  0  0  0  0
  196.7180  176.5770  143.2450 C   0  0  0  0  0  2  0  0  0  0  0  0
  196.1580  176.6580  141.8420 C   0  0  0  0  0  1  0  0  0  0  0  0
  1  8  1  6  0  0  0
  1  7  1  0  0  0  0
  3 37  1  6  0  0  0
  3  2  1  0  0  0  0
  4  3  1  0  0  0  0
  5  4  1  1  0  0  0
  5  6  1  0  0  0  0
  5  1  1  0  0  0  0
  6 22  1  6  0  0  0
  6  1  1  0  0  0  0
  7  2  1  0  0  0  0
  7 19  1  6  0  0  0
  8  9  1  6  0  0  0
 10  8  1  0  0  0  0
 11 13  1  6  0  0  0
 11 12  1  0  0  0  0
 11  9  1  0  0  0  0
 12 10  1  0  0  0  0
 13 14  1  6  0  0  0
 13 15  1  0  0  0  0
 17 18  1  0  0  0  0
 18 15  1  0  0  0  0
 18 16  2  0  0  0  0
 19 20  2  0  0  0  0
 19 21  1  0  0  0  0
 23 22  1  0  0  0  0
 24 27  1  0  0  0  0
 24 29  1  0  0  0  0
 25 35  1  6  0  0  0
 26 32  1  1  0  0  0
 26 31  1  0  0  0  0
 27 29  1  0  0  0  0
 27 30  1  0  0  0  0
 28 25  1  0  0  0  0
 30 23  1  1  0  0  0
 31 30  1  0  0  0  0
 31 25  1  0  0  0  0
 32 28  1  0  0  0  0
 33 26  1  0  0  0  0
 33 27  1  0  0  0  0
 35 34  1  0  0  0  0
 36 35  2  0  0  0  0
 37 40  1  0  0  0  0
 38 54  1  0  0  0  0
 38 43  1  0  0  0  0
 40 38  1  0  0  0  0
 41 40  1  0  0  0  0
 41 42  1  0  0  0  0
 42 44  1  0  0  0  0
 43 39  1  0  0  0  0
 44 43  1  0  0  0  0
 44 45  1  0  0  0  0
 45 46  2  0  0  0  0
 47 48  3  0  0  0  0
 48 45  1  0  0  0  0
 49 53  1  0  0  0  0
 51 47  1  0  0  0  0
 51 50  1  0  0  0  0
 52 49  1  0  0  0  0
 52 51  1  0  0  0  0
 53 50  1  0  0  0  0
 54 55  1  0  0  0  0
 56 55  1  0  0  0  0
 57 56  1  0  0  0  0
 58 57  1  0  0  0  0
 59 58  1  0  0  0  0
M  END
>  <MODEL>
3

>  <REMARK>
 VINA RESULT:      -5.8      2.249      2.724
  Name = 
  19 active torsions:
  status: ('A' for Active; 'I' for Inactive)
    1  A    between atoms: C_1  and  C_38
    2  A    between atoms: C_1  and  C_59
    3  A    between atoms: C_2  and  C_53
    4  A    between atoms: C_3  and  C_9
    5  A    between atoms: C_4  and  C_26
    6  A    between atoms: C_6  and  O_20
    7  A    between atoms: O_7  and  C_12
    8  A    between atoms: O_7  and  C_32
    9  A    between atoms: C_10  and  C_48
   10  A    between atoms: C_10  and  C_55
   11  A    between atoms: C_12  and  C_16
   12  A    between atoms: C_14  and  C_27
   13  A    between atoms: C_16  and  C_26
   14  A    between atoms: O_20  and  C_36
   15  A    between atoms: C_28  and  C_39
   16  A    between atoms: C_28  and  C_49
   17  A    between atoms: C_33  and  C_34
   18  A    between atoms: C_35  and  C_39
   19  A    between atoms: C_48  and  C_57
                            x       y       z     vdW  Elec       q    Type
                         _______ _______ _______ _____ _____    ______ ____

>  <TORSDO>
F 19

$$$$
=
 OpenBabel11072409443D

 59 66  0  0  1  0  0  0  0  0999 V2000
  189.8050  174.1430  143.0230 C   0  0  2  0  0  0  0  0  0  0  0  0
  192.2280  173.8910  143.7260 C   0  0  0  0  0  2  0  0  0  0  0  0
  192.4010  175.3840  143.5600 C   0  0  2  0  0  3  0  0  0  0  0  0
  191.6380  175.8580  142.3180 C   0  0  0  0  0  2  0  0  0  0  0  0
  190.1840  175.3540  142.1580 C   0  0  2  0  0  3  0  0  0  0  0  0
  189.3220  175.5530  143.3970 C   0  0  1  0  0  3  0  0  0  0  0  0
  190.7830  173.6600  144.1150 C   0  0  2  0  0  3  0  0  0  0  0  0
  188.8780  173.0980  142.3290 C   0  0  1  0  0  3  0  0  0  0  0  0
  188.0230  173.6220  141.1980 C   0  0  0  0  0  2  0  0  0  0  0  0
  189.7160  172.0320  141.6420 C   0  0  0  0  0  2  0  0  0  0  0  0
  188.4860  172.8420  139.9880 C   0  0  2  0  0  3  0  0  0  0  0  0
  189.7550  172.3180  140.2750 O   0  0  0  0  0  0  0  0  0  0  0  0
  188.5210  173.7350  138.7510 C   0  0  1  0  0  3  0  0  0  0  0  0
  188.0540  175.0130  139.0530 O   0  0  0  0  0  1  0  0  0  0  0  0
  189.9240  173.8110  138.1520 C   0  0  0  0  0  2  0  0  0  0  0  0
  190.4720  174.3180  135.8830 O   0  0  0  0  0  0  0  0  0  0  0  0
  189.4170  172.2740  136.2000 N   0  0  0  0  0  1  0  0  0  0  0  0
  189.9410  173.5080  136.6850 C   0  0  0  0  0  0  0  0  0  0  0  0
  190.5240  172.2920  144.6700 C   0  0  0  0  0  0  0  0  0  0  0  0
  189.3810  172.0300  145.4140 O   0  0  0  0  0  1  0  0  0  0  0  0
  191.3360  171.3590  144.4350 O   0  0  0  0  0  0  0  0  0  0  0  0
  187.8770  175.8470  143.0300 C   0  0  0  0  0  2  0  0  0  0  0  0
  186.9730  175.6660  144.2430 C   0  0  0  0  0  2  0  0  0  0  0  0
  189.3160  176.7600  146.4550 C   0  0  0  0  0  2  0  0  0  0  0  0
  184.8440  177.8130  144.8100 C   0  0  2  0  0  3  0  0  0  0  0  0
  186.4090  178.4950  146.6170 C   0  0  1  0  0  3  0  0  0  0  0  0
  187.8080  176.7990  146.4900 C   0  0  0  0  0  0  0  0  0  0  0  0
  184.0850  178.5330  145.9210 C   0  0  0  0  0  2  0  0  0  0  0  0
  188.5210  175.5830  147.0250 C   0  0  0  0  0  2  0  0  0  0  0  0
  187.0960  176.8140  145.2010 C   0  0  2  0  0  3  0  0  0  0  0  0
  186.2400  177.8050  145.3250 C   0  0  1  0  0  3  0  0  0  0  0  0
  184.9910  178.5510  147.1520 C   0  0  0  0  0  2  0  0  0  0  0  0
  187.2530  177.6940  147.4180 O   0  0  0  0  0  0  0  0  0  0  0  0
  183.5740  178.6790  142.9530 O   0  0  0  0  0  1  0  0  0  0  0  0
  184.6980  178.5490  143.5090 C   0  0  0  0  0  0  0  0  0  0  0  0
  185.8090  179.1560  142.9400 O   0  0  0  0  0  0  0  0  0  0  0  0
  193.7720  175.6850  143.4470 O   0  0  0  0  0  0  0  0  0  0  0  0
  195.6380  174.2880  142.5560 C   0  0  2  0  0  3  0  0  0  0  0  0
  197.3210  172.9430  141.5010 O   0  0  0  0  0  1  0  0  0  0  0  0
  194.3120  175.0440  142.3070 C   0  0  2  0  0  3  0  0  0  0  0  0
  194.3910  175.9920  141.1070 C   0  0  0  0  0  2  0  0  0  0  0  0
  194.8840  175.2580  139.8680 C   0  0  0  0  0  2  0  0  0  0  0  0
  196.0950  173.5790  141.2780 C   0  0  2  0  0  3  0  0  0  0  0  0
  196.2340  174.5980  140.1450 C   0  0  1  0  0  3  0  0  0  0  0  0
  196.7940  173.9770  138.9020 C   0  0  0  0  0  0  0  0  0  0  0  0
  197.9410  174.2880  138.4840 O   0  0  0  0  0  0  0  0  0  0  0  0
  195.3700  172.2120  137.5680 C   0  0  0  0  0  0  0  0  0  0  0  0
  196.0100  173.0270  138.1750 C   0  0  0  0  0  0  0  0  0  0  0  0
  192.9760  169.3630  137.6690 C   0  0  0  0  0  2  0  0  0  0  0  0
  193.1990  171.5850  136.7880 N   0  0  0  0  0  2  0  0  0  0  0  0
  194.6060  171.1950  136.8470 C   0  0  2  0  0  3  0  0  0  0  0  0
  194.7750  169.5930  137.7020 S   0  0  0  0  0  0  0  0  0  0  0  0
  192.4380  170.3500  136.6600 C   0  0  0  0  0  2  0  0  0  0  0  0
  195.4820  173.2610  143.6730 C   0  0  0  0  0  2  0  0  0  0  0  0
  196.2910  173.7220  144.8680 C   0  0  0  0  0  2  0  0  0  0  0  0
  197.1780  172.6070  145.3850 C   0  0  0  0  0  2  0  0  0  0  0  0
  197.1730  171.5660  144.4630 O   0  0  0  0  0  0  0  0  0  0  0  0
  197.5610  170.4420  145.1920 C   0  0  0  0  0  2  0  0  0  0  0  0
  196.6200  170.2460  146.3610 C   0  0  0  0  0  1  0  0  0  0  0  0
  1  8  1  6  0  0  0
  1  6  1  0  0  0  0
  1  7  1  0  0  0  0
  2  7  1  0  0  0  0
  3 37  1  6  0  0  0
  3  2  1  0  0  0  0
  4  3  1  0  0  0  0
  5  4  1  1  0  0  0
  5  1  1  0  0  0  0
  5  6  1  0  0  0  0
  6 22  1  6  0  0  0
  7 19  1  6  0  0  0
  8  9  1  6  0  0  0
 10  8  1  0  0  0  0
 11 13  1  6  0  0  0
 11 12  1  0  0  0  0
 11  9  1  0  0  0  0
 12 10  1  0  0  0  0
 13 14  1  1  0  0  0
 15 13  1  0  0  0  0
 16 18  2  0  0  0  0
 17 18  1  0  0  0  0
 18 15  1  0  0  0  0
 19 20  1  0  0  0  0
 21 19  2  0  0  0  0
 22 23  1  0  0  0  0
 24 27  1  0  0  0  0
 24 29  1  0  0  0  0
 25 35  1  6  0  0  0
 25 31  1  0  0  0  0
 25 28  1  0  0  0  0
 26 32  1  1  0  0  0
 26 33  1  0  0  0  0
 27 29  1  0  0  0  0
 27 33  1  0  0  0  0
 28 32  1  0  0  0  0
 30 23  1  1  0  0  0
 30 31  1  0  0  0  0
 30 27  1  0  0  0  0
 31 26  1  0  0  0  0
 34 35  1  0  0  0  0
 36 35  2  0  0  0  0
 38 54  1  0  0  0  0
 40 38  1  0  0  0  0
 40 37  1  0  0  0  0
 41 40  1  0  0  0  0
 42 44  1  0  0  0  0
 42 41  1  0  0  0  0
 43 39  1  0  0  0  0
 43 38  1  0  0  0  0
 44 43  1  0  0  0  0
 45 44  1  0  0  0  0
 46 45  2  0  0  0  0
 47 48  3  0  0  0  0
 48 45  1  0  0  0  0
 49 52  1  0  0  0  0
 50 51  1  0  0  0  0
 51 47  1  0  0  0  0
 51 52  1  0  0  0  0
 53 50  1  0  0  0  0
 53 49  1  0  0  0  0
 54 55  1  0  0  0  0
 55 56  1  0  0  0  0
 57 58  1  0  0  0  0
 57 56  1  0  0  0  0
 58 59  1  0  0  0  0
M  END
>  <MODEL>
4

>  <REMARK>
 VINA RESULT:      -5.7      3.197      8.219
  Name = 
  19 active torsions:
  status: ('A' for Active; 'I' for Inactive)
    1  A    between atoms: C_1  and  C_38
    2  A    between atoms: C_1  and  C_59
    3  A    between atoms: C_2  and  C_53
    4  A    between atoms: C_3  and  C_9
    5  A    between atoms: C_4  and  C_26
    6  A    between atoms: C_6  and  O_20
    7  A    between atoms: O_7  and  C_12
    8  A    between atoms: O_7  and  C_32
    9  A    between atoms: C_10  and  C_48
   10  A    between atoms: C_10  and  C_55
   11  A    between atoms: C_12  and  C_16
   12  A    between atoms: C_14  and  C_27
   13  A    between atoms: C_16  and  C_26
   14  A    between atoms: O_20  and  C_36
   15  A    between atoms: C_28  and  C_39
   16  A    between atoms: C_28  and  C_49
   17  A    between atoms: C_33  and  C_34
   18  A    between atoms: C_35  and  C_39
   19  A    between atoms: C_48  and  C_57
                            x       y       z     vdW  Elec       q    Type
                         _______ _______ _______ _____ _____    ______ ____

>  <TORSDO>
F 19

$$$$
=
 OpenBabel11072409443D

 59 66  0  0  1  0  0  0  0  0999 V2000
  192.1440  175.1770  145.3130 C   0  0  2  0  0  0  0  0  0  0  0  0
  190.4960  177.0980  145.1490 C   0  0  0  0  0  2  0  0  0  0  0  0
  190.0890  176.5940  143.7820 C   0  0  2  0  0  3  0  0  0  0  0  0
  191.3290  176.1110  143.0190 C   0  0  0  0  0  2  0  0  0  0  0  0
  192.3040  175.1870  143.7860 C   0  0  2  0  0  3  0  0  0  0  0  0
  191.6270  174.0040  144.4650 C   0  0  1  0  0  3  0  0  0  0  0  0
  190.9300  175.8880  145.9490 C   0  0  2  0  0  3  0  0  0  0  0  0
  193.4780  175.1040  146.1190 C   0  0  1  0  0  3  0  0  0  0  0  0
  194.6440  174.4580  145.4060 C   0  0  0  0  0  2  0  0  0  0  0  0
  193.9960  176.5050  146.3960 C   0  0  0  0  0  2  0  0  0  0  0  0
  195.6800  175.5560  145.3130 C   0  0  2  0  0  3  0  0  0  0  0  0
  195.0210  176.7820  145.4870 O   0  0  0  0  0  0  0  0  0  0  0  0
  196.4050  175.5010  143.9720 C   0  0  1  0  0  3  0  0  0  0  0  0
  197.6640  174.9190  144.1170 O   0  0  0  0  0  1  0  0  0  0  0  0
  195.5910  174.7460  142.9230 C   0  0  0  0  0  2  0  0  0  0  0  0
  194.7470  176.4860  141.5200 O   0  0  0  0  0  0  0  0  0  0  0  0
  196.3180  175.0990  140.5190 N   0  0  0  0  0  1  0  0  0  0  0  0
  195.5020  175.4850  141.6230 C   0  0  0  0  0  0  0  0  0  0  0  0
  191.0170  176.1440  147.4230 C   0  0  0  0  0  0  0  0  0  0  0  0
  191.2080  175.1000  148.3180 O   0  0  0  0  0  1  0  0  0  0  0  0
  190.9460  177.3240  147.8550 O   0  0  0  0  0  0  0  0  0  0  0  0
  192.5230  172.7760  144.4700 C   0  0  0  0  0  2  0  0  0  0  0  0
  192.2340  171.9040  143.2550 C   0  0  0  0  0  2  0  0  0  0  0  0
  192.5100  173.6790  140.3650 C   0  0  0  0  0  2  0  0  0  0  0  0
  194.9480  170.4620  143.1090 C   0  0  2  0  0  3  0  0  0  0  0  0
  195.0860  171.5330  140.8690 C   0  0  1  0  0  3  0  0  0  0  0  0
  193.0310  172.3190  140.7600 C   0  0  0  0  0  0  0  0  0  0  0  0
  195.8700  169.6580  142.1950 C   0  0  0  0  0  2  0  0  0  0  0  0
  191.6490  172.4290  140.1690 C   0  0  0  0  0  2  0  0  0  0  0  0
  193.2790  172.0720  142.1910 C   0  0  2  0  0  3  0  0  0  0  0  0
  194.4910  171.5640  142.2190 C   0  0  1  0  0  3  0  0  0  0  0  0
  195.5910  170.1080  140.7600 C   0  0  0  0  0  2  0  0  0  0  0  0
  194.0530  171.8080  139.9450 O   0  0  0  0  0  0  0  0  0  0  0  0
  196.7410  171.6470  144.2010 O   0  0  0  0  0  0  0  0  0  0  0  0
  195.6970  170.9500  144.3160 C   0  0  0  0  0  0  0  0  0  0  0  0
  195.1950  170.6850  145.5830 O   0  0  0  0  0  1  0  0  0  0  0  0
  189.4420  177.6260  143.0770 O   0  0  0  0  0  0  0  0  0  0  0  0
  187.1410  177.9190  142.1560 C   0  0  2  0  0  3  0  0  0  0  0  0
  184.8520  178.1400  141.4760 O   0  0  0  0  0  1  0  0  0  0  0  0
  188.0560  177.6070  143.3630 C   0  0  2  0  0  3  0  0  0  0  0  0
  187.7190  178.4550  144.5930 C   0  0  0  0  0  2  0  0  0  0  0  0
  186.2410  178.3430  144.9390 C   0  0  0  0  0  2  0  0  0  0  0  0
  185.6680  177.8050  142.5610 C   0  0  2  0  0  3  0  0  0  0  0  0
  185.3840  178.7410  143.7380 C   0  0  1  0  0  3  0  0  0  0  0  0
  183.9290  178.7580  144.0980 C   0  0  0  0  0  0  0  0  0  0  0  0
  183.5610  178.7870  145.3030 O   0  0  0  0  0  0  0  0  0  0  0  0
  182.1380  178.7190  142.1710 C   0  0  0  0  0  0  0  0  0  0  0  0
  182.9470  178.7280  143.0580 C   0  0  0  0  0  0  0  0  0  0  0  0
  178.6420  179.2160  140.9910 C   0  0  0  0  0  2  0  0  0  0  0  0
  180.8590  180.0830  140.6810 N   0  0  0  0  0  2  0  0  0  0  0  0
  181.1770  178.7100  141.0690 C   0  0  2  0  0  3  0  0  0  0  0  0
  179.6620  177.8420  141.5960 S   0  0  0  0  0  0  0  0  0  0  0  0
  179.5280  180.0410  140.0900 C   0  0  0  0  0  2  0  0  0  0  0  0
  187.4190  176.9680  140.9970 C   0  0  0  0  0  2  0  0  0  0  0  0
  187.3450  175.5450  141.5140 C   0  0  0  0  0  2  0  0  0  0  0  0
  188.4320  174.6870  140.8990 C   0  0  0  0  0  2  0  0  0  0  0  0
  189.0410  173.9440  141.9060 O   0  0  0  0  0  0  0  0  0  0  0  0
  188.2850  172.7740  141.9910 C   0  0  0  0  0  2  0  0  0  0  0  0
  188.8580  171.8780  143.0670 C   0  0  0  0  0  1  0  0  0  0  0  0
  1  7  1  0  0  0  0
  1  8  1  1  0  0  0
  2  7  1  0  0  0  0
  3 37  1  6  0  0  0
  3  2  1  0  0  0  0
  4  3  1  0  0  0  0
  5  4  1  6  0  0  0
  5  6  1  0  0  0  0
  5  1  1  0  0  0  0
  6 22  1  1  0  0  0
  6  1  1  0  0  0  0
  7 19  1  1  0  0  0
  8  9  1  6  0  0  0
  8 10  1  0  0  0  0
 11 13  1  6  0  0  0
 11  9  1  0  0  0  0
 11 12  1  0  0  0  0
 12 10  1  0  0  0  0
 13 14  1  1  0  0  0
 15 13  1  0  0  0  0
 16 18  2  0  0  0  0
 17 18  1  0  0  0  0
 18 15  1  0  0  0  0
 19 21  2  0  0  0  0
 19 20  1  0  0  0  0
 23 22  1  0  0  0  0
 24 27  1  0  0  0  0
 25 35  1  1  0  0  0
 26 32  1  6  0  0  0
 26 31  1  0  0  0  0
 27 30  1  0  0  0  0
 28 25  1  0  0  0  0
 29 24  1  0  0  0  0
 29 27  1  0  0  0  0
 30 31  1  0  0  0  0
 30 23  1  6  0  0  0
 31 25  1  0  0  0  0
 32 28  1  0  0  0  0
 33 27  1  0  0  0  0
 33 26  1  0  0  0  0
 34 35  2  0  0  0  0
 35 36  1  0  0  0  0
 37 40  1  0  0  0  0
 38 43  1  0  0  0  0
 38 40  1  0  0  0  0
 39 43  1  0  0  0  0
 40 41  1  0  0  0  0
 41 42  1  0  0  0  0
 43 44  1  0  0  0  0
 44 45  1  0  0  0  0
 44 42  1  0  0  0  0
 45 46  2  0  0  0  0
 47 48  3  0  0  0  0
 48 45  1  0  0  0  0
 49 52  1  0  0  0  0
 50 51  1  0  0  0  0
 51 52  1  0  0  0  0
 51 47  1  0  0  0  0
 53 50  1  0  0  0  0
 53 49  1  0  0  0  0
 54 55  1  0  0  0  0
 54 38  1  0  0  0  0
 56 55  1  0  0  0  0
 56 57  1  0  0  0  0
 57 58  1  0  0  0  0
 58 59  1  0  0  0  0
M  END
>  <MODEL>
5

>  <REMARK>
 VINA RESULT:      -5.7      2.588      5.856
  Name = 
  19 active torsions:
  status: ('A' for Active; 'I' for Inactive)
    1  A    between atoms: C_1  and  C_38
    2  A    between atoms: C_1  and  C_59
    3  A    between atoms: C_2  and  C_53
    4  A    between atoms: C_3  and  C_9
    5  A    between atoms: C_4  and  C_26
    6  A    between atoms: C_6  and  O_20
    7  A    between atoms: O_7  and  C_12
    8  A    between atoms: O_7  and  C_32
    9  A    between atoms: C_10  and  C_48
   10  A    between atoms: C_10  and  C_55
   11  A    between atoms: C_12  and  C_16
   12  A    between atoms: C_14  and  C_27
   13  A    between atoms: C_16  and  C_26
   14  A    between atoms: O_20  and  C_36
   15  A    between atoms: C_28  and  C_39
   16  A    between atoms: C_28  and  C_49
   17  A    between atoms: C_33  and  C_34
   18  A    between atoms: C_35  and  C_39
   19  A    between atoms: C_48  and  C_57
                            x       y       z     vdW  Elec       q    Type
                         _______ _______ _______ _____ _____    ______ ____

>  <TORSDO>
F 19

$$$$
=
 OpenBabel11072409443D

 59 66  0  0  1  0  0  0  0  0999 V2000
  191.4720  175.5760  144.8860 C   0  0  2  0  0  0  0  0  0  0  0  0
  190.2320  173.3680  145.0230 C   0  0  0  0  0  2  0  0  0  0  0  0
  191.2620  172.7650  144.0950 C   0  0  2  0  0  3  0  0  0  0  0  0
  191.6310  173.7780  143.0040 C   0  0  0  0  0  2  0  0  0  0  0  0
  191.9440  175.2200  143.4680 C   0  0  2  0  0  3  0  0  0  0  0  0
  192.9560  175.2960  144.6030 C   0  0  1  0  0  3  0  0  0  0  0  0
  190.9340  174.4580  145.8050 C   0  0  2  0  0  3  0  0  0  0  0  0
  190.9090  177.0210  145.0530 C   0  0  1  0  0  3  0  0  0  0  0  0
  190.7810  177.8300  143.7830 C   0  0  0  0  0  2  0  0  0  0  0  0
  189.4760  176.9670  145.5550 C   0  0  0  0  0  2  0  0  0  0  0  0
  189.3000  178.1150  143.6690 C   0  0  2  0  0  3  0  0  0  0  0  0
  188.6220  177.1850  144.4710 O   0  0  0  0  0  0  0  0  0  0  0  0
  188.8450  178.0310  142.2150 C   0  0  1  0  0  3  0  0  0  0  0  0
  188.8310  176.7080  141.7780 O   0  0  0  0  0  1  0  0  0  0  0  0
  187.4700  178.6680  142.0190 C   0  0  0  0  0  2  0  0  0  0  0  0
  185.7600  177.0460  142.4020 O   0  0  0  0  0  0  0  0  0  0  0  0
  186.1790  177.5150  140.1660 N   0  0  0  0  0  1  0  0  0  0  0  0
  186.4400  177.6840  141.5580 C   0  0  0  0  0  0  0  0  0  0  0  0
  190.1740  174.9110  147.0150 C   0  0  0  0  0  0  0  0  0  0  0  0
  190.8040  175.6260  148.0250 O   0  0  0  0  0  1  0  0  0  0  0  0
  188.9420  174.6670  147.1040 O   0  0  0  0  0  0  0  0  0  0  0  0
  193.8260  176.5380  144.4930 C   0  0  0  0  0  2  0  0  0  0  0  0
  195.2900  176.1830  144.7140 C   0  0  0  0  0  2  0  0  0  0  0  0
  196.3720  176.7860  141.5450 C   0  0  0  0  0  2  0  0  0  0  0  0
  195.6520  173.1280  144.6950 C   0  0  2  0  0  3  0  0  0  0  0  0
  196.2020  173.4850  142.2960 C   0  0  1  0  0  3  0  0  0  0  0  0
  195.6450  175.6100  142.1500 C   0  0  0  0  0  0  0  0  0  0  0  0
  195.3710  171.8580  143.8950 C   0  0  0  0  0  2  0  0  0  0  0  0
  194.8430  176.7710  141.6160 C   0  0  0  0  0  2  0  0  0  0  0  0
  195.8350  175.3560  143.5880 C   0  0  2  0  0  3  0  0  0  0  0  0
  196.1220  174.0740  143.6460 C   0  0  1  0  0  3  0  0  0  0  0  0
  195.3260  172.2530  142.4180 C   0  0  0  0  0  2  0  0  0  0  0  0
  195.6740  174.4310  141.3900 O   0  0  0  0  0  0  0  0  0  0  0  0
  197.0940  173.7880  146.5090 O   0  0  0  0  0  1  0  0  0  0  0  0
  196.6790  172.8650  145.7580 C   0  0  0  0  0  0  0  0  0  0  0  0
  197.1320  171.5690  145.9640 O   0  0  0  0  0  0  0  0  0  0  0  0
  190.7440  171.5860  143.5240 O   0  0  0  0  0  0  0  0  0  0  0  0
  190.0820  171.2190  141.1460 C   0  0  2  0  0  3  0  0  0  0  0  0
  189.6640  170.8950  138.8070 O   0  0  0  0  0  1  0  0  0  0  0  0
  191.1970  171.4590  142.1900 C   0  0  2  0  0  3  0  0  0  0  0  0
  192.3410  170.4470  142.0730 C   0  0  0  0  0  2  0  0  0  0  0  0
  192.8760  170.3960  140.6500 C   0  0  0  0  0  2  0  0  0  0  0  0
  190.6750  171.1640  139.7350 C   0  0  2  0  0  3  0  0  0  0  0  0
  191.7480  170.0760  139.6700 C   0  0  1  0  0  3  0  0  0  0  0  0
  192.2780  169.8980  138.2790 C   0  0  0  0  0  0  0  0  0  0  0  0
  192.3010  168.7620  137.7370 O   0  0  0  0  0  0  0  0  0  0  0  0
  193.1700  171.9860  136.9490 C   0  0  0  0  0  0  0  0  0  0  0  0
  192.7740  171.0340  137.5650 C   0  0  0  0  0  0  0  0  0  0  0  0
  193.6030  175.6780  136.7510 C   0  0  0  0  0  2  0  0  0  0  0  0
  194.8790  173.6450  136.7470 N   0  0  0  0  0  2  0  0  0  0  0  0
  193.6200  173.1530  136.1920 C   0  0  2  0  0  3  0  0  0  0  0  0
  192.3470  174.4560  136.2780 S   0  0  0  0  0  0  0  0  0  0  0  0
  194.9420  175.0640  136.4210 C   0  0  0  0  0  2  0  0  0  0  0  0
  189.0290  172.3210  141.2070 C   0  0  0  0  0  2  0  0  0  0  0  0
  189.5930  173.5630  140.5480 C   0  0  0  0  0  2  0  0  0  0  0  0
  188.5900  174.1700  139.5870 C   0  0  0  0  0  2  0  0  0  0  0  0
  189.0950  174.0780  138.2940 O   0  0  0  0  0  0  0  0  0  0  0  0
  188.0400  174.4700  137.4700 C   0  0  0  0  0  2  0  0  0  0  0  0
  188.5820  174.9180  136.1310 C   0  0  0  0  0  1  0  0  0  0  0  0
  1  8  1  1  0  0  0
  1  7  1  0  0  0  0
  2  7  1  0  0  0  0
  3 37  1  6  0  0  0
  3  2  1  0  0  0  0
  4  3  1  0  0  0  0
  5  4  1  1  0  0  0
  5  6  1  0  0  0  0
  5  1  1  0  0  0  0
  6 22  1  6  0  0  0
  6  1  1  0  0  0  0
  7 19  1  1  0  0  0
  8  9  1  6  0  0  0
  8 10  1  0  0  0  0
 11 13  1  6  0  0  0
 11  9  1  0  0  0  0
 11 12  1  0  0  0  0
 12 10  1  0  0  0  0
 13 14  1  1  0  0  0
 15 13  1  0  0  0  0
 17 18  1  0  0  0  0
 18 15  1  0  0  0  0
 18 16  2  0  0  0  0
 19 21  2  0  0  0  0
 19 20  1  0  0  0  0
 22 23  1  0  0  0  0
 24 29  1  0  0  0  0
 24 27  1  0  0  0  0
 25 35  1  1  0  0  0
 26 32  1  1  0  0  0
 26 31  1  0  0  0  0
 27 30  1  0  0  0  0
 28 25  1  0  0  0  0
 29 27  1  0  0  0  0
 30 31  1  0  0  0  0
 30 23  1  1  0  0  0
 31 25  1  0  0  0  0
 32 28  1  0  0  0  0
 33 27  1  0  0  0  0
 33 26  1  0  0  0  0
 35 36  2  0  0  0  0
 35 34  1  0  0  0  0
 38 54  1  0  0  0  0
 38 40  1  0  0  0  0
 39 43  1  0  0  0  0
 40 37  1  0  0  0  0
 41 40  1  0  0  0  0
 42 41  1  0  0  0  0
 43 38  1  0  0  0  0
 44 43  1  0  0  0  0
 44 42  1  0  0  0  0
 45 44  1  0  0  0  0
 46 45  2  0  0  0  0
 47 48  3  0  0  0  0
 48 45  1  0  0  0  0
 51 52  1  0  0  0  0
 51 50  1  0  0  0  0
 51 47  1  0  0  0  0
 52 49  1  0  0  0  0
 53 50  1  0  0  0  0
 53 49  1  0  0  0  0
 55 54  1  0  0  0  0
 56 55  1  0  0  0  0
 57 56  1  0  0  0  0
 58 57  1  0  0  0  0
 59 58  1  0  0  0  0
M  END
>  <MODEL>
6

>  <REMARK>
 VINA RESULT:      -5.4      2.641      8.472
  Name = 
  19 active torsions:
  status: ('A' for Active; 'I' for Inactive)
    1  A    between atoms: C_1  and  C_38
    2  A    between atoms: C_1  and  C_59
    3  A    between atoms: C_2  and  C_53
    4  A    between atoms: C_3  and  C_9
    5  A    between atoms: C_4  and  C_26
    6  A    between atoms: C_6  and  O_20
    7  A    between atoms: O_7  and  C_12
    8  A    between atoms: O_7  and  C_32
    9  A    between atoms: C_10  and  C_48
   10  A    between atoms: C_10  and  C_55
   11  A    between atoms: C_12  and  C_16
   12  A    between atoms: C_14  and  C_27
   13  A    between atoms: C_16  and  C_26
   14  A    between atoms: O_20  and  C_36
   15  A    between atoms: C_28  and  C_39
   16  A    between atoms: C_28  and  C_49
   17  A    between atoms: C_33  and  C_34
   18  A    between atoms: C_35  and  C_39
   19  A    between atoms: C_48  and  C_57
                            x       y       z     vdW  Elec       q    Type
                         _______ _______ _______ _____ _____    ______ ____

>  <TORSDO>
F 19

$$$$
=
 OpenBabel11072409443D

 59 66  0  0  1  0  0  0  0  0999 V2000
  191.5410  173.7830  142.8630 C   0  0  2  0  0  0  0  0  0  0  0  0
  189.3480  174.2610  144.0430 C   0  0  0  0  0  2  0  0  0  0  0  0
  189.3320  175.6290  143.3980 C   0  0  2  0  0  3  0  0  0  0  0  0
  190.7500  176.2120  143.3870 C   0  0  0  0  0  2  0  0  0  0  0  0
  191.8850  175.2800  142.8990 C   0  0  2  0  0  3  0  0  0  0  0  0
  191.5970  174.6050  141.5650 C   0  0  1  0  0  3  0  0  0  0  0  0
  190.0810  173.3380  143.0920 C   0  0  2  0  0  3  0  0  0  0  0  0
  192.6940  172.8280  143.2990 C   0  0  1  0  0  3  0  0  0  0  0  0
  194.0880  173.4100  143.2470 C   0  0  0  0  0  2  0  0  0  0  0  0
  192.5440  172.4670  144.7680 C   0  0  0  0  0  2  0  0  0  0  0  0
  194.5680  173.3610  144.6800 C   0  0  2  0  0  3  0  0  0  0  0  0
  193.4410  173.2440  145.5060 O   0  0  0  0  0  0  0  0  0  0  0  0
  195.3790  174.6080  145.0200 C   0  0  1  0  0  3  0  0  0  0  0  0
  196.6590  174.5280  144.4750 O   0  0  0  0  0  1  0  0  0  0  0  0
  194.6800  175.8800  144.5440 C   0  0  0  0  0  2  0  0  0  0  0  0
  193.5470  176.4060  146.5800 O   0  0  0  0  0  0  0  0  0  0  0  0
  194.9140  178.0940  145.7590 N   0  0  0  0  0  1  0  0  0  0  0  0
  194.3240  176.7990  145.6720 C   0  0  0  0  0  0  0  0  0  0  0  0
  189.8760  171.8840  143.3920 C   0  0  0  0  0  0  0  0  0  0  0  0
  190.2290  170.9100  142.4700 O   0  0  0  0  0  0  0  0  0  0  0  0
  189.4060  171.5390  144.5080 O   0  0  0  0  0  1  0  0  0  0  0  0
  192.8660  174.4170  140.7500 C   0  0  0  0  0  2  0  0  0  0  0  0
  192.5270  173.9960  139.3270 C   0  0  0  0  0  2  0  0  0  0  0  0
  193.3420  170.9110  140.5070 C   0  0  0  0  0  2  0  0  0  0  0  0
  189.9270  173.2060  137.8840 C   0  0  2  0  0  3  0  0  0  0  0  0
  190.6110  170.8970  138.5000 C   0  0  1  0  0  3  0  0  0  0  0  0
  192.6320  171.3480  139.2500 C   0  0  0  0  0  0  0  0  0  0  0  0
  189.3110  172.1980  136.9170 C   0  0  0  0  0  2  0  0  0  0  0  0
  194.1370  171.2500  139.2430 C   0  0  0  0  0  2  0  0  0  0  0  0
  191.9080  172.6300  139.2850 C   0  0  2  0  0  3  0  0  0  0  0  0
  190.7240  172.3380  138.7920 C   0  0  1  0  0  3  0  0  0  0  0  0
  190.0780  170.8850  137.0800 C   0  0  0  0  0  2  0  0  0  0  0  0
  191.9080  170.3430  138.5900 O   0  0  0  0  0  0  0  0  0  0  0  0
  188.9050  174.1750  139.8400 O   0  0  0  0  0  1  0  0  0  0  0  0
  188.8530  173.9780  138.5960 C   0  0  0  0  0  0  0  0  0  0  0  0
  187.8180  174.5430  137.8630 O   0  0  0  0  0  0  0  0  0  0  0  0
  188.4530  176.4700  144.1060 O   0  0  0  0  0  0  0  0  0  0  0  0
  186.3280  177.7450  143.8140 C   0  0  2  0  0  3  0  0  0  0  0  0
  184.3510  179.0080  143.3180 O   0  0  0  0  0  1  0  0  0  0  0  0
  187.6290  177.1770  143.2000 C   0  0  2  0  0  3  0  0  0  0  0  0
  187.3740  176.3740  141.9200 C   0  0  0  0  0  2  0  0  0  0  0  0
  186.5660  177.1900  140.9210 C   0  0  0  0  0  2  0  0  0  0  0  0
  185.5490  178.5440  142.7650 C   0  0  2  0  0  3  0  0  0  0  0  0
  185.2560  177.6570  141.5540 C   0  0  1  0  0  3  0  0  0  0  0  0
  184.3920  178.3540  140.5480 C   0  0  0  0  0  0  0  0  0  0  0  0
  184.8670  178.7480  139.4500 O   0  0  0  0  0  0  0  0  0  0  0  0
  181.8600  178.7880  141.1190 C   0  0  0  0  0  0  0  0  0  0  0  0
  183.0120  178.5850  140.8460 C   0  0  0  0  0  0  0  0  0  0  0  0
  178.5550  177.5040  142.2540 C   0  0  0  0  0  2  0  0  0  0  0  0
  180.3060  179.0040  142.9230 N   0  0  0  0  0  2  0  0  0  0  0  0
  180.4670  179.0600  141.4710 C   0  0  2  0  0  3  0  0  0  0  0  0
  179.3900  177.8220  140.6750 S   0  0  0  0  0  0  0  0  0  0  0  0
  178.9130  178.6530  143.1650 C   0  0  0  0  0  2  0  0  0  0  0  0
  186.6330  178.6440  145.0080 C   0  0  0  0  0  2  0  0  0  0  0  0
  186.3630  177.8650  146.2790 C   0  0  0  0  0  2  0  0  0  0  0  0
  187.5230  177.9850  147.2460 C   0  0  0  0  0  2  0  0  0  0  0  0
  188.2850  176.8220  147.1810 O   0  0  0  0  0  0  0  0  0  0  0  0
  189.5500  177.2470  146.7760 C   0  0  0  0  0  2  0  0  0  0  0  0
  190.4400  177.4170  147.9880 C   0  0  0  0  0  1  0  0  0  0  0  0
  1  5  1  0  0  0  0
  1  7  1  0  0  0  0
  1  8  1  1  0  0  0
  3  2  1  0  0  0  0
  3 37  1  1  0  0  0
  4  3  1  0  0  0  0
  5  4  1  1  0  0  0
  6 22  1  6  0  0  0
  6  1  1  0  0  0  0
  6  5  1  0  0  0  0
  7 19  1  1  0  0  0
  7  2  1  0  0  0  0
  8  9  1  1  0  0  0
  8 10  1  0  0  0  0
  9 11  1  0  0  0  0
 10 12  1  0  0  0  0
 11 13  1  1  0  0  0
 11 12  1  0  0  0  0
 13 14  1  6  0  0  0
 15 13  1  0  0  0  0
 15 18  1  0  0  0  0
 18 17  1  0  0  0  0
 18 16  2  0  0  0  0
 19 21  1  0  0  0  0
 20 19  2  0  0  0  0
 23 22  1  0  0  0  0
 25 35  1  1  0  0  0
 25 31  1  0  0  0  0
 26 32  1  6  0  0  0
 26 33  1  0  0  0  0
 26 31  1  0  0  0  0
 27 30  1  0  0  0  0
 27 24  1  0  0  0  0
 28 32  1  0  0  0  0
 28 25  1  0  0  0  0
 29 27  1  0  0  0  0
 29 24  1  0  0  0  0
 30 23  1  6  0  0  0
 31 30  1  0  0  0  0
 33 27  1  0  0  0  0
 35 34  1  0  0  0  0
 36 35  2  0  0  0  0
 38 54  1  0  0  0  0
 40 38  1  0  0  0  0
 40 37  1  0  0  0  0
 41 40  1  0  0  0  0
 42 44  1  0  0  0  0
 42 41  1  0  0  0  0
 43 39  1  0  0  0  0
 43 38  1  0  0  0  0
 44 43  1  0  0  0  0
 45 48  1  0  0  0  0
 45 44  1  0  0  0  0
 46 45  2  0  0  0  0
 47 51  1  0  0  0  0
 48 47  3  0  0  0  0
 49 53  1  0  0  0  0
 50 53  1  0  0  0  0
 51 50  1  0  0  0  0
 52 51  1  0  0  0  0
 52 49  1  0  0  0  0
 54 55  1  0  0  0  0
 55 56  1  0  0  0  0
 57 56  1  0  0  0  0
 58 57  1  0  0  0  0
 58 59  1  0  0  0  0
M  END
>  <MODEL>
7

>  <REMARK>
 VINA RESULT:      -5.4      2.951      5.683
  Name = 
  19 active torsions:
  status: ('A' for Active; 'I' for Inactive)
    1  A    between atoms: C_1  and  C_38
    2  A    between atoms: C_1  and  C_59
    3  A    between atoms: C_2  and  C_53
    4  A    between atoms: C_3  and  C_9
    5  A    between atoms: C_4  and  C_26
    6  A    between atoms: C_6  and  O_20
    7  A    between atoms: O_7  and  C_12
    8  A    between atoms: O_7  and  C_32
    9  A    between atoms: C_10  and  C_48
   10  A    between atoms: C_10  and  C_55
   11  A    between atoms: C_12  and  C_16
   12  A    between atoms: C_14  and  C_27
   13  A    between atoms: C_16  and  C_26
   14  A    between atoms: O_20  and  C_36
   15  A    between atoms: C_28  and  C_39
   16  A    between atoms: C_28  and  C_49
   17  A    between atoms: C_33  and  C_34
   18  A    between atoms: C_35  and  C_39
   19  A    between atoms: C_48  and  C_57
                            x       y       z     vdW  Elec       q    Type
                         _______ _______ _______ _____ _____    ______ ____

>  <TORSDO>
F 19

$$$$
=
 OpenBabel11072409443D

 59 66  0  0  1  0  0  0  0  0999 V2000
  192.6620  173.8230  143.7000 C   0  0  2  0  0  0  0  0  0  0  0  0
  190.7850  175.5130  143.9220 C   0  0  0  0  0  2  0  0  0  0  0  0
  190.0390  174.5270  144.7940 C   0  0  2  0  0  3  0  0  0  0  0  0
  190.2120  173.1100  144.2340 C   0  0  0  0  0  2  0  0  0  0  0  0
  191.6490  172.6800  143.8540 C   0  0  2  0  0  3  0  0  0  0  0  0
  192.6770  172.9280  144.9490 C   0  0  1  0  0  3  0  0  0  0  0  0
  192.2610  175.2500  144.1310 C   0  0  2  0  0  3  0  0  0  0  0  0
  193.6840  173.6500  142.5340 C   0  0  1  0  0  3  0  0  0  0  0  0
  193.8870  172.2360  142.0400 C   0  0  0  0  0  2  0  0  0  0  0  0
  193.1820  174.3650  141.2910 C   0  0  0  0  0  2  0  0  0  0  0  0
  193.4450  172.2780  140.5950 C   0  0  2  0  0  3  0  0  0  0  0  0
  192.6360  173.4120  140.4270 O   0  0  0  0  0  0  0  0  0  0  0  0
  192.6970  171.0020  140.2210 C   0  0  1  0  0  3  0  0  0  0  0  0
  193.2140  169.9070  140.9130 O   0  0  0  0  0  1  0  0  0  0  0  0
  191.1980  171.1320  140.4820 C   0  0  0  0  0  2  0  0  0  0  0  0
  190.4330  170.1020  138.4670 O   0  0  0  0  0  0  0  0  0  0  0  0
  189.5190  172.1920  138.9030 N   0  0  0  0  0  1  0  0  0  0  0  0
  190.3900  171.1080  139.2210 C   0  0  0  0  0  0  0  0  0  0  0  0
  193.1420  176.3580  143.6370 C   0  0  0  0  0  0  0  0  0  0  0  0
  194.4230  176.5300  144.1440 O   0  0  0  0  0  1  0  0  0  0  0  0
  192.7290  177.1240  142.7270 O   0  0  0  0  0  0  0  0  0  0  0  0
  193.7580  171.8600  144.9520 C   0  0  0  0  0  2  0  0  0  0  0  0
  194.7040  172.0640  146.1280 C   0  0  0  0  0  2  0  0  0  0  0  0
  197.5690  173.7270  145.3500 C   0  0  0  0  0  2  0  0  0  0  0  0
  195.7950  169.2040  145.8200 C   0  0  2  0  0  3  0  0  0  0  0  0
  197.8330  170.3660  144.9960 C   0  0  1  0  0  3  0  0  0  0  0  0
  197.0140  172.4070  144.8730 C   0  0  0  0  0  0  0  0  0  0  0  0
  196.5940  168.2810  144.9030 C   0  0  0  0  0  2  0  0  0  0  0  0
  196.6170  173.6700  144.1520 C   0  0  0  0  0  2  0  0  0  0  0  0
  196.1110  171.6780  145.7810 C   0  0  2  0  0  3  0  0  0  0  0  0
  196.5990  170.4570  145.7980 C   0  0  1  0  0  3  0  0  0  0  0  0
  197.5720  169.1570  144.1180 C   0  0  0  0  0  2  0  0  0  0  0  0
  197.9400  171.5590  144.2460 O   0  0  0  0  0  0  0  0  0  0  0  0
  196.6830  168.1850  147.8160 O   0  0  0  0  0  1  0  0  0  0  0  0
  195.6720  168.6060  147.1920 C   0  0  0  0  0  0  0  0  0  0  0  0
  194.4310  168.5770  147.8140 O   0  0  0  0  0  0  0  0  0  0  0  0
  188.6780  174.8810  144.8400 O   0  0  0  0  0  0  0  0  0  0  0  0
  187.3580  176.8260  144.0000 C   0  0  2  0  0  3  0  0  0  0  0  0
  186.1900  178.6620  142.9920 O   0  0  0  0  0  1  0  0  0  0  0  0
  188.3490  175.6740  143.7150 C   0  0  2  0  0  3  0  0  0  0  0  0
  187.9230  174.8140  142.5200 C   0  0  0  0  0  2  0  0  0  0  0  0
  187.6670  175.6790  141.2950 C   0  0  0  0  0  2  0  0  0  0  0  0
  187.1260  177.6560  142.7340 C   0  0  2  0  0  3  0  0  0  0  0  0
  186.6220  176.7490  141.6090 C   0  0  1  0  0  3  0  0  0  0  0  0
  186.2650  177.5300  140.3820 C   0  0  0  0  0  0  0  0  0  0  0  0
  185.7230  178.6640  140.4710 O   0  0  0  0  0  0  0  0  0  0  0  0
  186.7550  176.5300  137.9970 C   0  0  0  0  0  0  0  0  0  0  0  0
  186.5330  176.9730  139.0910 C   0  0  0  0  0  0  0  0  0  0  0  0
  189.0860  176.3110  135.1030 C   0  0  0  0  0  2  0  0  0  0  0  0
  188.0050  174.9260  136.7400 N   0  0  0  0  0  2  0  0  0  0  0  0
  187.0390  176.0200  136.6570 C   0  0  2  0  0  3  0  0  0  0  0  0
  187.7090  177.3680  135.6270 S   0  0  0  0  0  0  0  0  0  0  0  0
  188.6970  174.8950  135.4580 C   0  0  0  0  0  2  0  0  0  0  0  0
  187.8810  177.7350  145.1090 C   0  0  0  0  0  2  0  0  0  0  0  0
  187.3720  177.2140  146.4380 C   0  0  0  0  0  2  0  0  0  0  0  0
  186.7400  178.3270  147.2500 C   0  0  0  0  0  2  0  0  0  0  0  0
  185.8380  179.0140  146.4440 O   0  0  0  0  0  0  0  0  0  0  0  0
  184.6610  178.2700  146.5110 C   0  0  0  0  0  2  0  0  0  0  0  0
  183.7110  178.7240  145.4240 C   0  0  0  0  0  1  0  0  0  0  0  0
  1  8  1  6  0  0  0
  1  5  1  0  0  0  0
  1  7  1  0  0  0  0
  1  6  1  0  0  0  0
  2  7  1  0  0  0  0
  2  3  1  0  0  0  0
  3 37  1  6  0  0  0
  4  3  1  0  0  0  0
  5  4  1  1  0  0  0
  5  6  1  0  0  0  0
  6 22  1  6  0  0  0
  7 19  1  6  0  0  0
  8 10  1  6  0  0  0
  9  8  1  0  0  0  0
 11 13  1  1  0  0  0
 11  9  1  0  0  0  0
 12 11  1  0  0  0  0
 12 10  1  0  0  0  0
 13 15  1  0  0  0  0
 13 14  1  1  0  0  0
 16 18  2  0  0  0  0
 17 18  1  0  0  0  0
 18 15  1  0  0  0  0
 19 20  1  0  0  0  0
 21 19  2  0  0  0  0
 22 23  1  0  0  0  0
 25 35  1  1  0  0  0
 26 32  1  6  0  0  0
 26 31  1  0  0  0  0
 27 24  1  0  0  0  0
 27 30  1  0  0  0  0
 28 25  1  0  0  0  0
 29 27  1  0  0  0  0
 29 24  1  0  0  0  0
 30 31  1  0  0  0  0
 30 23  1  6  0  0  0
 31 25  1  0  0  0  0
 32 28  1  0  0  0  0
 33 27  1  0  0  0  0
 33 26  1  0  0  0  0
 35 36  2  0  0  0  0
 35 34  1  0  0  0  0
 38 54  1  0  0  0  0
 40 38  1  0  0  0  0
 40 37  1  0  0  0  0
 41 40  1  0  0  0  0
 42 44  1  0  0  0  0
 42 41  1  0  0  0  0
 43 39  1  0  0  0  0
 43 38  1  0  0  0  0
 44 43  1  0  0  0  0
 45 46  2  0  0  0  0
 45 44  1  0  0  0  0
 47 48  3  0  0  0  0
 48 45  1  0  0  0  0
 49 53  1  0  0  0  0
 49 52  1  0  0  0  0
 51 50  1  0  0  0  0
 51 47  1  0  0  0  0
 52 51  1  0  0  0  0
 53 50  1  0  0  0  0
 54 55  1  0  0  0  0
 55 56  1  0  0  0  0
 57 58  1  0  0  0  0
 57 56  1  0  0  0  0
 59 58  1  0  0  0  0
M  END
>  <MODEL>
8

>  <REMARK>
 VINA RESULT:      -5.4      2.735      6.925
  Name = 
  19 active torsions:
  status: ('A' for Active; 'I' for Inactive)
    1  A    between atoms: C_1  and  C_38
    2  A    between atoms: C_1  and  C_59
    3  A    between atoms: C_2  and  C_53
    4  A    between atoms: C_3  and  C_9
    5  A    between atoms: C_4  and  C_26
    6  A    between atoms: C_6  and  O_20
    7  A    between atoms: O_7  and  C_12
    8  A    between atoms: O_7  and  C_32
    9  A    between atoms: C_10  and  C_48
   10  A    between atoms: C_10  and  C_55
   11  A    between atoms: C_12  and  C_16
   12  A    between atoms: C_14  and  C_27
   13  A    between atoms: C_16  and  C_26
   14  A    between atoms: O_20  and  C_36
   15  A    between atoms: C_28  and  C_39
   16  A    between atoms: C_28  and  C_49
   17  A    between atoms: C_33  and  C_34
   18  A    between atoms: C_35  and  C_39
   19  A    between atoms: C_48  and  C_57
                            x       y       z     vdW  Elec       q    Type
                         _______ _______ _______ _____ _____    ______ ____

>  <TORSDO>
F 19

$$$$
=
 OpenBabel11072409443D

 59 66  0  0  1  0  0  0  0  0999 V2000
  192.1140  175.1470  145.3250 C   0  0  2  0  0  0  0  0  0  0  0  0
  190.4480  177.0320  145.0060 C   0  0  0  0  0  2  0  0  0  0  0  0
  190.0860  176.4460  143.6600 C   0  0  2  0  0  3  0  0  0  0  0  0
  191.3530  175.9380  142.9600 C   0  0  0  0  0  2  0  0  0  0  0  0
  192.3170  175.0720  143.8050 C   0  0  2  0  0  3  0  0  0  0  0  0
  191.6360  173.9210  144.5320 C   0  0  1  0  0  3  0  0  0  0  0  0
  190.8740  175.8760  145.8850 C   0  0  2  0  0  3  0  0  0  0  0  0
  193.4260  175.1390  146.1700 C   0  0  1  0  0  3  0  0  0  0  0  0
  194.6250  174.4880  145.5190 C   0  0  0  0  0  2  0  0  0  0  0  0
  193.9070  176.5620  146.3980 C   0  0  0  0  0  2  0  0  0  0  0  0
  195.6400  175.6030  145.4050 C   0  0  2  0  0  3  0  0  0  0  0  0
  194.9520  176.8210  145.5060 O   0  0  0  0  0  0  0  0  0  0  0  0
  196.4050  175.5040  144.0890 C   0  0  1  0  0  3  0  0  0  0  0  0
  197.4960  174.6450  144.2160 O   0  0  0  0  0  1  0  0  0  0  0  0
  195.5010  175.0460  142.9460 C   0  0  0  0  0  2  0  0  0  0  0  0
  194.6750  176.5470  141.2820 O   0  0  0  0  0  0  0  0  0  0  0  0
  196.9220  176.0000  141.0760 N   0  0  0  0  0  1  0  0  0  0  0  0
  195.6540  175.8880  141.7170 C   0  0  0  0  0  0  0  0  0  0  0  0
  190.9160  176.2170  147.3440 C   0  0  0  0  0  0  0  0  0  0  0  0
  191.1540  175.2380  148.2990 O   0  0  0  0  0  1  0  0  0  0  0  0
  190.7650  177.4130  147.7090 O   0  0  0  0  0  0  0  0  0  0  0  0
  192.5460  172.7070  144.6310 C   0  0  0  0  0  2  0  0  0  0  0  0
  192.0560  171.5980  143.7100 C   0  0  0  0  0  2  0  0  0  0  0  0
  193.8050  168.8120  144.5770 C   0  0  0  0  0  2  0  0  0  0  0  0
  193.6290  172.2900  141.1580 C   0  0  2  0  0  3  0  0  0  0  0  0
  195.0960  170.4190  141.8870 C   0  0  1  0  0  3  0  0  0  0  0  0
  194.2250  170.0830  143.8810 C   0  0  0  0  0  0  0  0  0  0  0  0
  195.0330  172.4670  140.5860 C   0  0  0  0  0  2  0  0  0  0  0  0
  194.2610  170.0280  145.3870 C   0  0  0  0  0  2  0  0  0  0  0  0
  193.1970  170.8190  143.1260 C   0  0  2  0  0  3  0  0  0  0  0  0
  193.7620  171.0430  141.9590 C   0  0  1  0  0  3  0  0  0  0  0  0
  195.9670  171.5530  141.3810 C   0  0  0  0  0  2  0  0  0  0  0  0
  195.4470  170.0150  143.1940 O   0  0  0  0  0  0  0  0  0  0  0  0
  191.3820  172.1720  140.2950 O   0  0  0  0  0  1  0  0  0  0  0  0
  192.6190  172.1790  140.0530 C   0  0  0  0  0  0  0  0  0  0  0  0
  193.0520  172.1510  138.7340 O   0  0  0  0  0  0  0  0  0  0  0  0
  189.4460  177.4270  142.8790 O   0  0  0  0  0  0  0  0  0  0  0  0
  187.1510  177.9300  142.0360 C   0  0  2  0  0  3  0  0  0  0  0  0
  184.8680  178.3410  141.4270 O   0  0  0  0  0  1  0  0  0  0  0  0
  188.0670  177.4650  143.1930 C   0  0  2  0  0  3  0  0  0  0  0  0
  187.8020  178.2260  144.4950 C   0  0  0  0  0  2  0  0  0  0  0  0
  186.3260  178.1730  144.8630 C   0  0  0  0  0  2  0  0  0  0  0  0
  185.6820  177.8690  142.4630 C   0  0  2  0  0  3  0  0  0  0  0  0
  185.4740  178.7190  143.7180 C   0  0  1  0  0  3  0  0  0  0  0  0
  184.0300  178.7910  144.1100 C   0  0  0  0  0  0  0  0  0  0  0  0
  183.6910  178.8800  145.3200 O   0  0  0  0  0  0  0  0  0  0  0  0
  182.1880  178.7280  142.2310 C   0  0  0  0  0  0  0  0  0  0  0  0
  183.0220  178.7460  143.0950 C   0  0  0  0  0  0  0  0  0  0  0  0
  178.6720  179.2850  141.1430 C   0  0  0  0  0  2  0  0  0  0  0  0
  180.8990  180.0890  140.7470 N   0  0  0  0  0  2  0  0  0  0  0  0
  181.1950  178.7170  141.1580 C   0  0  2  0  0  3  0  0  0  0  0  0
  179.6760  177.9000  141.7490 S   0  0  0  0  0  0  0  0  0  0  0  0
  179.5500  180.0670  140.1960 C   0  0  0  0  0  2  0  0  0  0  0  0
  187.3520  177.0640  140.7970 C   0  0  0  0  0  2  0  0  0  0  0  0
  187.4140  175.6120  141.2290 C   0  0  0  0  0  2  0  0  0  0  0  0
  188.1780  174.7780  140.2210 C   0  0  0  0  0  2  0  0  0  0  0  0
  188.3220  173.4880  140.7230 O   0  0  0  0  0  0  0  0  0  0  0  0
  188.1670  173.6230  142.1020 C   0  0  0  0  0  2  0  0  0  0  0  0
  188.7340  172.4050  142.7980 C   0  0  0  0  0  1  0  0  0  0  0  0
  1  7  1  0  0  0  0
  1  8  1  1  0  0  0
  2  7  1  0  0  0  0
  3 37  1  6  0  0  0
  3  2  1  0  0  0  0
  4  3  1  0  0  0  0
  5  4  1  6  0  0  0
  5  6  1  0  0  0  0
  5  1  1  0  0  0  0
  6 22  1  1  0  0  0
  6  1  1  0  0  0  0
  7 19  1  1  0  0  0
  8  9  1  6  0  0  0
  8 10  1  0  0  0  0
 11 13  1  6  0  0  0
 11 12  1  0  0  0  0
 11  9  1  0  0  0  0
 12 10  1  0  0  0  0
 13 14  1  1  0  0  0
 15 13  1  0  0  0  0
 16 18  2  0  0  0  0
 17 18  1  0  0  0  0
 18 15  1  0  0  0  0
 19 21  2  0  0  0  0
 19 20  1  0  0  0  0
 23 22  1  0  0  0  0
 24 29  1  0  0  0  0
 25 35  1  6  0  0  0
 25 31  1  0  0  0  0
 26 32  1  1  0  0  0
 26 31  1  0  0  0  0
 26 33  1  0  0  0  0
 27 24  1  0  0  0  0
 27 29  1  0  0  0  0
 28 25  1  0  0  0  0
 28 32  1  0  0  0  0
 30 23  1  1  0  0  0
 30 27  1  0  0  0  0
 31 30  1  0  0  0  0
 33 27  1  0  0  0  0
 35 34  1  0  0  0  0
 36 35  2  0  0  0  0
 37 40  1  0  0  0  0
 38 43  1  0  0  0  0
 38 40  1  0  0  0  0
 39 43  1  0  0  0  0
 40 41  1  0  0  0  0
 41 42  1  0  0  0  0
 43 44  1  0  0  0  0
 44 45  1  0  0  0  0
 44 42  1  0  0  0  0
 45 46  2  0  0  0  0
 47 48  3  0  0  0  0
 48 45  1  0  0  0  0
 49 52  1  0  0  0  0
 50 51  1  0  0  0  0
 51 52  1  0  0  0  0
 51 47  1  0  0  0  0
 53 50  1  0  0  0  0
 53 49  1  0  0  0  0
 54 55  1  0  0  0  0
 54 38  1  0  0  0  0
 56 57  1  0  0  0  0
 56 55  1  0  0  0  0
 57 58  1  0  0  0  0
 58 59  1  0  0  0  0
M  END
>  <MODEL>
9

>  <REMARK>
 VINA RESULT:      -5.4      2.613      5.811
  Name = 
  19 active torsions:
  status: ('A' for Active; 'I' for Inactive)
    1  A    between atoms: C_1  and  C_38
    2  A    between atoms: C_1  and  C_59
    3  A    between atoms: C_2  and  C_53
    4  A    between atoms: C_3  and  C_9
    5  A    between atoms: C_4  and  C_26
    6  A    between atoms: C_6  and  O_20
    7  A    between atoms: O_7  and  C_12
    8  A    between atoms: O_7  and  C_32
    9  A    between atoms: C_10  and  C_48
   10  A    between atoms: C_10  and  C_55
   11  A    between atoms: C_12  and  C_16
   12  A    between atoms: C_14  and  C_27
   13  A    between atoms: C_16  and  C_26
   14  A    between atoms: O_20  and  C_36
   15  A    between atoms: C_28  and  C_39
   16  A    between atoms: C_28  and  C_49
   17  A    between atoms: C_33  and  C_34
   18  A    between atoms: C_35  and  C_39
   19  A    between atoms: C_48  and  C_57
                            x       y       z     vdW  Elec       q    Type
                         _______ _______ _______ _____ _____    ______ ____

>  <TORSDO>
F 19

$$$$
