=
 OpenBabel11062419003D

 51 55  0  0  1  0  0  0  0  0999 V2000
  190.9060  175.3390  143.1430 C   0  0  0  0  0  3  0  0  0  0  0  0
  190.2710  178.0600  143.1970 C   0  0  0  0  0  3  0  0  0  0  0  0
  191.3670  177.5820  143.9210 C   0  0  0  0  0  3  0  0  0  0  0  0
  189.4960  177.1810  142.4270 C   0  0  0  0  0  0  0  0  0  0  0  0
  189.8100  175.8170  142.4210 C   0  0  0  0  0  3  0  0  0  0  0  0
  191.6910  176.2160  143.8950 C   0  0  0  0  0  0  0  0  0  0  0  0
  187.1920  176.5920  141.6020 C   0  0  0  0  0  2  0  0  0  0  0  0
  187.0260  177.7320  142.5740 C   0  0  2  0  0  0  0  0  0  0  0  0
  188.2760  177.6620  141.6940 C   0  0  1  0  0  3  0  0  0  0  0  0
  187.0200  177.2250  144.0130 C   0  0  0  0  0  2  0  0  0  0  0  0
  187.0200  178.3480  144.9360 N   0  0  0  0  0  2  0  0  0  0  0  0
  185.8280  179.1540  147.1520 O   0  0  0  0  0  0  0  0  0  0  0  0
  185.9410  177.9690  146.2340 S   0  0  0  0  0  0  0  0  0  0  0  0
  184.5800  177.6220  145.6960 O   0  0  0  0  0  0  0  0  0  0  0  0
  186.5920  176.5850  147.1530 C   0  0  0  0  0  2  0  0  0  0  0  0
  190.1110  175.1030  147.3480 C   0  0  0  0  0  2  0  0  0  0  0  0
  190.9040  176.3810  147.3290 C   0  0  0  0  0  3  0  0  0  0  0  0
  188.0820  176.5460  147.0890 C   0  0  0  0  0  0  0  0  0  0  0  0
  190.2820  177.5630  147.4010 C   0  0  0  0  0  3  0  0  0  0  0  0
  188.7690  175.2850  146.6330 C   0  0  0  0  0  2  0  0  0  0  0  0
  188.8070  177.6270  147.4090 C   0  0  0  0  0  3  0  0  0  0  0  0
  185.9310  178.6900  142.1250 C   0  0  0  0  0  2  0  0  0  0  0  0
  184.6920  177.9440  141.6560 C   0  0  2  0  0  3  0  0  0  0  0  0
  184.4210  178.3100  140.2100 C   0  0  0  0  0  1  0  0  0  0  0  0
  182.2310  178.3330  141.6760 C   0  0  0  0  0  1  0  0  0  0  0  0
  183.4950  178.3210  142.5130 C   0  0  0  0  0  2  0  0  0  0  0  0
  192.7820  175.7080  144.6090 O   0  0  0  0  0  0  0  0  0  0  0  0
  194.0440  176.3660  144.6660 C   0  0  0  0  0  2  0  0  0  0  0  0
  195.1720  175.3750  144.4050 C   0  0  1  0  0  3  0  0  0  0  0  0
  196.5300  174.2210  145.9620 O   0  0  0  0  0  0  0  0  0  0  0  0
  195.3980  174.4940  145.5980 C   0  0  0  0  0  3  0  0  0  0  0  0
  194.8730  174.5680  143.1390 C   0  0  1  0  0  3  0  0  0  0  0  0
  196.5470  175.3970  140.0380 C   0  0  0  0  0  0  0  0  0  0  0  0
  195.4580  175.4040  140.7860 C   0  0  2  0  0  3  0  0  0  0  0  0
  197.6320  174.9250  140.6750 N   0  0  0  0  0  0  0  0  0  0  0  0
  194.8500  175.1710  138.7810 C   0  0  0  0  0  3  0  0  0  0  0  0
  196.2080  175.2540  138.7540 N   0  0  0  0  0  0  0  0  0  0  0  0
  197.1760  174.6780  141.9380 C   0  0  0  0  0  3  0  0  0  0  0  0
  197.0760  174.9440  137.6340 C   0  0  0  0  0  1  0  0  0  0  0  0
  195.8020  174.9420  142.0270 C   0  0  0  0  0  0  0  0  0  0  0  0
  194.3450  175.2330  140.0500 N   0  0  0  0  0  0  0  0  0  0  0  0
  194.9220  173.1890  143.3810 O   0  0  0  0  0  0  0  0  0  0  0  0
  193.6400  172.7140  143.0860 C   0  0  0  0  0  2  0  0  0  0  0  0
  193.5680  172.2260  141.6430 C   0  0  0  0  0  2  0  0  0  0  0  0
  192.4880  171.1670  141.4650 C   0  0  2  0  0  3  0  0  0  0  0  0
  193.0310  170.0650  140.7980 O   0  0  0  0  0  1  0  0  0  0  0  0
  191.6420  173.0690  140.1720 N   0  0  0  0  0  1  0  0  0  0  0  0
  191.3220  171.7340  140.6560 C   0  0  2  0  0  3  0  0  0  0  0  0
  190.0710  171.7870  141.4780 C   0  0  0  0  0  0  0  0  0  0  0  0
  189.9230  171.0260  142.4700 O   0  0  0  0  0  1  0  0  0  0  0  0
  189.0550  172.6660  141.1250 O   0  0  0  0  0  0  0  0  0  0  0  0
  1  6  1  0  0  0  0
  2  3  1  0  0  0  0
  4  2  2  0  0  0  0
  5  4  1  0  0  0  0
  5  1  2  0  0  0  0
  6  3  2  0  0  0  0
  6 27  1  0  0  0  0
  7  9  1  0  0  0  0
  7  8  1  0  0  0  0
  8 22  1  6  0  0  0
  8 10  1  0  0  0  0
  9  4  1  1  0  0  0
  9  8  1  0  0  0  0
 10 11  1  0  0  0  0
 11 13  1  0  0  0  0
 13 12  2  0  0  0  0
 13 15  1  0  0  0  0
 14 13  2  0  0  0  0
 17 16  1  0  0  0  0
 17 19  2  0  0  0  0
 18 15  1  0  0  0  0
 18 21  2  0  0  0  0
 19 21  1  0  0  0  0
 20 18  1  0  0  0  0
 20 16  1  0  0  0  0
 23 24  1  6  0  0  0
 23 22  1  0  0  0  0
 23 26  1  0  0  0  0
 25 26  1  0  0  0  0
 27 28  1  0  0  0  0
 29 28  1  1  0  0  0
 29 31  1  0  0  0  0
 31 30  2  0  0  0  0
 32 42  1  1  0  0  0
 32 29  1  0  0  0  0
 33 35  2  0  0  0  0
 34 33  1  6  0  0  0
 34 40  1  0  0  0  0
 35 38  1  0  0  0  0
 36 41  2  0  0  0  0
 37 36  1  0  0  0  0
 37 33  1  0  0  0  0
 38 40  2  0  0  0  0
 39 37  1  0  0  0  0
 40 32  1  0  0  0  0
 41 34  1  0  0  0  0
 43 42  1  0  0  0  0
 44 43  1  0  0  0  0
 45 46  1  6  0  0  0
 45 44  1  0  0  0  0
 48 47  1  1  0  0  0
 48 45  1  0  0  0  0
 48 49  1  0  0  0  0
 49 50  1  0  0  0  0
 51 49  2  0  0  0  0
M  END
>  <MODEL>
1

>  <REMARK>
 VINA RESULT:      -6.3      0.000      0.000
  Name = 
  21 active torsions:
  status: ('A' for Active; 'I' for Inactive)
    1  A    between atoms: C_2  and  C_15
    2  A    between atoms: C_2  and  CA_19
    3  A    between atoms: C_4  and  C_37
    4  A    between atoms: C_4  and  C_48
    5  A    between atoms: C_9  and  C_20
    6  A    between atoms: C_9  and  O_41
    7  A    between atoms: C_14  and  CA_19
    8  A    between atoms: C_15  and  C_38
    9  A    between atoms: C_20  and  C_26
   10  A    between atoms: C_20  and  C_47
   11  A    between atoms: O_21  and  C_38
   12  A    between atoms: O_21  and  C_47
   13  A    between atoms: C_30  and  C_33
   14  A    between atoms: C_32  and  C_50
   15  A    between atoms: C_33  and  S_44
   16  A    between atoms: C_39  and  C_47
   17  A    between atoms: C_40  and  O_41
   18  A    between atoms: C_43  and  C_48
   19  A    between atoms: C_43  and  C_51
   20  A    between atoms: S_44  and  N_49
   21  A    between atoms: N_49  and  C_51
                            x       y       z     vdW  Elec       q    Type
                         _______ _______ _______ _____ _____    ______ ____

>  <TORSDO>
F 21

$$$$
=
 OpenBabel11062419003D

 51 55  0  0  1  0  0  0  0  0999 V2000
  192.4050  174.3360  145.3720 C   0  0  0  0  0  3  0  0  0  0  0  0
  189.7060  173.6120  145.3350 C   0  0  0  0  0  3  0  0  0  0  0  0
  190.6090  172.9900  144.4700 C   0  0  0  0  0  3  0  0  0  0  0  0
  190.1520  174.5890  146.2380 C   0  0  0  0  0  0  0  0  0  0  0  0
  191.5010  174.9580  146.2360 C   0  0  0  0  0  3  0  0  0  0  0  0
  191.9670  173.3490  144.4860 C   0  0  0  0  0  0  0  0  0  0  0  0
  189.5650  176.7820  147.3250 C   0  0  0  0  0  2  0  0  0  0  0  0
  188.4160  176.4280  146.4160 C   0  0  2  0  0  0  0  0  0  0  0  0
  189.1870  175.3160  147.1310 C   0  0  1  0  0  3  0  0  0  0  0  0
  188.7200  176.8250  144.9740 C   0  0  0  0  0  2  0  0  0  0  0  0
  187.6910  176.3070  144.0880 N   0  0  0  0  0  2  0  0  0  0  0  0
  189.7970  176.1350  142.5020 O   0  0  0  0  0  0  0  0  0  0  0  0
  188.3090  176.3500  142.4730 S   0  0  0  0  0  0  0  0  0  0  0  0
  187.6650  175.2760  141.6390 O   0  0  0  0  0  0  0  0  0  0  0  0
  187.9690  177.9480  141.7570 C   0  0  0  0  0  2  0  0  0  0  0  0
  184.2920  178.1260  142.7920 C   0  0  0  0  0  2  0  0  0  0  0  0
  183.6710  178.2460  141.4270 C   0  0  0  0  0  3  0  0  0  0  0  0
  186.5010  178.1750  141.6150 C   0  0  0  0  0  0  0  0  0  0  0  0
  184.4240  178.1180  140.3290 C   0  0  0  0  0  3  0  0  0  0  0  0
  185.7160  178.6910  142.7930 C   0  0  0  0  0  2  0  0  0  0  0  0
  185.8860  177.9480  140.4460 C   0  0  0  0  0  3  0  0  0  0  0  0
  187.0810  176.8310  147.0270 C   0  0  0  0  0  2  0  0  0  0  0  0
  186.8490  178.3310  146.9280 C   0  0  2  0  0  3  0  0  0  0  0  0
  186.9450  178.9310  148.3170 C   0  0  0  0  0  1  0  0  0  0  0  0
  184.6390  177.3470  146.3280 C   0  0  0  0  0  1  0  0  0  0  0  0
  185.4760  178.6120  146.3410 C   0  0  0  0  0  2  0  0  0  0  0  0
  192.8950  172.7430  143.6320 O   0  0  0  0  0  0  0  0  0  0  0  0
  192.5140  171.9790  142.4910 C   0  0  0  0  0  2  0  0  0  0  0  0
  193.5980  172.0450  141.4210 C   0  0  1  0  0  3  0  0  0  0  0  0
  194.6680  170.0840  140.6400 O   0  0  0  0  0  0  0  0  0  0  0  0
  193.6570  170.7670  140.6380 C   0  0  0  0  0  3  0  0  0  0  0  0
  193.3680  173.2620  140.5220 C   0  0  1  0  0  3  0  0  0  0  0  0
  190.5040  173.1620  138.3100 C   0  0  0  0  0  0  0  0  0  0  0  0
  191.7740  172.8870  138.5480 C   0  0  0  0  0  0  0  0  0  0  0  0
  189.8600  173.6800  139.3700 N   0  0  0  0  0  2  0  0  0  0  0  0
  191.5950  173.3360  136.4960 C   0  0  0  0  0  3  0  0  0  0  0  0
  190.3430  173.4510  137.0160 N   0  0  0  0  0  0  0  0  0  0  0  0
  190.8050  173.6640  140.3550 C   0  0  0  0  0  3  0  0  0  0  0  0
  189.1870  174.0480  136.3750 C   0  0  0  0  0  1  0  0  0  0  0  0
  192.0300  173.1980  139.8550 C   0  0  0  0  0  0  0  0  0  0  0  0
  192.5280  173.0100  137.4410 N   0  0  0  0  0  0  0  0  0  0  0  0
  193.5100  174.4640  141.2300 O   0  0  0  0  0  0  0  0  0  0  0  0
  194.3540  175.2590  140.4470 C   0  0  0  0  0  2  0  0  0  0  0  0
  194.9120  176.4170  141.2660 C   0  0  0  0  0  2  0  0  0  0  0  0
  196.4310  176.4860  141.1750 C   0  0  2  0  0  3  0  0  0  0  0  0
  196.8510  175.8440  140.0070 O   0  0  0  0  0  1  0  0  0  0  0  0
  197.3780  174.4190  142.0900 N   0  0  0  0  0  1  0  0  0  0  0  0
  197.0610  175.8070  142.3910 C   0  0  2  0  0  3  0  0  0  0  0  0
  196.1480  175.8660  143.5760 C   0  0  0  0  0  0  0  0  0  0  0  0
  195.5300  174.8390  143.9620 O   0  0  0  0  0  0  0  0  0  0  0  0
  195.9620  177.0730  144.2390 O   0  0  0  0  0  1  0  0  0  0  0  0
  1  5  1  0  0  0  0
  2  4  1  0  0  0  0
  3  6  1  0  0  0  0
  3  2  2  0  0  0  0
  5  4  2  0  0  0  0
  6  1  2  0  0  0  0
  8 10  1  6  0  0  0
  8 22  1  0  0  0  0
  8  9  1  0  0  0  0
  8  7  1  0  0  0  0
  9  4  1  6  0  0  0
  9  7  1  0  0  0  0
 11 10  1  0  0  0  0
 13 12  2  0  0  0  0
 13 11  1  0  0  0  0
 14 13  2  0  0  0  0
 15 13  1  0  0  0  0
 16 20  1  0  0  0  0
 17 16  1  0  0  0  0
 18 15  1  0  0  0  0
 18 20  1  0  0  0  0
 19 21  1  0  0  0  0
 19 17  2  0  0  0  0
 21 18  2  0  0  0  0
 23 22  1  0  0  0  0
 23 24  1  1  0  0  0
 25 26  1  0  0  0  0
 26 23  1  0  0  0  0
 27  6  1  0  0  0  0
 28 27  1  0  0  0  0
 29 31  1  6  0  0  0
 29 28  1  0  0  0  0
 31 30  2  0  0  0  0
 32 42  1  1  0  0  0
 32 29  1  0  0  0  0
 33 34  2  0  0  0  0
 33 35  1  0  0  0  0
 34 40  1  0  0  0  0
 35 38  1  0  0  0  0
 36 37  1  0  0  0  0
 36 41  2  0  0  0  0
 37 33  1  0  0  0  0
 39 37  1  0  0  0  0
 40 38  2  0  0  0  0
 40 32  1  0  0  0  0
 41 34  1  0  0  0  0
 43 42  1  0  0  0  0
 43 44  1  0  0  0  0
 45 46  1  6  0  0  0
 45 44  1  0  0  0  0
 45 48  1  0  0  0  0
 48 47  1  6  0  0  0
 48 49  1  0  0  0  0
 49 50  2  0  0  0  0
 49 51  1  0  0  0  0
M  END
>  <MODEL>
2

>  <REMARK>
 VINA RESULT:      -6.1      2.418      5.930
  Name = 
  21 active torsions:
  status: ('A' for Active; 'I' for Inactive)
    1  A    between atoms: C_2  and  C_15
    2  A    between atoms: C_2  and  CA_19
    3  A    between atoms: C_4  and  C_37
    4  A    between atoms: C_4  and  C_48
    5  A    between atoms: C_9  and  C_20
    6  A    between atoms: C_9  and  O_41
    7  A    between atoms: C_14  and  CA_19
    8  A    between atoms: C_15  and  C_38
    9  A    between atoms: C_20  and  C_26
   10  A    between atoms: C_20  and  C_47
   11  A    between atoms: O_21  and  C_38
   12  A    between atoms: O_21  and  C_47
   13  A    between atoms: C_30  and  C_33
   14  A    between atoms: C_32  and  C_50
   15  A    between atoms: C_33  and  S_44
   16  A    between atoms: C_39  and  C_47
   17  A    between atoms: C_40  and  O_41
   18  A    between atoms: C_43  and  C_48
   19  A    between atoms: C_43  and  C_51
   20  A    between atoms: S_44  and  N_49
   21  A    between atoms: N_49  and  C_51
                            x       y       z     vdW  Elec       q    Type
                         _______ _______ _______ _____ _____    ______ ____

>  <TORSDO>
F 21

$$$$
=
 OpenBabel11062419003D

 51 55  0  0  1  0  0  0  0  0999 V2000
  192.2610  174.7300  144.8800 C   0  0  0  0  0  3  0  0  0  0  0  0
  189.7440  173.5660  145.2330 C   0  0  0  0  0  3  0  0  0  0  0  0
  190.6620  172.9960  144.3470 C   0  0  0  0  0  3  0  0  0  0  0  0
  190.0880  174.7140  145.9630 C   0  0  0  0  0  0  0  0  0  0  0  0
  191.3430  175.3010  145.7660 C   0  0  0  0  0  3  0  0  0  0  0  0
  191.9280  173.5760  144.1680 C   0  0  0  0  0  0  0  0  0  0  0  0
  189.4050  176.8590  147.0900 C   0  0  0  0  0  2  0  0  0  0  0  0
  188.2700  176.4680  146.1790 C   0  0  2  0  0  0  0  0  0  0  0  0
  189.0950  175.3810  146.8720 C   0  0  1  0  0  3  0  0  0  0  0  0
  188.5490  176.9030  144.7430 C   0  0  0  0  0  2  0  0  0  0  0  0
  187.6610  176.2030  143.8300 N   0  0  0  0  0  2  0  0  0  0  0  0
  189.8630  176.0500  142.3760 O   0  0  0  0  0  0  0  0  0  0  0  0
  188.3770  176.2460  142.2550 S   0  0  0  0  0  0  0  0  0  0  0  0
  187.7980  175.1600  141.3900 O   0  0  0  0  0  0  0  0  0  0  0  0
  188.0610  177.8370  141.5110 C   0  0  0  0  0  2  0  0  0  0  0  0
  184.4260  178.2060  142.6390 C   0  0  0  0  0  2  0  0  0  0  0  0
  183.7660  178.2440  141.2880 C   0  0  0  0  0  3  0  0  0  0  0  0
  186.5970  178.0990  141.3960 C   0  0  0  0  0  0  0  0  0  0  0  0
  184.4790  178.0120  140.1800 C   0  0  0  0  0  3  0  0  0  0  0  0
  185.8650  178.7240  142.5550 C   0  0  0  0  0  2  0  0  0  0  0  0
  185.9380  177.8050  140.2660 C   0  0  0  0  0  3  0  0  0  0  0  0
  186.9210  176.7970  146.8010 C   0  0  0  0  0  2  0  0  0  0  0  0
  186.6980  178.2990  146.8940 C   0  0  2  0  0  3  0  0  0  0  0  0
  186.4440  178.6650  148.3430 C   0  0  0  0  0  1  0  0  0  0  0  0
  184.2350  178.0780  146.5880 C   0  0  0  0  0  1  0  0  0  0  0  0
  185.5050  178.7070  146.0460 C   0  0  0  0  0  2  0  0  0  0  0  0
  192.8670  173.0270  143.2870 O   0  0  0  0  0  0  0  0  0  0  0  0
  192.5650  171.9530  142.4020 C   0  0  0  0  0  2  0  0  0  0  0  0
  193.7790  171.6090  141.5490 C   0  0  1  0  0  3  0  0  0  0  0  0
  193.6780  169.3040  142.0770 O   0  0  0  0  0  0  0  0  0  0  0  0
  193.7950  170.1480  141.2040 C   0  0  0  0  0  3  0  0  0  0  0  0
  193.8080  172.4960  140.3020 C   0  0  1  0  0  3  0  0  0  0  0  0
  195.8570  175.2680  141.4080 C   0  0  0  0  0  0  0  0  0  0  0  0
  195.7310  173.9860  141.1150 C   0  0  0  0  0  0  0  0  0  0  0  0
  194.7560  175.9900  141.1390 N   0  0  0  0  0  2  0  0  0  0  0  0
  197.1040  174.1430  142.7070 C   0  0  0  0  0  3  0  0  0  0  0  0
  196.7240  175.4150  142.4130 N   0  0  0  0  0  0  0  0  0  0  0  0
  193.9070  175.0790  140.5810 C   0  0  0  0  0  3  0  0  0  0  0  0
  196.9670  176.6010  143.2120 C   0  0  0  0  0  1  0  0  0  0  0  0
  194.4840  173.8010  140.5820 C   0  0  0  0  0  0  0  0  0  0  0  0
  196.4750  173.2130  141.9260 N   0  0  0  0  0  0  0  0  0  0  0  0
  194.4160  171.8470  139.2190 O   0  0  0  0  0  0  0  0  0  0  0  0
  193.6640  172.2140  138.0970 C   0  0  0  0  0  2  0  0  0  0  0  0
  192.1750  172.2000  138.4220 C   0  0  0  0  0  2  0  0  0  0  0  0
  191.4370  173.3270  137.7100 C   0  0  2  0  0  3  0  0  0  0  0  0
  192.2780  174.4390  137.6130 O   0  0  0  0  0  1  0  0  0  0  0  0
  190.4000  173.5700  139.9170 N   0  0  0  0  0  1  0  0  0  0  0  0
  190.1750  173.7020  138.4850 C   0  0  2  0  0  3  0  0  0  0  0  0
  189.0180  172.8430  138.0790 C   0  0  0  0  0  0  0  0  0  0  0  0
  188.9090  172.4290  136.8950 O   0  0  0  0  0  0  0  0  0  0  0  0
  188.0420  172.5190  139.0140 O   0  0  0  0  0  1  0  0  0  0  0  0
  1  5  1  0  0  0  0
  2  4  1  0  0  0  0
  3  2  2  0  0  0  0
  5  4  2  0  0  0  0
  6  3  1  0  0  0  0
  6  1  2  0  0  0  0
  8 10  1  6  0  0  0
  8 22  1  0  0  0  0
  8  9  1  0  0  0  0
  8  7  1  0  0  0  0
  9  4  1  6  0  0  0
  9  7  1  0  0  0  0
 11 10  1  0  0  0  0
 13 12  2  0  0  0  0
 13 11  1  0  0  0  0
 14 13  2  0  0  0  0
 15 13  1  0  0  0  0
 17 16  1  0  0  0  0
 18 15  1  0  0  0  0
 18 20  1  0  0  0  0
 19 21  1  0  0  0  0
 19 17  2  0  0  0  0
 20 16  1  0  0  0  0
 21 18  2  0  0  0  0
 22 23  1  0  0  0  0
 23 24  1  1  0  0  0
 26 25  1  0  0  0  0
 26 23  1  0  0  0  0
 27  6  1  0  0  0  0
 28 27  1  0  0  0  0
 29 31  1  6  0  0  0
 29 28  1  0  0  0  0
 31 30  2  0  0  0  0
 32 42  1  6  0  0  0
 32 40  1  0  0  0  0
 32 29  1  0  0  0  0
 33 37  1  0  0  0  0
 34 33  2  0  0  0  0
 34 41  1  0  0  0  0
 35 33  1  0  0  0  0
 37 36  1  0  0  0  0
 37 39  1  0  0  0  0
 38 40  2  0  0  0  0
 38 35  1  0  0  0  0
 40 34  1  0  0  0  0
 41 36  2  0  0  0  0
 43 44  1  0  0  0  0
 43 42  1  0  0  0  0
 45 46  1  1  0  0  0
 45 44  1  0  0  0  0
 45 48  1  0  0  0  0
 48 47  1  1  0  0  0
 49 48  1  0  0  0  0
 49 51  1  0  0  0  0
 50 49  2  0  0  0  0
M  END
>  <MODEL>
3

>  <REMARK>
 VINA RESULT:      -6.1      2.459      5.093
  Name = 
  21 active torsions:
  status: ('A' for Active; 'I' for Inactive)
    1  A    between atoms: C_2  and  C_15
    2  A    between atoms: C_2  and  CA_19
    3  A    between atoms: C_4  and  C_37
    4  A    between atoms: C_4  and  C_48
    5  A    between atoms: C_9  and  C_20
    6  A    between atoms: C_9  and  O_41
    7  A    between atoms: C_14  and  CA_19
    8  A    between atoms: C_15  and  C_38
    9  A    between atoms: C_20  and  C_26
   10  A    between atoms: C_20  and  C_47
   11  A    between atoms: O_21  and  C_38
   12  A    between atoms: O_21  and  C_47
   13  A    between atoms: C_30  and  C_33
   14  A    between atoms: C_32  and  C_50
   15  A    between atoms: C_33  and  S_44
   16  A    between atoms: C_39  and  C_47
   17  A    between atoms: C_40  and  O_41
   18  A    between atoms: C_43  and  C_48
   19  A    between atoms: C_43  and  C_51
   20  A    between atoms: S_44  and  N_49
   21  A    between atoms: N_49  and  C_51
                            x       y       z     vdW  Elec       q    Type
                         _______ _______ _______ _____ _____    ______ ____

>  <TORSDO>
F 21

$$$$
=
 OpenBabel11062419003D

 51 55  0  0  1  0  0  0  0  0999 V2000
  191.4140  176.2290  147.1540 C   0  0  0  0  0  3  0  0  0  0  0  0
  189.3750  174.6050  146.1450 C   0  0  0  0  0  3  0  0  0  0  0  0
  190.7040  174.1770  146.0880 C   0  0  0  0  0  3  0  0  0  0  0  0
  189.0560  175.8420  146.7260 C   0  0  0  0  0  0  0  0  0  0  0  0
  190.0850  176.6570  147.2110 C   0  0  0  0  0  3  0  0  0  0  0  0
  191.7310  174.9890  146.5950 C   0  0  0  0  0  0  0  0  0  0  0  0
  187.5720  177.8750  146.7560 C   0  0  0  0  0  2  0  0  0  0  0  0
  187.2660  177.1340  145.4800 C   0  0  2  0  0  0  0  0  0  0  0  0
  187.6420  176.3500  146.7390 C   0  0  1  0  0  3  0  0  0  0  0  0
  188.2880  177.4670  144.3980 C   0  0  0  0  0  2  0  0  0  0  0  0
  187.6300  177.5740  143.1060 N   0  0  0  0  0  2  0  0  0  0  0  0
  187.4190  174.9730  142.6920 O   0  0  0  0  0  0  0  0  0  0  0  0
  188.0950  176.2040  142.1570 S   0  0  0  0  0  0  0  0  0  0  0  0
  187.7000  176.4080  140.7200 O   0  0  0  0  0  0  0  0  0  0  0  0
  189.8630  175.9890  142.2670 C   0  0  0  0  0  2  0  0  0  0  0  0
  189.5680  172.4820  140.7720 C   0  0  0  0  0  2  0  0  0  0  0  0
  190.7120  171.8240  141.4940 C   0  0  0  0  0  3  0  0  0  0  0  0
  190.2590  174.5900  141.9330 C   0  0  0  0  0  0  0  0  0  0  0  0
  191.3640  172.4760  142.4640 C   0  0  0  0  0  3  0  0  0  0  0  0
  189.8110  173.9870  140.6270 C   0  0  0  0  0  2  0  0  0  0  0  0
  191.0250  173.8790  142.7730 C   0  0  0  0  0  3  0  0  0  0  0  0
  185.7830  177.2020  145.1400 C   0  0  0  0  0  2  0  0  0  0  0  0
  185.1800  178.5420  145.5320 C   0  0  2  0  0  3  0  0  0  0  0  0
  184.0420  178.2980  146.5040 C   0  0  0  0  0  1  0  0  0  0  0  0
  184.2270  178.2600  143.2460 C   0  0  0  0  0  1  0  0  0  0  0  0
  184.6560  179.2630  144.3000 C   0  0  0  0  0  2  0  0  0  0  0  0
  193.0720  174.5870  146.5520 O   0  0  0  0  0  0  0  0  0  0  0  0
  193.6120  173.8060  145.4900 C   0  0  0  0  0  2  0  0  0  0  0  0
  194.4230  174.6830  144.5450 C   0  0  1  0  0  3  0  0  0  0  0  0
  194.8960  176.9350  145.1000 O   0  0  0  0  0  0  0  0  0  0  0  0
  195.1480  175.7580  145.3000 C   0  0  0  0  0  3  0  0  0  0  0  0
  195.3750  173.8170  143.7170 C   0  0  1  0  0  3  0  0  0  0  0  0
  195.9510  170.7020  145.4720 C   0  0  0  0  0  0  0  0  0  0  0  0
  195.4040  171.3640  144.4670 C   0  0  0  0  0  0  0  0  0  0  0  0
  196.7530  171.4600  146.2390 N   0  0  0  0  0  2  0  0  0  0  0  0
  194.0810  169.8120  145.0020 C   0  0  0  0  0  3  0  0  0  0  0  0
  195.1440  169.7050  145.8420 N   0  0  0  0  0  0  0  0  0  0  0  0
  196.7390  172.6730  145.6120 C   0  0  0  0  0  3  0  0  0  0  0  0
  195.2240  168.8970  147.0450 C   0  0  0  0  0  1  0  0  0  0  0  0
  195.8720  172.6490  144.5110 C   0  0  0  0  0  0  0  0  0  0  0  0
  194.1980  170.8670  144.1390 N   0  0  0  0  0  0  0  0  0  0  0  0
  194.7790  173.3850  142.5250 O   0  0  0  0  0  0  0  0  0  0  0  0
  194.5500  174.5490  141.7820 C   0  0  0  0  0  2  0  0  0  0  0  0
  195.3530  174.5250  140.4870 C   0  0  0  0  0  2  0  0  0  0  0  0
  194.4970  174.9210  139.2910 C   0  0  2  0  0  3  0  0  0  0  0  0
  193.1780  174.5180  139.5160 O   0  0  0  0  0  1  0  0  0  0  0  0
  195.8460  173.1020  138.3550 N   0  0  0  0  0  1  0  0  0  0  0  0
  195.0280  174.2580  138.0210 C   0  0  2  0  0  3  0  0  0  0  0  0
  195.8330  175.2220  137.2060 C   0  0  0  0  0  0  0  0  0  0  0  0
  195.3420  175.7610  136.1790 O   0  0  0  0  0  0  0  0  0  0  0  0
  197.1430  175.5040  137.5730 O   0  0  0  0  0  1  0  0  0  0  0  0
  1  5  1  0  0  0  0
  2  4  1  0  0  0  0
  3  2  2  0  0  0  0
  3  6  1  0  0  0  0
  4  5  2  0  0  0  0
  6  1  2  0  0  0  0
  8 10  1  6  0  0  0
  8  9  1  0  0  0  0
  8  7  1  0  0  0  0
  9  4  1  6  0  0  0
  9  7  1  0  0  0  0
 11 10  1  0  0  0  0
 13 15  1  0  0  0  0
 13 12  2  0  0  0  0
 13 11  1  0  0  0  0
 14 13  2  0  0  0  0
 16 17  1  0  0  0  0
 17 19  2  0  0  0  0
 18 15  1  0  0  0  0
 18 21  2  0  0  0  0
 19 21  1  0  0  0  0
 20 16  1  0  0  0  0
 20 18  1  0  0  0  0
 22  8  1  0  0  0  0
 22 23  1  0  0  0  0
 23 24  1  1  0  0  0
 25 26  1  0  0  0  0
 26 23  1  0  0  0  0
 27  6  1  0  0  0  0
 28 27  1  0  0  0  0
 29 31  1  1  0  0  0
 29 28  1  0  0  0  0
 30 31  2  0  0  0  0
 32 42  1  6  0  0  0
 32 40  1  0  0  0  0
 32 29  1  0  0  0  0
 33 37  1  0  0  0  0
 33 35  1  0  0  0  0
 34 40  1  0  0  0  0
 34 33  2  0  0  0  0
 36 37  1  0  0  0  0
 37 39  1  0  0  0  0
 38 35  1  0  0  0  0
 40 38  2  0  0  0  0
 41 34  1  0  0  0  0
 41 36  2  0  0  0  0
 43 42  1  0  0  0  0
 44 43  1  0  0  0  0
 45 46  1  1  0  0  0
 45 44  1  0  0  0  0
 48 47  1  1  0  0  0
 48 45  1  0  0  0  0
 49 51  1  0  0  0  0
 49 48  1  0  0  0  0
 50 49  2  0  0  0  0
M  END
>  <MODEL>
4

>  <REMARK>
 VINA RESULT:      -5.9      3.026      5.442
  Name = 
  21 active torsions:
  status: ('A' for Active; 'I' for Inactive)
    1  A    between atoms: C_2  and  C_15
    2  A    between atoms: C_2  and  CA_19
    3  A    between atoms: C_4  and  C_37
    4  A    between atoms: C_4  and  C_48
    5  A    between atoms: C_9  and  C_20
    6  A    between atoms: C_9  and  O_41
    7  A    between atoms: C_14  and  CA_19
    8  A    between atoms: C_15  and  C_38
    9  A    between atoms: C_20  and  C_26
   10  A    between atoms: C_20  and  C_47
   11  A    between atoms: O_21  and  C_38
   12  A    between atoms: O_21  and  C_47
   13  A    between atoms: C_30  and  C_33
   14  A    between atoms: C_32  and  C_50
   15  A    between atoms: C_33  and  S_44
   16  A    between atoms: C_39  and  C_47
   17  A    between atoms: C_40  and  O_41
   18  A    between atoms: C_43  and  C_48
   19  A    between atoms: C_43  and  C_51
   20  A    between atoms: S_44  and  N_49
   21  A    between atoms: N_49  and  C_51
                            x       y       z     vdW  Elec       q    Type
                         _______ _______ _______ _____ _____    ______ ____

>  <TORSDO>
F 21

$$$$
=
 OpenBabel11062419003D

 51 55  0  0  1  0  0  0  0  0999 V2000
  192.0490  175.9410  145.4030 C   0  0  0  0  0  3  0  0  0  0  0  0
  189.8390  174.2450  145.6350 C   0  0  0  0  0  3  0  0  0  0  0  0
  191.0060  173.7930  145.0140 C   0  0  0  0  0  3  0  0  0  0  0  0
  189.7770  175.5440  146.1600 C   0  0  0  0  0  0  0  0  0  0  0  0
  190.8810  176.3930  146.0230 C   0  0  0  0  0  3  0  0  0  0  0  0
  192.1200  174.6410  144.8970 C   0  0  0  0  0  0  0  0  0  0  0  0
  188.4680  177.5980  146.8000 C   0  0  0  0  0  2  0  0  0  0  0  0
  187.6370  176.8530  145.7870 C   0  0  2  0  0  0  0  0  0  0  0  0
  188.5100  176.0720  146.7720 C   0  0  1  0  0  3  0  0  0  0  0  0
  188.1000  177.1640  144.3670 C   0  0  0  0  0  2  0  0  0  0  0  0
  187.1670  176.6010  143.4050 N   0  0  0  0  0  2  0  0  0  0  0  0
  187.8180  176.4110  140.8510 O   0  0  0  0  0  0  0  0  0  0  0  0
  188.0860  175.7810  142.1900 S   0  0  0  0  0  0  0  0  0  0  0  0
  189.5560  175.8710  142.4990 O   0  0  0  0  0  0  0  0  0  0  0  0
  187.5900  174.0690  142.1350 C   0  0  0  0  0  2  0  0  0  0  0  0
  189.6450  172.1300  139.5590 C   0  0  0  0  0  2  0  0  0  0  0  0
  190.4980  171.3230  140.5000 C   0  0  0  0  0  3  0  0  0  0  0  0
  188.6850  173.2050  141.6060 C   0  0  0  0  0  0  0  0  0  0  0  0
  190.2610  171.3490  141.8170 C   0  0  0  0  0  3  0  0  0  0  0  0
  189.2070  173.4440  140.2130 C   0  0  0  0  0  2  0  0  0  0  0  0
  189.2190  172.2390  142.3670 C   0  0  0  0  0  3  0  0  0  0  0  0
  186.1530  176.9400  146.1160 C   0  0  0  0  0  2  0  0  0  0  0  0
  185.6910  178.3830  146.2440 C   0  0  2  0  0  3  0  0  0  0  0  0
  185.0380  178.5670  147.6000 C   0  0  0  0  0  1  0  0  0  0  0  0
  185.3150  179.6720  144.1450 C   0  0  0  0  0  1  0  0  0  0  0  0
  184.6950  178.7150  145.1460 C   0  0  0  0  0  2  0  0  0  0  0  0
  193.3030  174.2160  144.2810 O   0  0  0  0  0  0  0  0  0  0  0  0
  194.5180  174.9560  144.3450 C   0  0  0  0  0  2  0  0  0  0  0  0
  194.9600  175.3730  142.9480 C   0  0  1  0  0  3  0  0  0  0  0  0
  196.4510  176.9560  143.8830 O   0  0  0  0  0  0  0  0  0  0  0  0
  195.6700  176.6950  142.9830 C   0  0  0  0  0  3  0  0  0  0  0  0
  195.8210  174.2720  142.3240 C   0  0  1  0  0  3  0  0  0  0  0  0
  196.6790  175.1130  138.9090 C   0  0  0  0  0  0  0  0  0  0  0  0
  195.7680  174.9520  139.8510 C   0  0  2  0  0  3  0  0  0  0  0  0
  197.9400  174.9790  139.3540 N   0  0  0  0  0  0  0  0  0  0  0  0
  194.9020  174.3610  138.0220 C   0  0  0  0  0  3  0  0  0  0  0  0
  196.1710  174.7520  137.7280 N   0  0  0  0  0  0  0  0  0  0  0  0
  197.7840  174.7770  140.6950 C   0  0  0  0  0  3  0  0  0  0  0  0
  196.8830  174.5280  136.4840 C   0  0  0  0  0  1  0  0  0  0  0  0
  196.4230  174.7240  141.0300 C   0  0  0  0  0  0  0  0  0  0  0  0
  194.6230  174.4460  139.3580 N   0  0  0  0  0  0  0  0  0  0  0  0
  196.8180  173.8330  143.2050 O   0  0  0  0  0  0  0  0  0  0  0  0
  196.8660  172.4430  143.0490 C   0  0  0  0  0  2  0  0  0  0  0  0
  195.5220  171.8170  143.4030 C   0  0  0  0  0  2  0  0  0  0  0  0
  195.5820  170.2960  143.3480 C   0  0  2  0  0  3  0  0  0  0  0  0
  195.1330  169.8630  142.0980 O   0  0  0  0  0  1  0  0  0  0  0  0
  193.5710  170.5620  144.7230 N   0  0  0  0  0  1  0  0  0  0  0  0
  194.7060  169.6950  144.4460 C   0  0  2  0  0  3  0  0  0  0  0  0
  195.4900  169.4810  145.7040 C   0  0  0  0  0  0  0  0  0  0  0  0
  194.9020  169.2810  146.8000 O   0  0  0  0  0  1  0  0  0  0  0  0
  196.8780  169.5290  145.6650 O   0  0  0  0  0  0  0  0  0  0  0  0
  1  5  1  0  0  0  0
  2  4  1  0  0  0  0
  3  2  2  0  0  0  0
  5  4  2  0  0  0  0
  6  3  1  0  0  0  0
  6  1  2  0  0  0  0
  8 10  1  6  0  0  0
  8 22  1  0  0  0  0
  8  9  1  0  0  0  0
  8  7  1  0  0  0  0
  9  4  1  6  0  0  0
  9  7  1  0  0  0  0
 11 10  1  0  0  0  0
 12 13  2  0  0  0  0
 13 14  2  0  0  0  0
 13 11  1  0  0  0  0
 15 13  1  0  0  0  0
 16 20  1  0  0  0  0
 16 17  1  0  0  0  0
 17 19  2  0  0  0  0
 18 15  1  0  0  0  0
 18 21  2  0  0  0  0
 19 21  1  0  0  0  0
 20 18  1  0  0  0  0
 22 23  1  0  0  0  0
 23 24  1  1  0  0  0
 25 26  1  0  0  0  0
 26 23  1  0  0  0  0
 27 28  1  0  0  0  0
 27  6  1  0  0  0  0
 29 31  1  1  0  0  0
 29 28  1  0  0  0  0
 31 30  2  0  0  0  0
 32 29  1  0  0  0  0
 32 42  1  1  0  0  0
 33 35  2  0  0  0  0
 34 33  1  6  0  0  0
 34 40  1  0  0  0  0
 35 38  1  0  0  0  0
 36 41  2  0  0  0  0
 37 36  1  0  0  0  0
 37 33  1  0  0  0  0
 38 40  2  0  0  0  0
 39 37  1  0  0  0  0
 40 32  1  0  0  0  0
 41 34  1  0  0  0  0
 43 42  1  0  0  0  0
 43 44  1  0  0  0  0
 45 46  1  6  0  0  0
 45 44  1  0  0  0  0
 45 48  1  0  0  0  0
 48 47  1  1  0  0  0
 48 49  1  0  0  0  0
 49 50  1  0  0  0  0
 51 49  2  0  0  0  0
M  END
>  <MODEL>
5

>  <REMARK>
 VINA RESULT:      -5.8      2.575      4.676
  Name = 
  21 active torsions:
  status: ('A' for Active; 'I' for Inactive)
    1  A    between atoms: C_2  and  C_15
    2  A    between atoms: C_2  and  CA_19
    3  A    between atoms: C_4  and  C_37
    4  A    between atoms: C_4  and  C_48
    5  A    between atoms: C_9  and  C_20
    6  A    between atoms: C_9  and  O_41
    7  A    between atoms: C_14  and  CA_19
    8  A    between atoms: C_15  and  C_38
    9  A    between atoms: C_20  and  C_26
   10  A    between atoms: C_20  and  C_47
   11  A    between atoms: O_21  and  C_38
   12  A    between atoms: O_21  and  C_47
   13  A    between atoms: C_30  and  C_33
   14  A    between atoms: C_32  and  C_50
   15  A    between atoms: C_33  and  S_44
   16  A    between atoms: C_39  and  C_47
   17  A    between atoms: C_40  and  O_41
   18  A    between atoms: C_43  and  C_48
   19  A    between atoms: C_43  and  C_51
   20  A    between atoms: S_44  and  N_49
   21  A    between atoms: N_49  and  C_51
                            x       y       z     vdW  Elec       q    Type
                         _______ _______ _______ _____ _____    ______ ____

>  <TORSDO>
F 21

$$$$
=
 OpenBabel11062419003D

 51 55  0  0  1  0  0  0  0  0999 V2000
  189.4730  174.2580  141.0960 C   0  0  0  0  0  3  0  0  0  0  0  0
  190.1560  171.5880  140.6270 C   0  0  0  0  0  3  0  0  0  0  0  0
  190.4720  172.1880  141.8490 C   0  0  0  0  0  3  0  0  0  0  0  0
  189.4800  172.3170  139.6380 C   0  0  0  0  0  0  0  0  0  0  0  0
  189.1580  173.6590  139.8730 C   0  0  0  0  0  3  0  0  0  0  0  0
  190.1290  173.5280  142.0900 C   0  0  0  0  0  0  0  0  0  0  0  0
  189.3700  172.7120  137.1540 C   0  0  0  0  0  2  0  0  0  0  0  0
  190.4140  171.6470  137.3780 C   0  0  2  0  0  0  0  0  0  0  0  0
  189.1890  171.7120  138.2930 C   0  0  1  0  0  3  0  0  0  0  0  0
  191.7510  172.2700  137.7690 C   0  0  0  0  0  2  0  0  0  0  0  0
  191.9520  173.5130  137.0440 N   0  0  0  0  0  2  0  0  0  0  0  0
  194.5790  173.5790  137.3260 O   0  0  0  0  0  0  0  0  0  0  0  0
  193.3280  174.3100  137.7270 S   0  0  0  0  0  0  0  0  0  0  0  0
  193.4010  175.7310  137.2400 O   0  0  0  0  0  0  0  0  0  0  0  0
  193.1910  174.2930  139.5060 C   0  0  0  0  0  2  0  0  0  0  0  0
  196.8840  175.0980  140.0870 C   0  0  0  0  0  2  0  0  0  0  0  0
  197.2150  173.9900  141.0490 C   0  0  0  0  0  3  0  0  0  0  0  0
  194.5350  174.2330  140.1500 C   0  0  0  0  0  0  0  0  0  0  0  0
  196.3190  173.0310  141.3100 C   0  0  0  0  0  3  0  0  0  0  0  0
  195.3990  175.4670  140.1730 C   0  0  0  0  0  2  0  0  0  0  0  0
  194.9650  173.1010  140.7270 C   0  0  0  0  0  3  0  0  0  0  0  0
  190.3830  170.5990  136.2740 C   0  0  0  0  0  2  0  0  0  0  0  0
  191.3400  169.4540  136.5620 C   0  0  2  0  0  3  0  0  0  0  0  0
  191.7350  168.8070  135.2480 C   0  0  0  0  0  1  0  0  0  0  0  0
  191.3140  168.4330  138.8350 C   0  0  0  0  0  1  0  0  0  0  0  0
  190.6740  168.4240  137.4600 C   0  0  0  0  0  2  0  0  0  0  0  0
  190.4310  174.1560  143.3040 O   0  0  0  0  0  0  0  0  0  0  0  0
  189.9170  173.7100  144.5560 C   0  0  0  0  0  2  0  0  0  0  0  0
  189.3580  174.8840  145.3490 C   0  0  1  0  0  3  0  0  0  0  0  0
  189.0350  174.4810  147.6590 O   0  0  0  0  0  0  0  0  0  0  0  0
  189.8070  174.8260  146.7800 C   0  0  0  0  0  3  0  0  0  0  0  0
  189.7480  176.2010  144.6750 C   0  0  1  0  0  3  0  0  0  0  0  0
  186.7160  178.1800  144.7000 C   0  0  0  0  0  0  0  0  0  0  0  0
  187.8160  177.7660  145.3040 C   0  0  2  0  0  3  0  0  0  0  0  0
  186.6150  177.7630  143.4270 N   0  0  0  0  0  0  0  0  0  0  0  0
  186.3290  177.9990  146.7800 C   0  0  0  0  0  3  0  0  0  0  0  0
  185.7450  178.3440  145.6020 N   0  0  0  0  0  0  0  0  0  0  0  0
  187.7830  177.0860  143.2210 C   0  0  0  0  0  3  0  0  0  0  0  0
  184.3280  178.5360  145.3570 C   0  0  0  0  0  1  0  0  0  0  0  0
  188.5430  177.0450  144.3980 C   0  0  0  0  0  0  0  0  0  0  0  0
  187.6280  177.6010  146.6260 N   0  0  0  0  0  0  0  0  0  0  0  0
  190.6860  176.9140  145.4340 O   0  0  0  0  0  0  0  0  0  0  0  0
  191.6530  177.3450  144.5190 C   0  0  0  0  0  2  0  0  0  0  0  0
  193.0190  176.7660  144.8690 C   0  0  0  0  0  2  0  0  0  0  0  0
  193.7480  176.2650  143.6290 C   0  0  2  0  0  3  0  0  0  0  0  0
  192.8310  176.1120  142.5860 O   0  0  0  0  0  1  0  0  0  0  0  0
  193.5320  174.0600  144.6760 N   0  0  0  0  0  1  0  0  0  0  0  0
  194.4250  174.9270  143.9200 C   0  0  2  0  0  3  0  0  0  0  0  0
  195.6980  175.1210  144.6840 C   0  0  0  0  0  0  0  0  0  0  0  0
  196.7350  175.5410  144.1070 O   0  0  0  0  0  0  0  0  0  0  0  0
  195.7400  174.8100  146.0380 O   0  0  0  0  0  1  0  0  0  0  0  0
  1  6  1  0  0  0  0
  2  3  1  0  0  0  0
  3  6  2  0  0  0  0
  4  5  1  0  0  0  0
  4  2  2  0  0  0  0
  5  1  2  0  0  0  0
  6 27  1  0  0  0  0
  7  8  1  0  0  0  0
  7  9  1  0  0  0  0
  8 22  1  6  0  0  0
  8 10  1  0  0  0  0
  8  9  1  0  0  0  0
  9  4  1  1  0  0  0
 11 13  1  0  0  0  0
 11 10  1  0  0  0  0
 12 13  2  0  0  0  0
 13 15  1  0  0  0  0
 14 13  2  0  0  0  0
 15 18  1  0  0  0  0
 16 20  1  0  0  0  0
 16 17  1  0  0  0  0
 17 19  2  0  0  0  0
 18 20  1  0  0  0  0
 18 21  2  0  0  0  0
 21 19  1  0  0  0  0
 22 23  1  0  0  0  0
 23 24  1  6  0  0  0
 23 26  1  0  0  0  0
 26 25  1  0  0  0  0
 27 28  1  0  0  0  0
 29 28  1  6  0  0  0
 29 31  1  0  0  0  0
 31 30  2  0  0  0  0
 32 29  1  0  0  0  0
 32 42  1  1  0  0  0
 33 34  1  0  0  0  0
 33 37  1  0  0  0  0
 34 40  1  6  0  0  0
 34 41  1  0  0  0  0
 35 33  2  0  0  0  0
 37 36  1  0  0  0  0
 38 35  1  0  0  0  0
 38 40  2  0  0  0  0
 39 37  1  0  0  0  0
 40 32  1  0  0  0  0
 41 36  2  0  0  0  0
 43 44  1  0  0  0  0
 43 42  1  0  0  0  0
 45 46  1  6  0  0  0
 45 48  1  0  0  0  0
 45 44  1  0  0  0  0
 48 47  1  1  0  0  0
 48 49  1  0  0  0  0
 49 51  1  0  0  0  0
 50 49  2  0  0  0  0
M  END
>  <MODEL>
6

>  <REMARK>
 VINA RESULT:      -5.8      3.253      9.097
  Name = 
  21 active torsions:
  status: ('A' for Active; 'I' for Inactive)
    1  A    between atoms: C_2  and  C_15
    2  A    between atoms: C_2  and  CA_19
    3  A    between atoms: C_4  and  C_37
    4  A    between atoms: C_4  and  C_48
    5  A    between atoms: C_9  and  C_20
    6  A    between atoms: C_9  and  O_41
    7  A    between atoms: C_14  and  CA_19
    8  A    between atoms: C_15  and  C_38
    9  A    between atoms: C_20  and  C_26
   10  A    between atoms: C_20  and  C_47
   11  A    between atoms: O_21  and  C_38
   12  A    between atoms: O_21  and  C_47
   13  A    between atoms: C_30  and  C_33
   14  A    between atoms: C_32  and  C_50
   15  A    between atoms: C_33  and  S_44
   16  A    between atoms: C_39  and  C_47
   17  A    between atoms: C_40  and  O_41
   18  A    between atoms: C_43  and  C_48
   19  A    between atoms: C_43  and  C_51
   20  A    between atoms: S_44  and  N_49
   21  A    between atoms: N_49  and  C_51
                            x       y       z     vdW  Elec       q    Type
                         _______ _______ _______ _____ _____    ______ ____

>  <TORSDO>
F 21

$$$$
=
 OpenBabel11062419003D

 51 55  0  0  1  0  0  0  0  0999 V2000
  189.0780  174.5390  142.7820 C   0  0  0  0  0  3  0  0  0  0  0  0
  189.2400  171.8360  142.0900 C   0  0  0  0  0  3  0  0  0  0  0  0
  189.4410  172.2330  143.4140 C   0  0  0  0  0  3  0  0  0  0  0  0
  188.9370  172.7900  141.1060 C   0  0  0  0  0  0  0  0  0  0  0  0
  188.8770  174.1430  141.4580 C   0  0  0  0  0  3  0  0  0  0  0  0
  189.3590  173.5900  143.7670 C   0  0  0  0  0  0  0  0  0  0  0  0
  189.0870  173.5420  138.7080 C   0  0  0  0  0  2  0  0  0  0  0  0
  190.0930  172.4320  138.8780 C   0  0  2  0  0  0  0  0  0  0  0  0
  188.7820  172.3930  139.6650 C   0  0  1  0  0  3  0  0  0  0  0  0
  191.3880  172.9590  139.4890 C   0  0  0  0  0  2  0  0  0  0  0  0
  192.2650  171.8510  139.8290 N   0  0  0  0  0  2  0  0  0  0  0  0
  194.7020  171.2120  139.0330 O   0  0  0  0  0  0  0  0  0  0  0  0
  193.8960  172.3640  139.5680 S   0  0  0  0  0  0  0  0  0  0  0  0
  193.9340  173.5000  138.5830 O   0  0  0  0  0  0  0  0  0  0  0  0
  194.6010  172.8920  141.1190 C   0  0  0  0  0  2  0  0  0  0  0  0
  193.3060  169.8000  142.9590 C   0  0  0  0  0  2  0  0  0  0  0  0
  192.7970  170.4680  144.2070 C   0  0  0  0  0  3  0  0  0  0  0  0
  194.0850  172.0730  142.2550 C   0  0  0  0  0  0  0  0  0  0  0  0
  192.7730  171.8020  144.2980 C   0  0  0  0  0  3  0  0  0  0  0  0
  194.4450  170.6120  142.3340 C   0  0  0  0  0  2  0  0  0  0  0  0
  193.3290  172.6310  143.2100 C   0  0  0  0  0  3  0  0  0  0  0  0
  190.1670  171.5560  137.6350 C   0  0  0  0  0  2  0  0  0  0  0  0
  190.2490  172.3890  136.3660 C   0  0  2  0  0  3  0  0  0  0  0  0
  189.4430  171.7030  135.2800 C   0  0  0  0  0  1  0  0  0  0  0  0
  192.4550  171.2430  136.1940 C   0  0  0  0  0  1  0  0  0  0  0  0
  191.6960  172.5270  135.9210 C   0  0  0  0  0  2  0  0  0  0  0  0
  189.5560  174.0170  145.0860 O   0  0  0  0  0  0  0  0  0  0  0  0
  190.6960  174.7660  145.4950 C   0  0  0  0  0  2  0  0  0  0  0  0
  190.2880  176.1770  145.9000 C   0  0  1  0  0  3  0  0  0  0  0  0
  191.2580  175.6170  147.9860 O   0  0  0  0  0  0  0  0  0  0  0  0
  190.6590  176.4530  147.3280 C   0  0  0  0  0  3  0  0  0  0  0  0
  190.9040  177.1940  144.9370 C   0  0  1  0  0  3  0  0  0  0  0  0
  194.1640  176.1100  143.7930 C   0  0  0  0  0  0  0  0  0  0  0  0
  193.3390  176.4020  144.7830 C   0  0  2  0  0  3  0  0  0  0  0  0
  193.5820  176.1490  142.5820 N   0  0  0  0  0  0  0  0  0  0  0  0
  195.2760  176.9800  145.3790 C   0  0  0  0  0  3  0  0  0  0  0  0
  195.4080  176.4590  144.1290 N   0  0  0  0  0  0  0  0  0  0  0  0
  192.2760  176.4300  142.8650 C   0  0  0  0  0  3  0  0  0  0  0  0
  196.5690  176.5550  143.2650 C   0  0  0  0  0  1  0  0  0  0  0  0
  192.1020  176.6260  144.2430 C   0  0  0  0  0  0  0  0  0  0  0  0
  193.9790  176.9870  145.8110 N   0  0  0  0  0  0  0  0  0  0  0  0
  189.9660  177.6580  144.0040 O   0  0  0  0  0  0  0  0  0  0  0  0
  188.7810  177.8370  144.7270 C   0  0  0  0  0  2  0  0  0  0  0  0
  187.5920  177.9610  143.7820 C   0  0  0  0  0  2  0  0  0  0  0  0
  186.2900  178.1650  144.5470 C   0  0  2  0  0  3  0  0  0  0  0  0
  185.8530  179.4800  144.3700 O   0  0  0  0  0  1  0  0  0  0  0  0
  186.3550  176.4700  146.3160 N   0  0  0  0  0  1  0  0  0  0  0  0
  186.5050  177.8900  146.0350 C   0  0  2  0  0  3  0  0  0  0  0  0
  185.5410  178.6710  146.8720 C   0  0  0  0  0  0  0  0  0  0  0  0
  185.9440  179.6100  147.6090 O   0  0  0  0  0  1  0  0  0  0  0  0
  184.1920  178.3390  146.8550 O   0  0  0  0  0  0  0  0  0  0  0  0
  1  6  1  0  0  0  0
  2  3  1  0  0  0  0
  3  6  2  0  0  0  0
  4  5  1  0  0  0  0
  4  2  2  0  0  0  0
  5  1  2  0  0  0  0
  6 27  1  0  0  0  0
  7  8  1  0  0  0  0
  7  9  1  0  0  0  0
  8 22  1  6  0  0  0
  8 10  1  0  0  0  0
  8  9  1  0  0  0  0
  9  4  1  1  0  0  0
 10 11  1  0  0  0  0
 12 13  2  0  0  0  0
 13 11  1  0  0  0  0
 13 15  1  0  0  0  0
 14 13  2  0  0  0  0
 15 18  1  0  0  0  0
 16 17  1  0  0  0  0
 17 19  2  0  0  0  0
 18 20  1  0  0  0  0
 18 21  2  0  0  0  0
 20 16  1  0  0  0  0
 21 19  1  0  0  0  0
 23 24  1  6  0  0  0
 23 22  1  0  0  0  0
 26 25  1  0  0  0  0
 26 23  1  0  0  0  0
 27 28  1  0  0  0  0
 29 28  1  6  0  0  0
 29 31  1  0  0  0  0
 31 30  2  0  0  0  0
 32 42  1  6  0  0  0
 32 29  1  0  0  0  0
 33 37  1  0  0  0  0
 34 33  1  6  0  0  0
 34 41  1  0  0  0  0
 35 38  1  0  0  0  0
 35 33  2  0  0  0  0
 36 41  2  0  0  0  0
 37 36  1  0  0  0  0
 38 40  2  0  0  0  0
 39 37  1  0  0  0  0
 40 34  1  0  0  0  0
 40 32  1  0  0  0  0
 42 43  1  0  0  0  0
 44 45  1  0  0  0  0
 44 43  1  0  0  0  0
 45 46  1  1  0  0  0
 45 48  1  0  0  0  0
 48 47  1  6  0  0  0
 48 49  1  0  0  0  0
 49 50  1  0  0  0  0
 51 49  2  0  0  0  0
M  END
>  <MODEL>
7

>  <REMARK>
 VINA RESULT:      -5.8      3.192      7.990
  Name = 
  21 active torsions:
  status: ('A' for Active; 'I' for Inactive)
    1  A    between atoms: C_2  and  C_15
    2  A    between atoms: C_2  and  CA_19
    3  A    between atoms: C_4  and  C_37
    4  A    between atoms: C_4  and  C_48
    5  A    between atoms: C_9  and  C_20
    6  A    between atoms: C_9  and  O_41
    7  A    between atoms: C_14  and  CA_19
    8  A    between atoms: C_15  and  C_38
    9  A    between atoms: C_20  and  C_26
   10  A    between atoms: C_20  and  C_47
   11  A    between atoms: O_21  and  C_38
   12  A    between atoms: O_21  and  C_47
   13  A    between atoms: C_30  and  C_33
   14  A    between atoms: C_32  and  C_50
   15  A    between atoms: C_33  and  S_44
   16  A    between atoms: C_39  and  C_47
   17  A    between atoms: C_40  and  O_41
   18  A    between atoms: C_43  and  C_48
   19  A    between atoms: C_43  and  C_51
   20  A    between atoms: S_44  and  N_49
   21  A    between atoms: N_49  and  C_51
                            x       y       z     vdW  Elec       q    Type
                         _______ _______ _______ _____ _____    ______ ____

>  <TORSDO>
F 21

$$$$
=
 OpenBabel11062419003D

 51 55  0  0  1  0  0  0  0  0999 V2000
  193.3850  176.2570  143.2480 C   0  0  0  0  0  3  0  0  0  0  0  0
  196.1510  176.4970  143.5640 C   0  0  0  0  0  3  0  0  0  0  0  0
  195.3030  176.6770  144.6590 C   0  0  0  0  0  3  0  0  0  0  0  0
  195.6200  176.1760  142.3060 C   0  0  0  0  0  0  0  0  0  0  0  0
  194.2320  176.0770  142.1520 C   0  0  0  0  0  3  0  0  0  0  0  0
  193.9130  176.5560  144.5060 C   0  0  0  0  0  0  0  0  0  0  0  0
  197.9410  175.6710  141.4730 C   0  0  0  0  0  2  0  0  0  0  0  0
  197.0320  174.6210  140.8860 C   0  0  2  0  0  0  0  0  0  0  0  0
  196.5080  176.0430  141.1010 C   0  0  1  0  0  3  0  0  0  0  0  0
  196.7730  173.5030  141.8900 C   0  0  0  0  0  2  0  0  0  0  0  0
  195.5780  172.7640  141.5140 N   0  0  0  0  0  2  0  0  0  0  0  0
  195.1200  170.7410  143.1510 O   0  0  0  0  0  0  0  0  0  0  0  0
  194.8220  172.2030  142.9650 S   0  0  0  0  0  0  0  0  0  0  0  0
  195.3350  172.9730  144.1520 O   0  0  0  0  0  0  0  0  0  0  0  0
  193.0560  172.4210  142.8280 C   0  0  0  0  0  2  0  0  0  0  0  0
  192.5490  170.7310  139.4370 C   0  0  0  0  0  2  0  0  0  0  0  0
  192.0920  171.9260  138.6460 C   0  0  0  0  0  3  0  0  0  0  0  0
  192.5990  172.2610  141.4170 C   0  0  0  0  0  0  0  0  0  0  0  0
  192.1210  173.1480  139.1910 C   0  0  0  0  0  3  0  0  0  0  0  0
  192.2030  170.8960  140.9200 C   0  0  0  0  0  2  0  0  0  0  0  0
  192.5170  173.3220  140.6020 C   0  0  0  0  0  3  0  0  0  0  0  0
  197.4480  174.2580  139.4670 C   0  0  0  0  0  2  0  0  0  0  0  0
  196.3130  174.4720  138.4780 C   0  0  2  0  0  3  0  0  0  0  0  0
  195.8080  173.1190  138.0150 C   0  0  0  0  0  1  0  0  0  0  0  0
  195.8390  175.1230  136.1200 C   0  0  0  0  0  1  0  0  0  0  0  0
  196.8020  175.2730  137.2820 C   0  0  0  0  0  2  0  0  0  0  0  0
  193.0380  176.7310  145.5850 O   0  0  0  0  0  0  0  0  0  0  0  0
  192.7460  175.6970  146.5210 C   0  0  0  0  0  2  0  0  0  0  0  0
  191.2660  175.7080  146.8800 C   0  0  1  0  0  3  0  0  0  0  0  0
  191.9140  177.1250  148.6620 O   0  0  0  0  0  0  0  0  0  0  0  0
  190.9950  176.6630  148.0060 C   0  0  0  0  0  3  0  0  0  0  0  0
  190.4310  176.0280  145.6380 C   0  0  1  0  0  3  0  0  0  0  0  0
  189.7010  173.5190  143.1320 C   0  0  0  0  0  0  0  0  0  0  0  0
  190.1650  174.7150  143.4520 C   0  0  0  0  0  0  0  0  0  0  0  0
  189.3680  172.7720  144.1980 N   0  0  0  0  0  2  0  0  0  0  0  0
  189.2440  174.8740  141.5620 C   0  0  0  0  0  3  0  0  0  0  0  0
  189.1090  173.5740  141.9360 N   0  0  0  0  0  0  0  0  0  0  0  0
  189.7150  173.5580  145.2590 C   0  0  0  0  0  3  0  0  0  0  0  0
  188.2550  172.5760  141.3210 C   0  0  0  0  0  1  0  0  0  0  0  0
  190.1900  174.8010  144.8160 C   0  0  0  0  0  0  0  0  0  0  0  0
  189.8800  175.6300  142.5080 N   0  0  0  0  0  0  0  0  0  0  0  0
  189.2180  176.6440  145.9740 O   0  0  0  0  0  0  0  0  0  0  0  0
  189.1380  177.7790  145.1600 C   0  0  0  0  0  2  0  0  0  0  0  0
  187.7930  177.8340  144.4460 C   0  0  0  0  0  2  0  0  0  0  0  0
  186.6710  177.2990  145.3270 C   0  0  2  0  0  3  0  0  0  0  0  0
  185.6800  176.7370  144.5180 O   0  0  0  0  0  1  0  0  0  0  0  0
  185.5210  177.9080  147.4030 N   0  0  0  0  0  1  0  0  0  0  0  0
  186.0730  178.4300  146.1630 C   0  0  2  0  0  3  0  0  0  0  0  0
  185.0040  179.1530  145.4040 C   0  0  0  0  0  0  0  0  0  0  0  0
  183.7890  178.9930  145.6980 O   0  0  0  0  0  1  0  0  0  0  0  0
  185.3540  179.9890  144.3520 O   0  0  0  0  0  0  0  0  0  0  0  0
  1  6  1  0  0  0  0
  2  3  1  0  0  0  0
  4  2  2  0  0  0  0
  5  4  1  0  0  0  0
  5  1  2  0  0  0  0
  6  3  2  0  0  0  0
  6 27  1  0  0  0  0
  8 22  1  6  0  0  0
  8  9  1  0  0  0  0
  8  7  1  0  0  0  0
  8 10  1  0  0  0  0
  9  7  1  0  0  0  0
  9  4  1  1  0  0  0
 11 10  1  0  0  0  0
 11 13  1  0  0  0  0
 13 12  2  0  0  0  0
 13 14  2  0  0  0  0
 15 13  1  0  0  0  0
 16 20  1  0  0  0  0
 17 19  2  0  0  0  0
 17 16  1  0  0  0  0
 18 15  1  0  0  0  0
 19 21  1  0  0  0  0
 20 18  1  0  0  0  0
 21 18  2  0  0  0  0
 23 24  1  6  0  0  0
 23 22  1  0  0  0  0
 25 26  1  0  0  0  0
 26 23  1  0  0  0  0
 27 28  1  0  0  0  0
 29 28  1  6  0  0  0
 29 31  1  0  0  0  0
 31 30  2  0  0  0  0
 32 42  1  1  0  0  0
 32 29  1  0  0  0  0
 33 34  2  0  0  0  0
 33 35  1  0  0  0  0
 34 40  1  0  0  0  0
 35 38  1  0  0  0  0
 36 37  1  0  0  0  0
 36 41  2  0  0  0  0
 37 33  1  0  0  0  0
 39 37  1  0  0  0  0
 40 38  2  0  0  0  0
 40 32  1  0  0  0  0
 41 34  1  0  0  0  0
 43 42  1  0  0  0  0
 44 43  1  0  0  0  0
 44 45  1  0  0  0  0
 45 46  1  6  0  0  0
 45 48  1  0  0  0  0
 48 47  1  1  0  0  0
 49 50  1  0  0  0  0
 49 48  1  0  0  0  0
 51 49  2  0  0  0  0
M  END
>  <MODEL>
8

>  <REMARK>
 VINA RESULT:      -5.6      2.975      8.949
  Name = 
  21 active torsions:
  status: ('A' for Active; 'I' for Inactive)
    1  A    between atoms: C_2  and  C_15
    2  A    between atoms: C_2  and  CA_19
    3  A    between atoms: C_4  and  C_37
    4  A    between atoms: C_4  and  C_48
    5  A    between atoms: C_9  and  C_20
    6  A    between atoms: C_9  and  O_41
    7  A    between atoms: C_14  and  CA_19
    8  A    between atoms: C_15  and  C_38
    9  A    between atoms: C_20  and  C_26
   10  A    between atoms: C_20  and  C_47
   11  A    between atoms: O_21  and  C_38
   12  A    between atoms: O_21  and  C_47
   13  A    between atoms: C_30  and  C_33
   14  A    between atoms: C_32  and  C_50
   15  A    between atoms: C_33  and  S_44
   16  A    between atoms: C_39  and  C_47
   17  A    between atoms: C_40  and  O_41
   18  A    between atoms: C_43  and  C_48
   19  A    between atoms: C_43  and  C_51
   20  A    between atoms: S_44  and  N_49
   21  A    between atoms: N_49  and  C_51
                            x       y       z     vdW  Elec       q    Type
                         _______ _______ _______ _____ _____    ______ ____

>  <TORSDO>
F 21

$$$$
=
 OpenBabel11062419003D

 51 55  0  0  1  0  0  0  0  0999 V2000
  189.3570  174.4040  142.6620 C   0  0  0  0  0  3  0  0  0  0  0  0
  189.3370  171.7430  141.8080 C   0  0  0  0  0  3  0  0  0  0  0  0
  189.5220  172.0430  143.1600 C   0  0  0  0  0  3  0  0  0  0  0  0
  189.1420  172.7730  140.8770 C   0  0  0  0  0  0  0  0  0  0  0  0
  189.1730  174.1040  141.3100 C   0  0  0  0  0  3  0  0  0  0  0  0
  189.5310  173.3790  143.5940 C   0  0  0  0  0  0  0  0  0  0  0  0
  189.2680  173.7030  138.5410 C   0  0  0  0  0  2  0  0  0  0  0  0
  190.3180  172.6250  138.6350 C   0  0  2  0  0  0  0  0  0  0  0  0
  189.0070  172.4760  139.4100 C   0  0  1  0  0  3  0  0  0  0  0  0
  191.5880  173.1580  139.2900 C   0  0  0  0  0  2  0  0  0  0  0  0
  192.6860  172.2300  139.0740 N   0  0  0  0  0  2  0  0  0  0  0  0
  194.8340  172.4670  140.5960 O   0  0  0  0  0  0  0  0  0  0  0  0
  193.4320  171.9230  140.6050 S   0  0  0  0  0  0  0  0  0  0  0  0
  192.6480  172.5800  141.7080 O   0  0  0  0  0  0  0  0  0  0  0  0
  193.4960  170.1620  140.8830 C   0  0  0  0  0  2  0  0  0  0  0  0
  192.3040  168.8450  137.4970 C   0  0  0  0  0  2  0  0  0  0  0  0
  190.9360  168.3670  137.9020 C   0  0  0  0  0  3  0  0  0  0  0  0
  192.6370  169.4290  139.9090 C   0  0  0  0  0  0  0  0  0  0  0  0
  190.4660  168.6230  139.1280 C   0  0  0  0  0  3  0  0  0  0  0  0
  193.2660  168.8090  138.6890 C   0  0  0  0  0  2  0  0  0  0  0  0
  191.3200  169.2980  140.1250 C   0  0  0  0  0  3  0  0  0  0  0  0
  190.4300  171.8450  137.3330 C   0  0  0  0  0  2  0  0  0  0  0  0
  190.1490  172.7250  136.1260 C   0  0  2  0  0  3  0  0  0  0  0  0
  189.2980  171.9460  135.1420 C   0  0  0  0  0  1  0  0  0  0  0  0
  192.4220  171.9710  135.4360 C   0  0  0  0  0  1  0  0  0  0  0  0
  191.4530  173.1380  135.4610 C   0  0  0  0  0  2  0  0  0  0  0  0
  189.7140  173.7100  144.9420 O   0  0  0  0  0  0  0  0  0  0  0  0
  190.7920  174.5200  145.4000 C   0  0  0  0  0  2  0  0  0  0  0  0
  190.2740  175.8640  145.8980 C   0  0  1  0  0  3  0  0  0  0  0  0
  191.2750  176.8030  147.8260 O   0  0  0  0  0  0  0  0  0  0  0  0
  190.4720  176.0000  147.3790 C   0  0  0  0  0  3  0  0  0  0  0  0
  190.9410  177.0000  145.1200 C   0  0  1  0  0  3  0  0  0  0  0  0
  194.1400  176.0030  143.7470 C   0  0  0  0  0  0  0  0  0  0  0  0
  193.3510  176.1850  144.7910 C   0  0  2  0  0  3  0  0  0  0  0  0
  193.5250  176.2050  142.5690 N   0  0  0  0  0  0  0  0  0  0  0  0
  195.3180  176.6440  145.3930 C   0  0  0  0  0  3  0  0  0  0  0  0
  195.4020  176.2820  144.0850 N   0  0  0  0  0  0  0  0  0  0  0  0
  192.2350  176.4750  142.9260 C   0  0  0  0  0  3  0  0  0  0  0  0
  196.5400  176.4620  143.2040 C   0  0  0  0  0  1  0  0  0  0  0  0
  192.1050  176.4990  144.3220 C   0  0  0  0  0  0  0  0  0  0  0  0
  194.0340  176.6220  145.8640 N   0  0  0  0  0  0  0  0  0  0  0  0
  190.0280  177.6680  144.2930 O   0  0  0  0  0  0  0  0  0  0  0  0
  188.7750  177.4640  144.8830 C   0  0  0  0  0  2  0  0  0  0  0  0
  187.6610  177.9100  143.9430 C   0  0  0  0  0  2  0  0  0  0  0  0
  186.3220  177.9940  144.6640 C   0  0  2  0  0  3  0  0  0  0  0  0
  185.7330  179.2330  144.3980 O   0  0  0  0  0  1  0  0  0  0  0  0
  186.4080  176.4330  146.5520 N   0  0  0  0  0  1  0  0  0  0  0  0
  186.5240  177.8330  146.1700 C   0  0  2  0  0  3  0  0  0  0  0  0
  185.5280  178.6450  146.9380 C   0  0  0  0  0  0  0  0  0  0  0  0
  185.9030  179.6040  147.6630 O   0  0  0  0  0  1  0  0  0  0  0  0
  184.1790  178.3200  146.8680 O   0  0  0  0  0  0  0  0  0  0  0  0
  1  6  1  0  0  0  0
  2  3  1  0  0  0  0
  3  6  2  0  0  0  0
  4  5  1  0  0  0  0
  4  2  2  0  0  0  0
  5  1  2  0  0  0  0
  6 27  1  0  0  0  0
  7  8  1  0  0  0  0
  7  9  1  0  0  0  0
  8 22  1  6  0  0  0
  8 10  1  0  0  0  0
  8  9  1  0  0  0  0
  9  4  1  1  0  0  0
 11 10  1  0  0  0  0
 11 13  1  0  0  0  0
 12 13  2  0  0  0  0
 13 15  1  0  0  0  0
 13 14  2  0  0  0  0
 16 17  1  0  0  0  0
 16 20  1  0  0  0  0
 17 19  2  0  0  0  0
 18 21  2  0  0  0  0
 18 15  1  0  0  0  0
 19 21  1  0  0  0  0
 20 18  1  0  0  0  0
 23 24  1  6  0  0  0
 23 22  1  0  0  0  0
 25 26  1  0  0  0  0
 26 23  1  0  0  0  0
 27 28  1  0  0  0  0
 29 28  1  6  0  0  0
 29 31  1  0  0  0  0
 31 30  2  0  0  0  0
 32 42  1  6  0  0  0
 32 29  1  0  0  0  0
 33 37  1  0  0  0  0
 34 33  1  6  0  0  0
 34 41  1  0  0  0  0
 35 38  1  0  0  0  0
 35 33  2  0  0  0  0
 36 41  2  0  0  0  0
 37 36  1  0  0  0  0
 38 40  2  0  0  0  0
 39 37  1  0  0  0  0
 40 34  1  0  0  0  0
 40 32  1  0  0  0  0
 42 43  1  0  0  0  0
 44 45  1  0  0  0  0
 44 43  1  0  0  0  0
 45 46  1  1  0  0  0
 45 48  1  0  0  0  0
 48 47  1  1  0  0  0
 48 49  1  0  0  0  0
 49 50  1  0  0  0  0
 51 49  2  0  0  0  0
M  END
>  <MODEL>
9

>  <REMARK>
 VINA RESULT:      -5.5      3.259      8.425
  Name = 
  21 active torsions:
  status: ('A' for Active; 'I' for Inactive)
    1  A    between atoms: C_2  and  C_15
    2  A    between atoms: C_2  and  CA_19
    3  A    between atoms: C_4  and  C_37
    4  A    between atoms: C_4  and  C_48
    5  A    between atoms: C_9  and  C_20
    6  A    between atoms: C_9  and  O_41
    7  A    between atoms: C_14  and  CA_19
    8  A    between atoms: C_15  and  C_38
    9  A    between atoms: C_20  and  C_26
   10  A    between atoms: C_20  and  C_47
   11  A    between atoms: O_21  and  C_38
   12  A    between atoms: O_21  and  C_47
   13  A    between atoms: C_30  and  C_33
   14  A    between atoms: C_32  and  C_50
   15  A    between atoms: C_33  and  S_44
   16  A    between atoms: C_39  and  C_47
   17  A    between atoms: C_40  and  O_41
   18  A    between atoms: C_43  and  C_48
   19  A    between atoms: C_43  and  C_51
   20  A    between atoms: S_44  and  N_49
   21  A    between atoms: N_49  and  C_51
                            x       y       z     vdW  Elec       q    Type
                         _______ _______ _______ _____ _____    ______ ____

>  <TORSDO>
F 21

$$$$
