=
 OpenBabel11062419073D

 32 34  0  0  1  0  0  0  0  0999 V2000
  190.2510  176.1840  146.8710 C   0  0  0  0  0  0  0  0  0  0  0  0
  191.7140  174.7700  145.8800 C   0  0  1  0  0  3  0  0  0  0  0  0
  192.0960  175.1650  147.1950 O   0  0  0  0  0  0  0  0  0  0  0  0
  190.4870  175.4700  145.7090 O   0  0  0  0  0  0  0  0  0  0  0  0
  191.1770  176.0230  147.7480 N   0  0  0  0  0  0  0  0  0  0  0  0
  193.0880  174.1690  143.8720 N   0  0  0  0  0  0  0  0  0  0  0  0
  192.7560  175.2370  144.8440 C   0  0  2  0  0  3  0  0  0  0  0  0
  195.3830  174.6650  143.2360 C   0  0  0  0  0  0  0  0  0  0  0  0
  195.8680  175.5030  144.3830 C   0  0  0  0  0  2  0  0  0  0  0  0
  196.1560  173.9170  142.6610 O   0  0  0  0  0  0  0  0  0  0  0  0
  194.0140  175.6610  145.6190 C   0  0  0  0  0  2  0  0  0  0  0  0
  194.8740  176.4000  144.7980 O   0  0  0  0  0  0  0  0  0  0  0  0
  193.9460  174.7130  142.8190 C   0  0  0  0  0  2  0  0  0  0  0  0
  191.8870  173.7440  143.1650 C   0  0  0  0  0  2  0  0  0  0  0  0
  190.0660  175.0990  142.1850 C   0  0  0  0  0  1  0  0  0  0  0  0
  191.5370  174.7570  142.0950 C   0  0  0  0  0  2  0  0  0  0  0  0
  189.0690  177.0650  147.0810 C   0  0  0  0  0  2  0  0  0  0  0  0
  187.8950  176.2900  147.1030 O   0  0  0  0  0  0  0  0  0  0  0  0
  187.2650  177.9340  145.4290 C   0  0  0  0  0  3  0  0  0  0  0  0
  184.8550  178.3530  147.2900 C   0  0  0  0  0  3  0  0  0  0  0  0
  186.4110  178.5850  144.6410 C   0  0  0  0  0  3  0  0  0  0  0  0
  186.8290  177.0320  146.5450 C   0  0  2  0  0  3  0  0  0  0  0  0
  184.9390  178.5900  144.7650 C   0  0  0  0  0  0  0  0  0  0  0  0
  184.2840  178.5270  145.9400 C   0  0  0  0  0  3  0  0  0  0  0  0
  185.9930  177.7260  147.5780 C   0  0  0  0  0  3  0  0  0  0  0  0
  184.1980  178.8120  143.5610 N   0  0  0  0  0  2  0  0  0  0  0  0
  184.2380  177.9190  142.4130 C   0  0  0  0  0  2  0  0  0  0  0  0
  185.1390  178.5090  141.3480 C   0  0  0  0  0  2  0  0  0  0  0  0
  187.8130  178.2660  141.5020 O   0  0  0  0  0  0  0  0  0  0  0  0
  186.6890  176.9930  139.4830 N   0  0  0  0  0  1  0  0  0  0  0  0
  186.5810  177.4880  141.1350 S   0  0  0  0  0  0  0  0  0  0  0  0
  186.4750  176.2730  142.0110 O   0  0  0  0  0  0  0  0  0  0  0  0
  1 17  1  0  0  0  0
  1  5  2  0  0  0  0
  2  4  1  6  0  0  0
  2  3  1  0  0  0  0
  3  5  1  0  0  0  0
  4  1  1  0  0  0  0
  6  7  1  0  0  0  0
  7 11  1  1  0  0  0
  7  2  1  0  0  0  0
  8  9  1  0  0  0  0
  9 12  1  0  0  0  0
 10  8  2  0  0  0  0
 12 11  1  0  0  0  0
 13  8  1  0  0  0  0
 13  6  1  0  0  0  0
 14  6  1  0  0  0  0
 16 15  1  0  0  0  0
 16 14  1  0  0  0  0
 17 18  1  0  0  0  0
 19 22  1  0  0  0  0
 20 25  2  0  0  0  0
 21 23  1  0  0  0  0
 21 19  2  0  0  0  0
 22 18  1  1  0  0  0
 22 25  1  0  0  0  0
 23 24  2  0  0  0  0
 24 20  1  0  0  0  0
 26 23  1  0  0  0  0
 27 26  1  0  0  0  0
 28 27  1  0  0  0  0
 30 31  1  0  0  0  0
 31 28  1  0  0  0  0
 31 29  2  0  0  0  0
 31 32  2  0  0  0  0
M  END
>  <MODEL>
1

>  <REMARK>
 VINA RESULT:      -6.6      0.000      0.000
  Name = 
  10 active torsions:
  status: ('A' for Active; 'I' for Inactive)
    1  A    between atoms: N_1  and  C_32
    2  A    between atoms: C_2  and  C_27
    3  A    between atoms: C_3  and  C_4
    4  A    between atoms: C_9  and  O_20
    5  A    between atoms: C_11  and  N_31
    6  A    between atoms: C_14  and  S_17
    7  A    between atoms: C_14  and  C_28
    8  A    between atoms: O_20  and  C_27
    9  A    between atoms: C_26  and  C_32
   10  A    between atoms: C_28  and  N_31
                            x       y       z     vdW  Elec       q    Type
                         _______ _______ _______ _____ _____    ______ ____

>  <TORSDO>
F 10

$$$$
=
 OpenBabel11062419073D

 32 34  0  0  1  0  0  0  0  0999 V2000
  190.1910  175.6040  146.1760 C   0  0  0  0  0  0  0  0  0  0  0  0
  192.3780  175.0210  146.1230 C   0  0  1  0  0  3  0  0  0  0  0  0
  192.1580  176.4220  146.2710 O   0  0  0  0  0  0  0  0  0  0  0  0
  191.0470  174.5210  146.0640 O   0  0  0  0  0  0  0  0  0  0  0  0
  190.8180  176.7190  146.2950 N   0  0  0  0  0  0  0  0  0  0  0  0
  194.3890  175.4980  144.7060 N   0  0  0  0  0  0  0  0  0  0  0  0
  193.1320  174.7210  144.8120 C   0  0  2  0  0  3  0  0  0  0  0  0
  194.6860  175.7810  142.3080 C   0  0  0  0  0  0  0  0  0  0  0  0
  193.2970  175.5780  141.7780 C   0  0  0  0  0  2  0  0  0  0  0  0
  195.4370  176.5680  141.7560 O   0  0  0  0  0  0  0  0  0  0  0  0
  192.1880  175.0730  143.6500 C   0  0  0  0  0  2  0  0  0  0  0  0
  192.6570  174.5270  142.4500 O   0  0  0  0  0  0  0  0  0  0  0  0
  195.1420  175.0520  143.5330 C   0  0  0  0  0  2  0  0  0  0  0  0
  195.2650  175.1890  145.8280 C   0  0  0  0  0  2  0  0  0  0  0  0
  196.7910  173.2980  146.2860 C   0  0  0  0  0  1  0  0  0  0  0  0
  196.4820  174.4340  145.3340 C   0  0  0  0  0  2  0  0  0  0  0  0
  188.7070  175.4980  146.1380 C   0  0  0  0  0  2  0  0  0  0  0  0
  188.1440  176.3500  147.1050 O   0  0  0  0  0  0  0  0  0  0  0  0
  187.4320  177.9620  145.4320 C   0  0  0  0  0  3  0  0  0  0  0  0
  184.9980  178.2500  147.2870 C   0  0  0  0  0  3  0  0  0  0  0  0
  186.5470  178.5690  144.6430 C   0  0  0  0  0  3  0  0  0  0  0  0
  187.0410  177.0360  146.5460 C   0  0  2  0  0  3  0  0  0  0  0  0
  185.0760  178.4950  144.7630 C   0  0  0  0  0  0  0  0  0  0  0  0
  184.4220  178.3950  145.9350 C   0  0  0  0  0  3  0  0  0  0  0  0
  186.1670  177.6830  147.5770 C   0  0  0  0  0  3  0  0  0  0  0  0
  184.3280  178.6800  143.5570 N   0  0  0  0  0  2  0  0  0  0  0  0
  184.4690  177.8330  142.3830 C   0  0  0  0  0  2  0  0  0  0  0  0
  185.4590  178.4620  141.4240 C   0  0  0  0  0  2  0  0  0  0  0  0
  186.8470  176.8640  139.7640 O   0  0  0  0  0  0  0  0  0  0  0  0
  186.7170  176.0360  142.2650 N   0  0  0  0  0  1  0  0  0  0  0  0
  186.8450  177.3720  141.1780 S   0  0  0  0  0  0  0  0  0  0  0  0
  188.1240  178.1110  141.4480 O   0  0  0  0  0  0  0  0  0  0  0  0
  1  5  2  0  0  0  0
  2  4  1  6  0  0  0
  2  3  1  0  0  0  0
  3  5  1  0  0  0  0
  4  1  1  0  0  0  0
  6  7  1  0  0  0  0
  6 14  1  0  0  0  0
  7 11  1  6  0  0  0
  7  2  1  0  0  0  0
  8 13  1  0  0  0  0
  9  8  1  0  0  0  0
  9 12  1  0  0  0  0
 10  8  2  0  0  0  0
 12 11  1  0  0  0  0
 13  6  1  0  0  0  0
 16 14  1  0  0  0  0
 16 15  1  0  0  0  0
 17  1  1  0  0  0  0
 17 18  1  0  0  0  0
 19 22  1  0  0  0  0
 20 25  2  0  0  0  0
 21 23  1  0  0  0  0
 21 19  2  0  0  0  0
 22 18  1  1  0  0  0
 22 25  1  0  0  0  0
 23 24  2  0  0  0  0
 24 20  1  0  0  0  0
 26 23  1  0  0  0  0
 27 26  1  0  0  0  0
 28 27  1  0  0  0  0
 29 31  2  0  0  0  0
 31 28  1  0  0  0  0
 31 32  2  0  0  0  0
 31 30  1  0  0  0  0
M  END
>  <MODEL>
2

>  <REMARK>
 VINA RESULT:      -6.5      1.496      2.539
  Name = 
  10 active torsions:
  status: ('A' for Active; 'I' for Inactive)
    1  A    between atoms: N_1  and  C_32
    2  A    between atoms: C_2  and  C_27
    3  A    between atoms: C_3  and  C_4
    4  A    between atoms: C_9  and  O_20
    5  A    between atoms: C_11  and  N_31
    6  A    between atoms: C_14  and  S_17
    7  A    between atoms: C_14  and  C_28
    8  A    between atoms: O_20  and  C_27
    9  A    between atoms: C_26  and  C_32
   10  A    between atoms: C_28  and  N_31
                            x       y       z     vdW  Elec       q    Type
                         _______ _______ _______ _____ _____    ______ ____

>  <TORSDO>
F 10

$$$$
=
 OpenBabel11062419073D

 32 34  0  0  1  0  0  0  0  0999 V2000
  189.5690  176.2680  146.9440 C   0  0  0  0  0  0  0  0  0  0  0  0
  187.8350  177.3890  146.0160 C   0  0  1  0  0  3  0  0  0  0  0  0
  187.6260  175.9820  146.1130 O   0  0  0  0  0  0  0  0  0  0  0  0
  189.1340  177.5310  146.5790 O   0  0  0  0  0  0  0  0  0  0  0  0
  188.7080  175.3520  146.6790 N   0  0  0  0  0  0  0  0  0  0  0  0
  186.4590  178.1650  144.0710 N   0  0  0  0  0  0  0  0  0  0  0  0
  187.8260  177.8440  144.5430 C   0  0  2  0  0  3  0  0  0  0  0  0
  186.5450  177.6730  141.6900 C   0  0  0  0  0  0  0  0  0  0  0  0
  187.7110  176.7330  141.5900 C   0  0  0  0  0  2  0  0  0  0  0  0
  185.5930  177.5400  140.9400 O   0  0  0  0  0  0  0  0  0  0  0  0
  188.4240  176.7010  143.7070 C   0  0  0  0  0  2  0  0  0  0  0  0
  188.7590  177.1500  142.4240 O   0  0  0  0  0  0  0  0  0  0  0  0
  186.5280  178.7480  142.7310 C   0  0  0  0  0  2  0  0  0  0  0  0
  185.8810  179.2230  144.8890 C   0  0  0  0  0  2  0  0  0  0  0  0
  184.2710  178.3230  146.5350 C   0  0  0  0  0  1  0  0  0  0  0  0
  184.4200  178.9250  145.1540 C   0  0  0  0  0  2  0  0  0  0  0  0
  190.8980  175.9910  147.5550 C   0  0  0  0  0  2  0  0  0  0  0  0
  191.9020  176.6680  146.8380 O   0  0  0  0  0  0  0  0  0  0  0  0
  192.8500  174.5320  146.1730 C   0  0  0  0  0  3  0  0  0  0  0  0
  193.6310  176.0920  143.6420 C   0  0  0  0  0  3  0  0  0  0  0  0
  193.1310  173.5530  145.3150 C   0  0  0  0  0  3  0  0  0  0  0  0
  192.3240  175.8710  145.7490 C   0  0  2  0  0  3  0  0  0  0  0  0
  193.0430  173.6320  143.8420 C   0  0  0  0  0  0  0  0  0  0  0  0
  193.3050  174.7450  143.1320 C   0  0  0  0  0  3  0  0  0  0  0  0
  193.2360  176.5980  144.8090 C   0  0  0  0  0  3  0  0  0  0  0  0
  192.7950  172.4030  143.1510 N   0  0  0  0  0  2  0  0  0  0  0  0
  191.6730  171.5250  143.4460 C   0  0  0  0  0  2  0  0  0  0  0  0
  190.6580  171.6110  142.3250 C   0  0  0  0  0  2  0  0  0  0  0  0
  189.6170  173.4500  143.9880 O   0  0  0  0  0  0  0  0  0  0  0  0
  188.0220  172.6810  142.0330 N   0  0  0  0  0  1  0  0  0  0  0  0
  189.6320  173.0490  142.5410 S   0  0  0  0  0  0  0  0  0  0  0  0
  190.1670  174.1820  141.7120 O   0  0  0  0  0  0  0  0  0  0  0  0
  1 17  1  0  0  0  0
  2  3  1  6  0  0  0
  2  4  1  0  0  0  0
  3  5  1  0  0  0  0
  4  1  1  0  0  0  0
  5  1  2  0  0  0  0
  6  7  1  0  0  0  0
  6 14  1  0  0  0  0
  7 11  1  6  0  0  0
  7  2  1  0  0  0  0
  8 13  1  0  0  0  0
  9  8  1  0  0  0  0
  9 12  1  0  0  0  0
 10  8  2  0  0  0  0
 12 11  1  0  0  0  0
 13  6  1  0  0  0  0
 14 16  1  0  0  0  0
 16 15  1  0  0  0  0
 18 17  1  0  0  0  0
 20 25  2  0  0  0  0
 21 19  2  0  0  0  0
 22 19  1  0  0  0  0
 22 18  1  1  0  0  0
 23 21  1  0  0  0  0
 24 20  1  0  0  0  0
 24 23  2  0  0  0  0
 25 22  1  0  0  0  0
 26 27  1  0  0  0  0
 26 23  1  0  0  0  0
 28 31  1  0  0  0  0
 28 27  1  0  0  0  0
 30 31  1  0  0  0  0
 31 29  2  0  0  0  0
 32 31  2  0  0  0  0
M  END
>  <MODEL>
3

>  <REMARK>
 VINA RESULT:      -6.5      2.399      7.336
  Name = 
  10 active torsions:
  status: ('A' for Active; 'I' for Inactive)
    1  A    between atoms: N_1  and  C_32
    2  A    between atoms: C_2  and  C_27
    3  A    between atoms: C_3  and  C_4
    4  A    between atoms: C_9  and  O_20
    5  A    between atoms: C_11  and  N_31
    6  A    between atoms: C_14  and  S_17
    7  A    between atoms: C_14  and  C_28
    8  A    between atoms: O_20  and  C_27
    9  A    between atoms: C_26  and  C_32
   10  A    between atoms: C_28  and  N_31
                            x       y       z     vdW  Elec       q    Type
                         _______ _______ _______ _____ _____    ______ ____

>  <TORSDO>
F 10

$$$$
=
 OpenBabel11062419073D

 32 34  0  0  1  0  0  0  0  0999 V2000
  189.4770  176.1060  146.9880 C   0  0  0  0  0  0  0  0  0  0  0  0
  187.8790  177.4280  146.0820 C   0  0  1  0  0  3  0  0  0  0  0  0
  187.4940  176.0610  146.2040 O   0  0  0  0  0  0  0  0  0  0  0  0
  189.1980  177.4090  146.6130 O   0  0  0  0  0  0  0  0  0  0  0  0
  188.4990  175.3050  146.7560 N   0  0  0  0  0  0  0  0  0  0  0  0
  186.5270  178.1240  144.0890 N   0  0  0  0  0  0  0  0  0  0  0  0
  187.8920  177.8630  144.6030 C   0  0  2  0  0  3  0  0  0  0  0  0
  186.6980  177.6030  141.7190 C   0  0  0  0  0  0  0  0  0  0  0  0
  187.9010  176.7090  141.6640 C   0  0  0  0  0  2  0  0  0  0  0  0
  185.7720  177.4230  140.9450 O   0  0  0  0  0  0  0  0  0  0  0  0
  188.5570  176.7330  143.7990 C   0  0  0  0  0  2  0  0  0  0  0  0
  188.9090  177.1770  142.5200 O   0  0  0  0  0  0  0  0  0  0  0  0
  186.6100  178.6910  142.7430 C   0  0  0  0  0  2  0  0  0  0  0  0
  185.8870  179.1700  144.8760 C   0  0  0  0  0  2  0  0  0  0  0  0
  184.2800  178.2740  146.5280 C   0  0  0  0  0  1  0  0  0  0  0  0
  184.4360  178.8100  145.1210 C   0  0  0  0  0  2  0  0  0  0  0  0
  190.7740  175.6670  147.5720 C   0  0  0  0  0  2  0  0  0  0  0  0
  191.7650  176.6300  147.3070 O   0  0  0  0  0  0  0  0  0  0  0  0
  194.0180  176.2140  146.4980 C   0  0  0  0  0  3  0  0  0  0  0  0
  192.6950  176.5740  143.7480 C   0  0  0  0  0  3  0  0  0  0  0  0
  194.9260  175.6880  145.6780 C   0  0  0  0  0  3  0  0  0  0  0  0
  192.5470  176.2110  146.2060 C   0  0  2  0  0  3  0  0  0  0  0  0
  194.6640  175.0920  144.3520 C   0  0  0  0  0  0  0  0  0  0  0  0
  193.7060  175.5250  143.5110 C   0  0  0  0  0  3  0  0  0  0  0  0
  192.1930  176.9170  144.9330 C   0  0  0  0  0  3  0  0  0  0  0  0
  195.5840  174.0900  143.9100 N   0  0  0  0  0  2  0  0  0  0  0  0
  195.6180  173.5700  142.5510 C   0  0  0  0  0  2  0  0  0  0  0  0
  196.8090  174.1530  141.8180 C   0  0  0  0  0  2  0  0  0  0  0  0
  197.2100  175.4290  139.4850 O   0  0  0  0  0  0  0  0  0  0  0  0
  196.2370  176.9270  141.4260 N   0  0  0  0  0  1  0  0  0  0  0  0
  196.2650  175.3830  140.6520 S   0  0  0  0  0  0  0  0  0  0  0  0
  194.8840  175.0450  140.1670 O   0  0  0  0  0  0  0  0  0  0  0  0
  1 17  1  0  0  0  0
  2  3  1  6  0  0  0
  2  4  1  0  0  0  0
  3  5  1  0  0  0  0
  4  1  1  0  0  0  0
  5  1  2  0  0  0  0
  6  7  1  0  0  0  0
  6 14  1  0  0  0  0
  7 11  1  6  0  0  0
  7  2  1  0  0  0  0
  8 13  1  0  0  0  0
  9  8  1  0  0  0  0
  9 12  1  0  0  0  0
 10  8  2  0  0  0  0
 12 11  1  0  0  0  0
 13  6  1  0  0  0  0
 14 16  1  0  0  0  0
 16 15  1  0  0  0  0
 18 17  1  0  0  0  0
 20 25  2  0  0  0  0
 21 19  2  0  0  0  0
 22 19  1  0  0  0  0
 22 18  1  1  0  0  0
 23 21  1  0  0  0  0
 24 20  1  0  0  0  0
 24 23  2  0  0  0  0
 25 22  1  0  0  0  0
 26 23  1  0  0  0  0
 27 26  1  0  0  0  0
 28 27  1  0  0  0  0
 29 31  2  0  0  0  0
 31 30  1  0  0  0  0
 31 28  1  0  0  0  0
 32 31  2  0  0  0  0
M  END
>  <MODEL>
4

>  <REMARK>
 VINA RESULT:      -6.3      2.713      8.155
  Name = 
  10 active torsions:
  status: ('A' for Active; 'I' for Inactive)
    1  A    between atoms: N_1  and  C_32
    2  A    between atoms: C_2  and  C_27
    3  A    between atoms: C_3  and  C_4
    4  A    between atoms: C_9  and  O_20
    5  A    between atoms: C_11  and  N_31
    6  A    between atoms: C_14  and  S_17
    7  A    between atoms: C_14  and  C_28
    8  A    between atoms: O_20  and  C_27
    9  A    between atoms: C_26  and  C_32
   10  A    between atoms: C_28  and  N_31
                            x       y       z     vdW  Elec       q    Type
                         _______ _______ _______ _____ _____    ______ ____

>  <TORSDO>
F 10

$$$$
=
 OpenBabel11062419073D

 32 34  0  0  1  0  0  0  0  0999 V2000
  190.1770  175.8540  146.2560 C   0  0  0  0  0  0  0  0  0  0  0  0
  188.7950  177.4080  145.3630 C   0  0  1  0  0  3  0  0  0  0  0  0
  189.0700  177.6100  146.7470 O   0  0  0  0  0  0  0  0  0  0  0  0
  189.5480  176.2350  145.0830 O   0  0  0  0  0  0  0  0  0  0  0  0
  189.9100  176.6390  147.2370 N   0  0  0  0  0  0  0  0  0  0  0  0
  186.7640  177.9440  143.9950 N   0  0  0  0  0  0  0  0  0  0  0  0
  187.2900  177.1580  145.1350 C   0  0  2  0  0  3  0  0  0  0  0  0
  184.4320  178.3130  144.5810 C   0  0  0  0  0  0  0  0  0  0  0  0
  184.4320  178.1210  146.0700 C   0  0  0  0  0  2  0  0  0  0  0  0
  183.6740  179.1230  144.0740 O   0  0  0  0  0  0  0  0  0  0  0  0
  186.5600  177.5460  146.4320 C   0  0  0  0  0  2  0  0  0  0  0  0
  185.2540  177.0440  146.4320 O   0  0  0  0  0  0  0  0  0  0  0  0
  185.3840  177.5440  143.7190 C   0  0  0  0  0  2  0  0  0  0  0  0
  187.4830  177.6010  142.7760 C   0  0  0  0  0  2  0  0  0  0  0  0
  188.1770  175.5940  141.5090 C   0  0  0  0  0  1  0  0  0  0  0  0
  187.0520  176.2310  142.2950 C   0  0  0  0  0  2  0  0  0  0  0  0
  191.0470  174.6530  146.3820 C   0  0  0  0  0  2  0  0  0  0  0  0
  192.2360  174.9950  147.0510 O   0  0  0  0  0  0  0  0  0  0  0  0
  194.1210  174.1870  145.7470 C   0  0  0  0  0  3  0  0  0  0  0  0
  194.8530  177.1710  145.6520 C   0  0  0  0  0  3  0  0  0  0  0  0
  195.0020  174.2290  144.7500 C   0  0  0  0  0  3  0  0  0  0  0  0
  193.2290  175.3390  146.1050 C   0  0  2  0  0  3  0  0  0  0  0  0
  195.2970  175.3960  143.8940 C   0  0  0  0  0  0  0  0  0  0  0  0
  195.2620  176.6710  144.3240 C   0  0  0  0  0  3  0  0  0  0  0  0
  193.9820  176.5820  146.4690 C   0  0  0  0  0  3  0  0  0  0  0  0
  195.7750  175.1160  142.5740 N   0  0  0  0  0  2  0  0  0  0  0  0
  195.0080  174.3850  141.5770 C   0  0  0  0  0  2  0  0  0  0  0  0
  193.7280  175.1370  141.2760 C   0  0  0  0  0  2  0  0  0  0  0  0
  191.6430  174.8740  142.9550 O   0  0  0  0  0  0  0  0  0  0  0  0
  192.8540  172.6200  142.3150 N   0  0  0  0  0  1  0  0  0  0  0  0
  192.3220  174.1830  141.8070 S   0  0  0  0  0  0  0  0  0  0  0  0
  191.3530  174.0320  140.6690 O   0  0  0  0  0  0  0  0  0  0  0  0
  1 17  1  0  0  0  0
  1  5  2  0  0  0  0
  2  4  1  1  0  0  0
  2  3  1  0  0  0  0
  3  5  1  0  0  0  0
  4  1  1  0  0  0  0
  6  7  1  0  0  0  0
  7  2  1  0  0  0  0
  7 11  1  1  0  0  0
  8  9  1  0  0  0  0
  9 12  1  0  0  0  0
 10  8  2  0  0  0  0
 12 11  1  0  0  0  0
 13  6  1  0  0  0  0
 13  8  1  0  0  0  0
 14  6  1  0  0  0  0
 15 16  1  0  0  0  0
 16 14  1  0  0  0  0
 17 18  1  0  0  0  0
 19 22  1  0  0  0  0
 20 25  2  0  0  0  0
 21 19  2  0  0  0  0
 22 25  1  0  0  0  0
 22 18  1  1  0  0  0
 23 24  2  0  0  0  0
 23 21  1  0  0  0  0
 24 20  1  0  0  0  0
 26 23  1  0  0  0  0
 27 26  1  0  0  0  0
 28 27  1  0  0  0  0
 28 31  1  0  0  0  0
 31 30  1  0  0  0  0
 31 29  2  0  0  0  0
 32 31  2  0  0  0  0
M  END
>  <MODEL>
5

>  <REMARK>
 VINA RESULT:      -6.2      2.546      8.019
  Name = 
  10 active torsions:
  status: ('A' for Active; 'I' for Inactive)
    1  A    between atoms: N_1  and  C_32
    2  A    between atoms: C_2  and  C_27
    3  A    between atoms: C_3  and  C_4
    4  A    between atoms: C_9  and  O_20
    5  A    between atoms: C_11  and  N_31
    6  A    between atoms: C_14  and  S_17
    7  A    between atoms: C_14  and  C_28
    8  A    between atoms: O_20  and  C_27
    9  A    between atoms: C_26  and  C_32
   10  A    between atoms: C_28  and  N_31
                            x       y       z     vdW  Elec       q    Type
                         _______ _______ _______ _____ _____    ______ ____

>  <TORSDO>
F 10

$$$$
=
 OpenBabel11062419073D

 32 34  0  0  1  0  0  0  0  0999 V2000
  190.4880  176.4650  145.2280 C   0  0  0  0  0  0  0  0  0  0  0  0
  188.3290  177.0790  144.9360 C   0  0  1  0  0  3  0  0  0  0  0  0
  188.5860  175.7120  144.6240 O   0  0  0  0  0  0  0  0  0  0  0  0
  189.6170  177.5360  145.3310 O   0  0  0  0  0  0  0  0  0  0  0  0
  189.9090  175.3950  144.8160 N   0  0  0  0  0  0  0  0  0  0  0  0
  186.3790  178.0960  143.7340 N   0  0  0  0  0  0  0  0  0  0  0  0
  187.8380  177.8430  143.6900 C   0  0  2  0  0  3  0  0  0  0  0  0
  185.7360  178.1530  141.3890 C   0  0  0  0  0  0  0  0  0  0  0  0
  186.8520  177.4020  140.7230 C   0  0  0  0  0  2  0  0  0  0  0  0
  184.6030  178.0770  140.9430 O   0  0  0  0  0  0  0  0  0  0  0  0
  188.1940  176.9900  142.4610 C   0  0  0  0  0  2  0  0  0  0  0  0
  188.0890  177.7460  141.2880 O   0  0  0  0  0  0  0  0  0  0  0  0
  185.9980  178.9640  142.6190 C   0  0  0  0  0  2  0  0  0  0  0  0
  186.0410  178.8730  144.9200 C   0  0  0  0  0  2  0  0  0  0  0  0
  184.6110  178.2920  146.8520 C   0  0  0  0  0  1  0  0  0  0  0  0
  184.6290  178.5460  145.3600 C   0  0  0  0  0  2  0  0  0  0  0  0
  191.9420  176.5430  145.5360 C   0  0  0  0  0  2  0  0  0  0  0  0
  192.6800  176.5780  144.3380 O   0  0  0  0  0  0  0  0  0  0  0  0
  194.2780  175.7240  145.9580 C   0  0  0  0  0  3  0  0  0  0  0  0
  196.2000  175.8370  143.5620 C   0  0  0  0  0  3  0  0  0  0  0  0
  195.2830  174.9530  146.3670 C   0  0  0  0  0  3  0  0  0  0  0  0
  193.9010  175.8860  144.5150 C   0  0  2  0  0  3  0  0  0  0  0  0
  196.2150  174.2010  145.5020 C   0  0  0  0  0  0  0  0  0  0  0  0
  196.6300  174.6300  144.2950 C   0  0  0  0  0  3  0  0  0  0  0  0
  195.0110  176.4270  143.6680 C   0  0  0  0  0  3  0  0  0  0  0  0
  196.7970  173.0210  146.0640 N   0  0  0  0  0  2  0  0  0  0  0  0
  196.7600  171.7180  145.4190 C   0  0  0  0  0  2  0  0  0  0  0  0
  195.5190  170.9710  145.8630 C   0  0  0  0  0  2  0  0  0  0  0  0
  193.2660  172.2490  145.1390 O   0  0  0  0  0  0  0  0  0  0  0  0
  193.3630  169.6960  144.4830 N   0  0  0  0  0  1  0  0  0  0  0  0
  194.2170  171.1860  144.6680 S   0  0  0  0  0  0  0  0  0  0  0  0
  194.8050  171.5890  143.3460 O   0  0  0  0  0  0  0  0  0  0  0  0
  1  4  1  0  0  0  0
  1 17  1  0  0  0  0
  2  3  1  6  0  0  0
  2  4  1  0  0  0  0
  3  5  1  0  0  0  0
  5  1  2  0  0  0  0
  6 14  1  0  0  0  0
  7 11  1  6  0  0  0
  7  6  1  0  0  0  0
  7  2  1  0  0  0  0
  8 13  1  0  0  0  0
  9 12  1  0  0  0  0
  9  8  1  0  0  0  0
 10  8  2  0  0  0  0
 12 11  1  0  0  0  0
 13  6  1  0  0  0  0
 14 16  1  0  0  0  0
 16 15  1  0  0  0  0
 18 17  1  0  0  0  0
 19 21  2  0  0  0  0
 20 25  2  0  0  0  0
 20 24  1  0  0  0  0
 22 18  1  1  0  0  0
 22 19  1  0  0  0  0
 23 26  1  0  0  0  0
 23 21  1  0  0  0  0
 24 23  2  0  0  0  0
 25 22  1  0  0  0  0
 27 28  1  0  0  0  0
 27 26  1  0  0  0  0
 30 31  1  0  0  0  0
 31 29  2  0  0  0  0
 31 28  1  0  0  0  0
 32 31  2  0  0  0  0
M  END
>  <MODEL>
6

>  <REMARK>
 VINA RESULT:      -6.2      2.991      9.183
  Name = 
  10 active torsions:
  status: ('A' for Active; 'I' for Inactive)
    1  A    between atoms: N_1  and  C_32
    2  A    between atoms: C_2  and  C_27
    3  A    between atoms: C_3  and  C_4
    4  A    between atoms: C_9  and  O_20
    5  A    between atoms: C_11  and  N_31
    6  A    between atoms: C_14  and  S_17
    7  A    between atoms: C_14  and  C_28
    8  A    between atoms: O_20  and  C_27
    9  A    between atoms: C_26  and  C_32
   10  A    between atoms: C_28  and  N_31
                            x       y       z     vdW  Elec       q    Type
                         _______ _______ _______ _____ _____    ______ ____

>  <TORSDO>
F 10

$$$$
=
 OpenBabel11062419073D

 32 34  0  0  1  0  0  0  0  0999 V2000
  191.7720  175.5380  146.7060 C   0  0  0  0  0  0  0  0  0  0  0  0
  193.9870  175.3470  146.2860 C   0  0  1  0  0  3  0  0  0  0  0  0
  193.5280  176.6950  146.3530 O   0  0  0  0  0  0  0  0  0  0  0  0
  192.7900  174.6180  146.5250 O   0  0  0  0  0  0  0  0  0  0  0  0
  192.1790  176.7520  146.6070 N   0  0  0  0  0  0  0  0  0  0  0  0
  196.0020  174.7420  144.9230 N   0  0  0  0  0  0  0  0  0  0  0  0
  194.5490  175.0300  144.8850 C   0  0  2  0  0  3  0  0  0  0  0  0
  196.7840  175.4520  142.7320 C   0  0  0  0  0  0  0  0  0  0  0  0
  195.7120  176.4070  142.2940 C   0  0  0  0  0  2  0  0  0  0  0  0
  197.9410  175.6450  142.4000 O   0  0  0  0  0  0  0  0  0  0  0  0
  194.2710  176.2500  143.9930 C   0  0  0  0  0  2  0  0  0  0  0  0
  194.4430  175.9240  142.6430 O   0  0  0  0  0  0  0  0  0  0  0  0
  196.4450  174.2850  143.6060 C   0  0  0  0  0  2  0  0  0  0  0  0
  196.2650  173.6070  145.7990 C   0  0  0  0  0  2  0  0  0  0  0  0
  197.1920  171.3210  145.6390 C   0  0  0  0  0  1  0  0  0  0  0  0
  196.2650  172.3260  144.9910 C   0  0  0  0  0  2  0  0  0  0  0  0
  190.3520  175.1690  146.9620 C   0  0  0  0  0  2  0  0  0  0  0  0
  189.6050  176.3240  147.2550 O   0  0  0  0  0  0  0  0  0  0  0  0
  189.0060  177.4540  145.1880 C   0  0  0  0  0  3  0  0  0  0  0  0
  186.1430  176.8500  146.1270 C   0  0  0  0  0  3  0  0  0  0  0  0
  188.3010  177.6310  144.0730 C   0  0  0  0  0  3  0  0  0  0  0  0
  188.6030  176.4990  146.2730 C   0  0  2  0  0  3  0  0  0  0  0  0
  187.0090  176.9950  143.7460 C   0  0  0  0  0  0  0  0  0  0  0  0
  186.0650  176.7000  144.6600 C   0  0  0  0  0  3  0  0  0  0  0  0
  187.2550  176.7980  146.8560 C   0  0  0  0  0  3  0  0  0  0  0  0
  186.7160  176.8190  142.3570 N   0  0  0  0  0  2  0  0  0  0  0  0
  187.6250  176.1840  141.4150 C   0  0  0  0  0  2  0  0  0  0  0  0
  187.7480  174.7110  141.7490 C   0  0  0  0  0  2  0  0  0  0  0  0
  190.2720  175.5540  142.1400 O   0  0  0  0  0  0  0  0  0  0  0  0
  190.0340  173.0180  141.4540 N   0  0  0  0  0  1  0  0  0  0  0  0
  189.3890  174.3540  142.3390 S   0  0  0  0  0  0  0  0  0  0  0  0
  189.3390  174.0060  143.7990 O   0  0  0  0  0  0  0  0  0  0  0  0
  1 17  1  0  0  0  0
  2  3  1  6  0  0  0
  2  4  1  0  0  0  0
  3  5  1  0  0  0  0
  4  1  1  0  0  0  0
  5  1  2  0  0  0  0
  6 14  1  0  0  0  0
  7 11  1  6  0  0  0
  7  6  1  0  0  0  0
  7  2  1  0  0  0  0
  8 13  1  0  0  0  0
  9 12  1  0  0  0  0
  9  8  1  0  0  0  0
 10  8  2  0  0  0  0
 12 11  1  0  0  0  0
 13  6  1  0  0  0  0
 16 15  1  0  0  0  0
 16 14  1  0  0  0  0
 17 18  1  0  0  0  0
 19 22  1  0  0  0  0
 20 25  2  0  0  0  0
 21 19  2  0  0  0  0
 22 25  1  0  0  0  0
 22 18  1  1  0  0  0
 23 21  1  0  0  0  0
 23 24  2  0  0  0  0
 24 20  1  0  0  0  0
 26 23  1  0  0  0  0
 27 28  1  0  0  0  0
 27 26  1  0  0  0  0
 28 31  1  0  0  0  0
 29 31  2  0  0  0  0
 30 31  1  0  0  0  0
 31 32  2  0  0  0  0
M  END
>  <MODEL>
7

>  <REMARK>
 VINA RESULT:      -6.1      2.453      3.440
  Name = 
  10 active torsions:
  status: ('A' for Active; 'I' for Inactive)
    1  A    between atoms: N_1  and  C_32
    2  A    between atoms: C_2  and  C_27
    3  A    between atoms: C_3  and  C_4
    4  A    between atoms: C_9  and  O_20
    5  A    between atoms: C_11  and  N_31
    6  A    between atoms: C_14  and  S_17
    7  A    between atoms: C_14  and  C_28
    8  A    between atoms: O_20  and  C_27
    9  A    between atoms: C_26  and  C_32
   10  A    between atoms: C_28  and  N_31
                            x       y       z     vdW  Elec       q    Type
                         _______ _______ _______ _____ _____    ______ ____

>  <TORSDO>
F 10

$$$$
=
 OpenBabel11062419073D

 32 34  0  0  1  0  0  0  0  0999 V2000
  190.3480  176.2920  143.4310 C   0  0  0  0  0  0  0  0  0  0  0  0
  188.5240  177.6250  143.2810 C   0  0  1  0  0  3  0  0  0  0  0  0
  189.4800  178.0620  144.2450 O   0  0  0  0  0  0  0  0  0  0  0  0
  189.1420  176.4510  142.7690 O   0  0  0  0  0  0  0  0  0  0  0  0
  190.5620  177.2180  144.2970 N   0  0  0  0  0  0  0  0  0  0  0  0
  186.1760  178.3560  143.7660 N   0  0  0  0  0  0  0  0  0  0  0  0
  187.1810  177.2840  143.9570 C   0  0  2  0  0  3  0  0  0  0  0  0
  184.7720  178.1850  145.7450 C   0  0  0  0  0  0  0  0  0  0  0  0
  185.6610  177.4690  146.7180 C   0  0  0  0  0  2  0  0  0  0  0  0
  183.9790  179.0200  146.1480 O   0  0  0  0  0  0  0  0  0  0  0  0
  187.4620  177.0780  145.4550 C   0  0  0  0  0  2  0  0  0  0  0  0
  186.3780  176.4480  146.0780 O   0  0  0  0  0  0  0  0  0  0  0  0
  184.8800  177.9100  144.2780 C   0  0  0  0  0  2  0  0  0  0  0  0
  185.9410  178.5740  142.3450 C   0  0  0  0  0  2  0  0  0  0  0  0
  184.3120  178.3080  140.5040 C   0  0  0  0  0  1  0  0  0  0  0  0
  184.6110  177.9670  141.9480 C   0  0  0  0  0  2  0  0  0  0  0  0
  191.2860  175.1620  143.1920 C   0  0  0  0  0  2  0  0  0  0  0  0
  191.4080  174.3880  144.3610 O   0  0  0  0  0  0  0  0  0  0  0  0
  193.3490  173.1290  145.1040 C   0  0  0  0  0  3  0  0  0  0  0  0
  194.0570  175.7690  146.5090 C   0  0  0  0  0  3  0  0  0  0  0  0
  194.6380  172.9600  145.3880 C   0  0  0  0  0  3  0  0  0  0  0  0
  192.7340  174.4720  144.8470 C   0  0  2  0  0  3  0  0  0  0  0  0
  195.6420  174.0290  145.5620 C   0  0  0  0  0  0  0  0  0  0  0  0
  195.3690  175.2370  146.0910 C   0  0  0  0  0  3  0  0  0  0  0  0
  192.8780  175.4220  145.9960 C   0  0  0  0  0  3  0  0  0  0  0  0
  197.0000  173.6860  145.2670 N   0  0  0  0  0  2  0  0  0  0  0  0
  197.8050  174.3670  144.2650 C   0  0  0  0  0  2  0  0  0  0  0  0
  197.3010  174.0060  142.8830 C   0  0  0  0  0  2  0  0  0  0  0  0
  197.0520  175.6680  140.7830 O   0  0  0  0  0  0  0  0  0  0  0  0
  196.7250  176.7950  143.1450 N   0  0  0  0  0  1  0  0  0  0  0  0
  196.4820  175.4060  142.1480 S   0  0  0  0  0  0  0  0  0  0  0  0
  195.0110  175.1280  142.0320 O   0  0  0  0  0  0  0  0  0  0  0  0
  1  5  2  0  0  0  0
  2  4  1  1  0  0  0
  2  7  1  0  0  0  0
  2  3  1  0  0  0  0
  3  5  1  0  0  0  0
  4  1  1  0  0  0  0
  6  7  1  0  0  0  0
  6 13  1  0  0  0  0
  7 11  1  1  0  0  0
  8 10  2  0  0  0  0
  8  9  1  0  0  0  0
 11 12  1  0  0  0  0
 12  9  1  0  0  0  0
 13  8  1  0  0  0  0
 14  6  1  0  0  0  0
 15 16  1  0  0  0  0
 16 14  1  0  0  0  0
 17  1  1  0  0  0  0
 17 18  1  0  0  0  0
 19 21  2  0  0  0  0
 21 23  1  0  0  0  0
 22 18  1  1  0  0  0
 22 19  1  0  0  0  0
 22 25  1  0  0  0  0
 23 24  2  0  0  0  0
 24 20  1  0  0  0  0
 25 20  2  0  0  0  0
 26 23  1  0  0  0  0
 27 26  1  0  0  0  0
 28 27  1  0  0  0  0
 29 31  2  0  0  0  0
 31 28  1  0  0  0  0
 31 30  1  0  0  0  0
 32 31  2  0  0  0  0
M  END
>  <MODEL>
8

>  <REMARK>
 VINA RESULT:      -6.1      2.892      9.035
  Name = 
  10 active torsions:
  status: ('A' for Active; 'I' for Inactive)
    1  A    between atoms: N_1  and  C_32
    2  A    between atoms: C_2  and  C_27
    3  A    between atoms: C_3  and  C_4
    4  A    between atoms: C_9  and  O_20
    5  A    between atoms: C_11  and  N_31
    6  A    between atoms: C_14  and  S_17
    7  A    between atoms: C_14  and  C_28
    8  A    between atoms: O_20  and  C_27
    9  A    between atoms: C_26  and  C_32
   10  A    between atoms: C_28  and  N_31
                            x       y       z     vdW  Elec       q    Type
                         _______ _______ _______ _____ _____    ______ ____

>  <TORSDO>
F 10

$$$$
=
 OpenBabel11062419073D

 32 34  0  0  1  0  0  0  0  0999 V2000
  189.9980  176.6220  146.4430 C   0  0  0  0  0  0  0  0  0  0  0  0
  188.3200  176.2300  144.9760 C   0  0  1  0  0  3  0  0  0  0  0  0
  189.1240  177.3600  144.6430 O   0  0  0  0  0  0  0  0  0  0  0  0
  188.9360  175.7750  146.1740 O   0  0  0  0  0  0  0  0  0  0  0  0
  190.1230  177.5520  145.5660 N   0  0  0  0  0  0  0  0  0  0  0  0
  186.2620  177.3380  144.0690 N   0  0  0  0  0  0  0  0  0  0  0  0
  186.8610  176.6560  145.2400 C   0  0  2  0  0  3  0  0  0  0  0  0
  184.6310  178.8470  145.0590 C   0  0  0  0  0  0  0  0  0  0  0  0
  185.1290  178.9920  146.4680 C   0  0  0  0  0  2  0  0  0  0  0  0
  184.0830  179.7890  144.5100 O   0  0  0  0  0  0  0  0  0  0  0  0
  186.8720  177.5950  146.4570 C   0  0  0  0  0  2  0  0  0  0  0  0
  185.5780  177.7600  146.9650 O   0  0  0  0  0  0  0  0  0  0  0  0
  184.8370  177.5670  144.3120 C   0  0  0  0  0  2  0  0  0  0  0  0
  186.2870  176.4580  142.9090 C   0  0  0  0  0  2  0  0  0  0  0  0
  187.7610  177.5670  141.2620 C   0  0  0  0  0  1  0  0  0  0  0  0
  186.3230  177.2840  141.6400 C   0  0  0  0  0  2  0  0  0  0  0  0
  190.8870  176.4910  147.6300 C   0  0  0  0  0  2  0  0  0  0  0  0
  191.6450  175.3100  147.5290 O   0  0  0  0  0  0  0  0  0  0  0  0
  193.2810  174.1780  146.1330 C   0  0  0  0  0  3  0  0  0  0  0  0
  194.5660  176.9690  146.0270 C   0  0  0  0  0  3  0  0  0  0  0  0
  194.1100  174.0680  145.0970 C   0  0  0  0  0  3  0  0  0  0  0  0
  192.6430  175.4730  146.5400 C   0  0  2  0  0  3  0  0  0  0  0  0
  194.5850  175.1710  144.2370 C   0  0  0  0  0  0  0  0  0  0  0  0
  194.8140  176.4220  144.6780 C   0  0  0  0  0  3  0  0  0  0  0  0
  193.6350  176.5440  146.8790 C   0  0  0  0  0  3  0  0  0  0  0  0
  194.9420  174.8260  142.8950 N   0  0  0  0  0  2  0  0  0  0  0  0
  194.2250  173.8440  142.0960 C   0  0  0  0  0  2  0  0  0  0  0  0
  193.0290  174.5030  141.4410 C   0  0  0  0  0  2  0  0  0  0  0  0
  191.7350  172.6460  142.8930 O   0  0  0  0  0  0  0  0  0  0  0  0
  190.2640  173.8710  141.0790 N   0  0  0  0  0  1  0  0  0  0  0  0
  191.5290  173.9870  142.2490 S   0  0  0  0  0  0  0  0  0  0  0  0
  191.1460  174.9930  143.2960 O   0  0  0  0  0  0  0  0  0  0  0  0
  1 17  1  0  0  0  0
  2  3  1  1  0  0  0
  2  7  1  0  0  0  0
  2  4  1  0  0  0  0
  3  5  1  0  0  0  0
  4  1  1  0  0  0  0
  5  1  2  0  0  0  0
  6 13  1  0  0  0  0
  6  7  1  0  0  0  0
  7 11  1  1  0  0  0
  8  9  1  0  0  0  0
  9 12  1  0  0  0  0
 10  8  2  0  0  0  0
 11 12  1  0  0  0  0
 13  8  1  0  0  0  0
 14  6  1  0  0  0  0
 15 16  1  0  0  0  0
 16 14  1  0  0  0  0
 18 17  1  0  0  0  0
 19 22  1  0  0  0  0
 20 25  2  0  0  0  0
 21 19  2  0  0  0  0
 22 25  1  0  0  0  0
 22 18  1  1  0  0  0
 23 24  2  0  0  0  0
 23 21  1  0  0  0  0
 24 20  1  0  0  0  0
 26 23  1  0  0  0  0
 27 26  1  0  0  0  0
 28 27  1  0  0  0  0
 28 31  1  0  0  0  0
 30 31  1  0  0  0  0
 31 29  2  0  0  0  0
 31 32  2  0  0  0  0
M  END
>  <MODEL>
9

>  <REMARK>
 VINA RESULT:      -6.1      2.493      7.802
  Name = 
  10 active torsions:
  status: ('A' for Active; 'I' for Inactive)
    1  A    between atoms: N_1  and  C_32
    2  A    between atoms: C_2  and  C_27
    3  A    between atoms: C_3  and  C_4
    4  A    between atoms: C_9  and  O_20
    5  A    between atoms: C_11  and  N_31
    6  A    between atoms: C_14  and  S_17
    7  A    between atoms: C_14  and  C_28
    8  A    between atoms: O_20  and  C_27
    9  A    between atoms: C_26  and  C_32
   10  A    between atoms: C_28  and  N_31
                            x       y       z     vdW  Elec       q    Type
                         _______ _______ _______ _____ _____    ______ ____

>  <TORSDO>
F 10

$$$$
