=
 OpenBabel11062422533D

 46 48  0  0  1  0  0  0  0  0999 V2000
  193.8140  174.9490  143.0820 C   0  0  0  0  0  2  0  0  0  0  0  0
  192.1760  176.8920  143.2000 C   0  0  0  0  0  2  0  0  0  0  0  0
  190.9680  176.1880  143.6850 N   0  0  0  0  0  0  0  0  0  0  0  0
  191.1890  175.4420  144.9420 C   0  0  1  0  0  3  0  0  0  0  0  0
  192.8320  174.0720  143.7040 N   0  0  2  0  0  0  0  0  0  0  0  0
  193.0960  176.0450  142.3030 C   0  0  0  0  0  2  0  0  0  0  0  0
  192.5000  174.6440  145.0070 C   0  0  0  0  0  2  0  0  0  0  0  0
  193.3780  172.7120  143.8000 C   0  0  2  0  0  3  0  0  0  0  0  0
  193.5030  170.0210  144.5290 N   0  0  0  0  0  0  0  0  0  0  0  0
  194.1910  170.8600  145.2470 C   0  0  0  0  0  3  0  0  0  0  0  0
  192.3920  171.6990  143.2760 C   0  0  0  0  0  0  0  0  0  0  0  0
  193.8900  172.3270  145.1980 C   0  0  0  0  0  2  0  0  0  0  0  0
  192.5100  170.4510  143.6250 N   0  0  0  0  0  0  0  0  0  0  0  0
  191.3910  172.1250  142.3890 O   0  0  0  0  0  0  0  0  0  0  0  0
  190.5580  171.0930  140.3850 C   0  0  0  0  0  3  0  0  0  0  0  0
  190.4930  170.9950  138.9940 C   0  0  0  0  0  3  0  0  0  0  0  0
  192.2040  172.8520  140.1840 C   0  0  0  0  0  3  0  0  0  0  0  0
  191.2820  171.8260  138.1930 C   0  0  0  0  0  0  0  0  0  0  0  0
  191.4070  172.0260  140.9910 C   0  0  0  0  0  0  0  0  0  0  0  0
  192.1400  172.7520  138.7920 C   0  0  0  0  0  3  0  0  0  0  0  0
  189.9110  170.9810  136.0670 O   0  0  0  0  0  0  0  0  0  0  0  0
  192.3440  171.0470  135.8630 O   0  0  0  0  0  0  0  0  0  0  0  0
  191.1510  171.7510  136.4450 S   0  0  0  0  0  0  0  0  0  0  0  0
  191.0250  173.3570  135.7980 N   0  0  0  0  0  2  0  0  0  0  0  0
  189.9430  174.2500  136.0800 C   0  0  0  0  0  0  0  0  0  0  0  0
  189.8890  175.3590  135.4890 O   0  0  0  0  0  0  0  0  0  0  0  0
  187.9400  174.9310  137.1240 O   0  0  0  0  0  1  0  0  0  0  0  0
  188.8940  173.9130  137.0850 C   0  0  0  0  0  2  0  0  0  0  0  0
  191.1480  176.3860  146.1340 C   0  0  0  0  0  2  0  0  0  0  0  0
  190.6080  175.7140  147.3500 C   0  0  0  0  0  0  0  0  0  0  0  0
  191.1850  175.8250  148.4190 O   0  0  0  0  0  0  0  0  0  0  0  0
  189.3310  174.9500  147.2730 C   0  0  0  0  0  1  0  0  0  0  0  0
  190.3790  175.2970  142.6830 C   0  0  0  0  0  2  0  0  0  0  0  0
  188.9350  174.9710  143.0290 C   0  0  0  0  0  2  0  0  0  0  0  0
  188.8360  174.4330  140.6080 C   0  0  0  0  0  1  0  0  0  0  0  0
  188.0580  174.9980  141.7840 C   0  0  2  0  0  3  0  0  0  0  0  0
  187.5870  176.3890  141.4690 C   0  0  0  0  0  0  0  0  0  0  0  0
  186.9060  176.5910  140.4720 O   0  0  0  0  0  0  0  0  0  0  0  0
  187.9170  177.5150  142.4100 C   0  0  1  0  0  3  0  0  0  0  0  0
  188.8220  178.3880  141.8060 O   0  0  0  0  0  1  0  0  0  0  0  0
  186.7480  178.2200  142.7680 O   0  0  0  0  0  0  0  0  0  0  0  0
  186.5060  178.1080  144.1610 C   0  0  0  0  0  0  0  0  0  0  0  0
  185.9240  179.4290  144.6410 C   0  0  0  0  0  1  0  0  0  0  0  0
  187.8040  177.8930  144.9390 C   0  0  0  0  0  1  0  0  0  0  0  0
  185.4260  176.7230  146.0060 C   0  0  0  0  0  1  0  0  0  0  0  0
  185.5140  176.9830  144.5060 C   0  0  0  0  0  2  0  0  0  0  0  0
  2  3  1  0  0  0  0
  3  4  1  0  0  0  0
  4  7  1  0  0  0  0
  4 29  1  1  0  0  0
  5  1  1  1  0  0  0
  5  8  1  0  0  0  0
  5  7  1  0  0  0  0
  6  1  1  0  0  0  0
  6  2  1  0  0  0  0
  8 12  1  1  0  0  0
  9 10  2  0  0  0  0
 11 13  2  0  0  0  0
 11  8  1  0  0  0  0
 12 10  1  0  0  0  0
 13  9  1  0  0  0  0
 14 11  1  0  0  0  0
 15 19  1  0  0  0  0
 16 15  2  0  0  0  0
 17 19  2  0  0  0  0
 18 20  2  0  0  0  0
 18 16  1  0  0  0  0
 19 14  1  0  0  0  0
 20 17  1  0  0  0  0
 21 23  2  0  0  0  0
 22 23  2  0  0  0  0
 23 18  1  0  0  0  0
 24 25  1  0  0  0  0
 24 23  1  0  0  0  0
 25 28  1  0  0  0  0
 26 25  2  0  0  0  0
 28 27  1  0  0  0  0
 29 30  1  0  0  0  0
 30 31  2  0  0  0  0
 32 30  1  0  0  0  0
 33 34  1  0  0  0  0
 33  3  1  0  0  0  0
 36 35  1  6  0  0  0
 36 34  1  0  0  0  0
 37 36  1  0  0  0  0
 37 39  1  0  0  0  0
 38 37  2  0  0  0  0
 39 40  1  6  0  0  0
 39 41  1  0  0  0  0
 41 42  1  0  0  0  0
 42 46  1  0  0  0  0
 42 43  1  0  0  0  0
 42 44  1  0  0  0  0
 46 45  1  0  0  0  0
M  END
>  <MODEL>
1

>  <REMARK>
 VINA RESULT:      -6.2      0.000      0.000
  Name = 
  16 active torsions:
  status: ('A' for Active; 'I' for Inactive)
    1  A    between atoms: C_1  and  C_8
    2  A    between atoms: C_2  and  C_17
    3  A    between atoms: C_2  and  O_21
    4  A    between atoms: O_4  and  C_35
    5  A    between atoms: O_4  and  C_39
    6  A    between atoms: C_5  and  O_21
    7  A    between atoms: C_5  and  C_38
    8  A    between atoms: C_8  and  C_12
    9  A    between atoms: N_10  and  S_25
   10  A    between atoms: N_11  and  C_30
   11  A    between atoms: N_14  and  C_28
   12  A    between atoms: C_16  and  C_40
   13  A    between atoms: C_17  and  C_34
   14  A    between atoms: C_24  and  C_30
   15  A    between atoms: C_24  and  C_34
   16  A    between atoms: S_25  and  C_32
                            x       y       z     vdW  Elec       q    Type
                         _______ _______ _______ _____ _____    ______ ____

>  <TORSDO>
F 16

$$$$
=
 OpenBabel11062422533D

 46 48  0  0  1  0  0  0  0  0999 V2000
  193.2780  172.0940  144.6660 C   0  0  0  0  0  2  0  0  0  0  0  0
  192.3970  171.0050  142.5430 C   0  0  0  0  0  2  0  0  0  0  0  0
  192.0780  172.2080  141.7430 N   0  0  0  0  0  0  0  0  0  0  0  0
  193.2250  173.1260  141.5800 C   0  0  1  0  0  3  0  0  0  0  0  0
  193.2030  173.4050  144.0360 N   0  0  2  0  0  0  0  0  0  0  0  0
  192.2210  171.1770  144.0620 C   0  0  0  0  0  2  0  0  0  0  0  0
  194.0560  173.3670  142.8500 C   0  0  0  0  0  2  0  0  0  0  0  0
  193.6090  174.4380  144.9980 C   0  0  2  0  0  3  0  0  0  0  0  0
  194.1330  176.9980  145.9750 N   0  0  0  0  0  0  0  0  0  0  0  0
  195.1540  176.3000  145.5700 C   0  0  0  0  0  3  0  0  0  0  0  0
  192.5140  175.4570  145.1840 C   0  0  0  0  0  0  0  0  0  0  0  0
  194.9560  175.1090  144.6830 C   0  0  0  0  0  2  0  0  0  0  0  0
  192.8080  176.6290  145.6700 N   0  0  0  0  0  0  0  0  0  0  0  0
  191.1950  175.1010  144.8650 O   0  0  0  0  0  0  0  0  0  0  0  0
  189.5070  176.8030  144.7030 C   0  0  0  0  0  3  0  0  0  0  0  0
  188.3100  177.3850  145.1250 C   0  0  0  0  0  3  0  0  0  0  0  0
  189.3300  175.1600  146.4680 C   0  0  0  0  0  3  0  0  0  0  0  0
  187.6180  176.8560  146.2180 C   0  0  0  0  0  0  0  0  0  0  0  0
  190.0220  175.6820  145.3650 C   0  0  0  0  0  0  0  0  0  0  0  0
  188.1330  175.7450  146.8910 C   0  0  0  0  0  3  0  0  0  0  0  0
  186.0870  177.7830  148.1950 O   0  0  0  0  0  0  0  0  0  0  0  0
  184.9590  176.5980  146.3830 O   0  0  0  0  0  0  0  0  0  0  0  0
  186.0790  177.5450  146.7070 S   0  0  0  0  0  0  0  0  0  0  0  0
  185.8360  179.0630  145.9020 N   0  0  0  0  0  2  0  0  0  0  0  0
  185.4020  179.1890  144.5440 C   0  0  0  0  0  0  0  0  0  0  0  0
  185.3470  180.3290  144.0160 O   0  0  0  0  0  0  0  0  0  0  0  0
  184.9140  178.3430  142.3960 O   0  0  0  0  0  1  0  0  0  0  0  0
  184.9790  178.0000  143.7480 C   0  0  0  0  0  2  0  0  0  0  0  0
  194.1590  172.6200  140.4910 C   0  0  0  0  0  2  0  0  0  0  0  0
  194.4180  173.6640  139.4590 C   0  0  0  0  0  0  0  0  0  0  0  0
  194.0000  174.8000  139.6190 O   0  0  0  0  0  0  0  0  0  0  0  0
  195.2350  173.3370  138.2580 C   0  0  0  0  0  1  0  0  0  0  0  0
  190.9260  172.9520  142.2560 C   0  0  0  0  0  2  0  0  0  0  0  0
  190.6800  174.2080  141.4350 C   0  0  0  0  0  2  0  0  0  0  0  0
  188.5100  173.7810  142.5620 C   0  0  0  0  0  1  0  0  0  0  0  0
  189.2330  174.6670  141.5630 C   0  0  2  0  0  3  0  0  0  0  0  0
  188.5230  174.6350  140.2400 C   0  0  0  0  0  0  0  0  0  0  0  0
  187.7560  175.5400  139.9370 O   0  0  0  0  0  0  0  0  0  0  0  0
  188.8000  173.5140  139.2770 C   0  0  1  0  0  3  0  0  0  0  0  0
  187.8440  172.5100  139.4300 O   0  0  0  0  0  1  0  0  0  0  0  0
  188.7780  173.9860  137.9470 O   0  0  0  0  0  0  0  0  0  0  0  0
  189.8670  173.4520  137.2110 C   0  0  0  0  0  0  0  0  0  0  0  0
  190.3450  174.5220  136.2410 C   0  0  0  0  0  1  0  0  0  0  0  0
  189.4360  172.2540  136.3650 C   0  0  0  0  0  1  0  0  0  0  0  0
  191.5760  171.6500  137.7750 C   0  0  0  0  0  1  0  0  0  0  0  0
  191.0490  173.0410  138.1070 C   0  0  0  0  0  2  0  0  0  0  0  0
  2  6  1  0  0  0  0
  3 33  1  0  0  0  0
  3  2  1  0  0  0  0
  4 29  1  6  0  0  0
  4  3  1  0  0  0  0
  4  7  1  0  0  0  0
  5  7  1  6  0  0  0
  5  1  1  0  0  0  0
  5  8  1  0  0  0  0
  6  1  1  0  0  0  0
  8 12  1  6  0  0  0
  8 11  1  0  0  0  0
 10  9  2  0  0  0  0
 11 13  2  0  0  0  0
 12 10  1  0  0  0  0
 13  9  1  0  0  0  0
 14 11  1  0  0  0  0
 14 19  1  0  0  0  0
 15 16  2  0  0  0  0
 15 19  1  0  0  0  0
 16 18  1  0  0  0  0
 17 20  1  0  0  0  0
 18 23  1  0  0  0  0
 18 20  2  0  0  0  0
 19 17  2  0  0  0  0
 22 23  2  0  0  0  0
 23 21  2  0  0  0  0
 24 23  1  0  0  0  0
 25 24  1  0  0  0  0
 26 25  2  0  0  0  0
 27 28  1  0  0  0  0
 28 25  1  0  0  0  0
 30 31  2  0  0  0  0
 30 29  1  0  0  0  0
 32 30  1  0  0  0  0
 34 36  1  0  0  0  0
 34 33  1  0  0  0  0
 36 35  1  1  0  0  0
 37 36  1  0  0  0  0
 38 37  2  0  0  0  0
 39 40  1  6  0  0  0
 39 37  1  0  0  0  0
 41 39  1  0  0  0  0
 42 41  1  0  0  0  0
 42 46  1  0  0  0  0
 43 42  1  0  0  0  0
 44 42  1  0  0  0  0
 45 46  1  0  0  0  0
M  END
>  <MODEL>
2

>  <REMARK>
 VINA RESULT:      -6.1      3.025      7.807
  Name = 
  16 active torsions:
  status: ('A' for Active; 'I' for Inactive)
    1  A    between atoms: C_1  and  C_8
    2  A    between atoms: C_2  and  C_17
    3  A    between atoms: C_2  and  O_21
    4  A    between atoms: O_4  and  C_35
    5  A    between atoms: O_4  and  C_39
    6  A    between atoms: C_5  and  O_21
    7  A    between atoms: C_5  and  C_38
    8  A    between atoms: C_8  and  C_12
    9  A    between atoms: N_10  and  S_25
   10  A    between atoms: N_11  and  C_30
   11  A    between atoms: N_14  and  C_28
   12  A    between atoms: C_16  and  C_40
   13  A    between atoms: C_17  and  C_34
   14  A    between atoms: C_24  and  C_30
   15  A    between atoms: C_24  and  C_34
   16  A    between atoms: S_25  and  C_32
                            x       y       z     vdW  Elec       q    Type
                         _______ _______ _______ _____ _____    ______ ____

>  <TORSDO>
F 16

$$$$
=
 OpenBabel11062422533D

 46 48  0  0  1  0  0  0  0  0999 V2000
  195.8320  172.2110  145.1430 C   0  0  0  0  0  2  0  0  0  0  0  0
  193.9460  170.5350  144.8140 C   0  0  0  0  0  2  0  0  0  0  0  0
  193.1030  171.2750  143.8490 N   0  0  0  0  0  0  0  0  0  0  0  0
  193.8300  171.6880  142.6300 C   0  0  1  0  0  3  0  0  0  0  0  0
  195.2750  173.0570  144.0970 N   0  0  2  0  0  0  0  0  0  0  0  0
  194.7110  171.4240  145.8120 C   0  0  0  0  0  2  0  0  0  0  0  0
  195.2350  172.2630  142.8700 C   0  0  0  0  0  2  0  0  0  0  0  0
  196.0870  174.2740  143.9630 C   0  0  2  0  0  3  0  0  0  0  0  0
  196.6850  176.9280  143.3440 N   0  0  0  0  0  0  0  0  0  0  0  0
  197.0360  176.0250  142.4740 C   0  0  0  0  0  3  0  0  0  0  0  0
  195.4560  175.4240  144.7040 C   0  0  0  0  0  0  0  0  0  0  0  0
  196.4280  174.6570  142.5130 C   0  0  0  0  0  2  0  0  0  0  0  0
  195.7900  176.6440  144.3950 N   0  0  0  0  0  0  0  0  0  0  0  0
  194.5500  175.1480  145.7390 O   0  0  0  0  0  0  0  0  0  0  0  0
  192.4350  175.0640  146.8760 C   0  0  0  0  0  3  0  0  0  0  0  0
  191.1050  175.4640  147.0200 C   0  0  0  0  0  3  0  0  0  0  0  0
  192.6190  176.3990  144.8690 C   0  0  0  0  0  3  0  0  0  0  0  0
  190.5280  176.3340  146.0910 C   0  0  0  0  0  0  0  0  0  0  0  0
  193.2040  175.5330  145.8050 C   0  0  0  0  0  0  0  0  0  0  0  0
  191.2870  176.7970  145.0130 C   0  0  0  0  0  3  0  0  0  0  0  0
  188.8430  177.9440  147.3870 O   0  0  0  0  0  0  0  0  0  0  0  0
  187.9940  175.7510  146.7300 O   0  0  0  0  0  0  0  0  0  0  0  0
  188.8780  176.8910  146.3090 S   0  0  0  0  0  0  0  0  0  0  0  0
  188.2970  177.5890  144.8310 N   0  0  0  0  0  2  0  0  0  0  0  0
  186.9780  178.1190  144.6600 C   0  0  0  0  0  0  0  0  0  0  0  0
  186.6150  178.5160  143.5230 O   0  0  0  0  0  0  0  0  0  0  0  0
  185.1250  177.1830  145.7810 O   0  0  0  0  0  1  0  0  0  0  0  0
  186.0330  178.2430  145.8070 C   0  0  0  0  0  2  0  0  0  0  0  0
  193.9540  170.5200  141.6640 C   0  0  0  0  0  2  0  0  0  0  0  0
  194.7950  170.8690  140.4840 C   0  0  0  0  0  0  0  0  0  0  0  0
  195.8670  170.3120  140.3090 O   0  0  0  0  0  0  0  0  0  0  0  0
  194.3010  171.8580  139.4850 C   0  0  0  0  0  1  0  0  0  0  0  0
  192.4360  172.4380  144.4390 C   0  0  0  0  0  2  0  0  0  0  0  0
  191.5990  173.1690  143.4010 C   0  0  0  0  0  2  0  0  0  0  0  0
  189.6720  172.2340  144.6540 C   0  0  0  0  0  1  0  0  0  0  0  0
  190.2030  173.4620  143.9360 C   0  0  2  0  0  3  0  0  0  0  0  0
  189.2620  173.8630  142.8360 C   0  0  0  0  0  0  0  0  0  0  0  0
  188.9550  175.0400  142.6950 O   0  0  0  0  0  0  0  0  0  0  0  0
  188.7430  172.8180  141.8870 C   0  0  1  0  0  3  0  0  0  0  0  0
  187.4060  172.5400  142.1730 O   0  0  0  0  0  1  0  0  0  0  0  0
  188.8570  173.2610  140.5520 O   0  0  0  0  0  0  0  0  0  0  0  0
  189.8830  172.5510  139.8780 C   0  0  0  0  0  0  0  0  0  0  0  0
  191.0610  173.4960  139.6930 C   0  0  0  0  0  1  0  0  0  0  0  0
  189.4410  172.1230  138.4790 C   0  0  0  0  0  1  0  0  0  0  0  0
  190.7790  170.1710  139.7410 C   0  0  0  0  0  1  0  0  0  0  0  0
  190.3660  171.3160  140.6580 C   0  0  0  0  0  2  0  0  0  0  0  0
  1  6  1  0  0  0  0
  2  6  1  0  0  0  0
  3 33  1  0  0  0  0
  3  2  1  0  0  0  0
  4 29  1  6  0  0  0
  4  7  1  0  0  0  0
  4  3  1  0  0  0  0
  5  7  1  6  0  0  0
  5  1  1  0  0  0  0
  8 12  1  6  0  0  0
  8  5  1  0  0  0  0
  8 11  1  0  0  0  0
  9 13  1  0  0  0  0
 10 12  1  0  0  0  0
 10  9  2  0  0  0  0
 11 14  1  0  0  0  0
 13 11  2  0  0  0  0
 14 19  1  0  0  0  0
 15 16  1  0  0  0  0
 17 20  2  0  0  0  0
 17 19  1  0  0  0  0
 18 23  1  0  0  0  0
 18 16  2  0  0  0  0
 19 15  2  0  0  0  0
 20 18  1  0  0  0  0
 23 22  2  0  0  0  0
 23 21  2  0  0  0  0
 24 23  1  0  0  0  0
 25 24  1  0  0  0  0
 25 28  1  0  0  0  0
 26 25  2  0  0  0  0
 27 28  1  0  0  0  0
 30 29  1  0  0  0  0
 31 30  2  0  0  0  0
 32 30  1  0  0  0  0
 34 36  1  0  0  0  0
 34 33  1  0  0  0  0
 36 35  1  6  0  0  0
 37 36  1  0  0  0  0
 38 37  2  0  0  0  0
 39 40  1  1  0  0  0
 39 37  1  0  0  0  0
 41 39  1  0  0  0  0
 42 41  1  0  0  0  0
 42 46  1  0  0  0  0
 43 42  1  0  0  0  0
 44 42  1  0  0  0  0
 45 46  1  0  0  0  0
M  END
>  <MODEL>
3

>  <REMARK>
 VINA RESULT:      -6.0      3.189      7.610
  Name = 
  16 active torsions:
  status: ('A' for Active; 'I' for Inactive)
    1  A    between atoms: C_1  and  C_8
    2  A    between atoms: C_2  and  C_17
    3  A    between atoms: C_2  and  O_21
    4  A    between atoms: O_4  and  C_35
    5  A    between atoms: O_4  and  C_39
    6  A    between atoms: C_5  and  O_21
    7  A    between atoms: C_5  and  C_38
    8  A    between atoms: C_8  and  C_12
    9  A    between atoms: N_10  and  S_25
   10  A    between atoms: N_11  and  C_30
   11  A    between atoms: N_14  and  C_28
   12  A    between atoms: C_16  and  C_40
   13  A    between atoms: C_17  and  C_34
   14  A    between atoms: C_24  and  C_30
   15  A    between atoms: C_24  and  C_34
   16  A    between atoms: S_25  and  C_32
                            x       y       z     vdW  Elec       q    Type
                         _______ _______ _______ _____ _____    ______ ____

>  <TORSDO>
F 16

$$$$
=
 OpenBabel11062422533D

 46 48  0  0  1  0  0  0  0  0999 V2000
  196.0210  172.6850  144.3920 C   0  0  0  0  0  2  0  0  0  0  0  0
  194.1380  171.0850  144.9970 C   0  0  0  0  0  2  0  0  0  0  0  0
  193.0920  171.5430  144.0560 N   0  0  0  0  0  0  0  0  0  0  0  0
  193.5290  171.5340  142.6440 C   0  0  1  0  0  3  0  0  0  0  0  0
  195.2360  173.2050  143.2820 N   0  0  2  0  0  0  0  0  0  0  0  0
  195.0870  172.1920  145.4910 C   0  0  0  0  0  2  0  0  0  0  0  0
  194.9420  172.0820  142.3930 C   0  0  0  0  0  2  0  0  0  0  0  0
  195.9780  174.2820  142.6150 C   0  0  2  0  0  3  0  0  0  0  0  0
  196.3900  176.7100  141.3030 N   0  0  0  0  0  0  0  0  0  0  0  0
  196.3410  175.6400  140.5630 C   0  0  0  0  0  3  0  0  0  0  0  0
  195.7290  175.6050  143.2930 C   0  0  0  0  0  0  0  0  0  0  0  0
  195.7430  174.3750  141.0980 C   0  0  0  0  0  2  0  0  0  0  0  0
  195.9640  176.7100  142.6460 N   0  0  0  0  0  0  0  0  0  0  0  0
  195.2870  175.6110  144.6250 O   0  0  0  0  0  0  0  0  0  0  0  0
  193.6630  175.5040  146.3920 C   0  0  0  0  0  3  0  0  0  0  0  0
  192.3980  175.7860  146.9120 C   0  0  0  0  0  3  0  0  0  0  0  0
  193.0180  176.4980  144.2850 C   0  0  0  0  0  3  0  0  0  0  0  0
  191.4400  176.4250  146.1220 C   0  0  0  0  0  0  0  0  0  0  0  0
  193.9860  175.8630  145.0790 C   0  0  0  0  0  0  0  0  0  0  0  0
  191.7520  176.7770  144.8050 C   0  0  0  0  0  3  0  0  0  0  0  0
  190.0560  177.8440  147.9060 O   0  0  0  0  0  0  0  0  0  0  0  0
  189.2090  175.6190  147.3630 O   0  0  0  0  0  0  0  0  0  0  0  0
  189.8730  176.8420  146.7950 S   0  0  0  0  0  0  0  0  0  0  0  0
  188.8770  177.5510  145.5640 N   0  0  0  0  0  2  0  0  0  0  0  0
  187.4590  177.7100  145.6750 C   0  0  0  0  0  0  0  0  0  0  0  0
  186.8080  178.1460  144.6920 O   0  0  0  0  0  0  0  0  0  0  0  0
  186.6800  178.5460  147.7390 O   0  0  0  0  0  1  0  0  0  0  0  0
  186.7360  177.4000  146.9430 C   0  0  0  0  0  2  0  0  0  0  0  0
  193.4590  170.1250  142.0750 C   0  0  0  0  0  2  0  0  0  0  0  0
  192.3440  169.9820  141.0970 C   0  0  0  0  0  0  0  0  0  0  0  0
  191.8200  168.8930  140.9190 O   0  0  0  0  0  0  0  0  0  0  0  0
  191.8290  171.1780  140.3730 C   0  0  0  0  0  1  0  0  0  0  0  0
  192.5510  172.8610  144.3930 C   0  0  0  0  0  2  0  0  0  0  0  0
  191.6660  173.3870  143.2740 C   0  0  0  0  0  2  0  0  0  0  0  0
  190.1210  173.1000  145.1950 C   0  0  0  0  0  1  0  0  0  0  0  0
  190.2230  173.5320  143.7420 C   0  0  2  0  0  3  0  0  0  0  0  0
  189.2830  172.7210  142.8980 C   0  0  0  0  0  0  0  0  0  0  0  0
  189.3330  171.4980  142.9310 O   0  0  0  0  0  0  0  0  0  0  0  0
  188.2540  173.4210  142.0530 C   0  0  1  0  0  3  0  0  0  0  0  0
  187.1500  172.5900  141.8640 O   0  0  0  0  0  1  0  0  0  0  0  0
  187.8420  174.6220  142.6680 O   0  0  0  0  0  0  0  0  0  0  0  0
  187.9710  175.7120  141.7700 C   0  0  0  0  0  0  0  0  0  0  0  0
  188.2360  175.1460  140.3840 C   0  0  0  0  0  1  0  0  0  0  0  0
  189.1740  176.5870  142.1240 C   0  0  0  0  0  1  0  0  0  0  0  0
  186.8050  177.6790  140.6480 C   0  0  0  0  0  1  0  0  0  0  0  0
  186.7070  176.5880  141.7080 C   0  0  0  0  0  2  0  0  0  0  0  0
  1  6  1  0  0  0  0
  2  6  1  0  0  0  0
  3 33  1  0  0  0  0
  3  2  1  0  0  0  0
  4 29  1  1  0  0  0
  4  3  1  0  0  0  0
  5  7  1  6  0  0  0
  5  1  1  0  0  0  0
  7  4  1  0  0  0  0
  8 12  1  6  0  0  0
  8  5  1  0  0  0  0
  8 11  1  0  0  0  0
  9 13  1  0  0  0  0
 10 12  1  0  0  0  0
 10  9  2  0  0  0  0
 11 14  1  0  0  0  0
 13 11  2  0  0  0  0
 14 19  1  0  0  0  0
 15 16  1  0  0  0  0
 17 20  2  0  0  0  0
 17 19  1  0  0  0  0
 18 23  1  0  0  0  0
 18 16  2  0  0  0  0
 19 15  2  0  0  0  0
 20 18  1  0  0  0  0
 23 22  2  0  0  0  0
 23 21  2  0  0  0  0
 24 25  1  0  0  0  0
 24 23  1  0  0  0  0
 25 28  1  0  0  0  0
 26 25  2  0  0  0  0
 28 27  1  0  0  0  0
 30 29  1  0  0  0  0
 31 30  2  0  0  0  0
 32 30  1  0  0  0  0
 34 36  1  0  0  0  0
 34 33  1  0  0  0  0
 36 35  1  1  0  0  0
 37 38  2  0  0  0  0
 37 36  1  0  0  0  0
 39 40  1  1  0  0  0
 39 41  1  0  0  0  0
 39 37  1  0  0  0  0
 42 44  1  0  0  0  0
 42 41  1  0  0  0  0
 43 42  1  0  0  0  0
 45 46  1  0  0  0  0
 46 42  1  0  0  0  0
M  END
>  <MODEL>
4

>  <REMARK>
 VINA RESULT:      -6.0      3.377      7.273
  Name = 
  16 active torsions:
  status: ('A' for Active; 'I' for Inactive)
    1  A    between atoms: C_1  and  C_8
    2  A    between atoms: C_2  and  C_17
    3  A    between atoms: C_2  and  O_21
    4  A    between atoms: O_4  and  C_35
    5  A    between atoms: O_4  and  C_39
    6  A    between atoms: C_5  and  O_21
    7  A    between atoms: C_5  and  C_38
    8  A    between atoms: C_8  and  C_12
    9  A    between atoms: N_10  and  S_25
   10  A    between atoms: N_11  and  C_30
   11  A    between atoms: N_14  and  C_28
   12  A    between atoms: C_16  and  C_40
   13  A    between atoms: C_17  and  C_34
   14  A    between atoms: C_24  and  C_30
   15  A    between atoms: C_24  and  C_34
   16  A    between atoms: S_25  and  C_32
                            x       y       z     vdW  Elec       q    Type
                         _______ _______ _______ _____ _____    ______ ____

>  <TORSDO>
F 16

$$$$
=
 OpenBabel11062422533D

 46 48  0  0  1  0  0  0  0  0999 V2000
  194.4140  175.6020  143.8900 C   0  0  0  0  0  2  0  0  0  0  0  0
  192.1660  176.7880  143.7960 C   0  0  0  0  0  2  0  0  0  0  0  0
  191.2660  175.6750  144.1730 N   0  0  0  0  0  0  0  0  0  0  0  0
  191.6200  175.0460  145.4630 C   0  0  1  0  0  3  0  0  0  0  0  0
  193.7750  174.4110  144.4300 N   0  0  2  0  0  0  0  0  0  0  0  0
  193.4230  176.3610  143.0170 C   0  0  0  0  0  2  0  0  0  0  0  0
  193.1210  174.7970  145.6800 C   0  0  0  0  0  2  0  0  0  0  0  0
  194.7770  173.3530  144.6140 C   0  0  2  0  0  3  0  0  0  0  0  0
  196.1630  171.2990  145.8950 N   0  0  0  0  0  0  0  0  0  0  0  0
  196.7120  172.4790  145.9080 C   0  0  0  0  0  3  0  0  0  0  0  0
  194.1170  172.0420  144.9570 C   0  0  0  0  0  0  0  0  0  0  0  0
  195.8950  173.6990  145.6110 C   0  0  0  0  0  2  0  0  0  0  0  0
  194.8160  171.1060  145.5310 N   0  0  0  0  0  0  0  0  0  0  0  0
  192.7700  171.8510  144.6130 O   0  0  0  0  0  0  0  0  0  0  0  0
  193.1660  171.4070  142.2850 C   0  0  0  0  0  3  0  0  0  0  0  0
  192.7210  171.0290  141.0170 C   0  0  0  0  0  3  0  0  0  0  0  0
  190.9020  171.2750  143.1200 C   0  0  0  0  0  3  0  0  0  0  0  0
  191.3660  170.7710  140.7960 C   0  0  0  0  0  0  0  0  0  0  0  0
  192.2630  171.5260  143.3480 C   0  0  0  0  0  0  0  0  0  0  0  0
  190.4570  170.8990  141.8500 C   0  0  0  0  0  3  0  0  0  0  0  0
  190.5030  168.7560  139.2770 O   0  0  0  0  0  0  0  0  0  0  0  0
  191.8860  170.4490  138.1900 O   0  0  0  0  0  0  0  0  0  0  0  0
  190.8150  170.2290  139.2200 S   0  0  0  0  0  0  0  0  0  0  0  0
  189.3710  171.0860  138.7790 N   0  0  0  0  0  2  0  0  0  0  0  0
  189.3060  172.5040  138.6020 C   0  0  0  0  0  0  0  0  0  0  0  0
  188.1940  173.0480  138.3770 O   0  0  0  0  0  0  0  0  0  0  0  0
  190.5800  174.1590  137.5040 O   0  0  0  0  0  1  0  0  0  0  0  0
  190.5320  173.3530  138.6430 C   0  0  0  0  0  2  0  0  0  0  0  0
  191.1070  175.8860  146.6220 C   0  0  0  0  0  2  0  0  0  0  0  0
  189.6630  175.6320  146.8890 C   0  0  0  0  0  0  0  0  0  0  0  0
  189.2920  174.5270  147.2510 O   0  0  0  0  0  0  0  0  0  0  0  0
  188.6760  176.7420  146.7700 C   0  0  0  0  0  1  0  0  0  0  0  0
  191.1600  174.6440  143.1380 C   0  0  0  0  0  2  0  0  0  0  0  0
  190.1990  175.0740  142.0410 C   0  0  0  0  0  2  0  0  0  0  0  0
  188.0480  173.8360  142.0150 C   0  0  0  0  0  1  0  0  0  0  0  0
  188.7610  175.0690  142.5430 C   0  0  2  0  0  3  0  0  0  0  0  0
  188.0240  176.3080  142.1240 C   0  0  0  0  0  0  0  0  0  0  0  0
  187.6810  176.4490  140.9570 O   0  0  0  0  0  0  0  0  0  0  0  0
  187.6710  177.3450  143.1550 C   0  0  1  0  0  3  0  0  0  0  0  0
  188.8270  177.9830  143.6030 O   0  0  0  0  0  1  0  0  0  0  0  0
  186.7850  178.3010  142.6120 O   0  0  0  0  0  0  0  0  0  0  0  0
  185.5530  178.2940  143.3150 C   0  0  0  0  0  0  0  0  0  0  0  0
  185.5590  177.0990  144.2560 C   0  0  0  0  0  1  0  0  0  0  0  0
  184.3700  178.1000  142.3670 C   0  0  0  0  0  1  0  0  0  0  0  0
  185.6890  179.3770  145.6160 C   0  0  0  0  0  1  0  0  0  0  0  0
  185.3330  179.5700  144.1470 C   0  0  0  0  0  2  0  0  0  0  0  0
  2  3  1  0  0  0  0
  3  4  1  0  0  0  0
  4  7  1  0  0  0  0
  4 29  1  1  0  0  0
  5  1  1  1  0  0  0
  5  8  1  0  0  0  0
  5  7  1  0  0  0  0
  6  2  1  0  0  0  0
  6  1  1  0  0  0  0
  8 11  1  0  0  0  0
  8 12  1  1  0  0  0
  9 10  2  0  0  0  0
 11 13  2  0  0  0  0
 12 10  1  0  0  0  0
 13  9  1  0  0  0  0
 14 11  1  0  0  0  0
 15 19  1  0  0  0  0
 16 15  2  0  0  0  0
 17 19  2  0  0  0  0
 18 16  1  0  0  0  0
 18 20  2  0  0  0  0
 19 14  1  0  0  0  0
 20 17  1  0  0  0  0
 22 23  2  0  0  0  0
 23 21  2  0  0  0  0
 23 18  1  0  0  0  0
 24 23  1  0  0  0  0
 25 28  1  0  0  0  0
 25 24  1  0  0  0  0
 26 25  2  0  0  0  0
 27 28  1  0  0  0  0
 29 30  1  0  0  0  0
 30 31  2  0  0  0  0
 32 30  1  0  0  0  0
 33  3  1  0  0  0  0
 34 36  1  0  0  0  0
 34 33  1  0  0  0  0
 36 35  1  6  0  0  0
 37 36  1  0  0  0  0
 37 39  1  0  0  0  0
 38 37  2  0  0  0  0
 39 40  1  6  0  0  0
 41 39  1  0  0  0  0
 41 42  1  0  0  0  0
 42 46  1  0  0  0  0
 42 43  1  0  0  0  0
 44 42  1  0  0  0  0
 46 45  1  0  0  0  0
M  END
>  <MODEL>
5

>  <REMARK>
 VINA RESULT:      -6.0      1.819      2.438
  Name = 
  16 active torsions:
  status: ('A' for Active; 'I' for Inactive)
    1  A    between atoms: C_1  and  C_8
    2  A    between atoms: C_2  and  C_17
    3  A    between atoms: C_2  and  O_21
    4  A    between atoms: O_4  and  C_35
    5  A    between atoms: O_4  and  C_39
    6  A    between atoms: C_5  and  O_21
    7  A    between atoms: C_5  and  C_38
    8  A    between atoms: C_8  and  C_12
    9  A    between atoms: N_10  and  S_25
   10  A    between atoms: N_11  and  C_30
   11  A    between atoms: N_14  and  C_28
   12  A    between atoms: C_16  and  C_40
   13  A    between atoms: C_17  and  C_34
   14  A    between atoms: C_24  and  C_30
   15  A    between atoms: C_24  and  C_34
   16  A    between atoms: S_25  and  C_32
                            x       y       z     vdW  Elec       q    Type
                         _______ _______ _______ _____ _____    ______ ____

>  <TORSDO>
F 16

$$$$
=
 OpenBabel11062422533D

 46 48  0  0  1  0  0  0  0  0999 V2000
  195.1010  175.2900  144.6390 C   0  0  0  0  0  2  0  0  0  0  0  0
  193.1380  176.9010  144.8020 C   0  0  0  0  0  2  0  0  0  0  0  0
  192.0130  175.9400  144.8510 N   0  0  0  0  0  0  0  0  0  0  0  0
  192.1370  174.9480  145.9400 C   0  0  1  0  0  3  0  0  0  0  0  0
  194.2020  174.1610  144.8310 N   0  0  2  0  0  0  0  0  0  0  0  0
  194.3460  176.4330  143.9700 C   0  0  0  0  0  2  0  0  0  0  0  0
  193.5390  174.3460  146.1210 C   0  0  0  0  0  2  0  0  0  0  0  0
  194.9630  172.9070  144.7550 C   0  0  2  0  0  3  0  0  0  0  0  0
  195.4770  170.2250  144.1840 N   0  0  0  0  0  0  0  0  0  0  0  0
  195.1660  170.5170  145.4140 C   0  0  0  0  0  3  0  0  0  0  0  0
  195.0060  172.3890  143.3410 C   0  0  0  0  0  0  0  0  0  0  0  0
  194.5000  171.8190  145.7390 C   0  0  0  0  0  2  0  0  0  0  0  0
  195.2770  171.1340  143.1270 N   0  0  0  0  0  0  0  0  0  0  0  0
  194.7900  173.2870  142.2840 O   0  0  0  0  0  0  0  0  0  0  0  0
  192.5940  172.5150  141.6920 C   0  0  0  0  0  3  0  0  0  0  0  0
  191.4810  172.5150  140.8480 C   0  0  0  0  0  3  0  0  0  0  0  0
  193.7340  174.0270  140.1890 C   0  0  0  0  0  3  0  0  0  0  0  0
  191.4910  173.2710  139.6730 C   0  0  0  0  0  0  0  0  0  0  0  0
  193.7250  173.2760  141.3740 C   0  0  0  0  0  0  0  0  0  0  0  0
  192.6210  174.0240  139.3440 C   0  0  0  0  0  3  0  0  0  0  0  0
  190.4300  173.9440  137.3200 O   0  0  0  0  0  0  0  0  0  0  0  0
  188.9970  174.1650  139.2850 O   0  0  0  0  0  0  0  0  0  0  0  0
  190.0680  173.3260  138.6470 S   0  0  0  0  0  0  0  0  0  0  0  0
  189.4850  171.7150  138.3680 N   0  0  0  0  0  2  0  0  0  0  0  0
  190.2450  170.6900  137.7210 C   0  0  0  0  0  0  0  0  0  0  0  0
  189.7050  169.5810  137.4770 O   0  0  0  0  0  0  0  0  0  0  0  0
  191.7770  171.2050  136.0010 O   0  0  0  0  0  1  0  0  0  0  0  0
  191.6780  170.8930  137.3590 C   0  0  0  0  0  2  0  0  0  0  0  0
  191.7070  175.5560  147.2650 C   0  0  0  0  0  2  0  0  0  0  0  0
  190.2470  175.8570  147.2850 C   0  0  0  0  0  0  0  0  0  0  0  0
  189.4370  174.9510  147.4020 O   0  0  0  0  0  0  0  0  0  0  0  0
  189.7760  177.2690  147.2190 C   0  0  0  0  0  1  0  0  0  0  0  0
  191.7910  175.2480  143.5800 C   0  0  0  0  0  2  0  0  0  0  0  0
  190.4780  175.6830  142.9470 C   0  0  0  0  0  2  0  0  0  0  0  0
  189.6930  173.5070  143.8470 C   0  0  0  0  0  1  0  0  0  0  0  0
  189.3010  174.9490  143.5780 C   0  0  2  0  0  3  0  0  0  0  0  0
  188.0850  174.9960  142.6980 C   0  0  0  0  0  0  0  0  0  0  0  0
  187.7100  173.9840  142.1200 O   0  0  0  0  0  0  0  0  0  0  0  0
  187.3080  176.2780  142.5740 C   0  0  1  0  0  3  0  0  0  0  0  0
  187.0460  176.5460  141.2310 O   0  0  0  0  0  1  0  0  0  0  0  0
  186.0910  176.1910  143.2840 O   0  0  0  0  0  0  0  0  0  0  0  0
  185.9620  177.2780  144.1860 C   0  0  0  0  0  0  0  0  0  0  0  0
  187.3150  177.9650  144.2860 C   0  0  0  0  0  1  0  0  0  0  0  0
  185.6070  176.7990  145.5930 C   0  0  0  0  0  1  0  0  0  0  0  0
  185.2300  179.7180  144.2350 C   0  0  0  0  0  1  0  0  0  0  0  0
  184.9210  178.3140  143.7260 C   0  0  0  0  0  2  0  0  0  0  0  0
  2  3  1  0  0  0  0
  3  4  1  0  0  0  0
  4  7  1  0  0  0  0
  4 29  1  1  0  0  0
  5  1  1  1  0  0  0
  5  7  1  0  0  0  0
  6  1  1  0  0  0  0
  6  2  1  0  0  0  0
  8  5  1  0  0  0  0
  8 12  1  1  0  0  0
  9 10  2  0  0  0  0
 10 12  1  0  0  0  0
 11  8  1  0  0  0  0
 13 11  2  0  0  0  0
 13  9  1  0  0  0  0
 14 11  1  0  0  0  0
 16 15  2  0  0  0  0
 17 19  2  0  0  0  0
 18 16  1  0  0  0  0
 19 15  1  0  0  0  0
 19 14  1  0  0  0  0
 20 18  2  0  0  0  0
 20 17  1  0  0  0  0
 21 23  2  0  0  0  0
 23 22  2  0  0  0  0
 23 18  1  0  0  0  0
 24 23  1  0  0  0  0
 25 24  1  0  0  0  0
 26 25  2  0  0  0  0
 27 28  1  0  0  0  0
 28 25  1  0  0  0  0
 29 30  1  0  0  0  0
 30 31  2  0  0  0  0
 32 30  1  0  0  0  0
 33  3  1  0  0  0  0
 34 36  1  0  0  0  0
 34 33  1  0  0  0  0
 36 35  1  6  0  0  0
 37 36  1  0  0  0  0
 38 37  2  0  0  0  0
 39 40  1  6  0  0  0
 39 37  1  0  0  0  0
 39 41  1  0  0  0  0
 41 42  1  0  0  0  0
 42 43  1  0  0  0  0
 42 44  1  0  0  0  0
 46 42  1  0  0  0  0
 46 45  1  0  0  0  0
M  END
>  <MODEL>
6

>  <REMARK>
 VINA RESULT:      -5.7      1.865      2.738
  Name = 
  16 active torsions:
  status: ('A' for Active; 'I' for Inactive)
    1  A    between atoms: C_1  and  C_8
    2  A    between atoms: C_2  and  C_17
    3  A    between atoms: C_2  and  O_21
    4  A    between atoms: O_4  and  C_35
    5  A    between atoms: O_4  and  C_39
    6  A    between atoms: C_5  and  O_21
    7  A    between atoms: C_5  and  C_38
    8  A    between atoms: C_8  and  C_12
    9  A    between atoms: N_10  and  S_25
   10  A    between atoms: N_11  and  C_30
   11  A    between atoms: N_14  and  C_28
   12  A    between atoms: C_16  and  C_40
   13  A    between atoms: C_17  and  C_34
   14  A    between atoms: C_24  and  C_30
   15  A    between atoms: C_24  and  C_34
   16  A    between atoms: S_25  and  C_32
                            x       y       z     vdW  Elec       q    Type
                         _______ _______ _______ _____ _____    ______ ____

>  <TORSDO>
F 16

$$$$
=
 OpenBabel11062422533D

 46 48  0  0  1  0  0  0  0  0999 V2000
  195.9930  172.4210  145.0790 C   0  0  0  0  0  2  0  0  0  0  0  0
  194.1140  170.7340  144.7650 C   0  0  0  0  0  2  0  0  0  0  0  0
  193.2860  171.4470  143.7670 N   0  0  0  0  0  0  0  0  0  0  0  0
  194.0320  171.8290  142.5500 C   0  0  1  0  0  3  0  0  0  0  0  0
  195.4520  173.2380  144.0030 N   0  0  2  0  0  0  0  0  0  0  0  0
  194.8620  171.6490  145.7500 C   0  0  0  0  0  2  0  0  0  0  0  0
  195.4320  172.4120  142.7970 C   0  0  0  0  0  2  0  0  0  0  0  0
  196.2640  174.4520  143.8500 C   0  0  2  0  0  3  0  0  0  0  0  0
  196.8540  177.1070  143.2250 N   0  0  0  0  0  0  0  0  0  0  0  0
  197.1760  176.2060  142.3410 C   0  0  0  0  0  3  0  0  0  0  0  0
  195.6600  175.6020  144.6140 C   0  0  0  0  0  0  0  0  0  0  0  0
  196.5630  174.8400  142.3920 C   0  0  0  0  0  2  0  0  0  0  0  0
  195.9890  176.8220  144.3000 N   0  0  0  0  0  0  0  0  0  0  0  0
  194.7840  175.3250  145.6750 O   0  0  0  0  0  0  0  0  0  0  0  0
  192.7060  175.2340  146.8770 C   0  0  0  0  0  3  0  0  0  0  0  0
  191.3590  175.5720  147.0230 C   0  0  0  0  0  3  0  0  0  0  0  0
  192.7630  176.3780  144.7490 C   0  0  0  0  0  3  0  0  0  0  0  0
  190.7100  176.3150  146.0340 C   0  0  0  0  0  0  0  0  0  0  0  0
  193.4200  175.6400  145.7440 C   0  0  0  0  0  0  0  0  0  0  0  0
  191.4140  176.7140  144.8940 C   0  0  0  0  0  3  0  0  0  0  0  0
  188.9540  177.8620  147.3130 O   0  0  0  0  0  0  0  0  0  0  0  0
  188.2060  175.6250  146.6810 O   0  0  0  0  0  0  0  0  0  0  0  0
  189.0360  176.8000  146.2470 S   0  0  0  0  0  0  0  0  0  0  0  0
  188.4230  177.4550  144.7620 N   0  0  0  0  0  2  0  0  0  0  0  0
  187.0890  177.9430  144.5930 C   0  0  0  0  0  0  0  0  0  0  0  0
  186.7050  178.3100  143.4530 O   0  0  0  0  0  0  0  0  0  0  0  0
  185.4710  179.2780  145.6740 O   0  0  0  0  0  1  0  0  0  0  0  0
  186.1500  178.0610  145.7470 C   0  0  0  0  0  2  0  0  0  0  0  0
  194.1720  170.6370  141.6170 C   0  0  0  0  0  2  0  0  0  0  0  0
  194.7860  171.0250  140.3150 C   0  0  0  0  0  0  0  0  0  0  0  0
  195.8530  170.5430  139.9720 O   0  0  0  0  0  0  0  0  0  0  0  0
  194.0690  171.9620  139.4040 C   0  0  0  0  0  1  0  0  0  0  0  0
  192.6080  172.6230  144.3160 C   0  0  0  0  0  2  0  0  0  0  0  0
  191.9050  173.4070  143.2190 C   0  0  0  0  0  2  0  0  0  0  0  0
  190.0340  172.7870  144.7270 C   0  0  0  0  0  1  0  0  0  0  0  0
  190.3930  173.2600  143.3290 C   0  0  2  0  0  3  0  0  0  0  0  0
  189.8530  172.3010  142.3070 C   0  0  0  0  0  0  0  0  0  0  0  0
  190.1150  171.1080  142.3920 O   0  0  0  0  0  0  0  0  0  0  0  0
  188.9560  172.8110  141.2140 C   0  0  1  0  0  3  0  0  0  0  0  0
  187.8230  173.4070  141.7680 O   0  0  0  0  0  1  0  0  0  0  0  0
  189.6370  173.7500  140.4100 O   0  0  0  0  0  0  0  0  0  0  0  0
  189.5200  173.4100  139.0380 C   0  0  0  0  0  0  0  0  0  0  0  0
  188.3720  174.2200  138.4530 C   0  0  0  0  0  1  0  0  0  0  0  0
  189.1560  171.9370  138.8560 C   0  0  0  0  0  1  0  0  0  0  0  0
  190.9950  172.7650  137.0640 C   0  0  0  0  0  1  0  0  0  0  0  0
  190.7960  173.7210  138.2350 C   0  0  0  0  0  2  0  0  0  0  0  0
  1  6  1  0  0  0  0
  2  6  1  0  0  0  0
  3 33  1  0  0  0  0
  3  2  1  0  0  0  0
  4 29  1  6  0  0  0
  4  7  1  0  0  0  0
  4  3  1  0  0  0  0
  5  7  1  6  0  0  0
  5  1  1  0  0  0  0
  8 12  1  6  0  0  0
  8  5  1  0  0  0  0
  8 11  1  0  0  0  0
  9 13  1  0  0  0  0
 10 12  1  0  0  0  0
 10  9  2  0  0  0  0
 11 14  1  0  0  0  0
 13 11  2  0  0  0  0
 14 19  1  0  0  0  0
 15 16  1  0  0  0  0
 17 20  2  0  0  0  0
 17 19  1  0  0  0  0
 18 23  1  0  0  0  0
 18 16  2  0  0  0  0
 19 15  2  0  0  0  0
 20 18  1  0  0  0  0
 23 22  2  0  0  0  0
 23 21  2  0  0  0  0
 24 23  1  0  0  0  0
 25 24  1  0  0  0  0
 25 28  1  0  0  0  0
 26 25  2  0  0  0  0
 27 28  1  0  0  0  0
 30 29  1  0  0  0  0
 31 30  2  0  0  0  0
 32 30  1  0  0  0  0
 34 36  1  0  0  0  0
 34 33  1  0  0  0  0
 36 35  1  1  0  0  0
 37 38  2  0  0  0  0
 37 36  1  0  0  0  0
 39 40  1  1  0  0  0
 39 37  1  0  0  0  0
 41 39  1  0  0  0  0
 42 41  1  0  0  0  0
 43 42  1  0  0  0  0
 44 42  1  0  0  0  0
 45 46  1  0  0  0  0
 46 42  1  0  0  0  0
M  END
>  <MODEL>
7

>  <REMARK>
 VINA RESULT:      -5.7      3.142      7.668
  Name = 
  16 active torsions:
  status: ('A' for Active; 'I' for Inactive)
    1  A    between atoms: C_1  and  C_8
    2  A    between atoms: C_2  and  C_17
    3  A    between atoms: C_2  and  O_21
    4  A    between atoms: O_4  and  C_35
    5  A    between atoms: O_4  and  C_39
    6  A    between atoms: C_5  and  O_21
    7  A    between atoms: C_5  and  C_38
    8  A    between atoms: C_8  and  C_12
    9  A    between atoms: N_10  and  S_25
   10  A    between atoms: N_11  and  C_30
   11  A    between atoms: N_14  and  C_28
   12  A    between atoms: C_16  and  C_40
   13  A    between atoms: C_17  and  C_34
   14  A    between atoms: C_24  and  C_30
   15  A    between atoms: C_24  and  C_34
   16  A    between atoms: S_25  and  C_32
                            x       y       z     vdW  Elec       q    Type
                         _______ _______ _______ _____ _____    ______ ____

>  <TORSDO>
F 16

$$$$
=
 OpenBabel11062422533D

 46 48  0  0  1  0  0  0  0  0999 V2000
  194.4100  176.4570  145.7130 C   0  0  0  0  0  2  0  0  0  0  0  0
  192.6880  174.9810  146.8640 C   0  0  0  0  0  2  0  0  0  0  0  0
  192.1220  174.2750  145.6920 N   0  0  0  0  0  0  0  0  0  0  0  0
  193.1410  173.5790  144.8790 C   0  0  1  0  0  3  0  0  0  0  0  0
  194.1420  175.7970  144.4440 N   0  0  2  0  0  0  0  0  0  0  0  0
  193.1580  176.4190  146.5820 C   0  0  0  0  0  2  0  0  0  0  0  0
  194.4300  174.3750  144.6230 C   0  0  0  0  0  2  0  0  0  0  0  0
  194.9520  176.4150  143.3860 C   0  0  2  0  0  3  0  0  0  0  0  0
  196.5320  176.5600  141.0910 N   0  0  0  0  0  0  0  0  0  0  0  0
  197.1510  176.5810  142.2360 C   0  0  0  0  0  3  0  0  0  0  0  0
  194.4070  176.0720  142.0230 C   0  0  0  0  0  0  0  0  0  0  0  0
  196.4580  176.1190  143.4810 C   0  0  0  0  0  2  0  0  0  0  0  0
  195.1780  176.1830  140.9800 N   0  0  0  0  0  0  0  0  0  0  0  0
  193.0650  175.6790  141.9090 O   0  0  0  0  0  0  0  0  0  0  0  0
  193.5220  173.4210  141.2270 C   0  0  0  0  0  3  0  0  0  0  0  0
  193.0980  172.1360  140.8820 C   0  0  0  0  0  3  0  0  0  0  0  0
  191.2180  174.1270  141.4280 C   0  0  0  0  0  3  0  0  0  0  0  0
  191.7340  171.8420  140.8100 C   0  0  0  0  0  0  0  0  0  0  0  0
  192.5870  174.4240  141.5100 C   0  0  0  0  0  0  0  0  0  0  0  0
  190.7950  172.8420  141.0800 C   0  0  0  0  0  3  0  0  0  0  0  0
  190.4400  169.6550  141.6200 O   0  0  0  0  0  0  0  0  0  0  0  0
  192.3830  169.3220  140.1800 O   0  0  0  0  0  0  0  0  0  0  0  0
  191.2000  170.2100  140.4430 S   0  0  0  0  0  0  0  0  0  0  0  0
  190.1480  170.2360  139.0630 N   0  0  0  0  0  2  0  0  0  0  0  0
  190.5440  170.6840  137.7630 C   0  0  0  0  0  0  0  0  0  0  0  0
  189.6860  170.7570  136.8470 O   0  0  0  0  0  0  0  0  0  0  0  0
  192.0440  171.5640  136.1680 O   0  0  0  0  0  1  0  0  0  0  0  0
  191.9620  171.0340  137.4570 C   0  0  0  0  0  2  0  0  0  0  0  0
  193.5220  172.2550  145.5240 C   0  0  0  0  0  2  0  0  0  0  0  0
  193.5360  171.1440  144.5310 C   0  0  0  0  0  0  0  0  0  0  0  0
  192.4910  170.6170  144.1850 O   0  0  0  0  0  0  0  0  0  0  0  0
  194.8230  170.7110  143.9170 C   0  0  0  0  0  1  0  0  0  0  0  0
  191.3160  175.1430  144.8310 C   0  0  0  0  0  2  0  0  0  0  0  0
  189.8910  175.2510  145.3500 C   0  0  0  0  0  2  0  0  0  0  0  0
  190.2790  177.5790  144.5810 C   0  0  0  0  0  1  0  0  0  0  0  0
  189.2210  176.5200  144.8390 C   0  0  2  0  0  3  0  0  0  0  0  0
  188.2010  177.0380  145.8130 C   0  0  0  0  0  0  0  0  0  0  0  0
  188.5600  177.4600  146.9050 O   0  0  0  0  0  0  0  0  0  0  0  0
  186.7510  177.0790  145.4170 C   0  0  1  0  0  3  0  0  0  0  0  0
  185.9470  177.0430  146.5560 O   0  0  0  0  0  1  0  0  0  0  0  0
  186.4720  178.2480  144.6790 O   0  0  0  0  0  0  0  0  0  0  0  0
  185.8970  177.9200  143.4240 C   0  0  0  0  0  0  0  0  0  0  0  0
  184.4260  178.3050  143.4690 C   0  0  0  0  0  1  0  0  0  0  0  0
  185.9490  176.4160  143.1620 C   0  0  0  0  0  1  0  0  0  0  0  0
  187.8000  177.9440  141.7310 C   0  0  0  0  0  1  0  0  0  0  0  0
  186.5610  178.6630  142.2510 C   0  0  0  0  0  2  0  0  0  0  0  0
  1  6  1  0  0  0  0
  3  2  1  0  0  0  0
  4 29  1  1  0  0  0
  4  3  1  0  0  0  0
  5  7  1  1  0  0  0
  5  1  1  0  0  0  0
  6  2  1  0  0  0  0
  7  4  1  0  0  0  0
  8 12  1  6  0  0  0
  8  5  1  0  0  0  0
  9 10  2  0  0  0  0
 10 12  1  0  0  0  0
 11  8  1  0  0  0  0
 13  9  1  0  0  0  0
 13 11  2  0  0  0  0
 14 11  1  0  0  0  0
 15 19  1  0  0  0  0
 16 15  2  0  0  0  0
 17 19  2  0  0  0  0
 18 16  1  0  0  0  0
 18 20  2  0  0  0  0
 19 14  1  0  0  0  0
 20 17  1  0  0  0  0
 22 23  2  0  0  0  0
 23 18  1  0  0  0  0
 23 21  2  0  0  0  0
 24 23  1  0  0  0  0
 25 24  1  0  0  0  0
 26 25  2  0  0  0  0
 27 28  1  0  0  0  0
 28 25  1  0  0  0  0
 30 29  1  0  0  0  0
 31 30  2  0  0  0  0
 32 30  1  0  0  0  0
 33 34  1  0  0  0  0
 33  3  1  0  0  0  0
 36 35  1  1  0  0  0
 36 34  1  0  0  0  0
 36 37  1  0  0  0  0
 37 38  2  0  0  0  0
 39 37  1  0  0  0  0
 39 40  1  1  0  0  0
 41 39  1  0  0  0  0
 42 43  1  0  0  0  0
 42 41  1  0  0  0  0
 44 42  1  0  0  0  0
 45 46  1  0  0  0  0
 46 42  1  0  0  0  0
M  END
>  <MODEL>
8

>  <REMARK>
 VINA RESULT:      -5.6      2.561      4.484
  Name = 
  16 active torsions:
  status: ('A' for Active; 'I' for Inactive)
    1  A    between atoms: C_1  and  C_8
    2  A    between atoms: C_2  and  C_17
    3  A    between atoms: C_2  and  O_21
    4  A    between atoms: O_4  and  C_35
    5  A    between atoms: O_4  and  C_39
    6  A    between atoms: C_5  and  O_21
    7  A    between atoms: C_5  and  C_38
    8  A    between atoms: C_8  and  C_12
    9  A    between atoms: N_10  and  S_25
   10  A    between atoms: N_11  and  C_30
   11  A    between atoms: N_14  and  C_28
   12  A    between atoms: C_16  and  C_40
   13  A    between atoms: C_17  and  C_34
   14  A    between atoms: C_24  and  C_30
   15  A    between atoms: C_24  and  C_34
   16  A    between atoms: S_25  and  C_32
                            x       y       z     vdW  Elec       q    Type
                         _______ _______ _______ _____ _____    ______ ____

>  <TORSDO>
F 16

$$$$
=
 OpenBabel11062422533D

 46 48  0  0  1  0  0  0  0  0999 V2000
  192.8220  172.2550  144.5510 C   0  0  0  0  0  2  0  0  0  0  0  0
  192.1710  171.1710  142.3430 C   0  0  0  0  0  2  0  0  0  0  0  0
  191.9540  172.3770  141.5130 N   0  0  0  0  0  0  0  0  0  0  0  0
  193.1210  173.2830  141.4780 C   0  0  1  0  0  3  0  0  0  0  0  0
  192.8300  173.5650  143.9170 N   0  0  2  0  0  0  0  0  0  0  0  0
  191.8290  171.3470  143.8340 C   0  0  0  0  0  2  0  0  0  0  0  0
  193.8090  173.5180  142.8320 C   0  0  0  0  0  2  0  0  0  0  0  0
  193.1370  174.5950  144.9170 C   0  0  2  0  0  3  0  0  0  0  0  0
  194.2370  176.9350  145.9660 N   0  0  0  0  0  0  0  0  0  0  0  0
  194.8600  175.8220  146.2250 C   0  0  0  0  0  3  0  0  0  0  0  0
  192.7180  175.9590  144.4300 C   0  0  0  0  0  0  0  0  0  0  0  0
  194.5940  174.5960  145.4070 C   0  0  0  0  0  2  0  0  0  0  0  0
  193.2420  177.0200  144.9720 N   0  0  0  0  0  0  0  0  0  0  0  0
  191.7400  176.0490  143.4280 O   0  0  0  0  0  0  0  0  0  0  0  0
  189.6080  175.6630  144.4660 C   0  0  0  0  0  3  0  0  0  0  0  0
  188.2810  176.0230  144.7100 C   0  0  0  0  0  3  0  0  0  0  0  0
  189.8370  177.5340  142.9520 C   0  0  0  0  0  3  0  0  0  0  0  0
  187.7280  177.1390  144.0770 C   0  0  0  0  0  0  0  0  0  0  0  0
  190.3980  176.4180  143.5920 C   0  0  0  0  0  0  0  0  0  0  0  0
  188.5080  177.8920  143.1950 C   0  0  0  0  0  3  0  0  0  0  0  0
  185.1710  177.1870  143.3200 O   0  0  0  0  0  0  0  0  0  0  0  0
  185.9990  179.1290  144.5480 O   0  0  0  0  0  0  0  0  0  0  0  0
  186.0820  177.6330  144.4350 S   0  0  0  0  0  0  0  0  0  0  0  0
  185.5570  176.8880  145.9130 N   0  0  0  0  0  2  0  0  0  0  0  0
  186.0750  177.2210  147.2050 C   0  0  0  0  0  0  0  0  0  0  0  0
  185.7030  176.5600  148.2080 O   0  0  0  0  0  0  0  0  0  0  0  0
  186.3500  179.4310  147.9850 O   0  0  0  0  0  1  0  0  0  0  0  0
  187.0220  178.3580  147.3960 C   0  0  0  0  0  2  0  0  0  0  0  0
  194.1640  172.7680  140.4990 C   0  0  0  0  0  2  0  0  0  0  0  0
  194.9320  173.8820  139.8750 C   0  0  0  0  0  0  0  0  0  0  0  0
  196.0940  174.0790  140.1910 O   0  0  0  0  0  0  0  0  0  0  0  0
  194.2980  174.7240  138.8210 C   0  0  0  0  0  1  0  0  0  0  0  0
  190.7590  173.1320  141.8960 C   0  0  0  0  0  2  0  0  0  0  0  0
  190.4240  174.1850  140.8510 C   0  0  0  0  0  2  0  0  0  0  0  0
  188.1460  173.7380  141.7310 C   0  0  0  0  0  1  0  0  0  0  0  0
  188.9400  174.1560  140.5050 C   0  0  2  0  0  3  0  0  0  0  0  0
  188.6560  173.2220  139.3650 C   0  0  0  0  0  0  0  0  0  0  0  0
  188.4160  172.0420  139.5880 O   0  0  0  0  0  0  0  0  0  0  0  0
  188.6210  173.7560  137.9590 C   0  0  1  0  0  3  0  0  0  0  0  0
  187.7430  174.8360  137.8840 O   0  0  0  0  0  1  0  0  0  0  0  0
  189.9090  174.1660  137.5530 O   0  0  0  0  0  0  0  0  0  0  0  0
  190.4400  173.2640  136.5960 C   0  0  0  0  0  0  0  0  0  0  0  0
  190.6580  174.0330  135.3010 C   0  0  0  0  0  1  0  0  0  0  0  0
  189.4540  172.1410  136.2780 C   0  0  0  0  0  1  0  0  0  0  0  0
  191.6060  171.4920  138.0060 C   0  0  0  0  0  1  0  0  0  0  0  0
  191.7830  172.6520  137.0330 C   0  0  0  0  0  2  0  0  0  0  0  0
  2  6  1  0  0  0  0
  3 33  1  0  0  0  0
  3  2  1  0  0  0  0
  4 29  1  6  0  0  0
  4  3  1  0  0  0  0
  4  7  1  0  0  0  0
  5  7  1  6  0  0  0
  5  1  1  0  0  0  0
  5  8  1  0  0  0  0
  6  1  1  0  0  0  0
  8 12  1  6  0  0  0
  9 10  2  0  0  0  0
 11  8  1  0  0  0  0
 11 13  2  0  0  0  0
 12 10  1  0  0  0  0
 13  9  1  0  0  0  0
 14 19  1  0  0  0  0
 14 11  1  0  0  0  0
 15 16  1  0  0  0  0
 17 20  2  0  0  0  0
 17 19  1  0  0  0  0
 18 23  1  0  0  0  0
 18 16  2  0  0  0  0
 19 15  2  0  0  0  0
 20 18  1  0  0  0  0
 21 23  2  0  0  0  0
 23 22  2  0  0  0  0
 23 24  1  0  0  0  0
 24 25  1  0  0  0  0
 25 28  1  0  0  0  0
 25 26  2  0  0  0  0
 28 27  1  0  0  0  0
 30 31  2  0  0  0  0
 30 29  1  0  0  0  0
 32 30  1  0  0  0  0
 34 33  1  0  0  0  0
 36 34  1  0  0  0  0
 36 35  1  1  0  0  0
 37 38  2  0  0  0  0
 37 36  1  0  0  0  0
 39 40  1  1  0  0  0
 39 37  1  0  0  0  0
 41 39  1  0  0  0  0
 42 46  1  0  0  0  0
 42 41  1  0  0  0  0
 43 42  1  0  0  0  0
 44 42  1  0  0  0  0
 46 45  1  0  0  0  0
M  END
>  <MODEL>
9

>  <REMARK>
 VINA RESULT:      -5.6      2.999      7.849
  Name = 
  16 active torsions:
  status: ('A' for Active; 'I' for Inactive)
    1  A    between atoms: C_1  and  C_8
    2  A    between atoms: C_2  and  C_17
    3  A    between atoms: C_2  and  O_21
    4  A    between atoms: O_4  and  C_35
    5  A    between atoms: O_4  and  C_39
    6  A    between atoms: C_5  and  O_21
    7  A    between atoms: C_5  and  C_38
    8  A    between atoms: C_8  and  C_12
    9  A    between atoms: N_10  and  S_25
   10  A    between atoms: N_11  and  C_30
   11  A    between atoms: N_14  and  C_28
   12  A    between atoms: C_16  and  C_40
   13  A    between atoms: C_17  and  C_34
   14  A    between atoms: C_24  and  C_30
   15  A    between atoms: C_24  and  C_34
   16  A    between atoms: S_25  and  C_32
                            x       y       z     vdW  Elec       q    Type
                         _______ _______ _______ _____ _____    ______ ____

>  <TORSDO>
F 16

$$$$
