=
 OpenBabel11072409453D

 59 67  0  0  1  0  0  0  0  0999 V2000
  192.0800  176.9550  144.3200 C   0  0  0  0  0  2  0  0  0  0  0  0
  192.8510  175.6650  144.0480 C   0  0  1  0  0  3  0  0  0  0  0  0
  193.8410  174.2690  139.7090 C   0  0  2  0  0  3  0  0  0  0  0  0
  196.1340  175.3590  139.9690 C   0  0  0  0  0  2  0  0  0  0  0  0
  195.0250  174.2700  141.9910 C   0  0  2  0  0  3  0  0  0  0  0  0
  194.6880  175.5300  139.4910 C   0  0  0  0  0  2  0  0  0  0  0  0
  192.7270  174.5530  141.9160 C   0  0  0  0  0  2  0  0  0  0  0  0
  196.2910  174.3900  141.1460 C   0  0  0  0  0  2  0  0  0  0  0  0
  193.8130  173.8410  141.1890 C   0  0  1  0  0  3  0  0  0  0  0  0
  194.7330  175.4840  142.6400 O   0  0  0  0  0  0  0  0  0  0  0  0
  193.3690  175.6250  142.6630 N   0  0  0  0  0  0  0  0  0  0  0  0
  194.3280  173.1310  138.8150 C   0  0  0  0  0  2  0  0  0  0  0  0
  194.5480  170.3590  137.4200 Cl  0  0  0  0  0  0  0  0  0  0  0  0
  191.3380  172.2610  135.8620 C   0  0  0  0  0  3  0  0  0  0  0  0
  193.2990  171.5630  137.1050 C   0  0  0  0  0  0  0  0  0  0  0  0
  192.2950  171.2820  136.1640 C   0  0  0  0  0  0  0  0  0  0  0  0
  192.3570  173.7740  137.4410 C   0  0  0  0  0  3  0  0  0  0  0  0
  193.3200  172.8130  137.7560 C   0  0  0  0  0  0  0  0  0  0  0  0
  191.3670  173.5100  136.4890 C   0  0  0  0  0  0  0  0  0  0  0  0
  190.3370  174.5200  136.1830 C   0  0  0  0  0  0  0  0  0  0  0  0
  190.6200  175.5720  135.2610 N   0  0  0  0  0  2  0  0  0  0  0  0
  189.6240  176.5690  134.8990 C   0  0  0  0  0  1  0  0  0  0  0  0
  189.2010  174.4490  136.7240 O   0  0  0  0  0  0  0  0  0  0  0  0
  191.5450  168.9240  136.0860 C   0  0  0  0  0  1  0  0  0  0  0  0
  192.2600  170.0260  135.5470 O   0  0  0  0  0  0  0  0  0  0  0  0
  193.9880  176.5430  146.1510 C   0  0  0  0  0  1  0  0  0  0  0  0
  193.8740  175.3810  145.1750 C   0  0  1  0  0  3  0  0  0  0  0  0
  193.6490  174.0500  145.8920 C   0  0  0  0  0  2  0  0  0  0  0  0
  193.3900  173.0300  144.9730 O   0  0  0  0  0  0  0  0  0  0  0  0
  194.4010  172.0970  145.1990 C   0  0  0  0  0  1  0  0  0  0  0  0
  190.7040  176.9190  143.6640 C   0  0  0  0  0  2  0  0  0  0  0  0
  185.4300  178.7030  143.9160 C   0  0  0  0  0  0  0  0  0  0  0  0
  184.0830  177.5370  142.1990 F   0  0  0  0  0  0  0  0  0  0  0  0
  186.6760  178.8860  144.3850 C   0  0  0  0  0  3  0  0  0  0  0  0
  187.7450  177.9720  143.8510 C   0  0  1  0  0  3  0  0  0  0  0  0
  185.1640  177.5470  143.0160 C   0  0  0  0  0  0  0  0  0  0  0  0
  189.6300  176.2090  144.5120 C   0  0  1  0  0  0  0  0  0  0  0  0
  184.4090  179.5710  144.2740 O   0  0  0  0  0  1  0  0  0  0  0  0
  188.3480  176.9670  144.7700 C   0  0  1  0  0  0  0  0  0  0  0  0
  186.0410  176.5270  142.9980 C   0  0  0  0  0  3  0  0  0  0  0  0
  187.1550  176.5320  144.0310 C   0  0  1  0  0  0  0  0  0  0  0  0
  188.3640  175.6220  143.8810 C   0  0  2  0  0  0  0  0  0  0  0  0
  190.4680  176.1620  146.8760 O   0  0  0  0  0  1  0  0  0  0  0  0
  190.2220  174.2090  145.7160 O   0  0  0  0  0  0  0  0  0  0  0  0
  190.1260  175.4650  145.7230 C   0  0  0  0  0  0  0  0  0  0  0  0
  188.6510  175.5060  142.3790 C   0  0  0  0  0  0  0  0  0  0  0  0
  188.4110  176.4180  141.5960 O   0  0  0  0  0  0  0  0  0  0  0  0
  191.5870  169.8610  139.8500 C   0  0  0  0  0  3  0  0  0  0  0  0
  189.1320  174.1830  140.3200 C   0  0  0  0  0  2  0  0  0  0  0  0
  188.6560  173.0050  142.6000 C   0  0  2  0  0  3  0  0  0  0  0  0
  190.6640  171.9050  141.6520 N   0  0  2  0  0  0  0  0  0  0  0  0
  190.5580  172.0530  140.1690 C   0  0  1  0  0  3  0  0  0  0  0  0
  191.5390  170.8070  142.1170 C   0  0  0  0  0  2  0  0  0  0  0  0
  189.2300  174.2270  141.8550 C   0  0  2  0  0  3  0  0  0  0  0  0
  189.3520  171.6800  142.2580 C   0  0  0  0  0  2  0  0  0  0  0  0
  187.2800  172.8820  142.3880 O   0  0  0  0  0  1  0  0  0  0  0  0
  192.4380  170.2200  141.0250 C   0  0  0  0  0  2  0  0  0  0  0  0
  190.6720  170.7410  139.4420 C   0  0  0  0  0  3  0  0  0  0  0  0
  189.2960  172.7920  139.7050 C   0  0  0  0  0  2  0  0  0  0  0  0
  2  1  1  1  0  0  0
  2 27  1  0  0  0  0
  3 12  1  6  0  0  0
  3  9  1  0  0  0  0
  4  8  1  0  0  0  0
  5  8  1  6  0  0  0
  5 10  1  0  0  0  0
  6  3  1  0  0  0  0
  6  4  1  0  0  0  0
  7 11  1  0  0  0  0
  9  7  1  1  0  0  0
  9  5  1  0  0  0  0
 10 11  1  0  0  0  0
 11  2  1  0  0  0  0
 14 16  2  0  0  0  0
 14 19  1  0  0  0  0
 15 13  1  0  0  0  0
 15 18  2  0  0  0  0
 16 15  1  0  0  0  0
 17 18  1  0  0  0  0
 18 12  1  0  0  0  0
 19 17  2  0  0  0  0
 20 19  1  0  0  0  0
 20 23  2  0  0  0  0
 21 20  1  0  0  0  0
 22 21  1  0  0  0  0
 25 24  1  0  0  0  0
 25 16  1  0  0  0  0
 27 28  1  0  0  0  0
 27 26  1  1  0  0  0
 29 30  1  0  0  0  0
 29 28  1  0  0  0  0
 31  1  1  0  0  0  0
 32 38  1  0  0  0  0
 32 34  2  0  0  0  0
 33 36  1  0  0  0  0
 35 41  1  0  0  0  0
 35 34  1  1  0  0  0
 35 39  1  0  0  0  0
 36 32  1  0  0  0  0
 37 31  1  6  0  0  0
 37 39  1  0  0  0  0
 37 45  1  0  0  0  0
 40 36  2  0  0  0  0
 40 41  1  0  0  0  0
 41 39  1  0  0  0  0
 42 41  1  0  0  0  0
 42 37  1  0  0  0  0
 42 39  1  0  0  0  0
 44 45  2  0  0  0  0
 45 43  1  0  0  0  0
 46 42  1  0  0  0  0
 47 46  2  0  0  0  0
 48 57  1  0  0  0  0
 49 54  1  0  0  0  0
 51 53  1  0  0  0  0
 51 55  1  0  0  0  0
 52 51  1  0  0  0  0
 54 46  1  0  0  0  0
 54 50  1  0  0  0  0
 55 50  1  0  0  0  0
 56 50  1  0  0  0  0
 57 53  1  0  0  0  0
 58 48  2  0  0  0  0
 58 52  1  0  0  0  0
 59 52  1  0  0  0  0
 59 49  1  0  0  0  0
M  END
>  <MODEL>
1

>  <REMARK>
 VINA RESULT:      -7.0      0.000      0.000
  Name = 
  14 active torsions:
  status: ('A' for Active; 'I' for Inactive)
    1  A    between atoms: C_3  and  C_55
    2  A    between atoms: C_4  and  C_56
    3  A    between atoms: C_6  and  O_8
    4  A    between atoms: C_6  and  C_38
    5  A    between atoms: C_19  and  C_39
    6  A    between atoms: C_23  and  C_32
    7  A    between atoms: C_23  and  C_44
    8  A    between atoms: C_32  and  C_38
    9  A    between atoms: C_32  and  N_58
   10  A    between atoms: C_33  and  C_44
   11  A    between atoms: C_33  and  C_45
   12  A    between atoms: C_36  and  O_51
   13  A    between atoms: C_39  and  C_54
   14  A    between atoms: C_53  and  C_56
                            x       y       z     vdW  Elec       q    Type
                         _______ _______ _______ _____ _____    ______ ____

>  <TORSDO>
F 14

$$$$
=
 OpenBabel11072409453D

 59 67  0  0  1  0  0  0  0  0999 V2000
  194.0550  172.3010  143.5840 C   0  0  0  0  0  2  0  0  0  0  0  0
  194.0950  173.6380  144.3220 C   0  0  1  0  0  3  0  0  0  0  0  0
  190.2680  176.1460  145.2230 C   0  0  2  0  0  3  0  0  0  0  0  0
  190.0930  174.9260  147.4580 C   0  0  0  0  0  2  0  0  0  0  0  0
  192.3940  175.4540  146.4910 C   0  0  2  0  0  3  0  0  0  0  0  0
  189.6640  174.9600  145.9860 C   0  0  0  0  0  2  0  0  0  0  0  0
  192.3650  175.3060  144.1800 C   0  0  0  0  0  2  0  0  0  0  0  0
  191.4830  175.5190  147.7150 C   0  0  0  0  0  2  0  0  0  0  0  0
  191.8080  176.1440  145.2760 C   0  0  1  0  0  3  0  0  0  0  0  0
  192.6950  174.1210  146.1550 O   0  0  0  0  0  0  0  0  0  0  0  0
  192.7510  174.0400  144.7870 N   0  0  0  0  0  0  0  0  0  0  0  0
  189.7000  177.4660  145.7400 C   0  0  0  0  0  2  0  0  0  0  0  0
  187.4130  178.3330  147.6630 Cl  0  0  0  0  0  0  0  0  0  0  0  0
  185.9230  178.3510  143.9030 C   0  0  0  0  0  3  0  0  0  0  0  0
  187.2770  178.2010  145.9090 C   0  0  0  0  0  0  0  0  0  0  0  0
  186.0560  178.5160  145.2890 C   0  0  0  0  0  0  0  0  0  0  0  0
  188.2080  177.5900  143.7530 C   0  0  0  0  0  3  0  0  0  0  0  0
  188.3610  177.7480  145.1320 C   0  0  0  0  0  0  0  0  0  0  0  0
  186.9890  177.8810  143.1310 C   0  0  0  0  0  0  0  0  0  0  0  0
  186.8440  177.7390  141.6700 C   0  0  0  0  0  0  0  0  0  0  0  0
  185.5470  177.7720  141.0750 N   0  0  0  0  0  2  0  0  0  0  0  0
  185.3580  177.6740  139.6360 C   0  0  0  0  0  1  0  0  0  0  0  0
  187.8650  177.6020  140.9440 O   0  0  0  0  0  0  0  0  0  0  0  0
  184.0780  178.1410  146.7290 C   0  0  0  0  0  1  0  0  0  0  0  0
  184.9940  178.9980  146.0620 O   0  0  0  0  0  0  0  0  0  0  0  0
  195.7950  172.2660  145.6320 C   0  0  0  0  0  1  0  0  0  0  0  0
  195.2240  173.6540  145.3800 C   0  0  1  0  0  3  0  0  0  0  0  0
  196.3210  174.6810  145.0970 C   0  0  0  0  0  2  0  0  0  0  0  0
  195.8330  175.7200  144.3000 O   0  0  0  0  0  0  0  0  0  0  0  0
  196.9060  176.0550  143.4750 C   0  0  0  0  0  1  0  0  0  0  0  0
  194.3130  172.4890  142.0940 C   0  0  0  0  0  2  0  0  0  0  0  0
  188.8280  173.2630  141.4740 C   0  0  0  0  0  0  0  0  0  0  0  0
  188.4160  174.7070  139.5090 F   0  0  0  0  0  0  0  0  0  0  0  0
  189.7830  172.7450  142.2660 C   0  0  0  0  0  3  0  0  0  0  0  0
  191.2060  172.8940  141.8020 C   0  0  1  0  0  3  0  0  0  0  0  0
  189.2180  173.8250  140.1520 C   0  0  0  0  0  0  0  0  0  0  0  0
  193.4460  171.5860  141.1950 C   0  0  1  0  0  0  0  0  0  0  0  0
  187.5010  173.2640  141.8810 O   0  0  0  0  0  1  0  0  0  0  0  0
  191.9470  171.6760  141.3710 C   0  0  1  0  0  0  0  0  0  0  0  0
  190.4040  173.4700  139.6240 C   0  0  0  0  0  3  0  0  0  0  0  0
  191.1930  172.3760  140.3240 C   0  0  1  0  0  0  0  0  0  0  0  0
  192.6620  172.1470  140.0050 C   0  0  2  0  0  0  0  0  0  0  0  0
  194.7630  169.8550  139.9440 O   0  0  0  0  0  0  0  0  0  0  0  0
  193.6040  169.2660  141.8240 O   0  0  0  0  0  1  0  0  0  0  0  0
  193.9310  170.1720  141.0110 C   0  0  0  0  0  0  0  0  0  0  0  0
  193.2720  173.5210  139.7030 C   0  0  0  0  0  0  0  0  0  0  0  0
  192.9890  174.5200  140.3550 O   0  0  0  0  0  0  0  0  0  0  0  0
  197.9380  173.9330  134.7090 C   0  0  0  0  0  3  0  0  0  0  0  0
  195.2620  174.7550  138.8420 C   0  0  0  0  0  2  0  0  0  0  0  0
  193.4960  173.7390  137.2110 C   0  0  2  0  0  3  0  0  0  0  0  0
  195.7170  173.0850  136.3290 N   0  0  2  0  0  0  0  0  0  0  0  0
  196.6730  174.1390  136.7880 C   0  0  1  0  0  3  0  0  0  0  0  0
  196.1570  172.3010  135.1550 C   0  0  0  0  0  2  0  0  0  0  0  0
  194.2350  173.6440  138.5620 C   0  0  2  0  0  3  0  0  0  0  0  0
  194.4180  173.6610  135.9860 C   0  0  0  0  0  2  0  0  0  0  0  0
  192.7150  174.8970  137.1410 O   0  0  0  0  0  1  0  0  0  0  0  0
  197.6390  172.4720  134.8080 C   0  0  0  0  0  2  0  0  0  0  0  0
  197.4640  174.7390  135.6580 C   0  0  0  0  0  3  0  0  0  0  0  0
  196.0210  175.2560  137.6120 C   0  0  0  0  0  2  0  0  0  0  0  0
  2  1  1  1  0  0  0
  2 11  1  0  0  0  0
  2 27  1  0  0  0  0
  3  9  1  0  0  0  0
  3 12  1  1  0  0  0
  3  6  1  0  0  0  0
  4  8  1  0  0  0  0
  5  8  1  1  0  0  0
  6  4  1  0  0  0  0
  7 11  1  0  0  0  0
  9  7  1  6  0  0  0
  9  5  1  0  0  0  0
 10  5  1  0  0  0  0
 11 10  1  0  0  0  0
 14 16  1  0  0  0  0
 15 13  1  0  0  0  0
 16 15  2  0  0  0  0
 16 25  1  0  0  0  0
 17 18  2  0  0  0  0
 18 12  1  0  0  0  0
 18 15  1  0  0  0  0
 19 17  1  0  0  0  0
 19 14  2  0  0  0  0
 20 19  1  0  0  0  0
 21 20  1  0  0  0  0
 22 21  1  0  0  0  0
 23 20  2  0  0  0  0
 25 24  1  0  0  0  0
 27 26  1  6  0  0  0
 28 27  1  0  0  0  0
 29 28  1  0  0  0  0
 30 29  1  0  0  0  0
 31  1  1  0  0  0  0
 32 38  1  0  0  0  0
 32 34  2  0  0  0  0
 33 36  1  0  0  0  0
 35 34  1  1  0  0  0
 36 32  1  0  0  0  0
 37 39  1  0  0  0  0
 37 31  1  1  0  0  0
 39 35  1  0  0  0  0
 40 36  2  0  0  0  0
 40 41  1  0  0  0  0
 41 39  1  0  0  0  0
 41 35  1  0  0  0  0
 42 41  1  0  0  0  0
 42 37  1  0  0  0  0
 42 39  1  0  0  0  0
 43 45  2  0  0  0  0
 45 37  1  0  0  0  0
 45 44  1  0  0  0  0
 46 42  1  0  0  0  0
 46 47  2  0  0  0  0
 48 57  1  0  0  0  0
 48 58  2  0  0  0  0
 50 54  1  0  0  0  0
 51 52  1  0  0  0  0
 52 59  1  0  0  0  0
 53 51  1  0  0  0  0
 54 49  1  0  0  0  0
 54 46  1  0  0  0  0
 55 51  1  0  0  0  0
 55 50  1  0  0  0  0
 56 50  1  0  0  0  0
 57 53  1  0  0  0  0
 58 52  1  0  0  0  0
 59 49  1  0  0  0  0
M  END
>  <MODEL>
2

>  <REMARK>
 VINA RESULT:      -6.6      3.329      7.944
  Name = 
  14 active torsions:
  status: ('A' for Active; 'I' for Inactive)
    1  A    between atoms: C_3  and  C_55
    2  A    between atoms: C_4  and  C_56
    3  A    between atoms: C_6  and  O_8
    4  A    between atoms: C_6  and  C_38
    5  A    between atoms: C_19  and  C_39
    6  A    between atoms: C_23  and  C_32
    7  A    between atoms: C_23  and  C_44
    8  A    between atoms: C_32  and  C_38
    9  A    between atoms: C_32  and  N_58
   10  A    between atoms: C_33  and  C_44
   11  A    between atoms: C_33  and  C_45
   12  A    between atoms: C_36  and  O_51
   13  A    between atoms: C_39  and  C_54
   14  A    between atoms: C_53  and  C_56
                            x       y       z     vdW  Elec       q    Type
                         _______ _______ _______ _____ _____    ______ ____

>  <TORSDO>
F 14

$$$$
=
 OpenBabel11072409453D

 59 67  0  0  1  0  0  0  0  0999 V2000
  195.9130  172.8970  143.3670 C   0  0  0  0  0  2  0  0  0  0  0  0
  195.5650  174.3780  143.4970 C   0  0  1  0  0  3  0  0  0  0  0  0
  191.3890  176.1010  144.6560 C   0  0  2  0  0  3  0  0  0  0  0  0
  191.8940  175.4780  147.0780 C   0  0  0  0  0  2  0  0  0  0  0  0
  193.7910  176.2500  145.5580 C   0  0  2  0  0  3  0  0  0  0  0  0
  191.2510  175.0420  145.7560 C   0  0  0  0  0  2  0  0  0  0  0  0
  193.4490  175.5220  143.3860 C   0  0  0  0  0  2  0  0  0  0  0  0
  193.0960  176.4140  146.9080 C   0  0  0  0  0  2  0  0  0  0  0  0
  192.8620  176.4610  144.3800 C   0  0  1  0  0  3  0  0  0  0  0  0
  194.3850  174.9790  145.4470 O   0  0  0  0  0  0  0  0  0  0  0  0
  194.2500  174.5710  144.1440 N   0  0  0  0  0  0  0  0  0  0  0  0
  190.5730  177.3460  145.0000 C   0  0  0  0  0  2  0  0  0  0  0  0
  188.3800  177.4740  147.2030 Cl  0  0  0  0  0  0  0  0  0  0  0  0
  186.5150  176.9930  143.6470 C   0  0  0  0  0  3  0  0  0  0  0  0
  188.0810  177.2910  145.4740 C   0  0  0  0  0  0  0  0  0  0  0  0
  186.7570  177.2040  145.0110 C   0  0  0  0  0  0  0  0  0  0  0  0
  188.8880  176.9810  143.2060 C   0  0  0  0  0  3  0  0  0  0  0  0
  189.1500  177.1910  144.5620 C   0  0  0  0  0  0  0  0  0  0  0  0
  187.5730  176.8720  142.7410 C   0  0  0  0  0  0  0  0  0  0  0  0
  187.3040  176.6790  141.3040 C   0  0  0  0  0  0  0  0  0  0  0  0
  186.3390  177.4960  140.6420 N   0  0  0  0  0  2  0  0  0  0  0  0
  186.0680  177.3680  139.2180 C   0  0  0  0  0  1  0  0  0  0  0  0
  187.9350  175.8020  140.6550 O   0  0  0  0  0  0  0  0  0  0  0  0
  184.6090  178.2220  145.7020 C   0  0  0  0  0  1  0  0  0  0  0  0
  185.7000  177.3380  145.9180 O   0  0  0  0  0  0  0  0  0  0  0  0
  197.8040  174.2670  144.7050 C   0  0  0  0  0  1  0  0  0  0  0  0
  196.7500  175.1770  144.0910 C   0  0  1  0  0  3  0  0  0  0  0  0
  197.3610  176.1890  143.1220 C   0  0  0  0  0  2  0  0  0  0  0  0
  197.0480  175.8600  141.8010 O   0  0  0  0  0  0  0  0  0  0  0  0
  196.2230  176.9000  141.3730 C   0  0  0  0  0  1  0  0  0  0  0  0
  195.1350  172.2490  142.2280 C   0  0  0  0  0  2  0  0  0  0  0  0
  196.2770  169.2950  146.8140 C   0  0  0  0  0  0  0  0  0  0  0  0
  194.1640  168.6620  147.9340 F   0  0  0  0  0  0  0  0  0  0  0  0
  196.8060  170.0180  145.8120 C   0  0  0  0  0  3  0  0  0  0  0  0
  195.8450  170.5940  144.8080 C   0  0  1  0  0  3  0  0  0  0  0  0
  194.8170  169.0040  146.7980 C   0  0  0  0  0  0  0  0  0  0  0  0
  195.2070  170.7090  142.2240 C   0  0  1  0  0  0  0  0  0  0  0  0
  197.0820  168.8210  147.8400 O   0  0  0  0  0  1  0  0  0  0  0  0
  195.8500  170.0480  143.4220 C   0  0  1  0  0  0  0  0  0  0  0  0
  194.1470  169.1270  145.6370 C   0  0  0  0  0  3  0  0  0  0  0  0
  194.9560  169.3790  144.3750 C   0  0  1  0  0  0  0  0  0  0  0  0
  194.2820  169.8570  143.0980 C   0  0  2  0  0  0  0  0  0  0  0  0
  195.8730  170.8570  139.8100 O   0  0  0  0  0  0  0  0  0  0  0  0
  195.6960  168.8140  140.8200 O   0  0  0  0  0  1  0  0  0  0  0  0
  195.5980  170.0660  140.9200 C   0  0  0  0  0  0  0  0  0  0  0  0
  193.1290  170.7760  143.5200 C   0  0  0  0  0  0  0  0  0  0  0  0
  193.0250  171.2130  144.6610 O   0  0  0  0  0  0  0  0  0  0  0  0
  188.4690  172.7830  138.9220 C   0  0  0  0  0  3  0  0  0  0  0  0
  190.8870  171.8170  143.1810 C   0  0  0  0  0  2  0  0  0  0  0  0
  191.7550  169.9360  141.5940 C   0  0  2  0  0  3  0  0  0  0  0  0
  190.8550  171.7230  140.1320 N   0  0  2  0  0  0  0  0  0  0  0  0
  189.8090  172.4280  140.9340 C   0  0  1  0  0  3  0  0  0  0  0  0
  190.7390  171.8780  138.6650 C   0  0  0  0  0  2  0  0  0  0  0  0
  192.0890  171.1360  142.5030 C   0  0  2  0  0  3  0  0  0  0  0  0
  190.8510  170.2860  140.4020 C   0  0  0  0  0  2  0  0  0  0  0  0
  191.1860  168.8880  142.3240 O   0  0  0  0  0  1  0  0  0  0  0  0
  189.7770  172.9870  138.2290 C   0  0  0  0  0  2  0  0  0  0  0  0
  188.4840  172.5030  140.2250 C   0  0  0  0  0  3  0  0  0  0  0  0
  189.6090  171.8530  142.3420 C   0  0  0  0  0  2  0  0  0  0  0  0
  2  1  1  1  0  0  0
  2 27  1  0  0  0  0
  2 11  1  0  0  0  0
  3 12  1  1  0  0  0
  3  6  1  0  0  0  0
  5  8  1  1  0  0  0
  6  4  1  0  0  0  0
  7 11  1  0  0  0  0
  8  4  1  0  0  0  0
  9  7  1  6  0  0  0
  9  3  1  0  0  0  0
  9  5  1  0  0  0  0
 10  5  1  0  0  0  0
 11 10  1  0  0  0  0
 14 16  1  0  0  0  0
 15 13  1  0  0  0  0
 16 15  2  0  0  0  0
 16 25  1  0  0  0  0
 17 18  2  0  0  0  0
 18 12  1  0  0  0  0
 18 15  1  0  0  0  0
 19 17  1  0  0  0  0
 19 14  2  0  0  0  0
 20 19  1  0  0  0  0
 21 20  1  0  0  0  0
 22 21  1  0  0  0  0
 23 20  2  0  0  0  0
 24 25  1  0  0  0  0
 27 26  1  6  0  0  0
 28 27  1  0  0  0  0
 29 28  1  0  0  0  0
 30 29  1  0  0  0  0
 31  1  1  0  0  0  0
 32 38  1  0  0  0  0
 34 32  2  0  0  0  0
 35 34  1  1  0  0  0
 36 32  1  0  0  0  0
 36 33  1  0  0  0  0
 37 31  1  1  0  0  0
 37 42  1  0  0  0  0
 37 39  1  0  0  0  0
 39 41  1  0  0  0  0
 39 35  1  0  0  0  0
 40 36  2  0  0  0  0
 41 35  1  0  0  0  0
 41 40  1  0  0  0  0
 42 39  1  0  0  0  0
 42 46  1  0  0  0  0
 42 41  1  0  0  0  0
 43 45  2  0  0  0  0
 44 45  1  0  0  0  0
 45 37  1  0  0  0  0
 46 47  2  0  0  0  0
 48 58  2  0  0  0  0
 50 56  1  0  0  0  0
 50 54  1  0  0  0  0
 51 55  1  0  0  0  0
 51 52  1  0  0  0  0
 52 59  1  0  0  0  0
 53 51  1  0  0  0  0
 54 49  1  0  0  0  0
 54 46  1  0  0  0  0
 55 50  1  0  0  0  0
 57 53  1  0  0  0  0
 57 48  1  0  0  0  0
 58 52  1  0  0  0  0
 59 49  1  0  0  0  0
M  END
>  <MODEL>
3

>  <REMARK>
 VINA RESULT:      -6.4      3.740      8.341
  Name = 
  14 active torsions:
  status: ('A' for Active; 'I' for Inactive)
    1  A    between atoms: C_3  and  C_55
    2  A    between atoms: C_4  and  C_56
    3  A    between atoms: C_6  and  O_8
    4  A    between atoms: C_6  and  C_38
    5  A    between atoms: C_19  and  C_39
    6  A    between atoms: C_23  and  C_32
    7  A    between atoms: C_23  and  C_44
    8  A    between atoms: C_32  and  C_38
    9  A    between atoms: C_32  and  N_58
   10  A    between atoms: C_33  and  C_44
   11  A    between atoms: C_33  and  C_45
   12  A    between atoms: C_36  and  O_51
   13  A    between atoms: C_39  and  C_54
   14  A    between atoms: C_53  and  C_56
                            x       y       z     vdW  Elec       q    Type
                         _______ _______ _______ _____ _____    ______ ____

>  <TORSDO>
F 14

$$$$
=
 OpenBabel11072409453D

 59 67  0  0  1  0  0  0  0  0999 V2000
  194.7540  174.7200  139.5820 C   0  0  0  0  0  2  0  0  0  0  0  0
  194.7430  173.8110  138.3540 C   0  0  1  0  0  3  0  0  0  0  0  0
  190.1700  172.9360  138.6330 C   0  0  2  0  0  3  0  0  0  0  0  0
  190.6340  170.6280  137.6470 C   0  0  0  0  0  2  0  0  0  0  0  0
  192.3510  171.6990  139.2000 C   0  0  2  0  0  3  0  0  0  0  0  0
  190.2510  172.0840  137.3600 C   0  0  0  0  0  2  0  0  0  0  0  0
  192.4060  173.9950  138.9020 C   0  0  0  0  0  2  0  0  0  0  0  0
  191.5310  170.4520  138.8780 C   0  0  0  0  0  2  0  0  0  0  0  0
  191.4980  172.9320  139.4150 C   0  0  1  0  0  3  0  0  0  0  0  0
  193.2880  171.9650  138.1840 O   0  0  0  0  0  0  0  0  0  0  0  0
  193.3790  173.3270  138.0510 N   0  0  0  0  0  0  0  0  0  0  0  0
  189.0100  172.4790  139.5160 C   0  0  0  0  0  2  0  0  0  0  0  0
  190.1180  171.0930  142.0700 Cl  0  0  0  0  0  0  0  0  0  0  0  0
  188.9500  174.8220  143.1110 C   0  0  0  0  0  3  0  0  0  0  0  0
  189.4990  172.7430  141.9920 C   0  0  0  0  0  0  0  0  0  0  0  0
  189.5000  173.5330  143.1530 C   0  0  0  0  0  0  0  0  0  0  0  0
  188.4260  174.5460  140.7720 C   0  0  0  0  0  3  0  0  0  0  0  0
  188.9700  173.2590  140.7930 C   0  0  0  0  0  0  0  0  0  0  0  0
  188.4040  175.3310  141.9290 C   0  0  0  0  0  0  0  0  0  0  0  0
  187.8540  176.6990  141.8920 C   0  0  0  0  0  0  0  0  0  0  0  0
  186.4480  176.8990  141.7520 N   0  0  0  0  0  2  0  0  0  0  0  0
  185.8550  178.2280  141.7490 C   0  0  0  0  0  1  0  0  0  0  0  0
  188.6220  177.6920  141.9990 O   0  0  0  0  0  0  0  0  0  0  0  0
  189.3800  172.0960  145.1650 C   0  0  0  0  0  1  0  0  0  0  0  0
  190.0580  173.0260  144.3320 O   0  0  0  0  0  0  0  0  0  0  0  0
  194.6300  175.3180  136.3040 C   0  0  0  0  0  1  0  0  0  0  0  0
  195.5230  174.4530  137.1810 C   0  0  1  0  0  3  0  0  0  0  0  0
  196.7900  175.1910  137.6130 C   0  0  0  0  0  2  0  0  0  0  0  0
  197.8220  174.9830  136.6940 O   0  0  0  0  0  0  0  0  0  0  0  0
  197.9410  173.5950  136.6180 C   0  0  0  0  0  1  0  0  0  0  0  0
  194.8050  173.9030  140.8670 C   0  0  0  0  0  2  0  0  0  0  0  0
  191.5720  176.9560  144.2270 C   0  0  0  0  0  0  0  0  0  0  0  0
  190.8320  175.5720  146.1400 F   0  0  0  0  0  0  0  0  0  0  0  0
  192.2240  176.9330  143.0520 C   0  0  0  0  0  3  0  0  0  0  0  0
  192.9820  175.6760  142.7190 C   0  0  1  0  0  3  0  0  0  0  0  0
  191.7430  175.8140  145.1670 C   0  0  0  0  0  0  0  0  0  0  0  0
  195.3670  174.6790  142.0750 C   0  0  1  0  0  0  0  0  0  0  0  0
  190.7620  178.0320  144.5610 O   0  0  0  0  0  1  0  0  0  0  0  0
  194.4700  175.7260  142.6950 C   0  0  1  0  0  0  0  0  0  0  0  0
  192.8010  174.9980  145.0060 C   0  0  0  0  0  3  0  0  0  0  0  0
  193.8570  175.3990  143.9890 C   0  0  1  0  0  0  0  0  0  0  0  0
  194.8940  174.3980  143.5040 C   0  0  2  0  0  0  0  0  0  0  0  0
  197.1380  176.4520  142.2060 O   0  0  0  0  0  1  0  0  0  0  0  0
  197.7130  174.3030  141.6810 O   0  0  0  0  0  0  0  0  0  0  0  0
  196.8010  175.1240  141.9690 C   0  0  0  0  0  0  0  0  0  0  0  0
  194.2070  173.0270  143.4640 C   0  0  0  0  0  0  0  0  0  0  0  0
  193.2270  172.8080  142.7590 O   0  0  0  0  0  0  0  0  0  0  0  0
  196.5910  168.2160  147.7110 C   0  0  0  0  0  3  0  0  0  0  0  0
  196.0940  172.3400  144.9430 C   0  0  0  0  0  2  0  0  0  0  0  0
  194.7310  170.5750  143.5870 C   0  0  2  0  0  3  0  0  0  0  0  0
  194.9170  169.6900  145.8940 N   0  0  2  0  0  0  0  0  0  0  0  0
  196.1720  170.2720  146.4620 C   0  0  1  0  0  3  0  0  0  0  0  0
  194.4370  168.4570  146.5550 C   0  0  0  0  0  2  0  0  0  0  0  0
  194.7450  171.9280  144.3270 C   0  0  2  0  0  3  0  0  0  0  0  0
  195.0760  169.3710  144.4760 C   0  0  0  0  0  2  0  0  0  0  0  0
  195.5770  170.5960  142.4740 O   0  0  0  0  0  1  0  0  0  0  0  0
  195.1090  168.1660  147.9000 C   0  0  0  0  0  2  0  0  0  0  0  0
  197.1040  169.2260  147.0090 C   0  0  0  0  0  3  0  0  0  0  0  0
  196.9320  171.1840  145.4900 C   0  0  0  0  0  2  0  0  0  0  0  0
  1 31  1  0  0  0  0
  2  1  1  1  0  0  0
  3  9  1  0  0  0  0
  3 12  1  1  0  0  0
  4  8  1  0  0  0  0
  5  8  1  6  0  0  0
  5  9  1  0  0  0  0
  6  4  1  0  0  0  0
  6  3  1  0  0  0  0
  9  7  1  6  0  0  0
 10  5  1  0  0  0  0
 11 10  1  0  0  0  0
 11  2  1  0  0  0  0
 11  7  1  0  0  0  0
 12 18  1  0  0  0  0
 14 16  1  0  0  0  0
 15 13  1  0  0  0  0
 15 16  2  0  0  0  0
 16 25  1  0  0  0  0
 17 18  2  0  0  0  0
 17 19  1  0  0  0  0
 18 15  1  0  0  0  0
 19 14  2  0  0  0  0
 20 19  1  0  0  0  0
 20 23  2  0  0  0  0
 21 20  1  0  0  0  0
 22 21  1  0  0  0  0
 25 24  1  0  0  0  0
 27 26  1  1  0  0  0
 27 28  1  0  0  0  0
 27  2  1  0  0  0  0
 29 28  1  0  0  0  0
 30 29  1  0  0  0  0
 32 38  1  0  0  0  0
 32 36  1  0  0  0  0
 34 32  2  0  0  0  0
 35 34  1  1  0  0  0
 35 41  1  0  0  0  0
 36 33  1  0  0  0  0
 37 31  1  6  0  0  0
 37 39  1  0  0  0  0
 37 42  1  0  0  0  0
 39 35  1  0  0  0  0
 39 42  1  0  0  0  0
 39 41  1  0  0  0  0
 40 36  2  0  0  0  0
 41 40  1  0  0  0  0
 42 41  1  0  0  0  0
 44 45  2  0  0  0  0
 45 37  1  0  0  0  0
 45 43  1  0  0  0  0
 46 42  1  0  0  0  0
 46 54  1  0  0  0  0
 47 46  2  0  0  0  0
 48 57  1  0  0  0  0
 49 59  1  0  0  0  0
 50 54  1  0  0  0  0
 50 55  1  0  0  0  0
 51 52  1  0  0  0  0
 51 53  1  0  0  0  0
 52 58  1  0  0  0  0
 53 57  1  0  0  0  0
 54 49  1  0  0  0  0
 55 51  1  0  0  0  0
 56 50  1  0  0  0  0
 58 48  2  0  0  0  0
 59 52  1  0  0  0  0
M  END
>  <MODEL>
4

>  <REMARK>
 VINA RESULT:      -6.3      3.011      7.199
  Name = 
  14 active torsions:
  status: ('A' for Active; 'I' for Inactive)
    1  A    between atoms: C_3  and  C_55
    2  A    between atoms: C_4  and  C_56
    3  A    between atoms: C_6  and  O_8
    4  A    between atoms: C_6  and  C_38
    5  A    between atoms: C_19  and  C_39
    6  A    between atoms: C_23  and  C_32
    7  A    between atoms: C_23  and  C_44
    8  A    between atoms: C_32  and  C_38
    9  A    between atoms: C_32  and  N_58
   10  A    between atoms: C_33  and  C_44
   11  A    between atoms: C_33  and  C_45
   12  A    between atoms: C_36  and  O_51
   13  A    between atoms: C_39  and  C_54
   14  A    between atoms: C_53  and  C_56
                            x       y       z     vdW  Elec       q    Type
                         _______ _______ _______ _____ _____    ______ ____

>  <TORSDO>
F 14

$$$$
=
 OpenBabel11072409453D

 59 67  0  0  1  0  0  0  0  0999 V2000
  194.2370  172.2260  143.9260 C   0  0  0  0  0  2  0  0  0  0  0  0
  194.1900  173.7040  144.3090 C   0  0  1  0  0  3  0  0  0  0  0  0
  190.2570  176.1660  144.7820 C   0  0  2  0  0  3  0  0  0  0  0  0
  190.1030  175.3060  147.1800 C   0  0  0  0  0  2  0  0  0  0  0  0
  192.3930  175.7670  146.1560 C   0  0  2  0  0  3  0  0  0  0  0  0
  189.6910  175.0910  145.7190 C   0  0  0  0  0  2  0  0  0  0  0  0
  192.3980  175.2580  143.8970 C   0  0  0  0  0  2  0  0  0  0  0  0
  191.4650  175.9870  147.3500 C   0  0  0  0  0  2  0  0  0  0  0  0
  191.7950  176.2340  144.8450 C   0  0  1  0  0  3  0  0  0  0  0  0
  192.7500  174.4110  146.0360 O   0  0  0  0  0  0  0  0  0  0  0  0
  192.8250  174.1200  144.6980 N   0  0  0  0  0  0  0  0  0  0  0  0
  189.6320  177.5270  145.0820 C   0  0  0  0  0  2  0  0  0  0  0  0
  187.4750  177.5540  147.3240 Cl  0  0  0  0  0  0  0  0  0  0  0  0
  185.5500  177.7320  143.7710 C   0  0  0  0  0  3  0  0  0  0  0  0
  187.1480  177.6350  145.5920 C   0  0  0  0  0  0  0  0  0  0  0  0
  185.8200  177.7330  145.1470 C   0  0  0  0  0  0  0  0  0  0  0  0
  187.9080  177.5630  143.2890 C   0  0  0  0  0  3  0  0  0  0  0  0
  188.1980  177.5630  144.6550 C   0  0  0  0  0  0  0  0  0  0  0  0
  186.5860  177.6390  142.8380 C   0  0  0  0  0  0  0  0  0  0  0  0
  186.2910  177.6680  141.3930 C   0  0  0  0  0  0  0  0  0  0  0  0
  186.9770  176.7830  140.5070 N   0  0  0  0  0  2  0  0  0  0  0  0
  186.6920  176.7480  139.0800 C   0  0  0  0  0  1  0  0  0  0  0  0
  185.4250  178.4630  140.9410 O   0  0  0  0  0  0  0  0  0  0  0  0
  183.6910  178.7310  145.9230 C   0  0  0  0  0  1  0  0  0  0  0  0
  184.7850  177.8390  146.0830 O   0  0  0  0  0  0  0  0  0  0  0  0
  196.0600  172.8190  145.7950 C   0  0  0  0  0  1  0  0  0  0  0  0
  195.3260  174.0570  145.2990 C   0  0  1  0  0  3  0  0  0  0  0  0
  196.2890  175.1230  144.7780 C   0  0  0  0  0  2  0  0  0  0  0  0
  195.6380  175.9920  143.8990 O   0  0  0  0  0  0  0  0  0  0  0  0
  196.6480  176.4420  143.0490 C   0  0  0  0  0  1  0  0  0  0  0  0
  193.9550  172.0360  142.4400 C   0  0  0  0  0  2  0  0  0  0  0  0
  188.5060  172.8790  141.6250 C   0  0  0  0  0  0  0  0  0  0  0  0
  188.0710  173.1770  139.2080 F   0  0  0  0  0  0  0  0  0  0  0  0
  189.4710  172.7440  142.5510 C   0  0  0  0  0  3  0  0  0  0  0  0
  190.8700  172.5150  142.0460 C   0  0  1  0  0  3  0  0  0  0  0  0
  188.8500  172.6670  140.1920 C   0  0  0  0  0  0  0  0  0  0  0  0
  192.9760  170.8850  142.1360 C   0  0  1  0  0  0  0  0  0  0  0  0
  187.2100  173.2010  142.0020 O   0  0  0  0  0  1  0  0  0  0  0  0
  191.5000  171.1840  142.2730 C   0  0  1  0  0  0  0  0  0  0  0  0
  189.9750  171.9930  139.8910 C   0  0  0  0  0  3  0  0  0  0  0  0
  190.7310  171.3300  141.0300 C   0  0  1  0  0  0  0  0  0  0  0  0
  192.1590  170.8430  140.8410 C   0  0  2  0  0  0  0  0  0  0  0  0
  192.3660  168.5900  142.9470 O   0  0  0  0  0  1  0  0  0  0  0  0
  194.5590  169.2310  142.8840 O   0  0  0  0  0  0  0  0  0  0  0  0
  193.3530  169.5320  142.6800 C   0  0  0  0  0  0  0  0  0  0  0  0
  192.8400  171.8210  139.8760 C   0  0  0  0  0  0  0  0  0  0  0  0
  192.7220  173.0370  139.9870 O   0  0  0  0  0  0  0  0  0  0  0  0
  196.9060  169.4420  134.9080 C   0  0  0  0  0  3  0  0  0  0  0  0
  194.1350  172.3980  137.8240 C   0  0  0  0  0  2  0  0  0  0  0  0
  192.9490  170.0860  138.0650 C   0  0  2  0  0  3  0  0  0  0  0  0
  195.2410  169.6130  137.2480 N   0  0  2  0  0  0  0  0  0  0  0  0
  195.6720  170.8300  136.4940 C   0  0  1  0  0  3  0  0  0  0  0  0
  195.9650  168.3690  136.9080 C   0  0  0  0  0  2  0  0  0  0  0  0
  193.6630  171.2670  138.7540 C   0  0  2  0  0  3  0  0  0  0  0  0
  193.8190  169.3390  137.0430 C   0  0  0  0  0  2  0  0  0  0  0  0
  191.7580  170.4960  137.4590 O   0  0  0  0  0  1  0  0  0  0  0  0
  197.2410  168.5930  136.0910 C   0  0  0  0  0  2  0  0  0  0  0  0
  196.1410  170.5160  135.1000 C   0  0  0  0  0  3  0  0  0  0  0  0
  194.6150  171.9410  136.4460 C   0  0  0  0  0  2  0  0  0  0  0  0
  2  1  1  1  0  0  0
  2 11  1  0  0  0  0
  2 27  1  0  0  0  0
  3  9  1  0  0  0  0
  3 12  1  1  0  0  0
  3  6  1  0  0  0  0
  4  8  1  0  0  0  0
  5  8  1  1  0  0  0
  6  4  1  0  0  0  0
  7 11  1  0  0  0  0
  9  7  1  6  0  0  0
  9  5  1  0  0  0  0
 10  5  1  0  0  0  0
 11 10  1  0  0  0  0
 14 16  1  0  0  0  0
 15 13  1  0  0  0  0
 16 15  2  0  0  0  0
 16 25  1  0  0  0  0
 17 18  2  0  0  0  0
 18 12  1  0  0  0  0
 18 15  1  0  0  0  0
 19 17  1  0  0  0  0
 19 14  2  0  0  0  0
 20 19  1  0  0  0  0
 21 20  1  0  0  0  0
 22 21  1  0  0  0  0
 23 20  2  0  0  0  0
 24 25  1  0  0  0  0
 27 26  1  6  0  0  0
 28 27  1  0  0  0  0
 29 28  1  0  0  0  0
 30 29  1  0  0  0  0
 31  1  1  0  0  0  0
 32 38  1  0  0  0  0
 32 34  2  0  0  0  0
 33 36  1  0  0  0  0
 35 39  1  0  0  0  0
 35 34  1  1  0  0  0
 36 32  1  0  0  0  0
 37 39  1  0  0  0  0
 37 31  1  1  0  0  0
 37 45  1  0  0  0  0
 40 36  2  0  0  0  0
 40 41  1  0  0  0  0
 41 35  1  0  0  0  0
 41 39  1  0  0  0  0
 42 41  1  0  0  0  0
 42 37  1  0  0  0  0
 42 39  1  0  0  0  0
 45 44  2  0  0  0  0
 45 43  1  0  0  0  0
 46 47  2  0  0  0  0
 46 42  1  0  0  0  0
 48 58  2  0  0  0  0
 48 57  1  0  0  0  0
 49 54  1  0  0  0  0
 50 54  1  0  0  0  0
 52 51  1  0  0  0  0
 53 51  1  0  0  0  0
 54 46  1  0  0  0  0
 55 51  1  0  0  0  0
 55 50  1  0  0  0  0
 56 50  1  0  0  0  0
 57 53  1  0  0  0  0
 58 52  1  0  0  0  0
 59 52  1  0  0  0  0
 59 49  1  0  0  0  0
M  END
>  <MODEL>
5

>  <REMARK>
 VINA RESULT:      -6.2      3.247      7.614
  Name = 
  14 active torsions:
  status: ('A' for Active; 'I' for Inactive)
    1  A    between atoms: C_3  and  C_55
    2  A    between atoms: C_4  and  C_56
    3  A    between atoms: C_6  and  O_8
    4  A    between atoms: C_6  and  C_38
    5  A    between atoms: C_19  and  C_39
    6  A    between atoms: C_23  and  C_32
    7  A    between atoms: C_23  and  C_44
    8  A    between atoms: C_32  and  C_38
    9  A    between atoms: C_32  and  N_58
   10  A    between atoms: C_33  and  C_44
   11  A    between atoms: C_33  and  C_45
   12  A    between atoms: C_36  and  O_51
   13  A    between atoms: C_39  and  C_54
   14  A    between atoms: C_53  and  C_56
                            x       y       z     vdW  Elec       q    Type
                         _______ _______ _______ _____ _____    ______ ____

>  <TORSDO>
F 14

$$$$
=
 OpenBabel11072409453D

 59 67  0  0  1  0  0  0  0  0999 V2000
  191.9180  174.9250  144.4870 C   0  0  0  0  0  2  0  0  0  0  0  0
  192.9410  174.9550  145.6210 C   0  0  1  0  0  3  0  0  0  0  0  0
  196.1820  172.6160  143.2170 C   0  0  2  0  0  3  0  0  0  0  0  0
  197.0620  171.7150  145.4370 C   0  0  0  0  0  2  0  0  0  0  0  0
  194.5600  172.1170  145.1480 C   0  0  2  0  0  3  0  0  0  0  0  0
  197.1800  172.8070  144.3670 C   0  0  0  0  0  2  0  0  0  0  0  0
  194.1770  173.9660  143.8060 C   0  0  0  0  0  2  0  0  0  0  0  0
  195.6490  171.1420  145.5890 C   0  0  0  0  0  2  0  0  0  0  0  0
  194.7250  172.5850  143.7160 C   0  0  1  0  0  3  0  0  0  0  0  0
  194.5170  173.2430  145.9920 O   0  0  0  0  0  0  0  0  0  0  0  0
  194.2190  174.3330  145.2150 N   0  0  0  0  0  0  0  0  0  0  0  0
  196.5170  171.3600  142.4150 C   0  0  0  0  0  2  0  0  0  0  0  0
  197.4870  169.1570  140.4440 Cl  0  0  0  0  0  0  0  0  0  0  0  0
  195.5180  171.9520  138.2830 C   0  0  0  0  0  3  0  0  0  0  0  0
  196.5590  170.5900  139.9980 C   0  0  0  0  0  0  0  0  0  0  0  0
  196.1980  170.7830  138.6540 C   0  0  0  0  0  0  0  0  0  0  0  0
  195.5360  172.7140  140.5730 C   0  0  0  0  0  3  0  0  0  0  0  0
  196.2130  171.5560  140.9630 C   0  0  0  0  0  0  0  0  0  0  0  0
  195.1910  172.9240  139.2330 C   0  0  0  0  0  0  0  0  0  0  0  0
  194.4510  174.1350  138.8350 C   0  0  0  0  0  0  0  0  0  0  0  0
  194.3440  174.4850  137.4550 N   0  0  0  0  0  2  0  0  0  0  0  0
  193.5910  175.6480  137.0110 C   0  0  0  0  0  1  0  0  0  0  0  0
  193.8990  174.8550  139.7090 O   0  0  0  0  0  0  0  0  0  0  0  0
  197.6340  169.9070  136.8380 C   0  0  0  0  0  1  0  0  0  0  0  0
  196.5150  169.8030  137.7070 O   0  0  0  0  0  0  0  0  0  0  0  0
  192.3940  176.4210  147.6310 C   0  0  0  0  0  1  0  0  0  0  0  0
  193.0320  176.3670  146.2500 C   0  0  1  0  0  3  0  0  0  0  0  0
  194.4420  176.9550  146.2470 C   0  0  0  0  0  2  0  0  0  0  0  0
  194.6810  177.6620  145.0660 O   0  0  0  0  0  0  0  0  0  0  0  0
  195.9120  177.1820  144.6190 C   0  0  0  0  0  1  0  0  0  0  0  0
  190.8070  175.9400  144.7250 C   0  0  0  0  0  2  0  0  0  0  0  0
  186.0060  178.5640  143.6590 C   0  0  0  0  0  0  0  0  0  0  0  0
  185.2190  177.9550  141.3940 F   0  0  0  0  0  0  0  0  0  0  0  0
  187.0230  178.4430  144.5290 C   0  0  0  0  0  3  0  0  0  0  0  0
  188.1030  177.4560  144.1810 C   0  0  1  0  0  3  0  0  0  0  0  0
  185.9430  177.6390  142.4950 C   0  0  0  0  0  0  0  0  0  0  0  0
  189.4330  175.3020  145.0110 C   0  0  1  0  0  0  0  0  0  0  0  0
  185.0270  179.5280  143.8510 O   0  0  0  0  0  1  0  0  0  0  0  0
  188.2340  176.2210  145.0040 C   0  0  1  0  0  0  0  0  0  0  0  0
  186.6530  176.4960  142.5380 C   0  0  0  0  0  3  0  0  0  0  0  0
  187.3320  176.1330  143.8480 C   0  0  1  0  0  0  0  0  0  0  0  0
  188.4080  175.0600  143.8990 C   0  0  2  0  0  0  0  0  0  0  0  0
  189.5050  172.9360  145.8430 O   0  0  0  0  0  0  0  0  0  0  0  0
  189.2710  174.6580  147.3270 O   0  0  0  0  0  1  0  0  0  0  0  0
  189.3920  174.2920  146.1270 C   0  0  0  0  0  0  0  0  0  0  0  0
  189.1850  175.1460  142.5790 C   0  0  0  0  0  0  0  0  0  0  0  0
  189.2090  176.1660  141.9000 O   0  0  0  0  0  0  0  0  0  0  0  0
  192.8860  169.7990  140.4360 C   0  0  0  0  0  3  0  0  0  0  0  0
  190.4790  174.1660  140.6860 C   0  0  0  0  0  2  0  0  0  0  0  0
  189.0850  172.6530  142.2920 C   0  0  2  0  0  3  0  0  0  0  0  0
  191.3020  171.5680  142.0590 N   0  0  2  0  0  0  0  0  0  0  0  0
  191.8280  171.9820  140.7230 C   0  0  1  0  0  3  0  0  0  0  0  0
  191.8960  170.3350  142.6190 C   0  0  0  0  0  2  0  0  0  0  0  0
  189.9250  173.9330  142.1020 C   0  0  2  0  0  3  0  0  0  0  0  0
  189.8560  171.3530  142.0160 C   0  0  0  0  0  2  0  0  0  0  0  0
  187.9250  172.6870  141.5140 O   0  0  0  0  0  1  0  0  0  0  0  0
  193.1680  169.8730  141.9010 C   0  0  0  0  0  2  0  0  0  0  0  0
  192.2310  170.8110  139.8680 C   0  0  0  0  0  3  0  0  0  0  0  0
  190.8800  172.8950  139.9350 C   0  0  0  0  0  2  0  0  0  0  0  0
  1 31  1  0  0  0  0
  2  1  1  6  0  0  0
  2 27  1  0  0  0  0
  3 12  1  1  0  0  0
  3  9  1  0  0  0  0
  3  6  1  0  0  0  0
  4  8  1  0  0  0  0
  5  8  1  1  0  0  0
  5 10  1  0  0  0  0
  6  4  1  0  0  0  0
  7 11  1  0  0  0  0
  9  7  1  1  0  0  0
  9  5  1  0  0  0  0
 11  2  1  0  0  0  0
 11 10  1  0  0  0  0
 14 16  2  0  0  0  0
 14 19  1  0  0  0  0
 15 13  1  0  0  0  0
 15 18  2  0  0  0  0
 16 15  1  0  0  0  0
 17 18  1  0  0  0  0
 18 12  1  0  0  0  0
 19 17  2  0  0  0  0
 20 19  1  0  0  0  0
 20 23  2  0  0  0  0
 21 20  1  0  0  0  0
 22 21  1  0  0  0  0
 24 25  1  0  0  0  0
 25 16  1  0  0  0  0
 27 26  1  1  0  0  0
 28 27  1  0  0  0  0
 29 28  1  0  0  0  0
 30 29  1  0  0  0  0
 32 38  1  0  0  0  0
 32 34  2  0  0  0  0
 33 36  1  0  0  0  0
 35 34  1  1  0  0  0
 35 39  1  0  0  0  0
 36 40  2  0  0  0  0
 36 32  1  0  0  0  0
 37 31  1  6  0  0  0
 37 45  1  0  0  0  0
 39 37  1  0  0  0  0
 40 41  1  0  0  0  0
 41 42  1  0  0  0  0
 41 35  1  0  0  0  0
 41 39  1  0  0  0  0
 42 39  1  0  0  0  0
 42 37  1  0  0  0  0
 43 45  2  0  0  0  0
 45 44  1  0  0  0  0
 46 42  1  0  0  0  0
 47 46  2  0  0  0  0
 48 57  1  0  0  0  0
 49 54  1  0  0  0  0
 51 53  1  0  0  0  0
 52 51  1  0  0  0  0
 54 50  1  0  0  0  0
 54 46  1  0  0  0  0
 55 51  1  0  0  0  0
 55 50  1  0  0  0  0
 56 50  1  0  0  0  0
 57 53  1  0  0  0  0
 58 48  2  0  0  0  0
 58 52  1  0  0  0  0
 59 49  1  0  0  0  0
 59 52  1  0  0  0  0
M  END
>  <MODEL>
6

>  <REMARK>
 VINA RESULT:      -5.9      2.207      3.281
  Name = 
  14 active torsions:
  status: ('A' for Active; 'I' for Inactive)
    1  A    between atoms: C_3  and  C_55
    2  A    between atoms: C_4  and  C_56
    3  A    between atoms: C_6  and  O_8
    4  A    between atoms: C_6  and  C_38
    5  A    between atoms: C_19  and  C_39
    6  A    between atoms: C_23  and  C_32
    7  A    between atoms: C_23  and  C_44
    8  A    between atoms: C_32  and  C_38
    9  A    between atoms: C_32  and  N_58
   10  A    between atoms: C_33  and  C_44
   11  A    between atoms: C_33  and  C_45
   12  A    between atoms: C_36  and  O_51
   13  A    between atoms: C_39  and  C_54
   14  A    between atoms: C_53  and  C_56
                            x       y       z     vdW  Elec       q    Type
                         _______ _______ _______ _____ _____    ______ ____

>  <TORSDO>
F 14

$$$$
=
 OpenBabel11072409453D

 59 67  0  0  1  0  0  0  0  0999 V2000
  194.0800  174.2040  143.8160 C   0  0  0  0  0  2  0  0  0  0  0  0
  194.5780  173.3110  144.9500 C   0  0  1  0  0  3  0  0  0  0  0  0
  194.9960  169.5370  142.2420 C   0  0  2  0  0  3  0  0  0  0  0  0
  193.8490  168.1900  144.0800 C   0  0  0  0  0  2  0  0  0  0  0  0
  193.1590  170.6130  143.6820 C   0  0  2  0  0  3  0  0  0  0  0  0
  195.1820  168.6580  143.4850 C   0  0  0  0  0  2  0  0  0  0  0  0
  194.9850  171.8910  143.0480 C   0  0  0  0  0  2  0  0  0  0  0  0
  192.6910  169.1710  143.8650 C   0  0  0  0  0  2  0  0  0  0  0  0
  194.1360  170.7810  142.5360 C   0  0  1  0  0  3  0  0  0  0  0  0
  193.7520  171.1050  144.8600 O   0  0  0  0  0  0  0  0  0  0  0  0
  194.7910  171.9210  144.4910 N   0  0  0  0  0  0  0  0  0  0  0  0
  194.4130  168.7230  141.0880 C   0  0  0  0  0  2  0  0  0  0  0  0
  191.6490  168.8580  139.6660 Cl  0  0  0  0  0  0  0  0  0  0  0  0
  194.2130  171.1920  137.5840 C   0  0  0  0  0  3  0  0  0  0  0  0
  193.1020  169.7200  139.1570 C   0  0  0  0  0  0  0  0  0  0  0  0
  193.0460  170.5560  138.0300 C   0  0  0  0  0  0  0  0  0  0  0  0
  195.4720  170.1910  139.3820 C   0  0  0  0  0  3  0  0  0  0  0  0
  194.3210  169.5490  139.8430 C   0  0  0  0  0  0  0  0  0  0  0  0
  195.4290  171.0090  138.2480 C   0  0  0  0  0  0  0  0  0  0  0  0
  196.6430  171.7060  137.7840 C   0  0  0  0  0  0  0  0  0  0  0  0
  196.7390  172.1490  136.4300 N   0  0  0  0  0  2  0  0  0  0  0  0
  197.8990  172.8750  135.9380 C   0  0  0  0  0  1  0  0  0  0  0  0
  197.5910  171.9240  138.5850 O   0  0  0  0  0  0  0  0  0  0  0  0
  191.4480  170.0110  136.2190 C   0  0  0  0  0  1  0  0  0  0  0  0
  191.8250  170.7480  137.3740 O   0  0  0  0  0  0  0  0  0  0  0  0
  196.7990  172.9590  146.1470 C   0  0  0  0  0  1  0  0  0  0  0  0
  195.7550  173.9750  145.7040 C   0  0  1  0  0  3  0  0  0  0  0  0
  196.3830  175.1510  144.9560 C   0  0  0  0  0  2  0  0  0  0  0  0
  197.4140  174.7140  144.1220 O   0  0  0  0  0  0  0  0  0  0  0  0
  197.5530  175.7340  143.1820 C   0  0  0  0  0  1  0  0  0  0  0  0
  192.6060  174.5490  143.9980 C   0  0  0  0  0  2  0  0  0  0  0  0
  189.4990  172.1300  140.0530 C   0  0  0  0  0  0  0  0  0  0  0  0
  187.1100  172.2780  140.6790 F   0  0  0  0  0  0  0  0  0  0  0  0
  190.7540  172.3630  140.4760 C   0  0  0  0  0  3  0  0  0  0  0  0
  190.9080  173.1630  141.7410 C   0  0  1  0  0  3  0  0  0  0  0  0
  188.3670  172.7750  140.7730 C   0  0  0  0  0  0  0  0  0  0  0  0
  192.0030  175.3390  142.8200 C   0  0  1  0  0  0  0  0  0  0  0  0
  189.2670  171.3110  138.9580 O   0  0  0  0  0  1  0  0  0  0  0  0
  191.4790  174.5350  141.6510 C   0  0  1  0  0  0  0  0  0  0  0  0
  188.6220  173.8410  141.5550 C   0  0  0  0  0  3  0  0  0  0  0  0
  190.0210  174.4330  141.5120 C   0  0  1  0  0  0  0  0  0  0  0  0
  190.4910  175.4040  142.5830 C   0  0  2  0  0  0  0  0  0  0  0  0
  192.2940  177.8300  142.7640 O   0  0  0  0  0  1  0  0  0  0  0  0
  193.8130  176.4820  141.7150 O   0  0  0  0  0  0  0  0  0  0  0  0
  192.7550  176.5720  142.3940 C   0  0  0  0  0  0  0  0  0  0  0  0
  189.8350  174.9680  143.8990 C   0  0  0  0  0  0  0  0  0  0  0  0
  190.1100  173.9060  144.4460 O   0  0  0  0  0  0  0  0  0  0  0  0
  184.9080  178.9260  146.5350 C   0  0  0  0  0  3  0  0  0  0  0  0
  188.3720  176.9540  143.5280 C   0  0  0  0  0  2  0  0  0  0  0  0
  189.2820  176.3740  145.9050 C   0  0  2  0  0  3  0  0  0  0  0  0
  186.8650  176.8460  146.1790 N   0  0  2  0  0  0  0  0  0  0  0  0
  186.4960  177.7820  145.0730 C   0  0  1  0  0  3  0  0  0  0  0  0
  185.9540  176.8560  147.3450 C   0  0  0  0  0  2  0  0  0  0  0  0
  188.8140  175.8680  144.5250 C   0  0  2  0  0  3  0  0  0  0  0  0
  188.2040  177.1330  146.6920 C   0  0  0  0  0  2  0  0  0  0  0  0
  190.4290  177.1660  145.7930 O   0  0  0  0  0  1  0  0  0  0  0  0
  184.6230  177.5690  147.0910 C   0  0  0  0  0  2  0  0  0  0  0  0
  185.8190  179.0310  145.5680 C   0  0  0  0  0  3  0  0  0  0  0  0
  187.6680  178.1580  144.1580 C   0  0  0  0  0  2  0  0  0  0  0  0
  1 31  1  0  0  0  0
  2  1  1  6  0  0  0
  2 27  1  0  0  0  0
  3 12  1  6  0  0  0
  3  9  1  0  0  0  0
  3  6  1  0  0  0  0
  5  8  1  1  0  0  0
  5 10  1  0  0  0  0
  6  4  1  0  0  0  0
  7 11  1  0  0  0  0
  8  4  1  0  0  0  0
  9  7  1  1  0  0  0
  9  5  1  0  0  0  0
 11 10  1  0  0  0  0
 11  2  1  0  0  0  0
 14 16  2  0  0  0  0
 14 19  1  0  0  0  0
 15 13  1  0  0  0  0
 15 18  2  0  0  0  0
 16 15  1  0  0  0  0
 17 18  1  0  0  0  0
 18 12  1  0  0  0  0
 19 17  2  0  0  0  0
 20 19  1  0  0  0  0
 20 23  2  0  0  0  0
 21 20  1  0  0  0  0
 22 21  1  0  0  0  0
 24 25  1  0  0  0  0
 25 16  1  0  0  0  0
 27 26  1  6  0  0  0
 28 27  1  0  0  0  0
 29 28  1  0  0  0  0
 30 29  1  0  0  0  0
 32 34  2  0  0  0  0
 32 36  1  0  0  0  0
 33 36  1  0  0  0  0
 35 34  1  6  0  0  0
 36 40  2  0  0  0  0
 37 31  1  1  0  0  0
 38 32  1  0  0  0  0
 39 35  1  0  0  0  0
 39 42  1  0  0  0  0
 39 37  1  0  0  0  0
 41 40  1  0  0  0  0
 41 39  1  0  0  0  0
 41 35  1  0  0  0  0
 41 42  1  0  0  0  0
 42 37  1  0  0  0  0
 42 46  1  0  0  0  0
 44 45  2  0  0  0  0
 45 43  1  0  0  0  0
 45 37  1  0  0  0  0
 46 47  2  0  0  0  0
 46 54  1  0  0  0  0
 48 57  1  0  0  0  0
 49 59  1  0  0  0  0
 49 54  1  0  0  0  0
 50 55  1  0  0  0  0
 51 55  1  0  0  0  0
 51 53  1  0  0  0  0
 52 58  1  0  0  0  0
 52 51  1  0  0  0  0
 54 50  1  0  0  0  0
 56 50  1  0  0  0  0
 57 53  1  0  0  0  0
 58 48  2  0  0  0  0
 59 52  1  0  0  0  0
M  END
>  <MODEL>
7

>  <REMARK>
 VINA RESULT:      -5.8      2.895      6.177
  Name = 
  14 active torsions:
  status: ('A' for Active; 'I' for Inactive)
    1  A    between atoms: C_3  and  C_55
    2  A    between atoms: C_4  and  C_56
    3  A    between atoms: C_6  and  O_8
    4  A    between atoms: C_6  and  C_38
    5  A    between atoms: C_19  and  C_39
    6  A    between atoms: C_23  and  C_32
    7  A    between atoms: C_23  and  C_44
    8  A    between atoms: C_32  and  C_38
    9  A    between atoms: C_32  and  N_58
   10  A    between atoms: C_33  and  C_44
   11  A    between atoms: C_33  and  C_45
   12  A    between atoms: C_36  and  O_51
   13  A    between atoms: C_39  and  C_54
   14  A    between atoms: C_53  and  C_56
                            x       y       z     vdW  Elec       q    Type
                         _______ _______ _______ _____ _____    ______ ____

>  <TORSDO>
F 14

$$$$
=
 OpenBabel11072409453D

 59 67  0  0  1  0  0  0  0  0999 V2000
  192.4650  170.9100  139.2150 C   0  0  0  0  0  2  0  0  0  0  0  0
  191.0100  171.1660  138.8280 C   0  0  1  0  0  3  0  0  0  0  0  0
  189.3660  173.9640  142.1780 C   0  0  2  0  0  3  0  0  0  0  0  0
  189.1960  171.9160  143.6930 C   0  0  0  0  0  2  0  0  0  0  0  0
  191.0990  172.0730  142.0010 C   0  0  2  0  0  3  0  0  0  0  0  0
  188.4730  172.8290  142.6950 C   0  0  0  0  0  2  0  0  0  0  0  0
  190.3920  173.1350  140.0680 C   0  0  0  0  0  2  0  0  0  0  0  0
  190.7060  171.8040  143.4520 C   0  0  0  0  0  2  0  0  0  0  0  0
  190.6450  173.4310  141.5050 C   0  0  1  0  0  3  0  0  0  0  0  0
  190.5860  171.0810  141.1450 O   0  0  0  0  0  0  0  0  0  0  0  0
  190.2310  171.6920  139.9700 N   0  0  0  0  0  0  0  0  0  0  0  0
  189.7010  174.9410  143.3030 C   0  0  0  0  0  2  0  0  0  0  0  0
  189.1860  175.8010  146.2480 Cl  0  0  0  0  0  0  0  0  0  0  0  0
  186.4790  177.7070  143.9260 C   0  0  0  0  0  3  0  0  0  0  0  0
  188.2810  176.3710  144.8450 C   0  0  0  0  0  0  0  0  0  0  0  0
  187.2430  177.3000  145.0280 C   0  0  0  0  0  0  0  0  0  0  0  0
  187.7890  176.2960  142.4700 C   0  0  0  0  0  3  0  0  0  0  0  0
  188.5620  175.8780  143.5560 C   0  0  0  0  0  0  0  0  0  0  0  0
  186.7390  177.2040  142.6470 C   0  0  0  0  0  0  0  0  0  0  0  0
  185.9460  177.6620  141.4920 C   0  0  0  0  0  0  0  0  0  0  0  0
  184.5580  177.9540  141.6500 N   0  0  0  0  0  2  0  0  0  0  0  0
  183.7440  178.4460  140.5480 C   0  0  0  0  0  1  0  0  0  0  0  0
  186.4950  177.8100  140.3670 O   0  0  0  0  0  0  0  0  0  0  0  0
  185.9950  177.2780  147.1660 C   0  0  0  0  0  1  0  0  0  0  0  0
  186.9930  177.8110  146.3060 O   0  0  0  0  0  0  0  0  0  0  0  0
  191.7020  171.3010  136.3810 C   0  0  0  0  0  1  0  0  0  0  0  0
  190.9200  171.9640  137.5060 C   0  0  1  0  0  3  0  0  0  0  0  0
  189.4900  172.3040  137.0860 C   0  0  0  0  0  2  0  0  0  0  0  0
  189.4230  173.5940  136.5540 O   0  0  0  0  0  0  0  0  0  0  0  0
  188.2230  174.1070  137.0450 C   0  0  0  0  0  1  0  0  0  0  0  0
  193.2670  172.2060  139.2220 C   0  0  0  0  0  2  0  0  0  0  0  0
  197.2030  174.0080  135.7110 C   0  0  0  0  0  0  0  0  0  0  0  0
  197.9320  176.2740  136.3830 F   0  0  0  0  0  0  0  0  0  0  0  0
  196.3160  173.0290  135.9600 C   0  0  0  0  0  3  0  0  0  0  0  0
  195.4790  173.1690  137.2020 C   0  0  1  0  0  3  0  0  0  0  0  0
  197.3940  175.0800  136.7270 C   0  0  0  0  0  0  0  0  0  0  0  0
  194.7720  172.0040  139.4920 C   0  0  1  0  0  0  0  0  0  0  0  0
  197.9360  174.0100  134.5330 O   0  0  0  0  0  1  0  0  0  0  0  0
  195.7130  172.2230  138.3290 C   0  0  1  0  0  0  0  0  0  0  0  0
  196.9820  174.8550  137.9890 C   0  0  0  0  0  3  0  0  0  0  0  0
  196.5150  173.4530  138.3420 C   0  0  1  0  0  0  0  0  0  0  0  0
  195.7330  173.1890  139.6200 C   0  0  2  0  0  0  0  0  0  0  0  0
  195.0720  170.8810  141.7150 O   0  0  0  0  0  1  0  0  0  0  0  0
  195.4990  169.7270  139.7880 O   0  0  0  0  0  0  0  0  0  0  0  0
  195.1410  170.8080  140.3280 C   0  0  0  0  0  0  0  0  0  0  0  0
  194.8570  174.4230  139.8690 C   0  0  0  0  0  0  0  0  0  0  0  0
  194.2980  175.0230  138.9570 O   0  0  0  0  0  0  0  0  0  0  0  0
  193.8850  176.3900  146.3550 C   0  0  0  0  0  3  0  0  0  0  0  0
  193.2890  175.5070  141.4770 C   0  0  0  0  0  2  0  0  0  0  0  0
  195.8710  175.8260  141.6880 C   0  0  2  0  0  3  0  0  0  0  0  0
  195.0460  175.2900  143.9630 N   0  0  2  0  0  0  0  0  0  0  0  0
  193.6260  175.7560  144.0100 C   0  0  1  0  0  3  0  0  0  0  0  0
  195.7060  175.1420  145.2780 C   0  0  0  0  0  2  0  0  0  0  0  0
  194.6960  174.9170  141.2740 C   0  0  2  0  0  3  0  0  0  0  0  0
  195.8770  176.2020  143.1770 C   0  0  0  0  0  2  0  0  0  0  0  0
  195.9150  176.9860  140.9100 O   0  0  0  0  0  1  0  0  0  0  0  0
  194.7430  175.1720  146.4680 C   0  0  0  0  0  2  0  0  0  0  0  0
  193.3540  176.6790  145.1670 C   0  0  0  0  0  3  0  0  0  0  0  0
  193.1390  176.4040  142.7080 C   0  0  0  0  0  2  0  0  0  0  0  0
  1 31  1  0  0  0  0
  2  1  1  1  0  0  0
  2 11  1  0  0  0  0
  3  6  1  0  0  0  0
  3 12  1  1  0  0  0
  5  8  1  1  0  0  0
  6  4  1  0  0  0  0
  8  4  1  0  0  0  0
  9  7  1  6  0  0  0
  9  5  1  0  0  0  0
  9  3  1  0  0  0  0
 10  5  1  0  0  0  0
 11  7  1  0  0  0  0
 11 10  1  0  0  0  0
 12 18  1  0  0  0  0
 14 16  1  0  0  0  0
 15 16  2  0  0  0  0
 15 13  1  0  0  0  0
 16 25  1  0  0  0  0
 17 19  1  0  0  0  0
 17 18  2  0  0  0  0
 18 15  1  0  0  0  0
 19 14  2  0  0  0  0
 20 21  1  0  0  0  0
 20 19  1  0  0  0  0
 22 21  1  0  0  0  0
 23 20  2  0  0  0  0
 25 24  1  0  0  0  0
 27 26  1  6  0  0  0
 27  2  1  0  0  0  0
 28 27  1  0  0  0  0
 29 30  1  0  0  0  0
 29 28  1  0  0  0  0
 32 34  2  0  0  0  0
 32 36  1  0  0  0  0
 33 36  1  0  0  0  0
 35 34  1  6  0  0  0
 35 39  1  0  0  0  0
 35 41  1  0  0  0  0
 36 40  2  0  0  0  0
 37 31  1  6  0  0  0
 37 42  1  0  0  0  0
 37 45  1  0  0  0  0
 38 32  1  0  0  0  0
 39 41  1  0  0  0  0
 39 37  1  0  0  0  0
 39 42  1  0  0  0  0
 40 41  1  0  0  0  0
 41 42  1  0  0  0  0
 42 46  1  0  0  0  0
 44 45  2  0  0  0  0
 45 43  1  0  0  0  0
 46 54  1  0  0  0  0
 47 46  2  0  0  0  0
 48 57  1  0  0  0  0
 49 59  1  0  0  0  0
 50 55  1  0  0  0  0
 51 52  1  0  0  0  0
 51 53  1  0  0  0  0
 52 58  1  0  0  0  0
 53 57  1  0  0  0  0
 54 49  1  0  0  0  0
 54 50  1  0  0  0  0
 55 51  1  0  0  0  0
 56 50  1  0  0  0  0
 58 48  2  0  0  0  0
 59 52  1  0  0  0  0
M  END
>  <MODEL>
8

>  <REMARK>
 VINA RESULT:      -5.7      3.577      9.377
  Name = 
  14 active torsions:
  status: ('A' for Active; 'I' for Inactive)
    1  A    between atoms: C_3  and  C_55
    2  A    between atoms: C_4  and  C_56
    3  A    between atoms: C_6  and  O_8
    4  A    between atoms: C_6  and  C_38
    5  A    between atoms: C_19  and  C_39
    6  A    between atoms: C_23  and  C_32
    7  A    between atoms: C_23  and  C_44
    8  A    between atoms: C_32  and  C_38
    9  A    between atoms: C_32  and  N_58
   10  A    between atoms: C_33  and  C_44
   11  A    between atoms: C_33  and  C_45
   12  A    between atoms: C_36  and  O_51
   13  A    between atoms: C_39  and  C_54
   14  A    between atoms: C_53  and  C_56
                            x       y       z     vdW  Elec       q    Type
                         _______ _______ _______ _____ _____    ______ ____

>  <TORSDO>
F 14

$$$$
=
 OpenBabel11072409453D

 59 67  0  0  1  0  0  0  0  0999 V2000
  192.4500  174.1540  144.4010 C   0  0  0  0  0  2  0  0  0  0  0  0
  193.5780  174.4800  145.3790 C   0  0  1  0  0  3  0  0  0  0  0  0
  196.7390  171.8970  143.1240 C   0  0  2  0  0  3  0  0  0  0  0  0
  197.4340  170.9240  145.3780 C   0  0  0  0  0  2  0  0  0  0  0  0
  194.9890  171.5240  144.9690 C   0  0  2  0  0  3  0  0  0  0  0  0
  197.6900  172.0050  144.3220 C   0  0  0  0  0  2  0  0  0  0  0  0
  194.8190  173.4000  143.6210 C   0  0  0  0  0  2  0  0  0  0  0  0
  195.9740  170.4640  145.4570 C   0  0  0  0  0  2  0  0  0  0  0  0
  195.2610  171.9800  143.5500 C   0  0  1  0  0  3  0  0  0  0  0  0
  194.9930  172.6470  145.8170 O   0  0  0  0  0  0  0  0  0  0  0  0
  194.8210  173.7590  145.0320 N   0  0  0  0  0  0  0  0  0  0  0  0
  197.0130  170.6200  142.3310 C   0  0  0  0  0  2  0  0  0  0  0  0
  195.1700  168.2000  141.6760 Cl  0  0  0  0  0  0  0  0  0  0  0  0
  194.9110  170.8050  138.5940 C   0  0  0  0  0  3  0  0  0  0  0  0
  195.3930  169.6200  140.6530 C   0  0  0  0  0  0  0  0  0  0  0  0
  194.6890  169.7100  139.4410 C   0  0  0  0  0  0  0  0  0  0  0  0
  196.5010  171.7220  140.1600 C   0  0  0  0  0  3  0  0  0  0  0  0
  196.2930  170.6400  141.0190 C   0  0  0  0  0  0  0  0  0  0  0  0
  195.8200  171.8090  138.9410 C   0  0  0  0  0  0  0  0  0  0  0  0
  196.0230  172.9690  138.0540 C   0  0  0  0  0  0  0  0  0  0  0  0
  194.9230  173.8160  137.7230 N   0  0  0  0  0  2  0  0  0  0  0  0
  195.0820  174.9940  136.8840 C   0  0  0  0  0  1  0  0  0  0  0  0
  197.1700  173.2220  137.5980 O   0  0  0  0  0  0  0  0  0  0  0  0
  192.4370  168.6930  139.5880 C   0  0  0  0  0  1  0  0  0  0  0  0
  193.7710  168.7110  139.1000 O   0  0  0  0  0  0  0  0  0  0  0  0
  193.3570  176.4190  147.0150 C   0  0  0  0  0  1  0  0  0  0  0  0
  193.7040  176.0080  145.5910 C   0  0  1  0  0  3  0  0  0  0  0  0
  195.0440  176.5860  145.1380 C   0  0  0  0  0  2  0  0  0  0  0  0
  195.0850  176.7100  143.7470 O   0  0  0  0  0  0  0  0  0  0  0  0
  196.4450  176.7940  143.4490 C   0  0  0  0  0  1  0  0  0  0  0  0
  191.3520  175.2090  144.4590 C   0  0  0  0  0  2  0  0  0  0  0  0
  186.8880  178.2900  143.1750 C   0  0  0  0  0  0  0  0  0  0  0  0
  186.4430  178.1240  140.7470 F   0  0  0  0  0  0  0  0  0  0  0  0
  187.7510  177.9570  144.1510 C   0  0  0  0  0  3  0  0  0  0  0  0
  188.8310  176.9720  143.7970 C   0  0  1  0  0  3  0  0  0  0  0  0
  186.9720  177.5790  141.8690 C   0  0  0  0  0  0  0  0  0  0  0  0
  189.9260  174.6250  144.4230 C   0  0  1  0  0  0  0  0  0  0  0  0
  185.9310  179.2710  143.3870 O   0  0  0  0  0  1  0  0  0  0  0  0
  188.7810  175.6110  144.4000 C   0  0  1  0  0  0  0  0  0  0  0  0
  187.6200  176.4000  141.8150 C   0  0  0  0  0  3  0  0  0  0  0  0
  188.0690  175.7780  143.1270 C   0  0  1  0  0  0  0  0  0  0  0  0
  189.0800  174.6430  143.1460 C   0  0  2  0  0  0  0  0  0  0  0  0
  189.3220  173.6520  146.6550 O   0  0  0  0  0  1  0  0  0  0  0  0
  189.7490  172.2680  144.8870 O   0  0  0  0  0  0  0  0  0  0  0  0
  189.6690  173.4470  145.3250 C   0  0  0  0  0  0  0  0  0  0  0  0
  190.0570  174.8960  141.9910 C   0  0  0  0  0  0  0  0  0  0  0  0
  190.8100  175.8640  141.9720 O   0  0  0  0  0  0  0  0  0  0  0  0
  189.7790  170.5510  136.7070 C   0  0  0  0  0  3  0  0  0  0  0  0
  189.3840  172.6170  141.2350 C   0  0  0  0  0  2  0  0  0  0  0  0
  191.4950  173.7950  140.2520 C   0  0  2  0  0  3  0  0  0  0  0  0
  190.2370  172.8900  138.3180 N   0  0  2  0  0  0  0  0  0  0  0  0
  189.4730  171.7140  138.8340 C   0  0  1  0  0  3  0  0  0  0  0  0
  190.4660  172.9050  136.8570 C   0  0  0  0  0  2  0  0  0  0  0  0
  190.0770  173.9330  140.8440 C   0  0  2  0  0  3  0  0  0  0  0  0
  191.5530  172.9850  138.9480 C   0  0  0  0  0  2  0  0  0  0  0  0
  192.3830  173.2510  141.1840 O   0  0  0  0  0  1  0  0  0  0  0  0
  189.6120  171.8980  136.0810 C   0  0  0  0  0  2  0  0  0  0  0  0
  189.7220  170.4630  138.0350 C   0  0  0  0  0  3  0  0  0  0  0  0
  189.6970  171.4290  140.3240 C   0  0  0  0  0  2  0  0  0  0  0  0
  1 31  1  0  0  0  0
  2  1  1  6  0  0  0
  2 27  1  0  0  0  0
  3 12  1  1  0  0  0
  3  9  1  0  0  0  0
  3  6  1  0  0  0  0
  4  8  1  0  0  0  0
  5  8  1  1  0  0  0
  5 10  1  0  0  0  0
  6  4  1  0  0  0  0
  7 11  1  0  0  0  0
  9  7  1  1  0  0  0
  9  5  1  0  0  0  0
 11  2  1  0  0  0  0
 11 10  1  0  0  0  0
 14 19  2  0  0  0  0
 14 16  1  0  0  0  0
 15 18  1  0  0  0  0
 15 13  1  0  0  0  0
 16 15  2  0  0  0  0
 17 18  2  0  0  0  0
 18 12  1  0  0  0  0
 19 17  1  0  0  0  0
 20 19  1  0  0  0  0
 21 20  1  0  0  0  0
 22 21  1  0  0  0  0
 23 20  2  0  0  0  0
 25 16  1  0  0  0  0
 25 24  1  0  0  0  0
 27 26  1  1  0  0  0
 28 27  1  0  0  0  0
 29 28  1  0  0  0  0
 30 29  1  0  0  0  0
 32 38  1  0  0  0  0
 32 34  2  0  0  0  0
 33 36  1  0  0  0  0
 35 34  1  1  0  0  0
 35 39  1  0  0  0  0
 36 32  1  0  0  0  0
 37 31  1  6  0  0  0
 37 45  1  0  0  0  0
 39 37  1  0  0  0  0
 40 36  2  0  0  0  0
 40 41  1  0  0  0  0
 41 42  1  0  0  0  0
 41 35  1  0  0  0  0
 41 39  1  0  0  0  0
 42 39  1  0  0  0  0
 42 37  1  0  0  0  0
 44 45  2  0  0  0  0
 45 43  1  0  0  0  0
 46 42  1  0  0  0  0
 47 46  2  0  0  0  0
 48 58  2  0  0  0  0
 50 54  1  0  0  0  0
 50 56  1  0  0  0  0
 51 52  1  0  0  0  0
 51 55  1  0  0  0  0
 52 59  1  0  0  0  0
 53 51  1  0  0  0  0
 54 49  1  0  0  0  0
 54 46  1  0  0  0  0
 55 50  1  0  0  0  0
 57 48  1  0  0  0  0
 57 53  1  0  0  0  0
 58 52  1  0  0  0  0
 59 49  1  0  0  0  0
M  END
>  <MODEL>
9

>  <REMARK>
 VINA RESULT:      -5.6      2.466      3.935
  Name = 
  14 active torsions:
  status: ('A' for Active; 'I' for Inactive)
    1  A    between atoms: C_3  and  C_55
    2  A    between atoms: C_4  and  C_56
    3  A    between atoms: C_6  and  O_8
    4  A    between atoms: C_6  and  C_38
    5  A    between atoms: C_19  and  C_39
    6  A    between atoms: C_23  and  C_32
    7  A    between atoms: C_23  and  C_44
    8  A    between atoms: C_32  and  C_38
    9  A    between atoms: C_32  and  N_58
   10  A    between atoms: C_33  and  C_44
   11  A    between atoms: C_33  and  C_45
   12  A    between atoms: C_36  and  O_51
   13  A    between atoms: C_39  and  C_54
   14  A    between atoms: C_53  and  C_56
                            x       y       z     vdW  Elec       q    Type
                         _______ _______ _______ _____ _____    ______ ____

>  <TORSDO>
F 14

$$$$
