=
 OpenBabel11062420193D

 61 67  0  0  1  0  0  0  0  0999 V2000
  197.8440  170.6920  144.3760 C   0  0  0  0  0  2  0  0  0  0  0  0
  197.1770  174.0330  143.8920 C   0  0  2  0  0  3  0  0  0  0  0  0
  197.0600  175.5280  142.0510 C   0  0  1  0  0  3  0  0  0  0  0  0
  197.0660  169.7030  142.3220 C   0  0  2  0  0  3  0  0  0  0  0  0
  195.1070  169.8910  140.7570 C   0  0  0  0  0  2  0  0  0  0  0  0
  194.5910  171.1380  141.1160 O   0  0  0  0  0  0  0  0  0  0  0  0
  193.4760  172.9810  140.0610 C   0  0  1  0  0  3  0  0  0  0  0  0
  196.9640  170.9540  143.1800 C   0  0  2  0  0  3  0  0  0  0  0  0
  197.3080  175.1160  143.2300 C   0  0  0  0  0  2  0  0  0  0  0  0
  197.4690  172.1020  142.4410 N   0  0  0  0  0  2  0  0  0  0  0  0
  197.9410  169.1850  144.4320 C   0  0  0  0  0  2  0  0  0  0  0  0
  193.7640  171.4860  140.0460 C   0  0  0  0  0  2  0  0  0  0  0  0
  195.1090  174.4960  141.1460 C   0  0  2  0  0  3  0  0  0  0  0  0
  195.6800  169.1770  141.9750 C   0  0  0  0  0  2  0  0  0  0  0  0
  196.5550  174.2170  141.5330 C   0  0  2  0  0  3  0  0  0  0  0  0
  194.7510  173.7850  139.8530 C   0  0  0  0  0  2  0  0  0  0  0  0
  197.8000  168.6850  143.0720 N   0  0  0  0  0  2  0  0  0  0  0  0
  196.6020  173.2300  142.7530 C   0  0  2  0  0  3  0  0  0  0  0  0
  194.9830  176.0060  140.9780 C   0  0  0  0  0  2  0  0  0  0  0  0
  196.0910  176.6310  141.8160 C   0  0  0  0  0  2  0  0  0  0  0  0
  192.4290  173.3450  139.0160 C   0  0  0  0  0  2  0  0  0  0  0  0
  191.3970  172.3170  138.9260 N   0  0  0  0  0  0  0  0  0  0  0  0
  191.6940  172.0980  135.2830 N   0  0  0  0  0  2  0  0  0  0  0  0
  190.2990  172.0880  134.8520 C   0  0  0  0  0  2  0  0  0  0  0  0
  190.0630  171.0770  137.1790 C   0  0  0  0  0  2  0  0  0  0  0  0
  189.4500  171.2150  135.7820 C   0  0  0  0  0  2  0  0  0  0  0  0
  191.7990  172.8390  136.5400 C   0  0  0  0  0  2  0  0  0  0  0  0
  190.7820  172.3700  137.5920 C   0  0  2  0  0  3  0  0  0  0  0  0
  190.4120  172.5800  139.9710 C   0  0  0  0  0  2  0  0  0  0  0  0
  190.1220  174.0040  140.0110 N   0  0  0  0  0  2  0  0  0  0  0  0
  190.1370  174.4050  141.4050 C   0  0  0  0  0  2  0  0  0  0  0  0
  188.7730  174.1530  142.0350 C   0  0  0  0  0  2  0  0  0  0  0  0
  186.1120  176.6170  143.1390 C   0  0  0  0  0  3  0  0  0  0  0  0
  185.8280  179.3300  143.0230 Cl  0  0  0  0  0  0  0  0  0  0  0  0
  188.5980  176.6450  141.8640 C   0  0  0  0  0  3  0  0  0  0  0  0
  188.0330  175.4300  142.2660 C   0  0  0  0  0  0  0  0  0  0  0  0
  187.9190  177.8450  142.0950 C   0  0  0  0  0  3  0  0  0  0  0  0
  186.7910  175.4170  142.9080 C   0  0  0  0  0  3  0  0  0  0  0  0
  186.6770  177.8300  142.7320 C   0  0  0  0  0  0  0  0  0  0  0  0
  196.5780  173.9990  145.2660 C   0  0  0  0  0  2  0  0  0  0  0  0
  194.0910  173.8140  144.6660 N   0  0  0  0  0  0  0  0  0  0  0  0
  195.1760  172.1890  145.9500 O   0  0  0  0  0  0  0  0  0  0  0  0
  194.6360  176.0630  145.1040 O   0  0  0  0  0  0  0  0  0  0  0  0
  193.8480  175.2360  144.5700 C   0  0  0  0  0  0  0  0  0  0  0  0
  195.2570  173.2780  145.3210 C   0  0  0  0  0  0  0  0  0  0  0  0
  193.1010  172.8790  144.1420 C   0  0  0  0  0  2  0  0  0  0  0  0
  191.8130  172.9640  144.9550 C   0  0  0  0  0  2  0  0  0  0  0  0
  189.6360  172.0090  144.8600 O   0  0  0  0  0  0  0  0  0  0  0  0
  190.7810  172.0830  144.3460 C   0  0  0  0  0  0  0  0  0  0  0  0
  191.0800  171.3380  143.1740 N   0  0  0  0  0  1  0  0  0  0  0  0
  192.6280  175.7580  143.8790 C   0  0  0  0  0  2  0  0  0  0  0  0
  192.1740  177.0570  144.5110 C   0  0  0  0  0  2  0  0  0  0  0  0
  190.8380  176.8770  145.1460 C   0  0  0  0  0  0  0  0  0  0  0  0
  188.6190  177.7130  145.6480 C   0  0  0  0  0  3  0  0  0  0  0  0
  189.8670  177.8780  145.0370 C   0  0  0  0  0  3  0  0  0  0  0  0
  189.0460  174.3700  147.1870 O   0  0  0  0  0  1  0  0  0  0  0  0
  189.3110  175.5400  146.4820 C   0  0  0  0  0  0  0  0  0  0  0  0
  190.5590  175.7110  145.8750 C   0  0  0  0  0  3  0  0  0  0  0  0
  188.3390  176.5470  146.3720 C   0  0  0  0  0  0  0  0  0  0  0  0
  186.9930  176.3770  146.9880 C   0  0  0  0  0  2  0  0  0  0  0  0
  186.4470  177.6790  147.3450 N   0  0  0  0  0  1  0  0  0  0  0  0
  1 11  1  0  0  0  0
  2 40  1  1  0  0  0
  3 20  1  1  0  0  0
  3  9  1  0  0  0  0
  4 14  1  1  0  0  0
  4 17  1  0  0  0  0
  4  8  1  0  0  0  0
  5  6  1  0  0  0  0
  5 14  1  0  0  0  0
  7 21  1  6  0  0  0
  8  1  1  1  0  0  0
  9  2  1  0  0  0  0
 10 18  1  0  0  0  0
 10  8  1  0  0  0  0
 12  7  1  0  0  0  0
 12  6  1  0  0  0  0
 13 16  1  6  0  0  0
 13 15  1  0  0  0  0
 15  3  1  0  0  0  0
 15 18  1  0  0  0  0
 16  7  1  0  0  0  0
 17 11  1  0  0  0  0
 18  2  1  0  0  0  0
 19 13  1  0  0  0  0
 19 20  1  0  0  0  0
 22 21  1  0  0  0  0
 22 29  1  0  0  0  0
 23 27  1  0  0  0  0
 24 23  1  0  0  0  0
 24 26  1  0  0  0  0
 25 28  1  0  0  0  0
 26 25  1  0  0  0  0
 27 28  1  0  0  0  0
 28 22  1  0  0  0  0
 29 30  1  0  0  0  0
 30 31  1  0  0  0  0
 31 32  1  0  0  0  0
 32 36  1  0  0  0  0
 35 37  2  0  0  0  0
 35 36  1  0  0  0  0
 36 38  2  0  0  0  0
 37 39  1  0  0  0  0
 38 33  1  0  0  0  0
 39 34  1  0  0  0  0
 39 33  2  0  0  0  0
 40 45  1  0  0  0  0
 41 45  1  0  0  0  0
 44 41  1  0  0  0  0
 44 43  2  0  0  0  0
 45 42  2  0  0  0  0
 46 41  1  0  0  0  0
 46 47  1  0  0  0  0
 49 48  2  0  0  0  0
 49 47  1  0  0  0  0
 50 49  1  0  0  0  0
 51 52  1  0  0  0  0
 51 44  1  0  0  0  0
 52 53  1  0  0  0  0
 53 58  1  0  0  0  0
 54 59  2  0  0  0  0
 55 53  2  0  0  0  0
 55 54  1  0  0  0  0
 57 56  1  0  0  0  0
 58 57  2  0  0  0  0
 59 57  1  0  0  0  0
 59 60  1  0  0  0  0
 60 61  1  0  0  0  0
M  END
>  <MODEL>
1

>  <REMARK>
 VINA RESULT:      -6.8      0.000      0.000
  Name = 
  17 active torsions:
  status: ('A' for Active; 'I' for Inactive)
    1  A    between atoms: C_1  and  C_35
    2  A    between atoms: N_2  and  C_55
    3  A    between atoms: C_5  and  C_6
    4  A    between atoms: C_5  and  C_57
    5  A    between atoms: N_10  and  C_22
    6  A    between atoms: N_10  and  C_23
    7  A    between atoms: N_10  and  C_59
    8  A    between atoms: C_15  and  C_22
    9  A    between atoms: N_21  and  C_23
   10  A    between atoms: N_21  and  C_61
   11  A    between atoms: C_24  and  C_51
   12  A    between atoms: C_24  and  C_55
   13  A    between atoms: C_31  and  C_35
   14  A    between atoms: C_31  and  C_45
   15  A    between atoms: C_34  and  C_44
   16  A    between atoms: C_34  and  C_61
   17  A    between atoms: C_48  and  C_53
                            x       y       z     vdW  Elec       q    Type
                         _______ _______ _______ _____ _____    ______ ____

>  <TORSDO>
F 17

$$$$
=
 OpenBabel11062420193D

 61 67  0  0  1  0  0  0  0  0999 V2000
  196.2560  170.0460  144.1460 C   0  0  0  0  0  2  0  0  0  0  0  0
  193.4420  169.9390  142.1700 C   0  0  2  0  0  3  0  0  0  0  0  0
  191.1420  170.4840  142.3970 C   0  0  1  0  0  3  0  0  0  0  0  0
  195.8020  171.9130  145.5980 C   0  0  2  0  0  3  0  0  0  0  0  0
  194.8630  174.2420  145.4450 C   0  0  0  0  0  2  0  0  0  0  0  0
  194.1800  174.1790  144.2300 O   0  0  0  0  0  0  0  0  0  0  0  0
  192.2040  175.1150  143.2430 C   0  0  1  0  0  3  0  0  0  0  0  0
  195.3870  171.2700  144.2840 C   0  0  2  0  0  3  0  0  0  0  0  0
  192.1770  169.8420  142.0270 C   0  0  0  0  0  2  0  0  0  0  0  0
  193.9880  170.8750  144.3470 N   0  0  0  0  0  2  0  0  0  0  0  0
  197.4430  170.3410  145.0330 C   0  0  0  0  0  2  0  0  0  0  0  0
  193.3180  175.2780  144.2660 C   0  0  0  0  0  2  0  0  0  0  0  0
  191.5590  172.8280  142.5410 C   0  0  2  0  0  3  0  0  0  0  0  0
  196.1250  173.3870  145.3950 C   0  0  0  0  0  2  0  0  0  0  0  0
  191.8760  171.5010  143.2160 C   0  0  2  0  0  3  0  0  0  0  0  0
  191.3290  173.9160  143.5750 C   0  0  0  0  0  2  0  0  0  0  0  0
  196.9860  171.2190  146.1010 N   0  0  0  0  0  2  0  0  0  0  0  0
  193.4000  171.1640  143.0470 C   0  0  2  0  0  3  0  0  0  0  0  0
  190.3020  172.6080  141.7070 C   0  0  0  0  0  2  0  0  0  0  0  0
  190.2390  171.1170  141.4000 C   0  0  0  0  0  2  0  0  0  0  0  0
  191.3680  176.3850  143.1400 C   0  0  0  0  0  2  0  0  0  0  0  0
  190.1610  176.2870  143.9550 N   0  0  0  0  0  0  0  0  0  0  0  0
  188.6430  178.4470  141.4170 N   0  0  0  0  0  2  0  0  0  0  0  0
  187.3690  177.7820  141.1570 C   0  0  0  0  0  2  0  0  0  0  0  0
  188.7760  175.7930  141.9040 C   0  0  0  0  0  2  0  0  0  0  0  0
  187.5500  176.2610  141.1140 C   0  0  0  0  0  2  0  0  0  0  0  0
  189.0520  178.1720  142.7940 C   0  0  0  0  0  2  0  0  0  0  0  0
  189.0000  176.6760  143.1410 C   0  0  2  0  0  3  0  0  0  0  0  0
  190.3230  177.1780  145.1010 C   0  0  0  0  0  2  0  0  0  0  0  0
  189.9400  176.4750  146.3140 N   0  0  0  0  0  2  0  0  0  0  0  0
  188.8630  177.2300  146.9240 C   0  0  0  0  0  2  0  0  0  0  0  0
  187.5770  176.4150  146.9020 C   0  0  0  0  0  2  0  0  0  0  0  0
  185.2500  177.3700  144.0650 C   0  0  0  0  0  3  0  0  0  0  0  0
  183.2040  179.1520  143.7670 Cl  0  0  0  0  0  0  0  0  0  0  0  0
  185.7260  178.0920  146.7220 C   0  0  0  0  0  3  0  0  0  0  0  0
  186.5080  177.1010  146.1170 C   0  0  0  0  0  0  0  0  0  0  0  0
  184.7110  178.7240  145.9990 C   0  0  0  0  0  3  0  0  0  0  0  0
  186.2660  176.7380  144.7880 C   0  0  0  0  0  3  0  0  0  0  0  0
  184.4740  178.3630  144.6710 C   0  0  0  0  0  0  0  0  0  0  0  0
  194.3920  169.8230  141.0160 C   0  0  0  0  0  2  0  0  0  0  0  0
  194.1080  171.9580  139.6220 N   0  0  0  0  0  0  0  0  0  0  0  0
  196.0180  171.5700  140.9110 O   0  0  0  0  0  0  0  0  0  0  0  0
  193.2190  170.1200  138.4470 O   0  0  0  0  0  0  0  0  0  0  0  0
  193.2610  171.3700  138.6070 C   0  0  0  0  0  0  0  0  0  0  0  0
  194.8930  171.1540  140.5240 C   0  0  0  0  0  0  0  0  0  0  0  0
  194.2280  173.4100  139.7040 C   0  0  0  0  0  2  0  0  0  0  0  0
  195.1010  173.9330  138.5680 C   0  0  0  0  0  2  0  0  0  0  0  0
  196.5130  174.6260  140.3530 O   0  0  0  0  0  0  0  0  0  0  0  0
  196.2330  174.7170  139.1310 C   0  0  0  0  0  0  0  0  0  0  0  0
  197.0090  175.5550  138.2870 N   0  0  0  0  0  1  0  0  0  0  0  0
  192.4560  172.2340  137.6890 C   0  0  0  0  0  2  0  0  0  0  0  0
  191.0160  172.3070  138.1540 C   0  0  0  0  0  2  0  0  0  0  0  0
  190.2500  173.2530  137.2960 C   0  0  0  0  0  0  0  0  0  0  0  0
  189.9770  174.4410  135.2010 C   0  0  0  0  0  3  0  0  0  0  0  0
  190.6900  173.5400  135.9990 C   0  0  0  0  0  3  0  0  0  0  0  0
  187.2280  175.3710  137.5060 O   0  0  0  0  0  1  0  0  0  0  0  0
  188.3780  174.7740  136.9990 C   0  0  0  0  0  0  0  0  0  0  0  0
  189.0970  173.8770  137.7960 C   0  0  0  0  0  3  0  0  0  0  0  0
  188.8230  175.0610  135.6980 C   0  0  0  0  0  0  0  0  0  0  0  0
  188.0600  175.9940  134.8220 C   0  0  0  0  0  2  0  0  0  0  0  0
  188.0810  177.3330  135.3930 N   0  0  0  0  0  1  0  0  0  0  0  0
  1 11  1  0  0  0  0
  2 40  1  6  0  0  0
  2 18  1  0  0  0  0
  3 20  1  6  0  0  0
  3 15  1  0  0  0  0
  4 14  1  6  0  0  0
  4 17  1  0  0  0  0
  6 12  1  0  0  0  0
  6  5  1  0  0  0  0
  7 21  1  1  0  0  0
  7 16  1  0  0  0  0
  7 12  1  0  0  0  0
  8  1  1  1  0  0  0
  8 10  1  0  0  0  0
  8  4  1  0  0  0  0
  9  2  1  0  0  0  0
  9  3  1  0  0  0  0
 11 17  1  0  0  0  0
 13 19  1  1  0  0  0
 13 15  1  0  0  0  0
 13 16  1  0  0  0  0
 14  5  1  0  0  0  0
 18 15  1  0  0  0  0
 18 10  1  0  0  0  0
 20 19  1  0  0  0  0
 21 22  1  0  0  0  0
 22 29  1  0  0  0  0
 23 27  1  0  0  0  0
 24 23  1  0  0  0  0
 25 28  1  0  0  0  0
 26 24  1  0  0  0  0
 26 25  1  0  0  0  0
 27 28  1  0  0  0  0
 28 22  1  0  0  0  0
 29 30  1  0  0  0  0
 30 31  1  0  0  0  0
 32 31  1  0  0  0  0
 33 39  2  0  0  0  0
 33 38  1  0  0  0  0
 34 39  1  0  0  0  0
 36 35  1  0  0  0  0
 36 32  1  0  0  0  0
 37 35  2  0  0  0  0
 38 36  2  0  0  0  0
 39 37  1  0  0  0  0
 41 46  1  0  0  0  0
 41 45  1  0  0  0  0
 43 44  2  0  0  0  0
 44 41  1  0  0  0  0
 45 42  2  0  0  0  0
 45 40  1  0  0  0  0
 47 49  1  0  0  0  0
 47 46  1  0  0  0  0
 49 48  2  0  0  0  0
 50 49  1  0  0  0  0
 51 52  1  0  0  0  0
 51 44  1  0  0  0  0
 53 58  1  0  0  0  0
 53 52  1  0  0  0  0
 54 59  2  0  0  0  0
 54 55  1  0  0  0  0
 55 53  2  0  0  0  0
 57 56  1  0  0  0  0
 57 58  2  0  0  0  0
 59 57  1  0  0  0  0
 60 61  1  0  0  0  0
 60 59  1  0  0  0  0
M  END
>  <MODEL>
2

>  <REMARK>
 VINA RESULT:      -6.1      2.674      6.898
  Name = 
  17 active torsions:
  status: ('A' for Active; 'I' for Inactive)
    1  A    between atoms: C_1  and  C_35
    2  A    between atoms: N_2  and  C_55
    3  A    between atoms: C_5  and  C_6
    4  A    between atoms: C_5  and  C_57
    5  A    between atoms: N_10  and  C_22
    6  A    between atoms: N_10  and  C_23
    7  A    between atoms: N_10  and  C_59
    8  A    between atoms: C_15  and  C_22
    9  A    between atoms: N_21  and  C_23
   10  A    between atoms: N_21  and  C_61
   11  A    between atoms: C_24  and  C_51
   12  A    between atoms: C_24  and  C_55
   13  A    between atoms: C_31  and  C_35
   14  A    between atoms: C_31  and  C_45
   15  A    between atoms: C_34  and  C_44
   16  A    between atoms: C_34  and  C_61
   17  A    between atoms: C_48  and  C_53
                            x       y       z     vdW  Elec       q    Type
                         _______ _______ _______ _____ _____    ______ ____

>  <TORSDO>
F 17

$$$$
=
 OpenBabel11062420193D

 61 67  0  0  1  0  0  0  0  0999 V2000
  196.6240  173.0830  137.9110 C   0  0  0  0  0  2  0  0  0  0  0  0
  197.3850  174.5220  140.9420 C   0  0  2  0  0  3  0  0  0  0  0  0
  196.7380  176.4610  142.1510 C   0  0  1  0  0  3  0  0  0  0  0  0
  194.3430  173.7720  137.5650 C   0  0  2  0  0  3  0  0  0  0  0  0
  192.2130  173.9890  138.8850 C   0  0  0  0  0  2  0  0  0  0  0  0
  192.7030  173.9880  140.1920 O   0  0  0  0  0  0  0  0  0  0  0  0
  192.1500  174.9760  142.3070 C   0  0  1  0  0  3  0  0  0  0  0  0
  195.4150  173.6200  138.6330 C   0  0  2  0  0  3  0  0  0  0  0  0
  197.4970  175.5430  141.6990 C   0  0  0  0  0  2  0  0  0  0  0  0
  195.7250  174.9200  139.2090 N   0  0  0  0  0  2  0  0  0  0  0  0
  196.0520  172.4470  136.6660 C   0  0  0  0  0  2  0  0  0  0  0  0
  191.6470  174.4970  140.9520 C   0  0  0  0  0  2  0  0  0  0  0  0
  194.5170  175.6730  142.5190 C   0  0  2  0  0  3  0  0  0  0  0  0
  193.0560  173.0810  137.9960 C   0  0  0  0  0  2  0  0  0  0  0  0
  195.5090  176.0200  141.4180 C   0  0  2  0  0  3  0  0  0  0  0  0
  193.1190  176.1370  142.1500 C   0  0  0  0  0  2  0  0  0  0  0  0
  194.8310  173.1640  136.3280 N   0  0  0  0  0  2  0  0  0  0  0  0
  195.9220  174.7210  140.6380 C   0  0  2  0  0  3  0  0  0  0  0  0
  194.9990  176.3770  143.7820 C   0  0  0  0  0  2  0  0  0  0  0  0
  196.4960  176.6030  143.6100 C   0  0  0  0  0  2  0  0  0  0  0  0
  190.9870  175.3590  143.2150 C   0  0  0  0  0  2  0  0  0  0  0  0
  191.0060  176.7860  143.5190 N   0  0  0  0  0  0  0  0  0  0  0  0
  189.5920  176.6320  146.8940 N   0  0  0  0  0  2  0  0  0  0  0  0
  190.7670  176.8340  147.7380 C   0  0  0  0  0  2  0  0  0  0  0  0
  191.8590  175.8000  145.6800 C   0  0  0  0  0  2  0  0  0  0  0  0
  191.9710  176.0660  147.1850 C   0  0  0  0  0  2  0  0  0  0  0  0
  189.8010  177.3140  145.6160 C   0  0  0  0  0  2  0  0  0  0  0  0
  191.1510  176.9650  144.9710 C   0  0  2  0  0  3  0  0  0  0  0  0
  189.7520  177.3610  143.0400 C   0  0  0  0  0  2  0  0  0  0  0  0
  188.9100  176.3030  142.5080 N   0  0  0  0  0  2  0  0  0  0  0  0
  187.8830  176.9370  141.7040 C   0  0  0  0  0  2  0  0  0  0  0  0
  186.5060  176.6100  142.2650 C   0  0  0  0  0  2  0  0  0  0  0  0
  186.0510  177.0970  145.9980 C   0  0  0  0  0  3  0  0  0  0  0  0
  185.6930  179.2550  147.6310 Cl  0  0  0  0  0  0  0  0  0  0  0  0
  186.1630  178.6490  143.6770 C   0  0  0  0  0  3  0  0  0  0  0  0
  186.2880  177.2580  143.5930 C   0  0  0  0  0  0  0  0  0  0  0  0
  185.9780  179.2640  144.9190 C   0  0  0  0  0  3  0  0  0  0  0  0
  186.2360  176.4820  144.7560 C   0  0  0  0  0  3  0  0  0  0  0  0
  185.9220  178.4870  146.0780 C   0  0  0  0  0  0  0  0  0  0  0  0
  197.9410  173.1810  141.3140 C   0  0  0  0  0  2  0  0  0  0  0  0
  196.8220  171.3630  142.7360 N   0  0  0  0  0  0  0  0  0  0  0  0
  197.5210  173.3940  143.6570 O   0  0  0  0  0  0  0  0  0  0  0  0
  195.8080  171.4440  140.6110 O   0  0  0  0  0  0  0  0  0  0  0  0
  196.0350  170.7910  141.6650 C   0  0  0  0  0  0  0  0  0  0  0  0
  197.4230  172.6680  142.6310 C   0  0  0  0  0  0  0  0  0  0  0  0
  196.9660  170.6320  143.9900 C   0  0  0  0  0  2  0  0  0  0  0  0
  195.8090  170.9600  144.9290 C   0  0  0  0  0  2  0  0  0  0  0  0
  194.6560  169.1050  145.8710 O   0  0  0  0  0  0  0  0  0  0  0  0
  195.6530  169.8690  145.9280 C   0  0  0  0  0  0  0  0  0  0  0  0
  196.6360  169.6760  146.9330 N   0  0  0  0  0  1  0  0  0  0  0  0
  195.4270  169.4310  141.8060 C   0  0  0  0  0  2  0  0  0  0  0  0
  194.2750  169.2610  140.8380 C   0  0  0  0  0  2  0  0  0  0  0  0
  193.0610  169.9460  141.3640 C   0  0  0  0  0  0  0  0  0  0  0  0
  191.7620  170.7810  143.2320 C   0  0  0  0  0  3  0  0  0  0  0  0
  192.9100  170.1520  142.7400 C   0  0  0  0  0  3  0  0  0  0  0  0
  189.9260  171.4230  140.0770 O   0  0  0  0  0  1  0  0  0  0  0  0
  190.9070  170.9990  140.9690 C   0  0  0  0  0  0  0  0  0  0  0  0
  192.0540  170.3650  140.4810 C   0  0  0  0  0  3  0  0  0  0  0  0
  190.7590  171.2040  142.3510 C   0  0  0  0  0  0  0  0  0  0  0  0
  189.5580  171.9000  142.8920 C   0  0  0  0  0  2  0  0  0  0  0  0
  189.6470  171.9780  144.3430 N   0  0  0  0  0  1  0  0  0  0  0  0
  2 40  1  1  0  0  0
  2  9  1  0  0  0  0
  3  9  1  1  0  0  0
  3 20  1  0  0  0  0
  4 14  1  1  0  0  0
  4  8  1  0  0  0  0
  5  6  1  0  0  0  0
  6 12  1  0  0  0  0
  7 21  1  1  0  0  0
  8  1  1  6  0  0  0
  8 10  1  0  0  0  0
 10 18  1  0  0  0  0
 11  1  1  0  0  0  0
 12  7  1  0  0  0  0
 13 16  1  6  0  0  0
 13 19  1  0  0  0  0
 14  5  1  0  0  0  0
 15  3  1  0  0  0  0
 15 13  1  0  0  0  0
 16  7  1  0  0  0  0
 17 11  1  0  0  0  0
 17  4  1  0  0  0  0
 18  2  1  0  0  0  0
 18 15  1  0  0  0  0
 20 19  1  0  0  0  0
 21 22  1  0  0  0  0
 22 28  1  0  0  0  0
 23 24  1  0  0  0  0
 25 26  1  0  0  0  0
 26 24  1  0  0  0  0
 27 23  1  0  0  0  0
 28 27  1  0  0  0  0
 28 25  1  0  0  0  0
 29 22  1  0  0  0  0
 30 29  1  0  0  0  0
 31 32  1  0  0  0  0
 31 30  1  0  0  0  0
 32 36  1  0  0  0  0
 33 39  1  0  0  0  0
 35 37  1  0  0  0  0
 36 35  2  0  0  0  0
 36 38  1  0  0  0  0
 37 39  2  0  0  0  0
 38 33  2  0  0  0  0
 39 34  1  0  0  0  0
 40 45  1  0  0  0  0
 41 46  1  0  0  0  0
 43 44  2  0  0  0  0
 44 51  1  0  0  0  0
 44 41  1  0  0  0  0
 45 41  1  0  0  0  0
 45 42  2  0  0  0  0
 46 47  1  0  0  0  0
 47 49  1  0  0  0  0
 48 49  2  0  0  0  0
 49 50  1  0  0  0  0
 52 53  1  0  0  0  0
 52 51  1  0  0  0  0
 53 55  1  0  0  0  0
 55 54  2  0  0  0  0
 56 57  1  0  0  0  0
 57 59  2  0  0  0  0
 58 57  1  0  0  0  0
 58 53  2  0  0  0  0
 59 60  1  0  0  0  0
 59 54  1  0  0  0  0
 60 61  1  0  0  0  0
M  END
>  <MODEL>
3

>  <REMARK>
 VINA RESULT:      -6.0      2.525      6.274
  Name = 
  17 active torsions:
  status: ('A' for Active; 'I' for Inactive)
    1  A    between atoms: C_1  and  C_35
    2  A    between atoms: N_2  and  C_55
    3  A    between atoms: C_5  and  C_6
    4  A    between atoms: C_5  and  C_57
    5  A    between atoms: N_10  and  C_22
    6  A    between atoms: N_10  and  C_23
    7  A    between atoms: N_10  and  C_59
    8  A    between atoms: C_15  and  C_22
    9  A    between atoms: N_21  and  C_23
   10  A    between atoms: N_21  and  C_61
   11  A    between atoms: C_24  and  C_51
   12  A    between atoms: C_24  and  C_55
   13  A    between atoms: C_31  and  C_35
   14  A    between atoms: C_31  and  C_45
   15  A    between atoms: C_34  and  C_44
   16  A    between atoms: C_34  and  C_61
   17  A    between atoms: C_48  and  C_53
                            x       y       z     vdW  Elec       q    Type
                         _______ _______ _______ _____ _____    ______ ____

>  <TORSDO>
F 17

$$$$
=
 OpenBabel11062420193D

 61 67  0  0  1  0  0  0  0  0999 V2000
  184.2050  178.5000  143.2220 C   0  0  0  0  0  2  0  0  0  0  0  0
  187.2720  177.8420  141.8090 C   0  0  2  0  0  3  0  0  0  0  0  0
  189.5470  178.3030  142.3120 C   0  0  1  0  0  3  0  0  0  0  0  0
  184.7210  178.5800  145.5730 C   0  0  2  0  0  3  0  0  0  0  0  0
  186.0990  177.3090  147.2510 C   0  0  0  0  0  2  0  0  0  0  0  0
  186.9780  176.6210  146.4130 O   0  0  0  0  0  0  0  0  0  0  0  0
  189.2490  175.8480  146.4560 C   0  0  1  0  0  3  0  0  0  0  0  0
  185.2490  178.0960  144.2320 C   0  0  2  0  0  3  0  0  0  0  0  0
  188.4980  178.1350  141.6090 C   0  0  0  0  0  2  0  0  0  0  0  0
  186.5080  178.7600  143.9290 N   0  0  0  0  0  2  0  0  0  0  0  0
  182.9490  178.6650  144.0460 C   0  0  0  0  0  2  0  0  0  0  0  0
  188.0110  176.2150  147.2620 C   0  0  0  0  0  2  0  0  0  0  0  0
  189.5670  176.8800  144.2260 C   0  0  2  0  0  3  0  0  0  0  0  0
  184.7310  177.4490  146.5930 C   0  0  0  0  0  2  0  0  0  0  0  0
  188.8780  178.1030  143.6370 C   0  0  2  0  0  3  0  0  0  0  0  0
  189.7980  177.0580  145.7160 C   0  0  0  0  0  2  0  0  0  0  0  0
  183.3510  179.0560  145.3880 N   0  0  0  0  0  2  0  0  0  0  0  0
  187.3790  177.7690  143.3110 C   0  0  2  0  0  3  0  0  0  0  0  0
  190.8940  176.7270  143.4930 C   0  0  0  0  0  2  0  0  0  0  0  0
  190.7280  177.4170  142.1440 C   0  0  0  0  0  2  0  0  0  0  0  0
  190.3160  175.2270  147.3490 C   0  0  0  0  0  2  0  0  0  0  0  0
  191.0360  174.1670  146.6490 N   0  0  0  0  0  0  0  0  0  0  0  0
  193.8560  175.0490  144.4860 N   0  0  0  0  0  2  0  0  0  0  0  0
  194.8460  175.5380  145.4410 C   0  0  0  0  0  2  0  0  0  0  0  0
  192.6960  176.0660  146.7040 C   0  0  0  0  0  2  0  0  0  0  0  0
  194.1800  176.3990  146.5200 C   0  0  0  0  0  2  0  0  0  0  0  0
  193.0010  174.0630  145.1480 C   0  0  0  0  0  2  0  0  0  0  0  0
  192.4410  174.5670  146.4870 C   0  0  2  0  0  3  0  0  0  0  0  0
  190.3910  173.9690  145.3540 C   0  0  0  0  0  2  0  0  0  0  0  0
  189.9850  172.5790  145.2270 N   0  0  0  0  0  2  0  0  0  0  0  0
  189.6130  172.3670  143.8410 C   0  0  0  0  0  2  0  0  0  0  0  0
  190.6040  171.4230  143.1740 C   0  0  0  0  0  2  0  0  0  0  0  0
  192.1680  174.1640  141.0730 C   0  0  0  0  0  3  0  0  0  0  0  0
  194.4820  174.4180  139.6460 Cl  0  0  0  0  0  0  0  0  0  0  0  0
  192.7430  171.5520  141.8790 C   0  0  0  0  0  3  0  0  0  0  0  0
  191.5520  172.1620  142.2870 C   0  0  0  0  0  0  0  0  0  0  0  0
  193.6440  172.2450  141.0650 C   0  0  0  0  0  3  0  0  0  0  0  0
  191.2670  173.4710  141.8870 C   0  0  0  0  0  3  0  0  0  0  0  0
  193.3560  173.5500  140.6630 C   0  0  0  0  0  0  0  0  0  0  0  0
  186.5570  176.7920  141.0140 C   0  0  0  0  0  2  0  0  0  0  0  0
  187.1240  175.7370  138.7460 N   0  0  0  0  0  0  0  0  0  0  0  0
  186.7140  178.0270  138.9760 O   0  0  0  0  0  0  0  0  0  0  0  0
  188.3920  174.7030  140.4400 O   0  0  0  0  0  0  0  0  0  0  0  0
  187.9160  174.6480  139.2740 C   0  0  0  0  0  0  0  0  0  0  0  0
  186.8000  176.9000  139.5320 C   0  0  0  0  0  0  0  0  0  0  0  0
  186.6880  175.6990  137.3540 C   0  0  0  0  0  2  0  0  0  0  0  0
  187.8660  175.9710  136.4230 C   0  0  0  0  0  2  0  0  0  0  0  0
  188.1790  177.9140  135.0870 O   0  0  0  0  0  0  0  0  0  0  0  0
  187.4520  176.9260  135.3610 C   0  0  0  0  0  0  0  0  0  0  0  0
  186.2450  176.7140  134.6430 N   0  0  0  0  0  1  0  0  0  0  0  0
  188.2320  173.4540  138.4300 C   0  0  0  0  0  2  0  0  0  0  0  0
  188.8580  172.3600  139.2690 C   0  0  0  0  0  2  0  0  0  0  0  0
  190.1790  171.9720  138.6990 C   0  0  0  0  0  0  0  0  0  0  0  0
  192.1310  172.5050  137.3660 C   0  0  0  0  0  3  0  0  0  0  0  0
  190.8990  172.8780  137.9140 C   0  0  0  0  0  3  0  0  0  0  0  0
  192.4270  169.0380  138.6430 O   0  0  0  0  0  1  0  0  0  0  0  0
  191.9260  170.3120  138.3900 C   0  0  0  0  0  0  0  0  0  0  0  0
  190.6920  170.6860  138.9300 C   0  0  0  0  0  3  0  0  0  0  0  0
  192.6460  171.2230  137.6000 C   0  0  0  0  0  0  0  0  0  0  0  0
  193.9750  170.8560  137.0350 C   0  0  0  0  0  2  0  0  0  0  0  0
  194.7440  172.0630  136.7620 N   0  0  0  0  0  1  0  0  0  0  0  0
  1 11  1  0  0  0  0
  2 40  1  6  0  0  0
  2 18  1  0  0  0  0
  3  9  1  6  0  0  0
  3 15  1  0  0  0  0
  4 14  1  1  0  0  0
  6  5  1  0  0  0  0
  6 12  1  0  0  0  0
  7 12  1  0  0  0  0
  7 21  1  1  0  0  0
  8  1  1  6  0  0  0
  8  4  1  0  0  0  0
  9  2  1  0  0  0  0
 10  8  1  0  0  0  0
 11 17  1  0  0  0  0
 13 19  1  6  0  0  0
 13 16  1  0  0  0  0
 14  5  1  0  0  0  0
 15 13  1  0  0  0  0
 16  7  1  0  0  0  0
 17  4  1  0  0  0  0
 18 15  1  0  0  0  0
 18 10  1  0  0  0  0
 20  3  1  0  0  0  0
 20 19  1  0  0  0  0
 22 21  1  0  0  0  0
 23 27  1  0  0  0  0
 23 24  1  0  0  0  0
 24 26  1  0  0  0  0
 26 25  1  0  0  0  0
 27 28  1  0  0  0  0
 28 22  1  0  0  0  0
 28 25  1  0  0  0  0
 29 22  1  0  0  0  0
 30 29  1  0  0  0  0
 31 30  1  0  0  0  0
 32 31  1  0  0  0  0
 33 38  1  0  0  0  0
 34 39  1  0  0  0  0
 35 36  1  0  0  0  0
 36 32  1  0  0  0  0
 37 35  2  0  0  0  0
 38 36  2  0  0  0  0
 39 37  1  0  0  0  0
 39 33  2  0  0  0  0
 41 44  1  0  0  0  0
 41 45  1  0  0  0  0
 42 45  2  0  0  0  0
 44 43  2  0  0  0  0
 45 40  1  0  0  0  0
 46 41  1  0  0  0  0
 47 46  1  0  0  0  0
 48 49  2  0  0  0  0
 49 47  1  0  0  0  0
 50 49  1  0  0  0  0
 51 52  1  0  0  0  0
 51 44  1  0  0  0  0
 53 58  1  0  0  0  0
 53 52  1  0  0  0  0
 54 59  2  0  0  0  0
 54 55  1  0  0  0  0
 55 53  2  0  0  0  0
 57 56  1  0  0  0  0
 57 58  2  0  0  0  0
 59 57  1  0  0  0  0
 60 59  1  0  0  0  0
 61 60  1  0  0  0  0
M  END
>  <MODEL>
4

>  <REMARK>
 VINA RESULT:      -5.7      3.524     10.264
  Name = 
  17 active torsions:
  status: ('A' for Active; 'I' for Inactive)
    1  A    between atoms: C_1  and  C_35
    2  A    between atoms: N_2  and  C_55
    3  A    between atoms: C_5  and  C_6
    4  A    between atoms: C_5  and  C_57
    5  A    between atoms: N_10  and  C_22
    6  A    between atoms: N_10  and  C_23
    7  A    between atoms: N_10  and  C_59
    8  A    between atoms: C_15  and  C_22
    9  A    between atoms: N_21  and  C_23
   10  A    between atoms: N_21  and  C_61
   11  A    between atoms: C_24  and  C_51
   12  A    between atoms: C_24  and  C_55
   13  A    between atoms: C_31  and  C_35
   14  A    between atoms: C_31  and  C_45
   15  A    between atoms: C_34  and  C_44
   16  A    between atoms: C_34  and  C_61
   17  A    between atoms: C_48  and  C_53
                            x       y       z     vdW  Elec       q    Type
                         _______ _______ _______ _____ _____    ______ ____

>  <TORSDO>
F 17

$$$$
=
 OpenBabel11062420193D

 61 67  0  0  1  0  0  0  0  0999 V2000
  192.1890  173.3270  135.6780 C   0  0  0  0  0  2  0  0  0  0  0  0
  190.6790  171.6330  138.2640 C   0  0  2  0  0  3  0  0  0  0  0  0
  190.9090  169.5180  139.3190 C   0  0  1  0  0  3  0  0  0  0  0  0
  194.4390  172.4700  135.7370 C   0  0  2  0  0  3  0  0  0  0  0  0
  196.2030  171.9060  137.4400 C   0  0  0  0  0  2  0  0  0  0  0  0
  195.4360  171.8060  138.6020 O   0  0  0  0  0  0  0  0  0  0  0  0
  195.4370  170.5380  140.6380 C   0  0  1  0  0  3  0  0  0  0  0  0
  193.1700  172.6000  136.5640 C   0  0  2  0  0  3  0  0  0  0  0  0
  190.3330  170.5480  138.8410 C   0  0  0  0  0  2  0  0  0  0  0  0
  192.6520  171.2790  136.8860 N   0  0  0  0  0  2  0  0  0  0  0  0
  193.0660  174.0420  134.6760 C   0  0  0  0  0  2  0  0  0  0  0  0
  196.2600  171.1170  139.4950 C   0  0  0  0  0  2  0  0  0  0  0  0
  193.0400  170.0470  140.2500 C   0  0  2  0  0  3  0  0  0  0  0  0
  195.6410  172.9830  136.5180 C   0  0  0  0  0  2  0  0  0  0  0  0
  192.2970  169.9210  138.9280 C   0  0  2  0  0  3  0  0  0  0  0  0
  194.4510  169.4990  140.1290 C   0  0  0  0  0  2  0  0  0  0  0  0
  194.2800  173.2560  134.5150 N   0  0  0  0  0  2  0  0  0  0  0  0
  192.1560  171.3330  138.2550 C   0  0  2  0  0  3  0  0  0  0  0  0
  192.2440  169.2540  141.2790 C   0  0  0  0  0  2  0  0  0  0  0  0
  190.8110  169.1910  140.7660 C   0  0  0  0  0  2  0  0  0  0  0  0
  196.3400  169.9480  141.7150 C   0  0  0  0  0  2  0  0  0  0  0  0
  196.5500  170.8970  142.8040 N   0  0  0  0  0  0  0  0  0  0  0  0
  196.5200  170.9480  146.4650 N   0  0  0  0  0  2  0  0  0  0  0  0
  195.9380  169.6500  146.7950 C   0  0  0  0  0  2  0  0  0  0  0  0
  194.8900  170.0510  144.5060 C   0  0  0  0  0  2  0  0  0  0  0  0
  194.7800  169.3190  145.8470 C   0  0  0  0  0  2  0  0  0  0  0  0
  197.2220  170.8450  145.1860 C   0  0  0  0  0  2  0  0  0  0  0  0
  196.3600  170.2050  144.0860 C   0  0  2  0  0  3  0  0  0  0  0  0
  195.5850  171.9820  142.6420 C   0  0  0  0  0  2  0  0  0  0  0  0
  196.2960  173.2440  142.5250 N   0  0  0  0  0  2  0  0  0  0  0  0
  195.4030  174.2840  143.0000 C   0  0  0  0  0  2  0  0  0  0  0  0
  194.9400  173.9670  144.4150 C   0  0  0  0  0  2  0  0  0  0  0  0
  192.3040  176.6920  144.4550 C   0  0  0  0  0  3  0  0  0  0  0  0
  190.0330  177.1570  145.8960 Cl  0  0  0  0  0  0  0  0  0  0  0  0
  192.8850  174.3150  145.8020 C   0  0  0  0  0  3  0  0  0  0  0  0
  193.7370  174.7690  144.7900 C   0  0  0  0  0  0  0  0  0  0  0  0
  191.7460  175.0500  146.1440 C   0  0  0  0  0  3  0  0  0  0  0  0
  193.4430  175.9570  144.1130 C   0  0  0  0  0  3  0  0  0  0  0  0
  191.4570  176.2380  145.4700 C   0  0  0  0  0  0  0  0  0  0  0  0
  190.1450  172.9700  138.6820 C   0  0  0  0  0  2  0  0  0  0  0  0
  190.1960  174.0440  141.0110 N   0  0  0  0  0  0  0  0  0  0  0  0
  192.1490  173.6620  139.7850 O   0  0  0  0  0  0  0  0  0  0  0  0
  188.3200  174.8240  139.8190 O   0  0  0  0  0  0  0  0  0  0  0  0
  188.8840  174.6470  140.9320 C   0  0  0  0  0  0  0  0  0  0  0  0
  190.8930  173.5730  139.8410 C   0  0  0  0  0  0  0  0  0  0  0  0
  190.8730  173.9620  142.3010 C   0  0  0  0  0  2  0  0  0  0  0  0
  191.4010  172.5500  142.5320 C   0  0  0  0  0  2  0  0  0  0  0  0
  191.5440  171.1500  144.4500 O   0  0  0  0  0  0  0  0  0  0  0  0
  190.9010  172.0390  143.8370 C   0  0  0  0  0  0  0  0  0  0  0  0
  189.7100  172.5670  144.4000 N   0  0  0  0  0  1  0  0  0  0  0  0
  188.1860  175.1230  142.1680 C   0  0  0  0  0  2  0  0  0  0  0  0
  187.4990  176.4480  141.9140 C   0  0  0  0  0  2  0  0  0  0  0  0
  186.8700  176.9470  143.1690 C   0  0  0  0  0  0  0  0  0  0  0  0
  186.3180  176.6390  145.5090 C   0  0  0  0  0  3  0  0  0  0  0  0
  186.9230  176.1760  144.3360 C   0  0  0  0  0  3  0  0  0  0  0  0
  184.9580  179.8840  144.3440 O   0  0  0  0  0  1  0  0  0  0  0  0
  185.6020  178.6500  144.3490 C   0  0  0  0  0  0  0  0  0  0  0  0
  186.2030  178.1810  143.1770 C   0  0  0  0  0  3  0  0  0  0  0  0
  185.6560  177.8740  145.5190 C   0  0  0  0  0  0  0  0  0  0  0  0
  185.0450  178.3640  146.7860 C   0  0  0  0  0  2  0  0  0  0  0  0
  185.8930  179.3890  147.3770 N   0  0  0  0  0  1  0  0  0  0  0  0
  2 40  1  1  0  0  0
  2  9  1  0  0  0  0
  3  9  1  1  0  0  0
  3 20  1  0  0  0  0
  4 14  1  1  0  0  0
  4  8  1  0  0  0  0
  5  6  1  0  0  0  0
  6 12  1  0  0  0  0
  7 21  1  1  0  0  0
  8  1  1  6  0  0  0
  8 10  1  0  0  0  0
 10 18  1  0  0  0  0
 11  1  1  0  0  0  0
 12  7  1  0  0  0  0
 13 16  1  6  0  0  0
 13 19  1  0  0  0  0
 14  5  1  0  0  0  0
 15  3  1  0  0  0  0
 15 13  1  0  0  0  0
 16  7  1  0  0  0  0
 17 11  1  0  0  0  0
 17  4  1  0  0  0  0
 18  2  1  0  0  0  0
 18 15  1  0  0  0  0
 20 19  1  0  0  0  0
 21 22  1  0  0  0  0
 22 28  1  0  0  0  0
 23 24  1  0  0  0  0
 25 26  1  0  0  0  0
 26 24  1  0  0  0  0
 27 23  1  0  0  0  0
 28 25  1  0  0  0  0
 28 27  1  0  0  0  0
 29 22  1  0  0  0  0
 30 29  1  0  0  0  0
 30 31  1  0  0  0  0
 31 32  1  0  0  0  0
 32 36  1  0  0  0  0
 33 39  1  0  0  0  0
 35 37  1  0  0  0  0
 36 35  2  0  0  0  0
 38 33  2  0  0  0  0
 38 36  1  0  0  0  0
 39 34  1  0  0  0  0
 39 37  2  0  0  0  0
 40 45  1  0  0  0  0
 41 46  1  0  0  0  0
 42 45  2  0  0  0  0
 43 44  2  0  0  0  0
 44 41  1  0  0  0  0
 44 51  1  0  0  0  0
 45 41  1  0  0  0  0
 46 47  1  0  0  0  0
 47 49  1  0  0  0  0
 49 50  1  0  0  0  0
 49 48  2  0  0  0  0
 52 51  1  0  0  0  0
 52 53  1  0  0  0  0
 53 58  2  0  0  0  0
 53 55  1  0  0  0  0
 54 59  1  0  0  0  0
 55 54  2  0  0  0  0
 56 57  1  0  0  0  0
 57 59  2  0  0  0  0
 58 57  1  0  0  0  0
 59 60  1  0  0  0  0
 60 61  1  0  0  0  0
M  END
>  <MODEL>
5

>  <REMARK>
 VINA RESULT:      -5.6      2.450      6.940
  Name = 
  17 active torsions:
  status: ('A' for Active; 'I' for Inactive)
    1  A    between atoms: C_1  and  C_35
    2  A    between atoms: N_2  and  C_55
    3  A    between atoms: C_5  and  C_6
    4  A    between atoms: C_5  and  C_57
    5  A    between atoms: N_10  and  C_22
    6  A    between atoms: N_10  and  C_23
    7  A    between atoms: N_10  and  C_59
    8  A    between atoms: C_15  and  C_22
    9  A    between atoms: N_21  and  C_23
   10  A    between atoms: N_21  and  C_61
   11  A    between atoms: C_24  and  C_51
   12  A    between atoms: C_24  and  C_55
   13  A    between atoms: C_31  and  C_35
   14  A    between atoms: C_31  and  C_45
   15  A    between atoms: C_34  and  C_44
   16  A    between atoms: C_34  and  C_61
   17  A    between atoms: C_48  and  C_53
                            x       y       z     vdW  Elec       q    Type
                         _______ _______ _______ _____ _____    ______ ____

>  <TORSDO>
F 17

$$$$
=
 OpenBabel11062420193D

 61 67  0  0  1  0  0  0  0  0999 V2000
  187.2680  178.0830  143.9030 C   0  0  0  0  0  2  0  0  0  0  0  0
  189.5500  175.8250  145.1400 C   0  0  2  0  0  3  0  0  0  0  0  0
  189.8390  173.4680  145.1280 C   0  0  1  0  0  3  0  0  0  0  0  0
  186.4700  176.9810  141.9160 C   0  0  2  0  0  3  0  0  0  0  0  0
  187.3960  175.6650  139.9830 C   0  0  0  0  0  2  0  0  0  0  0  0
  188.6380  175.2780  140.4880 O   0  0  0  0  0  0  0  0  0  0  0  0
  190.1370  173.4130  140.3120 C   0  0  1  0  0  3  0  0  0  0  0  0
  187.6060  176.9850  142.9260 C   0  0  2  0  0  3  0  0  0  0  0  0
  189.8550  174.6630  145.5690 C   0  0  0  0  0  2  0  0  0  0  0  0
  187.6540  175.7080  143.6210 N   0  0  0  0  0  2  0  0  0  0  0  0
  186.3230  178.9760  143.1330 C   0  0  0  0  0  2  0  0  0  0  0  0
  189.0370  174.2330  139.6520 C   0  0  0  0  0  2  0  0  0  0  0  0
  190.2770  173.3850  142.7850 C   0  0  2  0  0  3  0  0  0  0  0  0
  187.0150  177.0490  140.4960 C   0  0  0  0  0  2  0  0  0  0  0  0
  189.2260  173.8020  143.8030 C   0  0  2  0  0  3  0  0  0  0  0  0
  189.6290  172.7360  141.5750 C   0  0  0  0  0  2  0  0  0  0  0  0
  185.6200  178.1430  142.1680 N   0  0  0  0  0  2  0  0  0  0  0  0
  189.0590  175.3630  143.7930 C   0  0  2  0  0  3  0  0  0  0  0  0
  191.2030  172.3990  143.4880 C   0  0  0  0  0  2  0  0  0  0  0  0
  191.0970  172.6920  144.9800 C   0  0  0  0  0  2  0  0  0  0  0  0
  190.7110  172.3890  139.3400 C   0  0  0  0  0  2  0  0  0  0  0  0
  190.0870  171.0820  139.5250 N   0  0  0  0  0  0  0  0  0  0  0  0
  193.3420  170.3680  141.0430 N   0  0  0  0  0  2  0  0  0  0  0  0
  193.3130  168.9140  141.1840 C   0  0  0  0  0  2  0  0  0  0  0  0
  190.8190  169.4310  141.2870 C   0  0  0  0  0  2  0  0  0  0  0  0
  191.9320  168.4420  141.6500 C   0  0  0  0  0  2  0  0  0  0  0  0
  192.5120  170.7530  139.9020 C   0  0  0  0  0  2  0  0  0  0  0  0
  191.1130  170.1170  139.9440 C   0  0  2  0  0  3  0  0  0  0  0  0
  189.4840  170.6920  138.2540 C   0  0  0  0  0  2  0  0  0  0  0  0
  189.7120  171.7380  137.2710 N   0  0  0  0  0  2  0  0  0  0  0  0
  189.7180  171.1050  135.9660 C   0  0  0  0  0  2  0  0  0  0  0  0
  191.1450  170.7640  135.5590 C   0  0  0  0  0  2  0  0  0  0  0  0
  192.5490  174.1410  134.5620 C   0  0  0  0  0  3  0  0  0  0  0  0
  194.6020  175.7120  135.4410 Cl  0  0  0  0  0  0  0  0  0  0  0  0
  193.0610  172.1240  136.4250 C   0  0  0  0  0  3  0  0  0  0  0  0
  192.0080  171.9820  135.5150 C   0  0  0  0  0  0  0  0  0  0  0  0
  193.8600  173.2700  136.4020 C   0  0  0  0  0  3  0  0  0  0  0  0
  191.7500  172.9950  134.5850 C   0  0  0  0  0  3  0  0  0  0  0  0
  193.6040  174.2780  135.4700 C   0  0  0  0  0  0  0  0  0  0  0  0
  190.4680  177.0010  145.2880 C   0  0  0  0  0  2  0  0  0  0  0  0
  192.6780  176.2270  144.2420 N   0  0  0  0  0  0  0  0  0  0  0  0
  191.3670  177.8970  143.2640 O   0  0  0  0  0  0  0  0  0  0  0  0
  192.8820  176.2630  146.5880 O   0  0  0  0  0  0  0  0  0  0  0  0
  193.3080  175.8330  145.4830 C   0  0  0  0  0  0  0  0  0  0  0  0
  191.5150  177.0770  144.2090 C   0  0  0  0  0  0  0  0  0  0  0  0
  193.2660  175.8100  142.9730 C   0  0  0  0  0  2  0  0  0  0  0  0
  194.5930  176.5270  142.7450 C   0  0  0  0  0  2  0  0  0  0  0  0
  196.3250  176.4810  141.1160 O   0  0  0  0  0  0  0  0  0  0  0  0
  195.1760  176.0930  141.4470 C   0  0  0  0  0  0  0  0  0  0  0  0
  194.4460  175.2290  140.5900 N   0  0  0  0  0  1  0  0  0  0  0  0
  194.5130  174.9460  145.4800 C   0  0  0  0  0  2  0  0  0  0  0  0
  194.1290  173.5260  145.8400 C   0  0  0  0  0  2  0  0  0  0  0  0
  194.8430  172.5630  144.9550 C   0  0  0  0  0  0  0  0  0  0  0  0
  195.7920  170.3660  144.5730 C   0  0  0  0  0  3  0  0  0  0  0  0
  195.1070  171.2630  145.3990 C   0  0  0  0  0  3  0  0  0  0  0  0
  196.3580  172.4840  141.5850 O   0  0  0  0  0  1  0  0  0  0  0  0
  195.9530  172.0710  142.8500 C   0  0  0  0  0  0  0  0  0  0  0  0
  195.2730  172.9670  143.6820 C   0  0  0  0  0  3  0  0  0  0  0  0
  196.2180  170.7670  143.3000 C   0  0  0  0  0  0  0  0  0  0  0  0
  196.9180  169.7880  142.4220 C   0  0  0  0  0  2  0  0  0  0  0  0
  196.5390  168.4330  142.7980 N   0  0  0  0  0  1  0  0  0  0  0  0
  2 40  1  6  0  0  0
  2  9  1  0  0  0  0
  3 20  1  6  0  0  0
  3  9  1  0  0  0  0
  4 14  1  6  0  0  0
  4 17  1  0  0  0  0
  4  8  1  0  0  0  0
  5  6  1  0  0  0  0
  5 14  1  0  0  0  0
  7 21  1  6  0  0  0
  7 16  1  0  0  0  0
  8 10  1  0  0  0  0
  8  1  1  1  0  0  0
 10 18  1  0  0  0  0
 11  1  1  0  0  0  0
 12  7  1  0  0  0  0
 12  6  1  0  0  0  0
 13 16  1  6  0  0  0
 13 19  1  0  0  0  0
 13 15  1  0  0  0  0
 15  3  1  0  0  0  0
 17 11  1  0  0  0  0
 18 15  1  0  0  0  0
 18  2  1  0  0  0  0
 19 20  1  0  0  0  0
 21 22  1  0  0  0  0
 22 28  1  0  0  0  0
 23 24  1  0  0  0  0
 24 26  1  0  0  0  0
 25 26  1  0  0  0  0
 27 28  1  0  0  0  0
 27 23  1  0  0  0  0
 28 25  1  0  0  0  0
 29 22  1  0  0  0  0
 30 29  1  0  0  0  0
 31 30  1  0  0  0  0
 32 31  1  0  0  0  0
 33 38  2  0  0  0  0
 33 39  1  0  0  0  0
 34 39  1  0  0  0  0
 36 32  1  0  0  0  0
 36 35  2  0  0  0  0
 37 35  1  0  0  0  0
 38 36  1  0  0  0  0
 39 37  2  0  0  0  0
 41 44  1  0  0  0  0
 42 45  2  0  0  0  0
 44 43  2  0  0  0  0
 45 41  1  0  0  0  0
 45 40  1  0  0  0  0
 46 41  1  0  0  0  0
 47 46  1  0  0  0  0
 48 49  2  0  0  0  0
 49 47  1  0  0  0  0
 50 49  1  0  0  0  0
 51 44  1  0  0  0  0
 51 52  1  0  0  0  0
 53 55  1  0  0  0  0
 53 52  1  0  0  0  0
 54 55  2  0  0  0  0
 56 57  1  0  0  0  0
 57 59  2  0  0  0  0
 57 58  1  0  0  0  0
 58 53  2  0  0  0  0
 59 54  1  0  0  0  0
 60 61  1  0  0  0  0
 60 59  1  0  0  0  0
M  END
>  <MODEL>
6

>  <REMARK>
 VINA RESULT:      -5.6      2.727      8.193
  Name = 
  17 active torsions:
  status: ('A' for Active; 'I' for Inactive)
    1  A    between atoms: C_1  and  C_35
    2  A    between atoms: N_2  and  C_55
    3  A    between atoms: C_5  and  C_6
    4  A    between atoms: C_5  and  C_57
    5  A    between atoms: N_10  and  C_22
    6  A    between atoms: N_10  and  C_23
    7  A    between atoms: N_10  and  C_59
    8  A    between atoms: C_15  and  C_22
    9  A    between atoms: N_21  and  C_23
   10  A    between atoms: N_21  and  C_61
   11  A    between atoms: C_24  and  C_51
   12  A    between atoms: C_24  and  C_55
   13  A    between atoms: C_31  and  C_35
   14  A    between atoms: C_31  and  C_45
   15  A    between atoms: C_34  and  C_44
   16  A    between atoms: C_34  and  C_61
   17  A    between atoms: C_48  and  C_53
                            x       y       z     vdW  Elec       q    Type
                         _______ _______ _______ _____ _____    ______ ____

>  <TORSDO>
F 17

$$$$
=
 OpenBabel11062420193D

 61 67  0  0  1  0  0  0  0  0999 V2000
  195.5730  171.5990  135.2980 C   0  0  0  0  0  2  0  0  0  0  0  0
  192.4470  171.5210  136.7320 C   0  0  2  0  0  3  0  0  0  0  0  0
  191.1420  169.9640  137.9620 C   0  0  1  0  0  3  0  0  0  0  0  0
  196.8390  170.1310  136.7270 C   0  0  2  0  0  3  0  0  0  0  0  0
  197.1150  169.6590  139.1820 C   0  0  0  0  0  2  0  0  0  0  0  0
  195.9530  170.2320  139.7010 O   0  0  0  0  0  0  0  0  0  0  0  0
  194.4180  169.8390  141.5030 C   0  0  1  0  0  3  0  0  0  0  0  0
  195.5620  170.9520  136.6600 C   0  0  2  0  0  3  0  0  0  0  0  0
  191.4120  170.8870  137.1270 C   0  0  0  0  0  2  0  0  0  0  0  0
  194.4040  170.0780  136.7780 N   0  0  0  0  0  2  0  0  0  0  0  0
  197.0310  171.5840  134.9020 C   0  0  0  0  0  2  0  0  0  0  0  0
  195.8370  169.6740  140.9760 C   0  0  0  0  0  2  0  0  0  0  0  0
  192.5640  170.0570  139.8750 C   0  0  2  0  0  3  0  0  0  0  0  0
  197.6230  170.4620  137.9900 C   0  0  0  0  0  2  0  0  0  0  0  0
  192.5570  169.7240  138.3900 C   0  0  2  0  0  3  0  0  0  0  0  0
  193.4250  169.0720  140.6440 C   0  0  0  0  0  2  0  0  0  0  0  0
  197.6530  170.4400  135.5530 N   0  0  0  0  0  2  0  0  0  0  0  0
  193.4230  170.7710  137.6010 C   0  0  2  0  0  3  0  0  0  0  0  0
  191.1170  169.9860  140.3480 C   0  0  0  0  0  2  0  0  0  0  0  0
  190.2460  170.2200  139.1190 C   0  0  0  0  0  2  0  0  0  0  0  0
  194.3240  169.4050  142.9600 C   0  0  0  0  0  2  0  0  0  0  0  0
  195.3310  170.0780  143.7750 N   0  0  0  0  0  0  0  0  0  0  0  0
  197.1810  169.5180  146.8860 N   0  0  0  0  0  2  0  0  0  0  0  0
  196.3910  168.4770  147.5400 C   0  0  0  0  0  2  0  0  0  0  0  0
  194.5850  169.6070  146.1390 C   0  0  0  0  0  2  0  0  0  0  0  0
  194.8920  168.7480  147.3700 C   0  0  0  0  0  2  0  0  0  0  0  0
  197.0320  169.3870  145.4360 C   0  0  0  0  0  2  0  0  0  0  0  0
  195.5620  169.2940  144.9960 C   0  0  2  0  0  3  0  0  0  0  0  0
  194.8290  171.4120  144.0930 C   0  0  0  0  0  2  0  0  0  0  0  0
  195.9030  172.3790  143.9420 N   0  0  0  0  0  2  0  0  0  0  0  0
  195.3030  173.6980  143.9950 C   0  0  0  0  0  2  0  0  0  0  0  0
  193.8010  173.5970  143.7630 C   0  0  0  0  0  2  0  0  0  0  0  0
  191.9320  174.9290  146.7790 C   0  0  0  0  0  3  0  0  0  0  0  0
  190.8020  177.3240  147.4460 Cl  0  0  0  0  0  0  0  0  0  0  0  0
  192.7800  175.8250  144.2730 C   0  0  0  0  0  3  0  0  0  0  0  0
  193.0440  174.5100  144.6700 C   0  0  0  0  0  0  0  0  0  0  0  0
  192.0890  176.6910  145.1260 C   0  0  0  0  0  3  0  0  0  0  0  0
  192.6230  174.0630  145.9270 C   0  0  0  0  0  3  0  0  0  0  0  0
  191.6660  176.2420  146.3780 C   0  0  0  0  0  0  0  0  0  0  0  0
  192.4770  173.0150  136.6150 C   0  0  0  0  0  2  0  0  0  0  0  0
  193.0780  173.6400  139.0290 N   0  0  0  0  0  0  0  0  0  0  0  0
  194.4270  174.2550  137.2220 O   0  0  0  0  0  0  0  0  0  0  0  0
  190.7470  173.7970  138.7260 O   0  0  0  0  0  0  0  0  0  0  0  0
  191.7190  173.6830  139.5210 C   0  0  0  0  0  0  0  0  0  0  0  0
  193.3840  173.6720  137.6210 C   0  0  0  0  0  0  0  0  0  0  0  0
  194.1860  173.6290  139.9790 C   0  0  0  0  0  2  0  0  0  0  0  0
  194.4180  175.0290  140.5370 C   0  0  0  0  0  2  0  0  0  0  0  0
  196.3030  176.4350  140.8960 O   0  0  0  0  0  0  0  0  0  0  0  0
  195.8780  175.2720  140.6820 C   0  0  0  0  0  0  0  0  0  0  0  0
  196.7930  174.1890  140.5970 N   0  0  0  0  0  1  0  0  0  0  0  0
  191.4370  173.6450  140.9900 C   0  0  0  0  0  2  0  0  0  0  0  0
  189.9510  173.4930  141.2430 C   0  0  0  0  0  2  0  0  0  0  0  0
  189.4870  174.5320  142.2040 C   0  0  0  0  0  0  0  0  0  0  0  0
  188.9270  175.2040  144.4650 C   0  0  0  0  0  3  0  0  0  0  0  0
  189.3780  174.2310  143.5660 C   0  0  0  0  0  3  0  0  0  0  0  0
  188.3600  178.0520  142.1630 O   0  0  0  0  0  1  0  0  0  0  0  0
  188.6890  176.7860  142.6370 C   0  0  0  0  0  0  0  0  0  0  0  0
  189.1350  175.8090  141.7410 C   0  0  0  0  0  3  0  0  0  0  0  0
  188.5800  176.4800  144.0040 C   0  0  0  0  0  0  0  0  0  0  0  0
  188.1310  177.5120  144.9810 C   0  0  0  0  0  2  0  0  0  0  0  0
  187.1640  176.9300  145.9000 N   0  0  0  0  0  1  0  0  0  0  0  0
  2 40  1  1  0  0  0
  2  9  1  0  0  0  0
  2 18  1  0  0  0  0
  3  9  1  6  0  0  0
  3 15  1  0  0  0  0
  3 20  1  0  0  0  0
  4 14  1  1  0  0  0
  5  6  1  0  0  0  0
  6 12  1  0  0  0  0
  7 21  1  1  0  0  0
  8  1  1  6  0  0  0
  8  4  1  0  0  0  0
  8 10  1  0  0  0  0
 10 18  1  0  0  0  0
 11  1  1  0  0  0  0
 11 17  1  0  0  0  0
 12  7  1  0  0  0  0
 13 19  1  1  0  0  0
 13 16  1  0  0  0  0
 14  5  1  0  0  0  0
 15 13  1  0  0  0  0
 16  7  1  0  0  0  0
 17  4  1  0  0  0  0
 18 15  1  0  0  0  0
 20 19  1  0  0  0  0
 21 22  1  0  0  0  0
 22 29  1  0  0  0  0
 22 28  1  0  0  0  0
 23 24  1  0  0  0  0
 25 26  1  0  0  0  0
 26 24  1  0  0  0  0
 27 23  1  0  0  0  0
 28 27  1  0  0  0  0
 28 25  1  0  0  0  0
 30 31  1  0  0  0  0
 30 29  1  0  0  0  0
 32 31  1  0  0  0  0
 32 36  1  0  0  0  0
 35 36  2  0  0  0  0
 35 37  1  0  0  0  0
 36 38  1  0  0  0  0
 37 39  2  0  0  0  0
 38 33  2  0  0  0  0
 39 33  1  0  0  0  0
 39 34  1  0  0  0  0
 40 45  1  0  0  0  0
 41 44  1  0  0  0  0
 41 46  1  0  0  0  0
 42 45  2  0  0  0  0
 43 44  2  0  0  0  0
 44 51  1  0  0  0  0
 45 41  1  0  0  0  0
 46 47  1  0  0  0  0
 47 49  1  0  0  0  0
 49 48  2  0  0  0  0
 50 49  1  0  0  0  0
 51 52  1  0  0  0  0
 52 53  1  0  0  0  0
 53 55  1  0  0  0  0
 55 54  2  0  0  0  0
 56 57  1  0  0  0  0
 57 59  2  0  0  0  0
 58 53  2  0  0  0  0
 58 57  1  0  0  0  0
 59 54  1  0  0  0  0
 59 60  1  0  0  0  0
 60 61  1  0  0  0  0
M  END
>  <MODEL>
7

>  <REMARK>
 VINA RESULT:      -5.6      2.882      7.094
  Name = 
  17 active torsions:
  status: ('A' for Active; 'I' for Inactive)
    1  A    between atoms: C_1  and  C_35
    2  A    between atoms: N_2  and  C_55
    3  A    between atoms: C_5  and  C_6
    4  A    between atoms: C_5  and  C_57
    5  A    between atoms: N_10  and  C_22
    6  A    between atoms: N_10  and  C_23
    7  A    between atoms: N_10  and  C_59
    8  A    between atoms: C_15  and  C_22
    9  A    between atoms: N_21  and  C_23
   10  A    between atoms: N_21  and  C_61
   11  A    between atoms: C_24  and  C_51
   12  A    between atoms: C_24  and  C_55
   13  A    between atoms: C_31  and  C_35
   14  A    between atoms: C_31  and  C_45
   15  A    between atoms: C_34  and  C_44
   16  A    between atoms: C_34  and  C_61
   17  A    between atoms: C_48  and  C_53
                            x       y       z     vdW  Elec       q    Type
                         _______ _______ _______ _____ _____    ______ ____

>  <TORSDO>
F 17

$$$$
=
 OpenBabel11062420193D

 61 67  0  0  1  0  0  0  0  0999 V2000
  189.1040  172.4680  142.5970 C   0  0  0  0  0  2  0  0  0  0  0  0
  192.1050  171.2410  143.7500 C   0  0  2  0  0  3  0  0  0  0  0  0
  193.7370  169.6810  143.0140 C   0  0  1  0  0  3  0  0  0  0  0  0
  189.3730  172.3430  140.2080 C   0  0  2  0  0  3  0  0  0  0  0  0
  191.1330  172.8250  138.4760 C   0  0  0  0  0  2  0  0  0  0  0  0
  192.2860  172.8520  139.2620 O   0  0  0  0  0  0  0  0  0  0  0  0
  194.6070  172.2860  139.0460 C   0  0  1  0  0  3  0  0  0  0  0  0
  190.1470  172.3400  141.5160 C   0  0  2  0  0  3  0  0  0  0  0  0
  192.9840  170.3200  143.8190 C   0  0  0  0  0  2  0  0  0  0  0  0
  190.8580  171.0790  141.6670 N   0  0  0  0  0  2  0  0  0  0  0  0
  187.9180  173.0800  141.8880 C   0  0  0  0  0  2  0  0  0  0  0  0
  193.3290  172.7170  138.3420 C   0  0  0  0  0  2  0  0  0  0  0  0
  194.4270  171.0420  141.1810 C   0  0  2  0  0  3  0  0  0  0  0  0
  189.9430  173.3810  139.2500 C   0  0  0  0  0  2  0  0  0  0  0  0
  193.2170  170.3310  141.7690 C   0  0  2  0  0  3  0  0  0  0  0  0
  194.4490  170.9080  139.6690 C   0  0  0  0  0  2  0  0  0  0  0  0
  187.9760  172.6610  140.4950 N   0  0  0  0  0  2  0  0  0  0  0  0
  192.1570  171.3850  142.2500 C   0  0  2  0  0  3  0  0  0  0  0  0
  195.6610  170.3890  141.7940 C   0  0  0  0  0  2  0  0  0  0  0  0
  195.2170  169.7750  143.1160 C   0  0  0  0  0  2  0  0  0  0  0  0
  195.7930  172.3170  138.0900 C   0  0  0  0  0  2  0  0  0  0  0  0
  196.7000  173.4150  138.4120 N   0  0  0  0  0  0  0  0  0  0  0  0
  196.6660  173.6840  134.7600 N   0  0  0  0  0  2  0  0  0  0  0  0
  197.0050  175.0880  134.5440 C   0  0  0  0  0  2  0  0  0  0  0  0
  195.9190  175.2320  136.8450 C   0  0  0  0  0  2  0  0  0  0  0  0
  196.2880  175.9820  135.5620 C   0  0  0  0  0  2  0  0  0  0  0  0
  197.2770  173.2340  136.0110 C   0  0  0  0  0  2  0  0  0  0  0  0
  196.9820  174.1780  137.1880 C   0  0  2  0  0  3  0  0  0  0  0  0
  197.9210  172.8370  138.9670 C   0  0  0  0  0  2  0  0  0  0  0  0
  197.7490  172.6300  140.3950 N   0  0  0  0  0  2  0  0  0  0  0  0
  197.5210  173.9330  140.9920 C   0  0  0  0  0  2  0  0  0  0  0  0
  196.0280  174.1590  141.1930 C   0  0  0  0  0  2  0  0  0  0  0  0
  195.2260  176.4620  144.0960 C   0  0  0  0  0  3  0  0  0  0  0  0
  194.7540  176.1110  146.7620 Cl  0  0  0  0  0  0  0  0  0  0  0  0
  195.6270  173.7370  143.6280 C   0  0  0  0  0  3  0  0  0  0  0  0
  195.7300  174.6490  142.5720 C   0  0  0  0  0  0  0  0  0  0  0  0
  195.3290  174.1860  144.9170 C   0  0  0  0  0  3  0  0  0  0  0  0
  195.5250  176.0120  142.8060 C   0  0  0  0  0  3  0  0  0  0  0  0
  195.1280  175.5480  145.1500 C   0  0  0  0  0  0  0  0  0  0  0  0
  192.1150  172.4320  144.6600 C   0  0  0  0  0  2  0  0  0  0  0  0
  191.3670  174.8840  144.5640 N   0  0  0  0  0  0  0  0  0  0  0  0
  192.3910  173.8330  142.7450 O   0  0  0  0  0  0  0  0  0  0  0  0
  189.7940  173.6220  145.7820 O   0  0  0  0  0  0  0  0  0  0  0  0
  190.2820  174.7520  145.5120 C   0  0  0  0  0  0  0  0  0  0  0  0
  191.9720  173.7400  143.9290 C   0  0  0  0  0  0  0  0  0  0  0  0
  191.8290  176.2140  144.1820 C   0  0  0  0  0  2  0  0  0  0  0  0
  191.2330  176.6140  142.8360 C   0  0  0  0  0  2  0  0  0  0  0  0
  189.5640  178.2080  142.2630 O   0  0  0  0  0  0  0  0  0  0  0  0
  190.5770  177.9430  142.9580 C   0  0  0  0  0  0  0  0  0  0  0  0
  191.0810  178.9070  143.8710 N   0  0  0  0  0  1  0  0  0  0  0  0
  189.6790  175.9610  146.1550 C   0  0  0  0  0  2  0  0  0  0  0  0
  188.2920  175.6490  146.6780 C   0  0  0  0  0  2  0  0  0  0  0  0
  187.2850  176.5140  146.0030 C   0  0  0  0  0  0  0  0  0  0  0  0
  186.5410  177.7430  144.0510 C   0  0  0  0  0  3  0  0  0  0  0  0
  187.4800  176.9180  144.6780 C   0  0  0  0  0  3  0  0  0  0  0  0
  184.0730  178.1690  146.7830 O   0  0  0  0  0  1  0  0  0  0  0  0
  185.2030  177.7650  146.0780 C   0  0  0  0  0  0  0  0  0  0  0  0
  186.1480  176.9450  146.7030 C   0  0  0  0  0  3  0  0  0  0  0  0
  185.4030  178.1700  144.7480 C   0  0  0  0  0  0  0  0  0  0  0  0
  184.3980  179.0220  144.0530 C   0  0  0  0  0  2  0  0  0  0  0  0
  183.8790  178.3200  142.8880 N   0  0  0  0  0  1  0  0  0  0  0  0
  2  9  1  0  0  0  0
  2 40  1  1  0  0  0
  3 20  1  1  0  0  0
  3  9  1  0  0  0  0
  4 14  1  6  0  0  0
  4 17  1  0  0  0  0
  4  8  1  0  0  0  0
  5 14  1  0  0  0  0
  5  6  1  0  0  0  0
  7 21  1  6  0  0  0
  7 16  1  0  0  0  0
  8 10  1  0  0  0  0
  8  1  1  1  0  0  0
 10 18  1  0  0  0  0
 11  1  1  0  0  0  0
 12  7  1  0  0  0  0
 12  6  1  0  0  0  0
 13 16  1  6  0  0  0
 13 15  1  0  0  0  0
 13 19  1  0  0  0  0
 15 18  1  0  0  0  0
 15  3  1  0  0  0  0
 17 11  1  0  0  0  0
 18  2  1  0  0  0  0
 19 20  1  0  0  0  0
 21 22  1  0  0  0  0
 22 29  1  0  0  0  0
 23 27  1  0  0  0  0
 24 23  1  0  0  0  0
 24 26  1  0  0  0  0
 25 28  1  0  0  0  0
 26 25  1  0  0  0  0
 27 28  1  0  0  0  0
 28 22  1  0  0  0  0
 29 30  1  0  0  0  0
 30 31  1  0  0  0  0
 31 32  1  0  0  0  0
 32 36  1  0  0  0  0
 33 39  1  0  0  0  0
 35 37  1  0  0  0  0
 36 38  1  0  0  0  0
 36 35  2  0  0  0  0
 37 39  2  0  0  0  0
 38 33  2  0  0  0  0
 39 34  1  0  0  0  0
 41 44  1  0  0  0  0
 42 45  2  0  0  0  0
 44 43  2  0  0  0  0
 44 51  1  0  0  0  0
 45 41  1  0  0  0  0
 45 40  1  0  0  0  0
 46 41  1  0  0  0  0
 47 49  1  0  0  0  0
 47 46  1  0  0  0  0
 48 49  2  0  0  0  0
 49 50  1  0  0  0  0
 51 52  1  0  0  0  0
 53 52  1  0  0  0  0
 53 58  1  0  0  0  0
 54 55  1  0  0  0  0
 54 59  2  0  0  0  0
 55 53  2  0  0  0  0
 57 58  2  0  0  0  0
 57 56  1  0  0  0  0
 59 57  1  0  0  0  0
 60 59  1  0  0  0  0
 61 60  1  0  0  0  0
M  END
>  <MODEL>
8

>  <REMARK>
 VINA RESULT:      -5.6      3.049      6.335
  Name = 
  17 active torsions:
  status: ('A' for Active; 'I' for Inactive)
    1  A    between atoms: C_1  and  C_35
    2  A    between atoms: N_2  and  C_55
    3  A    between atoms: C_5  and  C_6
    4  A    between atoms: C_5  and  C_57
    5  A    between atoms: N_10  and  C_22
    6  A    between atoms: N_10  and  C_23
    7  A    between atoms: N_10  and  C_59
    8  A    between atoms: C_15  and  C_22
    9  A    between atoms: N_21  and  C_23
   10  A    between atoms: N_21  and  C_61
   11  A    between atoms: C_24  and  C_51
   12  A    between atoms: C_24  and  C_55
   13  A    between atoms: C_31  and  C_35
   14  A    between atoms: C_31  and  C_45
   15  A    between atoms: C_34  and  C_44
   16  A    between atoms: C_34  and  C_61
   17  A    between atoms: C_48  and  C_53
                            x       y       z     vdW  Elec       q    Type
                         _______ _______ _______ _____ _____    ______ ____

>  <TORSDO>
F 17

$$$$
=
 OpenBabel11062420193D

 61 67  0  0  1  0  0  0  0  0999 V2000
  188.0030  176.2540  145.1820 C   0  0  0  0  0  2  0  0  0  0  0  0
  189.6860  174.7690  142.5740 C   0  0  2  0  0  3  0  0  0  0  0  0
  191.7100  175.1320  141.3860 C   0  0  1  0  0  3  0  0  0  0  0  0
  189.7950  177.1740  146.5020 C   0  0  2  0  0  3  0  0  0  0  0  0
  192.0760  176.5010  147.3240 C   0  0  0  0  0  2  0  0  0  0  0  0
  192.3780  175.4510  146.4550 O   0  0  0  0  0  0  0  0  0  0  0  0
  194.3150  174.5080  145.4000 C   0  0  1  0  0  3  0  0  0  0  0  0
  189.4900  176.1570  145.4140 C   0  0  2  0  0  3  0  0  0  0  0  0
  190.4900  174.8250  141.5850 C   0  0  0  0  0  2  0  0  0  0  0  0
  190.2010  176.5090  144.1940 N   0  0  0  0  0  2  0  0  0  0  0  0
  187.4750  176.8620  146.4610 C   0  0  0  0  0  2  0  0  0  0  0  0
  193.7600  175.2910  146.5820 C   0  0  0  0  0  2  0  0  0  0  0  0
  193.0820  174.5620  143.2520 C   0  0  2  0  0  3  0  0  0  0  0  0
  190.5830  176.5280  147.6340 C   0  0  0  0  0  2  0  0  0  0  0  0
  192.0000  175.5320  142.8000 C   0  0  2  0  0  3  0  0  0  0  0  0
  194.1230  175.2710  144.1000 C   0  0  0  0  0  2  0  0  0  0  0  0
  188.5310  177.6920  147.0220 N   0  0  0  0  0  2  0  0  0  0  0  0
  190.6740  175.2670  143.5980 C   0  0  2  0  0  3  0  0  0  0  0  0
  193.7180  173.9930  141.9890 C   0  0  0  0  0  2  0  0  0  0  0  0
  192.6790  174.1250  140.8820 C   0  0  0  0  0  2  0  0  0  0  0  0
  195.7830  174.1640  145.6160 C   0  0  0  0  0  2  0  0  0  0  0  0
  196.4120  173.7370  144.3700 N   0  0  0  0  0  0  0  0  0  0  0  0
  196.1490  170.5410  146.1380 N   0  0  0  0  0  2  0  0  0  0  0  0
  196.5490  169.5800  145.1130 C   0  0  0  0  0  2  0  0  0  0  0  0
  195.6280  171.4500  143.6470 C   0  0  0  0  0  2  0  0  0  0  0  0
  195.9510  169.9570  143.7540 C   0  0  0  0  0  2  0  0  0  0  0  0
  196.8170  171.8180  145.8790 C   0  0  0  0  0  2  0  0  0  0  0  0
  196.6530  172.2890  144.4260 C   0  0  2  0  0  3  0  0  0  0  0  0
  197.6640  174.4750  144.2260 C   0  0  0  0  0  2  0  0  0  0  0  0
  197.4090  175.7230  143.5260 N   0  0  0  0  0  2  0  0  0  0  0  0
  197.9410  175.5770  142.1840 C   0  0  0  0  0  2  0  0  0  0  0  0
  196.9000  176.0100  141.1610 C   0  0  0  0  0  2  0  0  0  0  0  0
  196.4120  172.5080  139.7940 C   0  0  0  0  0  3  0  0  0  0  0  0
  195.2570  171.4550  137.5550 Cl  0  0  0  0  0  0  0  0  0  0  0  0
  195.8320  175.1430  139.0690 C   0  0  0  0  0  3  0  0  0  0  0  0
  196.5100  174.8810  140.2640 C   0  0  0  0  0  0  0  0  0  0  0  0
  195.4470  174.0900  138.2340 C   0  0  0  0  0  3  0  0  0  0  0  0
  196.7960  173.5610  140.6280 C   0  0  0  0  0  3  0  0  0  0  0  0
  195.7380  172.7730  138.5970 C   0  0  0  0  0  0  0  0  0  0  0  0
  188.8110  173.5800  142.8320 C   0  0  0  0  0  2  0  0  0  0  0  0
  190.2650  171.5980  142.0990 N   0  0  0  0  0  0  0  0  0  0  0  0
  189.6420  171.9140  144.3290 O   0  0  0  0  0  0  0  0  0  0  0  0
  188.6300  172.0310  140.4600 O   0  0  0  0  0  0  0  0  0  0  0  0
  189.7370  171.5070  140.7550 C   0  0  0  0  0  0  0  0  0  0  0  0
  189.5860  172.3270  143.1400 C   0  0  0  0  0  0  0  0  0  0  0  0
  191.4890  170.8810  142.4400 C   0  0  0  0  0  2  0  0  0  0  0  0
  192.4250  170.8310  141.2360 C   0  0  0  0  0  2  0  0  0  0  0  0
  193.0460  168.7500  142.2080 O   0  0  0  0  0  0  0  0  0  0  0  0
  193.2430  169.5900  141.2930 C   0  0  0  0  0  0  0  0  0  0  0  0
  194.2340  169.3430  140.3070 N   0  0  0  0  0  1  0  0  0  0  0  0
  190.4700  170.7440  139.6970 C   0  0  0  0  0  2  0  0  0  0  0  0
  189.7970  170.9200  138.3520 C   0  0  0  0  0  2  0  0  0  0  0  0
  190.3360  172.1270  137.6650 C   0  0  0  0  0  0  0  0  0  0  0  0
  192.2050  173.5600  137.0900 C   0  0  0  0  0  3  0  0  0  0  0  0
  191.7030  172.4170  137.7230 C   0  0  0  0  0  3  0  0  0  0  0  0
  189.0930  174.9660  135.6490 O   0  0  0  0  0  1  0  0  0  0  0  0
  189.9660  174.1300  136.3400 C   0  0  0  0  0  0  0  0  0  0  0  0
  189.4680  172.9900  136.9780 C   0  0  0  0  0  3  0  0  0  0  0  0
  191.3390  174.4190  136.4000 C   0  0  0  0  0  0  0  0  0  0  0  0
  191.8970  175.6140  135.7070 C   0  0  0  0  0  2  0  0  0  0  0  0
  193.0210  176.1430  136.4670 N   0  0  0  0  0  1  0  0  0  0  0  0
  1 11  1  0  0  0  0
  2 40  1  1  0  0  0
  2 18  1  0  0  0  0
  3 20  1  1  0  0  0
  3  9  1  0  0  0  0
  3 15  1  0  0  0  0
  4 17  1  0  0  0  0
  4 14  1  1  0  0  0
  5 14  1  0  0  0  0
  6 12  1  0  0  0  0
  6  5  1  0  0  0  0
  7 21  1  1  0  0  0
  7 12  1  0  0  0  0
  8  1  1  6  0  0  0
  8  4  1  0  0  0  0
  9  2  1  0  0  0  0
 10  8  1  0  0  0  0
 11 17  1  0  0  0  0
 13 19  1  6  0  0  0
 13 16  1  0  0  0  0
 15 13  1  0  0  0  0
 15 18  1  0  0  0  0
 16  7  1  0  0  0  0
 18 10  1  0  0  0  0
 20 19  1  0  0  0  0
 22 28  1  0  0  0  0
 22 21  1  0  0  0  0
 24 23  1  0  0  0  0
 25 26  1  0  0  0  0
 25 28  1  0  0  0  0
 26 24  1  0  0  0  0
 27 23  1  0  0  0  0
 28 27  1  0  0  0  0
 29 22  1  0  0  0  0
 30 29  1  0  0  0  0
 31 30  1  0  0  0  0
 32 31  1  0  0  0  0
 33 38  1  0  0  0  0
 34 39  1  0  0  0  0
 35 36  1  0  0  0  0
 36 38  2  0  0  0  0
 36 32  1  0  0  0  0
 37 39  1  0  0  0  0
 37 35  2  0  0  0  0
 39 33  2  0  0  0  0
 40 45  1  0  0  0  0
 41 46  1  0  0  0  0
 41 45  1  0  0  0  0
 43 44  2  0  0  0  0
 44 41  1  0  0  0  0
 45 42  2  0  0  0  0
 47 49  1  0  0  0  0
 47 46  1  0  0  0  0
 49 48  2  0  0  0  0
 50 49  1  0  0  0  0
 51 44  1  0  0  0  0
 52 51  1  0  0  0  0
 53 55  1  0  0  0  0
 53 52  1  0  0  0  0
 54 55  2  0  0  0  0
 56 57  1  0  0  0  0
 57 59  2  0  0  0  0
 57 58  1  0  0  0  0
 58 53  2  0  0  0  0
 59 54  1  0  0  0  0
 60 59  1  0  0  0  0
 60 61  1  0  0  0  0
M  END
>  <MODEL>
9

>  <REMARK>
 VINA RESULT:      -5.4      2.908      8.816
  Name = 
  17 active torsions:
  status: ('A' for Active; 'I' for Inactive)
    1  A    between atoms: C_1  and  C_35
    2  A    between atoms: N_2  and  C_55
    3  A    between atoms: C_5  and  C_6
    4  A    between atoms: C_5  and  C_57
    5  A    between atoms: N_10  and  C_22
    6  A    between atoms: N_10  and  C_23
    7  A    between atoms: N_10  and  C_59
    8  A    between atoms: C_15  and  C_22
    9  A    between atoms: N_21  and  C_23
   10  A    between atoms: N_21  and  C_61
   11  A    between atoms: C_24  and  C_51
   12  A    between atoms: C_24  and  C_55
   13  A    between atoms: C_31  and  C_35
   14  A    between atoms: C_31  and  C_45
   15  A    between atoms: C_34  and  C_44
   16  A    between atoms: C_34  and  C_61
   17  A    between atoms: C_48  and  C_53
                            x       y       z     vdW  Elec       q    Type
                         _______ _______ _______ _____ _____    ______ ____

>  <TORSDO>
F 17

$$$$
