=
 OpenBabel11062422393D

 44 49  0  0  1  0  0  0  0  0999 V2000
  191.6100  176.9370  148.4650 O   0  0  0  0  0  0  0  0  0  0  0  0
  189.4360  177.1670  146.5070 C   0  0  0  0  0  2  0  0  0  0  0  0
  191.3610  176.4230  144.9580 C   0  0  2  0  0  3  0  0  0  0  0  0
  194.7710  175.6530  139.3420 O   0  0  0  0  0  1  0  0  0  0  0  0
  193.7720  176.1000  144.2810 C   0  0  0  0  0  0  0  0  0  0  0  0
  197.0430  173.5080  142.1590 C   0  0  0  0  0  2  0  0  0  0  0  0
  194.3510  175.7580  142.0510 C   0  0  0  0  0  2  0  0  0  0  0  0
  190.7920  176.6830  146.2720 N   0  0  0  0  0  0  0  0  0  0  0  0
  190.7690  175.1260  144.4110 C   0  0  0  0  0  2  0  0  0  0  0  0
  196.4590  173.9960  139.7680 C   0  0  2  0  0  3  0  0  0  0  0  0
  195.5030  175.3580  141.6090 C   0  0  2  0  0  3  0  0  0  0  0  0
  192.8360  176.2620  145.2300 C   0  0  0  0  0  0  0  0  0  0  0  0
  193.3950  176.0930  142.8500 C   0  0  0  0  0  2  0  0  0  0  0  0
  195.8760  175.3600  140.1490 C   0  0  2  0  0  3  0  0  0  0  0  0
  188.6410  176.4610  144.3060 N   0  0  0  0  0  2  0  0  0  0  0  0
  196.5090  174.8650  142.6330 C   0  0  1  0  0  3  0  0  0  0  0  0
  197.5810  173.6010  140.7320 C   0  0  0  0  0  2  0  0  0  0  0  0
  195.2430  176.0020  144.6680 C   0  0  0  0  0  2  0  0  0  0  0  0
  191.8190  176.6890  147.2490 C   0  0  0  0  0  0  0  0  0  0  0  0
  188.4200  176.3160  145.7410 C   0  0  2  0  0  3  0  0  0  0  0  0
  193.1560  176.3850  146.6920 C   0  0  0  0  0  2  0  0  0  0  0  0
  189.3670  175.2950  143.8030 C   0  0  0  0  0  2  0  0  0  0  0  0
  195.9650  174.7470  144.1030 C   0  0  2  0  0  3  0  0  0  0  0  0
  196.9790  174.1710  145.1160 C   0  0  1  0  0  3  0  0  0  0  0  0
  196.4350  174.1500  146.4200 O   0  0  0  0  0  0  0  0  0  0  0  0
  196.5130  172.9140  145.7620 C   0  0  0  0  0  2  0  0  0  0  0  0
  186.9720  176.6660  146.1000 C   0  0  1  0  0  3  0  0  0  0  0  0
  186.9410  177.6620  147.2420 C   0  0  0  0  0  1  0  0  0  0  0  0
  186.1640  177.2100  144.9220 C   0  0  0  0  0  2  0  0  0  0  0  0
  185.9120  178.7070  145.0550 C   0  0  0  0  0  2  0  0  0  0  0  0
  184.4460  179.0390  144.8290 C   0  0  0  0  0  2  0  0  0  0  0  0
  183.6950  178.6680  145.9460 O   0  0  0  0  0  1  0  0  0  0  0  0
  196.9920  174.0310  138.3690 C   0  0  0  0  0  3  0  0  0  0  0  0
  196.4930  173.3550  137.3750 N   0  0  0  0  0  0  0  0  0  0  0  0
  191.9240  170.0500  137.5700 O   0  0  0  0  0  1  0  0  0  0  0  0
  195.3270  172.5090  137.3760 C   0  0  0  0  0  0  0  0  0  0  0  0
  192.9780  170.8440  137.1170 C   0  0  1  0  0  3  0  0  0  0  0  0
  193.9590  173.1000  137.1260 C   0  0  0  0  0  2  0  0  0  0  0  0
  195.4880  171.1680  137.4460 C   0  0  0  0  0  0  0  0  0  0  0  0
  192.8480  172.2370  137.7000 C   0  0  0  0  0  2  0  0  0  0  0  0
  194.5460  169.0800  136.7650 O   0  0  0  0  0  1  0  0  0  0  0  0
  194.3080  170.2190  137.5370 C   0  0  2  0  0  3  0  0  0  0  0  0
  196.8520  170.5810  137.6510 C   0  0  0  0  0  2  0  0  0  0  0  0
  197.0520  170.2690  139.0570 N   0  0  0  0  0  1  0  0  0  0  0  0
  3  9  1  1  0  0  0
  3 12  1  0  0  0  0
  3  8  1  0  0  0  0
  5 18  1  0  0  0  0
  5 12  2  0  0  0  0
  7 13  1  0  0  0  0
  8  2  1  0  0  0  0
  8 19  1  0  0  0  0
 10 33  1  6  0  0  0
 10 14  1  0  0  0  0
 10 17  1  0  0  0  0
 11  7  1  6  0  0  0
 11 16  1  0  0  0  0
 12 21  1  0  0  0  0
 13  5  1  0  0  0  0
 14  4  1  6  0  0  0
 14 11  1  0  0  0  0
 15 20  1  0  0  0  0
 16  6  1  6  0  0  0
 16 23  1  0  0  0  0
 17  6  1  0  0  0  0
 19  1  2  0  0  0  0
 20 27  1  6  0  0  0
 20  2  1  0  0  0  0
 21 19  1  0  0  0  0
 22 15  1  0  0  0  0
 22  9  1  0  0  0  0
 23 18  1  1  0  0  0
 23 24  1  0  0  0  0
 24 26  1  6  0  0  0
 24 25  1  0  0  0  0
 26 25  1  0  0  0  0
 27 28  1  1  0  0  0
 29 30  1  0  0  0  0
 29 27  1  0  0  0  0
 31 30  1  0  0  0  0
 31 32  1  0  0  0  0
 34 36  1  0  0  0  0
 34 33  2  0  0  0  0
 36 39  2  0  0  0  0
 37 42  1  0  0  0  0
 37 35  1  1  0  0  0
 37 40  1  0  0  0  0
 38 36  1  0  0  0  0
 38 40  1  0  0  0  0
 39 42  1  0  0  0  0
 39 43  1  0  0  0  0
 42 41  1  6  0  0  0
 43 44  1  0  0  0  0
M  END
>  <MODEL>
1

>  <REMARK>
 VINA RESULT:      -7.1      0.000      0.000
  Name = 
  8 active torsions:
  status: ('A' for Active; 'I' for Inactive)
    1  A    between atoms: C_4  and  N_43
    2  A    between atoms: C_10  and  C_44
    3  A    between atoms: C_13  and  C_19
    4  A    between atoms: C_16  and  C_42
    5  A    between atoms: C_20  and  C_25
    6  A    between atoms: C_20  and  C_42
    7  A    between atoms: C_22  and  C_27
    8  A    between atoms: C_25  and  C_38
                            x       y       z     vdW  Elec       q    Type
                         _______ _______ _______ _____ _____    ______ ____

>  <TORSDO>
F 8

$$$$
=
 OpenBabel11062422393D

 44 49  0  0  1  0  0  0  0  0999 V2000
  191.5670  177.0420  148.7290 O   0  0  0  0  0  0  0  0  0  0  0  0
  189.2920  177.2670  146.8880 C   0  0  0  0  0  2  0  0  0  0  0  0
  191.1280  176.5000  145.2440 C   0  0  2  0  0  3  0  0  0  0  0  0
  194.2290  175.6660  139.4610 O   0  0  0  0  0  1  0  0  0  0  0  0
  193.4970  176.1590  144.4420 C   0  0  0  0  0  0  0  0  0  0  0  0
  196.6380  173.5320  142.1710 C   0  0  0  0  0  2  0  0  0  0  0  0
  193.9550  175.7950  142.1880 C   0  0  0  0  0  2  0  0  0  0  0  0
  190.6310  176.7740  146.5850 N   0  0  0  0  0  0  0  0  0  0  0  0
  190.5010  175.2010  144.7410 C   0  0  0  0  0  2  0  0  0  0  0  0
  195.9290  174.0030  139.8100 C   0  0  2  0  0  3  0  0  0  0  0  0
  195.0790  175.3850  141.6880 C   0  0  1  0  0  3  0  0  0  0  0  0
  192.6150  176.3330  145.4390 C   0  0  0  0  0  0  0  0  0  0  0  0
  193.0440  176.1420  143.0340 C   0  0  0  0  0  2  0  0  0  0  0  0
  195.3740  175.3740  140.2110 C   0  0  2  0  0  3  0  0  0  0  0  0
  188.3770  176.5480  144.7380 N   0  0  0  0  0  2  0  0  0  0  0  0
  196.1370  174.8960  142.6610 C   0  0  1  0  0  3  0  0  0  0  0  0
  197.0980  173.6100  140.7170 C   0  0  0  0  0  2  0  0  0  0  0  0
  194.9870  176.0560  144.7510 C   0  0  0  0  0  2  0  0  0  0  0  0
  191.7090  176.7820  147.5050 C   0  0  0  0  0  0  0  0  0  0  0  0
  188.2330  176.4150  146.1850 C   0  0  2  0  0  3  0  0  0  0  0  0
  193.0130  176.4660  146.8800 C   0  0  0  0  0  2  0  0  0  0  0  0
  189.0700  175.3730  144.2080 C   0  0  0  0  0  2  0  0  0  0  0  0
  195.6710  174.7930  144.1590 C   0  0  2  0  0  3  0  0  0  0  0  0
  196.7350  174.2190  145.1210 C   0  0  1  0  0  3  0  0  0  0  0  0
  196.2430  174.1660  146.4440 O   0  0  0  0  0  0  0  0  0  0  0  0
  196.3190  172.9430  145.7630 C   0  0  0  0  0  2  0  0  0  0  0  0
  186.8070  176.7760  146.6170 C   0  0  1  0  0  3  0  0  0  0  0  0
  186.8170  178.0470  147.4440 C   0  0  0  0  0  1  0  0  0  0  0  0
  185.8330  176.9300  145.4490 C   0  0  0  0  0  2  0  0  0  0  0  0
  184.7440  177.9490  145.7550 C   0  0  0  0  0  2  0  0  0  0  0  0
  184.5140  178.8780  144.5740 C   0  0  0  0  0  2  0  0  0  0  0  0
  185.5660  179.7900  144.4730 O   0  0  0  0  0  1  0  0  0  0  0  0
  196.3870  174.0240  138.3850 C   0  0  0  0  0  3  0  0  0  0  0  0
  195.7400  173.4760  137.3960 N   0  0  0  0  0  0  0  0  0  0  0  0
  190.7700  170.8040  137.3760 O   0  0  0  0  0  1  0  0  0  0  0  0
  194.4600  172.8140  137.4340 C   0  0  0  0  0  0  0  0  0  0  0  0
  191.8730  171.5660  137.7600 C   0  0  1  0  0  3  0  0  0  0  0  0
  194.2890  171.5360  138.2230 C   0  0  0  0  0  2  0  0  0  0  0  0
  193.3860  173.4290  136.8910 C   0  0  0  0  0  0  0  0  0  0  0  0
  193.1200  170.7060  137.7210 C   0  0  0  0  0  2  0  0  0  0  0  0
  191.0170  173.6880  137.0820 O   0  0  0  0  0  1  0  0  0  0  0  0
  192.0260  172.7600  136.8170 C   0  0  2  0  0  3  0  0  0  0  0  0
  193.5510  174.7190  136.1460 C   0  0  0  0  0  2  0  0  0  0  0  0
  193.5780  174.4660  134.7150 N   0  0  0  0  0  1  0  0  0  0  0  0
  3  9  1  1  0  0  0
  3 12  1  0  0  0  0
  3  8  1  0  0  0  0
  5 18  1  0  0  0  0
  5 12  2  0  0  0  0
  7 13  1  0  0  0  0
  8  2  1  0  0  0  0
  8 19  1  0  0  0  0
 10 33  1  6  0  0  0
 10 14  1  0  0  0  0
 10 17  1  0  0  0  0
 11  7  1  1  0  0  0
 11 16  1  0  0  0  0
 12 21  1  0  0  0  0
 13  5  1  0  0  0  0
 14  4  1  6  0  0  0
 14 11  1  0  0  0  0
 15 20  1  0  0  0  0
 16  6  1  6  0  0  0
 16 23  1  0  0  0  0
 17  6  1  0  0  0  0
 19  1  2  0  0  0  0
 20 27  1  1  0  0  0
 20  2  1  0  0  0  0
 21 19  1  0  0  0  0
 22 15  1  0  0  0  0
 22  9  1  0  0  0  0
 23 18  1  1  0  0  0
 23 24  1  0  0  0  0
 24 26  1  6  0  0  0
 24 25  1  0  0  0  0
 26 25  1  0  0  0  0
 27 28  1  6  0  0  0
 29 30  1  0  0  0  0
 29 27  1  0  0  0  0
 31 30  1  0  0  0  0
 32 31  1  0  0  0  0
 34 36  1  0  0  0  0
 34 33  2  0  0  0  0
 36 38  1  0  0  0  0
 37 35  1  6  0  0  0
 39 36  2  0  0  0  0
 40 37  1  0  0  0  0
 40 38  1  0  0  0  0
 42 39  1  0  0  0  0
 42 41  1  1  0  0  0
 42 37  1  0  0  0  0
 43 39  1  0  0  0  0
 44 43  1  0  0  0  0
M  END
>  <MODEL>
2

>  <REMARK>
 VINA RESULT:      -7.1      1.209      1.914
  Name = 
  8 active torsions:
  status: ('A' for Active; 'I' for Inactive)
    1  A    between atoms: C_4  and  N_43
    2  A    between atoms: C_10  and  C_44
    3  A    between atoms: C_13  and  C_19
    4  A    between atoms: C_16  and  C_42
    5  A    between atoms: C_20  and  C_25
    6  A    between atoms: C_20  and  C_42
    7  A    between atoms: C_22  and  C_27
    8  A    between atoms: C_25  and  C_38
                            x       y       z     vdW  Elec       q    Type
                         _______ _______ _______ _____ _____    ______ ____

>  <TORSDO>
F 8

$$$$
=
 OpenBabel11062422393D

 44 49  0  0  1  0  0  0  0  0999 V2000
  184.0660  178.3940  145.9510 O   0  0  0  0  0  0  0  0  0  0  0  0
  184.1140  178.8430  143.0510 C   0  0  0  0  0  2  0  0  0  0  0  0
  186.5380  178.0380  143.4220 C   0  0  2  0  0  3  0  0  0  0  0  0
  193.0000  177.2730  142.2350 O   0  0  0  0  0  1  0  0  0  0  0  0
  188.6290  177.5860  144.7620 C   0  0  0  0  0  0  0  0  0  0  0  0
  192.3460  174.8740  145.6290 C   0  0  0  0  0  2  0  0  0  0  0  0
  190.6850  177.2970  143.7070 C   0  0  0  0  0  2  0  0  0  0  0  0
  185.1770  178.2820  143.8780 N   0  0  0  0  0  0  0  0  0  0  0  0
  186.5440  176.8050  142.5210 C   0  0  0  0  0  2  0  0  0  0  0  0
  193.7690  175.4940  143.6560 C   0  0  2  0  0  3  0  0  0  0  0  0
  191.7700  176.8400  144.2510 C   0  0  1  0  0  3  0  0  0  0  0  0
  187.3010  177.7700  144.6960 C   0  0  0  0  0  0  0  0  0  0  0  0
  189.4590  177.6610  143.5390 C   0  0  0  0  0  2  0  0  0  0  0  0
  193.1150  176.8770  143.5720 C   0  0  2  0  0  3  0  0  0  0  0  0
  185.2400  178.2790  140.9550 N   0  0  0  0  0  2  0  0  0  0  0  0
  191.6550  176.2430  145.6410 C   0  0  1  0  0  3  0  0  0  0  0  0
  193.7750  174.9890  145.1020 C   0  0  0  0  0  2  0  0  0  0  0  0
  189.3050  177.3780  146.1130 C   0  0  0  0  0  2  0  0  0  0  0  0
  185.1170  178.1820  145.2910 C   0  0  0  0  0  0  0  0  0  0  0  0
  184.0120  178.0910  141.7220 C   0  0  2  0  0  3  0  0  0  0  0  0
  186.4120  177.8140  145.9050 C   0  0  0  0  0  2  0  0  0  0  0  0
  186.0810  177.0890  141.0830 C   0  0  0  0  0  2  0  0  0  0  0  0
  190.1880  176.1020  146.1890 C   0  0  2  0  0  3  0  0  0  0  0  0
  190.0850  175.4200  147.5720 C   0  0  1  0  0  3  0  0  0  0  0  0
  188.7440  175.3720  148.0130 O   0  0  0  0  0  0  0  0  0  0  0  0
  189.2870  174.1660  147.5500 C   0  0  0  0  0  2  0  0  0  0  0  0
  182.7930  178.5200  140.8970 C   0  0  1  0  0  3  0  0  0  0  0  0
  182.5590  177.5410  139.7630 C   0  0  0  0  0  1  0  0  0  0  0  0
  181.5150  178.6650  141.7220 C   0  0  0  0  0  2  0  0  0  0  0  0
  180.4040  179.3390  140.9280 C   0  0  0  0  0  2  0  0  0  0  0  0
  179.2010  178.4220  140.7800 C   0  0  0  0  0  2  0  0  0  0  0  0
  178.9140  177.8110  142.0010 O   0  0  0  0  0  1  0  0  0  0  0  0
  195.1730  175.5500  143.1410 C   0  0  0  0  0  3  0  0  0  0  0  0
  195.9860  174.5330  143.1080 N   0  0  0  0  0  0  0  0  0  0  0  0
  194.7920  169.2530  144.6990 O   0  0  0  0  0  1  0  0  0  0  0  0
  195.7120  173.1680  143.4810 C   0  0  0  0  0  0  0  0  0  0  0  0
  195.3010  170.3580  144.0170 C   0  0  1  0  0  3  0  0  0  0  0  0
  194.7380  172.3410  142.6750 C   0  0  0  0  0  2  0  0  0  0  0  0
  196.4500  172.5940  144.4570 C   0  0  0  0  0  0  0  0  0  0  0  0
  194.1560  171.1940  143.4820 C   0  0  0  0  0  2  0  0  0  0  0  0
  197.3630  170.5160  145.2070 O   0  0  0  0  0  1  0  0  0  0  0  0
  196.1660  171.1920  144.9620 C   0  0  2  0  0  3  0  0  0  0  0  0
  197.4470  173.4060  145.2280 C   0  0  0  0  0  2  0  0  0  0  0  0
  196.8880  173.7910  146.5130 N   0  0  0  0  0  1  0  0  0  0  0  0
  2  8  1  0  0  0  0
  3  9  1  6  0  0  0
  3  8  1  0  0  0  0
  3 12  1  0  0  0  0
  5 18  1  0  0  0  0
  8 19  1  0  0  0  0
 10 33  1  1  0  0  0
 10 17  1  0  0  0  0
 11  7  1  1  0  0  0
 11 16  1  0  0  0  0
 12  5  2  0  0  0  0
 12 21  1  0  0  0  0
 13  7  1  0  0  0  0
 13  5  1  0  0  0  0
 14  4  1  6  0  0  0
 14 10  1  0  0  0  0
 14 11  1  0  0  0  0
 15 22  1  0  0  0  0
 15 20  1  0  0  0  0
 16  6  1  6  0  0  0
 16 23  1  0  0  0  0
 17  6  1  0  0  0  0
 19 21  1  0  0  0  0
 19  1  2  0  0  0  0
 20 27  1  6  0  0  0
 20  2  1  0  0  0  0
 22  9  1  0  0  0  0
 23 18  1  1  0  0  0
 23 24  1  0  0  0  0
 24 26  1  6  0  0  0
 24 25  1  0  0  0  0
 26 25  1  0  0  0  0
 27 28  1  6  0  0  0
 27 29  1  0  0  0  0
 30 29  1  0  0  0  0
 31 30  1  0  0  0  0
 31 32  1  0  0  0  0
 34 33  2  0  0  0  0
 34 36  1  0  0  0  0
 36 39  2  0  0  0  0
 37 35  1  1  0  0  0
 37 42  1  0  0  0  0
 38 36  1  0  0  0  0
 38 40  1  0  0  0  0
 39 42  1  0  0  0  0
 39 43  1  0  0  0  0
 40 37  1  0  0  0  0
 42 41  1  6  0  0  0
 43 44  1  0  0  0  0
M  END
>  <MODEL>
3

>  <REMARK>
 VINA RESULT:      -6.9      3.739      6.441
  Name = 
  8 active torsions:
  status: ('A' for Active; 'I' for Inactive)
    1  A    between atoms: C_4  and  N_43
    2  A    between atoms: C_10  and  C_44
    3  A    between atoms: C_13  and  C_19
    4  A    between atoms: C_16  and  C_42
    5  A    between atoms: C_20  and  C_25
    6  A    between atoms: C_20  and  C_42
    7  A    between atoms: C_22  and  C_27
    8  A    between atoms: C_25  and  C_38
                            x       y       z     vdW  Elec       q    Type
                         _______ _______ _______ _____ _____    ______ ____

>  <TORSDO>
F 8

$$$$
=
 OpenBabel11062422393D

 44 49  0  0  1  0  0  0  0  0999 V2000
  188.9370  174.6650  147.3160 O   0  0  0  0  0  0  0  0  0  0  0  0
  188.2710  177.0640  145.7620 C   0  0  0  0  0  2  0  0  0  0  0  0
  190.4360  176.3360  144.5600 C   0  0  2  0  0  3  0  0  0  0  0  0
  195.9230  176.9170  140.9130 O   0  0  0  0  0  1  0  0  0  0  0  0
  192.6490  175.1420  144.3350 C   0  0  0  0  0  0  0  0  0  0  0  0
  195.6990  172.7860  141.6770 C   0  0  0  0  0  2  0  0  0  0  0  0
  194.1930  175.7820  142.7140 C   0  0  0  0  0  2  0  0  0  0  0  0
  189.3580  176.1230  145.5150 N   0  0  0  0  0  0  0  0  0  0  0  0
  189.8930  176.1290  143.1470 C   0  0  0  0  0  2  0  0  0  0  0  0
  196.6130  174.6910  140.3230 C   0  0  2  0  0  3  0  0  0  0  0  0
  195.2450  175.1180  142.3500 C   0  0  1  0  0  3  0  0  0  0  0  0
  191.4400  175.2640  144.9060 C   0  0  0  0  0  0  0  0  0  0  0  0
  193.0930  176.1070  143.3050 C   0  0  0  0  0  2  0  0  0  0  0  0
  196.3130  175.6850  141.4500 C   0  0  2  0  0  3  0  0  0  0  0  0
  188.5920  178.2260  143.6350 N   0  0  0  0  0  2  0  0  0  0  0  0
  195.3880  173.6990  142.8690 C   0  0  1  0  0  3  0  0  0  0  0  0
  196.9060  173.3020  140.8950 C   0  0  0  0  0  2  0  0  0  0  0  0
  193.6080  174.0520  144.8030 C   0  0  0  0  0  2  0  0  0  0  0  0
  189.6770  175.0350  146.3660 C   0  0  0  0  0  0  0  0  0  0  0  0
  187.6220  177.4950  144.4450 C   0  0  2  0  0  3  0  0  0  0  0  0
  190.9650  174.3890  146.0300 C   0  0  0  0  0  2  0  0  0  0  0  0
  189.1250  177.3420  142.5980 C   0  0  0  0  0  2  0  0  0  0  0  0
  194.1450  173.1480  143.6600 C   0  0  2  0  0  3  0  0  0  0  0  0
  194.2770  171.6770  144.1130 C   0  0  1  0  0  3  0  0  0  0  0  0
  193.0830  171.2270  144.7200 O   0  0  0  0  0  0  0  0  0  0  0  0
  193.3290  170.7630  143.4200 C   0  0  0  0  0  2  0  0  0  0  0  0
  186.3600  178.3370  144.6600 C   0  0  1  0  0  3  0  0  0  0  0  0
  185.9280  178.9770  143.3540 C   0  0  0  0  0  1  0  0  0  0  0  0
  185.1930  177.5500  145.2560 C   0  0  0  0  0  2  0  0  0  0  0  0
  184.4420  178.3620  146.3030 C   0  0  0  0  0  2  0  0  0  0  0  0
  185.3440  178.7150  147.4740 C   0  0  0  0  0  2  0  0  0  0  0  0
  185.8540  177.5510  148.0510 O   0  0  0  0  0  1  0  0  0  0  0  0
  197.7860  175.1570  139.5180 C   0  0  0  0  0  3  0  0  0  0  0  0
  197.8500  175.1140  138.2180 N   0  0  0  0  0  0  0  0  0  0  0  0
  193.7480  173.3840  134.7510 O   0  0  0  0  0  1  0  0  0  0  0  0
  196.8280  174.6890  137.2950 C   0  0  0  0  0  0  0  0  0  0  0  0
  194.9060  173.9740  135.2580 C   0  0  1  0  0  3  0  0  0  0  0  0
  195.8040  175.6780  136.7880 C   0  0  0  0  0  2  0  0  0  0  0  0
  196.8920  173.4450  136.7710 C   0  0  0  0  0  0  0  0  0  0  0  0
  194.5330  174.9940  136.3150 C   0  0  0  0  0  2  0  0  0  0  0  0
  196.3800  172.1460  134.8310 O   0  0  0  0  0  1  0  0  0  0  0  0
  195.8090  172.8980  135.8600 C   0  0  2  0  0  3  0  0  0  0  0  0
  197.9360  172.4790  137.2450 C   0  0  0  0  0  2  0  0  0  0  0  0
  197.3110  171.3930  137.9810 N   0  0  0  0  0  1  0  0  0  0  0  0
  3  9  1  6  0  0  0
  3 12  1  0  0  0  0
  3  8  1  0  0  0  0
  5 18  1  0  0  0  0
  5 12  2  0  0  0  0
  7 13  1  0  0  0  0
  8  2  1  0  0  0  0
  8 19  1  0  0  0  0
 10 33  1  1  0  0  0
 10 17  1  0  0  0  0
 10 14  1  0  0  0  0
 11  7  1  1  0  0  0
 11 16  1  0  0  0  0
 12 21  1  0  0  0  0
 13  5  1  0  0  0  0
 14  4  1  6  0  0  0
 14 11  1  0  0  0  0
 15 20  1  0  0  0  0
 16  6  1  6  0  0  0
 16 23  1  0  0  0  0
 17  6  1  0  0  0  0
 19  1  2  0  0  0  0
 20 27  1  1  0  0  0
 20  2  1  0  0  0  0
 21 19  1  0  0  0  0
 22  9  1  0  0  0  0
 22 15  1  0  0  0  0
 23 24  1  0  0  0  0
 23 18  1  1  0  0  0
 24 26  1  6  0  0  0
 24 25  1  0  0  0  0
 26 25  1  0  0  0  0
 27 28  1  6  0  0  0
 27 29  1  0  0  0  0
 29 30  1  0  0  0  0
 30 31  1  0  0  0  0
 31 32  1  0  0  0  0
 34 33  2  0  0  0  0
 36 34  1  0  0  0  0
 37 35  1  1  0  0  0
 37 42  1  0  0  0  0
 37 40  1  0  0  0  0
 38 36  1  0  0  0  0
 39 43  1  0  0  0  0
 39 36  2  0  0  0  0
 40 38  1  0  0  0  0
 42 41  1  6  0  0  0
 42 39  1  0  0  0  0
 43 44  1  0  0  0  0
M  END
>  <MODEL>
4

>  <REMARK>
 VINA RESULT:      -6.8      2.273      2.662
  Name = 
  8 active torsions:
  status: ('A' for Active; 'I' for Inactive)
    1  A    between atoms: C_4  and  N_43
    2  A    between atoms: C_10  and  C_44
    3  A    between atoms: C_13  and  C_19
    4  A    between atoms: C_16  and  C_42
    5  A    between atoms: C_20  and  C_25
    6  A    between atoms: C_20  and  C_42
    7  A    between atoms: C_22  and  C_27
    8  A    between atoms: C_25  and  C_38
                            x       y       z     vdW  Elec       q    Type
                         _______ _______ _______ _____ _____    ______ ____

>  <TORSDO>
F 8

$$$$
=
 OpenBabel11062422393D

 44 49  0  0  1  0  0  0  0  0999 V2000
  185.4570  178.5770  145.8810 O   0  0  0  0  0  0  0  0  0  0  0  0
  185.2540  178.8090  142.9620 C   0  0  0  0  0  2  0  0  0  0  0  0
  187.6470  177.8670  143.1740 C   0  0  2  0  0  3  0  0  0  0  0  0
  193.9060  176.5690  141.4700 O   0  0  0  0  0  1  0  0  0  0  0  0
  189.8250  177.3690  144.3500 C   0  0  0  0  0  0  0  0  0  0  0  0
  193.4310  174.4750  145.0870 C   0  0  0  0  0  2  0  0  0  0  0  0
  191.7490  176.8610  143.1390 C   0  0  0  0  0  2  0  0  0  0  0  0
  186.3550  178.2370  143.7310 N   0  0  0  0  0  0  0  0  0  0  0  0
  187.4900  176.5730  142.3760 C   0  0  0  0  0  2  0  0  0  0  0  0
  194.6940  174.8490  142.9520 C   0  0  2  0  0  3  0  0  0  0  0  0
  192.8500  176.3710  143.6160 C   0  0  2  0  0  3  0  0  0  0  0  0
  188.5110  177.6390  144.3900 C   0  0  0  0  0  0  0  0  0  0  0  0
  190.5370  177.2970  143.0550 C   0  0  0  0  0  2  0  0  0  0  0  0
  194.1240  176.2640  142.8180 C   0  0  2  0  0  3  0  0  0  0  0  0
  186.1370  178.0170  140.8240 N   0  0  0  0  0  2  0  0  0  0  0  0
  192.8320  175.8860  145.0540 C   0  0  1  0  0  3  0  0  0  0  0  0
  194.8070  174.4510  144.4260 C   0  0  0  0  0  2  0  0  0  0  0  0
  190.6120  177.2130  145.6470 C   0  0  0  0  0  2  0  0  0  0  0  0
  186.4240  178.2440  145.1470 C   0  0  0  0  0  0  0  0  0  0  0  0
  184.9790  177.9720  141.7110 C   0  0  2  0  0  3  0  0  0  0  0  0
  187.7460  177.8330  145.6680 C   0  0  0  0  0  2  0  0  0  0  0  0
  186.9110  176.7840  140.9680 C   0  0  0  0  0  2  0  0  0  0  0  0
  191.4180  175.8870  145.7430 C   0  0  2  0  0  3  0  0  0  0  0  0
  191.4050  175.3170  147.1790 C   0  0  1  0  0  3  0  0  0  0  0  0
  190.6300  176.1280  148.0370 O   0  0  0  0  0  0  0  0  0  0  0  0
  190.0490  174.9160  147.6390 C   0  0  0  0  0  2  0  0  0  0  0  0
  183.7160  178.4230  140.9680 C   0  0  1  0  0  3  0  0  0  0  0  0
  183.4730  177.5360  139.7630 C   0  0  0  0  0  1  0  0  0  0  0  0
  182.4650  178.4490  141.8470 C   0  0  0  0  0  2  0  0  0  0  0  0
  181.1910  178.3740  141.0160 C   0  0  0  0  0  2  0  0  0  0  0  0
  179.9660  178.6870  141.8610 C   0  0  0  0  0  2  0  0  0  0  0  0
  179.1800  177.5420  142.0020 O   0  0  0  0  0  1  0  0  0  0  0  0
  196.0440  174.7700  142.3080 C   0  0  0  0  0  3  0  0  0  0  0  0
  196.3000  174.1100  141.2150 N   0  0  0  0  0  0  0  0  0  0  0  0
  192.8190  171.2240  137.8400 O   0  0  0  0  0  1  0  0  0  0  0  0
  195.3730  173.3930  140.3760 C   0  0  0  0  0  0  0  0  0  0  0  0
  193.3230  172.0400  138.8530 C   0  0  1  0  0  3  0  0  0  0  0  0
  194.7240  172.1220  140.8730 C   0  0  0  0  0  2  0  0  0  0  0  0
  194.9740  173.9520  139.2110 C   0  0  0  0  0  0  0  0  0  0  0  0
  194.2570  171.2340  139.7330 C   0  0  0  0  0  2  0  0  0  0  0  0
  193.1450  174.1110  137.6810 O   0  0  0  0  0  1  0  0  0  0  0  0
  194.0690  173.2230  138.2360 C   0  0  2  0  0  3  0  0  0  0  0  0
  195.5890  175.2350  138.7400 C   0  0  0  0  0  2  0  0  0  0  0  0
  196.5410  174.9690  137.6750 N   0  0  0  0  0  1  0  0  0  0  0  0
  2  8  1  0  0  0  0
  3  9  1  1  0  0  0
  3  8  1  0  0  0  0
  3 12  1  0  0  0  0
  5 12  2  0  0  0  0
  5 18  1  0  0  0  0
  8 19  1  0  0  0  0
 10 33  1  1  0  0  0
 10 17  1  0  0  0  0
 11  7  1  6  0  0  0
 11 16  1  0  0  0  0
 12 21  1  0  0  0  0
 13  7  1  0  0  0  0
 13  5  1  0  0  0  0
 14  4  1  6  0  0  0
 14 10  1  0  0  0  0
 14 11  1  0  0  0  0
 15 22  1  0  0  0  0
 15 20  1  0  0  0  0
 16  6  1  6  0  0  0
 16 23  1  0  0  0  0
 17  6  1  0  0  0  0
 19 21  1  0  0  0  0
 19  1  2  0  0  0  0
 20 27  1  6  0  0  0
 20  2  1  0  0  0  0
 22  9  1  0  0  0  0
 23 18  1  1  0  0  0
 23 24  1  0  0  0  0
 24 26  1  6  0  0  0
 24 25  1  0  0  0  0
 26 25  1  0  0  0  0
 27 28  1  6  0  0  0
 27 29  1  0  0  0  0
 30 29  1  0  0  0  0
 30 31  1  0  0  0  0
 31 32  1  0  0  0  0
 34 33  2  0  0  0  0
 36 38  1  0  0  0  0
 36 34  1  0  0  0  0
 37 35  1  6  0  0  0
 37 40  1  0  0  0  0
 39 36  2  0  0  0  0
 40 38  1  0  0  0  0
 42 41  1  1  0  0  0
 42 37  1  0  0  0  0
 42 39  1  0  0  0  0
 43 39  1  0  0  0  0
 44 43  1  0  0  0  0
M  END
>  <MODEL>
5

>  <REMARK>
 VINA RESULT:      -6.8      2.713      4.833
  Name = 
  8 active torsions:
  status: ('A' for Active; 'I' for Inactive)
    1  A    between atoms: C_4  and  N_43
    2  A    between atoms: C_10  and  C_44
    3  A    between atoms: C_13  and  C_19
    4  A    between atoms: C_16  and  C_42
    5  A    between atoms: C_20  and  C_25
    6  A    between atoms: C_20  and  C_42
    7  A    between atoms: C_22  and  C_27
    8  A    between atoms: C_25  and  C_38
                            x       y       z     vdW  Elec       q    Type
                         _______ _______ _______ _____ _____    ______ ____

>  <TORSDO>
F 8

$$$$
=
 OpenBabel11062422393D

 44 49  0  0  1  0  0  0  0  0999 V2000
  185.6650  178.6160  145.9550 O   0  0  0  0  0  0  0  0  0  0  0  0
  185.4840  178.7770  143.0300 C   0  0  0  0  0  2  0  0  0  0  0  0
  187.8610  177.8050  143.2810 C   0  0  2  0  0  3  0  0  0  0  0  0
  194.1110  176.3730  141.6510 O   0  0  0  0  0  1  0  0  0  0  0  0
  190.0240  177.3050  144.4840 C   0  0  0  0  0  0  0  0  0  0  0  0
  193.5820  174.3780  145.3170 C   0  0  0  0  0  2  0  0  0  0  0  0
  191.9470  176.7390  143.2980 C   0  0  0  0  0  2  0  0  0  0  0  0
  186.5710  178.2080  143.8200 N   0  0  0  0  0  0  0  0  0  0  0  0
  187.6900  176.4950  142.5150 C   0  0  0  0  0  2  0  0  0  0  0  0
  194.8640  174.6800  143.1810 C   0  0  2  0  0  3  0  0  0  0  0  0
  193.0380  176.2440  143.7950 C   0  0  1  0  0  3  0  0  0  0  0  0
  188.7140  177.5960  144.5090 C   0  0  0  0  0  0  0  0  0  0  0  0
  190.7430  177.1900  143.1960 C   0  0  0  0  0  2  0  0  0  0  0  0
  194.3150  176.0990  143.0080 C   0  0  2  0  0  3  0  0  0  0  0  0
  186.3680  177.9190  140.9180 N   0  0  0  0  0  2  0  0  0  0  0  0
  193.0040  175.7960  145.2450 C   0  0  1  0  0  3  0  0  0  0  0  0
  194.9620  174.3170  144.6650 C   0  0  0  0  0  2  0  0  0  0  0  0
  190.8010  177.1700  145.7890 C   0  0  0  0  0  2  0  0  0  0  0  0
  186.6320  178.2500  145.2360 C   0  0  0  0  0  0  0  0  0  0  0  0
  185.2040  177.9120  141.7980 C   0  0  2  0  0  3  0  0  0  0  0  0
  187.9440  177.8330  145.7760 C   0  0  0  0  0  2  0  0  0  0  0  0
  187.1220  176.6780  141.0990 C   0  0  0  0  0  2  0  0  0  0  0  0
  191.5860  175.8360  145.9230 C   0  0  2  0  0  3  0  0  0  0  0  0
  191.5560  175.3020  147.3740 C   0  0  1  0  0  3  0  0  0  0  0  0
  190.8140  176.1630  148.2130 O   0  0  0  0  0  0  0  0  0  0  0  0
  190.1870  174.9640  147.8460 C   0  0  0  0  0  2  0  0  0  0  0  0
  183.9520  178.3630  141.0370 C   0  0  1  0  0  3  0  0  0  0  0  0
  183.7900  177.5480  139.7690 C   0  0  0  0  0  1  0  0  0  0  0  0
  182.6700  178.2860  141.8650 C   0  0  0  0  0  2  0  0  0  0  0  0
  181.4300  178.2480  140.9820 C   0  0  0  0  0  2  0  0  0  0  0  0
  180.3520  179.1820  141.5090 C   0  0  0  0  0  2  0  0  0  0  0  0
  180.5600  179.4320  142.8660 O   0  0  0  0  0  1  0  0  0  0  0  0
  196.2160  174.5640  142.5480 C   0  0  0  0  0  3  0  0  0  0  0  0
  196.5980  173.5640  141.8070 N   0  0  0  0  0  0  0  0  0  0  0  0
  193.4310  169.1430  140.3060 O   0  0  0  0  0  1  0  0  0  0  0  0
  195.8220  172.4240  141.3900 C   0  0  0  0  0  0  0  0  0  0  0  0
  194.4300  170.1150  140.3480 C   0  0  1  0  0  3  0  0  0  0  0  0
  194.9180  172.5210  140.1830 C   0  0  0  0  0  2  0  0  0  0  0  0
  196.0320  171.2310  141.9910 C   0  0  0  0  0  0  0  0  0  0  0  0
  193.8030  171.4890  140.2180 C   0  0  0  0  0  2  0  0  0  0  0  0
  196.0030  168.8670  141.6380 O   0  0  0  0  0  1  0  0  0  0  0  0
  195.1960  170.0070  141.6660 C   0  0  2  0  0  3  0  0  0  0  0  0
  196.9620  171.1290  143.1620 C   0  0  0  0  0  2  0  0  0  0  0  0
  196.2020  170.9240  144.3840 N   0  0  0  0  0  1  0  0  0  0  0  0
  2  8  1  0  0  0  0
  3  9  1  1  0  0  0
  3  8  1  0  0  0  0
  3 12  1  0  0  0  0
  5 12  2  0  0  0  0
  5 18  1  0  0  0  0
  8 19  1  0  0  0  0
 10 33  1  1  0  0  0
 10 17  1  0  0  0  0
 11  7  1  1  0  0  0
 11 16  1  0  0  0  0
 12 21  1  0  0  0  0
 13  7  1  0  0  0  0
 13  5  1  0  0  0  0
 14  4  1  6  0  0  0
 14 10  1  0  0  0  0
 14 11  1  0  0  0  0
 15 22  1  0  0  0  0
 15 20  1  0  0  0  0
 16  6  1  6  0  0  0
 16 23  1  0  0  0  0
 17  6  1  0  0  0  0
 19 21  1  0  0  0  0
 19  1  2  0  0  0  0
 20 27  1  6  0  0  0
 20  2  1  0  0  0  0
 22  9  1  0  0  0  0
 23 18  1  1  0  0  0
 23 24  1  0  0  0  0
 24 26  1  6  0  0  0
 24 25  1  0  0  0  0
 26 25  1  0  0  0  0
 27 28  1  6  0  0  0
 27 29  1  0  0  0  0
 30 31  1  0  0  0  0
 30 29  1  0  0  0  0
 31 32  1  0  0  0  0
 34 33  2  0  0  0  0
 36 34  1  0  0  0  0
 36 39  2  0  0  0  0
 37 35  1  1  0  0  0
 37 42  1  0  0  0  0
 38 40  1  0  0  0  0
 38 36  1  0  0  0  0
 39 43  1  0  0  0  0
 40 37  1  0  0  0  0
 42 41  1  6  0  0  0
 42 39  1  0  0  0  0
 43 44  1  0  0  0  0
M  END
>  <MODEL>
6

>  <REMARK>
 VINA RESULT:      -6.7      2.943      4.815
  Name = 
  8 active torsions:
  status: ('A' for Active; 'I' for Inactive)
    1  A    between atoms: C_4  and  N_43
    2  A    between atoms: C_10  and  C_44
    3  A    between atoms: C_13  and  C_19
    4  A    between atoms: C_16  and  C_42
    5  A    between atoms: C_20  and  C_25
    6  A    between atoms: C_20  and  C_42
    7  A    between atoms: C_22  and  C_27
    8  A    between atoms: C_25  and  C_38
                            x       y       z     vdW  Elec       q    Type
                         _______ _______ _______ _____ _____    ______ ____

>  <TORSDO>
F 8

$$$$
=
 OpenBabel11062422393D

 44 49  0  0  1  0  0  0  0  0999 V2000
  186.1190  177.5290  139.5680 O   0  0  0  0  0  0  0  0  0  0  0  0
  186.1020  177.3220  142.4960 C   0  0  0  0  0  2  0  0  0  0  0  0
  187.7850  175.4510  141.9210 C   0  0  2  0  0  3  0  0  0  0  0  0
  191.3040  169.9060  142.7120 O   0  0  0  0  0  1  0  0  0  0  0  0
  188.8890  173.7280  140.4430 C   0  0  0  0  0  0  0  0  0  0  0  0
  192.7640  171.4740  139.0920 C   0  0  0  0  0  2  0  0  0  0  0  0
  190.1360  171.9880  141.3610 C   0  0  0  0  0  2  0  0  0  0  0  0
  186.9440  176.5830  141.5600 N   0  0  0  0  0  0  0  0  0  0  0  0
  189.0130  175.9670  142.6680 C   0  0  0  0  0  2  0  0  0  0  0  0
  193.0450  169.9380  141.0560 C   0  0  2  0  0  3  0  0  0  0  0  0
  190.9280  171.1880  140.7180 C   0  0  2  0  0  3  0  0  0  0  0  0
  188.1810  174.8590  140.5910 C   0  0  0  0  0  0  0  0  0  0  0  0
  189.3200  172.9530  141.6270 C   0  0  0  0  0  2  0  0  0  0  0  0
  191.5390  169.9560  141.3330 C   0  0  2  0  0  3  0  0  0  0  0  0
  187.3430  176.5500  144.4560 N   0  0  0  0  0  2  0  0  0  0  0  0
  191.2420  171.5310  139.2730 C   0  0  1  0  0  3  0  0  0  0  0  0
  193.3200  170.1310  139.5620 C   0  0  0  0  0  2  0  0  0  0  0  0
  189.1850  173.1900  139.0470 C   0  0  0  0  0  2  0  0  0  0  0  0
  186.8290  176.6680  140.1500 C   0  0  0  0  0  0  0  0  0  0  0  0
  186.9060  177.7380  143.7300 C   0  0  2  0  0  3  0  0  0  0  0  0
  187.6200  175.6390  139.4380 C   0  0  0  0  0  2  0  0  0  0  0  0
  188.7480  176.2810  144.1500 C   0  0  0  0  0  2  0  0  0  0  0  0
  190.6920  172.9190  138.7800 C   0  0  2  0  0  3  0  0  0  0  0  0
  191.0870  173.2850  137.3320 C   0  0  1  0  0  3  0  0  0  0  0  0
  190.5660  174.5480  136.9700 O   0  0  0  0  0  0  0  0  0  0  0  0
  191.9400  174.5010  137.2470 C   0  0  0  0  0  2  0  0  0  0  0  0
  186.1190  178.6740  144.6550 C   0  0  1  0  0  3  0  0  0  0  0  0
  185.5680  179.8460  143.8670 C   0  0  0  0  0  1  0  0  0  0  0  0
  184.9830  177.9790  145.4050 C   0  0  0  0  0  2  0  0  0  0  0  0
  184.9260  178.4100  146.8650 C   0  0  0  0  0  2  0  0  0  0  0  0
  185.9810  177.6910  147.6910 C   0  0  0  0  0  2  0  0  0  0  0  0
  187.0030  178.5770  148.0350 O   0  0  0  0  0  1  0  0  0  0  0  0
  193.6420  168.6420  141.5100 C   0  0  0  0  0  3  0  0  0  0  0  0
  194.4500  168.5200  142.5240 N   0  0  0  0  0  0  0  0  0  0  0  0
  196.0620  172.6620  146.0000 O   0  0  0  0  0  1  0  0  0  0  0  0
  194.8810  169.5440  143.4410 C   0  0  0  0  0  0  0  0  0  0  0  0
  195.8110  171.4060  145.4480 C   0  0  1  0  0  3  0  0  0  0  0  0
  194.0700  169.8470  144.6800 C   0  0  0  0  0  2  0  0  0  0  0  0
  196.0930  170.1170  143.2640 C   0  0  0  0  0  0  0  0  0  0  0  0
  194.3230  171.2510  145.2010 C   0  0  0  0  0  2  0  0  0  0  0  0
  197.9400  171.1060  144.4140 O   0  0  0  0  0  1  0  0  0  0  0  0
  196.5800  171.2590  144.1350 C   0  0  2  0  0  3  0  0  0  0  0  0
  196.9160  169.7830  142.0560 C   0  0  0  0  0  2  0  0  0  0  0  0
  196.8390  170.8640  141.0880 N   0  0  0  0  0  1  0  0  0  0  0  0
  1 19  2  0  0  0  0
  2 20  1  0  0  0  0
  3  9  1  6  0  0  0
  5 12  2  0  0  0  0
  5 13  1  0  0  0  0
  6 17  1  0  0  0  0
  7 13  1  0  0  0  0
  8  3  1  0  0  0  0
  8  2  1  0  0  0  0
  9 22  1  0  0  0  0
 10 14  1  0  0  0  0
 10 33  1  6  0  0  0
 11 14  1  0  0  0  0
 11  7  1  1  0  0  0
 12  3  1  0  0  0  0
 14  4  1  1  0  0  0
 16  6  1  1  0  0  0
 16 11  1  0  0  0  0
 17 10  1  0  0  0  0
 18  5  1  0  0  0  0
 19  8  1  0  0  0  0
 20 15  1  0  0  0  0
 20 27  1  1  0  0  0
 21 19  1  0  0  0  0
 21 12  1  0  0  0  0
 22 15  1  0  0  0  0
 23 18  1  6  0  0  0
 23 16  1  0  0  0  0
 24 26  1  1  0  0  0
 24 23  1  0  0  0  0
 25 26  1  0  0  0  0
 25 24  1  0  0  0  0
 27 28  1  6  0  0  0
 27 29  1  0  0  0  0
 29 30  1  0  0  0  0
 30 31  1  0  0  0  0
 31 32  1  0  0  0  0
 33 34  2  0  0  0  0
 34 36  1  0  0  0  0
 36 38  1  0  0  0  0
 37 35  1  6  0  0  0
 38 40  1  0  0  0  0
 39 36  2  0  0  0  0
 39 42  1  0  0  0  0
 40 37  1  0  0  0  0
 42 41  1  1  0  0  0
 42 37  1  0  0  0  0
 43 39  1  0  0  0  0
 44 43  1  0  0  0  0
M  END
>  <MODEL>
7

>  <REMARK>
 VINA RESULT:      -6.4      3.641      6.669
  Name = 
  8 active torsions:
  status: ('A' for Active; 'I' for Inactive)
    1  A    between atoms: C_4  and  N_43
    2  A    between atoms: C_10  and  C_44
    3  A    between atoms: C_13  and  C_19
    4  A    between atoms: C_16  and  C_42
    5  A    between atoms: C_20  and  C_25
    6  A    between atoms: C_20  and  C_42
    7  A    between atoms: C_22  and  C_27
    8  A    between atoms: C_25  and  C_38
                            x       y       z     vdW  Elec       q    Type
                         _______ _______ _______ _____ _____    ______ ____

>  <TORSDO>
F 8

$$$$
=
 OpenBabel11062422393D

 44 49  0  0  1  0  0  0  0  0999 V2000
  196.9150  171.6270  139.3770 O   0  0  0  0  0  0  0  0  0  0  0  0
  194.3730  170.8450  138.1360 C   0  0  0  0  0  2  0  0  0  0  0  0
  193.4970  171.9850  140.2790 C   0  0  2  0  0  3  0  0  0  0  0  0
  189.3160  173.4040  145.2050 O   0  0  0  0  0  1  0  0  0  0  0  0
  193.6440  172.8510  142.6460 C   0  0  0  0  0  0  0  0  0  0  0  0
  192.4950  176.0900  145.8250 C   0  0  0  0  0  2  0  0  0  0  0  0
  191.7190  173.2670  143.8880 C   0  0  0  0  0  2  0  0  0  0  0  0
  194.5610  171.6290  139.3520 N   0  0  0  0  0  0  0  0  0  0  0  0
  192.6490  173.0930  139.6570 C   0  0  0  0  0  2  0  0  0  0  0  0
  190.1120  175.4220  146.2410 C   0  0  2  0  0  3  0  0  0  0  0  0
  191.6530  173.9170  145.0080 C   0  0  1  0  0  3  0  0  0  0  0  0
  194.2330  172.4960  141.4930 C   0  0  0  0  0  0  0  0  0  0  0  0
  192.1780  172.7350  142.8060 C   0  0  0  0  0  2  0  0  0  0  0  0
  190.4140  173.9680  145.8650 C   0  0  2  0  0  3  0  0  0  0  0  0
  191.9710  171.2910  138.0390 N   0  0  0  0  0  2  0  0  0  0  0  0
  192.8990  174.6570  145.4600 C   0  0  1  0  0  3  0  0  0  0  0  0
  191.3520  176.0930  146.8380 C   0  0  0  0  0  2  0  0  0  0  0  0
  194.4940  173.3020  143.8300 C   0  0  0  0  0  2  0  0  0  0  0  0
  195.8230  171.8890  139.9440 C   0  0  0  0  0  0  0  0  0  0  0  0
  193.2240  171.4140  137.3000 C   0  0  2  0  0  3  0  0  0  0  0  0
  195.7220  172.4860  141.2940 C   0  0  0  0  0  2  0  0  0  0  0  0
  191.6250  172.5840  138.6300 C   0  0  0  0  0  2  0  0  0  0  0  0
  194.0780  174.6780  144.4190 C   0  0  2  0  0  3  0  0  0  0  0  0
  195.3080  175.5010  144.8630 C   0  0  1  0  0  3  0  0  0  0  0  0
  196.3910  175.3080  143.9780 O   0  0  0  0  0  0  0  0  0  0  0  0
  195.7150  176.5310  143.8700 C   0  0  0  0  0  2  0  0  0  0  0  0
  193.1070  170.7420  135.9280 C   0  0  1  0  0  3  0  0  0  0  0  0
  194.1820  169.6850  135.7690 C   0  0  0  0  0  1  0  0  0  0  0  0
  191.7350  170.1210  135.6650 C   0  0  0  0  0  2  0  0  0  0  0  0
  190.9600  170.8940  134.6060 C   0  0  0  0  0  2  0  0  0  0  0  0
  189.7350  171.5670  135.2040 C   0  0  0  0  0  2  0  0  0  0  0  0
  190.0030  172.9150  135.4470 O   0  0  0  0  0  1  0  0  0  0  0  0
  188.9870  175.4810  147.2270 C   0  0  0  0  0  3  0  0  0  0  0  0
  187.8640  176.1090  147.0270 N   0  0  0  0  0  0  0  0  0  0  0  0
  186.3050  178.9710  142.4210 O   0  0  0  0  0  1  0  0  0  0  0  0
  187.4380  176.8020  145.8380 C   0  0  0  0  0  0  0  0  0  0  0  0
  186.4690  177.9680  143.3770 C   0  0  1  0  0  3  0  0  0  0  0  0
  188.0850  176.4970  144.5060 C   0  0  0  0  0  2  0  0  0  0  0  0
  186.3530  177.6070  145.9000 C   0  0  0  0  0  0  0  0  0  0  0  0
  187.9430  177.6470  143.5240 C   0  0  0  0  0  2  0  0  0  0  0  0
  184.5000  178.4390  144.6410 O   0  0  0  0  0  1  0  0  0  0  0  0
  185.8950  178.4340  144.7140 C   0  0  2  0  0  3  0  0  0  0  0  0
  185.6860  177.8750  147.2160 C   0  0  0  0  0  2  0  0  0  0  0  0
  185.9420  179.2430  147.6330 N   0  0  0  0  0  1  0  0  0  0  0  0
  1 19  2  0  0  0  0
  2  8  1  0  0  0  0
  3  9  1  6  0  0  0
  3 12  1  0  0  0  0
  5 13  1  0  0  0  0
  5 18  1  0  0  0  0
  6 17  1  0  0  0  0
  8 19  1  0  0  0  0
  8  3  1  0  0  0  0
 10 17  1  0  0  0  0
 10 33  1  1  0  0  0
 11  7  1  1  0  0  0
 11 16  1  0  0  0  0
 11 14  1  0  0  0  0
 12  5  2  0  0  0  0
 13  7  1  0  0  0  0
 14  4  1  6  0  0  0
 14 10  1  0  0  0  0
 15 22  1  0  0  0  0
 16  6  1  6  0  0  0
 19 21  1  0  0  0  0
 20 27  1  6  0  0  0
 20 15  1  0  0  0  0
 20  2  1  0  0  0  0
 21 12  1  0  0  0  0
 22  9  1  0  0  0  0
 23 18  1  1  0  0  0
 23 24  1  0  0  0  0
 23 16  1  0  0  0  0
 24 26  1  6  0  0  0
 25 24  1  0  0  0  0
 26 25  1  0  0  0  0
 27 28  1  1  0  0  0
 29 27  1  0  0  0  0
 30 31  1  0  0  0  0
 30 29  1  0  0  0  0
 31 32  1  0  0  0  0
 34 33  2  0  0  0  0
 36 39  2  0  0  0  0
 36 34  1  0  0  0  0
 37 35  1  6  0  0  0
 37 40  1  0  0  0  0
 37 42  1  0  0  0  0
 38 36  1  0  0  0  0
 39 43  1  0  0  0  0
 40 38  1  0  0  0  0
 42 41  1  6  0  0  0
 42 39  1  0  0  0  0
 43 44  1  0  0  0  0
M  END
>  <MODEL>
8

>  <REMARK>
 VINA RESULT:      -6.1      2.566     10.199
  Name = 
  8 active torsions:
  status: ('A' for Active; 'I' for Inactive)
    1  A    between atoms: C_4  and  N_43
    2  A    between atoms: C_10  and  C_44
    3  A    between atoms: C_13  and  C_19
    4  A    between atoms: C_16  and  C_42
    5  A    between atoms: C_20  and  C_25
    6  A    between atoms: C_20  and  C_42
    7  A    between atoms: C_22  and  C_27
    8  A    between atoms: C_25  and  C_38
                            x       y       z     vdW  Elec       q    Type
                         _______ _______ _______ _____ _____    ______ ____

>  <TORSDO>
F 8

$$$$
=
 OpenBabel11062422393D

 44 49  0  0  1  0  0  0  0  0999 V2000
  196.3520  169.8370  139.7330 O   0  0  0  0  0  0  0  0  0  0  0  0
  193.5350  169.3710  139.0560 C   0  0  0  0  0  2  0  0  0  0  0  0
  193.2610  171.0780  140.9710 C   0  0  2  0  0  3  0  0  0  0  0  0
  190.3230  174.3100  145.9390 O   0  0  0  0  0  1  0  0  0  0  0  0
  193.9710  172.3550  143.0300 C   0  0  0  0  0  0  0  0  0  0  0  0
  193.9810  176.3390  145.4900 C   0  0  0  0  0  2  0  0  0  0  0  0
  192.3960  173.4090  144.3850 C   0  0  0  0  0  2  0  0  0  0  0  0
  194.0670  170.3280  140.0200 N   0  0  0  0  0  0  0  0  0  0  0  0
  192.5250  172.1900  140.2250 C   0  0  0  0  0  2  0  0  0  0  0  0
  191.6280  176.2830  146.3610 C   0  0  2  0  0  3  0  0  0  0  0  0
  192.6420  174.2710  145.3210 C   0  0  2  0  0  3  0  0  0  0  0  0
  194.2770  171.6590  141.9240 C   0  0  0  0  0  0  0  0  0  0  0  0
  192.5580  172.5840  143.4050 C   0  0  0  0  0  2  0  0  0  0  0  0
  191.6010  174.7530  146.2980 C   0  0  2  0  0  3  0  0  0  0  0  0
  191.2690  170.2800  139.1760 N   0  0  0  0  0  2  0  0  0  0  0  0
  194.0580  174.8090  145.4180 C   0  0  1  0  0  3  0  0  0  0  0  0
  193.0520  176.7860  146.6170 C   0  0  0  0  0  2  0  0  0  0  0  0
  195.0800  172.8490  143.9530 C   0  0  0  0  0  2  0  0  0  0  0  0
  195.4390  170.4320  140.3630 C   0  0  0  0  0  0  0  0  0  0  0  0
  192.3750  169.9860  138.2700 C   0  0  2  0  0  3  0  0  0  0  0  0
  195.6820  171.2980  141.5380 C   0  0  0  0  0  2  0  0  0  0  0  0
  191.2640  171.7090  139.4900 C   0  0  0  0  0  2  0  0  0  0  0  0
  195.0210  174.3720  144.2550 C   0  0  2  0  0  3  0  0  0  0  0  0
  196.4350  174.9920  144.3290 C   0  0  1  0  0  3  0  0  0  0  0  0
  197.2340  174.5560  143.2480 O   0  0  0  0  0  0  0  0  0  0  0  0
  196.7510  175.8700  143.1710 C   0  0  0  0  0  2  0  0  0  0  0  0
  191.9030  169.0890  137.1200 C   0  0  1  0  0  3  0  0  0  0  0  0
  190.7980  168.1660  137.5960 C   0  0  0  0  0  1  0  0  0  0  0  0
  191.4290  169.8660  135.8920 C   0  0  0  0  0  2  0  0  0  0  0  0
  191.9270  171.3050  135.9090 C   0  0  0  0  0  2  0  0  0  0  0  0
  190.7720  172.2880  135.7980 C   0  0  0  0  0  2  0  0  0  0  0  0
  189.6310  171.6310  135.3350 O   0  0  0  0  0  1  0  0  0  0  0  0
  190.7220  176.7750  147.4470 C   0  0  0  0  0  3  0  0  0  0  0  0
  189.5550  177.3150  147.2430 N   0  0  0  0  0  0  0  0  0  0  0  0
  186.8670  178.2030  142.3630 O   0  0  0  0  0  1  0  0  0  0  0  0
  188.8690  177.4940  145.9880 C   0  0  0  0  0  0  0  0  0  0  0  0
  187.5420  177.5990  143.4230 C   0  0  1  0  0  3  0  0  0  0  0  0
  189.6470  177.5120  144.6930 C   0  0  0  0  0  2  0  0  0  0  0  0
  187.5170  177.4870  145.9720 C   0  0  0  0  0  0  0  0  0  0  0  0
  188.9040  178.2430  143.5890 C   0  0  0  0  0  2  0  0  0  0  0  0
  185.6130  176.9120  144.6480 O   0  0  0  0  0  1  0  0  0  0  0  0
  186.7260  177.7530  144.7060 C   0  0  2  0  0  3  0  0  0  0  0  0
  186.7470  177.4260  147.2570 C   0  0  0  0  0  2  0  0  0  0  0  0
  186.2670  178.7510  147.6120 N   0  0  0  0  0  1  0  0  0  0  0  0
  1 19  2  0  0  0  0
  2  8  1  0  0  0  0
  3  9  1  6  0  0  0
  3 12  1  0  0  0  0
  5 13  1  0  0  0  0
  5 18  1  0  0  0  0
  6 17  1  0  0  0  0
  8 19  1  0  0  0  0
  8  3  1  0  0  0  0
 10 17  1  0  0  0  0
 10 33  1  1  0  0  0
 11  7  1  6  0  0  0
 11 16  1  0  0  0  0
 11 14  1  0  0  0  0
 12  5  2  0  0  0  0
 13  7  1  0  0  0  0
 14  4  1  6  0  0  0
 14 10  1  0  0  0  0
 15 22  1  0  0  0  0
 16  6  1  6  0  0  0
 19 21  1  0  0  0  0
 20 27  1  6  0  0  0
 20  2  1  0  0  0  0
 20 15  1  0  0  0  0
 21 12  1  0  0  0  0
 22  9  1  0  0  0  0
 23 18  1  1  0  0  0
 23 24  1  0  0  0  0
 23 16  1  0  0  0  0
 24 26  1  6  0  0  0
 25 24  1  0  0  0  0
 26 25  1  0  0  0  0
 27 28  1  1  0  0  0
 29 30  1  0  0  0  0
 29 27  1  0  0  0  0
 31 30  1  0  0  0  0
 32 31  1  0  0  0  0
 34 33  2  0  0  0  0
 36 34  1  0  0  0  0
 37 35  1  6  0  0  0
 37 40  1  0  0  0  0
 37 42  1  0  0  0  0
 38 36  1  0  0  0  0
 39 36  2  0  0  0  0
 39 43  1  0  0  0  0
 40 38  1  0  0  0  0
 42 41  1  6  0  0  0
 42 39  1  0  0  0  0
 43 44  1  0  0  0  0
M  END
>  <MODEL>
9

>  <REMARK>
 VINA RESULT:      -6.0      2.650      9.795
  Name = 
  8 active torsions:
  status: ('A' for Active; 'I' for Inactive)
    1  A    between atoms: C_4  and  N_43
    2  A    between atoms: C_10  and  C_44
    3  A    between atoms: C_13  and  C_19
    4  A    between atoms: C_16  and  C_42
    5  A    between atoms: C_20  and  C_25
    6  A    between atoms: C_20  and  C_42
    7  A    between atoms: C_22  and  C_27
    8  A    between atoms: C_25  and  C_38
                            x       y       z     vdW  Elec       q    Type
                         _______ _______ _______ _____ _____    ______ ____

>  <TORSDO>
F 8

$$$$
