=
 OpenBabel11072408413D

 65 72  0  0  1  0  0  0  0  0999 V2000
  191.8620  174.2180  136.5930 O   0  0  0  0  0  0  0  0  0  0  0  0
  193.7220  169.9510  141.1450 C   0  0  0  0  0  2  0  0  0  0  0  0
  190.2230  173.6140  143.9120 C   0  0  1  0  0  3  0  0  0  0  0  0
  192.2370  170.2640  134.9500 C   0  0  0  0  0  0  0  0  0  0  0  0
  190.7950  172.0840  134.7110 O   0  0  0  0  0  0  0  0  0  0  0  0
  193.9450  170.0580  142.6380 C   0  0  2  0  0  3  0  0  0  0  0  0
  189.4090  173.5810  142.5910 C   0  0  2  0  0  0  0  0  0  0  0  0
  193.3770  168.1680  135.4200 C   0  0  0  0  0  2  0  0  0  0  0  0
  197.1200  171.1650  140.6470 C   0  0  0  0  0  2  0  0  0  0  0  0
  197.3820  168.3270  137.7650 S   0  0  0  0  0  0  0  0  0  0  0  0
  193.6000  171.4640  143.1180 C   0  0  0  0  0  2  0  0  0  0  0  0
  197.0310  170.3670  139.3800 C   0  0  0  0  0  0  0  0  0  0  0  0
  188.5420  175.0250  134.8430 C   0  0  0  0  0  2  0  0  0  0  0  0
  196.4490  169.7790  137.1560 C   0  0  1  0  0  3  0  0  0  0  0  0
  192.6640  169.1140  134.5140 C   0  0  0  0  0  3  0  0  0  0  0  0
  191.2620  171.4480  143.5940 O   0  0  0  0  0  0  0  0  0  0  0  0
  189.6750  174.0420  137.5910 C   0  0  2  0  0  3  0  0  0  0  0  0
  188.7300  174.8520  142.0840 C   0  0  2  0  0  3  0  0  0  0  0  0
  195.7530  171.3410  141.3060 C   0  0  0  0  0  2  0  0  0  0  0  0
  195.0870  169.3810  136.8220 N   0  0  0  0  0  2  0  0  0  0  0  0
  188.7290  175.2080  137.3270 C   0  0  0  0  0  2  0  0  0  0  0  0
  197.5860  169.1070  139.3010 O   0  0  0  0  0  0  0  0  0  0  0  0
  189.5160  173.6880  140.0480 C   0  0  0  0  0  2  0  0  0  0  0  0
  194.7780  168.6130  135.6580 C   0  0  0  0  0  0  0  0  0  0  0  0
  192.5270  171.3950  144.1870 C   0  0  0  0  0  2  0  0  0  0  0  0
  195.6750  168.3270  134.8220 O   0  0  0  0  0  0  0  0  0  0  0  0
  189.2280  173.7790  134.5130 N   0  0  0  0  0  0  0  0  0  0  0  0
  190.4860  172.2100  144.4730 C   0  0  0  0  0  2  0  0  0  0  0  0
  190.2030  173.2550  135.1970 C   0  0  0  0  0  0  0  0  0  0  0  0
  196.4260  170.7720  138.2730 C   0  0  0  0  0  0  0  0  0  0  0  0
  190.3700  174.2430  138.9290 C   0  0  0  0  0  2  0  0  0  0  0  0
  188.6490  172.4330  142.3350 O   0  0  0  0  0  1  0  0  0  0  0  0
  195.1380  169.9930  141.6780 C   0  0  2  0  0  3  0  0  0  0  0  0
  189.9630  174.3010  141.3650 C   0  0  2  0  0  3  0  0  0  0  0  0
  190.6590  173.8650  136.4660 C   0  0  0  0  0  0  0  0  0  0  0  0
  191.8010  171.4070  135.3960 C   0  0  0  0  0  3  0  0  0  0  0  0
  187.7940  174.9160  136.1640 C   0  0  0  0  0  2  0  0  0  0  0  0
  189.0500  176.0780  142.8930 C   0  0  0  0  0  0  0  0  0  0  0  0
  188.2840  176.3880  144.0540 N   0  0  0  0  0  2  0  0  0  0  0  0
  189.9660  176.8660  142.5350 O   0  0  0  0  0  0  0  0  0  0  0  0
  187.0060  175.8400  144.2500 N   0  0  0  0  0  2  0  0  0  0  0  0
  184.6510  179.4240  145.3880 C   0  0  0  0  0  2  0  0  0  0  0  0
  186.3230  178.1860  143.7330 C   0  0  1  0  0  3  0  0  0  0  0  0
  185.9360  177.1990  146.3220 S   0  0  0  0  0  0  0  0  0  0  0  0
  186.0560  176.9090  144.5390 C   0  0  2  0  0  3  0  0  0  0  0  0
  185.0350  178.5760  143.0250 C   0  0  0  0  0  2  0  0  0  0  0  0
  184.3810  178.0650  146.0220 C   0  0  0  0  0  2  0  0  0  0  0  0
  185.5590  179.4560  144.1400 C   0  0  1  0  0  3  0  0  0  0  0  0
  191.5260  174.4220  143.8150 C   0  0  0  0  0  2  0  0  0  0  0  0
  193.7480  176.3600  144.4500 O   0  0  0  0  0  0  0  0  0  0  0  0
  192.9190  176.4050  146.7300 C   0  0  0  0  0  2  0  0  0  0  0  0
  191.0930  175.0250  146.2440 C   0  0  0  0  0  3  0  0  0  0  0  0
  192.8730  176.0380  145.2970 C   0  0  0  0  0  0  0  0  0  0  0  0
  191.7150  175.6630  147.2330 C   0  0  0  0  0  3  0  0  0  0  0  0
  191.7390  175.2440  145.0000 N   0  0  0  0  0  0  0  0  0  0  0  0
  195.7930  172.1220  138.1210 C   0  0  0  0  0  2  0  0  0  0  0  0
  196.5620  172.9500  137.1490 C   0  0  0  0  0  0  0  0  0  0  0  0
  196.3350  172.8000  135.8490 C   0  0  0  0  0  2  0  0  0  0  0  0
  197.4070  173.9960  137.6410 N   0  0  0  0  0  2  0  0  0  0  0  0
  197.5890  174.2870  139.0560 C   0  0  0  0  0  2  0  0  0  0  0  0
  196.7140  175.4690  139.4550 C   0  0  2  0  0  3  0  0  0  0  0  0
  197.3860  176.2780  140.3570 F   0  0  0  0  0  0  0  0  0  0  0  0
  195.3760  175.0250  140.0470 C   0  0  1  0  0  3  0  0  0  0  0  0
  195.0450  175.8250  141.2150 N   0  0  0  0  0  1  0  0  0  0  0  0
  194.2460  175.1000  139.0320 C   0  0  0  0  0  1  0  0  0  0  0  0
  3 49  1  6  0  0  0
  3 28  1  0  0  0  0
  4 36  2  0  0  0  0
  5 29  1  0  0  0  0
  5 36  1  0  0  0  0
  6  2  1  6  0  0  0
  6 11  1  0  0  0  0
  7 32  1  6  0  0  0
  7  3  1  0  0  0  0
  8 24  1  0  0  0  0
  9 19  1  0  0  0  0
 10 22  1  0  0  0  0
 11 25  1  0  0  0  0
 12  9  1  0  0  0  0
 13 37  1  0  0  0  0
 14 20  1  1  0  0  0
 14 10  1  0  0  0  0
 14 30  1  0  0  0  0
 15  4  2  0  0  0  0
 15  8  1  0  0  0  0
 16 25  1  0  0  0  0
 16 28  1  0  0  0  0
 17 21  1  6  0  0  0
 17 31  1  0  0  0  0
 18  7  1  0  0  0  0
 18 38  1  1  0  0  0
 19 33  1  0  0  0  0
 22 12  1  0  0  0  0
 24 20  1  0  0  0  0
 26 24  2  0  0  0  0
 27 13  1  0  0  0  0
 27 29  2  0  0  0  0
 29 35  1  0  0  0  0
 30 12  2  0  0  0  0
 31 23  1  0  0  0  0
 33  2  1  6  0  0  0
 33  6  1  0  0  0  0
 34 23  1  6  0  0  0
 34 18  1  0  0  0  0
 34  7  1  0  0  0  0
 35  1  2  0  0  0  0
 35 17  1  0  0  0  0
 37 21  1  0  0  0  0
 38 39  1  0  0  0  0
 39 41  1  0  0  0  0
 40 38  2  0  0  0  0
 42 47  1  0  0  0  0
 43 46  1  6  0  0  0
 43 48  1  0  0  0  0
 43 45  1  0  0  0  0
 45 41  1  1  0  0  0
 45 44  1  0  0  0  0
 47 44  1  0  0  0  0
 48 46  1  6  0  0  0
 48 42  1  0  0  0  0
 49 55  1  0  0  0  0
 50 53  2  0  0  0  0
 51 54  1  0  0  0  0
 52 54  2  0  0  0  0
 53 51  1  0  0  0  0
 55 53  1  0  0  0  0
 55 52  1  0  0  0  0
 56 30  1  0  0  0  0
 57 59  1  0  0  0  0
 57 56  1  0  0  0  0
 58 57  2  0  0  0  0
 59 60  1  0  0  0  0
 60 61  1  0  0  0  0
 61 63  1  0  0  0  0
 61 62  1  1  0  0  0
 63 65  1  6  0  0  0
 63 64  1  0  0  0  0
M  END
>  <MODEL>
1

>  <REMARK>
 VINA RESULT:      -6.3      0.000      0.000
  Name = 
  11 active torsions:
  status: ('A' for Active; 'I' for Inactive)
    1  A    between atoms: C_3  and  C_31
    2  A    between atoms: C_5  and  N_48
    3  A    between atoms: C_5  and  C_64
    4  A    between atoms: C_6  and  C_49
    5  A    between atoms: C_17  and  C_38
    6  A    between atoms: C_17  and  C_39
    7  A    between atoms: C_21  and  N_30
    8  A    between atoms: N_28  and  N_30
    9  A    between atoms: C_39  and  N_48
   10  A    between atoms: C_49  and  N_59
   11  A    between atoms: C_53  and  C_64
                            x       y       z     vdW  Elec       q    Type
                         _______ _______ _______ _____ _____    ______ ____

>  <TORSDO>
F 11

$$$$
=
 OpenBabel11072408413D

 65 72  0  0  1  0  0  0  0  0999 V2000
  188.7770  173.2310  140.3250 O   0  0  0  0  0  0  0  0  0  0  0  0
  192.0320  176.8330  144.6620 C   0  0  0  0  0  2  0  0  0  0  0  0
  196.1010  173.7500  141.9700 C   0  0  1  0  0  3  0  0  0  0  0  0
  187.0060  177.1240  140.7450 C   0  0  0  0  0  0  0  0  0  0  0  0
  187.4360  175.6210  139.0120 O   0  0  0  0  0  0  0  0  0  0  0  0
  193.3040  176.6090  145.4510 C   0  0  2  0  0  3  0  0  0  0  0  0
  195.2310  174.0030  140.7100 C   0  0  2  0  0  0  0  0  0  0  0  0
  186.9030  178.9430  142.3560 C   0  0  0  0  0  2  0  0  0  0  0  0
  190.2180  175.0330  147.2580 C   0  0  0  0  0  2  0  0  0  0  0  0
  187.3990  177.9180  146.8580 S   0  0  0  0  0  0  0  0  0  0  0  0
  193.9250  175.2690  145.0700 C   0  0  0  0  0  2  0  0  0  0  0  0
  189.0770  175.8980  146.8140 C   0  0  0  0  0  0  0  0  0  0  0  0
  188.5710  173.1500  136.4920 C   0  0  0  0  0  2  0  0  0  0  0  0
  187.2710  176.6990  145.4990 C   0  0  1  0  0  3  0  0  0  0  0  0
  186.3990  178.1960  141.1680 C   0  0  0  0  0  3  0  0  0  0  0  0
  195.3190  175.6970  143.1820 O   0  0  0  0  0  0  0  0  0  0  0  0
  190.5800  173.7610  138.8150 C   0  0  2  0  0  3  0  0  0  0  0  0
  195.0860  172.9090  139.6530 C   0  0  2  0  0  3  0  0  0  0  0  0
  191.3850  175.0820  146.2750 C   0  0  0  0  0  2  0  0  0  0  0  0
  187.5150  177.3610  144.2230 N   0  0  0  0  0  2  0  0  0  0  0  0
  190.7630  172.8070  137.6400 C   0  0  0  0  0  2  0  0  0  0  0  0
  188.7380  177.0350  147.5190 O   0  0  0  0  0  0  0  0  0  0  0  0
  192.8730  174.0100  139.7450 C   0  0  0  0  0  2  0  0  0  0  0  0
  186.5580  178.2330  143.6190 C   0  0  0  0  0  0  0  0  0  0  0  0
  195.3380  175.4820  144.5630 C   0  0  0  0  0  2  0  0  0  0  0  0
  185.4180  178.3890  144.1320 O   0  0  0  0  0  0  0  0  0  0  0  0
  187.9510  174.2610  137.2090 N   0  0  0  0  0  0  0  0  0  0  0  0
  196.4620  175.0490  142.7030 C   0  0  0  0  0  2  0  0  0  0  0  0
  188.1570  174.5580  138.4580 C   0  0  0  0  0  0  0  0  0  0  0  0
  188.3280  175.6710  145.7440 C   0  0  0  0  0  0  0  0  0  0  0  0
  191.5190  173.3640  139.9440 C   0  0  0  0  0  2  0  0  0  0  0  0
  195.2760  175.2850  140.1470 O   0  0  0  0  0  1  0  0  0  0  0  0
  191.9370  176.4990  146.1360 C   0  0  2  0  0  3  0  0  0  0  0  0
  193.9080  173.2570  140.5640 C   0  0  2  0  0  3  0  0  0  0  0  0
  189.1450  173.8090  139.2670 C   0  0  0  0  0  0  0  0  0  0  0  0
  187.6270  176.0620  140.3190 C   0  0  0  0  0  3  0  0  0  0  0  0
  190.0780  173.3290  136.3860 C   0  0  0  0  0  2  0  0  0  0  0  0
  195.7290  171.6050  140.0340 C   0  0  0  0  0  0  0  0  0  0  0  0
  197.1400  171.4440  139.9210 N   0  0  0  0  0  2  0  0  0  0  0  0
  195.0290  170.6290  140.4160 O   0  0  0  0  0  0  0  0  0  0  0  0
  197.9050  172.2880  139.1000 N   0  0  0  0  0  2  0  0  0  0  0  0
  196.9540  172.2970  134.7660 C   0  0  0  0  0  2  0  0  0  0  0  0
  197.9380  171.0790  136.9150 C   0  0  1  0  0  3  0  0  0  0  0  0
  197.5770  173.8530  136.9260 S   0  0  0  0  0  0  0  0  0  0  0  0
  197.3820  172.2480  137.7380 C   0  0  2  0  0  3  0  0  0  0  0  0
  196.7620  170.3090  136.3350 C   0  0  0  0  0  2  0  0  0  0  0  0
  196.3490  173.3280  135.7110 C   0  0  0  0  0  2  0  0  0  0  0  0
  197.6670  171.0840  135.4010 C   0  0  1  0  0  3  0  0  0  0  0  0
  195.5020  172.7190  142.9380 C   0  0  0  0  0  2  0  0  0  0  0  0
  197.6520  170.6210  142.6800 O   0  0  0  0  0  0  0  0  0  0  0  0
  197.9380  170.7640  145.0850 C   0  0  0  0  0  2  0  0  0  0  0  0
  196.3860  172.5010  145.3090 C   0  0  0  0  0  3  0  0  0  0  0  0
  197.3860  171.1790  143.7770 C   0  0  0  0  0  0  0  0  0  0  0  0
  197.1890  171.6910  145.9970 C   0  0  0  0  0  3  0  0  0  0  0  0
  196.4840  172.2630  143.9140 N   0  0  0  0  0  0  0  0  0  0  0  0
  188.4910  174.4730  144.8590 C   0  0  0  0  0  2  0  0  0  0  0  0
  189.4580  174.7630  143.7630 C   0  0  0  0  0  0  0  0  0  0  0  0
  189.4420  175.9590  143.1850 C   0  0  0  0  0  2  0  0  0  0  0  0
  190.4830  173.8080  143.4690 N   0  0  0  0  0  2  0  0  0  0  0  0
  190.2570  172.3700  143.4230 C   0  0  0  0  0  2  0  0  0  0  0  0
  191.5270  171.6360  143.8350 C   0  0  2  0  0  3  0  0  0  0  0  0
  192.5480  172.5430  144.0670 F   0  0  0  0  0  0  0  0  0  0  0  0
  191.9670  170.6100  142.7900 C   0  0  1  0  0  3  0  0  0  0  0  0
  192.4680  169.4070  143.4350 N   0  0  0  0  0  1  0  0  0  0  0  0
  190.8460  170.2520  141.8280 C   0  0  0  0  0  1  0  0  0  0  0  0
  3 28  1  0  0  0  0
  3 49  1  1  0  0  0
  4 15  2  0  0  0  0
  5 36  1  0  0  0  0
  6  2  1  6  0  0  0
  6 33  1  0  0  0  0
  7 32  1  6  0  0  0
  7  3  1  0  0  0  0
  8 24  1  0  0  0  0
 10 22  1  0  0  0  0
 11  6  1  0  0  0  0
 12  9  1  0  0  0  0
 12 22  1  0  0  0  0
 13 27  1  0  0  0  0
 14 20  1  6  0  0  0
 14 30  1  0  0  0  0
 14 10  1  0  0  0  0
 15  8  1  0  0  0  0
 16 25  1  0  0  0  0
 17 21  1  6  0  0  0
 17 35  1  0  0  0  0
 17 31  1  0  0  0  0
 18 38  1  1  0  0  0
 18 34  1  0  0  0  0
 18  7  1  0  0  0  0
 19  9  1  0  0  0  0
 23 31  1  0  0  0  0
 24 26  2  0  0  0  0
 24 20  1  0  0  0  0
 25 11  1  0  0  0  0
 27 29  2  0  0  0  0
 28 16  1  0  0  0  0
 29  5  1  0  0  0  0
 29 35  1  0  0  0  0
 30 12  2  0  0  0  0
 33  2  1  6  0  0  0
 33 19  1  0  0  0  0
 34 23  1  6  0  0  0
 34  7  1  0  0  0  0
 35  1  2  0  0  0  0
 36  4  2  0  0  0  0
 37 13  1  0  0  0  0
 37 21  1  0  0  0  0
 38 40  2  0  0  0  0
 39 38  1  0  0  0  0
 41 39  1  0  0  0  0
 42 47  1  0  0  0  0
 43 46  1  1  0  0  0
 43 45  1  0  0  0  0
 44 45  1  0  0  0  0
 45 41  1  1  0  0  0
 47 44  1  0  0  0  0
 48 42  1  1  0  0  0
 48 46  1  0  0  0  0
 48 43  1  0  0  0  0
 49 55  1  0  0  0  0
 50 53  2  0  0  0  0
 51 54  1  0  0  0  0
 52 54  2  0  0  0  0
 53 55  1  0  0  0  0
 53 51  1  0  0  0  0
 55 52  1  0  0  0  0
 56 30  1  0  0  0  0
 57 56  1  0  0  0  0
 58 57  2  0  0  0  0
 59 57  1  0  0  0  0
 60 59  1  0  0  0  0
 60 61  1  0  0  0  0
 61 62  1  6  0  0  0
 63 65  1  6  0  0  0
 63 64  1  0  0  0  0
 63 61  1  0  0  0  0
M  END
>  <MODEL>
2

>  <REMARK>
 VINA RESULT:      -5.6      2.784      9.811
  Name = 
  11 active torsions:
  status: ('A' for Active; 'I' for Inactive)
    1  A    between atoms: C_3  and  C_31
    2  A    between atoms: C_5  and  N_48
    3  A    between atoms: C_5  and  C_64
    4  A    between atoms: C_6  and  C_49
    5  A    between atoms: C_17  and  C_38
    6  A    between atoms: C_17  and  C_39
    7  A    between atoms: C_21  and  N_30
    8  A    between atoms: N_28  and  N_30
    9  A    between atoms: C_39  and  N_48
   10  A    between atoms: C_49  and  N_59
   11  A    between atoms: C_53  and  C_64
                            x       y       z     vdW  Elec       q    Type
                         _______ _______ _______ _____ _____    ______ ____

>  <TORSDO>
F 11

$$$$
=
 OpenBabel11072408413D

 65 72  0  0  1  0  0  0  0  0999 V2000
  188.8710  173.2080  140.3010 O   0  0  0  0  0  0  0  0  0  0  0  0
  192.2210  176.7990  144.5750 C   0  0  0  0  0  2  0  0  0  0  0  0
  196.2390  173.8070  141.7090 C   0  0  1  0  0  3  0  0  0  0  0  0
  187.0640  177.0710  140.8310 C   0  0  0  0  0  0  0  0  0  0  0  0
  187.4560  175.5960  139.0650 O   0  0  0  0  0  0  0  0  0  0  0  0
  193.5210  176.5820  145.3190 C   0  0  2  0  0  3  0  0  0  0  0  0
  195.3240  174.0640  140.4820 C   0  0  2  0  0  0  0  0  0  0  0  0
  186.9900  178.8680  142.4680 C   0  0  0  0  0  2  0  0  0  0  0  0
  190.5190  174.9410  147.2060 C   0  0  0  0  0  2  0  0  0  0  0  0
  187.6500  177.7920  146.9380 S   0  0  0  0  0  0  0  0  0  0  0  0
  194.1470  175.2560  144.9000 C   0  0  0  0  0  2  0  0  0  0  0  0
  189.3510  175.7960  146.8120 C   0  0  0  0  0  0  0  0  0  0  0  0
  188.5390  173.1740  136.4770 C   0  0  0  0  0  2  0  0  0  0  0  0
  187.4930  176.5890  145.5670 C   0  0  1  0  0  3  0  0  0  0  0  0
  186.4570  178.1290  141.2880 C   0  0  0  0  0  3  0  0  0  0  0  0
  195.4710  175.7270  142.9720 O   0  0  0  0  0  0  0  0  0  0  0  0
  190.6160  173.7820  138.7390 C   0  0  2  0  0  3  0  0  0  0  0  0
  195.1580  172.9810  139.4160 C   0  0  2  0  0  3  0  0  0  0  0  0
  191.6520  175.0180  146.1850 C   0  0  0  0  0  2  0  0  0  0  0  0
  187.6850  177.2710  144.2930 N   0  0  0  0  0  2  0  0  0  0  0  0
  190.7720  172.8460  137.5460 C   0  0  0  0  0  2  0  0  0  0  0  0
  189.0210  176.9190  147.5420 O   0  0  0  0  0  0  0  0  0  0  0  0
  192.9350  174.0510  139.5960 C   0  0  0  0  0  2  0  0  0  0  0  0
  186.6970  178.1370  143.7320 C   0  0  0  0  0  0  0  0  0  0  0  0
  195.5400  175.4950  144.3490 C   0  0  0  0  0  2  0  0  0  0  0  0
  185.5730  178.2710  144.2850 O   0  0  0  0  0  0  0  0  0  0  0  0
  187.9280  174.2670  137.2280 N   0  0  0  0  0  0  0  0  0  0  0  0
  196.6060  175.1010  142.4470 C   0  0  0  0  0  2  0  0  0  0  0  0
  188.1720  174.5500  138.4740 C   0  0  0  0  0  0  0  0  0  0  0  0
  188.5710  175.5730  145.7640 C   0  0  0  0  0  0  0  0  0  0  0  0
  191.5980  173.3840  139.8310 C   0  0  0  0  0  2  0  0  0  0  0  0
  195.3330  175.3530  139.9350 O   0  0  0  0  0  1  0  0  0  0  0  0
  192.1790  176.4450  146.0470 C   0  0  2  0  0  3  0  0  0  0  0  0
  194.0070  173.3010  140.3710 C   0  0  2  0  0  3  0  0  0  0  0  0
  189.1960  173.8040  139.2390 C   0  0  0  0  0  0  0  0  0  0  0  0
  187.6840  176.0230  140.3710 C   0  0  0  0  0  3  0  0  0  0  0  0
  190.0400  173.3740  136.3230 C   0  0  0  0  0  2  0  0  0  0  0  0
  195.8310  171.6810  139.7590 C   0  0  0  0  0  0  0  0  0  0  0  0
  195.0780  170.4730  139.7910 N   0  0  0  0  0  2  0  0  0  0  0  0
  197.0540  171.6500  140.0620 O   0  0  0  0  0  0  0  0  0  0  0  0
  193.6790  170.4910  139.9160 N   0  0  0  0  0  2  0  0  0  0  0  0
  191.4710  168.7970  136.4600 C   0  0  0  0  0  2  0  0  0  0  0  0
  193.3620  170.3880  137.4410 C   0  0  1  0  0  3  0  0  0  0  0  0
  191.3230  169.4500  139.1100 S   0  0  0  0  0  0  0  0  0  0  0  0
  193.0810  169.7530  138.8080 C   0  0  2  0  0  3  0  0  0  0  0  0
  193.9550  169.3200  136.5370 C   0  0  0  0  0  2  0  0  0  0  0  0
  191.3800  168.1660  137.8430 C   0  0  0  0  0  2  0  0  0  0  0  0
  192.5720  169.8550  136.2340 C   0  0  1  0  0  3  0  0  0  0  0  0
  195.6860  172.7550  142.6830 C   0  0  0  0  0  2  0  0  0  0  0  0
  196.7510  169.9350  142.6270 O   0  0  0  0  0  0  0  0  0  0  0  0
  197.9410  170.4520  144.6760 C   0  0  0  0  0  2  0  0  0  0  0  0
  197.2600  172.6900  144.6750 C   0  0  0  0  0  3  0  0  0  0  0  0
  197.1150  170.7740  143.4930 C   0  0  0  0  0  0  0  0  0  0  0  0
  197.9410  171.7830  145.3720 C   0  0  0  0  0  3  0  0  0  0  0  0
  196.7470  172.1410  143.4720 N   0  0  0  0  0  0  0  0  0  0  0  0
  188.7200  174.3880  144.8580 C   0  0  0  0  0  2  0  0  0  0  0  0
  189.6780  174.6920  143.7580 C   0  0  0  0  0  0  0  0  0  0  0  0
  189.6250  175.8790  143.1630 C   0  0  0  0  0  2  0  0  0  0  0  0
  190.7310  173.7640  143.4760 N   0  0  0  0  0  2  0  0  0  0  0  0
  190.7200  172.3750  143.9130 C   0  0  0  0  0  2  0  0  0  0  0  0
  191.7860  171.5900  143.1590 C   0  0  2  0  0  3  0  0  0  0  0  0
  191.1990  170.8130  142.1730 F   0  0  0  0  0  0  0  0  0  0  0  0
  192.6230  170.7100  144.0870 C   0  0  1  0  0  3  0  0  0  0  0  0
  193.4460  169.7920  143.3170 N   0  0  0  0  0  1  0  0  0  0  0  0
  193.5000  171.5300  145.0210 C   0  0  0  0  0  1  0  0  0  0  0  0
  3 28  1  0  0  0  0
  3 49  1  1  0  0  0
  4 15  2  0  0  0  0
  5 36  1  0  0  0  0
  6  2  1  6  0  0  0
  6 33  1  0  0  0  0
  7 32  1  6  0  0  0
  7  3  1  0  0  0  0
  8 24  1  0  0  0  0
 10 22  1  0  0  0  0
 11  6  1  0  0  0  0
 12  9  1  0  0  0  0
 12 22  1  0  0  0  0
 13 27  1  0  0  0  0
 14 20  1  6  0  0  0
 14 30  1  0  0  0  0
 14 10  1  0  0  0  0
 15  8  1  0  0  0  0
 16 25  1  0  0  0  0
 17 21  1  6  0  0  0
 17 35  1  0  0  0  0
 17 31  1  0  0  0  0
 18 38  1  1  0  0  0
 18 34  1  0  0  0  0
 18  7  1  0  0  0  0
 19  9  1  0  0  0  0
 23 31  1  0  0  0  0
 24 26  2  0  0  0  0
 24 20  1  0  0  0  0
 25 11  1  0  0  0  0
 27 29  2  0  0  0  0
 28 16  1  0  0  0  0
 29  5  1  0  0  0  0
 29 35  1  0  0  0  0
 30 12  2  0  0  0  0
 33  2  1  6  0  0  0
 33 19  1  0  0  0  0
 34 23  1  6  0  0  0
 34  7  1  0  0  0  0
 35  1  2  0  0  0  0
 36  4  2  0  0  0  0
 37 13  1  0  0  0  0
 37 21  1  0  0  0  0
 38 39  1  0  0  0  0
 38 40  2  0  0  0  0
 39 41  1  0  0  0  0
 42 47  1  0  0  0  0
 43 46  1  6  0  0  0
 43 45  1  0  0  0  0
 45 44  1  0  0  0  0
 45 41  1  1  0  0  0
 47 44  1  0  0  0  0
 48 42  1  1  0  0  0
 48 46  1  0  0  0  0
 48 43  1  0  0  0  0
 49 55  1  0  0  0  0
 50 53  2  0  0  0  0
 51 54  1  0  0  0  0
 52 54  2  0  0  0  0
 53 51  1  0  0  0  0
 55 53  1  0  0  0  0
 55 52  1  0  0  0  0
 56 30  1  0  0  0  0
 57 56  1  0  0  0  0
 58 57  2  0  0  0  0
 59 57  1  0  0  0  0
 59 60  1  0  0  0  0
 61 62  1  6  0  0  0
 61 60  1  0  0  0  0
 61 63  1  0  0  0  0
 63 65  1  6  0  0  0
 64 63  1  0  0  0  0
M  END
>  <MODEL>
3

>  <REMARK>
 VINA RESULT:      -5.6      2.864      9.347
  Name = 
  11 active torsions:
  status: ('A' for Active; 'I' for Inactive)
    1  A    between atoms: C_3  and  C_31
    2  A    between atoms: C_5  and  N_48
    3  A    between atoms: C_5  and  C_64
    4  A    between atoms: C_6  and  C_49
    5  A    between atoms: C_17  and  C_38
    6  A    between atoms: C_17  and  C_39
    7  A    between atoms: C_21  and  N_30
    8  A    between atoms: N_28  and  N_30
    9  A    between atoms: C_39  and  N_48
   10  A    between atoms: C_49  and  N_59
   11  A    between atoms: C_53  and  C_64
                            x       y       z     vdW  Elec       q    Type
                         _______ _______ _______ _____ _____    ______ ____

>  <TORSDO>
F 11

$$$$
=
 OpenBabel11072408413D

 65 72  0  0  1  0  0  0  0  0999 V2000
  189.0220  172.9460  139.3750 O   0  0  0  0  0  0  0  0  0  0  0  0
  190.7380  177.5080  143.6910 C   0  0  0  0  0  2  0  0  0  0  0  0
  195.6720  174.8310  142.3500 C   0  0  1  0  0  3  0  0  0  0  0  0
  186.7000  176.5230  138.8530 C   0  0  0  0  0  0  0  0  0  0  0  0
  187.6950  174.9170  137.4820 O   0  0  0  0  0  0  0  0  0  0  0  0
  191.8240  177.5860  144.7410 C   0  0  2  0  0  3  0  0  0  0  0  0
  195.0730  174.7910  140.9190 C   0  0  2  0  0  0  0  0  0  0  0  0
  186.0040  178.4770  140.1230 C   0  0  0  0  0  2  0  0  0  0  0  0
  188.6560  175.7530  146.1110 C   0  0  0  0  0  2  0  0  0  0  0  0
  185.6340  178.0780  144.7350 S   0  0  0  0  0  0  0  0  0  0  0  0
  192.6860  176.3290  144.6950 C   0  0  0  0  0  2  0  0  0  0  0  0
  187.5340  176.3650  145.3260 C   0  0  0  0  0  0  0  0  0  0  0  0
  189.6740  172.3860  135.6330 C   0  0  0  0  0  2  0  0  0  0  0  0
  185.9710  176.7040  143.5730 C   0  0  1  0  0  3  0  0  0  0  0  0
  185.8770  177.5250  138.9830 C   0  0  0  0  0  3  0  0  0  0  0  0
  194.3900  176.7540  143.0800 O   0  0  0  0  0  0  0  0  0  0  0  0
  191.0250  173.5800  138.1930 C   0  0  2  0  0  3  0  0  0  0  0  0
  195.3100  173.5720  140.0280 C   0  0  2  0  0  3  0  0  0  0  0  0
  189.9930  175.8750  145.3840 C   0  0  0  0  0  2  0  0  0  0  0  0
  186.3970  177.2440  142.2880 N   0  0  0  0  0  2  0  0  0  0  0  0
  191.5870  172.5380  137.2330 C   0  0  0  0  0  2  0  0  0  0  0  0
  186.9010  177.5060  145.7720 O   0  0  0  0  0  0  0  0  0  0  0  0
  193.0050  174.3040  139.5130 C   0  0  0  0  0  2  0  0  0  0  0  0
  185.4890  177.8730  141.3820 C   0  0  0  0  0  0  0  0  0  0  0  0
  194.1350  176.7070  144.4540 C   0  0  0  0  0  2  0  0  0  0  0  0
  184.2540  177.9010  141.6290 O   0  0  0  0  0  0  0  0  0  0  0  0
  188.7690  173.4580  136.0390 N   0  0  0  0  0  0  0  0  0  0  0  0
  195.6870  176.2470  142.9400 C   0  0  0  0  0  2  0  0  0  0  0  0
  188.6560  173.9280  137.2470 C   0  0  0  0  0  0  0  0  0  0  0  0
  187.0760  175.8970  144.1740 C   0  0  0  0  0  0  0  0  0  0  0  0
  191.7390  173.4750  139.5320 C   0  0  0  0  0  2  0  0  0  0  0  0
  195.0690  175.9880  140.1920 O   0  0  0  0  0  1  0  0  0  0  0  0
  190.3670  177.3370  145.1490 C   0  0  2  0  0  3  0  0  0  0  0  0
  193.9260  173.8290  140.6250 C   0  0  2  0  0  3  0  0  0  0  0  0
  189.5330  173.4480  138.3380 C   0  0  0  0  0  0  0  0  0  0  0  0
  187.5340  175.5330  138.7210 C   0  0  0  0  0  3  0  0  0  0  0  0
  191.1300  172.7920  135.8040 C   0  0  0  0  0  2  0  0  0  0  0  0
  196.0230  172.4430  140.7190 C   0  0  0  0  0  0  0  0  0  0  0  0
  195.3470  171.2120  140.9600 N   0  0  0  0  0  2  0  0  0  0  0  0
  197.2060  172.5830  141.1300 O   0  0  0  0  0  0  0  0  0  0  0  0
  193.9440  171.1390  140.9520 N   0  0  0  0  0  2  0  0  0  0  0  0
  192.3120  168.5720  137.7210 C   0  0  0  0  0  2  0  0  0  0  0  0
  194.0920  170.3470  138.5880 C   0  0  1  0  0  3  0  0  0  0  0  0
  191.7140  169.9500  140.0060 S   0  0  0  0  0  0  0  0  0  0  0  0
  193.5140  170.1270  139.9920 C   0  0  2  0  0  3  0  0  0  0  0  0
  194.7680  169.0580  138.1490 C   0  0  0  0  0  2  0  0  0  0  0  0
  191.9170  168.3590  139.1770 C   0  0  0  0  0  2  0  0  0  0  0  0
  193.5080  169.5070  137.4400 C   0  0  1  0  0  3  0  0  0  0  0  0
  195.0180  173.8370  143.3220 C   0  0  0  0  0  2  0  0  0  0  0  0
  195.4750  171.0140  144.2790 O   0  0  0  0  0  0  0  0  0  0  0  0
  196.8700  171.9430  146.0320 C   0  0  0  0  0  2  0  0  0  0  0  0
  196.6660  174.1320  145.2320 C   0  0  0  0  0  3  0  0  0  0  0  0
  196.0560  172.0030  144.7990 C   0  0  0  0  0  0  0  0  0  0  0  0
  197.1870  173.3990  146.2140 C   0  0  0  0  0  3  0  0  0  0  0  0
  195.9770  173.3230  144.2920 N   0  0  0  0  0  0  0  0  0  0  0  0
  187.5870  174.6450  143.5260 C   0  0  0  0  0  2  0  0  0  0  0  0
  188.7210  174.9590  142.6120 C   0  0  0  0  0  0  0  0  0  0  0  0
  188.7500  176.1350  141.9950 C   0  0  0  0  0  2  0  0  0  0  0  0
  189.8300  174.0550  142.5430 N   0  0  0  0  0  2  0  0  0  0  0  0
  189.6860  172.6070  142.4780 C   0  0  0  0  0  2  0  0  0  0  0  0
  190.2070  171.9810  143.7650 C   0  0  2  0  0  3  0  0  0  0  0  0
  189.7580  172.6990  144.8620 F   0  0  0  0  0  0  0  0  0  0  0  0
  191.7340  171.8920  143.7900 C   0  0  1  0  0  3  0  0  0  0  0  0
  192.2750  172.6900  144.8770 N   0  0  0  0  0  1  0  0  0  0  0  0
  192.2230  170.4570  143.9090 C   0  0  0  0  0  1  0  0  0  0  0  0
  3 28  1  0  0  0  0
  3 49  1  1  0  0  0
  4 15  2  0  0  0  0
  5 36  1  0  0  0  0
  6  2  1  6  0  0  0
  6 33  1  0  0  0  0
  7 32  1  6  0  0  0
  7  3  1  0  0  0  0
  8 24  1  0  0  0  0
 10 22  1  0  0  0  0
 11  6  1  0  0  0  0
 12 22  1  0  0  0  0
 12  9  1  0  0  0  0
 13 37  1  0  0  0  0
 13 27  1  0  0  0  0
 14 20  1  6  0  0  0
 14 30  1  0  0  0  0
 14 10  1  0  0  0  0
 15  8  1  0  0  0  0
 16 25  1  0  0  0  0
 17 21  1  6  0  0  0
 17 35  1  0  0  0  0
 17 31  1  0  0  0  0
 18 34  1  0  0  0  0
 18 38  1  1  0  0  0
 18  7  1  0  0  0  0
 19  9  1  0  0  0  0
 23 31  1  0  0  0  0
 24 26  2  0  0  0  0
 24 20  1  0  0  0  0
 25 11  1  0  0  0  0
 27 29  2  0  0  0  0
 28 16  1  0  0  0  0
 29  5  1  0  0  0  0
 29 35  1  0  0  0  0
 30 12  2  0  0  0  0
 33  2  1  6  0  0  0
 33 19  1  0  0  0  0
 34 23  1  6  0  0  0
 34  7  1  0  0  0  0
 35  1  2  0  0  0  0
 36  4  2  0  0  0  0
 37 21  1  0  0  0  0
 38 39  1  0  0  0  0
 38 40  2  0  0  0  0
 41 39  1  0  0  0  0
 42 47  1  0  0  0  0
 43 46  1  1  0  0  0
 43 45  1  0  0  0  0
 45 44  1  0  0  0  0
 45 41  1  1  0  0  0
 47 44  1  0  0  0  0
 48 42  1  1  0  0  0
 48 46  1  0  0  0  0
 48 43  1  0  0  0  0
 49 55  1  0  0  0  0
 50 53  2  0  0  0  0
 51 54  1  0  0  0  0
 52 54  2  0  0  0  0
 53 51  1  0  0  0  0
 55 53  1  0  0  0  0
 55 52  1  0  0  0  0
 56 30  1  0  0  0  0
 57 56  1  0  0  0  0
 58 57  2  0  0  0  0
 59 57  1  0  0  0  0
 60 59  1  0  0  0  0
 60 61  1  0  0  0  0
 61 63  1  0  0  0  0
 61 62  1  1  0  0  0
 63 65  1  1  0  0  0
 63 64  1  0  0  0  0
M  END
>  <MODEL>
4

>  <REMARK>
 VINA RESULT:      -5.5      3.024      9.178
  Name = 
  11 active torsions:
  status: ('A' for Active; 'I' for Inactive)
    1  A    between atoms: C_3  and  C_31
    2  A    between atoms: C_5  and  N_48
    3  A    between atoms: C_5  and  C_64
    4  A    between atoms: C_6  and  C_49
    5  A    between atoms: C_17  and  C_38
    6  A    between atoms: C_17  and  C_39
    7  A    between atoms: C_21  and  N_30
    8  A    between atoms: N_28  and  N_30
    9  A    between atoms: C_39  and  N_48
   10  A    between atoms: C_49  and  N_59
   11  A    between atoms: C_53  and  C_64
                            x       y       z     vdW  Elec       q    Type
                         _______ _______ _______ _____ _____    ______ ____

>  <TORSDO>
F 11

$$$$
=
 OpenBabel11072408413D

 65 72  0  0  1  0  0  0  0  0999 V2000
  194.7230  175.8200  143.0500 O   0  0  0  0  0  0  0  0  0  0  0  0
  188.5750  173.8420  142.2250 C   0  0  0  0  0  2  0  0  0  0  0  0
  191.6170  170.8230  138.3590 C   0  0  1  0  0  3  0  0  0  0  0  0
  192.6350  175.6480  146.8020 C   0  0  0  0  0  0  0  0  0  0  0  0
  194.7750  175.1530  146.0130 O   0  0  0  0  0  0  0  0  0  0  0  0
  187.7950  173.3540  141.0240 C   0  0  2  0  0  3  0  0  0  0  0  0
  192.6850  170.7670  139.4830 C   0  0  2  0  0  0  0  0  0  0  0  0
  190.3570  175.6960  147.6530 C   0  0  0  0  0  2  0  0  0  0  0  0
  187.7950  177.2570  141.2260 C   0  0  0  0  0  2  0  0  0  0  0  0
  187.1330  177.9310  145.1680 S   0  0  0  0  0  0  0  0  0  0  0  0
  188.7040  173.2910  139.8010 C   0  0  0  0  0  2  0  0  0  0  0  0
  187.9210  177.5280  142.6950 C   0  0  0  0  0  0  0  0  0  0  0  0
  197.9390  174.1730  144.3480 C   0  0  0  0  0  2  0  0  0  0  0  0
  188.9280  177.9140  144.8090 C   0  0  1  0  0  3  0  0  0  0  0  0
  191.8330  175.8390  147.8110 C   0  0  0  0  0  3  0  0  0  0  0  0
  189.7330  171.1390  139.8500 O   0  0  0  0  0  0  0  0  0  0  0  0
  195.3050  173.4940  142.7970 C   0  0  2  0  0  3  0  0  0  0  0  0
  194.1690  170.8530  139.1270 C   0  0  2  0  0  3  0  0  0  0  0  0
  188.3350  175.8780  140.8530 C   0  0  0  0  0  2  0  0  0  0  0  0
  189.5630  176.8250  145.5420 N   0  0  0  0  0  2  0  0  0  0  0  0
  196.7430  173.2120  142.3770 C   0  0  0  0  0  2  0  0  0  0  0  0
  186.8000  177.6220  143.4940 O   0  0  0  0  0  0  0  0  0  0  0  0
  193.9470  172.0900  141.2570 C   0  0  0  0  0  2  0  0  0  0  0  0
  189.7790  176.8770  146.9530 C   0  0  0  0  0  0  0  0  0  0  0  0
  188.7170  171.8820  139.2410 C   0  0  0  0  0  2  0  0  0  0  0  0
  189.5070  177.9180  147.6060 O   0  0  0  0  0  0  0  0  0  0  0  0
  196.8790  174.4980  145.2980 N   0  0  0  0  0  0  0  0  0  0  0  0
  190.2430  170.3280  138.8310 C   0  0  0  0  0  2  0  0  0  0  0  0
  195.6560  174.8090  144.9830 C   0  0  0  0  0  0  0  0  0  0  0  0
  189.0690  177.6830  143.3390 C   0  0  0  0  0  0  0  0  0  0  0  0
  194.4070  173.4980  141.5690 C   0  0  0  0  0  2  0  0  0  0  0  0
  192.4440  169.8980  140.5540 O   0  0  0  0  0  1  0  0  0  0  0  0
  187.5710  174.7680  141.5730 C   0  0  2  0  0  3  0  0  0  0  0  0
  193.4750  172.0300  139.8140 C   0  0  2  0  0  3  0  0  0  0  0  0
  195.2000  174.7780  143.5750 C   0  0  0  0  0  0  0  0  0  0  0  0
  193.4310  175.4410  145.7930 C   0  0  0  0  0  3  0  0  0  0  0  0
  197.6240  172.9000  143.5760 C   0  0  0  0  0  2  0  0  0  0  0  0
  194.4320  171.1230  137.6720 C   0  0  0  0  0  0  0  0  0  0  0  0
  195.1350  172.2970  137.2780 N   0  0  0  0  0  2  0  0  0  0  0  0
  193.9980  170.3410  136.7830 O   0  0  0  0  0  0  0  0  0  0  0  0
  195.2400  173.4040  138.1360 N   0  0  0  0  0  2  0  0  0  0  0  0
  195.9620  176.6630  135.2120 C   0  0  0  0  0  2  0  0  0  0  0  0
  194.3600  174.8330  136.2870 C   0  0  1  0  0  3  0  0  0  0  0  0
  197.1250  174.6670  136.6740 S   0  0  0  0  0  0  0  0  0  0  0  0
  195.4460  174.6150  137.3470 C   0  0  2  0  0  3  0  0  0  0  0  0
  193.7970  176.2340  136.4690 C   0  0  0  0  0  2  0  0  0  0  0  0
  196.9000  176.4360  136.3910 C   0  0  0  0  0  2  0  0  0  0  0  0
  194.6080  175.9220  135.2290 C   0  0  1  0  0  3  0  0  0  0  0  0
  191.5030  172.1970  137.6800 C   0  0  0  0  0  2  0  0  0  0  0  0
  189.4610  173.9230  136.2880 O   0  0  0  0  0  0  0  0  0  0  0  0
  189.3410  172.2170  134.5680 C   0  0  0  0  0  2  0  0  0  0  0  0
  191.0320  170.9210  135.5350 C   0  0  0  0  0  3  0  0  0  0  0  0
  189.8940  172.8540  135.7830 C   0  0  0  0  0  0  0  0  0  0  0  0
  190.1570  170.9580  134.5320 C   0  0  0  0  0  3  0  0  0  0  0  0
  190.9490  172.0890  136.3370 N   0  0  0  0  0  0  0  0  0  0  0  0
  190.4060  177.6640  142.6630 C   0  0  0  0  0  2  0  0  0  0  0  0
  191.2850  176.6300  143.2790 C   0  0  0  0  0  0  0  0  0  0  0  0
  192.3200  177.0160  144.0180 C   0  0  0  0  0  1  0  0  0  0  0  0
  190.9050  175.2520  143.1930 N   0  0  0  0  0  0  0  0  0  0  0  0
  191.6210  174.1750  143.8620 C   0  0  0  0  0  2  0  0  0  0  0  0
  190.6280  173.1440  144.3850 C   0  0  2  0  0  3  0  0  0  0  0  0
  190.2730  173.4420  145.6900 F   0  0  0  0  0  0  0  0  0  0  0  0
  191.1760  171.7190  144.3050 C   0  0  1  0  0  3  0  0  0  0  0  0
  190.9230  171.1460  142.9940 N   0  0  0  0  0  1  0  0  0  0  0  0
  192.6640  171.6580  144.6170 C   0  0  0  0  0  1  0  0  0  0  0  0
  1 35  2  0  0  0  0
  3 49  1  1  0  0  0
  3 28  1  0  0  0  0
  3  7  1  0  0  0  0
  4 15  2  0  0  0  0
  6 11  1  6  0  0  0
  6 33  1  0  0  0  0
  6  2  1  0  0  0  0
  7 34  1  0  0  0  0
  7 32  1  1  0  0  0
  8 15  1  0  0  0  0
  9 12  1  0  0  0  0
 12 30  2  0  0  0  0
 12 22  1  0  0  0  0
 13 27  1  0  0  0  0
 14 30  1  6  0  0  0
 14 10  1  0  0  0  0
 14 20  1  0  0  0  0
 17 31  1  6  0  0  0
 17 35  1  0  0  0  0
 18 38  1  6  0  0  0
 18  7  1  0  0  0  0
 18 34  1  0  0  0  0
 19  9  1  0  0  0  0
 20 24  1  0  0  0  0
 21 17  1  0  0  0  0
 21 37  1  0  0  0  0
 22 10  1  0  0  0  0
 23 31  1  0  0  0  0
 24 26  2  0  0  0  0
 24  8  1  0  0  0  0
 25 11  1  0  0  0  0
 25 16  1  0  0  0  0
 28 16  1  0  0  0  0
 29 27  2  0  0  0  0
 29  5  1  0  0  0  0
 33 19  1  6  0  0  0
 33  2  1  0  0  0  0
 34 23  1  1  0  0  0
 35 29  1  0  0  0  0
 36  5  1  0  0  0  0
 36  4  2  0  0  0  0
 37 13  1  0  0  0  0
 39 38  1  0  0  0  0
 39 41  1  0  0  0  0
 40 38  2  0  0  0  0
 42 47  1  0  0  0  0
 43 46  1  1  0  0  0
 43 45  1  0  0  0  0
 44 45  1  0  0  0  0
 45 41  1  6  0  0  0
 47 44  1  0  0  0  0
 48 42  1  1  0  0  0
 48 43  1  0  0  0  0
 48 46  1  0  0  0  0
 51 53  1  0  0  0  0
 52 55  1  0  0  0  0
 53 50  2  0  0  0  0
 53 55  1  0  0  0  0
 54 51  1  0  0  0  0
 54 52  2  0  0  0  0
 55 49  1  0  0  0  0
 56 57  1  0  0  0  0
 56 30  1  0  0  0  0
 57 58  1  0  0  0  0
 59 57  2  0  0  0  0
 59 60  1  0  0  0  0
 60 61  1  0  0  0  0
 61 62  1  1  0  0  0
 63 61  1  0  0  0  0
 63 65  1  6  0  0  0
 64 63  1  0  0  0  0
M  END
>  <MODEL>
5

>  <REMARK>
 VINA RESULT:      -5.1      2.869     10.598
  Name = 
  11 active torsions:
  status: ('A' for Active; 'I' for Inactive)
    1  A    between atoms: C_3  and  C_31
    2  A    between atoms: C_5  and  N_48
    3  A    between atoms: C_5  and  C_64
    4  A    between atoms: C_6  and  C_49
    5  A    between atoms: C_17  and  C_38
    6  A    between atoms: C_17  and  C_39
    7  A    between atoms: C_21  and  N_30
    8  A    between atoms: N_28  and  N_30
    9  A    between atoms: C_39  and  N_48
   10  A    between atoms: C_49  and  N_59
   11  A    between atoms: C_53  and  C_64
                            x       y       z     vdW  Elec       q    Type
                         _______ _______ _______ _____ _____    ______ ____

>  <TORSDO>
F 11

$$$$
=
 OpenBabel11072408413D

 65 72  0  0  1  0  0  0  0  0999 V2000
  192.3670  174.1540  136.9840 O   0  0  0  0  0  0  0  0  0  0  0  0
  193.5930  171.0040  142.5480 C   0  0  0  0  0  2  0  0  0  0  0  0
  189.3830  174.7260  143.8680 C   0  0  1  0  0  3  0  0  0  0  0  0
  193.3210  170.0290  136.2500 C   0  0  0  0  0  0  0  0  0  0  0  0
  191.8330  171.6150  135.4030 O   0  0  0  0  0  0  0  0  0  0  0  0
  193.5140  171.4040  144.0050 C   0  0  2  0  0  3  0  0  0  0  0  0
  188.8460  174.3680  142.4570 C   0  0  2  0  0  0  0  0  0  0  0  0
  194.4880  168.1830  137.3210 C   0  0  0  0  0  2  0  0  0  0  0  0
  196.9330  172.4540  142.4300 C   0  0  0  0  0  2  0  0  0  0  0  0
  197.9410  169.1810  140.2610 S   0  0  0  0  0  0  0  0  0  0  0  0
  192.9890  172.8300  144.1280 C   0  0  0  0  0  2  0  0  0  0  0  0
  197.1460  171.4330  141.3510 C   0  0  0  0  0  0  0  0  0  0  0  0
  189.4020  174.2800  134.5480 C   0  0  0  0  0  2  0  0  0  0  0  0
  197.0480  170.3930  139.2200 C   0  0  1  0  0  3  0  0  0  0  0  0
  193.9020  168.8680  136.1330 C   0  0  0  0  0  3  0  0  0  0  0  0
  190.6090  172.6580  144.1750 O   0  0  0  0  0  0  0  0  0  0  0  0
  190.0450  173.9360  137.5920 C   0  0  2  0  0  3  0  0  0  0  0  0
  188.1940  175.4480  141.5950 C   0  0  2  0  0  3  0  0  0  0  0  0
  195.4560  172.6030  142.7870 C   0  0  0  0  0  2  0  0  0  0  0  0
  195.8070  169.8020  138.7360 N   0  0  0  0  0  2  0  0  0  0  0  0
  189.0920  174.9310  136.9390 C   0  0  0  0  0  2  0  0  0  0  0  0
  197.7900  170.2440  141.6230 O   0  0  0  0  0  0  0  0  0  0  0  0
  189.4360  174.0210  140.0030 C   0  0  0  0  0  2  0  0  0  0  0  0
  195.7820  168.8060  137.7110 C   0  0  0  0  0  0  0  0  0  0  0  0
  191.7360  172.8450  144.9820 C   0  0  0  0  0  2  0  0  0  0  0  0
  196.8420  168.4680  137.1200 O   0  0  0  0  0  0  0  0  0  0  0  0
  190.2230  173.0730  134.5980 N   0  0  0  0  0  0  0  0  0  0  0  0
  189.6280  173.4830  144.7340 C   0  0  0  0  0  2  0  0  0  0  0  0
  191.0800  172.7860  135.5340 C   0  0  0  0  0  0  0  0  0  0  0  0
  196.7410  171.5650  140.0960 C   0  0  0  0  0  0  0  0  0  0  0  0
  190.4520  174.4490  138.9660 C   0  0  0  0  0  2  0  0  0  0  0  0
  188.2290  173.1200  142.3030 O   0  0  0  0  0  1  0  0  0  0  0  0
  194.8730  171.2890  143.3040 C   0  0  2  0  0  3  0  0  0  0  0  0
  189.5760  174.9070  141.2300 C   0  0  2  0  0  3  0  0  0  0  0  0
  191.2380  173.6610  136.7180 C   0  0  0  0  0  0  0  0  0  0  0  0
  192.7300  171.1810  136.3760 C   0  0  0  0  0  3  0  0  0  0  0  0
  188.4220  174.3360  135.7100 C   0  0  0  0  0  2  0  0  0  0  0  0
  188.2660  176.8280  142.1890 C   0  0  0  0  0  0  0  0  0  0  0  0
  187.3600  177.2110  143.2190 N   0  0  0  0  0  2  0  0  0  0  0  0
  189.0960  177.6720  141.7570 O   0  0  0  0  0  0  0  0  0  0  0  0
  186.1560  176.5170  143.4240 N   0  0  0  0  0  2  0  0  0  0  0  0
  184.4180  178.7880  146.8170 C   0  0  0  0  0  2  0  0  0  0  0  0
  185.3240  178.6950  144.3180 C   0  0  1  0  0  3  0  0  0  0  0  0
  185.9660  176.6480  146.1130 S   0  0  0  0  0  0  0  0  0  0  0  0
  185.3900  177.1720  144.4800 C   0  0  2  0  0  3  0  0  0  0  0  0
  183.8620  179.1120  144.3600 C   0  0  0  0  0  2  0  0  0  0  0  0
  184.4150  177.2650  146.8000 C   0  0  0  0  0  2  0  0  0  0  0  0
  184.7740  179.5120  145.5000 C   0  0  1  0  0  3  0  0  0  0  0  0
  190.6230  175.6330  143.8460 C   0  0  0  0  0  2  0  0  0  0  0  0
  192.9980  176.6600  145.3940 O   0  0  0  0  0  0  0  0  0  0  0  0
  191.4380  177.4130  147.0910 C   0  0  0  0  0  2  0  0  0  0  0  0
  189.5600  176.7690  145.8530 C   0  0  0  0  0  3  0  0  0  0  0  0
  191.8140  176.8480  145.7770 C   0  0  0  0  0  0  0  0  0  0  0  0
  189.9440  177.2850  147.0190 C   0  0  0  0  0  3  0  0  0  0  0  0
  190.6720  176.5060  145.0120 N   0  0  0  0  0  0  0  0  0  0  0  0
  196.0600  172.7920  139.5700 C   0  0  0  0  0  2  0  0  0  0  0  0
  197.0630  173.7520  139.0300 C   0  0  0  0  0  0  0  0  0  0  0  0
  197.7810  173.4090  137.9660 C   0  0  0  0  0  2  0  0  0  0  0  0
  197.1180  175.0780  139.5680 N   0  0  0  0  0  2  0  0  0  0  0  0
  195.9470  175.8100  140.0270 C   0  0  0  0  0  2  0  0  0  0  0  0
  196.2880  176.5840  141.2950 C   0  0  2  0  0  3  0  0  0  0  0  0
  197.6310  176.4290  141.6020 F   0  0  0  0  0  0  0  0  0  0  0  0
  195.4280  176.1560  142.4840 C   0  0  1  0  0  3  0  0  0  0  0  0
  194.7060  174.9330  142.1790 N   0  0  0  0  0  1  0  0  0  0  0  0
  196.2500  175.9680  143.7500 C   0  0  0  0  0  1  0  0  0  0  0  0
  3 49  1  6  0  0  0
  3 28  1  0  0  0  0
  4 36  2  0  0  0  0
  5 29  1  0  0  0  0
  5 36  1  0  0  0  0
  6  2  1  6  0  0  0
  6 11  1  0  0  0  0
  7 32  1  6  0  0  0
  7  3  1  0  0  0  0
  8 24  1  0  0  0  0
  9 19  1  0  0  0  0
 10 22  1  0  0  0  0
 11 25  1  0  0  0  0
 12 22  1  0  0  0  0
 12  9  1  0  0  0  0
 13 27  1  0  0  0  0
 13 37  1  0  0  0  0
 14 20  1  1  0  0  0
 14 30  1  0  0  0  0
 14 10  1  0  0  0  0
 15  4  2  0  0  0  0
 15  8  1  0  0  0  0
 16 28  1  0  0  0  0
 16 25  1  0  0  0  0
 17 21  1  6  0  0  0
 17 31  1  0  0  0  0
 18 38  1  1  0  0  0
 18  7  1  0  0  0  0
 19 33  1  0  0  0  0
 24 20  1  0  0  0  0
 26 24  2  0  0  0  0
 27 29  2  0  0  0  0
 29 35  1  0  0  0  0
 30 12  2  0  0  0  0
 31 23  1  0  0  0  0
 33  2  1  6  0  0  0
 33  6  1  0  0  0  0
 34 23  1  6  0  0  0
 34 18  1  0  0  0  0
 34  7  1  0  0  0  0
 35  1  2  0  0  0  0
 35 17  1  0  0  0  0
 37 21  1  0  0  0  0
 38 39  1  0  0  0  0
 39 41  1  0  0  0  0
 40 38  2  0  0  0  0
 43 46  1  6  0  0  0
 43 45  1  0  0  0  0
 43 48  1  0  0  0  0
 44 47  1  0  0  0  0
 45 41  1  6  0  0  0
 45 44  1  0  0  0  0
 47 42  1  0  0  0  0
 48 46  1  6  0  0  0
 48 42  1  0  0  0  0
 49 55  1  0  0  0  0
 50 53  2  0  0  0  0
 52 54  2  0  0  0  0
 53 51  1  0  0  0  0
 54 51  1  0  0  0  0
 55 53  1  0  0  0  0
 55 52  1  0  0  0  0
 56 30  1  0  0  0  0
 57 59  1  0  0  0  0
 57 56  1  0  0  0  0
 58 57  2  0  0  0  0
 59 60  1  0  0  0  0
 60 61  1  0  0  0  0
 61 62  1  1  0  0  0
 61 63  1  0  0  0  0
 63 65  1  1  0  0  0
 64 63  1  0  0  0  0
M  END
>  <MODEL>
6

>  <REMARK>
 VINA RESULT:      -5.0      1.489      1.812
  Name = 
  11 active torsions:
  status: ('A' for Active; 'I' for Inactive)
    1  A    between atoms: C_3  and  C_31
    2  A    between atoms: C_5  and  N_48
    3  A    between atoms: C_5  and  C_64
    4  A    between atoms: C_6  and  C_49
    5  A    between atoms: C_17  and  C_38
    6  A    between atoms: C_17  and  C_39
    7  A    between atoms: C_21  and  N_30
    8  A    between atoms: N_28  and  N_30
    9  A    between atoms: C_39  and  N_48
   10  A    between atoms: C_49  and  N_59
   11  A    between atoms: C_53  and  C_64
                            x       y       z     vdW  Elec       q    Type
                         _______ _______ _______ _____ _____    ______ ____

>  <TORSDO>
F 11

$$$$
=
 OpenBabel11072408413D

 65 72  0  0  1  0  0  0  0  0999 V2000
  187.9900  174.1160  138.3170 O   0  0  0  0  0  0  0  0  0  0  0  0
  193.0640  175.9810  141.9440 C   0  0  0  0  0  2  0  0  0  0  0  0
  195.3820  174.3200  136.9260 C   0  0  1  0  0  3  0  0  0  0  0  0
  186.9740  177.4840  140.7860 C   0  0  0  0  0  0  0  0  0  0  0  0
  186.5200  176.7590  138.6140 O   0  0  0  0  0  0  0  0  0  0  0  0
  194.5090  175.5370  142.0120 C   0  0  2  0  0  3  0  0  0  0  0  0
  194.1230  174.9850  136.3090 C   0  0  2  0  0  0  0  0  0  0  0  0
  187.7140  178.5620  142.8360 C   0  0  0  0  0  2  0  0  0  0  0  0
  192.2200  173.2590  144.2130 C   0  0  0  0  0  2  0  0  0  0  0  0
  189.8120  175.9510  146.0530 S   0  0  0  0  0  0  0  0  0  0  0  0
  194.7770  174.4670  140.9600 C   0  0  0  0  0  2  0  0  0  0  0  0
  191.1010  174.1740  144.6120 C   0  0  0  0  0  0  0  0  0  0  0  0
  186.2940  175.4650  135.1470 C   0  0  0  0  0  2  0  0  0  0  0  0
  189.0270  175.3250  144.5230 C   0  0  1  0  0  3  0  0  0  0  0  0
  186.7050  178.2900  141.7730 C   0  0  0  0  0  3  0  0  0  0  0  0
  195.3600  175.6340  138.9620 O   0  0  0  0  0  0  0  0  0  0  0  0
  189.1050  175.2550  136.5080 C   0  0  2  0  0  3  0  0  0  0  0  0
  193.4540  174.3600  135.0860 C   0  0  2  0  0  3  0  0  0  0  0  0
  192.9070  173.7260  142.9310 C   0  0  0  0  0  2  0  0  0  0  0  0
  188.8250  176.4260  143.5900 N   0  0  0  0  0  2  0  0  0  0  0  0
  188.7060  174.8190  135.1030 C   0  0  0  0  0  2  0  0  0  0  0  0
  191.1940  174.9480  145.7500 O   0  0  0  0  0  0  0  0  0  0  0  0
  191.5920  175.2440  136.4530 C   0  0  0  0  0  2  0  0  0  0  0  0
  187.8130  177.4160  143.7820 C   0  0  0  0  0  0  0  0  0  0  0  0
  195.8940  174.9190  140.0380 C   0  0  0  0  0  2  0  0  0  0  0  0
  186.9900  177.3160  144.7300 O   0  0  0  0  0  0  0  0  0  0  0  0
  186.1320  176.1970  136.4000 N   0  0  0  0  0  0  0  0  0  0  0  0
  196.1440  175.2650  137.8640 C   0  0  0  0  0  2  0  0  0  0  0  0
  186.8430  176.0150  137.4740 C   0  0  0  0  0  0  0  0  0  0  0  0
  189.9730  174.3300  143.9330 C   0  0  0  0  0  0  0  0  0  0  0  0
  190.3610  174.5080  136.9350 C   0  0  0  0  0  2  0  0  0  0  0  0
  194.0870  176.3850  136.2780 O   0  0  0  0  0  1  0  0  0  0  0  0
  193.5160  175.1160  143.1020 C   0  0  2  0  0  3  0  0  0  0  0  0
  192.7730  174.2870  136.4530 C   0  0  2  0  0  3  0  0  0  0  0  0
  187.9770  175.0640  137.4860 C   0  0  0  0  0  0  0  0  0  0  0  0
  187.2550  176.6880  139.7950 C   0  0  0  0  0  3  0  0  0  0  0  0
  187.6490  175.7390  134.5130 C   0  0  0  0  0  2  0  0  0  0  0  0
  194.0440  173.0390  134.6770 C   0  0  0  0  0  0  0  0  0  0  0  0
  193.2050  171.8990  134.5180 N   0  0  0  0  0  2  0  0  0  0  0  0
  195.2870  172.9120  134.5130 O   0  0  0  0  0  0  0  0  0  0  0  0
  191.9320  171.8460  135.1080 N   0  0  0  0  0  2  0  0  0  0  0  0
  191.8570  168.2800  137.7480 C   0  0  0  0  0  2  0  0  0  0  0  0
  191.0040  170.7230  137.1370 C   0  0  1  0  0  3  0  0  0  0  0  0
  193.3720  169.7500  136.0110 S   0  0  0  0  0  0  0  0  0  0  0  0
  191.7770  170.5810  135.8200 C   0  0  2  0  0  3  0  0  0  0  0  0
  189.8610  169.7210  137.1250 C   0  0  0  0  0  2  0  0  0  0  0  0
  192.4750  168.2220  136.3570 C   0  0  0  0  0  2  0  0  0  0  0  0
  191.0050  169.5200  138.0950 C   0  0  1  0  0  3  0  0  0  0  0  0
  195.0970  172.9750  137.6120 C   0  0  0  0  0  2  0  0  0  0  0  0
  196.6500  171.0320  135.9070 O   0  0  0  0  0  0  0  0  0  0  0  0
  197.9260  170.4680  137.8920 C   0  0  0  0  0  2  0  0  0  0  0  0
  196.8510  172.0720  139.2120 C   0  0  0  0  0  3  0  0  0  0  0  0
  196.9390  171.2490  137.1130 C   0  0  0  0  0  0  0  0  0  0  0  0
  197.7530  171.0930  139.2450 C   0  0  0  0  0  3  0  0  0  0  0  0
  196.3270  172.2500  137.9060 N   0  0  0  0  0  0  0  0  0  0  0  0
  189.6410  173.5580  142.6920 C   0  0  0  0  0  2  0  0  0  0  0  0
  189.6260  172.0950  142.9770 C   0  0  0  0  0  0  0  0  0  0  0  0
  188.9760  171.6510  144.0480 C   0  0  0  0  0  2  0  0  0  0  0  0
  190.1750  171.1920  142.0110 N   0  0  0  0  0  2  0  0  0  0  0  0
  191.0040  170.0470  142.3590 C   0  0  0  0  0  2  0  0  0  0  0  0
  192.4610  170.3490  142.0320 C   0  0  2  0  0  3  0  0  0  0  0  0
  192.7760  169.8710  140.7700 F   0  0  0  0  0  0  0  0  0  0  0  0
  193.4210  169.7610  143.0670 C   0  0  1  0  0  3  0  0  0  0  0  0
  192.6960  169.3400  144.2550 N   0  0  0  0  0  1  0  0  0  0  0  0
  194.2220  168.5950  142.5100 C   0  0  0  0  0  1  0  0  0  0  0  0
  2  6  1  0  0  0  0
  3 49  1  1  0  0  0
  3 28  1  0  0  0  0
  4 15  2  0  0  0  0
  5 36  1  0  0  0  0
  6 11  1  6  0  0  0
  6 33  1  0  0  0  0
  7 32  1  1  0  0  0
  7 34  1  0  0  0  0
  7  3  1  0  0  0  0
  8 24  1  0  0  0  0
  9 12  1  0  0  0  0
 12 22  1  0  0  0  0
 13 27  1  0  0  0  0
 14 20  1  6  0  0  0
 14 10  1  0  0  0  0
 15  8  1  0  0  0  0
 16 25  1  0  0  0  0
 17 21  1  6  0  0  0
 17 31  1  0  0  0  0
 17 35  1  0  0  0  0
 18 38  1  1  0  0  0
 18  7  1  0  0  0  0
 18 34  1  0  0  0  0
 19 33  1  0  0  0  0
 19  9  1  0  0  0  0
 20 24  1  0  0  0  0
 22 10  1  0  0  0  0
 23 31  1  0  0  0  0
 24 26  2  0  0  0  0
 25 11  1  0  0  0  0
 27 29  2  0  0  0  0
 28 16  1  0  0  0  0
 29 35  1  0  0  0  0
 29  5  1  0  0  0  0
 30 14  1  0  0  0  0
 30 12  2  0  0  0  0
 33  2  1  6  0  0  0
 34 23  1  6  0  0  0
 35  1  2  0  0  0  0
 36  4  2  0  0  0  0
 37 21  1  0  0  0  0
 37 13  1  0  0  0  0
 39 38  1  0  0  0  0
 39 41  1  0  0  0  0
 40 38  2  0  0  0  0
 42 48  1  0  0  0  0
 43 46  1  6  0  0  0
 43 48  1  0  0  0  0
 44 47  1  0  0  0  0
 45 41  1  1  0  0  0
 45 44  1  0  0  0  0
 45 43  1  0  0  0  0
 47 42  1  0  0  0  0
 48 46  1  6  0  0  0
 49 55  1  0  0  0  0
 50 53  2  0  0  0  0
 51 54  1  0  0  0  0
 52 54  2  0  0  0  0
 53 51  1  0  0  0  0
 53 55  1  0  0  0  0
 55 52  1  0  0  0  0
 56 57  1  0  0  0  0
 56 30  1  0  0  0  0
 57 58  2  0  0  0  0
 59 60  1  0  0  0  0
 59 57  1  0  0  0  0
 61 62  1  6  0  0  0
 61 60  1  0  0  0  0
 61 63  1  0  0  0  0
 63 65  1  6  0  0  0
 63 64  1  0  0  0  0
M  END
>  <MODEL>
7

>  <REMARK>
 VINA RESULT:      -4.5      2.806      9.374
  Name = 
  11 active torsions:
  status: ('A' for Active; 'I' for Inactive)
    1  A    between atoms: C_3  and  C_31
    2  A    between atoms: C_5  and  N_48
    3  A    between atoms: C_5  and  C_64
    4  A    between atoms: C_6  and  C_49
    5  A    between atoms: C_17  and  C_38
    6  A    between atoms: C_17  and  C_39
    7  A    between atoms: C_21  and  N_30
    8  A    between atoms: N_28  and  N_30
    9  A    between atoms: C_39  and  N_48
   10  A    between atoms: C_49  and  N_59
   11  A    between atoms: C_53  and  C_64
                            x       y       z     vdW  Elec       q    Type
                         _______ _______ _______ _____ _____    ______ ____

>  <TORSDO>
F 11

$$$$
=
 OpenBabel11072408413D

 65 72  0  0  1  0  0  0  0  0999 V2000
  194.8650  173.5580  141.3780 O   0  0  0  0  0  0  0  0  0  0  0  0
  189.2840  174.7300  138.2370 C   0  0  0  0  0  2  0  0  0  0  0  0
  188.7820  177.5810  143.2300 C   0  0  1  0  0  3  0  0  0  0  0  0
  195.5200  173.9470  137.1490 C   0  0  0  0  0  0  0  0  0  0  0  0
  196.6140  174.5770  139.1130 O   0  0  0  0  0  0  0  0  0  0  0  0
  187.8660  174.9810  138.7010 C   0  0  2  0  0  3  0  0  0  0  0  0
  190.2880  177.8900  143.0200 C   0  0  2  0  0  0  0  0  0  0  0  0
  194.2880  173.7490  135.0620 C   0  0  0  0  0  2  0  0  0  0  0  0
  188.6190  171.1550  138.4460 C   0  0  0  0  0  2  0  0  0  0  0  0
  190.6310  170.8890  134.9370 S   0  0  0  0  0  0  0  0  0  0  0  0
  187.8100  174.9970  140.2250 C   0  0  0  0  0  2  0  0  0  0  0  0
  189.6600  171.0770  137.3700 C   0  0  0  0  0  0  0  0  0  0  0  0
  197.8830  175.6950  142.4120 C   0  0  0  0  0  2  0  0  0  0  0  0
  191.7970  171.0620  136.3370 C   0  0  1  0  0  3  0  0  0  0  0  0
  195.5490  173.7910  135.8560 C   0  0  0  0  0  3  0  0  0  0  0  0
  188.2890  177.2400  140.8820 O   0  0  0  0  0  0  0  0  0  0  0  0
  194.7860  175.8870  141.9970 C   0  0  2  0  0  3  0  0  0  0  0  0
  191.2320  177.9260  144.2210 C   0  0  2  0  0  3  0  0  0  0  0  0
  188.5870  172.5300  139.1090 C   0  0  0  0  0  2  0  0  0  0  0  0
  192.5620  172.2940  136.1880 N   0  0  0  0  0  2  0  0  0  0  0  0
  195.5950  176.2740  143.2300 C   0  0  0  0  0  2  0  0  0  0  0  0
  189.2980  170.9570  136.0440 O   0  0  0  0  0  0  0  0  0  0  0  0
  192.5650  176.9370  142.3880 C   0  0  0  0  0  2  0  0  0  0  0  0
  193.6020  172.4360  135.2190 C   0  0  0  0  0  0  0  0  0  0  0  0
  187.2490  176.3210  140.7060 C   0  0  0  0  0  2  0  0  0  0  0  0
  193.9590  171.4570  134.5130 O   0  0  0  0  0  0  0  0  0  0  0  0
  197.6980  175.3710  141.0000 N   0  0  0  0  0  0  0  0  0  0  0  0
  187.9280  177.9740  142.0170 C   0  0  0  0  0  2  0  0  0  0  0  0
  196.6080  174.8910  140.4760 C   0  0  0  0  0  0  0  0  0  0  0  0
  190.9680  171.1290  137.5790 C   0  0  0  0  0  0  0  0  0  0  0  0
  193.3390  175.6370  142.3970 C   0  0  0  0  0  2  0  0  0  0  0  0
  190.6170  178.8490  142.0540 O   0  0  0  0  0  1  0  0  0  0  0  0
  188.2570  173.6260  138.0980 C   0  0  2  0  0  3  0  0  0  0  0  0
  191.3060  176.7700  143.2230 C   0  0  2  0  0  3  0  0  0  0  0  0
  195.3880  174.7020  141.2920 C   0  0  0  0  0  0  0  0  0  0  0  0
  195.4850  174.1180  138.4390 C   0  0  0  0  0  3  0  0  0  0  0  0
  196.9610  176.8230  142.8500 C   0  0  0  0  0  2  0  0  0  0  0  0
  190.5870  177.5150  145.5150 C   0  0  0  0  0  0  0  0  0  0  0  0
  190.8180  176.2130  146.0470 N   0  0  0  0  0  2  0  0  0  0  0  0
  189.8050  178.2950  146.1220 O   0  0  0  0  0  0  0  0  0  0  0  0
  191.2820  175.1670  145.2330 N   0  0  0  0  0  2  0  0  0  0  0  0
  195.4580  174.3660  146.5010 C   0  0  0  0  0  2  0  0  0  0  0  0
  193.1130  173.5070  145.5880 C   0  0  1  0  0  3  0  0  0  0  0  0
  193.3000  176.0150  146.8120 S   0  0  0  0  0  0  0  0  0  0  0  0
  192.7130  174.9810  145.4480 C   0  0  2  0  0  3  0  0  0  0  0  0
  194.2290  173.2240  144.5940 C   0  0  0  0  0  2  0  0  0  0  0  0
  194.9810  175.7800  146.1980 C   0  0  0  0  0  2  0  0  0  0  0  0
  194.5390  173.2000  146.0760 C   0  0  1  0  0  3  0  0  0  0  0  0
  188.5000  176.1320  143.6550 C   0  0  0  0  0  2  0  0  0  0  0  0
  185.5410  176.6980  143.5390 O   0  0  0  0  0  0  0  0  0  0  0  0
  185.5360  176.6310  145.9640 C   0  0  0  0  0  2  0  0  0  0  0  0
  187.7950  176.0410  146.0940 C   0  0  0  0  0  3  0  0  0  0  0  0
  186.1400  176.4710  144.6230 C   0  0  0  0  0  0  0  0  0  0  0  0
  186.7270  176.3420  146.8290 C   0  0  0  0  0  3  0  0  0  0  0  0
  187.4940  176.0660  144.7080 N   0  0  0  0  0  0  0  0  0  0  0  0
  191.5860  171.2150  138.9420 C   0  0  0  0  0  2  0  0  0  0  0  0
  191.8700  169.8510  139.4710 C   0  0  0  0  0  0  0  0  0  0  0  0
  193.0570  169.3010  139.2390 C   0  0  0  0  0  2  0  0  0  0  0  0
  190.9220  169.2330  140.3480 N   0  0  0  0  0  2  0  0  0  0  0  0
  190.8230  169.5350  141.7690 C   0  0  0  0  0  2  0  0  0  0  0  0
  191.3900  170.9240  142.0400 C   0  0  2  0  0  3  0  0  0  0  0  0
  192.4560  170.8400  142.9220 F   0  0  0  0  0  0  0  0  0  0  0  0
  190.3340  171.8840  142.5880 C   0  0  1  0  0  3  0  0  0  0  0  0
  190.3350  171.8700  144.0420 N   0  0  0  0  0  1  0  0  0  0  0  0
  190.5340  173.3050  142.0860 C   0  0  0  0  0  1  0  0  0  0  0  0
  3 49  1  6  0  0  0
  4 36  2  0  0  0  0
  5 29  1  0  0  0  0
  6  2  1  1  0  0  0
  6 11  1  0  0  0  0
  7 32  1  6  0  0  0
  7 34  1  0  0  0  0
  7  3  1  0  0  0  0
  7 18  1  0  0  0  0
  8 24  1  0  0  0  0
  8 15  1  0  0  0  0
  9 19  1  0  0  0  0
 10 22  1  0  0  0  0
 11 25  1  0  0  0  0
 12 30  2  0  0  0  0
 12  9  1  0  0  0  0
 13 37  1  0  0  0  0
 14 10  1  6  0  0  0
 14 30  1  0  0  0  0
 15  4  2  0  0  0  0
 16 28  1  0  0  0  0
 17 31  1  1  0  0  0
 17 21  1  0  0  0  0
 18 38  1  1  0  0  0
 20 14  1  0  0  0  0
 22 12  1  0  0  0  0
 23 31  1  0  0  0  0
 24 20  1  0  0  0  0
 25 16  1  0  0  0  0
 26 24  2  0  0  0  0
 27 13  1  0  0  0  0
 28  3  1  0  0  0  0
 29 27  2  0  0  0  0
 29 35  1  0  0  0  0
 30 56  1  0  0  0  0
 33  2  1  6  0  0  0
 33  6  1  0  0  0  0
 33 19  1  0  0  0  0
 34 23  1  6  0  0  0
 34 18  1  0  0  0  0
 35  1  2  0  0  0  0
 35 17  1  0  0  0  0
 36  5  1  0  0  0  0
 37 21  1  0  0  0  0
 38 39  1  0  0  0  0
 38 40  2  0  0  0  0
 41 39  1  0  0  0  0
 43 46  1  6  0  0  0
 43 48  1  0  0  0  0
 45 41  1  1  0  0  0
 45 43  1  0  0  0  0
 45 44  1  0  0  0  0
 47 42  1  0  0  0  0
 47 44  1  0  0  0  0
 48 46  1  6  0  0  0
 48 42  1  0  0  0  0
 49 55  1  0  0  0  0
 50 53  2  0  0  0  0
 51 54  1  0  0  0  0
 52 54  2  0  0  0  0
 53 55  1  0  0  0  0
 53 51  1  0  0  0  0
 55 52  1  0  0  0  0
 56 57  1  0  0  0  0
 57 59  1  0  0  0  0
 58 57  2  0  0  0  0
 59 60  1  0  0  0  0
 60 61  1  0  0  0  0
 61 63  1  0  0  0  0
 61 62  1  1  0  0  0
 63 65  1  1  0  0  0
 63 64  1  0  0  0  0
M  END
>  <MODEL>
8

>  <REMARK>
 VINA RESULT:      -3.9      3.123      7.137
  Name = 
  11 active torsions:
  status: ('A' for Active; 'I' for Inactive)
    1  A    between atoms: C_3  and  C_31
    2  A    between atoms: C_5  and  N_48
    3  A    between atoms: C_5  and  C_64
    4  A    between atoms: C_6  and  C_49
    5  A    between atoms: C_17  and  C_38
    6  A    between atoms: C_17  and  C_39
    7  A    between atoms: C_21  and  N_30
    8  A    between atoms: N_28  and  N_30
    9  A    between atoms: C_39  and  N_48
   10  A    between atoms: C_49  and  N_59
   11  A    between atoms: C_53  and  C_64
                            x       y       z     vdW  Elec       q    Type
                         _______ _______ _______ _____ _____    ______ ____

>  <TORSDO>
F 11

$$$$
=
 OpenBabel11072408413D

 65 72  0  0  1  0  0  0  0  0999 V2000
  191.5590  174.2410  136.5750 O   0  0  0  0  0  0  0  0  0  0  0  0
  193.3950  169.9800  141.1420 C   0  0  0  0  0  2  0  0  0  0  0  0
  189.9620  173.7040  143.9090 C   0  0  1  0  0  3  0  0  0  0  0  0
  191.8730  170.2730  134.9550 C   0  0  0  0  0  0  0  0  0  0  0  0
  190.4530  172.1090  134.7140 O   0  0  0  0  0  0  0  0  0  0  0  0
  193.6300  170.0940  142.6330 C   0  0  2  0  0  3  0  0  0  0  0  0
  189.1380  173.6730  142.5940 C   0  0  2  0  0  0  0  0  0  0  0  0
  192.9890  168.1660  135.4300 C   0  0  0  0  0  2  0  0  0  0  0  0
  196.8050  171.1480  140.6140 C   0  0  0  0  0  2  0  0  0  0  0  0
  197.0120  168.2890  137.7480 S   0  0  0  0  0  0  0  0  0  0  0  0
  193.3060  171.5070  143.1060 C   0  0  0  0  0  2  0  0  0  0  0  0
  196.6980  170.3430  139.3530 C   0  0  0  0  0  0  0  0  0  0  0  0
  188.2370  175.0790  134.8420 C   0  0  0  0  0  2  0  0  0  0  0  0
  196.0930  169.7480  137.1360 C   0  0  1  0  0  3  0  0  0  0  0  0
  192.2830  169.1140  134.5230 C   0  0  0  0  0  3  0  0  0  0  0  0
  190.9710  171.5230  143.5970 O   0  0  0  0  0  0  0  0  0  0  0  0
  189.3760  174.0990  137.5890 C   0  0  2  0  0  3  0  0  0  0  0  0
  188.4720  174.9500  142.0820 C   0  0  2  0  0  3  0  0  0  0  0  0
  195.4450  171.3450  141.2800 C   0  0  0  0  0  2  0  0  0  0  0  0
  194.7240  169.3660  136.8140 N   0  0  0  0  0  2  0  0  0  0  0  0
  188.4440  175.2750  137.3240 C   0  0  0  0  0  2  0  0  0  0  0  0
  197.2360  169.0750  139.2770 O   0  0  0  0  0  0  0  0  0  0  0  0
  189.2290  173.7630  140.0490 C   0  0  0  0  0  2  0  0  0  0  0  0
  194.3980  168.5940  135.6570 C   0  0  0  0  0  0  0  0  0  0  0  0
  192.2390  171.4580  144.1830 C   0  0  0  0  0  2  0  0  0  0  0  0
  195.2850  168.2920  134.8160 O   0  0  0  0  0  0  0  0  0  0  0  0
  188.9060  173.8230  134.5160 N   0  0  0  0  0  0  0  0  0  0  0  0
  190.2110  172.3010  144.4770 C   0  0  0  0  0  2  0  0  0  0  0  0
  189.8790  173.2900  135.1960 C   0  0  0  0  0  0  0  0  0  0  0  0
  196.0900  170.7490  138.2470 C   0  0  0  0  0  0  0  0  0  0  0  0
  190.0830  174.3000  138.9210 C   0  0  0  0  0  2  0  0  0  0  0  0
  188.3620  172.5330  142.3500 O   0  0  0  0  0  1  0  0  0  0  0  0
  194.8160  170.0080  141.6650 C   0  0  2  0  0  3  0  0  0  0  0  0
  189.6930  174.3790  141.3590 C   0  0  2  0  0  3  0  0  0  0  0  0
  190.3500  173.9020  136.4580 C   0  0  0  0  0  0  0  0  0  0  0  0
  191.4540  171.4240  135.3970 C   0  0  0  0  0  3  0  0  0  0  0  0
  187.4970  174.9880  136.1690 C   0  0  0  0  0  2  0  0  0  0  0  0
  188.8130  176.1760  142.8820 C   0  0  0  0  0  0  0  0  0  0  0  0
  188.1180  176.4560  144.0940 N   0  0  0  0  0  2  0  0  0  0  0  0
  189.6820  176.9920  142.4720 O   0  0  0  0  0  0  0  0  0  0  0  0
  186.8710  175.8710  144.3680 N   0  0  0  0  0  2  0  0  0  0  0  0
  184.5710  179.3560  145.8700 C   0  0  0  0  0  2  0  0  0  0  0  0
  186.0520  178.1990  143.9880 C   0  0  1  0  0  3  0  0  0  0  0  0
  186.0380  177.1630  146.5870 S   0  0  0  0  0  0  0  0  0  0  0  0
  185.9330  176.9030  144.7990 C   0  0  2  0  0  3  0  0  0  0  0  0
  184.6710  178.5550  143.4610 C   0  0  0  0  0  2  0  0  0  0  0  0
  184.4300  177.9800  146.5080 C   0  0  0  0  0  2  0  0  0  0  0  0
  185.3070  179.4380  144.5150 C   0  0  1  0  0  3  0  0  0  0  0  0
  191.2740  174.4950  143.7980 C   0  0  0  0  0  2  0  0  0  0  0  0
  193.6750  176.1640  144.5330 O   0  0  0  0  0  0  0  0  0  0  0  0
  192.7980  176.2470  146.7940 C   0  0  0  0  0  2  0  0  0  0  0  0
  190.8470  175.0850  146.2310 C   0  0  0  0  0  3  0  0  0  0  0  0
  192.7500  175.9210  145.3520 C   0  0  0  0  0  0  0  0  0  0  0  0
  191.5090  175.6290  147.2510 C   0  0  0  0  0  3  0  0  0  0  0  0
  191.5440  175.2610  145.0080 N   0  0  0  0  0  0  0  0  0  0  0  0
  195.4740  172.1060  138.0910 C   0  0  0  0  0  2  0  0  0  0  0  0
  194.3720  172.0640  137.0880 C   0  0  0  0  0  0  0  0  0  0  0  0
  194.6380  172.3600  135.8210 C   0  0  0  0  0  2  0  0  0  0  0  0
  193.0930  171.5550  137.4810 N   0  0  0  0  0  2  0  0  0  0  0  0
  192.6980  171.3490  138.8680 C   0  0  0  0  0  2  0  0  0  0  0  0
  191.2260  170.9600  138.9310 C   0  0  2  0  0  3  0  0  0  0  0  0
  190.6960  171.2940  140.1670 F   0  0  0  0  0  0  0  0  0  0  0  0
  191.0080  169.4720  138.6540 C   0  0  1  0  0  3  0  0  0  0  0  0
  190.5250  168.7960  139.8470 N   0  0  0  0  0  1  0  0  0  0  0  0
  190.0440  169.2370  137.5020 C   0  0  0  0  0  1  0  0  0  0  0  0
  3 49  1  6  0  0  0
  3 28  1  0  0  0  0
  4 36  2  0  0  0  0
  5 29  1  0  0  0  0
  5 36  1  0  0  0  0
  6  2  1  6  0  0  0
  6 11  1  0  0  0  0
  7 32  1  6  0  0  0
  7  3  1  0  0  0  0
  8 24  1  0  0  0  0
  9 19  1  0  0  0  0
 10 22  1  0  0  0  0
 11 25  1  0  0  0  0
 12  9  1  0  0  0  0
 13 37  1  0  0  0  0
 14 20  1  1  0  0  0
 14 10  1  0  0  0  0
 14 30  1  0  0  0  0
 15  4  2  0  0  0  0
 15  8  1  0  0  0  0
 16 25  1  0  0  0  0
 16 28  1  0  0  0  0
 17 21  1  6  0  0  0
 17 31  1  0  0  0  0
 18  7  1  0  0  0  0
 18 38  1  1  0  0  0
 19 33  1  0  0  0  0
 22 12  1  0  0  0  0
 24 20  1  0  0  0  0
 26 24  2  0  0  0  0
 27 13  1  0  0  0  0
 27 29  2  0  0  0  0
 29 35  1  0  0  0  0
 30 12  2  0  0  0  0
 31 23  1  0  0  0  0
 33  2  1  6  0  0  0
 33  6  1  0  0  0  0
 34 23  1  6  0  0  0
 34 18  1  0  0  0  0
 34  7  1  0  0  0  0
 35  1  2  0  0  0  0
 35 17  1  0  0  0  0
 37 21  1  0  0  0  0
 38 39  1  0  0  0  0
 39 41  1  0  0  0  0
 40 38  2  0  0  0  0
 42 47  1  0  0  0  0
 43 46  1  6  0  0  0
 43 48  1  0  0  0  0
 43 45  1  0  0  0  0
 45 41  1  6  0  0  0
 45 44  1  0  0  0  0
 47 44  1  0  0  0  0
 48 46  1  6  0  0  0
 48 42  1  0  0  0  0
 49 55  1  0  0  0  0
 50 53  2  0  0  0  0
 51 54  1  0  0  0  0
 52 54  2  0  0  0  0
 53 51  1  0  0  0  0
 55 53  1  0  0  0  0
 55 52  1  0  0  0  0
 56 30  1  0  0  0  0
 57 59  1  0  0  0  0
 57 56  1  0  0  0  0
 58 57  2  0  0  0  0
 59 60  1  0  0  0  0
 60 61  1  0  0  0  0
 61 62  1  1  0  0  0
 63 65  1  6  0  0  0
 63 61  1  0  0  0  0
 63 64  1  0  0  0  0
M  END
>  <MODEL>
9

>  <REMARK>
 VINA RESULT:      -3.8      1.671      2.386
  Name = 
  11 active torsions:
  status: ('A' for Active; 'I' for Inactive)
    1  A    between atoms: C_3  and  C_31
    2  A    between atoms: C_5  and  N_48
    3  A    between atoms: C_5  and  C_64
    4  A    between atoms: C_6  and  C_49
    5  A    between atoms: C_17  and  C_38
    6  A    between atoms: C_17  and  C_39
    7  A    between atoms: C_21  and  N_30
    8  A    between atoms: N_28  and  N_30
    9  A    between atoms: C_39  and  N_48
   10  A    between atoms: C_49  and  N_59
   11  A    between atoms: C_53  and  C_64
                            x       y       z     vdW  Elec       q    Type
                         _______ _______ _______ _____ _____    ______ ____

>  <TORSDO>
F 11

$$$$
