=
 OpenBabel11062419053D

 32 36  0  0  1  0  0  0  0  0999 V2000
  187.0850  176.5060  144.8020 C   0  0  0  0  0  0  0  0  0  0  0  0
  186.0370  177.4940  147.2050 C   0  0  2  0  0  3  0  0  0  0  0  0
  186.0190  177.1550  142.3270 N   0  0  0  0  0  0  0  0  0  0  0  0
  187.6930  176.0320  143.6330 C   0  0  0  0  0  3  0  0  0  0  0  0
  185.4230  177.6290  143.4550 C   0  0  0  0  0  0  0  0  0  0  0  0
  187.5780  176.2220  146.1210 N   0  0  0  0  0  0  0  0  0  0  0  0
  185.3880  177.8140  145.8780 C   0  0  0  0  0  0  0  0  0  0  0  0
  185.9600  177.3130  144.7090 C   0  0  0  0  0  0  0  0  0  0  0  0
  186.9690  178.6100  147.6550 C   0  0  0  0  0  1  0  0  0  0  0  0
  186.6990  176.2330  147.1730 O   0  0  0  0  0  0  0  0  0  0  0  0
  187.1370  176.3710  142.3910 C   0  0  0  0  0  0  0  0  0  0  0  0
  184.2570  178.6300  145.7740 C   0  0  0  0  0  3  0  0  0  0  0  0
  184.2880  178.4420  143.3960 C   0  0  0  0  0  3  0  0  0  0  0  0
  183.7360  178.9180  144.5480 N   0  0  0  0  0  0  0  0  0  0  0  0
  188.9700  175.8280  146.3240 C   0  0  2  0  0  3  0  0  0  0  0  0
  189.0710  174.7930  147.4350 C   0  0  0  0  0  1  0  0  0  0  0  0
  189.8580  177.0530  146.5690 C   0  0  1  0  0  3  0  0  0  0  0  0
  190.5730  176.9350  147.7670 O   0  0  0  0  0  1  0  0  0  0  0  0
  190.7850  177.3300  145.3880 C   0  0  2  0  0  3  0  0  0  0  0  0
  190.1910  178.2230  144.4920 O   0  0  0  0  0  1  0  0  0  0  0  0
  191.1220  176.0270  144.6760 C   0  0  0  0  0  2  0  0  0  0  0  0
  192.4910  176.1010  144.0250 C   0  0  0  0  0  2  0  0  0  0  0  0
  193.3660  174.9510  144.4890 C   0  0  0  0  0  2  0  0  0  0  0  0
  195.2260  175.0800  146.0990 C   0  0  0  0  0  2  0  0  0  0  0  0
  194.5170  176.4180  146.1130 C   0  0  0  0  0  2  0  0  0  0  0  0
  193.7190  175.1420  145.9490 C   0  0  0  0  0  3  0  0  0  0  0  0
  187.7710  175.8630  141.1410 C   0  0  0  0  0  2  0  0  0  0  0  0
  189.4650  172.4590  142.0200 C   0  0  0  0  0  3  0  0  0  0  0  0
  190.3960  173.4330  141.8930 N   0  0  0  0  0  0  0  0  0  0  0  0
  188.5660  174.6230  141.3900 C   0  0  0  0  0  0  0  0  0  0  0  0
  187.9370  173.0950  141.6960 S   0  0  0  0  0  0  0  0  0  0  0  0
  189.9030  174.6250  141.5580 N   0  0  0  0  0  0  0  0  0  0  0  0
  1  6  1  0  0  0  0
  2  9  1  6  0  0  0
  3 11  2  0  0  0  0
  3  5  1  0  0  0  0
  4  1  2  0  0  0  0
  5  8  1  0  0  0  0
  6 15  1  0  0  0  0
  6 10  1  0  0  0  0
  7  2  1  0  0  0  0
  8  1  1  0  0  0  0
  8  7  2  0  0  0  0
 10  2  1  0  0  0  0
 11  4  1  0  0  0  0
 12  7  1  0  0  0  0
 13  5  2  0  0  0  0
 13 14  1  0  0  0  0
 14 12  2  0  0  0  0
 15 17  1  0  0  0  0
 15 16  1  1  0  0  0
 17 18  1  1  0  0  0
 19 20  1  6  0  0  0
 19 17  1  0  0  0  0
 21 19  1  0  0  0  0
 22 23  1  0  0  0  0
 22 21  1  0  0  0  0
 23 26  1  0  0  0  0
 24 25  1  0  0  0  0
 26 24  1  0  0  0  0
 26 25  1  0  0  0  0
 27 30  1  0  0  0  0
 27 11  1  0  0  0  0
 29 28  2  0  0  0  0
 30 32  2  0  0  0  0
 30 31  1  0  0  0  0
 31 28  1  0  0  0  0
 32 29  1  0  0  0  0
M  END
>  <MODEL>
1

>  <REMARK>
 VINA RESULT:      -7.4      0.000      0.000
  Name = 
  9 active torsions:
  status: ('A' for Active; 'I' for Inactive)
    1  A    between atoms: C_2  and  C_12
    2  A    between atoms: C_2  and  C_26
    3  A    between atoms: C_4  and  C_27
    4  A    between atoms: C_4  and  C_32
    5  A    between atoms: C_5  and  N_19
    6  A    between atoms: C_5  and  C_27
    7  A    between atoms: C_15  and  C_17
    8  A    between atoms: C_15  and  C_32
    9  A    between atoms: C_17  and  C_18
                            x       y       z     vdW  Elec       q    Type
                         _______ _______ _______ _____ _____    ______ ____

>  <TORSDO>
F 9

$$$$
=
 OpenBabel11062419053D

 32 36  0  0  1  0  0  0  0  0999 V2000
  190.0950  175.5960  142.9430 C   0  0  0  0  0  0  0  0  0  0  0  0
  191.4150  173.1360  143.1730 C   0  0  2  0  0  3  0  0  0  0  0  0
  188.0340  176.0250  141.1400 N   0  0  0  0  0  0  0  0  0  0  0  0
  189.4310  176.8290  142.9200 C   0  0  0  0  0  3  0  0  0  0  0  0
  188.6660  174.8190  141.1580 C   0  0  0  0  0  0  0  0  0  0  0  0
  191.1670  175.2920  143.8510 N   0  0  0  0  0  0  0  0  0  0  0  0
  190.3420  173.3530  142.1310 C   0  0  0  0  0  0  0  0  0  0  0  0
  189.7030  174.5910  142.0710 C   0  0  0  0  0  0  0  0  0  0  0  0
  190.8570  172.4610  144.4180 C   0  0  0  0  0  1  0  0  0  0  0  0
  192.0930  174.3480  143.4870 O   0  0  0  0  0  0  0  0  0  0  0  0
  188.3930  177.0250  141.9990 C   0  0  0  0  0  0  0  0  0  0  0  0
  189.9370  172.3460  141.2510 C   0  0  0  0  0  3  0  0  0  0  0  0
  188.2960  173.7880  140.2910 C   0  0  0  0  0  3  0  0  0  0  0  0
  188.9350  172.5860  140.3570 N   0  0  0  0  0  0  0  0  0  0  0  0
  191.3250  176.0450  145.0920 C   0  0  2  0  0  3  0  0  0  0  0  0
  192.6140  176.8550  145.0600 C   0  0  0  0  0  1  0  0  0  0  0  0
  191.2320  175.1220  146.3110 C   0  0  1  0  0  3  0  0  0  0  0  0
  192.4570  175.0420  146.9870 O   0  0  0  0  0  1  0  0  0  0  0  0
  190.1010  175.5310  147.2510 C   0  0  2  0  0  3  0  0  0  0  0  0
  189.1920  174.4810  147.4150 O   0  0  0  0  0  1  0  0  0  0  0  0
  189.3840  176.7560  146.6990 C   0  0  0  0  0  2  0  0  0  0  0  0
  187.9570  176.4220  146.3080 C   0  0  0  0  0  2  0  0  0  0  0  0
  187.1180  177.6830  146.2200 C   0  0  0  0  0  2  0  0  0  0  0  0
  184.9210  178.6160  146.8280 C   0  0  0  0  0  2  0  0  0  0  0  0
  184.7210  177.1490  146.5110 C   0  0  0  0  0  2  0  0  0  0  0  0
  185.9810  177.6040  147.2170 C   0  0  0  0  0  3  0  0  0  0  0  0
  187.6860  178.3380  141.9610 C   0  0  0  0  0  2  0  0  0  0  0  0
  183.8110  178.1210  141.5610 C   0  0  0  0  0  3  0  0  0  0  0  0
  184.1530  178.1090  142.8700 N   0  0  0  0  0  0  0  0  0  0  0  0
  186.2020  178.1660  141.9660 C   0  0  0  0  0  0  0  0  0  0  0  0
  185.2050  178.1730  140.6140 S   0  0  0  0  0  0  0  0  0  0  0  0
  185.4660  178.1460  143.0960 N   0  0  0  0  0  0  0  0  0  0  0  0
  1  6  1  0  0  0  0
  2 10  1  0  0  0  0
  2  9  1  1  0  0  0
  3  5  2  0  0  0  0
  3 11  1  0  0  0  0
  4  1  1  0  0  0  0
  5  8  1  0  0  0  0
  6 15  1  0  0  0  0
  7  2  1  0  0  0  0
  8  7  1  0  0  0  0
  8  1  2  0  0  0  0
 10  6  1  0  0  0  0
 11  4  2  0  0  0  0
 12  7  2  0  0  0  0
 13 14  2  0  0  0  0
 13  5  1  0  0  0  0
 14 12  1  0  0  0  0
 15 16  1  6  0  0  0
 15 17  1  0  0  0  0
 17 18  1  1  0  0  0
 17 19  1  0  0  0  0
 19 20  1  6  0  0  0
 21 19  1  0  0  0  0
 22 21  1  0  0  0  0
 23 22  1  0  0  0  0
 23 26  1  0  0  0  0
 24 26  1  0  0  0  0
 25 24  1  0  0  0  0
 25 26  1  0  0  0  0
 27 30  1  0  0  0  0
 27 11  1  0  0  0  0
 28 29  2  0  0  0  0
 29 32  1  0  0  0  0
 30 32  2  0  0  0  0
 31 28  1  0  0  0  0
 31 30  1  0  0  0  0
M  END
>  <MODEL>
2

>  <REMARK>
 VINA RESULT:      -7.2      2.271      6.160
  Name = 
  9 active torsions:
  status: ('A' for Active; 'I' for Inactive)
    1  A    between atoms: C_2  and  C_12
    2  A    between atoms: C_2  and  C_26
    3  A    between atoms: C_4  and  C_27
    4  A    between atoms: C_4  and  C_32
    5  A    between atoms: C_5  and  N_19
    6  A    between atoms: C_5  and  C_27
    7  A    between atoms: C_15  and  C_17
    8  A    between atoms: C_15  and  C_32
    9  A    between atoms: C_17  and  C_18
                            x       y       z     vdW  Elec       q    Type
                         _______ _______ _______ _____ _____    ______ ____

>  <TORSDO>
F 9

$$$$
=
 OpenBabel11062419053D

 32 36  0  0  1  0  0  0  0  0999 V2000
  187.3410  177.4410  144.5580 C   0  0  0  0  0  0  0  0  0  0  0  0
  185.3970  179.0800  143.3830 C   0  0  2  0  0  3  0  0  0  0  0  0
  187.0340  176.3240  147.0750 N   0  0  0  0  0  0  0  0  0  0  0  0
  188.3220  176.5780  145.0640 C   0  0  0  0  0  3  0  0  0  0  0  0
  186.0700  177.1550  146.5910 C   0  0  0  0  0  0  0  0  0  0  0  0
  187.4230  178.0550  143.2610 N   0  0  0  0  0  0  0  0  0  0  0  0
  185.2250  178.5430  144.7850 C   0  0  0  0  0  0  0  0  0  0  0  0
  186.2140  177.7170  145.3170 C   0  0  0  0  0  0  0  0  0  0  0  0
  184.6670  178.2180  142.3620 C   0  0  0  0  0  1  0  0  0  0  0  0
  186.7720  179.2430  143.0500 O   0  0  0  0  0  0  0  0  0  0  0  0
  188.1460  176.0250  146.3400 C   0  0  0  0  0  0  0  0  0  0  0  0
  184.0900  178.8120  145.5560 C   0  0  0  0  0  3  0  0  0  0  0  0
  184.9240  177.4540  147.3320 C   0  0  0  0  0  3  0  0  0  0  0  0
  183.9690  178.2700  146.8010 N   0  0  0  0  0  0  0  0  0  0  0  0
  188.2650  177.4760  142.2170 C   0  0  2  0  0  3  0  0  0  0  0  0
  188.8260  178.5720  141.3210 C   0  0  0  0  0  1  0  0  0  0  0  0
  187.5080  176.3970  141.4350 C   0  0  1  0  0  3  0  0  0  0  0  0
  187.0070  176.8980  140.2260 O   0  0  0  0  0  1  0  0  0  0  0  0
  188.3600  175.1500  141.2150 C   0  0  2  0  0  3  0  0  0  0  0  0
  188.1590  174.6350  139.9310 O   0  0  0  0  0  1  0  0  0  0  0  0
  188.0150  174.0950  142.2570 C   0  0  0  0  0  2  0  0  0  0  0  0
  188.2220  172.6970  141.7060 C   0  0  0  0  0  2  0  0  0  0  0  0
  189.3130  171.9760  142.4760 C   0  0  0  0  0  2  0  0  0  0  0  0
  189.5880  172.0490  144.9230 C   0  0  0  0  0  2  0  0  0  0  0  0
  190.9630  172.1940  144.3050 C   0  0  0  0  0  2  0  0  0  0  0  0
  189.7640  172.8350  143.6390 C   0  0  0  0  0  3  0  0  0  0  0  0
  189.1890  175.1130  146.8920 C   0  0  0  0  0  2  0  0  0  0  0  0
  192.8640  176.4120  146.7360 C   0  0  0  0  0  3  0  0  0  0  0  0
  192.2100  176.9670  147.7820 N   0  0  0  0  0  0  0  0  0  0  0  0
  190.5350  175.7610  146.9140 C   0  0  0  0  0  0  0  0  0  0  0  0
  191.8110  175.4130  145.8790 S   0  0  0  0  0  0  0  0  0  0  0  0
  190.9330  176.6010  147.8890 N   0  0  0  0  0  0  0  0  0  0  0  0
  1  4  2  0  0  0  0
  1  8  1  0  0  0  0
  2  9  1  6  0  0  0
  2  7  1  0  0  0  0
  4 11  1  0  0  0  0
  5  3  1  0  0  0  0
  5 13  1  0  0  0  0
  6  1  1  0  0  0  0
  7  8  1  0  0  0  0
  7 12  2  0  0  0  0
  8  5  2  0  0  0  0
 10  6  1  0  0  0  0
 10  2  1  0  0  0  0
 11 27  1  0  0  0  0
 11  3  2  0  0  0  0
 12 14  1  0  0  0  0
 14 13  2  0  0  0  0
 15 16  1  6  0  0  0
 15  6  1  0  0  0  0
 17 18  1  6  0  0  0
 17 15  1  0  0  0  0
 19 20  1  6  0  0  0
 19 17  1  0  0  0  0
 19 21  1  0  0  0  0
 22 21  1  0  0  0  0
 22 23  1  0  0  0  0
 23 26  1  0  0  0  0
 25 24  1  0  0  0  0
 26 25  1  0  0  0  0
 26 24  1  0  0  0  0
 27 30  1  0  0  0  0
 28 29  2  0  0  0  0
 29 32  1  0  0  0  0
 30 32  2  0  0  0  0
 31 28  1  0  0  0  0
 31 30  1  0  0  0  0
M  END
>  <MODEL>
3

>  <REMARK>
 VINA RESULT:      -7.0      2.752      5.150
  Name = 
  9 active torsions:
  status: ('A' for Active; 'I' for Inactive)
    1  A    between atoms: C_2  and  C_12
    2  A    between atoms: C_2  and  C_26
    3  A    between atoms: C_4  and  C_27
    4  A    between atoms: C_4  and  C_32
    5  A    between atoms: C_5  and  N_19
    6  A    between atoms: C_5  and  C_27
    7  A    between atoms: C_15  and  C_17
    8  A    between atoms: C_15  and  C_32
    9  A    between atoms: C_17  and  C_18
                            x       y       z     vdW  Elec       q    Type
                         _______ _______ _______ _____ _____    ______ ____

>  <TORSDO>
F 9

$$$$
=
 OpenBabel11062419053D

 32 36  0  0  1  0  0  0  0  0999 V2000
  187.1670  176.3580  143.7800 C   0  0  0  0  0  0  0  0  0  0  0  0
  185.0860  178.2090  144.0740 C   0  0  2  0  0  3  0  0  0  0  0  0
  188.2990  175.7580  141.3220 N   0  0  0  0  0  0  0  0  0  0  0  0
  188.2480  175.4700  143.7060 C   0  0  0  0  0  3  0  0  0  0  0  0
  187.2540  176.6290  141.3810 C   0  0  0  0  0  0  0  0  0  0  0  0
  186.5290  176.7250  145.0140 N   0  0  0  0  0  0  0  0  0  0  0  0
  185.6330  177.8580  142.7100 C   0  0  0  0  0  0  0  0  0  0  0  0
  186.6820  176.9430  142.6200 C   0  0  0  0  0  0  0  0  0  0  0  0
  185.7160  179.4840  144.6170 C   0  0  0  0  0  1  0  0  0  0  0  0
  185.2170  177.1240  144.9870 O   0  0  0  0  0  0  0  0  0  0  0  0
  188.8050  175.1800  142.4520 C   0  0  0  0  0  0  0  0  0  0  0  0
  185.1530  178.4450  141.5360 C   0  0  0  0  0  3  0  0  0  0  0  0
  186.7410  177.2340  140.2310 C   0  0  0  0  0  3  0  0  0  0  0  0
  185.7100  178.1200  140.3350 N   0  0  0  0  0  0  0  0  0  0  0  0
  187.2330  176.5800  146.2850 C   0  0  2  0  0  3  0  0  0  0  0  0
  186.2440  176.3130  147.4110 C   0  0  0  0  0  1  0  0  0  0  0  0
  188.1320  177.7910  146.5580 C   0  0  1  0  0  3  0  0  0  0  0  0
  187.7380  178.4710  147.7170 O   0  0  0  0  0  1  0  0  0  0  0  0
  189.6080  177.4040  146.6090 C   0  0  2  0  0  3  0  0  0  0  0  0
  190.2200  177.6240  145.3720 O   0  0  0  0  0  1  0  0  0  0  0  0
  189.7480  175.9410  147.0050 C   0  0  0  0  0  2  0  0  0  0  0  0
  190.8160  175.2520  146.1760 C   0  0  0  0  0  2  0  0  0  0  0  0
  192.1610  175.3210  146.8750 C   0  0  0  0  0  2  0  0  0  0  0  0
  194.0630  176.8740  146.6760 C   0  0  0  0  0  2  0  0  0  0  0  0
  194.5810  175.4800  146.3890 C   0  0  0  0  0  2  0  0  0  0  0  0
  193.1970  175.8830  145.9240 C   0  0  0  0  0  3  0  0  0  0  0  0
  189.9500  174.2300  142.3620 C   0  0  0  0  0  2  0  0  0  0  0  0
  193.5470  175.6710  141.9010 C   0  0  0  0  0  3  0  0  0  0  0  0
  192.7490  176.5760  142.5130 N   0  0  0  0  0  0  0  0  0  0  0  0
  191.2490  174.9460  142.1820 C   0  0  0  0  0  0  0  0  0  0  0  0
  192.6530  174.2900  141.5320 S   0  0  0  0  0  0  0  0  0  0  0  0
  191.4880  176.1750  142.6790 N   0  0  0  0  0  0  0  0  0  0  0  0
  1  6  1  0  0  0  0
  2  9  1  1  0  0  0
  2 10  1  0  0  0  0
  3  5  2  0  0  0  0
  3 11  1  0  0  0  0
  4  1  1  0  0  0  0
  5  8  1  0  0  0  0
  6 15  1  0  0  0  0
  7  2  1  0  0  0  0
  8  7  1  0  0  0  0
  8  1  2  0  0  0  0
 10  6  1  0  0  0  0
 11  4  2  0  0  0  0
 12  7  2  0  0  0  0
 13 14  2  0  0  0  0
 13  5  1  0  0  0  0
 14 12  1  0  0  0  0
 15 17  1  0  0  0  0
 15 16  1  1  0  0  0
 17 19  1  0  0  0  0
 17 18  1  1  0  0  0
 19 20  1  6  0  0  0
 19 21  1  0  0  0  0
 22 23  1  0  0  0  0
 22 21  1  0  0  0  0
 25 24  1  0  0  0  0
 26 25  1  0  0  0  0
 26 24  1  0  0  0  0
 26 23  1  0  0  0  0
 27 11  1  0  0  0  0
 28 29  2  0  0  0  0
 29 32  1  0  0  0  0
 30 27  1  0  0  0  0
 30 32  2  0  0  0  0
 31 28  1  0  0  0  0
 31 30  1  0  0  0  0
M  END
>  <MODEL>
4

>  <REMARK>
 VINA RESULT:      -7.0      1.928      2.960
  Name = 
  9 active torsions:
  status: ('A' for Active; 'I' for Inactive)
    1  A    between atoms: C_2  and  C_12
    2  A    between atoms: C_2  and  C_26
    3  A    between atoms: C_4  and  C_27
    4  A    between atoms: C_4  and  C_32
    5  A    between atoms: C_5  and  N_19
    6  A    between atoms: C_5  and  C_27
    7  A    between atoms: C_15  and  C_17
    8  A    between atoms: C_15  and  C_32
    9  A    between atoms: C_17  and  C_18
                            x       y       z     vdW  Elec       q    Type
                         _______ _______ _______ _____ _____    ______ ____

>  <TORSDO>
F 9

$$$$
=
 OpenBabel11062419053D

 32 36  0  0  1  0  0  0  0  0999 V2000
  186.9610  176.5180  143.7260 C   0  0  0  0  0  0  0  0  0  0  0  0
  184.8700  178.2930  144.2970 C   0  0  2  0  0  3  0  0  0  0  0  0
  187.8770  176.0640  141.1500 N   0  0  0  0  0  0  0  0  0  0  0  0
  188.0520  175.6670  143.5120 C   0  0  0  0  0  3  0  0  0  0  0  0
  186.8210  176.9000  141.3460 C   0  0  0  0  0  0  0  0  0  0  0  0
  186.4300  176.8100  145.0290 N   0  0  0  0  0  0  0  0  0  0  0  0
  185.2980  178.0200  142.8730 C   0  0  0  0  0  0  0  0  0  0  0  0
  186.3560  177.1410  142.6450 C   0  0  0  0  0  0  0  0  0  0  0  0
  185.5160  179.5600  144.8400 C   0  0  0  0  0  1  0  0  0  0  0  0
  185.1120  177.1720  145.1410 O   0  0  0  0  0  0  0  0  0  0  0  0
  188.4990  175.4510  142.2010 C   0  0  0  0  0  0  0  0  0  0  0  0
  184.6980  178.6460  141.7770 C   0  0  0  0  0  3  0  0  0  0  0  0
  186.1890  177.5410  140.2770 C   0  0  0  0  0  3  0  0  0  0  0  0
  185.1500  178.3920  140.5160 N   0  0  0  0  0  0  0  0  0  0  0  0
  187.2520  176.6280  146.2230 C   0  0  2  0  0  3  0  0  0  0  0  0
  186.3720  176.3350  147.4320 C   0  0  0  0  0  1  0  0  0  0  0  0
  188.1800  177.8270  146.4400 C   0  0  1  0  0  3  0  0  0  0  0  0
  187.9000  178.4810  147.6470 O   0  0  0  0  0  1  0  0  0  0  0  0
  189.6520  177.4320  146.3460 C   0  0  2  0  0  3  0  0  0  0  0  0
  190.1490  177.6800  145.0630 O   0  0  0  0  0  1  0  0  0  0  0  0
  189.8170  175.9590  146.6910 C   0  0  0  0  0  2  0  0  0  0  0  0
  191.1390  175.7090  147.3940 C   0  0  0  0  0  2  0  0  0  0  0  0
  192.1250  175.0390  146.4550 C   0  0  0  0  0  2  0  0  0  0  0  0
  194.2230  175.4670  145.2370 C   0  0  0  0  0  2  0  0  0  0  0  0
  193.5020  176.7900  145.3830 C   0  0  0  0  0  2  0  0  0  0  0  0
  193.4480  175.7740  146.5030 C   0  0  0  0  0  3  0  0  0  0  0  0
  189.6540  174.5390  141.9620 C   0  0  0  0  0  2  0  0  0  0  0  0
  189.3420  172.4860  138.6590 C   0  0  0  0  0  3  0  0  0  0  0  0
  188.2080  172.3820  139.3900 N   0  0  0  0  0  0  0  0  0  0  0  0
  189.4190  173.6460  140.7870 C   0  0  0  0  0  0  0  0  0  0  0  0
  190.4660  173.4250  139.4930 S   0  0  0  0  0  0  0  0  0  0  0  0
  188.2430  173.0280  140.5550 N   0  0  0  0  0  0  0  0  0  0  0  0
  1  6  1  0  0  0  0
  2  9  1  1  0  0  0
  2 10  1  0  0  0  0
  3  5  2  0  0  0  0
  3 11  1  0  0  0  0
  4  1  1  0  0  0  0
  5  8  1  0  0  0  0
  6 10  1  0  0  0  0
  6 15  1  0  0  0  0
  7  2  1  0  0  0  0
  8  7  1  0  0  0  0
  8  1  2  0  0  0  0
 11  4  2  0  0  0  0
 12  7  2  0  0  0  0
 13 14  2  0  0  0  0
 13  5  1  0  0  0  0
 14 12  1  0  0  0  0
 15 17  1  0  0  0  0
 15 16  1  1  0  0  0
 17 18  1  1  0  0  0
 19 20  1  6  0  0  0
 19 17  1  0  0  0  0
 19 21  1  0  0  0  0
 21 22  1  0  0  0  0
 23 26  1  0  0  0  0
 23 22  1  0  0  0  0
 24 25  1  0  0  0  0
 24 26  1  0  0  0  0
 25 26  1  0  0  0  0
 27 11  1  0  0  0  0
 28 29  2  0  0  0  0
 28 31  1  0  0  0  0
 29 32  1  0  0  0  0
 30 27  1  0  0  0  0
 31 30  1  0  0  0  0
 32 30  2  0  0  0  0
M  END
>  <MODEL>
5

>  <REMARK>
 VINA RESULT:      -6.7      1.866      2.613
  Name = 
  9 active torsions:
  status: ('A' for Active; 'I' for Inactive)
    1  A    between atoms: C_2  and  C_12
    2  A    between atoms: C_2  and  C_26
    3  A    between atoms: C_4  and  C_27
    4  A    between atoms: C_4  and  C_32
    5  A    between atoms: C_5  and  N_19
    6  A    between atoms: C_5  and  C_27
    7  A    between atoms: C_15  and  C_17
    8  A    between atoms: C_15  and  C_32
    9  A    between atoms: C_17  and  C_18
                            x       y       z     vdW  Elec       q    Type
                         _______ _______ _______ _____ _____    ______ ____

>  <TORSDO>
F 9

$$$$
=
 OpenBabel11062419053D

 32 36  0  0  1  0  0  0  0  0999 V2000
  191.7350  175.2400  142.6640 C   0  0  0  0  0  0  0  0  0  0  0  0
  193.1640  172.9240  142.0010 C   0  0  2  0  0  3  0  0  0  0  0  0
  189.0170  175.2180  143.2020 N   0  0  0  0  0  0  0  0  0  0  0  0
  191.0900  176.4210  143.0530 C   0  0  0  0  0  3  0  0  0  0  0  0
  189.6340  174.0620  142.8330 C   0  0  0  0  0  0  0  0  0  0  0  0
  193.1410  175.1660  142.3740 N   0  0  0  0  0  0  0  0  0  0  0  0
  191.6700  172.8850  142.2210 C   0  0  0  0  0  0  0  0  0  0  0  0
  191.0090  174.0630  142.5680 C   0  0  0  0  0  0  0  0  0  0  0  0
  193.9240  172.5120  143.2540 C   0  0  0  0  0  1  0  0  0  0  0  0
  193.5890  174.1940  141.5180 O   0  0  0  0  0  0  0  0  0  0  0  0
  189.7140  176.3870  143.3190 C   0  0  0  0  0  0  0  0  0  0  0  0
  190.9300  171.7030  142.1300 C   0  0  0  0  0  3  0  0  0  0  0  0
  188.9290  172.8600  142.7250 C   0  0  0  0  0  3  0  0  0  0  0  0
  189.5880  171.7180  142.3780 N   0  0  0  0  0  0  0  0  0  0  0  0
  194.0620  176.1700  142.9030 C   0  0  2  0  0  3  0  0  0  0  0  0
  195.2270  176.3770  141.9450 C   0  0  0  0  0  1  0  0  0  0  0  0
  194.5140  175.8080  144.3210 C   0  0  1  0  0  3  0  0  0  0  0  0
  195.9070  175.6800  144.3970 O   0  0  0  0  0  1  0  0  0  0  0  0
  193.9860  176.7970  145.3580 C   0  0  2  0  0  3  0  0  0  0  0  0
  194.9380  177.7830  145.6310 O   0  0  0  0  0  1  0  0  0  0  0  0
  193.6190  176.0590  146.6380 C   0  0  0  0  0  2  0  0  0  0  0  0
  192.3420  175.2600  146.4600 C   0  0  0  0  0  2  0  0  0  0  0  0
  191.1280  176.1200  146.7550 C   0  0  0  0  0  2  0  0  0  0  0  0
  188.7240  175.6010  146.8920 C   0  0  0  0  0  2  0  0  0  0  0  0
  189.4450  174.3250  146.5110 C   0  0  0  0  0  2  0  0  0  0  0  0
  190.0860  175.2950  147.4810 C   0  0  0  0  0  3  0  0  0  0  0  0
  189.0160  177.6410  143.7250 C   0  0  0  0  0  2  0  0  0  0  0  0
  185.3130  177.5390  142.4980 C   0  0  0  0  0  3  0  0  0  0  0  0
  186.1380  177.8930  141.4850 N   0  0  0  0  0  0  0  0  0  0  0  0
  187.6470  177.7270  143.1320 C   0  0  0  0  0  0  0  0  0  0  0  0
  186.2110  177.3310  143.9090 S   0  0  0  0  0  0  0  0  0  0  0  0
  187.4230  177.9850  141.8280 N   0  0  0  0  0  0  0  0  0  0  0  0
  1  4  1  0  0  0  0
  2  7  1  0  0  0  0
  2  9  1  1  0  0  0
  3 11  1  0  0  0  0
  4 11  2  0  0  0  0
  5  3  2  0  0  0  0
  6  1  1  0  0  0  0
  6 15  1  0  0  0  0
  7  8  1  0  0  0  0
  8  1  2  0  0  0  0
  8  5  1  0  0  0  0
 10  2  1  0  0  0  0
 10  6  1  0  0  0  0
 11 27  1  0  0  0  0
 12  7  2  0  0  0  0
 12 14  1  0  0  0  0
 13  5  1  0  0  0  0
 14 13  2  0  0  0  0
 15 16  1  6  0  0  0
 15 17  1  0  0  0  0
 17 18  1  6  0  0  0
 17 19  1  0  0  0  0
 19 20  1  1  0  0  0
 19 21  1  0  0  0  0
 22 21  1  0  0  0  0
 22 23  1  0  0  0  0
 23 26  1  0  0  0  0
 24 26  1  0  0  0  0
 25 24  1  0  0  0  0
 25 26  1  0  0  0  0
 28 31  1  0  0  0  0
 29 32  1  0  0  0  0
 29 28  2  0  0  0  0
 30 27  1  0  0  0  0
 30 31  1  0  0  0  0
 32 30  2  0  0  0  0
M  END
>  <MODEL>
6

>  <REMARK>
 VINA RESULT:      -6.6      2.982      6.305
  Name = 
  9 active torsions:
  status: ('A' for Active; 'I' for Inactive)
    1  A    between atoms: C_2  and  C_12
    2  A    between atoms: C_2  and  C_26
    3  A    between atoms: C_4  and  C_27
    4  A    between atoms: C_4  and  C_32
    5  A    between atoms: C_5  and  N_19
    6  A    between atoms: C_5  and  C_27
    7  A    between atoms: C_15  and  C_17
    8  A    between atoms: C_15  and  C_32
    9  A    between atoms: C_17  and  C_18
                            x       y       z     vdW  Elec       q    Type
                         _______ _______ _______ _____ _____    ______ ____

>  <TORSDO>
F 9

$$$$
=
 OpenBabel11062419053D

 32 36  0  0  1  0  0  0  0  0999 V2000
  191.8290  174.7420  144.6480 C   0  0  0  0  0  0  0  0  0  0  0  0
  193.8770  176.3920  145.6130 C   0  0  2  0  0  3  0  0  0  0  0  0
  192.1710  172.0250  144.2250 N   0  0  0  0  0  0  0  0  0  0  0  0
  190.7470  173.9590  144.2250 C   0  0  0  0  0  3  0  0  0  0  0  0
  193.2280  172.7740  144.6440 C   0  0  0  0  0  0  0  0  0  0  0  0
  191.7320  176.1550  144.8960 N   0  0  0  0  0  0  0  0  0  0  0  0
  194.1200  174.9280  145.3300 C   0  0  0  0  0  0  0  0  0  0  0  0
  193.0620  174.1460  144.8680 C   0  0  0  0  0  0  0  0  0  0  0  0
  193.5780  176.6340  147.0860 C   0  0  0  0  0  1  0  0  0  0  0  0
  192.8590  176.9260  144.7720 O   0  0  0  0  0  0  0  0  0  0  0  0
  190.9430  172.5870  144.0160 C   0  0  0  0  0  0  0  0  0  0  0  0
  195.3570  174.3170  145.5520 C   0  0  0  0  0  3  0  0  0  0  0  0
  194.4830  172.2030  144.8720 C   0  0  0  0  0  3  0  0  0  0  0  0
  195.5100  172.9820  145.3170 N   0  0  0  0  0  0  0  0  0  0  0  0
  190.4380  176.7720  145.1770 C   0  0  2  0  0  3  0  0  0  0  0  0
  190.4080  178.2000  144.6490 C   0  0  0  0  0  1  0  0  0  0  0  0
  190.0970  176.6810  146.6670 C   0  0  1  0  0  3  0  0  0  0  0  0
  190.0250  177.9510  147.2550 O   0  0  0  0  0  1  0  0  0  0  0  0
  188.8220  175.8780  146.9120 C   0  0  2  0  0  3  0  0  0  0  0  0
  189.1190  174.5250  147.1020 O   0  0  0  0  0  1  0  0  0  0  0  0
  187.8720  176.0410  145.7340 C   0  0  0  0  0  2  0  0  0  0  0  0
  186.6770  176.8960  146.1120 C   0  0  0  0  0  2  0  0  0  0  0  0
  186.6710  178.1870  145.3160 C   0  0  0  0  0  2  0  0  0  0  0  0
  185.1910  179.8510  144.2630 C   0  0  0  0  0  2  0  0  0  0  0  0
  184.5750  178.4870  144.0390 C   0  0  0  0  0  2  0  0  0  0  0  0
  185.2820  178.7910  145.3420 C   0  0  0  0  0  3  0  0  0  0  0  0
  189.8010  171.7460  143.5570 C   0  0  0  0  0  2  0  0  0  0  0  0
  189.2410  172.6140  139.7940 C   0  0  0  0  0  3  0  0  0  0  0  0
  188.1910  173.0320  140.5380 N   0  0  0  0  0  0  0  0  0  0  0  0
  189.4080  172.0670  142.1510 C   0  0  0  0  0  0  0  0  0  0  0  0
  190.3590  171.8330  140.7860 S   0  0  0  0  0  0  0  0  0  0  0  0
  188.2860  172.7440  141.8360 N   0  0  0  0  0  0  0  0  0  0  0  0
  1  8  1  0  0  0  0
  1  6  1  0  0  0  0
  2  9  1  1  0  0  0
  3  5  1  0  0  0  0
  4  1  2  0  0  0  0
  5  8  2  0  0  0  0
  5 13  1  0  0  0  0
  6 15  1  0  0  0  0
  7 12  2  0  0  0  0
  7  2  1  0  0  0  0
  8  7  1  0  0  0  0
 10  6  1  0  0  0  0
 10  2  1  0  0  0  0
 11  3  2  0  0  0  0
 11  4  1  0  0  0  0
 13 14  2  0  0  0  0
 14 12  1  0  0  0  0
 15 16  1  1  0  0  0
 15 17  1  0  0  0  0
 17 19  1  0  0  0  0
 17 18  1  6  0  0  0
 19 20  1  6  0  0  0
 21 22  1  0  0  0  0
 21 19  1  0  0  0  0
 23 26  1  0  0  0  0
 23 22  1  0  0  0  0
 24 26  1  0  0  0  0
 25 24  1  0  0  0  0
 25 26  1  0  0  0  0
 27 11  1  0  0  0  0
 28 29  2  0  0  0  0
 28 31  1  0  0  0  0
 29 32  1  0  0  0  0
 30 27  1  0  0  0  0
 31 30  1  0  0  0  0
 32 30  2  0  0  0  0
M  END
>  <MODEL>
7

>  <REMARK>
 VINA RESULT:      -6.6      2.564      6.963
  Name = 
  9 active torsions:
  status: ('A' for Active; 'I' for Inactive)
    1  A    between atoms: C_2  and  C_12
    2  A    between atoms: C_2  and  C_26
    3  A    between atoms: C_4  and  C_27
    4  A    between atoms: C_4  and  C_32
    5  A    between atoms: C_5  and  N_19
    6  A    between atoms: C_5  and  C_27
    7  A    between atoms: C_15  and  C_17
    8  A    between atoms: C_15  and  C_32
    9  A    between atoms: C_17  and  C_18
                            x       y       z     vdW  Elec       q    Type
                         _______ _______ _______ _____ _____    ______ ____

>  <TORSDO>
F 9

$$$$
=
 OpenBabel11062419053D

 32 36  0  0  1  0  0  0  0  0999 V2000
  189.9880  175.2130  142.9660 C   0  0  0  0  0  0  0  0  0  0  0  0
  187.6000  175.9790  141.7160 C   0  0  2  0  0  3  0  0  0  0  0  0
  191.8060  173.4860  141.7860 N   0  0  0  0  0  0  0  0  0  0  0  0
  191.1930  174.9180  143.6140 C   0  0  0  0  0  3  0  0  0  0  0  0
  190.6410  173.7710  141.1420 C   0  0  0  0  0  0  0  0  0  0  0  0
  188.9970  176.1020  143.5060 N   0  0  0  0  0  0  0  0  0  0  0  0
  188.5360  174.9820  141.0720 C   0  0  0  0  0  0  0  0  0  0  0  0
  189.7210  174.6490  141.7270 C   0  0  0  0  0  0  0  0  0  0  0  0
  187.8270  177.3850  141.1790 C   0  0  0  0  0  1  0  0  0  0  0  0
  187.6870  175.9350  143.1370 O   0  0  0  0  0  0  0  0  0  0  0  0
  192.0990  174.0410  143.0000 C   0  0  0  0  0  0  0  0  0  0  0  0
  188.2780  174.4120  139.8220 C   0  0  0  0  0  3  0  0  0  0  0  0
  190.3420  173.2170  139.8940 C   0  0  0  0  0  3  0  0  0  0  0  0
  189.1760  173.5470  139.2690 N   0  0  0  0  0  0  0  0  0  0  0  0
  189.3620  177.1000  144.5080 C   0  0  2  0  0  3  0  0  0  0  0  0
  190.4710  178.0000  143.9790 C   0  0  0  0  0  1  0  0  0  0  0  0
  189.7200  176.4360  145.8420 C   0  0  1  0  0  3  0  0  0  0  0  0
  190.9510  176.8950  146.3280 O   0  0  0  0  0  1  0  0  0  0  0  0
  188.6110  176.6030  146.8770 C   0  0  2  0  0  3  0  0  0  0  0  0
  188.0240  175.3700  147.1760 O   0  0  0  0  0  1  0  0  0  0  0  0
  187.5550  177.5690  146.3560 C   0  0  0  0  0  2  0  0  0  0  0  0
  186.1850  176.9180  146.3350 C   0  0  0  0  0  2  0  0  0  0  0  0
  185.2650  177.6390  145.3670 C   0  0  0  0  0  2  0  0  0  0  0  0
  185.3460  178.9320  143.2720 C   0  0  0  0  0  2  0  0  0  0  0  0
  185.2350  179.9200  144.4140 C   0  0  0  0  0  2  0  0  0  0  0  0
  186.0600  178.6620  144.5820 C   0  0  0  0  0  3  0  0  0  0  0  0
  193.3810  173.7130  143.6870 C   0  0  0  0  0  2  0  0  0  0  0  0
  194.8400  176.7150  145.7080 C   0  0  0  0  0  3  0  0  0  0  0  0
  194.3570  175.7700  146.5460 N   0  0  0  0  0  0  0  0  0  0  0  0
  193.8220  174.8180  144.5910 C   0  0  0  0  0  0  0  0  0  0  0  0
  194.5740  176.2420  144.1120 S   0  0  0  0  0  0  0  0  0  0  0  0
  193.8070  174.7210  145.9350 N   0  0  0  0  0  0  0  0  0  0  0  0
  1  6  1  0  0  0  0
  1  4  1  0  0  0  0
  2  9  1  6  0  0  0
  2 10  1  0  0  0  0
  3 11  1  0  0  0  0
  5  8  1  0  0  0  0
  5  3  2  0  0  0  0
  6 15  1  0  0  0  0
  7  2  1  0  0  0  0
  7  8  1  0  0  0  0
  8  1  2  0  0  0  0
 10  6  1  0  0  0  0
 11  4  2  0  0  0  0
 11 27  1  0  0  0  0
 12  7  2  0  0  0  0
 13  5  1  0  0  0  0
 14 12  1  0  0  0  0
 14 13  2  0  0  0  0
 15 16  1  6  0  0  0
 15 17  1  0  0  0  0
 17 18  1  1  0  0  0
 17 19  1  0  0  0  0
 19 20  1  6  0  0  0
 21 19  1  0  0  0  0
 22 21  1  0  0  0  0
 23 22  1  0  0  0  0
 24 25  1  0  0  0  0
 24 26  1  0  0  0  0
 25 26  1  0  0  0  0
 26 23  1  0  0  0  0
 27 30  1  0  0  0  0
 28 29  2  0  0  0  0
 30 32  2  0  0  0  0
 31 30  1  0  0  0  0
 31 28  1  0  0  0  0
 32 29  1  0  0  0  0
M  END
>  <MODEL>
8

>  <REMARK>
 VINA RESULT:      -6.4      2.601      6.448
  Name = 
  9 active torsions:
  status: ('A' for Active; 'I' for Inactive)
    1  A    between atoms: C_2  and  C_12
    2  A    between atoms: C_2  and  C_26
    3  A    between atoms: C_4  and  C_27
    4  A    between atoms: C_4  and  C_32
    5  A    between atoms: C_5  and  N_19
    6  A    between atoms: C_5  and  C_27
    7  A    between atoms: C_15  and  C_17
    8  A    between atoms: C_15  and  C_32
    9  A    between atoms: C_17  and  C_18
                            x       y       z     vdW  Elec       q    Type
                         _______ _______ _______ _____ _____    ______ ____

>  <TORSDO>
F 9

$$$$
=
 OpenBabel11062419053D

 32 36  0  0  1  0  0  0  0  0999 V2000
  187.4150  177.9110  144.6400 C   0  0  0  0  0  0  0  0  0  0  0  0
  185.1410  179.0240  143.4410 C   0  0  2  0  0  3  0  0  0  0  0  0
  187.5130  177.2440  147.3280 N   0  0  0  0  0  0  0  0  0  0  0  0
  188.5590  177.2990  145.1670 C   0  0  0  0  0  3  0  0  0  0  0  0
  186.3930  177.8310  146.8270 C   0  0  0  0  0  0  0  0  0  0  0  0
  187.2820  178.2810  143.2580 N   0  0  0  0  0  0  0  0  0  0  0  0
  185.1810  178.7360  144.9240 C   0  0  0  0  0  0  0  0  0  0  0  0
  186.3310  178.1640  145.4680 C   0  0  0  0  0  0  0  0  0  0  0  0
  184.4640  177.8980  142.6720 C   0  0  0  0  0  1  0  0  0  0  0  0
  186.4380  179.3100  142.9270 O   0  0  0  0  0  0  0  0  0  0  0  0
  188.5880  176.9700  146.5300 C   0  0  0  0  0  0  0  0  0  0  0  0
  184.0930  178.9830  145.7650 C   0  0  0  0  0  3  0  0  0  0  0  0
  185.2850  178.1010  147.6350 C   0  0  0  0  0  3  0  0  0  0  0  0
  184.1710  178.6670  147.0900 N   0  0  0  0  0  0  0  0  0  0  0  0
  188.1060  177.6420  142.2360 C   0  0  2  0  0  3  0  0  0  0  0  0
  188.5520  178.6640  141.1990 C   0  0  0  0  0  1  0  0  0  0  0  0
  187.3810  176.4430  141.6160 C   0  0  1  0  0  3  0  0  0  0  0  0
  187.1130  176.6530  140.2570 O   0  0  0  0  0  1  0  0  0  0  0  0
  188.1410  175.1380  141.8410 C   0  0  2  0  0  3  0  0  0  0  0  0
  189.4030  175.3900  142.3880 O   0  0  0  0  0  1  0  0  0  0  0  0
  188.2860  174.3880  140.5250 C   0  0  0  0  0  2  0  0  0  0  0  0
  189.6800  173.8050  140.3800 C   0  0  0  0  0  2  0  0  0  0  0  0
  189.7040  172.3580  140.8380 C   0  0  0  0  0  2  0  0  0  0  0  0
  191.5260  170.8560  141.5370 C   0  0  0  0  0  2  0  0  0  0  0  0
  190.8280  170.2080  140.3600 C   0  0  0  0  0  2  0  0  0  0  0  0
  191.0020  171.7110  140.4010 C   0  0  0  0  0  3  0  0  0  0  0  0
  189.8050  176.3270  147.1020 C   0  0  0  0  0  2  0  0  0  0  0  0
  191.3300  173.7070  144.6450 C   0  0  0  0  0  3  0  0  0  0  0  0
  190.1020  173.3140  145.0530 N   0  0  0  0  0  0  0  0  0  0  0  0
  190.2870  175.2000  146.2480 C   0  0  0  0  0  0  0  0  0  0  0  0
  191.7390  175.1560  145.4040 S   0  0  0  0  0  0  0  0  0  0  0  0
  189.5210  174.1390  145.9250 N   0  0  0  0  0  0  0  0  0  0  0  0
  1  4  2  0  0  0  0
  1  8  1  0  0  0  0
  2  9  1  6  0  0  0
  2  7  1  0  0  0  0
  4 11  1  0  0  0  0
  5  3  1  0  0  0  0
  5 13  1  0  0  0  0
  6  1  1  0  0  0  0
  7  8  1  0  0  0  0
  7 12  2  0  0  0  0
  8  5  2  0  0  0  0
 10  6  1  0  0  0  0
 10  2  1  0  0  0  0
 11 27  1  0  0  0  0
 11  3  2  0  0  0  0
 12 14  1  0  0  0  0
 14 13  2  0  0  0  0
 15 16  1  6  0  0  0
 15  6  1  0  0  0  0
 17 18  1  6  0  0  0
 17 19  1  0  0  0  0
 17 15  1  0  0  0  0
 19 20  1  6  0  0  0
 21 19  1  0  0  0  0
 22 21  1  0  0  0  0
 22 23  1  0  0  0  0
 25 26  1  0  0  0  0
 25 24  1  0  0  0  0
 26 23  1  0  0  0  0
 26 24  1  0  0  0  0
 28 29  2  0  0  0  0
 28 31  1  0  0  0  0
 29 32  1  0  0  0  0
 30 27  1  0  0  0  0
 31 30  1  0  0  0  0
 32 30  2  0  0  0  0
M  END
>  <MODEL>
9

>  <REMARK>
 VINA RESULT:      -6.2      2.711      5.038
  Name = 
  9 active torsions:
  status: ('A' for Active; 'I' for Inactive)
    1  A    between atoms: C_2  and  C_12
    2  A    between atoms: C_2  and  C_26
    3  A    between atoms: C_4  and  C_27
    4  A    between atoms: C_4  and  C_32
    5  A    between atoms: C_5  and  N_19
    6  A    between atoms: C_5  and  C_27
    7  A    between atoms: C_15  and  C_17
    8  A    between atoms: C_15  and  C_32
    9  A    between atoms: C_17  and  C_18
                            x       y       z     vdW  Elec       q    Type
                         _______ _______ _______ _____ _____    ______ ____

>  <TORSDO>
F 9

$$$$
