=
 OpenBabel11072408483D

 26 30  0  0  1  0  0  0  0  0999 V2000
  187.4730  176.7100  146.5510 C   0  0  0  0  0  3  0  0  0  0  0  0
  189.3360  176.9520  144.4850 C   0  0  0  0  0  3  0  0  0  0  0  0
  189.4620  175.9060  145.4100 C   0  0  0  0  0  0  0  0  0  0  0  0
  188.5210  175.7920  146.4430 C   0  0  0  0  0  3  0  0  0  0  0  0
  187.3520  177.7600  145.6260 C   0  0  0  0  0  0  0  0  0  0  0  0
  188.2870  177.8700  144.5920 C   0  0  0  0  0  3  0  0  0  0  0  0
  193.9830  174.7150  146.0800 O   0  0  0  0  0  0  0  0  0  0  0  0
  191.8120  175.2610  145.7470 N   0  0  0  0  0  0  0  0  0  0  0  0
  192.6360  173.1240  145.0810 C   0  0  1  0  0  3  0  0  0  0  0  0
  190.3530  173.7140  144.7380 N   0  0  0  0  0  0  0  0  0  0  0  0
  193.7360  172.1250  144.9530 C   0  0  0  0  0  1  0  0  0  0  0  0
  190.5670  174.9370  145.2960 C   0  0  0  0  0  0  0  0  0  0  0  0
  191.3590  172.8080  144.6240 C   0  0  0  0  0  3  0  0  0  0  0  0
  192.8460  174.3840  145.6520 C   0  0  0  0  0  0  0  0  0  0  0  0
  185.0770  178.5240  144.6920 C   0  0  2  0  0  3  0  0  0  0  0  0
  186.2190  178.7600  145.6730 C   0  0  1  0  0  3  0  0  0  0  0  0
  185.2460  178.5930  146.8340 C   0  0  1  0  0  3  0  0  0  0  0  0
  184.1230  178.4080  145.8730 C   0  0  2  0  0  3  0  0  0  0  0  0
  184.5440  177.3770  146.7320 O   0  0  0  0  0  0  0  0  0  0  0  0
  185.1700  177.2920  144.0260 O   0  0  0  0  0  0  0  0  0  0  0  0
  186.1800  177.7710  141.8150 C   0  0  0  0  0  2  0  0  0  0  0  0
  184.0840  178.3940  140.8520 C   0  0  0  0  0  3  0  0  0  0  0  0
  185.5390  178.2590  140.5160 C   0  0  2  0  0  3  0  0  0  0  0  0
  185.7000  177.2890  139.5260 O   0  0  0  0  0  1  0  0  0  0  0  0
  183.8550  178.0080  142.0930 C   0  0  0  0  0  3  0  0  0  0  0  0
  185.0550  177.5860  142.7090 N   0  0  0  0  0  0  0  0  0  0  0  0
  2  6  2  0  0  0  0
  2  3  1  0  0  0  0
  3  4  2  0  0  0  0
  4  1  1  0  0  0  0
  5  1  2  0  0  0  0
  6  5  1  0  0  0  0
  9 11  1  1  0  0  0
  9 14  1  0  0  0  0
 10 12  1  0  0  0  0
 12  3  1  0  0  0  0
 12  8  2  0  0  0  0
 13 10  2  0  0  0  0
 13  9  1  0  0  0  0
 14  8  1  0  0  0  0
 14  7  2  0  0  0  0
 15 20  1  1  0  0  0
 15 16  1  0  0  0  0
 15 18  1  0  0  0  0
 16  5  1  1  0  0  0
 16 17  1  0  0  0  0
 17 19  1  6  0  0  0
 18 19  1  1  0  0  0
 18 17  1  0  0  0  0
 21 26  1  0  0  0  0
 22 25  2  0  0  0  0
 23 24  1  6  0  0  0
 23 22  1  0  0  0  0
 23 21  1  0  0  0  0
 25 26  1  0  0  0  0
 26 20  1  0  0  0  0
M  END
>  <MODEL>
1

>  <REMARK>
 VINA RESULT:      -7.6      0.000      0.000
  Name = 
  4 active torsions:
  status: ('A' for Active; 'I' for Inactive)
    1  A    between atoms: C_10  and  O_25
    2  A    between atoms: C_11  and  C_14
    3  A    between atoms: C_13  and  C_18
    4  A    between atoms: N_22  and  O_25
                            x       y       z     vdW  Elec       q    Type
                         _______ _______ _______ _____ _____    ______ ____

>  <TORSDO>
F 4

$$$$
=
 OpenBabel11072408483D

 26 30  0  0  1  0  0  0  0  0999 V2000
  187.7480  176.3230  146.5110 C   0  0  0  0  0  3  0  0  0  0  0  0
  189.7410  176.7660  144.6060 C   0  0  0  0  0  3  0  0  0  0  0  0
  189.8360  175.6590  145.4620 C   0  0  0  0  0  0  0  0  0  0  0  0
  188.8300  175.4450  146.4140 C   0  0  0  0  0  3  0  0  0  0  0  0
  187.6580  177.4350  145.6570 C   0  0  0  0  0  0  0  0  0  0  0  0
  188.6590  177.6450  144.7030 C   0  0  0  0  0  3  0  0  0  0  0  0
  191.7120  171.5800  143.9960 O   0  0  0  0  0  0  0  0  0  0  0  0
  190.8380  173.5420  144.7100 N   0  0  0  0  0  0  0  0  0  0  0  0
  193.1140  172.9950  145.1690 C   0  0  1  0  0  3  0  0  0  0  0  0
  192.1790  175.0560  145.9130 N   0  0  0  0  0  0  0  0  0  0  0  0
  194.2840  172.0760  145.0800 C   0  0  0  0  0  1  0  0  0  0  0  0
  190.9780  174.7320  145.3590 C   0  0  0  0  0  0  0  0  0  0  0  0
  193.2420  174.2150  145.8290 C   0  0  0  0  0  3  0  0  0  0  0  0
  191.8750  172.6710  144.6040 C   0  0  0  0  0  0  0  0  0  0  0  0
  185.4170  178.1870  144.6330 C   0  0  2  0  0  3  0  0  0  0  0  0
  186.4930  178.3970  145.6930 C   0  0  1  0  0  3  0  0  0  0  0  0
  185.4600  178.1350  146.7820 C   0  0  1  0  0  3  0  0  0  0  0  0
  184.4010  177.9740  145.7470 C   0  0  2  0  0  3  0  0  0  0  0  0
  184.8040  176.9070  146.5680 O   0  0  0  0  0  0  0  0  0  0  0  0
  185.5890  177.0000  143.9050 O   0  0  0  0  0  0  0  0  0  0  0  0
  186.5820  177.4090  141.6720 C   0  0  0  0  0  2  0  0  0  0  0  0
  184.5700  178.3670  140.8130 C   0  0  0  0  0  3  0  0  0  0  0  0
  185.9770  178.0350  140.4160 C   0  0  2  0  0  3  0  0  0  0  0  0
  185.9590  177.0900  139.3900 O   0  0  0  0  0  1  0  0  0  0  0  0
  184.3280  177.9730  142.0490 C   0  0  0  0  0  3  0  0  0  0  0  0
  185.4740  177.3570  142.6040 N   0  0  0  0  0  0  0  0  0  0  0  0
  2  6  2  0  0  0  0
  2  3  1  0  0  0  0
  3  4  2  0  0  0  0
  4  1  1  0  0  0  0
  5  1  2  0  0  0  0
  6  5  1  0  0  0  0
  7 14  2  0  0  0  0
  8 12  2  0  0  0  0
  9 11  1  6  0  0  0
  9 13  1  0  0  0  0
 12  3  1  0  0  0  0
 12 10  1  0  0  0  0
 13 10  2  0  0  0  0
 14  8  1  0  0  0  0
 14  9  1  0  0  0  0
 15 20  1  6  0  0  0
 15 16  1  0  0  0  0
 15 18  1  0  0  0  0
 16  5  1  6  0  0  0
 16 17  1  0  0  0  0
 17 19  1  6  0  0  0
 18 19  1  6  0  0  0
 18 17  1  0  0  0  0
 21 26  1  0  0  0  0
 22 25  2  0  0  0  0
 23 24  1  6  0  0  0
 23 22  1  0  0  0  0
 23 21  1  0  0  0  0
 25 26  1  0  0  0  0
 26 20  1  0  0  0  0
M  END
>  <MODEL>
2

>  <REMARK>
 VINA RESULT:      -7.5      0.987      1.356
  Name = 
  4 active torsions:
  status: ('A' for Active; 'I' for Inactive)
    1  A    between atoms: C_10  and  O_25
    2  A    between atoms: C_11  and  C_14
    3  A    between atoms: C_13  and  C_18
    4  A    between atoms: N_22  and  O_25
                            x       y       z     vdW  Elec       q    Type
                         _______ _______ _______ _____ _____    ______ ____

>  <TORSDO>
F 4

$$$$
=
 OpenBabel11072408483D

 26 30  0  0  1  0  0  0  0  0999 V2000
  191.4380  176.8520  145.6750 C   0  0  0  0  0  3  0  0  0  0  0  0
  189.2700  175.4730  146.7700 C   0  0  0  0  0  3  0  0  0  0  0  0
  189.0520  176.6850  146.1000 C   0  0  0  0  0  0  0  0  0  0  0  0
  190.1460  177.3700  145.5530 C   0  0  0  0  0  3  0  0  0  0  0  0
  191.6560  175.6400  146.3520 C   0  0  0  0  0  0  0  0  0  0  0  0
  190.5630  174.9550  146.8920 C   0  0  0  0  0  3  0  0  0  0  0  0
  185.8980  179.4070  143.8730 O   0  0  0  0  0  0  0  0  0  0  0  0
  187.3900  178.0950  144.9590 N   0  0  0  0  0  0  0  0  0  0  0  0
  185.1370  178.2540  145.7280 C   0  0  1  0  0  3  0  0  0  0  0  0
  186.7190  176.8780  146.8590 N   0  0  0  0  0  0  0  0  0  0  0  0
  183.7500  178.7910  145.6190 C   0  0  0  0  0  1  0  0  0  0  0  0
  187.6880  177.2310  145.9700 C   0  0  0  0  0  0  0  0  0  0  0  0
  185.4580  177.3700  146.7550 C   0  0  0  0  0  3  0  0  0  0  0  0
  186.1400  178.6120  144.8200 C   0  0  0  0  0  0  0  0  0  0  0  0
  193.5720  174.3300  145.2370 C   0  0  2  0  0  3  0  0  0  0  0  0
  193.0260  175.0160  146.4830 C   0  0  1  0  0  3  0  0  0  0  0  0
  194.1960  175.9910  146.4500 C   0  0  1  0  0  3  0  0  0  0  0  0
  194.7520  175.2920  145.2580 C   0  0  2  0  0  3  0  0  0  0  0  0
  194.2930  176.6190  145.1930 O   0  0  0  0  0  0  0  0  0  0  0  0
  192.7870  174.5580  144.0960 O   0  0  0  0  0  0  0  0  0  0  0  0
  190.7560  173.2520  143.5380 C   0  0  0  0  0  2  0  0  0  0  0  0
  191.8370  171.1600  143.9380 C   0  0  0  0  0  3  0  0  0  0  0  0
  190.5180  171.7430  143.5290 C   0  0  2  0  0  3  0  0  0  0  0  0
  190.2100  171.3310  142.2320 O   0  0  0  0  0  1  0  0  0  0  0  0
  192.7340  172.1130  144.1090 C   0  0  0  0  0  3  0  0  0  0  0  0
  192.1650  173.3800  143.8470 N   0  0  0  0  0  0  0  0  0  0  0  0
  1  5  1  0  0  0  0
  2  6  1  0  0  0  0
  3  2  2  0  0  0  0
  4  1  2  0  0  0  0
  4  3  1  0  0  0  0
  5  6  2  0  0  0  0
  7 14  2  0  0  0  0
  8 12  2  0  0  0  0
  9 11  1  6  0  0  0
  9 13  1  0  0  0  0
 12  3  1  0  0  0  0
 12 10  1  0  0  0  0
 13 10  2  0  0  0  0
 14  8  1  0  0  0  0
 14  9  1  0  0  0  0
 15 20  1  6  0  0  0
 15 18  1  0  0  0  0
 15 16  1  0  0  0  0
 16  5  1  6  0  0  0
 17 19  1  6  0  0  0
 17 16  1  0  0  0  0
 18 19  1  6  0  0  0
 18 17  1  0  0  0  0
 21 26  1  0  0  0  0
 22 25  2  0  0  0  0
 23 24  1  6  0  0  0
 23 21  1  0  0  0  0
 23 22  1  0  0  0  0
 26 20  1  0  0  0  0
 26 25  1  0  0  0  0
M  END
>  <MODEL>
3

>  <REMARK>
 VINA RESULT:      -6.9      2.412      7.856
  Name = 
  4 active torsions:
  status: ('A' for Active; 'I' for Inactive)
    1  A    between atoms: C_10  and  O_25
    2  A    between atoms: C_11  and  C_14
    3  A    between atoms: C_13  and  C_18
    4  A    between atoms: N_22  and  O_25
                            x       y       z     vdW  Elec       q    Type
                         _______ _______ _______ _____ _____    ______ ____

>  <TORSDO>
F 4

$$$$
=
 OpenBabel11072408483D

 26 30  0  0  1  0  0  0  0  0999 V2000
  192.1590  177.0300  144.7140 C   0  0  0  0  0  3  0  0  0  0  0  0
  190.5640  176.4220  146.9240 C   0  0  0  0  0  3  0  0  0  0  0  0
  189.9990  177.0840  145.8240 C   0  0  0  0  0  0  0  0  0  0  0  0
  190.8070  177.3840  144.7190 C   0  0  0  0  0  3  0  0  0  0  0  0
  192.7250  176.3720  145.8180 C   0  0  0  0  0  0  0  0  0  0  0  0
  191.9170  176.0680  146.9180 C   0  0  0  0  0  3  0  0  0  0  0  0
  185.9160  177.7230  148.1110 O   0  0  0  0  0  0  0  0  0  0  0  0
  187.8600  177.4250  146.9910 N   0  0  0  0  0  0  0  0  0  0  0  0
  185.9020  178.1510  145.8380 C   0  0  1  0  0  3  0  0  0  0  0  0
  187.9560  177.8320  144.6750 N   0  0  0  0  0  0  0  0  0  0  0  0
  184.4600  178.5330  145.8160 C   0  0  0  0  0  1  0  0  0  0  0  0
  188.5720  177.4560  145.8300 C   0  0  0  0  0  0  0  0  0  0  0  0
  186.6430  178.1780  144.6600 C   0  0  0  0  0  3  0  0  0  0  0  0
  186.5440  177.7630  147.0200 C   0  0  0  0  0  0  0  0  0  0  0  0
  194.4520  174.5120  145.3840 C   0  0  2  0  0  3  0  0  0  0  0  0
  194.1710  175.9350  145.8520 C   0  0  1  0  0  3  0  0  0  0  0  0
  195.0440  176.4710  144.7240 C   0  0  1  0  0  3  0  0  0  0  0  0
  195.3530  175.0780  144.2950 C   0  0  2  0  0  3  0  0  0  0  0  0
  194.6250  175.9620  143.4790 O   0  0  0  0  0  0  0  0  0  0  0  0
  193.3320  173.8930  144.8070 O   0  0  0  0  0  0  0  0  0  0  0  0
  192.8540  171.5780  144.0670 C   0  0  0  0  0  2  0  0  0  0  0  0
  194.4820  170.6360  145.5380 C   0  0  0  0  0  3  0  0  0  0  0  0
  193.4630  170.2480  144.5100 C   0  0  2  0  0  3  0  0  0  0  0  0
  194.1030  169.6480  143.4250 O   0  0  0  0  0  1  0  0  0  0  0  0
  194.5390  171.9480  145.6670 C   0  0  0  0  0  3  0  0  0  0  0  0
  193.6220  172.5710  144.7890 N   0  0  0  0  0  0  0  0  0  0  0  0
  1  4  2  0  0  0  0
  1  5  1  0  0  0  0
  3 12  1  0  0  0  0
  3  2  2  0  0  0  0
  4  3  1  0  0  0  0
  5  6  2  0  0  0  0
  6  2  1  0  0  0  0
  8 14  1  0  0  0  0
  9 11  1  1  0  0  0
  9 14  1  0  0  0  0
 10 12  1  0  0  0  0
 12  8  2  0  0  0  0
 13 10  2  0  0  0  0
 13  9  1  0  0  0  0
 14  7  2  0  0  0  0
 15 20  1  6  0  0  0
 15 16  1  0  0  0  0
 16  5  1  6  0  0  0
 17 19  1  6  0  0  0
 17 16  1  0  0  0  0
 18 19  1  6  0  0  0
 18 17  1  0  0  0  0
 18 15  1  0  0  0  0
 21 23  1  0  0  0  0
 21 26  1  0  0  0  0
 22 25  2  0  0  0  0
 23 24  1  6  0  0  0
 23 22  1  0  0  0  0
 26 20  1  0  0  0  0
 26 25  1  0  0  0  0
M  END
>  <MODEL>
4

>  <REMARK>
 VINA RESULT:      -6.9      2.968      8.727
  Name = 
  4 active torsions:
  status: ('A' for Active; 'I' for Inactive)
    1  A    between atoms: C_10  and  O_25
    2  A    between atoms: C_11  and  C_14
    3  A    between atoms: C_13  and  C_18
    4  A    between atoms: N_22  and  O_25
                            x       y       z     vdW  Elec       q    Type
                         _______ _______ _______ _____ _____    ______ ____

>  <TORSDO>
F 4

$$$$
=
 OpenBabel11072408483D

 26 30  0  0  1  0  0  0  0  0999 V2000
  192.7050  175.7960  146.7740 C   0  0  0  0  0  3  0  0  0  0  0  0
  191.3800  177.1650  144.7320 C   0  0  0  0  0  3  0  0  0  0  0  0
  190.6450  176.6470  145.8090 C   0  0  0  0  0  0  0  0  0  0  0  0
  191.3190  175.9630  146.8290 C   0  0  0  0  0  3  0  0  0  0  0  0
  193.4390  176.3100  145.6920 C   0  0  0  0  0  0  0  0  0  0  0  0
  192.7670  176.9980  144.6770 C   0  0  0  0  0  3  0  0  0  0  0  0
  186.6310  178.3970  144.0380 O   0  0  0  0  0  0  0  0  0  0  0  0
  188.5400  177.5470  144.9080 N   0  0  0  0  0  0  0  0  0  0  0  0
  186.4450  177.1560  145.9800 C   0  0  2  0  0  3  0  0  0  0  0  0
  188.4640  176.2680  146.8820 N   0  0  0  0  0  0  0  0  0  0  0  0
  184.9650  177.3200  146.0640 C   0  0  0  0  0  1  0  0  0  0  0  0
  189.1820  176.8240  145.8680 C   0  0  0  0  0  0  0  0  0  0  0  0
  187.1160  176.4200  146.9540 C   0  0  0  0  0  3  0  0  0  0  0  0
  187.1930  177.7240  144.9420 C   0  0  0  0  0  0  0  0  0  0  0  0
  195.4860  174.8020  145.2800 C   0  0  2  0  0  3  0  0  0  0  0  0
  194.9430  176.1900  145.5980 C   0  0  1  0  0  3  0  0  0  0  0  0
  195.5630  176.7190  144.3100 C   0  0  1  0  0  3  0  0  0  0  0  0
  196.1310  175.3720  144.0240 C   0  0  2  0  0  3  0  0  0  0  0  0
  195.1500  175.9550  143.2020 O   0  0  0  0  0  0  0  0  0  0  0  0
  194.4810  173.8860  144.9310 O   0  0  0  0  0  0  0  0  0  0  0  0
  194.1730  171.4750  145.4100 C   0  0  0  0  0  2  0  0  0  0  0  0
  196.4370  171.1970  146.1190 C   0  0  0  0  0  3  0  0  0  0  0  0
  195.1590  170.4350  145.9410 C   0  0  2  0  0  3  0  0  0  0  0  0
  195.3420  169.4380  144.9820 O   0  0  0  0  0  1  0  0  0  0  0  0
  196.2930  172.4470  145.7210 C   0  0  0  0  0  3  0  0  0  0  0  0
  194.9790  172.6680  145.2500 N   0  0  0  0  0  0  0  0  0  0  0  0
  1  4  1  0  0  0  0
  2  3  1  0  0  0  0
  3 12  1  0  0  0  0
  3  4  2  0  0  0  0
  5  1  2  0  0  0  0
  6  2  2  0  0  0  0
  6  5  1  0  0  0  0
  7 14  2  0  0  0  0
  8 14  1  0  0  0  0
  8 12  2  0  0  0  0
  9 11  1  1  0  0  0
  9 13  1  0  0  0  0
 10 13  2  0  0  0  0
 12 10  1  0  0  0  0
 14  9  1  0  0  0  0
 15 20  1  6  0  0  0
 15 16  1  0  0  0  0
 16  5  1  6  0  0  0
 17 19  1  6  0  0  0
 17 16  1  0  0  0  0
 18 19  1  6  0  0  0
 18 17  1  0  0  0  0
 18 15  1  0  0  0  0
 20 26  1  0  0  0  0
 21 23  1  0  0  0  0
 23 24  1  6  0  0  0
 23 22  1  0  0  0  0
 25 22  2  0  0  0  0
 26 21  1  0  0  0  0
 26 25  1  0  0  0  0
M  END
>  <MODEL>
5

>  <REMARK>
 VINA RESULT:      -6.8      2.799      9.200
  Name = 
  4 active torsions:
  status: ('A' for Active; 'I' for Inactive)
    1  A    between atoms: C_10  and  O_25
    2  A    between atoms: C_11  and  C_14
    3  A    between atoms: C_13  and  C_18
    4  A    between atoms: N_22  and  O_25
                            x       y       z     vdW  Elec       q    Type
                         _______ _______ _______ _____ _____    ______ ____

>  <TORSDO>
F 4

$$$$
=
 OpenBabel11072408483D

 26 30  0  0  1  0  0  0  0  0999 V2000
  189.2440  174.9020  144.3230 C   0  0  0  0  0  3  0  0  0  0  0  0
  191.5440  175.8070  143.0210 C   0  0  0  0  0  3  0  0  0  0  0  0
  191.6670  175.0050  144.1650 C   0  0  0  0  0  0  0  0  0  0  0  0
  190.5060  174.5540  144.8110 C   0  0  0  0  0  3  0  0  0  0  0  0
  189.1230  175.7110  143.1800 C   0  0  0  0  0  0  0  0  0  0  0  0
  190.2810  176.1550  142.5330 C   0  0  0  0  0  3  0  0  0  0  0  0
  194.7100  171.7770  145.7870 O   0  0  0  0  0  0  0  0  0  0  0  0
  193.2710  173.3440  145.0130 N   0  0  0  0  0  0  0  0  0  0  0  0
  195.4910  173.9490  145.6430 C   0  0  2  0  0  3  0  0  0  0  0  0
  193.9640  175.5850  144.8270 N   0  0  0  0  0  0  0  0  0  0  0  0
  196.8460  173.6040  146.1610 C   0  0  0  0  0  1  0  0  0  0  0  0
  192.9980  174.6370  144.6790 C   0  0  0  0  0  0  0  0  0  0  0  0
  195.1970  175.2660  145.2990 C   0  0  0  0  0  3  0  0  0  0  0  0
  194.4910  172.9810  145.4890 C   0  0  0  0  0  0  0  0  0  0  0  0
  187.0070  177.1720  143.3260 C   0  0  2  0  0  3  0  0  0  0  0  0
  187.7850  176.0890  142.5880 C   0  0  1  0  0  3  0  0  0  0  0  0
  187.8420  176.9810  141.3540 C   0  0  1  0  0  3  0  0  0  0  0  0
  187.0450  178.0200  142.0620 C   0  0  2  0  0  3  0  0  0  0  0  0
  188.3760  178.2450  141.6720 O   0  0  0  0  0  0  0  0  0  0  0  0
  187.7560  177.7890  144.3410 O   0  0  0  0  0  0  0  0  0  0  0  0
  186.0140  178.9190  145.6930 C   0  0  0  0  0  2  0  0  0  0  0  0
  186.2290  177.3690  147.4970 C   0  0  0  0  0  3  0  0  0  0  0  0
  185.4680  178.5920  147.0830 C   0  0  2  0  0  3  0  0  0  0  0  0
  184.1110  178.2840  146.9870 O   0  0  0  0  0  1  0  0  0  0  0  0
  187.0430  176.9770  146.5350 C   0  0  0  0  0  3  0  0  0  0  0  0
  186.9330  177.8350  145.4160 N   0  0  0  0  0  0  0  0  0  0  0  0
  1  4  1  0  0  0  0
  2  3  1  0  0  0  0
  3 12  1  0  0  0  0
  3  4  2  0  0  0  0
  5  1  2  0  0  0  0
  6  2  2  0  0  0  0
  6  5  1  0  0  0  0
  8 14  1  0  0  0  0
  9 11  1  1  0  0  0
 10 13  2  0  0  0  0
 12 10  1  0  0  0  0
 12  8  2  0  0  0  0
 13  9  1  0  0  0  0
 14  9  1  0  0  0  0
 14  7  2  0  0  0  0
 15 20  1  1  0  0  0
 16  5  1  1  0  0  0
 16 15  1  0  0  0  0
 17 19  1  1  0  0  0
 17 18  1  0  0  0  0
 17 16  1  0  0  0  0
 18 19  1  1  0  0  0
 18 15  1  0  0  0  0
 20 26  1  0  0  0  0
 21 23  1  0  0  0  0
 23 24  1  6  0  0  0
 23 22  1  0  0  0  0
 25 22  2  0  0  0  0
 26 21  1  0  0  0  0
 26 25  1  0  0  0  0
M  END
>  <MODEL>
6

>  <REMARK>
 VINA RESULT:      -6.8      2.147      4.359
  Name = 
  4 active torsions:
  status: ('A' for Active; 'I' for Inactive)
    1  A    between atoms: C_10  and  O_25
    2  A    between atoms: C_11  and  C_14
    3  A    between atoms: C_13  and  C_18
    4  A    between atoms: N_22  and  O_25
                            x       y       z     vdW  Elec       q    Type
                         _______ _______ _______ _____ _____    ______ ____

>  <TORSDO>
F 4

$$$$
=
 OpenBabel11072408483D

 26 30  0  0  1  0  0  0  0  0999 V2000
  191.5990  176.4150  146.7420 C   0  0  0  0  0  3  0  0  0  0  0  0
  189.6750  175.4950  144.9400 C   0  0  0  0  0  3  0  0  0  0  0  0
  189.3350  176.4920  145.8660 C   0  0  0  0  0  0  0  0  0  0  0  0
  190.3080  176.9480  146.7660 C   0  0  0  0  0  3  0  0  0  0  0  0
  191.9370  175.4120  145.8180 C   0  0  0  0  0  0  0  0  0  0  0  0
  190.9670  174.9610  144.9170 C   0  0  0  0  0  3  0  0  0  0  0  0
  185.9820  179.2480  144.0030 O   0  0  0  0  0  0  0  0  0  0  0  0
  187.5710  177.9200  144.9170 N   0  0  0  0  0  0  0  0  0  0  0  0
  185.4230  178.1100  145.9360 C   0  0  1  0  0  3  0  0  0  0  0  0
  187.1070  176.7160  146.8850 N   0  0  0  0  0  0  0  0  0  0  0  0
  184.0400  178.6640  145.9840 C   0  0  0  0  0  1  0  0  0  0  0  0
  187.9730  177.0550  145.8900 C   0  0  0  0  0  0  0  0  0  0  0  0
  185.8480  177.2240  146.9240 C   0  0  0  0  0  3  0  0  0  0  0  0
  186.3210  178.4520  144.9180 C   0  0  0  0  0  0  0  0  0  0  0  0
  194.0870  175.1070  144.4340 C   0  0  2  0  0  3  0  0  0  0  0  0
  193.3270  174.8260  145.7250 C   0  0  1  0  0  3  0  0  0  0  0  0
  194.4040  175.5630  146.5110 C   0  0  1  0  0  3  0  0  0  0  0  0
  195.1670  175.7980  145.2540 C   0  0  2  0  0  3  0  0  0  0  0  0
  194.6090  176.8560  145.9920 O   0  0  0  0  0  0  0  0  0  0  0  0
  193.4400  176.0390  143.6080 O   0  0  0  0  0  0  0  0  0  0  0  0
  193.3800  174.4140  141.7390 C   0  0  0  0  0  2  0  0  0  0  0  0
  194.9320  175.6700  140.4290 C   0  0  0  0  0  3  0  0  0  0  0  0
  194.1170  174.4120  140.4010 C   0  0  2  0  0  3  0  0  0  0  0  0
  193.1910  174.4820  139.3600 O   0  0  0  0  0  1  0  0  0  0  0  0
  194.7020  176.3500  141.5360 C   0  0  0  0  0  3  0  0  0  0  0  0
  193.7550  175.6760  142.3420 N   0  0  0  0  0  0  0  0  0  0  0  0
  1  4  1  0  0  0  0
  2  3  1  0  0  0  0
  3 12  1  0  0  0  0
  3  4  2  0  0  0  0
  5  1  2  0  0  0  0
  6  2  2  0  0  0  0
  6  5  1  0  0  0  0
  7 14  2  0  0  0  0
  8 14  1  0  0  0  0
  8 12  2  0  0  0  0
  9 11  1  6  0  0  0
  9 13  1  0  0  0  0
 10 13  2  0  0  0  0
 12 10  1  0  0  0  0
 14  9  1  0  0  0  0
 15 20  1  6  0  0  0
 15 18  1  0  0  0  0
 15 16  1  0  0  0  0
 16  5  1  6  0  0  0
 16 17  1  0  0  0  0
 17 19  1  6  0  0  0
 18 19  1  6  0  0  0
 18 17  1  0  0  0  0
 21 26  1  0  0  0  0
 22 25  2  0  0  0  0
 23 24  1  6  0  0  0
 23 22  1  0  0  0  0
 23 21  1  0  0  0  0
 25 26  1  0  0  0  0
 26 20  1  0  0  0  0
M  END
>  <MODEL>
7

>  <REMARK>
 VINA RESULT:      -6.7      3.054      7.948
  Name = 
  4 active torsions:
  status: ('A' for Active; 'I' for Inactive)
    1  A    between atoms: C_10  and  O_25
    2  A    between atoms: C_11  and  C_14
    3  A    between atoms: C_13  and  C_18
    4  A    between atoms: N_22  and  O_25
                            x       y       z     vdW  Elec       q    Type
                         _______ _______ _______ _____ _____    ______ ____

>  <TORSDO>
F 4

$$$$
=
 OpenBabel11072408483D

 26 30  0  0  1  0  0  0  0  0999 V2000
  190.1760  174.7310  146.3000 C   0  0  0  0  0  3  0  0  0  0  0  0
  190.0610  177.4040  145.4990 C   0  0  0  0  0  3  0  0  0  0  0  0
  188.8810  176.6490  145.5590 C   0  0  0  0  0  0  0  0  0  0  0  0
  188.9490  175.3080  145.9630 C   0  0  0  0  0  3  0  0  0  0  0  0
  191.3570  175.4880  146.2340 C   0  0  0  0  0  0  0  0  0  0  0  0
  191.2890  176.8270  145.8360 C   0  0  0  0  0  3  0  0  0  0  0  0
  184.3340  177.5080  146.5080 O   0  0  0  0  0  0  0  0  0  0  0  0
  186.5110  177.1110  146.0290 N   0  0  0  0  0  0  0  0  0  0  0  0
  185.1620  178.3970  144.5400 C   0  0  1  0  0  3  0  0  0  0  0  0
  187.4540  177.9700  144.0520 N   0  0  0  0  0  0  0  0  0  0  0  0
  183.8640  179.0240  144.1580 C   0  0  0  0  0  1  0  0  0  0  0  0
  187.5860  177.2580  145.2050 C   0  0  0  0  0  0  0  0  0  0  0  0
  186.2700  178.5390  143.7080 C   0  0  0  0  0  3  0  0  0  0  0  0
  185.3070  177.6630  145.7230 C   0  0  0  0  0  0  0  0  0  0  0  0
  193.3710  174.0150  145.5950 C   0  0  2  0  0  3  0  0  0  0  0  0
  192.7070  174.9260  146.6200 C   0  0  1  0  0  3  0  0  0  0  0  0
  193.8770  175.8950  146.5070 C   0  0  1  0  0  3  0  0  0  0  0  0
  194.5460  174.9820  145.5390 C   0  0  2  0  0  3  0  0  0  0  0  0
  194.0980  176.2620  145.1650 O   0  0  0  0  0  0  0  0  0  0  0  0
  192.7030  173.9980  144.3610 O   0  0  0  0  0  0  0  0  0  0  0  0
  193.5870  171.6960  144.1210 C   0  0  0  0  0  2  0  0  0  0  0  0
  191.5850  170.8980  143.0920 C   0  0  0  0  0  3  0  0  0  0  0  0
  192.9460  170.4430  143.5250 C   0  0  2  0  0  3  0  0  0  0  0  0
  192.8180  169.4710  144.5170 O   0  0  0  0  0  1  0  0  0  0  0  0
  191.3930  172.1640  143.4100 C   0  0  0  0  0  3  0  0  0  0  0  0
  192.5330  172.6880  144.0630 N   0  0  0  0  0  0  0  0  0  0  0  0
  2  3  2  0  0  0  0
  2  6  1  0  0  0  0
  3  4  1  0  0  0  0
  4  1  2  0  0  0  0
  5  1  1  0  0  0  0
  6  5  2  0  0  0  0
  9 11  1  1  0  0  0
  9 14  1  0  0  0  0
 10 12  1  0  0  0  0
 12  3  1  0  0  0  0
 12  8  2  0  0  0  0
 13 10  2  0  0  0  0
 13  9  1  0  0  0  0
 14  8  1  0  0  0  0
 14  7  2  0  0  0  0
 15 20  1  6  0  0  0
 15 16  1  0  0  0  0
 16  5  1  6  0  0  0
 17 19  1  6  0  0  0
 17 16  1  0  0  0  0
 18 19  1  6  0  0  0
 18 15  1  0  0  0  0
 18 17  1  0  0  0  0
 22 25  2  0  0  0  0
 22 23  1  0  0  0  0
 23 21  1  0  0  0  0
 23 24  1  1  0  0  0
 25 26  1  0  0  0  0
 26 21  1  0  0  0  0
 26 20  1  0  0  0  0
M  END
>  <MODEL>
8

>  <REMARK>
 VINA RESULT:      -6.6      2.283      8.185
  Name = 
  4 active torsions:
  status: ('A' for Active; 'I' for Inactive)
    1  A    between atoms: C_10  and  O_25
    2  A    between atoms: C_11  and  C_14
    3  A    between atoms: C_13  and  C_18
    4  A    between atoms: N_22  and  O_25
                            x       y       z     vdW  Elec       q    Type
                         _______ _______ _______ _____ _____    ______ ____

>  <TORSDO>
F 4

$$$$
=
 OpenBabel11072408483D

 26 30  0  0  1  0  0  0  0  0999 V2000
  189.4070  176.6420  142.3740 C   0  0  0  0  0  3  0  0  0  0  0  0
  189.7280  174.8610  144.5010 C   0  0  0  0  0  3  0  0  0  0  0  0
  190.8490  175.5160  143.9720 C   0  0  0  0  0  0  0  0  0  0  0  0
  190.6780  176.4090  142.9050 C   0  0  0  0  0  3  0  0  0  0  0  0
  188.2850  175.9800  142.9010 C   0  0  0  0  0  0  0  0  0  0  0  0
  188.4560  175.0940  143.9690 C   0  0  0  0  0  3  0  0  0  0  0  0
  194.5670  176.9210  146.5250 O   0  0  0  0  0  0  0  0  0  0  0  0
  192.7980  176.2230  145.2960 N   0  0  0  0  0  0  0  0  0  0  0  0
  194.7010  174.8140  145.5820 C   0  0  1  0  0  3  0  0  0  0  0  0
  192.8320  174.0950  144.2920 N   0  0  0  0  0  0  0  0  0  0  0  0
  196.0580  174.5400  146.1380 C   0  0  0  0  0  1  0  0  0  0  0  0
  192.1900  175.2720  144.5330 C   0  0  0  0  0  0  0  0  0  0  0  0
  194.0670  173.8510  144.8010 C   0  0  0  0  0  3  0  0  0  0  0  0
  194.0340  176.0200  145.8240 C   0  0  0  0  0  0  0  0  0  0  0  0
  186.1010  177.3330  143.0760 C   0  0  2  0  0  3  0  0  0  0  0  0
  186.8830  176.2200  142.3890 C   0  0  1  0  0  3  0  0  0  0  0  0
  186.7880  176.9760  141.0700 C   0  0  1  0  0  3  0  0  0  0  0  0
  185.9850  178.0420  141.7330 C   0  0  2  0  0  3  0  0  0  0  0  0
  187.2650  178.2940  141.2100 O   0  0  0  0  0  0  0  0  0  0  0  0
  186.8870  178.0950  143.9550 O   0  0  0  0  0  0  0  0  0  0  0  0
  186.4940  177.1230  146.2000 C   0  0  0  0  0  2  0  0  0  0  0  0
  184.5260  178.4280  146.5600 C   0  0  0  0  0  3  0  0  0  0  0  0
  185.3850  177.3890  147.2170 C   0  0  2  0  0  3  0  0  0  0  0  0
  185.9410  177.9160  148.3820 O   0  0  0  0  0  1  0  0  0  0  0  0
  185.0320  178.7820  145.3940 C   0  0  0  0  0  3  0  0  0  0  0  0
  186.2280  178.0710  145.1380 N   0  0  0  0  0  0  0  0  0  0  0  0
  1  5  2  0  0  0  0
  1  4  1  0  0  0  0
  3  2  1  0  0  0  0
  3 12  1  0  0  0  0
  4  3  2  0  0  0  0
  5  6  1  0  0  0  0
  6  2  2  0  0  0  0
  8 14  1  0  0  0  0
  9 14  1  0  0  0  0
  9 11  1  1  0  0  0
 10 12  1  0  0  0  0
 10 13  2  0  0  0  0
 12  8  2  0  0  0  0
 13  9  1  0  0  0  0
 14  7  2  0  0  0  0
 15 20  1  1  0  0  0
 16  5  1  1  0  0  0
 16 15  1  0  0  0  0
 17 19  1  1  0  0  0
 17 18  1  0  0  0  0
 17 16  1  0  0  0  0
 18 19  1  1  0  0  0
 18 15  1  0  0  0  0
 20 26  1  0  0  0  0
 21 23  1  0  0  0  0
 22 23  1  0  0  0  0
 23 24  1  1  0  0  0
 25 22  2  0  0  0  0
 26 25  1  0  0  0  0
 26 21  1  0  0  0  0
M  END
>  <MODEL>
9

>  <REMARK>
 VINA RESULT:      -6.5      1.854      4.106
  Name = 
  4 active torsions:
  status: ('A' for Active; 'I' for Inactive)
    1  A    between atoms: C_10  and  O_25
    2  A    between atoms: C_11  and  C_14
    3  A    between atoms: C_13  and  C_18
    4  A    between atoms: N_22  and  O_25
                            x       y       z     vdW  Elec       q    Type
                         _______ _______ _______ _____ _____    ______ ____

>  <TORSDO>
F 4

$$$$
