=
 OpenBabel11062419083D

 32 35  0  0  1  0  0  0  0  0999 V2000
  186.3010  176.8930  147.1240 C   0  0  0  0  0  2  0  0  0  0  0  0
  187.8270  177.4780  145.1660 C   0  0  2  0  0  3  0  0  0  0  0  0
  188.4560  177.5670  142.8670 N   0  0  0  0  0  2  0  0  0  0  0  0
  186.3530  178.3820  147.4520 C   0  0  0  0  0  2  0  0  0  0  0  0
  187.0920  178.0870  142.9620 C   0  0  2  0  0  3  0  0  0  0  0  0
  187.4890  176.4620  146.2580 C   0  0  0  0  0  2  0  0  0  0  0  0
  185.9450  179.0890  145.0010 C   0  0  0  0  0  0  0  0  0  0  0  0
  186.6020  177.8750  144.3920 C   0  0  2  0  0  3  0  0  0  0  0  0
  185.5030  180.0030  144.2550 O   0  0  0  0  0  0  0  0  0  0  0  0
  185.7010  179.1800  146.4150 N   0  0  0  0  0  2  0  0  0  0  0  0
  188.7490  176.8960  144.1290 C   0  0  1  0  0  3  0  0  0  0  0  0
  186.1860  177.3500  141.9760 C   0  0  2  0  0  3  0  0  0  0  0  0
  186.9530  176.6140  141.0720 O   0  0  0  0  0  1  0  0  0  0  0  0
  185.3180  178.3300  141.2070 C   0  0  0  0  0  2  0  0  0  0  0  0
  183.9480  178.2510  141.6830 N   0  0  0  0  0  2  0  0  0  0  0  0
  183.0870  178.2120  140.5120 C   0  0  0  0  0  2  0  0  0  0  0  0
  181.6260  178.1700  140.9320 C   0  0  0  0  0  2  0  0  0  0  0  0
  179.6460  179.1380  140.7880 C   0  0  0  0  0  1  0  0  0  0  0  0
  181.0100  179.3880  140.6440 O   0  0  0  0  0  0  0  0  0  0  0  0
  190.1960  177.1330  144.5320 C   0  0  0  0  0  2  0  0  0  0  0  0
  192.6040  176.4220  146.5290 C   0  0  0  0  0  3  0  0  0  0  0  0
  190.9490  175.8130  144.6400 C   0  0  2  0  0  3  0  0  0  0  0  0
  193.3490  175.7860  144.4880 C   0  0  0  0  0  0  0  0  0  0  0  0
  193.3770  174.0260  142.9290 O   0  0  0  0  0  1  0  0  0  0  0  0
  194.1180  176.4510  146.5470 C   0  0  0  0  0  2  0  0  0  0  0  0
  192.2440  176.0350  145.3170 C   0  0  0  0  0  0  0  0  0  0  0  0
  190.7040  175.0540  142.3700 O   0  0  0  0  0  0  0  0  0  0  0  0
  192.9610  175.3420  143.1310 C   0  0  1  0  0  3  0  0  0  0  0  0
  194.4690  176.0240  145.1460 C   0  0  0  0  0  0  0  0  0  0  0  0
  191.4540  175.3780  143.2770 C   0  0  0  0  0  0  0  0  0  0  0  0
  195.7760  175.9140  144.6620 O   0  0  0  0  0  0  0  0  0  0  0  0
  196.2730  176.6980  143.5860 C   0  0  0  0  0  1  0  0  0  0  0  0
  1  4  1  0  0  0  0
  2  6  1  1  0  0  0
  3  5  1  0  0  0  0
  3 11  1  0  0  0  0
  5 12  1  6  0  0  0
  5  8  1  0  0  0  0
  6  1  1  0  0  0  0
  7 10  1  0  0  0  0
  8  7  1  1  0  0  0
  8  2  1  0  0  0  0
  9  7  2  0  0  0  0
 10  4  1  0  0  0  0
 11 20  1  1  0  0  0
 11  2  1  0  0  0  0
 12 13  1  6  0  0  0
 14 15  1  0  0  0  0
 14 12  1  0  0  0  0
 16 17  1  0  0  0  0
 16 15  1  0  0  0  0
 19 18  1  0  0  0  0
 19 17  1  0  0  0  0
 21 25  1  0  0  0  0
 22 20  1  6  0  0  0
 22 26  1  0  0  0  0
 23 29  2  0  0  0  0
 23 26  1  0  0  0  0
 26 21  2  0  0  0  0
 27 30  2  0  0  0  0
 28 24  1  1  0  0  0
 28 30  1  0  0  0  0
 28 23  1  0  0  0  0
 29 25  1  0  0  0  0
 30 22  1  0  0  0  0
 31 29  1  0  0  0  0
 32 31  1  0  0  0  0
M  END
>  <MODEL>
1

>  <REMARK>
 VINA RESULT:      -7.6      0.000      0.000
  Name = 
  9 active torsions:
  status: ('A' for Active; 'I' for Inactive)
    1  A    between atoms: O_2  and  C_30
    2  A    between atoms: C_7  and  N_24
    3  A    between atoms: C_7  and  C_29
    4  A    between atoms: O_8  and  C_20
    5  A    between atoms: C_11  and  C_19
    6  A    between atoms: C_13  and  C_29
    7  A    between atoms: C_16  and  C_20
    8  A    between atoms: C_16  and  N_24
    9  A    between atoms: C_19  and  C_28
                            x       y       z     vdW  Elec       q    Type
                         _______ _______ _______ _____ _____    ______ ____

>  <TORSDO>
F 9

$$$$
=
 OpenBabel11062419083D

 32 35  0  0  1  0  0  0  0  0999 V2000
  184.7600  177.4290  146.7160 C   0  0  0  0  0  2  0  0  0  0  0  0
  186.3600  177.1560  144.7490 C   0  0  2  0  0  3  0  0  0  0  0  0
  186.9350  176.9310  142.4450 N   0  0  0  0  0  2  0  0  0  0  0  0
  185.5810  178.6680  147.0560 C   0  0  0  0  0  2  0  0  0  0  0  0
  186.0420  178.0850  142.5560 C   0  0  2  0  0  3  0  0  0  0  0  0
  185.5460  176.4520  145.8350 C   0  0  0  0  0  2  0  0  0  0  0  0
  185.5930  179.5130  144.6150 C   0  0  0  0  0  0  0  0  0  0  0  0
  185.5190  178.1420  143.9890 C   0  0  2  0  0  3  0  0  0  0  0  0
  185.6900  180.5330  143.8810 O   0  0  0  0  0  0  0  0  0  0  0  0
  185.4380  179.7020  146.0310 N   0  0  0  0  0  2  0  0  0  0  0  0
  186.8390  176.1900  143.6980 C   0  0  1  0  0  3  0  0  0  0  0  0
  184.8810  177.9400  141.5730 C   0  0  2  0  0  3  0  0  0  0  0  0
  185.0620  178.7920  140.4830 O   0  0  0  0  0  1  0  0  0  0  0  0
  183.5610  178.2700  142.2480 C   0  0  0  0  0  2  0  0  0  0  0  0
  182.4870  178.2320  141.2710 N   0  0  0  0  0  2  0  0  0  0  0  0
  181.3480  178.9170  141.8580 C   0  0  0  0  0  2  0  0  0  0  0  0
  180.2790  179.1630  140.8030 C   0  0  0  0  0  2  0  0  0  0  0  0
  178.8970  177.6440  141.6160 C   0  0  0  0  0  1  0  0  0  0  0  0
  179.6400  177.9650  140.4810 O   0  0  0  0  0  0  0  0  0  0  0  0
  188.1990  175.6330  144.0900 C   0  0  0  0  0  2  0  0  0  0  0  0
  190.5920  177.6750  143.4610 C   0  0  0  0  0  3  0  0  0  0  0  0
  188.9010  176.5640  145.0690 C   0  0  2  0  0  3  0  0  0  0  0  0
  191.2980  176.5070  145.2680 C   0  0  0  0  0  0  0  0  0  0  0  0
  191.2470  176.4090  147.6170 O   0  0  0  0  0  1  0  0  0  0  0  0
  192.1060  177.6980  143.4790 C   0  0  0  0  0  3  0  0  0  0  0  0
  190.2090  176.9730  144.5140 C   0  0  1  0  0  3  0  0  0  0  0  0
  188.6110  175.2780  147.0820 O   0  0  0  0  0  0  0  0  0  0  0  0
  190.8830  175.7270  146.4550 C   0  0  1  0  0  3  0  0  0  0  0  0
  192.4300  176.8880  144.7070 C   0  0  0  0  0  0  0  0  0  0  0  0
  189.3800  175.7910  146.2840 C   0  0  0  0  0  0  0  0  0  0  0  0
  193.7290  176.6060  145.1410 O   0  0  0  0  0  0  0  0  0  0  0  0
  194.5450  177.5530  145.8160 C   0  0  0  0  0  1  0  0  0  0  0  0
  1  4  1  0  0  0  0
  2  6  1  1  0  0  0
  3  5  1  0  0  0  0
  3 11  1  0  0  0  0
  5 12  1  6  0  0  0
  5  8  1  0  0  0  0
  6  1  1  0  0  0  0
  7 10  1  0  0  0  0
  8  7  1  1  0  0  0
  8  2  1  0  0  0  0
  9  7  2  0  0  0  0
 10  4  1  0  0  0  0
 11 20  1  1  0  0  0
 11  2  1  0  0  0  0
 12 13  1  6  0  0  0
 12 14  1  0  0  0  0
 15 16  1  0  0  0  0
 15 14  1  0  0  0  0
 17 16  1  0  0  0  0
 19 17  1  0  0  0  0
 19 18  1  0  0  0  0
 21 25  2  0  0  0  0
 22 20  1  6  0  0  0
 22 30  1  0  0  0  0
 23 28  1  0  0  0  0
 25 29  1  0  0  0  0
 26 21  1  6  0  0  0
 26 22  1  0  0  0  0
 26 23  1  0  0  0  0
 28 24  1  1  0  0  0
 29 31  1  0  0  0  0
 29 23  2  0  0  0  0
 30 28  1  0  0  0  0
 30 27  2  0  0  0  0
 31 32  1  0  0  0  0
M  END
>  <MODEL>
2

>  <REMARK>
 VINA RESULT:      -7.3      1.958      2.581
  Name = 
  9 active torsions:
  status: ('A' for Active; 'I' for Inactive)
    1  A    between atoms: O_2  and  C_30
    2  A    between atoms: C_7  and  N_24
    3  A    between atoms: C_7  and  C_29
    4  A    between atoms: O_8  and  C_20
    5  A    between atoms: C_11  and  C_19
    6  A    between atoms: C_13  and  C_29
    7  A    between atoms: C_16  and  C_20
    8  A    between atoms: C_16  and  N_24
    9  A    between atoms: C_19  and  C_28
                            x       y       z     vdW  Elec       q    Type
                         _______ _______ _______ _____ _____    ______ ____

>  <TORSDO>
F 9

$$$$
=
 OpenBabel11062419083D

 32 35  0  0  1  0  0  0  0  0999 V2000
  185.5890  177.1260  147.1760 C   0  0  0  0  0  2  0  0  0  0  0  0
  187.5670  177.5700  145.6290 C   0  0  2  0  0  3  0  0  0  0  0  0
  188.7620  177.4770  143.5670 N   0  0  0  0  0  2  0  0  0  0  0  0
  185.5650  178.6370  147.3800 C   0  0  0  0  0  2  0  0  0  0  0  0
  187.4220  177.9820  143.2670 C   0  0  2  0  0  3  0  0  0  0  0  0
  186.9550  176.6430  146.6800 C   0  0  0  0  0  2  0  0  0  0  0  0
  185.7990  179.1320  144.8550 C   0  0  0  0  0  0  0  0  0  0  0  0
  186.5830  177.8820  144.5380 C   0  0  2  0  0  3  0  0  0  0  0  0
  185.5680  179.9740  143.9470 O   0  0  0  0  0  0  0  0  0  0  0  0
  185.2040  179.3370  146.1470 N   0  0  0  0  0  2  0  0  0  0  0  0
  188.7200  176.9170  144.9130 C   0  0  1  0  0  3  0  0  0  0  0  0
  186.7930  177.1520  142.1480 C   0  0  2  0  0  3  0  0  0  0  0  0
  187.7850  176.5100  141.4060 O   0  0  0  0  0  1  0  0  0  0  0  0
  185.9710  178.0320  141.2230 C   0  0  0  0  0  2  0  0  0  0  0  0
  184.5630  177.9220  141.5630 N   0  0  0  0  0  2  0  0  0  0  0  0
  183.8080  178.4660  140.4470 C   0  0  0  0  0  2  0  0  0  0  0  0
  182.3720  177.9630  140.4850 C   0  0  0  0  0  2  0  0  0  0  0  0
  180.7100  179.3550  140.9030 C   0  0  0  0  0  1  0  0  0  0  0  0
  181.6790  178.5750  141.5310 O   0  0  0  0  0  0  0  0  0  0  0  0
  190.0170  177.2090  145.6500 C   0  0  0  0  0  2  0  0  0  0  0  0
  192.4350  176.6030  143.6300 C   0  0  0  0  0  3  0  0  0  0  0  0
  190.9290  175.9900  145.6380 C   0  0  2  0  0  3  0  0  0  0  0  0
  191.1940  174.7100  143.6190 C   0  0  0  0  0  0  0  0  0  0  0  0
  190.8410  172.6520  144.7020 O   0  0  0  0  0  1  0  0  0  0  0  0
  192.6720  175.8880  142.3160 C   0  0  0  0  0  3  0  0  0  0  0  0
  191.5770  175.8670  144.3150 C   0  0  1  0  0  3  0  0  0  0  0  0
  189.4090  174.3750  146.5720 O   0  0  0  0  0  0  0  0  0  0  0  0
  190.2420  173.8700  144.3790 C   0  0  1  0  0  3  0  0  0  0  0  0
  191.7910  174.6740  142.4420 C   0  0  0  0  0  0  0  0  0  0  0  0
  190.1080  174.7130  145.6300 C   0  0  0  0  0  0  0  0  0  0  0  0
  191.6520  173.6980  141.4510 O   0  0  0  0  0  0  0  0  0  0  0  0
  190.5020  173.5890  140.6240 C   0  0  0  0  0  1  0  0  0  0  0  0
  1  4  1  0  0  0  0
  2  6  1  1  0  0  0
  3 11  1  0  0  0  0
  5 12  1  6  0  0  0
  5  3  1  0  0  0  0
  5  8  1  0  0  0  0
  6  1  1  0  0  0  0
  7 10  1  0  0  0  0
  8  7  1  1  0  0  0
  8  2  1  0  0  0  0
  9  7  2  0  0  0  0
 10  4  1  0  0  0  0
 11  2  1  0  0  0  0
 11 20  1  1  0  0  0
 12 13  1  6  0  0  0
 14 15  1  0  0  0  0
 14 12  1  0  0  0  0
 16 17  1  0  0  0  0
 16 15  1  0  0  0  0
 17 19  1  0  0  0  0
 18 19  1  0  0  0  0
 22 20  1  6  0  0  0
 23 26  1  0  0  0  0
 23 28  1  0  0  0  0
 25 29  1  0  0  0  0
 25 21  2  0  0  0  0
 26 21  1  6  0  0  0
 26 22  1  0  0  0  0
 28 24  1  1  0  0  0
 28 30  1  0  0  0  0
 29 23  2  0  0  0  0
 30 22  1  0  0  0  0
 30 27  2  0  0  0  0
 31 29  1  0  0  0  0
 32 31  1  0  0  0  0
M  END
>  <MODEL>
3

>  <REMARK>
 VINA RESULT:      -7.2      1.727      2.502
  Name = 
  9 active torsions:
  status: ('A' for Active; 'I' for Inactive)
    1  A    between atoms: O_2  and  C_30
    2  A    between atoms: C_7  and  N_24
    3  A    between atoms: C_7  and  C_29
    4  A    between atoms: O_8  and  C_20
    5  A    between atoms: C_11  and  C_19
    6  A    between atoms: C_13  and  C_29
    7  A    between atoms: C_16  and  C_20
    8  A    between atoms: C_16  and  N_24
    9  A    between atoms: C_19  and  C_28
                            x       y       z     vdW  Elec       q    Type
                         _______ _______ _______ _____ _____    ______ ____

>  <TORSDO>
F 9

$$$$
=
 OpenBabel11062419083D

 32 35  0  0  1  0  0  0  0  0999 V2000
  185.3460  176.9340  146.8550 C   0  0  0  0  0  2  0  0  0  0  0  0
  187.5490  177.5170  145.7110 C   0  0  2  0  0  3  0  0  0  0  0  0
  189.0830  177.5980  143.8860 N   0  0  0  0  0  2  0  0  0  0  0  0
  185.2520  178.4240  147.1650 C   0  0  0  0  0  2  0  0  0  0  0  0
  187.8030  178.1120  143.3970 C   0  0  2  0  0  3  0  0  0  0  0  0
  186.7880  176.5050  146.5670 C   0  0  0  0  0  2  0  0  0  0  0  0
  185.9050  179.1180  144.7630 C   0  0  0  0  0  0  0  0  0  0  0  0
  186.7600  177.9040  144.4930 C   0  0  2  0  0  3  0  0  0  0  0  0
  185.8140  180.0260  143.8950 O   0  0  0  0  0  0  0  0  0  0  0  0
  185.0920  179.2150  145.9450 N   0  0  0  0  0  2  0  0  0  0  0  0
  188.8220  176.9340  145.1580 C   0  0  1  0  0  3  0  0  0  0  0  0
  187.3940  177.3660  142.1280 C   0  0  2  0  0  3  0  0  0  0  0  0
  186.6640  178.2060  141.2870 O   0  0  0  0  0  1  0  0  0  0  0  0
  186.5520  176.1490  142.4670 C   0  0  0  0  0  2  0  0  0  0  0  0
  187.3730  174.9520  142.4110 N   0  0  0  0  0  2  0  0  0  0  0  0
  188.2520  175.0870  141.2610 C   0  0  0  0  0  2  0  0  0  0  0  0
  189.1680  173.8770  141.1520 C   0  0  0  0  0  2  0  0  0  0  0  0
  188.5530  174.0820  139.0410 C   0  0  0  0  0  1  0  0  0  0  0  0
  189.6420  173.7530  139.8460 O   0  0  0  0  0  0  0  0  0  0  0  0
  189.9670  177.1800  146.1280 C   0  0  0  0  0  2  0  0  0  0  0  0
  192.7490  176.8700  144.5610 C   0  0  0  0  0  3  0  0  0  0  0  0
  190.9160  175.9890  146.1550 C   0  0  2  0  0  3  0  0  0  0  0  0
  191.6160  174.9680  144.0930 C   0  0  0  0  0  0  0  0  0  0  0  0
  191.1510  172.7880  144.8440 O   0  0  0  0  0  1  0  0  0  0  0  0
  193.2640  176.3240  143.2460 C   0  0  0  0  0  3  0  0  0  0  0  0
  191.8100  176.0400  144.9780 C   0  0  1  0  0  3  0  0  0  0  0  0
  189.3160  174.2440  146.5840 O   0  0  0  0  0  0  0  0  0  0  0  0
  190.5730  174.0240  144.5520 C   0  0  1  0  0  3  0  0  0  0  0  0
  192.4270  175.0860  143.0580 C   0  0  0  0  0  0  0  0  0  0  0  0
  190.1670  174.7070  145.8410 C   0  0  0  0  0  0  0  0  0  0  0  0
  192.5220  174.2340  141.9530 O   0  0  0  0  0  0  0  0  0  0  0  0
  193.2670  173.0240  141.9680 C   0  0  0  0  0  1  0  0  0  0  0  0
  1  4  1  0  0  0  0
  2  6  1  6  0  0  0
  3 11  1  0  0  0  0
  5 12  1  6  0  0  0
  5  3  1  0  0  0  0
  5  8  1  0  0  0  0
  6  1  1  0  0  0  0
  7 10  1  0  0  0  0
  8  7  1  1  0  0  0
  8  2  1  0  0  0  0
  9  7  2  0  0  0  0
 10  4  1  0  0  0  0
 11  2  1  0  0  0  0
 11 20  1  1  0  0  0
 12 13  1  6  0  0  0
 12 14  1  0  0  0  0
 15 14  1  0  0  0  0
 16 15  1  0  0  0  0
 17 16  1  0  0  0  0
 18 19  1  0  0  0  0
 19 17  1  0  0  0  0
 22 20  1  6  0  0  0
 23 28  1  0  0  0  0
 23 26  1  0  0  0  0
 25 21  2  0  0  0  0
 26 21  1  6  0  0  0
 26 22  1  0  0  0  0
 28 24  1  1  0  0  0
 28 30  1  0  0  0  0
 29 25  1  0  0  0  0
 29 23  2  0  0  0  0
 30 22  1  0  0  0  0
 30 27  2  0  0  0  0
 31 32  1  0  0  0  0
 31 29  1  0  0  0  0
M  END
>  <MODEL>
4

>  <REMARK>
 VINA RESULT:      -7.2      2.696      3.947
  Name = 
  9 active torsions:
  status: ('A' for Active; 'I' for Inactive)
    1  A    between atoms: O_2  and  C_30
    2  A    between atoms: C_7  and  N_24
    3  A    between atoms: C_7  and  C_29
    4  A    between atoms: O_8  and  C_20
    5  A    between atoms: C_11  and  C_19
    6  A    between atoms: C_13  and  C_29
    7  A    between atoms: C_16  and  C_20
    8  A    between atoms: C_16  and  N_24
    9  A    between atoms: C_19  and  C_28
                            x       y       z     vdW  Elec       q    Type
                         _______ _______ _______ _____ _____    ______ ____

>  <TORSDO>
F 9

$$$$
=
 OpenBabel11062419083D

 32 35  0  0  1  0  0  0  0  0999 V2000
  185.2510  176.9420  146.7040 C   0  0  0  0  0  2  0  0  0  0  0  0
  187.5030  177.5370  145.6650 C   0  0  2  0  0  3  0  0  0  0  0  0
  189.1220  177.6210  143.9150 N   0  0  0  0  0  2  0  0  0  0  0  0
  185.1310  178.4330  147.0020 C   0  0  0  0  0  2  0  0  0  0  0  0
  187.8630  178.1230  143.3630 C   0  0  2  0  0  3  0  0  0  0  0  0
  186.7090  176.5220  146.4890 C   0  0  0  0  0  2  0  0  0  0  0  0
  185.8950  179.1200  144.6310 C   0  0  0  0  0  0  0  0  0  0  0  0
  186.7710  177.9120  144.4080 C   0  0  2  0  0  3  0  0  0  0  0  0
  185.8390  180.0240  143.7550 O   0  0  0  0  0  0  0  0  0  0  0  0
  185.0250  179.2170  145.7710 N   0  0  0  0  0  2  0  0  0  0  0  0
  188.8060  176.9610  145.1770 C   0  0  1  0  0  3  0  0  0  0  0  0
  187.5220  177.3680  142.0790 C   0  0  2  0  0  3  0  0  0  0  0  0
  186.8880  178.2180  141.1720 O   0  0  0  0  0  1  0  0  0  0  0  0
  186.6110  176.1890  142.3750 C   0  0  0  0  0  2  0  0  0  0  0  0
  187.3940  174.9670  142.4360 N   0  0  0  0  0  2  0  0  0  0  0  0
  188.2440  174.9410  141.2580 C   0  0  0  0  0  2  0  0  0  0  0  0
  188.9400  173.5930  141.1390 C   0  0  0  0  0  2  0  0  0  0  0  0
  189.4740  172.0030  142.5750 C   0  0  0  0  0  1  0  0  0  0  0  0
  188.3820  172.6860  142.0410 O   0  0  0  0  0  0  0  0  0  0  0  0
  189.9010  177.2200  146.2000 C   0  0  0  0  0  2  0  0  0  0  0  0
  192.9620  176.8850  147.0980 C   0  0  0  0  0  3  0  0  0  0  0  0
  190.6240  175.9280  146.5540 C   0  0  2  0  0  3  0  0  0  0  0  0
  192.6830  175.3640  145.4450 C   0  0  0  0  0  0  0  0  0  0  0  0
  191.9950  173.1660  144.9680 O   0  0  0  0  0  1  0  0  0  0  0  0
  194.3130  176.6150  146.4690 C   0  0  0  0  0  2  0  0  0  0  0  0
  192.0850  176.1340  146.4550 C   0  0  0  0  0  0  0  0  0  0  0  0
  189.3620  174.4040  145.1850 O   0  0  0  0  0  0  0  0  0  0  0  0
  191.7130  174.5100  144.7220 C   0  0  1  0  0  3  0  0  0  0  0  0
  193.9790  175.6110  145.3970 C   0  0  0  0  0  0  0  0  0  0  0  0
  190.4450  174.9000  145.4510 C   0  0  0  0  0  0  0  0  0  0  0  0
  194.9150  175.0620  144.5160 O   0  0  0  0  0  0  0  0  0  0  0  0
  195.9950  175.8050  143.9690 C   0  0  0  0  0  1  0  0  0  0  0  0
  1  4  1  0  0  0  0
  2  6  1  6  0  0  0
  3 11  1  0  0  0  0
  5 12  1  6  0  0  0
  5  3  1  0  0  0  0
  5  8  1  0  0  0  0
  6  1  1  0  0  0  0
  7 10  1  0  0  0  0
  8  7  1  1  0  0  0
  8  2  1  0  0  0  0
  9  7  2  0  0  0  0
 10  4  1  0  0  0  0
 11  2  1  0  0  0  0
 11 20  1  1  0  0  0
 12 13  1  6  0  0  0
 12 14  1  0  0  0  0
 14 15  1  0  0  0  0
 16 15  1  0  0  0  0
 17 16  1  0  0  0  0
 17 19  1  0  0  0  0
 19 18  1  0  0  0  0
 22 20  1  6  0  0  0
 23 26  1  0  0  0  0
 25 21  1  0  0  0  0
 26 22  1  0  0  0  0
 26 21  2  0  0  0  0
 27 30  2  0  0  0  0
 28 24  1  1  0  0  0
 28 23  1  0  0  0  0
 28 30  1  0  0  0  0
 29 23  2  0  0  0  0
 29 25  1  0  0  0  0
 30 22  1  0  0  0  0
 31 29  1  0  0  0  0
 32 31  1  0  0  0  0
M  END
>  <MODEL>
5

>  <REMARK>
 VINA RESULT:      -7.1      2.557      3.747
  Name = 
  9 active torsions:
  status: ('A' for Active; 'I' for Inactive)
    1  A    between atoms: O_2  and  C_30
    2  A    between atoms: C_7  and  N_24
    3  A    between atoms: C_7  and  C_29
    4  A    between atoms: O_8  and  C_20
    5  A    between atoms: C_11  and  C_19
    6  A    between atoms: C_13  and  C_29
    7  A    between atoms: C_16  and  C_20
    8  A    between atoms: C_16  and  N_24
    9  A    between atoms: C_19  and  C_28
                            x       y       z     vdW  Elec       q    Type
                         _______ _______ _______ _____ _____    ______ ____

>  <TORSDO>
F 9

$$$$
=
 OpenBabel11062419083D

 32 35  0  0  1  0  0  0  0  0999 V2000
  188.1790  178.2840  141.4830 C   0  0  0  0  0  2  0  0  0  0  0  0
  188.9510  176.6940  143.3220 C   0  0  2  0  0  3  0  0  0  0  0  0
  189.3060  176.0090  145.5790 N   0  0  0  0  0  2  0  0  0  0  0  0
  187.3200  177.1190  141.0030 C   0  0  0  0  0  2  0  0  0  0  0  0
  187.9140  176.4470  145.4750 C   0  0  2  0  0  3  0  0  0  0  0  0
  189.3480  177.8070  142.3520 C   0  0  0  0  0  2  0  0  0  0  0  0
  186.4720  176.5690  143.3810 C   0  0  0  0  0  0  0  0  0  0  0  0
  187.7110  177.0560  144.0900 C   0  0  2  0  0  3  0  0  0  0  0  0
  185.5350  176.0490  144.0430 O   0  0  0  0  0  0  0  0  0  0  0  0
  186.2770  176.7880  141.9740 N   0  0  0  0  0  2  0  0  0  0  0  0
  189.9960  176.4820  144.3840 C   0  0  1  0  0  3  0  0  0  0  0  0
  187.6130  177.4810  146.5590 C   0  0  2  0  0  3  0  0  0  0  0  0
  188.6790  177.5640  147.4570 O   0  0  0  0  0  1  0  0  0  0  0  0
  186.3510  177.1120  147.3190 C   0  0  0  0  0  2  0  0  0  0  0  0
  185.5990  178.3140  147.6340 N   0  0  0  0  0  2  0  0  0  0  0  0
  185.4020  179.0370  146.3890 C   0  0  0  0  0  2  0  0  0  0  0  0
  184.0690  178.6580  145.7630 C   0  0  0  0  0  2  0  0  0  0  0  0
  185.1970  179.8110  144.2550 C   0  0  0  0  0  1  0  0  0  0  0  0
  184.0380  179.0560  144.4260 O   0  0  0  0  0  0  0  0  0  0  0  0
  191.0090  175.4490  143.9130 C   0  0  0  0  0  2  0  0  0  0  0  0
  193.2610  176.4530  145.9660 C   0  0  0  0  0  3  0  0  0  0  0  0
  191.5890  174.6850  145.0960 C   0  0  2  0  0  3  0  0  0  0  0  0
  193.9700  174.4110  145.2940 C   0  0  0  0  0  0  0  0  0  0  0  0
  193.8170  172.1020  145.7150 O   0  0  0  0  0  1  0  0  0  0  0  0
  194.7660  176.3980  146.1250 C   0  0  0  0  0  2  0  0  0  0  0  0
  192.8850  175.2810  145.4840 C   0  0  0  0  0  0  0  0  0  0  0  0
  191.3060  172.4440  144.2680 O   0  0  0  0  0  0  0  0  0  0  0  0
  193.5630  173.0900  144.7640 C   0  0  1  0  0  3  0  0  0  0  0  0
  195.0940  175.0110  145.6390 C   0  0  0  0  0  0  0  0  0  0  0  0
  192.0690  173.3140  144.6570 C   0  0  0  0  0  0  0  0  0  0  0  0
  196.3890  174.4870  145.5750 O   0  0  0  0  0  0  0  0  0  0  0  0
  197.0620  174.2290  144.3510 C   0  0  0  0  0  1  0  0  0  0  0  0
  1  6  1  0  0  0  0
  2  6  1  6  0  0  0
  2  8  1  0  0  0  0
  2 11  1  0  0  0  0
  4  1  1  0  0  0  0
  4 10  1  0  0  0  0
  5  3  1  0  0  0  0
  5 12  1  1  0  0  0
  7  9  2  0  0  0  0
  8  7  1  6  0  0  0
  8  5  1  0  0  0  0
 10  7  1  0  0  0  0
 11 20  1  6  0  0  0
 11  3  1  0  0  0  0
 12 14  1  0  0  0  0
 12 13  1  1  0  0  0
 14 15  1  0  0  0  0
 16 15  1  0  0  0  0
 17 16  1  0  0  0  0
 18 19  1  0  0  0  0
 19 17  1  0  0  0  0
 21 25  1  0  0  0  0
 22 20  1  6  0  0  0
 22 26  1  0  0  0  0
 23 26  1  0  0  0  0
 23 29  2  0  0  0  0
 26 21  2  0  0  0  0
 27 30  2  0  0  0  0
 28 23  1  0  0  0  0
 28 24  1  1  0  0  0
 29 25  1  0  0  0  0
 30 28  1  0  0  0  0
 30 22  1  0  0  0  0
 31 29  1  0  0  0  0
 32 31  1  0  0  0  0
M  END
>  <MODEL>
6

>  <REMARK>
 VINA RESULT:      -7.1      2.517      4.050
  Name = 
  9 active torsions:
  status: ('A' for Active; 'I' for Inactive)
    1  A    between atoms: O_2  and  C_30
    2  A    between atoms: C_7  and  N_24
    3  A    between atoms: C_7  and  C_29
    4  A    between atoms: O_8  and  C_20
    5  A    between atoms: C_11  and  C_19
    6  A    between atoms: C_13  and  C_29
    7  A    between atoms: C_16  and  C_20
    8  A    between atoms: C_16  and  N_24
    9  A    between atoms: C_19  and  C_28
                            x       y       z     vdW  Elec       q    Type
                         _______ _______ _______ _____ _____    ______ ____

>  <TORSDO>
F 9

$$$$
=
 OpenBabel11062419083D

 32 35  0  0  1  0  0  0  0  0999 V2000
  190.3110  172.3600  144.6360 C   0  0  0  0  0  2  0  0  0  0  0  0
  190.6150  174.8530  144.1940 C   0  0  2  0  0  3  0  0  0  0  0  0
  191.8560  176.8190  143.6650 N   0  0  0  0  0  2  0  0  0  0  0  0
  189.2800  172.4090  143.5140 C   0  0  0  0  0  2  0  0  0  0  0  0
  192.1920  175.8130  142.6570 C   0  0  2  0  0  3  0  0  0  0  0  0
  190.5530  173.7440  145.2450 C   0  0  0  0  0  2  0  0  0  0  0  0
  190.8170  173.7880  141.9600 C   0  0  0  0  0  0  0  0  0  0  0  0
  191.5500  174.4930  143.0740 C   0  0  2  0  0  3  0  0  0  0  0  0
  191.0750  174.0740  140.7610 O   0  0  0  0  0  0  0  0  0  0  0  0
  189.9060  172.7080  142.2260 N   0  0  0  0  0  2  0  0  0  0  0  0
  191.1850  176.1260  144.7590 C   0  0  1  0  0  3  0  0  0  0  0  0
  193.7100  175.6590  142.5630 C   0  0  2  0  0  3  0  0  0  0  0  0
  194.1040  175.5560  141.2280 O   0  0  0  0  0  1  0  0  0  0  0  0
  194.1710  174.4220  143.3130 C   0  0  0  0  0  2  0  0  0  0  0  0
  195.4960  174.6470  143.8640 N   0  0  0  0  0  2  0  0  0  0  0  0
  195.3950  175.7690  144.7820 C   0  0  0  0  0  2  0  0  0  0  0  0
  194.7010  175.3380  146.0660 C   0  0  0  0  0  2  0  0  0  0  0  0
  194.5680  177.5390  145.9430 C   0  0  0  0  0  1  0  0  0  0  0  0
  194.1850  176.4530  146.7280 O   0  0  0  0  0  0  0  0  0  0  0  0
  190.0680  176.9870  145.3250 C   0  0  0  0  0  2  0  0  0  0  0  0
  188.0330  177.7600  142.9690 C   0  0  0  0  0  3  0  0  0  0  0  0
  188.7090  176.3650  145.0370 C   0  0  2  0  0  3  0  0  0  0  0  0
  186.7640  177.7680  144.8440 C   0  0  0  0  0  0  0  0  0  0  0  0
  185.4730  176.4280  146.2820 O   0  0  0  0  0  1  0  0  0  0  0  0
  186.8500  178.6770  142.7370 C   0  0  0  0  0  3  0  0  0  0  0  0
  187.9110  177.2830  144.1960 C   0  0  1  0  0  3  0  0  0  0  0  0
  188.1190  175.6970  147.2720 O   0  0  0  0  0  0  0  0  0  0  0  0
  186.6100  177.2340  146.2160 C   0  0  1  0  0  3  0  0  0  0  0  0
  186.1130  178.5950  144.0470 C   0  0  0  0  0  0  0  0  0  0  0  0
  187.8490  176.3660  146.2870 C   0  0  0  0  0  0  0  0  0  0  0  0
  184.9390  179.2990  144.3330 O   0  0  0  0  0  0  0  0  0  0  0  0
  183.6860  178.9930  143.7380 C   0  0  0  0  0  1  0  0  0  0  0  0
  1  6  1  0  0  0  0
  2 11  1  0  0  0  0
  2  6  1  1  0  0  0
  3 11  1  0  0  0  0
  4  1  1  0  0  0  0
  5 12  1  1  0  0  0
  5  8  1  0  0  0  0
  5  3  1  0  0  0  0
  7 10  1  0  0  0  0
  8  7  1  6  0  0  0
  8  2  1  0  0  0  0
  9  7  2  0  0  0  0
 10  4  1  0  0  0  0
 11 20  1  6  0  0  0
 12 13  1  6  0  0  0
 12 14  1  0  0  0  0
 14 15  1  0  0  0  0
 15 16  1  0  0  0  0
 16 17  1  0  0  0  0
 17 19  1  0  0  0  0
 18 19  1  0  0  0  0
 22 20  1  1  0  0  0
 22 30  1  0  0  0  0
 23 28  1  0  0  0  0
 25 21  2  0  0  0  0
 25 29  1  0  0  0  0
 26 21  1  1  0  0  0
 26 23  1  0  0  0  0
 26 22  1  0  0  0  0
 28 24  1  6  0  0  0
 28 30  1  0  0  0  0
 29 31  1  0  0  0  0
 29 23  2  0  0  0  0
 30 27  2  0  0  0  0
 32 31  1  0  0  0  0
M  END
>  <MODEL>
7

>  <REMARK>
 VINA RESULT:      -6.9      2.970      8.651
  Name = 
  9 active torsions:
  status: ('A' for Active; 'I' for Inactive)
    1  A    between atoms: O_2  and  C_30
    2  A    between atoms: C_7  and  N_24
    3  A    between atoms: C_7  and  C_29
    4  A    between atoms: O_8  and  C_20
    5  A    between atoms: C_11  and  C_19
    6  A    between atoms: C_13  and  C_29
    7  A    between atoms: C_16  and  C_20
    8  A    between atoms: C_16  and  N_24
    9  A    between atoms: C_19  and  C_28
                            x       y       z     vdW  Elec       q    Type
                         _______ _______ _______ _____ _____    ______ ____

>  <TORSDO>
F 9

$$$$
=
 OpenBabel11062419083D

 32 35  0  0  1  0  0  0  0  0999 V2000
  190.3740  176.3080  147.2040 C   0  0  0  0  0  2  0  0  0  0  0  0
  189.9410  176.4200  144.6930 C   0  0  2  0  0  3  0  0  0  0  0  0
  190.5090  176.1850  142.3890 N   0  0  0  0  0  2  0  0  0  0  0  0
  189.1530  175.3960  147.2520 C   0  0  0  0  0  2  0  0  0  0  0  0
  190.8700  174.9310  143.0520 C   0  0  2  0  0  3  0  0  0  0  0  0
  190.3810  177.1800  145.9450 C   0  0  0  0  0  2  0  0  0  0  0  0
  189.9340  173.9950  145.2260 C   0  0  0  0  0  0  0  0  0  0  0  0
  190.6820  175.1200  144.5560 C   0  0  2  0  0  3  0  0  0  0  0  0
  189.8560  172.8710  144.6630 O   0  0  0  0  0  0  0  0  0  0  0  0
  189.4000  174.1350  146.5540 N   0  0  0  0  0  2  0  0  0  0  0  0
  190.2780  177.1750  143.4350 C   0  0  1  0  0  3  0  0  0  0  0  0
  192.3230  174.5780  142.7400 C   0  0  2  0  0  3  0  0  0  0  0  0
  192.4510  173.2050  142.5240 O   0  0  0  0  0  1  0  0  0  0  0  0
  193.2340  174.9880  143.8830 C   0  0  0  0  0  2  0  0  0  0  0  0
  194.0830  176.0890  143.4640 N   0  0  0  0  0  2  0  0  0  0  0  0
  195.2680  175.5100  142.8520 C   0  0  0  0  0  2  0  0  0  0  0  0
  196.5180  176.2250  143.3430 C   0  0  0  0  0  2  0  0  0  0  0  0
  197.1340  174.5370  144.6270 C   0  0  0  0  0  1  0  0  0  0  0  0
  197.5490  175.3050  143.5400 O   0  0  0  0  0  0  0  0  0  0  0  0
  189.1230  178.0880  143.0550 C   0  0  0  0  0  2  0  0  0  0  0  0
  187.3000  177.0490  140.6290 C   0  0  0  0  0  3  0  0  0  0  0  0
  187.7970  177.3460  143.1470 C   0  0  2  0  0  3  0  0  0  0  0  0
  185.8720  178.1820  141.9710 C   0  0  0  0  0  0  0  0  0  0  0  0
  184.4650  178.0020  143.8460 O   0  0  0  0  0  1  0  0  0  0  0  0
  186.1390  177.5330  139.7850 C   0  0  0  0  0  3  0  0  0  0  0  0
  187.0730  177.4620  141.8630 C   0  0  1  0  0  3  0  0  0  0  0  0
  187.0160  178.2330  145.2430 O   0  0  0  0  0  0  0  0  0  0  0  0
  185.6000  178.6430  143.3510 C   0  0  1  0  0  3  0  0  0  0  0  0
  185.2900  178.2660  140.7890 C   0  0  0  0  0  0  0  0  0  0  0  0
  186.8310  178.0980  144.0440 C   0  0  0  0  0  0  0  0  0  0  0  0
  184.0930  178.9190  140.4780 O   0  0  0  0  0  0  0  0  0  0  0  0
  182.8230  178.2850  140.5450 C   0  0  0  0  0  1  0  0  0  0  0  0
  1  4  1  0  0  0  0
  2  6  1  1  0  0  0
  3  5  1  0  0  0  0
  3 11  1  0  0  0  0
  5 12  1  1  0  0  0
  5  8  1  0  0  0  0
  6  1  1  0  0  0  0
  7 10  1  0  0  0  0
  8  2  1  0  0  0  0
  8  7  1  6  0  0  0
  9  7  2  0  0  0  0
 10  4  1  0  0  0  0
 11 20  1  6  0  0  0
 11  2  1  0  0  0  0
 12 13  1  1  0  0  0
 12 14  1  0  0  0  0
 15 14  1  0  0  0  0
 16 17  1  0  0  0  0
 16 15  1  0  0  0  0
 17 19  1  0  0  0  0
 19 18  1  0  0  0  0
 22 20  1  6  0  0  0
 22 30  1  0  0  0  0
 23 28  1  0  0  0  0
 25 21  2  0  0  0  0
 25 29  1  0  0  0  0
 26 21  1  6  0  0  0
 26 23  1  0  0  0  0
 26 22  1  0  0  0  0
 28 24  1  1  0  0  0
 28 30  1  0  0  0  0
 29 23  2  0  0  0  0
 30 27  2  0  0  0  0
 31 32  1  0  0  0  0
 31 29  1  0  0  0  0
M  END
>  <MODEL>
8

>  <REMARK>
 VINA RESULT:      -6.9      2.573      8.943
  Name = 
  9 active torsions:
  status: ('A' for Active; 'I' for Inactive)
    1  A    between atoms: O_2  and  C_30
    2  A    between atoms: C_7  and  N_24
    3  A    between atoms: C_7  and  C_29
    4  A    between atoms: O_8  and  C_20
    5  A    between atoms: C_11  and  C_19
    6  A    between atoms: C_13  and  C_29
    7  A    between atoms: C_16  and  C_20
    8  A    between atoms: C_16  and  N_24
    9  A    between atoms: C_19  and  C_28
                            x       y       z     vdW  Elec       q    Type
                         _______ _______ _______ _____ _____    ______ ____

>  <TORSDO>
F 9

$$$$
=
 OpenBabel11062419083D

 32 35  0  0  1  0  0  0  0  0999 V2000
  186.1110  176.8910  147.2240 C   0  0  0  0  0  2  0  0  0  0  0  0
  187.7850  177.5710  145.4240 C   0  0  2  0  0  3  0  0  0  0  0  0
  188.5870  177.7880  143.1890 N   0  0  0  0  0  2  0  0  0  0  0  0
  186.1500  178.3570  147.6440 C   0  0  0  0  0  2  0  0  0  0  0  0
  187.2230  178.3200  143.2120 C   0  0  2  0  0  3  0  0  0  0  0  0
  187.3570  176.4970  146.4250 C   0  0  0  0  0  2  0  0  0  0  0  0
  185.9340  179.2130  145.2160 C   0  0  0  0  0  0  0  0  0  0  0  0
  186.6250  178.0290  144.5860 C   0  0  2  0  0  3  0  0  0  0  0  0
  185.5570  180.1760  144.4950 O   0  0  0  0  0  0  0  0  0  0  0  0
  185.5850  179.2240  146.6100 N   0  0  0  0  0  2  0  0  0  0  0  0
  188.7780  177.0400  144.4260 C   0  0  1  0  0  3  0  0  0  0  0  0
  186.3880  177.6540  142.1180 C   0  0  2  0  0  3  0  0  0  0  0  0
  185.9170  176.4150  142.5570 O   0  0  0  0  0  1  0  0  0  0  0  0
  187.2130  177.4540  140.8590 C   0  0  0  0  0  2  0  0  0  0  0  0
  186.3330  177.2360  139.7250 N   0  0  0  0  0  2  0  0  0  0  0  0
  186.9800  176.2660  138.8580 C   0  0  0  0  0  2  0  0  0  0  0  0
  186.4690  176.4080  137.4320 C   0  0  0  0  0  2  0  0  0  0  0  0
  187.8870  174.7150  137.4410 C   0  0  0  0  0  1  0  0  0  0  0  0
  187.1680  175.5480  136.5850 O   0  0  0  0  0  0  0  0  0  0  0  0
  190.1920  177.2340  144.9500 C   0  0  0  0  0  2  0  0  0  0  0  0
  192.7660  176.5540  146.7390 C   0  0  0  0  0  3  0  0  0  0  0  0
  190.9130  175.8970  145.0620 C   0  0  2  0  0  3  0  0  0  0  0  0
  193.2850  175.7790  144.6770 C   0  0  0  0  0  0  0  0  0  0  0  0
  193.1060  173.9340  143.2300 O   0  0  0  0  0  1  0  0  0  0  0  0
  194.2740  176.5310  146.6070 C   0  0  0  0  0  2  0  0  0  0  0  0
  192.2760  176.1120  145.5950 C   0  0  0  0  0  0  0  0  0  0  0  0
  190.4210  175.0200  142.8760 O   0  0  0  0  0  0  0  0  0  0  0  0
  192.7500  175.2730  143.3930 C   0  0  1  0  0  3  0  0  0  0  0  0
  194.4710  176.0140  145.2070 C   0  0  0  0  0  0  0  0  0  0  0  0
  191.2670  175.3680  143.6850 C   0  0  0  0  0  0  0  0  0  0  0  0
  195.7190  175.8320  144.6040 O   0  0  0  0  0  0  0  0  0  0  0  0
  196.1810  176.6270  143.5200 C   0  0  0  0  0  1  0  0  0  0  0  0
  1  4  1  0  0  0  0
  2  6  1  1  0  0  0
  3  5  1  0  0  0  0
  3 11  1  0  0  0  0
  5 12  1  6  0  0  0
  5  8  1  0  0  0  0
  6  1  1  0  0  0  0
  7 10  1  0  0  0  0
  8  7  1  1  0  0  0
  8  2  1  0  0  0  0
  9  7  2  0  0  0  0
 10  4  1  0  0  0  0
 11 20  1  1  0  0  0
 11  2  1  0  0  0  0
 12 13  1  1  0  0  0
 14 12  1  0  0  0  0
 15 14  1  0  0  0  0
 16 15  1  0  0  0  0
 17 16  1  0  0  0  0
 19 17  1  0  0  0  0
 19 18  1  0  0  0  0
 22 20  1  6  0  0  0
 22 26  1  0  0  0  0
 23 29  2  0  0  0  0
 23 26  1  0  0  0  0
 25 21  1  0  0  0  0
 26 21  2  0  0  0  0
 27 30  2  0  0  0  0
 28 24  1  1  0  0  0
 28 30  1  0  0  0  0
 28 23  1  0  0  0  0
 29 25  1  0  0  0  0
 30 22  1  0  0  0  0
 31 29  1  0  0  0  0
 32 31  1  0  0  0  0
M  END
>  <MODEL>
9

>  <REMARK>
 VINA RESULT:      -6.9      2.111      2.791
  Name = 
  9 active torsions:
  status: ('A' for Active; 'I' for Inactive)
    1  A    between atoms: O_2  and  C_30
    2  A    between atoms: C_7  and  N_24
    3  A    between atoms: C_7  and  C_29
    4  A    between atoms: O_8  and  C_20
    5  A    between atoms: C_11  and  C_19
    6  A    between atoms: C_13  and  C_29
    7  A    between atoms: C_16  and  C_20
    8  A    between atoms: C_16  and  N_24
    9  A    between atoms: C_19  and  C_28
                            x       y       z     vdW  Elec       q    Type
                         _______ _______ _______ _____ _____    ______ ____

>  <TORSDO>
F 9

$$$$
