=
 OpenBabel11062418273D

 48 54  0  0  1  0  0  0  0  0999 V2000
  189.7200  173.0720  144.8390 C   0  0  2  0  0  3  0  0  0  0  0  0
  189.4750  175.8620  141.5610 C   0  0  0  0  0  3  0  0  0  0  0  0
  189.8090  177.8080  143.0670 C   0  0  0  0  0  1  0  0  0  0  0  0
  189.3780  175.9440  145.3820 C   0  0  2  0  0  3  0  0  0  0  0  0
  189.5020  175.4590  143.9600 C   0  0  0  0  0  0  0  0  0  0  0  0
  189.2070  174.0100  139.9960 N   0  0  0  0  0  1  0  0  0  0  0  0
  189.3310  174.4950  141.3270 C   0  0  0  0  0  0  0  0  0  0  0  0
  189.4790  174.0670  143.7130 C   0  0  0  0  0  0  0  0  0  0  0  0
  189.3680  173.6000  142.3970 C   0  0  0  0  0  3  0  0  0  0  0  0
  189.6630  173.6530  146.1870 N   0  0  0  0  0  2  0  0  0  0  0  0
  189.5700  176.3490  142.8690 C   0  0  0  0  0  0  0  0  0  0  0  0
  190.2560  174.9880  146.2130 C   0  0  2  0  0  3  0  0  0  0  0  0
  190.6130  175.3780  147.6590 C   0  0  2  0  0  3  0  0  0  0  0  0
  191.1200  176.6880  147.7220 O   0  0  0  0  0  0  0  0  0  0  0  0
  192.0550  175.6400  147.8680 C   0  0  0  0  0  2  0  0  0  0  0  0
  191.0390  172.3210  144.6570 C   0  0  0  0  0  2  0  0  0  0  0  0
  192.1310  173.2870  144.2160 C   0  0  0  0  0  2  0  0  0  0  0  0
  196.6650  172.9530  144.4050 N   0  0  0  0  0  0  0  0  0  0  0  0
  195.4230  172.9110  144.7830 C   0  0  0  0  0  0  0  0  0  0  0  0
  194.5320  174.0680  144.7590 C   0  0  2  0  0  3  0  0  0  0  0  0
  193.5020  172.2000  145.8960 O   0  0  0  0  0  0  0  0  0  0  0  0
  193.2240  173.4480  145.2810 C   0  0  2  0  0  3  0  0  0  0  0  0
  194.7680  171.7600  145.4430 C   0  0  1  0  0  3  0  0  0  0  0  0
  193.8560  176.0460  143.3390 C   0  0  0  0  0  0  0  0  0  0  0  0
  193.1690  176.4350  142.0470 C   0  0  0  0  0  1  0  0  0  0  0  0
  193.3510  176.6900  144.6210 C   0  0  0  0  0  1  0  0  0  0  0  0
  194.4420  174.6950  143.3580 C   0  0  1  0  0  3  0  0  0  0  0  0
  195.6810  176.0590  143.2060 S   0  0  0  0  0  0  0  0  0  0  0  0
  197.5520  171.8410  144.5130 C   0  0  0  0  0  3  0  0  0  0  0  0
  197.6740  171.0410  143.5500 O   0  0  0  0  0  0  0  0  0  0  0  0
  194.6060  170.7070  144.5340 O   0  0  0  0  0  0  0  0  0  0  0  0
  194.2630  169.6020  145.3220 C   0  0  0  0  0  2  0  0  0  0  0  0
  195.3550  169.3350  146.3420 C   0  0  0  0  0  2  0  0  0  0  0  0
  194.7850  168.9290  147.5520 O   0  0  0  0  0  1  0  0  0  0  0  0
  188.0320  175.7840  145.7920 O   0  0  0  0  0  0  0  0  0  0  0  0
  188.4420  177.8980  146.6930 O   0  0  0  0  0  1  0  0  0  0  0  0
  185.7580  176.6810  144.4140 C   0  0  2  0  0  3  0  0  0  0  0  0
  187.4650  176.9970  146.2640 C   0  0  2  0  0  0  0  0  0  0  0  0
  185.1830  176.6590  146.7330 O   0  0  0  0  0  0  0  0  0  0  0  0
  186.4320  176.7850  147.3530 C   0  0  0  0  0  2  0  0  0  0  0  0
  185.2340  177.4840  145.5930 C   0  0  1  0  0  3  0  0  0  0  0  0
  186.6750  177.6470  145.1540 C   0  0  2  0  0  3  0  0  0  0  0  0
  186.7470  177.4290  139.6880 O   0  0  0  0  0  0  0  0  0  0  0  0
  185.9370  177.6490  140.6310 C   0  0  0  0  0  0  0  0  0  0  0  0
  185.3740  177.2810  143.0950 C   0  0  0  0  0  0  0  0  0  0  0  0
  186.2030  177.1080  141.9330 N   0  0  0  0  0  2  0  0  0  0  0  0
  184.7940  178.4640  140.3910 N   0  0  0  0  0  1  0  0  0  0  0  0
  184.3130  177.9600  143.0320 O   0  0  0  0  0  0  0  0  0  0  0  0
  1 16  1  6  0  0  0
  1 10  1  0  0  0  0
  2 11  1  0  0  0  0
  4 35  1  1  0  0  0
  4 12  1  0  0  0  0
  5  4  1  0  0  0  0
  6  7  1  0  0  0  0
  7  2  2  0  0  0  0
  7  9  1  0  0  0  0
  8  5  1  0  0  0  0
  8  1  1  0  0  0  0
  9  8  2  0  0  0  0
 11  3  1  0  0  0  0
 11  5  2  0  0  0  0
 12 10  1  1  0  0  0
 12 13  1  0  0  0  0
 13 14  1  0  0  0  0
 13 15  1  6  0  0  0
 14 15  1  0  0  0  0
 17 16  1  0  0  0  0
 18 29  1  0  0  0  0
 18 19  2  0  0  0  0
 19 23  1  0  0  0  0
 20 19  1  6  0  0  0
 20 22  1  0  0  0  0
 22 17  1  6  0  0  0
 22 21  1  0  0  0  0
 23 31  1  6  0  0  0
 23 21  1  0  0  0  0
 24 27  1  0  0  0  0
 24 26  1  0  0  0  0
 25 24  1  0  0  0  0
 27 28  1  1  0  0  0
 27 20  1  0  0  0  0
 28 24  1  0  0  0  0
 30 29  2  0  0  0  0
 31 32  1  0  0  0  0
 32 33  1  0  0  0  0
 33 34  1  0  0  0  0
 35 38  1  0  0  0  0
 37 45  1  6  0  0  0
 37 42  1  0  0  0  0
 37 41  1  0  0  0  0
 38 36  1  1  0  0  0
 38 40  1  0  0  0  0
 39 40  1  0  0  0  0
 41 39  1  1  0  0  0
 42 41  1  0  0  0  0
 42 38  1  0  0  0  0
 43 44  2  0  0  0  0
 44 46  1  0  0  0  0
 46 45  1  0  0  0  0
 47 44  1  0  0  0  0
 48 45  2  0  0  0  0
M  END
>  <MODEL>
1

>  <REMARK>
 VINA RESULT:      -7.3      0.000      0.000
  Name = 
  12 active torsions:
  status: ('A' for Active; 'I' for Inactive)
    1  A    between atoms: N_1  and  C_14
    2  A    between atoms: C_2  and  C_34
    3  A    between atoms: C_8  and  C_45
    4  A    between atoms: C_9  and  O_48
    5  A    between atoms: C_11  and  C_28
    6  A    between atoms: C_17  and  O_48
    7  A    between atoms: O_21  and  C_35
    8  A    between atoms: O_21  and  C_44
    9  A    between atoms: C_24  and  C_35
   10  A    between atoms: C_27  and  C_29
   11  A    between atoms: C_33  and  C_34
   12  A    between atoms: C_33  and  C_39
                            x       y       z     vdW  Elec       q    Type
                         _______ _______ _______ _____ _____    ______ ____

>  <TORSDO>
F 12

$$$$
=
 OpenBabel11062418273D

 48 54  0  0  1  0  0  0  0  0999 V2000
  189.6410  173.1250  144.8520 C   0  0  2  0  0  3  0  0  0  0  0  0
  189.3470  175.8960  141.5630 C   0  0  0  0  0  3  0  0  0  0  0  0
  189.6700  177.8530  143.0570 C   0  0  0  0  0  1  0  0  0  0  0  0
  189.2720  175.9950  145.3840 C   0  0  2  0  0  3  0  0  0  0  0  0
  189.3930  175.5050  143.9630 C   0  0  0  0  0  0  0  0  0  0  0  0
  189.0890  174.0340  140.0080 N   0  0  0  0  0  1  0  0  0  0  0  0
  189.2160  174.5270  141.3360 C   0  0  0  0  0  0  0  0  0  0  0  0
  189.3830  174.1120  143.7230 C   0  0  0  0  0  0  0  0  0  0  0  0
  189.2680  173.6380  142.4100 C   0  0  0  0  0  3  0  0  0  0  0  0
  189.5860  173.7120  146.1970 N   0  0  0  0  0  2  0  0  0  0  0  0
  189.4450  176.3910  142.8680 C   0  0  0  0  0  0  0  0  0  0  0  0
  190.1650  175.0530  146.2130 C   0  0  2  0  0  3  0  0  0  0  0  0
  190.5270  175.4530  147.6550 C   0  0  2  0  0  3  0  0  0  0  0  0
  191.1870  176.6940  147.6880 O   0  0  0  0  0  0  0  0  0  0  0  0
  191.9840  175.5480  147.9010 C   0  0  0  0  0  2  0  0  0  0  0  0
  190.9660  172.3870  144.6650 C   0  0  0  0  0  2  0  0  0  0  0  0
  192.1000  173.3890  144.4870 C   0  0  0  0  0  2  0  0  0  0  0  0
  195.0410  173.7160  141.0310 N   0  0  0  0  0  0  0  0  0  0  0  0
  194.3500  173.1910  141.9990 C   0  0  0  0  0  0  0  0  0  0  0  0
  194.4190  173.6540  143.3830 C   0  0  2  0  0  3  0  0  0  0  0  0
  193.1400  171.6100  143.2090 O   0  0  0  0  0  0  0  0  0  0  0  0
  193.4090  172.7120  144.0610 C   0  0  2  0  0  3  0  0  0  0  0  0
  193.5300  171.9640  141.8970 C   0  0  1  0  0  3  0  0  0  0  0  0
  194.5810  175.7720  144.7490 C   0  0  0  0  0  0  0  0  0  0  0  0
  193.7930  176.9770  145.2200 C   0  0  0  0  0  1  0  0  0  0  0  0
  195.2840  174.9380  145.8090 C   0  0  0  0  0  1  0  0  0  0  0  0
  194.0960  175.1520  143.5040 C   0  0  1  0  0  3  0  0  0  0  0  0
  195.6460  176.1400  143.3080 S   0  0  0  0  0  0  0  0  0  0  0  0
  195.0340  173.2030  139.7000 C   0  0  0  0  0  3  0  0  0  0  0  0
  194.3310  173.7600  138.8180 O   0  0  0  0  0  0  0  0  0  0  0  0
  192.3940  172.2030  141.1130 O   0  0  0  0  0  0  0  0  0  0  0  0
  192.1650  170.9980  140.4380 C   0  0  0  0  0  2  0  0  0  0  0  0
  190.7020  170.6110  140.5510 C   0  0  0  0  0  2  0  0  0  0  0  0
  190.3940  170.3040  141.8800 O   0  0  0  0  0  1  0  0  0  0  0  0
  187.9310  175.8240  145.8020 O   0  0  0  0  0  0  0  0  0  0  0  0
  188.3230  177.9340  146.7210 O   0  0  0  0  0  1  0  0  0  0  0  0
  185.6750  176.7230  144.3950 C   0  0  2  0  0  3  0  0  0  0  0  0
  187.3540  177.0330  146.2730 C   0  0  2  0  0  0  0  0  0  0  0  0
  185.0660  176.6880  146.7050 O   0  0  0  0  0  0  0  0  0  0  0  0
  186.3060  176.8130  147.3450 C   0  0  0  0  0  2  0  0  0  0  0  0
  185.1330  177.5190  145.5710 C   0  0  1  0  0  3  0  0  0  0  0  0
  186.5800  177.6870  145.1550 C   0  0  2  0  0  3  0  0  0  0  0  0
  186.6970  177.4380  139.6720 O   0  0  0  0  0  0  0  0  0  0  0  0
  185.8900  177.6790  140.6110 C   0  0  0  0  0  0  0  0  0  0  0  0
  185.3100  177.3290  143.0740 C   0  0  0  0  0  0  0  0  0  0  0  0
  186.1390  177.1350  141.9150 N   0  0  0  0  0  2  0  0  0  0  0  0
  184.7670  178.5200  140.3660 N   0  0  0  0  0  1  0  0  0  0  0  0
  184.2660  178.0340  143.0060 O   0  0  0  0  0  0  0  0  0  0  0  0
  1 16  1  6  0  0  0
  1 10  1  0  0  0  0
  2 11  1  0  0  0  0
  4 35  1  1  0  0  0
  4 12  1  0  0  0  0
  5  4  1  0  0  0  0
  6  7  1  0  0  0  0
  7  2  2  0  0  0  0
  7  9  1  0  0  0  0
  8  5  1  0  0  0  0
  8  1  1  0  0  0  0
  9  8  2  0  0  0  0
 11  3  1  0  0  0  0
 11  5  2  0  0  0  0
 12 10  1  1  0  0  0
 12 13  1  0  0  0  0
 13 14  1  0  0  0  0
 13 15  1  6  0  0  0
 14 15  1  0  0  0  0
 17 16  1  0  0  0  0
 18 19  2  0  0  0  0
 20 19  1  6  0  0  0
 20 27  1  0  0  0  0
 20 22  1  0  0  0  0
 21 22  1  0  0  0  0
 22 17  1  6  0  0  0
 23 31  1  6  0  0  0
 23 19  1  0  0  0  0
 23 21  1  0  0  0  0
 24 25  1  0  0  0  0
 24 26  1  0  0  0  0
 27 28  1  6  0  0  0
 27 24  1  0  0  0  0
 28 24  1  0  0  0  0
 29 18  1  0  0  0  0
 30 29  2  0  0  0  0
 32 33  1  0  0  0  0
 32 31  1  0  0  0  0
 33 34  1  0  0  0  0
 35 38  1  0  0  0  0
 37 45  1  6  0  0  0
 37 42  1  0  0  0  0
 37 41  1  0  0  0  0
 38 36  1  1  0  0  0
 38 40  1  0  0  0  0
 39 40  1  0  0  0  0
 41 39  1  1  0  0  0
 42 41  1  0  0  0  0
 42 38  1  0  0  0  0
 43 44  2  0  0  0  0
 44 46  1  0  0  0  0
 46 45  1  0  0  0  0
 47 44  1  0  0  0  0
 48 45  2  0  0  0  0
M  END
>  <MODEL>
2

>  <REMARK>
 VINA RESULT:      -7.2      1.910      2.514
  Name = 
  12 active torsions:
  status: ('A' for Active; 'I' for Inactive)
    1  A    between atoms: N_1  and  C_14
    2  A    between atoms: C_2  and  C_34
    3  A    between atoms: C_8  and  C_45
    4  A    between atoms: C_9  and  O_48
    5  A    between atoms: C_11  and  C_28
    6  A    between atoms: C_17  and  O_48
    7  A    between atoms: O_21  and  C_35
    8  A    between atoms: O_21  and  C_44
    9  A    between atoms: C_24  and  C_35
   10  A    between atoms: C_27  and  C_29
   11  A    between atoms: C_33  and  C_34
   12  A    between atoms: C_33  and  C_39
                            x       y       z     vdW  Elec       q    Type
                         _______ _______ _______ _____ _____    ______ ____

>  <TORSDO>
F 12

$$$$
=
 OpenBabel11062418273D

 48 54  0  0  1  0  0  0  0  0999 V2000
  190.4900  174.2550  142.4800 C   0  0  2  0  0  3  0  0  0  0  0  0
  194.7180  173.8120  143.1920 C   0  0  0  0  0  3  0  0  0  0  0  0
  195.0490  172.5960  141.0520 C   0  0  0  0  0  1  0  0  0  0  0  0
  192.0600  172.3740  140.8500 C   0  0  2  0  0  3  0  0  0  0  0  0
  192.7450  173.2040  141.9070 C   0  0  0  0  0  0  0  0  0  0  0  0
  194.5040  175.0550  145.2790 N   0  0  0  0  0  1  0  0  0  0  0  0
  193.9150  174.4540  144.1330 C   0  0  0  0  0  0  0  0  0  0  0  0
  191.9480  173.9590  142.7970 C   0  0  0  0  0  0  0  0  0  0  0  0
  192.5400  174.5560  143.9180 C   0  0  0  0  0  3  0  0  0  0  0  0
  189.9330  173.4560  141.3790 N   0  0  0  0  0  2  0  0  0  0  0  0
  194.1440  173.1950  142.0750 C   0  0  0  0  0  0  0  0  0  0  0  0
  190.9180  173.2600  140.3180 C   0  0  2  0  0  3  0  0  0  0  0  0
  190.2100  172.8520  139.0120 C   0  0  2  0  0  3  0  0  0  0  0  0
  191.1400  172.4780  138.0260 O   0  0  0  0  0  0  0  0  0  0  0  0
  190.5190  173.7350  137.8650 C   0  0  0  0  0  2  0  0  0  0  0  0
  190.2610  175.7410  142.2050 C   0  0  0  0  0  2  0  0  0  0  0  0
  188.8010  176.0980  142.4560 C   0  0  0  0  0  2  0  0  0  0  0  0
  185.8460  178.4160  145.0240 N   0  0  0  0  0  0  0  0  0  0  0  0
  186.7230  178.1670  144.0990 C   0  0  0  0  0  0  0  0  0  0  0  0
  188.0670  177.6630  144.3740 C   0  0  2  0  0  3  0  0  0  0  0  0
  187.8280  178.2820  142.0500 O   0  0  0  0  0  0  0  0  0  0  0  0
  188.6360  177.5410  142.9500 C   0  0  2  0  0  3  0  0  0  0  0  0
  186.5740  178.5020  142.6660 C   0  0  1  0  0  3  0  0  0  0  0  0
  189.2780  176.0680  145.9140 C   0  0  0  0  0  0  0  0  0  0  0  0
  189.5580  174.6010  146.1670 C   0  0  0  0  0  1  0  0  0  0  0  0
  190.4750  177.0000  145.8040 C   0  0  0  0  0  1  0  0  0  0  0  0
  188.0340  176.3530  145.1780 C   0  0  1  0  0  3  0  0  0  0  0  0
  187.9520  176.7330  146.9850 S   0  0  0  0  0  0  0  0  0  0  0  0
  184.5680  178.9890  144.7540 C   0  0  0  0  0  3  0  0  0  0  0  0
  183.6440  178.8880  145.6010 O   0  0  0  0  0  0  0  0  0  0  0  0
  185.6040  177.6830  142.0730 O   0  0  0  0  0  0  0  0  0  0  0  0
  185.4380  178.2000  140.7830 C   0  0  0  0  0  2  0  0  0  0  0  0
  183.9600  178.3640  140.4780 C   0  0  0  0  0  2  0  0  0  0  0  0
  183.2020  178.0310  141.6050 O   0  0  0  0  0  1  0  0  0  0  0  0
  191.4910  171.2380  141.4750 O   0  0  0  0  0  0  0  0  0  0  0  0
  192.8160  170.1870  139.8660 O   0  0  0  0  0  1  0  0  0  0  0  0
  192.4930  169.6150  143.5330 C   0  0  2  0  0  3  0  0  0  0  0  0
  192.1090  170.0280  141.0600 C   0  0  2  0  0  0  0  0  0  0  0  0
  191.1050  168.2170  142.1800 O   0  0  0  0  0  0  0  0  0  0  0  0
  191.1340  168.8740  140.9430 C   0  0  0  0  0  2  0  0  0  0  0  0
  192.4030  168.3400  142.7100 C   0  0  1  0  0  3  0  0  0  0  0  0
  193.0730  169.5660  142.1250 C   0  0  2  0  0  3  0  0  0  0  0  0
  196.0770  171.9290  145.9140 O   0  0  0  0  0  0  0  0  0  0  0  0
  195.4790  170.8310  145.7440 C   0  0  0  0  0  0  0  0  0  0  0  0
  193.6140  169.5790  144.5270 C   0  0  0  0  0  0  0  0  0  0  0  0
  194.3810  170.7590  144.8220 N   0  0  0  0  0  2  0  0  0  0  0  0
  195.9330  169.6760  146.4420 N   0  0  0  0  0  1  0  0  0  0  0  0
  193.8840  168.4810  145.0870 O   0  0  0  0  0  0  0  0  0  0  0  0
  1 16  1  6  0  0  0
  1  8  1  0  0  0  0
  2  7  1  0  0  0  0
  3 11  1  0  0  0  0
  4 35  1  1  0  0  0
  4  5  1  0  0  0  0
  5 11  1  0  0  0  0
  5  8  2  0  0  0  0
  7  6  1  0  0  0  0
  8  9  1  0  0  0  0
  9  7  2  0  0  0  0
 10  1  1  0  0  0  0
 11  2  2  0  0  0  0
 12  4  1  0  0  0  0
 12 10  1  1  0  0  0
 13 15  1  6  0  0  0
 13 12  1  0  0  0  0
 14 13  1  0  0  0  0
 15 14  1  0  0  0  0
 16 17  1  0  0  0  0
 19 18  2  0  0  0  0
 20 19  1  6  0  0  0
 20 27  1  0  0  0  0
 21 23  1  0  0  0  0
 21 22  1  0  0  0  0
 22 17  1  6  0  0  0
 22 20  1  0  0  0  0
 23 31  1  6  0  0  0
 23 19  1  0  0  0  0
 24 25  1  0  0  0  0
 24 28  1  0  0  0  0
 26 24  1  0  0  0  0
 27 24  1  0  0  0  0
 27 28  1  1  0  0  0
 29 18  1  0  0  0  0
 29 30  2  0  0  0  0
 32 31  1  0  0  0  0
 33 32  1  0  0  0  0
 33 34  1  0  0  0  0
 37 45  1  1  0  0  0
 38 36  1  6  0  0  0
 38 35  1  0  0  0  0
 38 42  1  0  0  0  0
 40 38  1  0  0  0  0
 40 39  1  0  0  0  0
 41 39  1  6  0  0  0
 41 37  1  0  0  0  0
 42 41  1  0  0  0  0
 42 37  1  0  0  0  0
 44 43  2  0  0  0  0
 44 47  1  0  0  0  0
 45 46  1  0  0  0  0
 45 48  2  0  0  0  0
 46 44  1  0  0  0  0
M  END
>  <MODEL>
3

>  <REMARK>
 VINA RESULT:      -6.8      3.028      9.793
  Name = 
  12 active torsions:
  status: ('A' for Active; 'I' for Inactive)
    1  A    between atoms: N_1  and  C_14
    2  A    between atoms: C_2  and  C_34
    3  A    between atoms: C_8  and  C_45
    4  A    between atoms: C_9  and  O_48
    5  A    between atoms: C_11  and  C_28
    6  A    between atoms: C_17  and  O_48
    7  A    between atoms: O_21  and  C_35
    8  A    between atoms: O_21  and  C_44
    9  A    between atoms: C_24  and  C_35
   10  A    between atoms: C_27  and  C_29
   11  A    between atoms: C_33  and  C_34
   12  A    between atoms: C_33  and  C_39
                            x       y       z     vdW  Elec       q    Type
                         _______ _______ _______ _____ _____    ______ ____

>  <TORSDO>
F 12

$$$$
=
 OpenBabel11062418273D

 48 54  0  0  1  0  0  0  0  0999 V2000
  190.7690  175.2740  142.6370 C   0  0  2  0  0  3  0  0  0  0  0  0
  192.4050  171.7290  140.8090 C   0  0  0  0  0  3  0  0  0  0  0  0
  194.2900  171.6500  142.4240 C   0  0  0  0  0  1  0  0  0  0  0  0
  193.5030  174.4130  143.3000 C   0  0  2  0  0  3  0  0  0  0  0  0
  192.6680  173.5930  142.3500 C   0  0  0  0  0  0  0  0  0  0  0  0
  190.5540  171.6870  139.2200 N   0  0  0  0  0  1  0  0  0  0  0  0
  191.2520  172.3150  140.2890 C   0  0  0  0  0  0  0  0  0  0  0  0
  191.4350  174.1200  141.9040 C   0  0  0  0  0  0  0  0  0  0  0  0
  190.7510  173.4870  140.8570 C   0  0  0  0  0  3  0  0  0  0  0  0
  191.6350  175.9600  143.6050 N   0  0  0  0  0  2  0  0  0  0  0  0
  193.1110  172.3550  141.8420 C   0  0  0  0  0  0  0  0  0  0  0  0
  192.5000  175.0130  144.3050 C   0  0  2  0  0  3  0  0  0  0  0  0
  193.0390  175.6490  145.6000 C   0  0  2  0  0  3  0  0  0  0  0  0
  193.9250  174.7800  146.2620 O   0  0  0  0  0  0  0  0  0  0  0  0
  192.6410  174.9260  146.8290 C   0  0  0  0  0  2  0  0  0  0  0  0
  189.4750  174.8370  143.3240 C   0  0  0  0  0  2  0  0  0  0  0  0
  188.2940  175.6070  142.7470 C   0  0  0  0  0  2  0  0  0  0  0  0
  185.9660  179.0040  144.6820 N   0  0  0  0  0  0  0  0  0  0  0  0
  186.7480  178.3780  143.8530 C   0  0  0  0  0  0  0  0  0  0  0  0
  187.9570  177.6690  144.2640 C   0  0  2  0  0  3  0  0  0  0  0  0
  187.8040  177.8090  141.8560 O   0  0  0  0  0  0  0  0  0  0  0  0
  188.4540  177.1230  142.9140 C   0  0  2  0  0  3  0  0  0  0  0  0
  186.6410  178.4210  142.3780 C   0  0  1  0  0  3  0  0  0  0  0  0
  188.6700  176.5250  146.4010 C   0  0  0  0  0  0  0  0  0  0  0  0
  188.8050  175.1710  147.0670 C   0  0  0  0  0  1  0  0  0  0  0  0
  189.9030  177.4150  146.3690 C   0  0  0  0  0  1  0  0  0  0  0  0
  187.6620  176.6010  145.3300 C   0  0  1  0  0  3  0  0  0  0  0  0
  187.1570  177.4200  146.9090 S   0  0  0  0  0  0  0  0  0  0  0  0
  184.8350  179.7660  144.2630 C   0  0  0  0  0  3  0  0  0  0  0  0
  183.6740  179.3510  144.5070 O   0  0  0  0  0  0  0  0  0  0  0  0
  185.5050  177.7210  141.9530 O   0  0  0  0  0  0  0  0  0  0  0  0
  185.1910  178.2730  140.7050 C   0  0  0  0  0  2  0  0  0  0  0  0
  183.6860  178.2890  140.5100 C   0  0  0  0  0  2  0  0  0  0  0  0
  183.0490  177.9170  141.6990 O   0  0  0  0  0  1  0  0  0  0  0  0
  194.0960  175.4740  142.5730 O   0  0  0  0  0  0  0  0  0  0  0  0
  196.0020  174.5680  143.5720 O   0  0  0  0  0  1  0  0  0  0  0  0
  195.2740  175.4500  140.0260 C   0  0  2  0  0  3  0  0  0  0  0  0
  195.5130  175.3860  142.5510 C   0  0  2  0  0  0  0  0  0  0  0  0
  196.3830  177.1600  141.2710 O   0  0  0  0  0  0  0  0  0  0  0  0
  196.1920  176.7400  142.5940 C   0  0  0  0  0  2  0  0  0  0  0  0
  196.6040  175.9880  140.5240 C   0  0  1  0  0  3  0  0  0  0  0  0
  195.9600  174.8120  141.2280 C   0  0  2  0  0  3  0  0  0  0  0  0
  197.8350  174.0650  136.1020 O   0  0  0  0  0  0  0  0  0  0  0  0
  196.7990  173.8640  136.7950 C   0  0  0  0  0  0  0  0  0  0  0  0
  195.4280  174.5490  138.8380 C   0  0  0  0  0  0  0  0  0  0  0  0
  196.5620  174.6650  137.9620 N   0  0  0  0  0  2  0  0  0  0  0  0
  195.8670  172.8710  136.3800 N   0  0  0  0  0  1  0  0  0  0  0  0
  194.5260  173.6950  138.6130 O   0  0  0  0  0  0  0  0  0  0  0  0
  1 16  1  1  0  0  0
  1 10  1  0  0  0  0
  2 11  1  0  0  0  0
  4 35  1  6  0  0  0
  4 12  1  0  0  0  0
  5  4  1  0  0  0  0
  6  7  1  0  0  0  0
  7  2  2  0  0  0  0
  7  9  1  0  0  0  0
  8  5  1  0  0  0  0
  8  1  1  0  0  0  0
  9  8  2  0  0  0  0
 11  5  2  0  0  0  0
 11  3  1  0  0  0  0
 12 10  1  6  0  0  0
 12 13  1  0  0  0  0
 13 14  1  0  0  0  0
 13 15  1  1  0  0  0
 14 15  1  0  0  0  0
 17 16  1  0  0  0  0
 19 18  2  0  0  0  0
 20 19  1  6  0  0  0
 20 27  1  0  0  0  0
 21 23  1  0  0  0  0
 21 22  1  0  0  0  0
 22 17  1  1  0  0  0
 22 20  1  0  0  0  0
 23 31  1  1  0  0  0
 23 19  1  0  0  0  0
 24 28  1  0  0  0  0
 24 25  1  0  0  0  0
 26 24  1  0  0  0  0
 27 24  1  0  0  0  0
 27 28  1  1  0  0  0
 29 30  2  0  0  0  0
 29 18  1  0  0  0  0
 32 31  1  0  0  0  0
 33 32  1  0  0  0  0
 33 34  1  0  0  0  0
 37 45  1  6  0  0  0
 37 41  1  0  0  0  0
 37 42  1  0  0  0  0
 38 35  1  0  0  0  0
 38 40  1  0  0  0  0
 38 36  1  1  0  0  0
 39 40  1  0  0  0  0
 41 42  1  0  0  0  0
 41 39  1  1  0  0  0
 42 38  1  0  0  0  0
 43 44  2  0  0  0  0
 44 46  1  0  0  0  0
 46 45  1  0  0  0  0
 47 44  1  0  0  0  0
 48 45  2  0  0  0  0
M  END
>  <MODEL>
4

>  <REMARK>
 VINA RESULT:      -6.8      3.654      9.245
  Name = 
  12 active torsions:
  status: ('A' for Active; 'I' for Inactive)
    1  A    between atoms: N_1  and  C_14
    2  A    between atoms: C_2  and  C_34
    3  A    between atoms: C_8  and  C_45
    4  A    between atoms: C_9  and  O_48
    5  A    between atoms: C_11  and  C_28
    6  A    between atoms: C_17  and  O_48
    7  A    between atoms: O_21  and  C_35
    8  A    between atoms: O_21  and  C_44
    9  A    between atoms: C_24  and  C_35
   10  A    between atoms: C_27  and  C_29
   11  A    between atoms: C_33  and  C_34
   12  A    between atoms: C_33  and  C_39
                            x       y       z     vdW  Elec       q    Type
                         _______ _______ _______ _____ _____    ______ ____

>  <TORSDO>
F 12

$$$$
=
 OpenBabel11062418273D

 48 54  0  0  1  0  0  0  0  0999 V2000
  190.5530  176.6210  143.8750 C   0  0  2  0  0  3  0  0  0  0  0  0
  190.6180  172.3480  143.3040 C   0  0  0  0  0  3  0  0  0  0  0  0
  192.9770  172.1860  144.0640 C   0  0  0  0  0  1  0  0  0  0  0  0
  193.1190  175.1810  143.8850 C   0  0  2  0  0  3  0  0  0  0  0  0
  191.8310  174.4160  143.7160 C   0  0  0  0  0  0  0  0  0  0  0  0
  188.2810  172.4000  142.6070 N   0  0  0  0  0  1  0  0  0  0  0  0
  189.4680  173.0760  143.0030 C   0  0  0  0  0  0  0  0  0  0  0  0
  190.6320  175.1420  143.5290 C   0  0  0  0  0  0  0  0  0  0  0  0
  189.4660  174.4640  143.1480 C   0  0  0  0  0  3  0  0  0  0  0  0
  191.8550  177.2620  144.1060 N   0  0  0  0  0  2  0  0  0  0  0  0
  191.7970  173.0090  143.6690 C   0  0  0  0  0  0  0  0  0  0  0  0
  192.7690  176.3640  144.8080 C   0  0  2  0  0  3  0  0  0  0  0  0
  193.9150  177.1710  145.4460 C   0  0  2  0  0  3  0  0  0  0  0  0
  194.9400  176.3240  145.9040 O   0  0  0  0  0  0  0  0  0  0  0  0
  194.1070  176.8990  146.8880 C   0  0  0  0  0  2  0  0  0  0  0  0
  189.6360  176.8740  145.0720 C   0  0  0  0  0  2  0  0  0  0  0  0
  188.1780  176.7710  144.6410 C   0  0  0  0  0  2  0  0  0  0  0  0
  184.2090  178.3680  143.0910 N   0  0  0  0  0  0  0  0  0  0  0  0
  185.4930  178.2320  143.2440 C   0  0  0  0  0  0  0  0  0  0  0  0
  186.1750  178.3960  144.5250 C   0  0  2  0  0  3  0  0  0  0  0  0
  187.7620  178.1850  142.7150 O   0  0  0  0  0  0  0  0  0  0  0  0
  187.6320  178.1090  144.1250 C   0  0  2  0  0  3  0  0  0  0  0  0
  186.4720  178.0600  142.1480 C   0  0  1  0  0  3  0  0  0  0  0  0
  185.8780  177.8990  146.9850 C   0  0  0  0  0  0  0  0  0  0  0  0
  185.9290  176.7900  148.0140 C   0  0  0  0  0  1  0  0  0  0  0  0
  186.7150  179.1410  147.2530 C   0  0  0  0  0  1  0  0  0  0  0  0
  185.6000  177.4650  145.6050 C   0  0  1  0  0  3  0  0  0  0  0  0
  184.1740  178.2910  146.4440 S   0  0  0  0  0  0  0  0  0  0  0  0
  183.5630  178.2910  141.8220 C   0  0  0  0  0  3  0  0  0  0  0  0
  182.3270  178.0670  141.7610 O   0  0  0  0  0  0  0  0  0  0  0  0
  186.3310  176.7950  141.5640 O   0  0  0  0  0  0  0  0  0  0  0  0
  187.2250  176.7950  140.4880 C   0  0  0  0  0  2  0  0  0  0  0  0
  186.5340  177.3130  139.2400 C   0  0  0  0  0  2  0  0  0  0  0  0
  186.6910  176.3970  138.1950 O   0  0  0  0  0  1  0  0  0  0  0  0
  193.5010  175.6970  142.6230 O   0  0  0  0  0  0  0  0  0  0  0  0
  195.4350  174.5100  143.1720 O   0  0  0  0  0  1  0  0  0  0  0  0
  193.3660  174.5340  140.0730 C   0  0  2  0  0  3  0  0  0  0  0  0
  194.7070  175.1180  142.1460 C   0  0  2  0  0  0  0  0  0  0  0  0
  195.2290  176.0300  140.0400 O   0  0  0  0  0  0  0  0  0  0  0  0
  195.5810  176.1010  141.3940 C   0  0  0  0  0  2  0  0  0  0  0  0
  194.8550  174.6920  139.8100 C   0  0  1  0  0  3  0  0  0  0  0  0
  194.3840  174.0700  141.1090 C   0  0  2  0  0  3  0  0  0  0  0  0
  190.0720  170.9280  139.9730 O   0  0  0  0  0  0  0  0  0  0  0  0
  191.0480  171.4640  139.3790 C   0  0  0  0  0  0  0  0  0  0  0  0
  192.7860  173.3360  139.3840 C   0  0  0  0  0  0  0  0  0  0  0  0
  191.6690  172.6270  139.9470 N   0  0  0  0  0  2  0  0  0  0  0  0
  191.5370  170.8800  138.1760 N   0  0  0  0  0  1  0  0  0  0  0  0
  193.3150  172.9500  138.3060 O   0  0  0  0  0  0  0  0  0  0  0  0
  1 10  1  0  0  0  0
  1 16  1  1  0  0  0
  2 11  1  0  0  0  0
  4 35  1  6  0  0  0
  4 12  1  0  0  0  0
  5  4  1  0  0  0  0
  6  7  1  0  0  0  0
  7  9  1  0  0  0  0
  7  2  2  0  0  0  0
  8  5  1  0  0  0  0
  8  1  1  0  0  0  0
  9  8  2  0  0  0  0
 11  5  2  0  0  0  0
 11  3  1  0  0  0  0
 12 10  1  6  0  0  0
 12 13  1  0  0  0  0
 13 14  1  0  0  0  0
 13 15  1  1  0  0  0
 14 15  1  0  0  0  0
 17 16  1  0  0  0  0
 18 19  2  0  0  0  0
 20 19  1  6  0  0  0
 20 27  1  0  0  0  0
 21 22  1  0  0  0  0
 22 20  1  0  0  0  0
 22 17  1  6  0  0  0
 23 31  1  1  0  0  0
 23 21  1  0  0  0  0
 23 19  1  0  0  0  0
 24 26  1  0  0  0  0
 24 25  1  0  0  0  0
 27 28  1  1  0  0  0
 27 24  1  0  0  0  0
 28 24  1  0  0  0  0
 29 18  1  0  0  0  0
 30 29  2  0  0  0  0
 32 31  1  0  0  0  0
 33 32  1  0  0  0  0
 34 33  1  0  0  0  0
 37 45  1  6  0  0  0
 37 42  1  0  0  0  0
 38 35  1  0  0  0  0
 38 36  1  1  0  0  0
 39 40  1  0  0  0  0
 40 38  1  0  0  0  0
 41 39  1  1  0  0  0
 41 37  1  0  0  0  0
 41 42  1  0  0  0  0
 42 38  1  0  0  0  0
 44 46  1  0  0  0  0
 44 43  2  0  0  0  0
 45 46  1  0  0  0  0
 47 44  1  0  0  0  0
 48 45  2  0  0  0  0
M  END
>  <MODEL>
5

>  <REMARK>
 VINA RESULT:      -6.7      3.372      8.900
  Name = 
  12 active torsions:
  status: ('A' for Active; 'I' for Inactive)
    1  A    between atoms: N_1  and  C_14
    2  A    between atoms: C_2  and  C_34
    3  A    between atoms: C_8  and  C_45
    4  A    between atoms: C_9  and  O_48
    5  A    between atoms: C_11  and  C_28
    6  A    between atoms: C_17  and  O_48
    7  A    between atoms: O_21  and  C_35
    8  A    between atoms: O_21  and  C_44
    9  A    between atoms: C_24  and  C_35
   10  A    between atoms: C_27  and  C_29
   11  A    between atoms: C_33  and  C_34
   12  A    between atoms: C_33  and  C_39
                            x       y       z     vdW  Elec       q    Type
                         _______ _______ _______ _____ _____    ______ ____

>  <TORSDO>
F 12

$$$$
=
 OpenBabel11062418273D

 48 54  0  0  1  0  0  0  0  0999 V2000
  193.0640  176.3410  143.4100 C   0  0  2  0  0  3  0  0  0  0  0  0
  190.6680  175.0750  146.7630 C   0  0  0  0  0  3  0  0  0  0  0  0
  189.6130  173.2540  145.4450 C   0  0  0  0  0  1  0  0  0  0  0  0
  190.8100  174.4980  142.9860 C   0  0  2  0  0  3  0  0  0  0  0  0
  191.1430  174.9670  144.3800 C   0  0  0  0  0  0  0  0  0  0  0  0
  191.6980  176.7930  148.1560 N   0  0  0  0  0  1  0  0  0  0  0  0
  191.5300  176.1640  146.8920 C   0  0  0  0  0  0  0  0  0  0  0  0
  192.1060  175.9900  144.5380 C   0  0  0  0  0  0  0  0  0  0  0  0
  192.2710  176.5960  145.7910 C   0  0  0  0  0  3  0  0  0  0  0  0
  192.7030  175.7690  142.1060 N   0  0  0  0  0  2  0  0  0  0  0  0
  190.4780  174.4680  145.5170 C   0  0  0  0  0  0  0  0  0  0  0  0
  192.1620  174.4200  142.2520 C   0  0  2  0  0  3  0  0  0  0  0  0
  192.2330  173.6760  140.9060 C   0  0  2  0  0  3  0  0  0  0  0  0
  191.5140  172.4680  140.9550 O   0  0  0  0  0  0  0  0  0  0  0  0
  192.9220  172.3680  140.9820 C   0  0  0  0  0  2  0  0  0  0  0  0
  194.5060  175.9670  143.7550 C   0  0  0  0  0  2  0  0  0  0  0  0
  195.2920  175.6920  142.4800 C   0  0  0  0  0  2  0  0  0  0  0  0
  197.1360  171.5510  142.0790 N   0  0  0  0  0  0  0  0  0  0  0  0
  196.9060  172.7440  142.5400 C   0  0  0  0  0  0  0  0  0  0  0  0
  197.0630  173.9610  141.7470 C   0  0  2  0  0  3  0  0  0  0  0  0
  196.6630  174.4820  144.0730 O   0  0  0  0  0  0  0  0  0  0  0  0
  196.6480  175.0360  142.7670 C   0  0  2  0  0  3  0  0  0  0  0  0
  196.6190  173.0740  143.9540 C   0  0  1  0  0  3  0  0  0  0  0  0
  196.7210  174.7940  139.3870 C   0  0  0  0  0  0  0  0  0  0  0  0
  195.6710  175.2890  138.4140 C   0  0  0  0  0  1  0  0  0  0  0  0
  197.9410  175.6740  139.6070 C   0  0  0  0  0  1  0  0  0  0  0  0
  196.2190  173.9220  140.4630 C   0  0  1  0  0  3  0  0  0  0  0  0
  197.1480  173.0320  139.1350 S   0  0  0  0  0  0  0  0  0  0  0  0
  197.0640  170.3760  142.8830 C   0  0  0  0  0  3  0  0  0  0  0  0
  196.0170  169.6800  142.8840 O   0  0  0  0  0  0  0  0  0  0  0  0
  195.3480  172.6070  144.3130 O   0  0  0  0  0  0  0  0  0  0  0  0
  195.4410  172.3330  145.6830 C   0  0  0  0  0  2  0  0  0  0  0  0
  196.8090  171.7610  146.0050 C   0  0  0  0  0  2  0  0  0  0  0  0
  196.6740  170.4640  146.5120 O   0  0  0  0  0  1  0  0  0  0  0  0
  190.0170  175.4900  142.3590 O   0  0  0  0  0  0  0  0  0  0  0  0
  188.5580  173.6730  142.2180 O   0  0  0  0  0  1  0  0  0  0  0  0
  188.0390  177.1460  143.4640 C   0  0  2  0  0  3  0  0  0  0  0  0
  188.6770  175.0640  142.1620 C   0  0  2  0  0  0  0  0  0  0  0  0
  187.4420  176.8080  141.1750 O   0  0  0  0  0  0  0  0  0  0  0  0
  188.0690  175.5910  140.8780 C   0  0  0  0  0  2  0  0  0  0  0  0
  186.9650  176.6830  142.4940 C   0  0  1  0  0  3  0  0  0  0  0  0
  187.7990  175.6580  143.2360 C   0  0  2  0  0  3  0  0  0  0  0  0
  184.2450  178.6350  146.1570 O   0  0  0  0  0  0  0  0  0  0  0  0
  185.4660  178.3180  146.1630 C   0  0  0  0  0  0  0  0  0  0  0  0
  187.4790  177.5350  144.7980 C   0  0  0  0  0  0  0  0  0  0  0  0
  186.0990  177.9170  144.9390 N   0  0  0  0  0  2  0  0  0  0  0  0
  186.2010  178.4030  147.3800 N   0  0  0  0  0  1  0  0  0  0  0  0
  188.2510  177.5380  145.7950 O   0  0  0  0  0  0  0  0  0  0  0  0
  1 16  1  1  0  0  0
  1  8  1  0  0  0  0
  2  7  1  0  0  0  0
  3 11  1  0  0  0  0
  4 35  1  6  0  0  0
  4  5  1  0  0  0  0
  5  8  2  0  0  0  0
  5 11  1  0  0  0  0
  7  6  1  0  0  0  0
  8  9  1  0  0  0  0
  9  7  2  0  0  0  0
 10  1  1  0  0  0  0
 11  2  2  0  0  0  0
 12 10  1  6  0  0  0
 12  4  1  0  0  0  0
 13 14  1  0  0  0  0
 13 15  1  1  0  0  0
 13 12  1  0  0  0  0
 14 15  1  0  0  0  0
 17 16  1  0  0  0  0
 18 19  2  0  0  0  0
 18 29  1  0  0  0  0
 19 23  1  0  0  0  0
 20 19  1  1  0  0  0
 20 22  1  0  0  0  0
 22 17  1  6  0  0  0
 22 21  1  0  0  0  0
 23 21  1  0  0  0  0
 23 31  1  6  0  0  0
 24 26  1  0  0  0  0
 24 27  1  0  0  0  0
 25 24  1  0  0  0  0
 27 28  1  6  0  0  0
 27 20  1  0  0  0  0
 28 24  1  0  0  0  0
 29 30  2  0  0  0  0
 31 32  1  0  0  0  0
 32 33  1  0  0  0  0
 33 34  1  0  0  0  0
 37 45  1  1  0  0  0
 38 36  1  1  0  0  0
 38 35  1  0  0  0  0
 38 42  1  0  0  0  0
 40 39  1  0  0  0  0
 40 38  1  0  0  0  0
 41 39  1  6  0  0  0
 41 42  1  0  0  0  0
 41 37  1  0  0  0  0
 42 37  1  0  0  0  0
 43 44  2  0  0  0  0
 44 47  1  0  0  0  0
 45 46  1  0  0  0  0
 45 48  2  0  0  0  0
 46 44  1  0  0  0  0
M  END
>  <MODEL>
6

>  <REMARK>
 VINA RESULT:      -6.5      2.826      4.871
  Name = 
  12 active torsions:
  status: ('A' for Active; 'I' for Inactive)
    1  A    between atoms: N_1  and  C_14
    2  A    between atoms: C_2  and  C_34
    3  A    between atoms: C_8  and  C_45
    4  A    between atoms: C_9  and  O_48
    5  A    between atoms: C_11  and  C_28
    6  A    between atoms: C_17  and  O_48
    7  A    between atoms: O_21  and  C_35
    8  A    between atoms: O_21  and  C_44
    9  A    between atoms: C_24  and  C_35
   10  A    between atoms: C_27  and  C_29
   11  A    between atoms: C_33  and  C_34
   12  A    between atoms: C_33  and  C_39
                            x       y       z     vdW  Elec       q    Type
                         _______ _______ _______ _____ _____    ______ ____

>  <TORSDO>
F 12

$$$$
=
 OpenBabel11062418273D

 48 54  0  0  1  0  0  0  0  0999 V2000
  189.3250  173.8040  141.7140 C   0  0  2  0  0  3  0  0  0  0  0  0
  188.2960  177.9900  141.8140 C   0  0  0  0  0  3  0  0  0  0  0  0
  190.2230  178.5270  143.2850 C   0  0  0  0  0  1  0  0  0  0  0  0
  190.5790  175.5740  143.7030 C   0  0  2  0  0  3  0  0  0  0  0  0
  189.6060  176.1420  142.7000 C   0  0  0  0  0  0  0  0  0  0  0  0
  186.4160  177.5700  140.3160 N   0  0  0  0  0  1  0  0  0  0  0  0
  187.5040  177.0930  141.0980 C   0  0  0  0  0  0  0  0  0  0  0  0
  188.8800  175.2500  141.8800 C   0  0  0  0  0  0  0  0  0  0  0  0
  187.8170  175.7330  141.1050 C   0  0  0  0  0  3  0  0  0  0  0  0
  190.3380  173.3650  142.6830 N   0  0  0  0  0  2  0  0  0  0  0  0
  189.3510  177.5250  142.6070 C   0  0  0  0  0  0  0  0  0  0  0  0
  191.2990  174.4300  142.9630 C   0  0  2  0  0  3  0  0  0  0  0  0
  192.5780  173.8360  143.5820 C   0  0  2  0  0  3  0  0  0  0  0  0
  193.4140  174.8470  144.0880 O   0  0  0  0  0  0  0  0  0  0  0  0
  193.8200  174.2350  142.8830 C   0  0  0  0  0  2  0  0  0  0  0  0
  189.8160  173.5240  140.2930 C   0  0  0  0  0  2  0  0  0  0  0  0
  190.5110  172.1700  140.2410 C   0  0  0  0  0  2  0  0  0  0  0  0
  191.2920  169.6950  136.5030 N   0  0  0  0  0  0  0  0  0  0  0  0
  190.6460  170.3790  137.3990 C   0  0  0  0  0  0  0  0  0  0  0  0
  190.6050  170.0190  138.8150 C   0  0  2  0  0  3  0  0  0  0  0  0
  189.0640  171.8160  138.3280 O   0  0  0  0  0  0  0  0  0  0  0  0
  189.7400  171.1560  139.3860 C   0  0  2  0  0  3  0  0  0  0  0  0
  189.7310  171.5080  137.1200 C   0  0  1  0  0  3  0  0  0  0  0  0
  192.0710  169.1310  140.6710 C   0  0  0  0  0  0  0  0  0  0  0  0
  193.2000  169.5010  141.6100 C   0  0  0  0  0  1  0  0  0  0  0  0
  190.8030  168.5640  141.2900 C   0  0  0  0  0  1  0  0  0  0  0  0
  192.0140  169.9050  139.4190 C   0  0  1  0  0  3  0  0  0  0  0  0
  192.6410  168.1780  139.2160 S   0  0  0  0  0  0  0  0  0  0  0  0
  191.2560  170.0040  135.1100 C   0  0  0  0  0  3  0  0  0  0  0  0
  192.2400  170.5690  134.5690 O   0  0  0  0  0  0  0  0  0  0  0  0
  190.4560  172.6240  136.6810 O   0  0  0  0  0  0  0  0  0  0  0  0
  189.6660  173.1910  135.6750 C   0  0  0  0  0  2  0  0  0  0  0  0
  190.2330  174.5390  135.2690 C   0  0  0  0  0  2  0  0  0  0  0  0
  191.1920  174.9500  136.2000 O   0  0  0  0  0  1  0  0  0  0  0  0
  189.8410  175.0180  144.7750 O   0  0  0  0  0  0  0  0  0  0  0  0
  191.1550  176.5270  145.9790 O   0  0  0  0  0  1  0  0  0  0  0  0
  187.4620  176.0480  145.8500 C   0  0  2  0  0  3  0  0  0  0  0  0
  189.9810  175.7700  145.9720 C   0  0  2  0  0  0  0  0  0  0  0  0
  188.5570  174.8790  147.6220 O   0  0  0  0  0  0  0  0  0  0  0  0
  189.8990  174.9160  147.2220 C   0  0  0  0  0  2  0  0  0  0  0  0
  188.0140  176.1270  147.2630 C   0  0  1  0  0  3  0  0  0  0  0  0
  188.8090  176.7110  146.1130 C   0  0  2  0  0  3  0  0  0  0  0  0
  184.2920  178.1320  142.7700 O   0  0  0  0  0  0  0  0  0  0  0  0
  184.7990  178.1670  143.9250 C   0  0  0  0  0  0  0  0  0  0  0  0
  186.4390  177.1090  145.5730 C   0  0  0  0  0  0  0  0  0  0  0  0
  185.7790  177.1870  144.2980 N   0  0  0  0  0  2  0  0  0  0  0  0
  184.4140  179.2020  144.8230 N   0  0  0  0  0  1  0  0  0  0  0  0
  186.1840  177.9460  146.4810 O   0  0  0  0  0  0  0  0  0  0  0  0
  1 16  1  6  0  0  0
  1  8  1  0  0  0  0
  1 10  1  0  0  0  0
  2 11  1  0  0  0  0
  4 35  1  1  0  0  0
  5  4  1  0  0  0  0
  6  7  1  0  0  0  0
  7  9  1  0  0  0  0
  7  2  2  0  0  0  0
  8  5  1  0  0  0  0
  9  8  2  0  0  0  0
 11  5  2  0  0  0  0
 11  3  1  0  0  0  0
 12 10  1  1  0  0  0
 12 13  1  0  0  0  0
 12  4  1  0  0  0  0
 13 15  1  6  0  0  0
 13 14  1  0  0  0  0
 15 14  1  0  0  0  0
 17 16  1  0  0  0  0
 18 19  2  0  0  0  0
 20 19  1  6  0  0  0
 20 22  1  0  0  0  0
 20 27  1  0  0  0  0
 21 22  1  0  0  0  0
 22 17  1  6  0  0  0
 23 31  1  1  0  0  0
 23 19  1  0  0  0  0
 23 21  1  0  0  0  0
 24 26  1  0  0  0  0
 24 25  1  0  0  0  0
 27 28  1  6  0  0  0
 27 24  1  0  0  0  0
 28 24  1  0  0  0  0
 29 18  1  0  0  0  0
 30 29  2  0  0  0  0
 32 31  1  0  0  0  0
 33 32  1  0  0  0  0
 33 34  1  0  0  0  0
 35 38  1  0  0  0  0
 37 45  1  1  0  0  0
 37 42  1  0  0  0  0
 37 41  1  0  0  0  0
 38 36  1  6  0  0  0
 38 42  1  0  0  0  0
 38 40  1  0  0  0  0
 40 39  1  0  0  0  0
 41 39  1  6  0  0  0
 42 41  1  0  0  0  0
 43 44  2  0  0  0  0
 44 46  1  0  0  0  0
 44 47  1  0  0  0  0
 45 48  2  0  0  0  0
 46 45  1  0  0  0  0
M  END
>  <MODEL>
7

>  <REMARK>
 VINA RESULT:      -6.3      4.028      6.405
  Name = 
  12 active torsions:
  status: ('A' for Active; 'I' for Inactive)
    1  A    between atoms: N_1  and  C_14
    2  A    between atoms: C_2  and  C_34
    3  A    between atoms: C_8  and  C_45
    4  A    between atoms: C_9  and  O_48
    5  A    between atoms: C_11  and  C_28
    6  A    between atoms: C_17  and  O_48
    7  A    between atoms: O_21  and  C_35
    8  A    between atoms: O_21  and  C_44
    9  A    between atoms: C_24  and  C_35
   10  A    between atoms: C_27  and  C_29
   11  A    between atoms: C_33  and  C_34
   12  A    between atoms: C_33  and  C_39
                            x       y       z     vdW  Elec       q    Type
                         _______ _______ _______ _____ _____    ______ ____

>  <TORSDO>
F 12

$$$$
=
 OpenBabel11062418273D

 48 54  0  0  1  0  0  0  0  0999 V2000
  192.5000  174.5050  141.8060 C   0  0  2  0  0  3  0  0  0  0  0  0
  194.6580  176.4430  144.9960 C   0  0  0  0  0  3  0  0  0  0  0  0
  192.7950  176.0880  146.6000 C   0  0  0  0  0  1  0  0  0  0  0  0
  191.0850  175.2980  144.2610 C   0  0  2  0  0  3  0  0  0  0  0  0
  192.5680  175.5390  144.1390 C   0  0  0  0  0  0  0  0  0  0  0  0
  196.5650  176.7770  143.5120 N   0  0  0  0  0  1  0  0  0  0  0  0
  195.2300  176.3390  143.7290 C   0  0  0  0  0  0  0  0  0  0  0  0
  193.1900  175.3230  142.8880 C   0  0  0  0  0  0  0  0  0  0  0  0
  194.5090  175.7490  142.6890 C   0  0  0  0  0  3  0  0  0  0  0  0
  191.0750  174.2480  142.0530 N   0  0  0  0  0  2  0  0  0  0  0  0
  193.3360  176.0380  145.2100 C   0  0  0  0  0  0  0  0  0  0  0  0
  190.8200  174.0020  143.4700 C   0  0  2  0  0  3  0  0  0  0  0  0
  189.4660  173.2900  143.6460 C   0  0  2  0  0  3  0  0  0  0  0  0
  189.5580  172.2500  144.5880 O   0  0  0  0  0  0  0  0  0  0  0  0
  189.4810  171.8690  143.2310 C   0  0  0  0  0  2  0  0  0  0  0  0
  193.2240  173.1840  141.5470 C   0  0  0  0  0  2  0  0  0  0  0  0
  193.6830  173.1170  140.0960 C   0  0  0  0  0  2  0  0  0  0  0  0
  191.3940  172.3840  136.2330 N   0  0  0  0  0  0  0  0  0  0  0  0
  191.7990  172.2300  137.4580 C   0  0  0  0  0  0  0  0  0  0  0  0
  193.1930  171.9930  137.8240 C   0  0  2  0  0  3  0  0  0  0  0  0
  191.7330  171.7220  139.7310 O   0  0  0  0  0  0  0  0  0  0  0  0
  193.0880  171.9120  139.3570 C   0  0  2  0  0  3  0  0  0  0  0  0
  190.9190  172.1050  138.6410 C   0  0  1  0  0  3  0  0  0  0  0  0
  195.5420  172.7070  137.2280 C   0  0  0  0  0  0  0  0  0  0  0  0
  196.5300  173.8490  137.3430 C   0  0  0  0  0  1  0  0  0  0  0  0
  195.9940  171.3390  137.7130 C   0  0  0  0  0  1  0  0  0  0  0  0
  194.1220  173.0960  137.2910 C   0  0  1  0  0  3  0  0  0  0  0  0
  194.7130  172.6480  135.5970 S   0  0  0  0  0  0  0  0  0  0  0  0
  190.0200  172.5290  135.8770 C   0  0  0  0  0  3  0  0  0  0  0  0
  189.3270  171.5110  135.6260 O   0  0  0  0  0  0  0  0  0  0  0  0
  190.3000  173.3300  138.9180 O   0  0  0  0  0  0  0  0  0  0  0  0
  189.0810  172.9890  139.5160 C   0  0  0  0  0  2  0  0  0  0  0  0
  188.1940  174.2160  139.6190 C   0  0  0  0  0  2  0  0  0  0  0  0
  187.8330  174.6510  138.3400 O   0  0  0  0  0  1  0  0  0  0  0  0
  190.4050  176.3610  143.6180 O   0  0  0  0  0  0  0  0  0  0  0  0
  190.4390  178.3090  144.9030 O   0  0  0  0  0  1  0  0  0  0  0  0
  187.6340  176.5310  143.2140 C   0  0  2  0  0  3  0  0  0  0  0  0
  189.6990  177.1830  144.5360 C   0  0  2  0  0  0  0  0  0  0  0  0
  187.9520  175.9410  145.5080 O   0  0  0  0  0  0  0  0  0  0  0  0
  189.2370  176.4330  145.7690 C   0  0  0  0  0  2  0  0  0  0  0  0
  187.3420  176.8870  144.6630 C   0  0  1  0  0  3  0  0  0  0  0  0
  188.4100  177.6470  143.9040 C   0  0  2  0  0  3  0  0  0  0  0  0
  183.1570  178.2940  142.3630 O   0  0  0  0  0  0  0  0  0  0  0  0
  184.2900  178.0430  141.8670 C   0  0  0  0  0  0  0  0  0  0  0  0
  186.6450  177.1360  142.2640 C   0  0  0  0  0  0  0  0  0  0  0  0
  185.3150  177.4740  142.6950 N   0  0  0  0  0  2  0  0  0  0  0  0
  184.5150  178.2950  140.4840 N   0  0  0  0  0  1  0  0  0  0  0  0
  187.0000  177.3240  141.0690 O   0  0  0  0  0  0  0  0  0  0  0  0
  1 16  1  1  0  0  0
  1 10  1  0  0  0  0
  1  8  1  0  0  0  0
  2 11  1  0  0  0  0
  4 35  1  6  0  0  0
  5  4  1  0  0  0  0
  5 11  2  0  0  0  0
  6  7  1  0  0  0  0
  7  2  2  0  0  0  0
  8  5  1  0  0  0  0
  9  8  2  0  0  0  0
  9  7  1  0  0  0  0
 11  3  1  0  0  0  0
 12 10  1  6  0  0  0
 12 13  1  0  0  0  0
 12  4  1  0  0  0  0
 13 15  1  6  0  0  0
 13 14  1  0  0  0  0
 15 14  1  0  0  0  0
 17 16  1  0  0  0  0
 18 19  2  0  0  0  0
 19 23  1  0  0  0  0
 20 19  1  6  0  0  0
 20 22  1  0  0  0  0
 22 21  1  0  0  0  0
 22 17  1  1  0  0  0
 23 31  1  1  0  0  0
 23 21  1  0  0  0  0
 24 27  1  0  0  0  0
 24 25  1  0  0  0  0
 24 26  1  0  0  0  0
 27 28  1  6  0  0  0
 27 20  1  0  0  0  0
 28 24  1  0  0  0  0
 29 18  1  0  0  0  0
 30 29  2  0  0  0  0
 31 32  1  0  0  0  0
 32 33  1  0  0  0  0
 34 33  1  0  0  0  0
 35 38  1  0  0  0  0
 37 45  1  6  0  0  0
 37 42  1  0  0  0  0
 37 41  1  0  0  0  0
 38 36  1  1  0  0  0
 38 40  1  0  0  0  0
 39 40  1  0  0  0  0
 41 39  1  1  0  0  0
 42 38  1  0  0  0  0
 42 41  1  0  0  0  0
 44 43  2  0  0  0  0
 44 46  1  0  0  0  0
 45 46  1  0  0  0  0
 47 44  1  0  0  0  0
 48 45  2  0  0  0  0
M  END
>  <MODEL>
8

>  <REMARK>
 VINA RESULT:      -6.1      3.693      6.230
  Name = 
  12 active torsions:
  status: ('A' for Active; 'I' for Inactive)
    1  A    between atoms: N_1  and  C_14
    2  A    between atoms: C_2  and  C_34
    3  A    between atoms: C_8  and  C_45
    4  A    between atoms: C_9  and  O_48
    5  A    between atoms: C_11  and  C_28
    6  A    between atoms: C_17  and  O_48
    7  A    between atoms: O_21  and  C_35
    8  A    between atoms: O_21  and  C_44
    9  A    between atoms: C_24  and  C_35
   10  A    between atoms: C_27  and  C_29
   11  A    between atoms: C_33  and  C_34
   12  A    between atoms: C_33  and  C_39
                            x       y       z     vdW  Elec       q    Type
                         _______ _______ _______ _____ _____    ______ ____

>  <TORSDO>
F 12

$$$$
=
 OpenBabel11062418273D

 48 54  0  0  1  0  0  0  0  0999 V2000
  189.3180  174.0140  141.6220 C   0  0  2  0  0  3  0  0  0  0  0  0
  188.4120  178.2140  141.9750 C   0  0  0  0  0  3  0  0  0  0  0  0
  190.3840  178.6160  143.4290 C   0  0  0  0  0  1  0  0  0  0  0  0
  190.6640  175.6360  143.6760 C   0  0  2  0  0  3  0  0  0  0  0  0
  189.6870  176.2850  142.7290 C   0  0  0  0  0  0  0  0  0  0  0  0
  186.4890  177.9300  140.5000 N   0  0  0  0  0  1  0  0  0  0  0  0
  187.5790  177.3800  141.2300 C   0  0  0  0  0  0  0  0  0  0  0  0
  188.9180  175.4600  141.8770 C   0  0  0  0  0  0  0  0  0  0  0  0
  187.8530  176.0140  141.1550 C   0  0  0  0  0  3  0  0  0  0  0  0
  190.3390  173.4940  142.5420 N   0  0  0  0  0  2  0  0  0  0  0  0
  189.4690  177.6770  142.7170 C   0  0  0  0  0  0  0  0  0  0  0  0
  191.3350  174.5150  142.8580 C   0  0  2  0  0  3  0  0  0  0  0  0
  192.6090  173.8530  143.4140 C   0  0  2  0  0  3  0  0  0  0  0  0
  193.3960  174.7790  144.1220 O   0  0  0  0  0  0  0  0  0  0  0  0
  193.8630  174.3980  142.8450 C   0  0  0  0  0  2  0  0  0  0  0  0
  189.7700  173.8000  140.1770 C   0  0  0  0  0  2  0  0  0  0  0  0
  190.6280  172.5450  140.0810 C   0  0  0  0  0  2  0  0  0  0  0  0
  194.6780  171.3060  138.4170 N   0  0  0  0  0  0  0  0  0  0  0  0
  193.5310  171.9100  138.5110 C   0  0  0  0  0  0  0  0  0  0  0  0
  192.2520  171.2080  138.5830 C   0  0  2  0  0  3  0  0  0  0  0  0
  191.9260  173.5890  138.3190 O   0  0  0  0  0  0  0  0  0  0  0  0
  191.2720  172.3880  138.6980 C   0  0  2  0  0  3  0  0  0  0  0  0
  193.3210  173.3700  138.3930 C   0  0  1  0  0  3  0  0  0  0  0  0
  191.1620  169.1830  139.6280 C   0  0  0  0  0  0  0  0  0  0  0  0
  190.6530  168.6170  140.9370 C   0  0  0  0  0  1  0  0  0  0  0  0
  190.2000  169.1940  138.4500 C   0  0  0  0  0  1  0  0  0  0  0  0
  192.2100  170.2100  139.7520 C   0  0  1  0  0  3  0  0  0  0  0  0
  192.8250  168.5620  139.1840 S   0  0  0  0  0  0  0  0  0  0  0  0
  195.9150  171.9990  138.2600 C   0  0  0  0  0  3  0  0  0  0  0  0
  196.4240  172.1200  137.1170 O   0  0  0  0  0  0  0  0  0  0  0  0
  193.8460  174.0290  139.5120 O   0  0  0  0  0  0  0  0  0  0  0  0
  194.3410  175.2400  139.0160 C   0  0  0  0  0  2  0  0  0  0  0  0
  195.6170  175.6160  139.7460 C   0  0  0  0  0  2  0  0  0  0  0  0
  196.7270  175.2910  138.9610 O   0  0  0  0  0  1  0  0  0  0  0  0
  189.9330  175.0420  144.7330 O   0  0  0  0  0  0  0  0  0  0  0  0
  191.2680  176.5220  145.9490 O   0  0  0  0  0  1  0  0  0  0  0  0
  187.5970  175.8900  146.0350 C   0  0  2  0  0  3  0  0  0  0  0  0
  190.1270  175.7160  145.9680 C   0  0  2  0  0  0  0  0  0  0  0  0
  188.8600  174.6530  147.6430 O   0  0  0  0  0  0  0  0  0  0  0  0
  190.1680  174.7770  147.1560 C   0  0  0  0  0  2  0  0  0  0  0  0
  188.2440  175.8970  147.4100 C   0  0  1  0  0  3  0  0  0  0  0  0
  188.9320  176.5920  146.2530 C   0  0  2  0  0  3  0  0  0  0  0  0
  185.8060  179.8410  143.7870 O   0  0  0  0  0  0  0  0  0  0  0  0
  185.6240  178.9900  144.7010 C   0  0  0  0  0  0  0  0  0  0  0  0
  186.5170  176.9200  145.9040 C   0  0  0  0  0  0  0  0  0  0  0  0
  186.5930  177.9510  144.9030 N   0  0  0  0  0  2  0  0  0  0  0  0
  184.4770  179.1010  145.5370 N   0  0  0  0  0  1  0  0  0  0  0  0
  185.5440  176.8750  146.7060 O   0  0  0  0  0  0  0  0  0  0  0  0
  1 16  1  6  0  0  0
  1  8  1  0  0  0  0
  1 10  1  0  0  0  0
  2 11  1  0  0  0  0
  4 35  1  1  0  0  0
  5  4  1  0  0  0  0
  6  7  1  0  0  0  0
  7  2  2  0  0  0  0
  8  5  1  0  0  0  0
  9  7  1  0  0  0  0
  9  8  2  0  0  0  0
 11  5  2  0  0  0  0
 11  3  1  0  0  0  0
 12 10  1  1  0  0  0
 12 13  1  0  0  0  0
 12  4  1  0  0  0  0
 13 15  1  6  0  0  0
 13 14  1  0  0  0  0
 15 14  1  0  0  0  0
 17 16  1  0  0  0  0
 18 19  2  0  0  0  0
 20 19  1  1  0  0  0
 20 22  1  0  0  0  0
 20 27  1  0  0  0  0
 21 23  1  0  0  0  0
 21 22  1  0  0  0  0
 22 17  1  1  0  0  0
 23 19  1  0  0  0  0
 23 31  1  1  0  0  0
 24 27  1  0  0  0  0
 24 25  1  0  0  0  0
 26 24  1  0  0  0  0
 27 28  1  6  0  0  0
 28 24  1  0  0  0  0
 29 18  1  0  0  0  0
 30 29  2  0  0  0  0
 32 31  1  0  0  0  0
 32 33  1  0  0  0  0
 34 33  1  0  0  0  0
 35 38  1  0  0  0  0
 37 45  1  1  0  0  0
 37 42  1  0  0  0  0
 37 41  1  0  0  0  0
 38 36  1  6  0  0  0
 38 42  1  0  0  0  0
 38 40  1  0  0  0  0
 40 39  1  0  0  0  0
 41 39  1  6  0  0  0
 42 41  1  0  0  0  0
 43 44  2  0  0  0  0
 44 46  1  0  0  0  0
 44 47  1  0  0  0  0
 45 48  2  0  0  0  0
 46 45  1  0  0  0  0
M  END
>  <MODEL>
9

>  <REMARK>
 VINA RESULT:      -6.1      3.739      5.544
  Name = 
  12 active torsions:
  status: ('A' for Active; 'I' for Inactive)
    1  A    between atoms: N_1  and  C_14
    2  A    between atoms: C_2  and  C_34
    3  A    between atoms: C_8  and  C_45
    4  A    between atoms: C_9  and  O_48
    5  A    between atoms: C_11  and  C_28
    6  A    between atoms: C_17  and  O_48
    7  A    between atoms: O_21  and  C_35
    8  A    between atoms: O_21  and  C_44
    9  A    between atoms: C_24  and  C_35
   10  A    between atoms: C_27  and  C_29
   11  A    between atoms: C_33  and  C_34
   12  A    between atoms: C_33  and  C_39
                            x       y       z     vdW  Elec       q    Type
                         _______ _______ _______ _____ _____    ______ ____

>  <TORSDO>
F 12

$$$$
