=
 OpenBabel11072409403D

 25 28  0  0  1  0  0  0  0  0999 V2000
  184.8280  178.0050  146.2400 C   0  0  0  0  0  0  0  0  0  0  0  0
  184.9040  178.2230  147.6370 N   0  0  0  0  0  2  0  0  0  0  0  0
  186.1000  176.4230  143.4890 C   0  0  0  0  0  2  0  0  0  0  0  0
  186.3160  177.5970  144.4420 C   0  0  2  0  0  3  0  0  0  0  0  0
  185.9980  176.9090  142.0360 C   0  0  1  0  0  3  0  0  0  0  0  0
  186.6680  177.0650  146.9260 C   0  0  0  0  0  0  0  0  0  0  0  0
  185.9350  177.2170  145.8280 C   0  0  0  0  0  0  0  0  0  0  0  0
  185.0440  179.1210  142.8210 C   0  0  0  0  0  2  0  0  0  0  0  0
  184.5110  178.8930  145.3160 C   0  0  0  0  0  2  0  0  0  0  0  0
  185.3170  178.6310  144.1630 N   0  0  1  0  0  0  0  0  0  0  0  0
  185.9740  177.6540  148.0390 N   0  0  0  0  0  0  0  0  0  0  0  0
  184.8620  177.9280  141.8800 C   0  0  0  0  0  2  0  0  0  0  0  0
  188.3580  175.2660  147.2380 C   0  0  0  0  0  3  0  0  0  0  0  0
  190.7310  175.7240  147.0900 C   0  0  0  0  0  0  0  0  0  0  0  0
  189.1310  177.5130  146.7830 C   0  0  0  0  0  3  0  0  0  0  0  0
  192.1390  175.2520  147.1460 C   0  0  0  0  0  1  0  0  0  0  0  0
  189.6830  174.8220  147.2900 C   0  0  0  0  0  3  0  0  0  0  0  0
  190.4550  177.0700  146.8350 C   0  0  0  0  0  3  0  0  0  0  0  0
  188.0710  176.6150  146.9890 C   0  0  0  0  0  0  0  0  0  0  0  0
  187.2100  177.4680  141.6180 O   0  0  0  0  0  0  0  0  0  0  0  0
  188.1190  176.4070  141.6200 C   0  0  0  0  0  2  0  0  0  0  0  0
  189.3720  176.7900  142.3950 C   0  0  0  0  0  2  0  0  0  0  0  0
  189.0580  175.0840  144.0430 F   0  0  0  0  0  0  0  0  0  0  0  0
  189.9700  175.6050  143.1440 C   0  0  0  0  0  3  0  0  0  0  0  0
  191.1270  175.9750  143.8040 F   0  0  0  0  0  0  0  0  0  0  0  0
  1  2  1  0  0  0  0
  2 11  1  0  0  0  0
  4  3  1  6  0  0  0
  4  7  1  0  0  0  0
  5 20  1  1  0  0  0
  5  3  1  0  0  0  0
  6 19  1  0  0  0  0
  6 11  2  0  0  0  0
  7  1  2  0  0  0  0
  7  6  1  0  0  0  0
  9  1  1  0  0  0  0
 10  8  1  6  0  0  0
 10  4  1  0  0  0  0
 10  9  1  0  0  0  0
 12  5  1  0  0  0  0
 12  8  1  0  0  0  0
 13 17  1  0  0  0  0
 14 16  1  0  0  0  0
 14 17  2  0  0  0  0
 15 18  2  0  0  0  0
 15 19  1  0  0  0  0
 18 14  1  0  0  0  0
 19 13  2  0  0  0  0
 20 21  1  0  0  0  0
 21 22  1  0  0  0  0
 22 24  1  0  0  0  0
 24 25  1  0  0  0  0
 24 23  1  0  0  0  0
M  END
>  <MODEL>
1

>  <REMARK>
 VINA RESULT:      -7.1      0.000      0.000
  Name = 
  5 active torsions:
  status: ('A' for Active; 'I' for Inactive)
    1  A    between atoms: C_5  and  O_17
    2  A    between atoms: C_6  and  C_22
    3  A    between atoms: C_12  and  C_19
    4  A    between atoms: C_12  and  C_21
    5  A    between atoms: O_17  and  C_19
                            x       y       z     vdW  Elec       q    Type
                         _______ _______ _______ _____ _____    ______ ____

>  <TORSDO>
F 5

$$$$
=
 OpenBabel11072409403D

 25 28  0  0  1  0  0  0  0  0999 V2000
  186.2310  177.8110  140.7550 C   0  0  0  0  0  0  0  0  0  0  0  0
  186.6130  177.0890  139.5980 N   0  0  0  0  0  0  0  0  0  0  0  0
  186.7510  178.4290  144.0770 C   0  0  0  0  0  2  0  0  0  0  0  0
  186.1160  177.4480  143.0940 C   0  0  2  0  0  3  0  0  0  0  0  0
  185.7090  178.9560  145.0750 C   0  0  1  0  0  3  0  0  0  0  0  0
  187.6570  176.2970  141.3980 C   0  0  0  0  0  0  0  0  0  0  0  0
  186.9550  177.3200  141.8730 C   0  0  1  0  0  3  0  0  0  0  0  0
  183.8800  178.6750  143.3460 C   0  0  0  0  0  2  0  0  0  0  0  0
  185.0060  178.1600  141.1030 C   0  0  0  0  0  2  0  0  0  0  0  0
  184.9080  178.0520  142.5270 N   0  0  1  0  0  0  0  0  0  0  0  0
  187.4630  176.2150  139.9760 N   0  0  0  0  0  0  0  0  0  0  0  0
  184.5420  179.6290  144.3410 C   0  0  0  0  0  2  0  0  0  0  0  0
  188.1840  173.9000  141.8100 C   0  0  0  0  0  3  0  0  0  0  0  0
  189.5820  173.2160  143.6640 C   0  0  0  0  0  0  0  0  0  0  0  0
  189.0990  175.5610  143.3130 C   0  0  0  0  0  3  0  0  0  0  0  0
  190.2500  172.1420  144.4450 C   0  0  0  0  0  1  0  0  0  0  0  0
  188.8130  172.8900  142.5440 C   0  0  0  0  0  3  0  0  0  0  0  0
  189.7270  174.5520  144.0480 C   0  0  0  0  0  3  0  0  0  0  0  0
  188.3180  175.2420  142.1910 C   0  0  0  0  0  0  0  0  0  0  0  0
  185.2370  177.9180  145.8860 O   0  0  0  0  0  0  0  0  0  0  0  0
  185.9530  178.0360  147.0800 C   0  0  0  0  0  2  0  0  0  0  0  0
  186.4660  176.6730  147.5220 C   0  0  0  0  0  2  0  0  0  0  0  0
  188.2790  175.1250  147.3240 F   0  0  0  0  0  0  0  0  0  0  0  0
  187.7120  176.2500  146.7540 C   0  0  0  0  0  3  0  0  0  0  0  0
  188.6360  177.2780  146.7150 F   0  0  0  0  0  0  0  0  0  0  0  0
  1  9  1  0  0  0  0
  2 11  1  0  0  0  0
  2  1  2  0  0  0  0
  3  5  1  0  0  0  0
  4  3  1  1  0  0  0
  5 20  1  6  0  0  0
  6  7  1  0  0  0  0
  6 19  1  0  0  0  0
  7  1  1  6  0  0  0
  7  4  1  0  0  0  0
  8 12  1  0  0  0  0
 10  9  1  6  0  0  0
 10  4  1  0  0  0  0
 10  8  1  0  0  0  0
 11  6  2  0  0  0  0
 12  5  1  0  0  0  0
 13 19  2  0  0  0  0
 13 17  1  0  0  0  0
 14 18  1  0  0  0  0
 14 16  1  0  0  0  0
 15 18  2  0  0  0  0
 17 14  2  0  0  0  0
 19 15  1  0  0  0  0
 20 21  1  0  0  0  0
 21 22  1  0  0  0  0
 24 23  1  0  0  0  0
 24 22  1  0  0  0  0
 25 24  1  0  0  0  0
M  END
>  <MODEL>
2

>  <REMARK>
 VINA RESULT:      -6.7      2.623      4.758
  Name = 
  5 active torsions:
  status: ('A' for Active; 'I' for Inactive)
    1  A    between atoms: C_5  and  O_17
    2  A    between atoms: C_6  and  C_22
    3  A    between atoms: C_12  and  C_19
    4  A    between atoms: C_12  and  C_21
    5  A    between atoms: O_17  and  C_19
                            x       y       z     vdW  Elec       q    Type
                         _______ _______ _______ _____ _____    ______ ____

>  <TORSDO>
F 5

$$$$
=
 OpenBabel11072409403D

 25 28  0  0  1  0  0  0  0  0999 V2000
  189.7130  173.9490  141.1620 C   0  0  0  0  0  0  0  0  0  0  0  0
  189.0610  174.2510  139.9420 N   0  0  0  0  0  0  0  0  0  0  0  0
  189.7050  174.1690  144.5740 C   0  0  0  0  0  2  0  0  0  0  0  0
  190.0030  174.9450  143.2930 C   0  0  2  0  0  3  0  0  0  0  0  0
  190.9390  174.1270  145.4870 C   0  0  1  0  0  3  0  0  0  0  0  0
  188.0740  175.3000  141.6410 C   0  0  0  0  0  0  0  0  0  0  0  0
  189.0270  174.5860  142.2300 C   0  0  1  0  0  3  0  0  0  0  0  0
  192.4640  174.2520  143.4690 C   0  0  0  0  0  2  0  0  0  0  0  0
  191.0150  173.9320  141.3820 C   0  0  0  0  0  2  0  0  0  0  0  0
  191.2430  174.4360  142.7020 N   0  0  1  0  0  0  0  0  0  0  0  0
  188.0890  175.0280  140.2290 N   0  0  0  0  0  0  0  0  0  0  0  0
  192.1350  173.5000  144.7610 C   0  0  0  0  0  2  0  0  0  0  0  0
  186.3620  176.1060  143.2560 C   0  0  0  0  0  3  0  0  0  0  0  0
  185.8100  178.4550  143.4450 C   0  0  0  0  0  0  0  0  0  0  0  0
  187.4800  177.7280  141.8530 C   0  0  0  0  0  3  0  0  0  0  0  0
  185.0220  179.5460  144.0770 C   0  0  0  0  0  1  0  0  0  0  0  0
  185.6220  177.1320  143.8510 C   0  0  0  0  0  3  0  0  0  0  0  0
  186.7410  178.7540  142.4460 C   0  0  0  0  0  3  0  0  0  0  0  0
  187.2930  176.3940  142.2500 C   0  0  0  0  0  0  0  0  0  0  0  0
  191.2640  175.4120  145.9350 O   0  0  0  0  0  0  0  0  0  0  0  0
  190.3810  175.6630  146.9890 C   0  0  0  0  0  2  0  0  0  0  0  0
  189.9420  177.1210  146.9700 C   0  0  0  0  0  2  0  0  0  0  0  0
  187.8690  176.1500  146.2730 F   0  0  0  0  0  0  0  0  0  0  0  0
  188.6170  177.3130  146.2420 C   0  0  0  0  0  3  0  0  0  0  0  0
  188.8280  177.7070  144.9340 F   0  0  0  0  0  0  0  0  0  0  0  0
  1  9  1  0  0  0  0
  2 11  1  0  0  0  0
  2  1  2  0  0  0  0
  3  5  1  0  0  0  0
  4  3  1  1  0  0  0
  5 20  1  6  0  0  0
  6  7  1  0  0  0  0
  6 19  1  0  0  0  0
  7  1  1  6  0  0  0
  7  4  1  0  0  0  0
  8 12  1  0  0  0  0
 10  9  1  1  0  0  0
 10  4  1  0  0  0  0
 10  8  1  0  0  0  0
 11  6  2  0  0  0  0
 12  5  1  0  0  0  0
 13 17  1  0  0  0  0
 14 17  2  0  0  0  0
 14 16  1  0  0  0  0
 15 19  1  0  0  0  0
 15 18  2  0  0  0  0
 18 14  1  0  0  0  0
 19 13  2  0  0  0  0
 20 21  1  0  0  0  0
 22 21  1  0  0  0  0
 24 23  1  0  0  0  0
 24 22  1  0  0  0  0
 25 24  1  0  0  0  0
M  END
>  <MODEL>
3

>  <REMARK>
 VINA RESULT:      -6.3      3.332      6.530
  Name = 
  5 active torsions:
  status: ('A' for Active; 'I' for Inactive)
    1  A    between atoms: C_5  and  O_17
    2  A    between atoms: C_6  and  C_22
    3  A    between atoms: C_12  and  C_19
    4  A    between atoms: C_12  and  C_21
    5  A    between atoms: O_17  and  C_19
                            x       y       z     vdW  Elec       q    Type
                         _______ _______ _______ _____ _____    ______ ____

>  <TORSDO>
F 5

$$$$
=
 OpenBabel11072409403D

 25 28  0  0  1  0  0  0  0  0999 V2000
  188.8610  174.8970  141.9930 C   0  0  0  0  0  0  0  0  0  0  0  0
  187.8440  175.4560  141.1810 N   0  0  0  0  0  0  0  0  0  0  0  0
  190.0130  174.2550  145.1460 C   0  0  0  0  0  2  0  0  0  0  0  0
  189.8840  175.3430  144.0830 C   0  0  2  0  0  3  0  0  0  0  0  0
  191.4810  174.0580  145.5520 C   0  0  1  0  0  3  0  0  0  0  0  0
  187.5220  175.9870  143.3200 C   0  0  0  0  0  0  0  0  0  0  0  0
  188.5960  175.2050  143.3530 C   0  0  1  0  0  3  0  0  0  0  0  0
  192.2370  174.7740  143.2430 C   0  0  0  0  0  2  0  0  0  0  0  0
  190.1580  174.9020  141.7520 C   0  0  0  0  0  2  0  0  0  0  0  0
  190.8350  175.0720  143.0020 N   0  0  1  0  0  0  0  0  0  0  0  0
  187.0500  176.0780  141.9640 N   0  0  0  0  0  0  0  0  0  0  0  0
  192.3420  173.7050  144.3320 C   0  0  0  0  0  2  0  0  0  0  0  0
  186.8230  176.2990  145.6870 C   0  0  0  0  0  3  0  0  0  0  0  0
  186.1070  178.4570  146.5180 C   0  0  0  0  0  0  0  0  0  0  0  0
  186.7720  178.2100  144.2050 C   0  0  0  0  0  3  0  0  0  0  0  0
  185.6180  179.3100  147.6330 C   0  0  0  0  0  1  0  0  0  0  0  0
  186.3640  177.1010  146.7360 C   0  0  0  0  0  3  0  0  0  0  0  0
  186.3130  179.0120  145.2520 C   0  0  0  0  0  3  0  0  0  0  0  0
  187.0260  176.8450  144.4130 C   0  0  0  0  0  0  0  0  0  0  0  0
  191.9770  175.2070  146.1780 O   0  0  0  0  0  0  0  0  0  0  0  0
  191.1960  175.3610  147.3260 C   0  0  0  0  0  2  0  0  0  0  0  0
  191.1100  176.8310  147.7110 C   0  0  0  0  0  2  0  0  0  0  0  0
  189.9030  177.9310  145.9620 F   0  0  0  0  0  0  0  0  0  0  0  0
  189.8010  177.4680  147.2620 C   0  0  0  0  0  3  0  0  0  0  0  0
  189.4440  178.5030  148.1060 F   0  0  0  0  0  0  0  0  0  0  0  0
  2 11  1  0  0  0  0
  2  1  2  0  0  0  0
  3  5  1  0  0  0  0
  4  3  1  1  0  0  0
  5 20  1  6  0  0  0
  6  7  1  0  0  0  0
  6 19  1  0  0  0  0
  7  1  1  6  0  0  0
  7  4  1  0  0  0  0
  8 12  1  0  0  0  0
  9  1  1  0  0  0  0
 10  9  1  1  0  0  0
 10  8  1  0  0  0  0
 10  4  1  0  0  0  0
 11  6  2  0  0  0  0
 12  5  1  0  0  0  0
 13 17  1  0  0  0  0
 14 17  2  0  0  0  0
 14 16  1  0  0  0  0
 15 19  1  0  0  0  0
 15 18  2  0  0  0  0
 18 14  1  0  0  0  0
 19 13  2  0  0  0  0
 20 21  1  0  0  0  0
 21 22  1  0  0  0  0
 23 24  1  0  0  0  0
 24 22  1  0  0  0  0
 24 25  1  0  0  0  0
M  END
>  <MODEL>
4

>  <REMARK>
 VINA RESULT:      -6.2      2.977      5.865
  Name = 
  5 active torsions:
  status: ('A' for Active; 'I' for Inactive)
    1  A    between atoms: C_5  and  O_17
    2  A    between atoms: C_6  and  C_22
    3  A    between atoms: C_12  and  C_19
    4  A    between atoms: C_12  and  C_21
    5  A    between atoms: O_17  and  C_19
                            x       y       z     vdW  Elec       q    Type
                         _______ _______ _______ _____ _____    ______ ____

>  <TORSDO>
F 5

$$$$
=
 OpenBabel11072409403D

 25 28  0  0  1  0  0  0  0  0999 V2000
  185.6280  178.2850  142.7030 C   0  0  0  0  0  0  0  0  0  0  0  0
  185.4610  178.1630  141.3020 N   0  0  0  0  0  0  0  0  0  0  0  0
  187.6740  177.8950  145.4140 C   0  0  0  0  0  2  0  0  0  0  0  0
  186.7650  177.1460  144.4420 C   0  0  2  0  0  3  0  0  0  0  0  0
  187.2240  177.6760  146.8650 C   0  0  1  0  0  3  0  0  0  0  0  0
  187.3690  177.2160  141.9510 C   0  0  0  0  0  0  0  0  0  0  0  0
  186.8770  177.7230  143.0760 C   0  0  1  0  0  3  0  0  0  0  0  0
  184.8260  177.3910  146.1000 C   0  0  0  0  0  2  0  0  0  0  0  0
  184.7150  178.0640  143.6310 C   0  0  0  0  0  2  0  0  0  0  0  0
  185.3690  177.4610  144.7530 N   0  0  1  0  0  0  0  0  0  0  0  0
  186.4930  177.5540  140.8620 N   0  0  0  0  0  0  0  0  0  0  0  0
  185.7690  178.1210  147.0580 C   0  0  0  0  0  2  0  0  0  0  0  0
  189.6930  176.5000  142.4780 C   0  0  0  0  0  3  0  0  0  0  0  0
  190.5870  174.4060  141.6530 C   0  0  0  0  0  0  0  0  0  0  0  0
  188.3210  175.0550  141.1060 C   0  0  0  0  0  3  0  0  0  0  0  0
  191.7060  173.4340  141.5550 C   0  0  0  0  0  1  0  0  0  0  0  0
  190.7460  175.5850  142.3860 C   0  0  0  0  0  3  0  0  0  0  0  0
  189.3720  174.1400  141.0140 C   0  0  0  0  0  3  0  0  0  0  0  0
  188.4740  176.2450  141.8350 C   0  0  0  0  0  0  0  0  0  0  0  0
  187.3710  176.3330  147.2280 O   0  0  0  0  0  0  0  0  0  0  0  0
  188.7490  176.1020  147.2150 C   0  0  0  0  0  2  0  0  0  0  0  0
  189.0300  174.6070  147.1410 C   0  0  0  0  0  2  0  0  0  0  0  0
  190.8990  175.0080  145.7020 F   0  0  0  0  0  0  0  0  0  0  0  0
  189.7730  174.2230  145.8670 C   0  0  0  0  0  3  0  0  0  0  0  0
  188.9480  174.3410  144.7640 F   0  0  0  0  0  0  0  0  0  0  0  0
  1  7  1  0  0  0  0
  1  9  1  0  0  0  0
  2  1  2  0  0  0  0
  3  5  1  0  0  0  0
  4 10  1  0  0  0  0
  4  3  1  1  0  0  0
  5 12  1  0  0  0  0
  5 20  1  6  0  0  0
  7  6  1  6  0  0  0
  7  4  1  0  0  0  0
  8 12  1  0  0  0  0
 10  9  1  1  0  0  0
 10  8  1  0  0  0  0
 11  2  1  0  0  0  0
 11  6  2  0  0  0  0
 14 17  2  0  0  0  0
 15 19  1  0  0  0  0
 16 14  1  0  0  0  0
 17 13  1  0  0  0  0
 18 15  2  0  0  0  0
 18 14  1  0  0  0  0
 19  6  1  0  0  0  0
 19 13  2  0  0  0  0
 21 20  1  0  0  0  0
 22 21  1  0  0  0  0
 23 24  1  0  0  0  0
 24 22  1  0  0  0  0
 25 24  1  0  0  0  0
M  END
>  <MODEL>
5

>  <REMARK>
 VINA RESULT:      -6.2      2.031      4.747
  Name = 
  5 active torsions:
  status: ('A' for Active; 'I' for Inactive)
    1  A    between atoms: C_5  and  O_17
    2  A    between atoms: C_6  and  C_22
    3  A    between atoms: C_12  and  C_19
    4  A    between atoms: C_12  and  C_21
    5  A    between atoms: O_17  and  C_19
                            x       y       z     vdW  Elec       q    Type
                         _______ _______ _______ _____ _____    ______ ____

>  <TORSDO>
F 5

$$$$
=
 OpenBabel11072409403D

 25 28  0  0  1  0  0  0  0  0999 V2000
  184.9530  178.0350  146.2640 C   0  0  0  0  0  0  0  0  0  0  0  0
  185.0890  178.2750  147.6530 N   0  0  0  0  0  2  0  0  0  0  0  0
  186.1040  176.4090  143.4860 C   0  0  0  0  0  2  0  0  0  0  0  0
  186.3620  177.5970  144.4110 C   0  0  2  0  0  3  0  0  0  0  0  0
  185.9390  176.8720  142.0320 C   0  0  1  0  0  3  0  0  0  0  0  0
  186.8200  177.1040  146.8850 C   0  0  0  0  0  0  0  0  0  0  0  0
  186.0410  177.2400  145.8170 C   0  0  0  0  0  0  0  0  0  0  0  0
  185.0220  179.0960  142.8220 C   0  0  0  0  0  2  0  0  0  0  0  0
  184.5970  178.9090  145.3410 C   0  0  0  0  0  2  0  0  0  0  0  0
  185.3520  178.6280  144.1580 N   0  0  1  0  0  0  0  0  0  0  0  0
  186.1750  177.7110  148.0170 N   0  0  0  0  0  0  0  0  0  0  0  0
  184.7980  177.8900  141.9090 C   0  0  0  0  0  2  0  0  0  0  0  0
  188.5150  175.2830  146.9490 C   0  0  0  0  0  3  0  0  0  0  0  0
  190.8870  175.7640  146.8880 C   0  0  0  0  0  0  0  0  0  0  0  0
  189.2820  177.5740  146.8280 C   0  0  0  0  0  3  0  0  0  0  0  0
  192.2970  175.2930  146.8880 C   0  0  0  0  0  1  0  0  0  0  0  0
  189.8410  174.8400  146.9480 C   0  0  0  0  0  3  0  0  0  0  0  0
  190.6080  177.1320  146.8260 C   0  0  0  0  0  3  0  0  0  0  0  0
  188.2250  176.6530  146.8940 C   0  0  0  0  0  0  0  0  0  0  0  0
  187.1330  177.4230  141.5530 O   0  0  0  0  0  0  0  0  0  0  0  0
  187.4230  176.7050  140.3900 C   0  0  0  0  0  2  0  0  0  0  0  0
  186.6100  177.2460  139.2220 C   0  0  0  0  0  2  0  0  0  0  0  0
  185.4740  176.0440  137.4920 F   0  0  0  0  0  0  0  0  0  0  0  0
  186.7260  176.3660  137.9830 C   0  0  0  0  0  3  0  0  0  0  0  0
  187.4350  175.2130  138.2650 F   0  0  0  0  0  0  0  0  0  0  0  0
  1  2  1  0  0  0  0
  2 11  1  0  0  0  0
  4  3  1  6  0  0  0
  4  7  1  0  0  0  0
  5 20  1  1  0  0  0
  5  3  1  0  0  0  0
  6 19  1  0  0  0  0
  6 11  2  0  0  0  0
  7  1  2  0  0  0  0
  7  6  1  0  0  0  0
  9  1  1  0  0  0  0
 10  8  1  6  0  0  0
 10  4  1  0  0  0  0
 10  9  1  0  0  0  0
 12  5  1  0  0  0  0
 12  8  1  0  0  0  0
 14 16  1  0  0  0  0
 14 17  2  0  0  0  0
 15 19  1  0  0  0  0
 17 13  1  0  0  0  0
 18 15  2  0  0  0  0
 18 14  1  0  0  0  0
 19 13  2  0  0  0  0
 21 20  1  0  0  0  0
 22 21  1  0  0  0  0
 23 24  1  0  0  0  0
 24 25  1  0  0  0  0
 24 22  1  0  0  0  0
M  END
>  <MODEL>
6

>  <REMARK>
 VINA RESULT:      -6.2      2.182      2.530
  Name = 
  5 active torsions:
  status: ('A' for Active; 'I' for Inactive)
    1  A    between atoms: C_5  and  O_17
    2  A    between atoms: C_6  and  C_22
    3  A    between atoms: C_12  and  C_19
    4  A    between atoms: C_12  and  C_21
    5  A    between atoms: O_17  and  C_19
                            x       y       z     vdW  Elec       q    Type
                         _______ _______ _______ _____ _____    ______ ____

>  <TORSDO>
F 5

$$$$
=
 OpenBabel11072409403D

 25 28  0  0  1  0  0  0  0  0999 V2000
  191.7980  176.2170  146.8630 C   0  0  0  0  0  0  0  0  0  0  0  0
  191.2250  176.8520  147.9920 N   0  0  0  0  0  2  0  0  0  0  0  0
  191.6830  175.6670  143.4910 C   0  0  0  0  0  2  0  0  0  0  0  0
  191.0620  175.2600  144.8250 C   0  0  2  0  0  3  0  0  0  0  0  0
  192.2470  174.4440  142.7530 C   0  0  1  0  0  3  0  0  0  0  0  0
  189.9110  177.0850  146.2100 C   0  0  0  0  0  0  0  0  0  0  0  0
  190.9660  176.4330  145.7330 C   0  0  0  0  0  0  0  0  0  0  0  0
  192.6980  173.2920  144.9620 C   0  0  0  0  0  2  0  0  0  0  0  0
  192.3480  175.0180  146.8220 C   0  0  0  0  0  2  0  0  0  0  0  0
  192.0140  174.4260  145.5620 N   0  0  1  0  0  0  0  0  0  0  0  0
  190.1290  177.3760  147.6010 N   0  0  0  0  0  0  0  0  0  0  0  0
  193.2860  173.7160  143.6150 C   0  0  0  0  0  2  0  0  0  0  0  0
  187.4410  176.7980  146.1490 C   0  0  0  0  0  3  0  0  0  0  0  0
  186.1210  177.6110  144.2890 C   0  0  0  0  0  0  0  0  0  0  0  0
  188.5210  177.9140  144.2940 C   0  0  0  0  0  3  0  0  0  0  0  0
  184.8020  177.7920  143.6280 C   0  0  0  0  0  1  0  0  0  0  0  0
  186.2000  176.9690  145.5280 C   0  0  0  0  0  3  0  0  0  0  0  0
  187.2820  178.0850  143.6720 C   0  0  0  0  0  3  0  0  0  0  0  0
  188.6110  177.2640  145.5360 C   0  0  0  0  0  0  0  0  0  0  0  0
  191.2160  173.5690  142.3940 O   0  0  0  0  0  0  0  0  0  0  0  0
  190.6000  174.1650  141.2910 C   0  0  0  0  0  2  0  0  0  0  0  0
  189.1360  173.7530  141.2200 C   0  0  0  0  0  2  0  0  0  0  0  0
  188.5310  176.0670  141.2850 F   0  0  0  0  0  0  0  0  0  0  0  0
  188.2090  174.8200  141.7900 C   0  0  0  0  0  3  0  0  0  0  0  0
  188.2710  174.8380  143.1710 F   0  0  0  0  0  0  0  0  0  0  0  0
  1  2  1  0  0  0  0
  4  3  1  6  0  0  0
  4 10  1  0  0  0  0
  4  7  1  0  0  0  0
  5 20  1  1  0  0  0
  5  3  1  0  0  0  0
  5 12  1  0  0  0  0
  6 11  2  0  0  0  0
  7  6  1  0  0  0  0
  7  1  2  0  0  0  0
  9  1  1  0  0  0  0
 10  8  1  6  0  0  0
 10  9  1  0  0  0  0
 11  2  1  0  0  0  0
 12  8  1  0  0  0  0
 14 17  1  0  0  0  0
 15 19  2  0  0  0  0
 16 14  1  0  0  0  0
 17 13  2  0  0  0  0
 18 14  2  0  0  0  0
 18 15  1  0  0  0  0
 19 13  1  0  0  0  0
 19  6  1  0  0  0  0
 21 20  1  0  0  0  0
 22 21  1  0  0  0  0
 22 24  1  0  0  0  0
 23 24  1  0  0  0  0
 24 25  1  0  0  0  0
M  END
>  <MODEL>
7

>  <REMARK>
 VINA RESULT:      -6.0      2.907      5.743
  Name = 
  5 active torsions:
  status: ('A' for Active; 'I' for Inactive)
    1  A    between atoms: C_5  and  O_17
    2  A    between atoms: C_6  and  C_22
    3  A    between atoms: C_12  and  C_19
    4  A    between atoms: C_12  and  C_21
    5  A    between atoms: O_17  and  C_19
                            x       y       z     vdW  Elec       q    Type
                         _______ _______ _______ _____ _____    ______ ____

>  <TORSDO>
F 5

$$$$
=
 OpenBabel11072409403D

 25 28  0  0  1  0  0  0  0  0999 V2000
  184.0080  177.9360  141.7650 C   0  0  0  0  0  0  0  0  0  0  0  0
  182.9600  178.7370  142.2800 N   0  0  0  0  0  0  0  0  0  0  0  0
  186.7230  175.9620  142.4160 C   0  0  0  0  0  2  0  0  0  0  0  0
  186.2520  177.4120  142.3170 C   0  0  2  0  0  3  0  0  0  0  0  0
  187.9030  175.7040  141.4690 C   0  0  1  0  0  3  0  0  0  0  0  0
  184.3790  178.1660  143.8980 C   0  0  0  0  0  0  0  0  0  0  0  0
  184.8620  177.5420  142.8290 C   0  0  1  0  0  3  0  0  0  0  0  0
  187.0460  177.4820  139.8820 C   0  0  0  0  0  2  0  0  0  0  0  0
  184.6990  178.1490  140.6610 C   0  0  0  0  0  2  0  0  0  0  0  0
  186.0520  177.7550  140.9080 N   0  0  1  0  0  0  0  0  0  0  0  0
  183.1700  178.8540  143.5340 N   0  0  0  0  0  0  0  0  0  0  0  0
  187.5230  176.0350  140.0200 C   0  0  0  0  0  2  0  0  0  0  0  0
  185.4320  179.6580  145.5880 C   0  0  0  0  0  3  0  0  0  0  0  0
  186.3690  178.7800  147.6400 C   0  0  0  0  0  0  0  0  0  0  0  0
  185.3610  177.2810  146.0290 C   0  0  0  0  0  3  0  0  0  0  0  0
  187.0590  178.9990  148.9380 C   0  0  0  0  0  1  0  0  0  0  0  0
  186.0800  179.8650  146.8090 C   0  0  0  0  0  3  0  0  0  0  0  0
  186.0080  177.4860  147.2500 C   0  0  0  0  0  3  0  0  0  0  0  0
  185.0720  178.3650  145.1860 C   0  0  0  0  0  0  0  0  0  0  0  0
  189.0190  176.4520  141.8590 O   0  0  0  0  0  0  0  0  0  0  0  0
  189.5080  175.8080  142.9990 C   0  0  0  0  0  2  0  0  0  0  0  0
  190.0920  176.8260  143.9680 C   0  0  0  0  0  2  0  0  0  0  0  0
  188.2500  178.2260  144.5760 F   0  0  0  0  0  0  0  0  0  0  0  0
  189.0940  177.2360  145.0440 C   0  0  0  0  0  3  0  0  0  0  0  0
  189.7490  177.6710  146.1810 F   0  0  0  0  0  0  0  0  0  0  0  0
  1  2  2  0  0  0  0
  2 11  1  0  0  0  0
  4  3  1  6  0  0  0
  4  7  1  0  0  0  0
  5 20  1  1  0  0  0
  5  3  1  0  0  0  0
  6 19  1  0  0  0  0
  7  1  1  6  0  0  0
  7  6  1  0  0  0  0
  8 12  1  0  0  0  0
  9 10  1  0  0  0  0
  9  1  1  0  0  0  0
 10  8  1  6  0  0  0
 10  4  1  0  0  0  0
 11  6  2  0  0  0  0
 12  5  1  0  0  0  0
 13 17  1  0  0  0  0
 14 16  1  0  0  0  0
 15 18  2  0  0  0  0
 17 14  2  0  0  0  0
 18 14  1  0  0  0  0
 19 13  2  0  0  0  0
 19 15  1  0  0  0  0
 20 21  1  0  0  0  0
 21 22  1  0  0  0  0
 22 24  1  0  0  0  0
 23 24  1  0  0  0  0
 24 25  1  0  0  0  0
M  END
>  <MODEL>
8

>  <REMARK>
 VINA RESULT:      -6.0      2.474      4.076
  Name = 
  5 active torsions:
  status: ('A' for Active; 'I' for Inactive)
    1  A    between atoms: C_5  and  O_17
    2  A    between atoms: C_6  and  C_22
    3  A    between atoms: C_12  and  C_19
    4  A    between atoms: C_12  and  C_21
    5  A    between atoms: O_17  and  C_19
                            x       y       z     vdW  Elec       q    Type
                         _______ _______ _______ _____ _____    ______ ____

>  <TORSDO>
F 5

$$$$
=
 OpenBabel11072409403D

 25 28  0  0  1  0  0  0  0  0999 V2000
  185.3870  177.2440  146.7270 C   0  0  0  0  0  0  0  0  0  0  0  0
  186.0260  177.0710  147.9790 N   0  0  0  0  0  2  0  0  0  0  0  0
  185.4950  176.7890  143.3410 C   0  0  0  0  0  2  0  0  0  0  0  0
  186.0100  177.6650  144.4810 C   0  0  2  0  0  3  0  0  0  0  0  0
  184.7620  177.6340  142.2890 C   0  0  1  0  0  3  0  0  0  0  0  0
  187.4030  176.5360  146.3140 C   0  0  0  0  0  0  0  0  0  0  0  0
  186.2700  176.8420  145.6910 C   0  0  0  0  0  0  0  0  0  0  0  0
  184.0770  179.2980  144.0720 C   0  0  0  0  0  2  0  0  0  0  0  0
  184.6530  178.2750  146.3490 C   0  0  0  0  0  2  0  0  0  0  0  0
  184.9190  178.5150  144.9630 N   0  0  1  0  0  0  0  0  0  0  0  0
  187.2010  176.6370  147.7340 N   0  0  0  0  0  0  0  0  0  0  0  0
  183.5990  178.4070  142.9240 C   0  0  0  0  0  2  0  0  0  0  0  0
  189.0660  175.1680  145.0670 C   0  0  0  0  0  3  0  0  0  0  0  0
  191.2410  176.0510  144.4770 C   0  0  0  0  0  0  0  0  0  0  0  0
  189.6650  177.4260  145.6940 C   0  0  0  0  0  3  0  0  0  0  0  0
  192.5710  175.8780  143.8350 C   0  0  0  0  0  1  0  0  0  0  0  0
  190.3160  175.0040  144.4630 C   0  0  0  0  0  3  0  0  0  0  0  0
  190.9150  177.2640  145.0910 C   0  0  0  0  0  3  0  0  0  0  0  0
  188.7320  176.3770  145.6910 C   0  0  0  0  0  0  0  0  0  0  0  0
  185.6470  178.5180  141.6640 O   0  0  0  0  0  0  0  0  0  0  0  0
  185.8690  177.9750  140.3960 C   0  0  0  0  0  2  0  0  0  0  0  0
  187.3250  177.5540  140.2520 C   0  0  0  0  0  2  0  0  0  0  0  0
  188.7570  178.5950  141.8620 F   0  0  0  0  0  0  0  0  0  0  0  0
  188.0290  177.4480  141.5990 C   0  0  0  0  0  3  0  0  0  0  0  0
  188.8590  176.3430  141.6330 F   0  0  0  0  0  0  0  0  0  0  0  0
  1  2  1  0  0  0  0
  4  3  1  6  0  0  0
  4 10  1  0  0  0  0
  4  7  1  0  0  0  0
  5 20  1  1  0  0  0
  5 12  1  0  0  0  0
  5  3  1  0  0  0  0
  6 11  2  0  0  0  0
  7  6  1  0  0  0  0
  7  1  2  0  0  0  0
  9  1  1  0  0  0  0
 10  8  1  6  0  0  0
 10  9  1  0  0  0  0
 11  2  1  0  0  0  0
 12  8  1  0  0  0  0
 13 19  1  0  0  0  0
 14 18  2  0  0  0  0
 16 14  1  0  0  0  0
 17 14  1  0  0  0  0
 17 13  2  0  0  0  0
 18 15  1  0  0  0  0
 19 15  2  0  0  0  0
 19  6  1  0  0  0  0
 21 20  1  0  0  0  0
 22 21  1  0  0  0  0
 22 24  1  0  0  0  0
 24 25  1  0  0  0  0
 24 23  1  0  0  0  0
M  END
>  <MODEL>
9

>  <REMARK>
 VINA RESULT:      -6.0      1.694      2.158
  Name = 
  5 active torsions:
  status: ('A' for Active; 'I' for Inactive)
    1  A    between atoms: C_5  and  O_17
    2  A    between atoms: C_6  and  C_22
    3  A    between atoms: C_12  and  C_19
    4  A    between atoms: C_12  and  C_21
    5  A    between atoms: O_17  and  C_19
                            x       y       z     vdW  Elec       q    Type
                         _______ _______ _______ _____ _____    ______ ____

>  <TORSDO>
F 5

$$$$
