=
 OpenBabel11072409423D

 70 78  0  0  1  0  0  0  0  0999 V2000
  193.3100  172.4440  144.3890 C   0  0  1  0  0  3  0  0  0  0  0  0
  195.2270  174.4360  139.7700 C   0  0  1  0  0  3  0  0  0  0  0  0
  195.5180  175.4470  142.5750 O   0  0  0  0  0  0  0  0  0  0  0  0
  195.4130  172.4780  138.5150 F   0  0  0  0  0  0  0  0  0  0  0  0
  194.2620  175.3500  140.5440 C   0  0  0  0  0  2  0  0  0  0  0  0
  194.9400  176.2510  141.5740 C   0  0  0  0  0  2  0  0  0  0  0  0
  193.3690  173.3700  138.6890 O   0  0  0  0  0  1  0  0  0  0  0  0
  194.4510  171.1660  142.9930 C   0  0  2  0  0  3  0  0  0  0  0  0
  196.4100  174.1900  140.4490 F   0  0  0  0  0  0  0  0  0  0  0  0
  193.4780  174.6930  143.6070 C   0  0  2  0  0  3  0  0  0  0  0  0
  194.6170  172.0940  144.0110 O   0  0  0  0  0  0  0  0  0  0  0  0
  193.4590  176.1900  143.8890 C   0  0  0  0  0  2  0  0  0  0  0  0
  193.2780  173.8530  144.7890 N   0  0  0  0  0  0  0  0  0  0  0  0
  192.4430  173.3380  141.1370 F   0  0  0  0  0  0  0  0  0  0  0  0
  192.3760  172.1720  143.3650 O   0  0  0  0  0  0  0  0  0  0  0  0
  193.0480  172.0960  141.0110 C   0  0  1  0  0  0  0  0  0  0  0  0
  194.5530  173.1130  139.3840 C   0  0  2  0  0  0  0  0  0  0  0  0
  194.3920  172.2650  140.5300 O   0  0  0  0  0  0  0  0  0  0  0  0
  194.7890  175.4380  143.7990 C   0  0  2  0  0  3  0  0  0  0  0  0
  193.0700  171.4100  142.4160 C   0  0  1  0  0  3  0  0  0  0  0  0
  189.1970  172.6350  141.5370 C   0  0  0  0  0  2  0  0  0  0  0  0
  190.2440  172.6580  139.3200 C   0  0  2  0  0  3  0  0  0  0  0  0
  193.3000  170.9100  137.1350 O   0  0  0  0  0  1  0  0  0  0  0  0
  190.0830  171.4010  141.4370 C   0  0  0  0  0  2  0  0  0  0  0  0
  192.2760  168.8960  138.0750 C   0  0  0  0  0  2  0  0  0  0  0  0
  190.8830  170.6150  136.8650 C   0  0  2  0  0  3  0  0  0  0  0  0
  189.1410  173.2650  140.1590 C   0  0  0  0  0  2  0  0  0  0  0  0
  192.2600  169.9830  137.0110 C   0  0  1  0  0  0  0  0  0  0  0  0
  194.4850  169.4970  139.7470 O   0  0  0  0  0  0  0  0  0  0  0  0
  192.2110  171.2350  140.0160 C   0  0  2  0  0  3  0  0  0  0  0  0
  192.2500  168.6070  140.7860 O   0  0  0  0  0  1  0  0  0  0  0  0
  189.7620  172.4210  138.0250 O   0  0  0  0  0  0  0  0  0  0  0  0
  190.8750  170.2790  135.3860 C   0  0  0  0  0  2  0  0  0  0  0  0
  190.8740  172.0970  137.2350 C   0  0  2  0  0  3  0  0  0  0  0  0
  190.6730  171.3780  140.0400 C   0  0  2  0  0  3  0  0  0  0  0  0
  192.7910  169.5230  139.7120 P   0  0  1  0  0  0  0  0  0  0  0  0
  192.1770  169.5060  135.5780 C   0  0  0  0  0  2  0  0  0  0  0  0
  191.1640  173.0930  136.0910 C   0  0  0  0  0  2  0  0  0  0  0  0
  190.7590  174.4630  136.4390 N   0  0  0  0  0  2  0  0  0  0  0  0
  191.0260  175.5640  135.5760 C   0  0  0  0  0  0  0  0  0  0  0  0
  190.0600  176.2010  135.0770 O   0  0  0  0  0  0  0  0  0  0  0  0
  192.4040  176.0130  135.3190 C   0  0  0  0  0  0  0  0  0  0  0  0
  194.0140  177.7400  134.5160 C   0  0  2  0  0  3  0  0  0  0  0  0
  193.5300  175.0190  135.4580 C   0  0  0  0  0  2  0  0  0  0  0  0
  192.6330  177.2640  134.8860 C   0  0  0  0  0  3  0  0  0  0  0  0
  194.8440  175.7010  135.7030 C   0  0  0  0  0  0  0  0  0  0  0  0
  195.7910  175.0470  136.2180 O   0  0  0  0  0  0  0  0  0  0  0  0
  195.0610  177.0480  135.2740 N   0  0  0  0  0  0  0  0  0  0  0  0
  196.3150  177.5590  135.3140 O   0  0  0  0  0  1  0  0  0  0  0  0
  194.1060  179.2360  134.7450 C   0  0  0  0  0  1  0  0  0  0  0  0
  194.5900  169.7290  143.5140 C   0  0  2  0  0  3  0  0  0  0  0  0
  195.2500  169.6910  144.8820 C   0  0  0  0  0  1  0  0  0  0  0  0
  195.3380  168.9740  142.6230 O   0  0  0  0  0  0  0  0  0  0  0  0
  196.6360  168.9590  143.1580 C   0  0  0  0  0  1  0  0  0  0  0  0
  192.0000  174.1440  145.4400 C   0  0  0  0  0  2  0  0  0  0  0  0
  190.8630  173.9790  144.4320 C   0  0  0  0  0  2  0  0  0  0  0  0
  189.6260  174.7340  144.9040 C   0  0  0  0  0  2  0  0  0  0  0  0
  189.6230  176.0990  144.3890 N   0  0  0  0  0  0  0  0  0  0  0  0
  190.0170  177.1960  145.2260 C   0  0  0  0  0  0  0  0  0  0  0  0
  190.2240  178.3330  144.7080 O   0  0  0  0  0  0  0  0  0  0  0  0
  189.4870  176.2960  142.9520 C   0  0  0  0  0  2  0  0  0  0  0  0
  187.9300  176.3840  141.1580 O   0  0  0  0  0  0  0  0  0  0  0  0
  188.0420  176.0690  142.5250 C   0  0  2  0  0  3  0  0  0  0  0  0
  187.4670  177.3520  142.0700 C   0  0  2  0  0  3  0  0  0  0  0  0
  185.9530  177.2980  142.1530 C   0  0  0  0  0  3  0  0  0  0  0  0
  185.3510  178.2980  141.1720 C   0  0  0  0  0  2  0  0  0  0  0  0
  185.4410  178.6410  142.6390 C   0  0  0  0  0  2  0  0  0  0  0  0
  190.1730  177.0070  146.6090 O   0  0  0  0  0  0  0  0  0  0  0  0
  191.4380  177.1010  147.2510 C   0  0  0  0  0  2  0  0  0  0  0  0
  191.2730  177.5540  148.6890 C   0  0  0  0  0  1  0  0  0  0  0  0
  1 15  1  6  0  0  0
  1 13  1  0  0  0  0
  2  9  1  1  0  0  0
  2  5  1  0  0  0  0
  3 19  1  0  0  0  0
  5  6  1  0  0  0  0
  6  3  1  0  0  0  0
  7 17  1  0  0  0  0
  8 51  1  1  0  0  0
  8 11  1  0  0  0  0
 10 19  1  0  0  0  0
 10 12  1  1  0  0  0
 10 13  1  0  0  0  0
 11  1  1  0  0  0  0
 13 55  1  0  0  0  0
 16 14  1  1  0  0  0
 16 20  1  0  0  0  0
 17  4  1  6  0  0  0
 17  2  1  0  0  0  0
 17 18  1  0  0  0  0
 18 16  1  0  0  0  0
 19 12  1  6  0  0  0
 20  8  1  0  0  0  0
 20 15  1  1  0  0  0
 22 35  1  0  0  0  0
 22 27  1  1  0  0  0
 24 21  1  0  0  0  0
 25 36  1  0  0  0  0
 26 33  1  6  0  0  0
 26 28  1  0  0  0  0
 26 34  1  0  0  0  0
 27 21  1  0  0  0  0
 28 23  1  1  0  0  0
 28 25  1  0  0  0  0
 30 35  1  0  0  0  0
 30 16  1  1  0  0  0
 32 22  1  0  0  0  0
 33 37  1  0  0  0  0
 34 38  1  6  0  0  0
 34 32  1  0  0  0  0
 35 24  1  1  0  0  0
 36 29  2  1  0  0  0
 36 30  1  0  0  0  0
 36 31  1  0  0  0  0
 37 28  1  0  0  0  0
 38 39  1  0  0  0  0
 40 39  1  0  0  0  0
 41 40  2  0  0  0  0
 42 44  1  0  0  0  0
 42 40  1  0  0  0  0
 43 50  1  1  0  0  0
 43 45  1  0  0  0  0
 43 48  1  0  0  0  0
 44 46  1  0  0  0  0
 45 42  2  0  0  0  0
 46 47  2  0  0  0  0
 48 49  1  0  0  0  0
 48 46  1  0  0  0  0
 51 52  1  1  0  0  0
 53 54  1  0  0  0  0
 53 51  1  0  0  0  0
 56 57  1  0  0  0  0
 56 55  1  0  0  0  0
 58 57  1  0  0  0  0
 58 59  1  0  0  0  0
 59 68  1  0  0  0  0
 60 59  2  0  0  0  0
 61 58  1  0  0  0  0
 62 64  1  0  0  0  0
 62 63  1  0  0  0  0
 63 61  1  1  0  0  0
 64 65  1  6  0  0  0
 64 63  1  0  0  0  0
 65 67  1  0  0  0  0
 66 65  1  0  0  0  0
 66 67  1  0  0  0  0
 68 69  1  0  0  0  0
 69 70  1  0  0  0  0
M  END
>  <MODEL>
1

>  <REMARK>
 VINA RESULT:      -6.7      0.000      0.000
  Name = 
  15 active torsions:
  status: ('A' for Active; 'I' for Inactive)
    1  A    between atoms: C_3  and  C_58
    2  A    between atoms: C_3  and  N_59
    3  A    between atoms: C_7  and  N_20
    4  A    between atoms: C_7  and  C_28
    5  A    between atoms: C_8  and  C_65
    6  A    between atoms: C_13  and  C_16
    7  A    between atoms: C_13  and  C_29
    8  A    between atoms: O_14  and  C_26
    9  A    between atoms: O_14  and  C_38
   10  A    between atoms: C_16  and  N_20
   11  A    between atoms: C_19  and  C_23
   12  A    between atoms: C_23  and  O_53
   13  A    between atoms: C_29  and  N_30
   14  A    between atoms: C_31  and  C_36
   15  A    between atoms: C_49  and  C_50
                            x       y       z     vdW  Elec       q    Type
                         _______ _______ _______ _____ _____    ______ ____

>  <TORSDO>
F 15

$$$$
=
 OpenBabel11072409423D

 70 78  0  0  1  0  0  0  0  0999 V2000
  194.3330  172.7270  145.2430 C   0  0  1  0  0  3  0  0  0  0  0  0
  196.9150  174.2430  140.7680 C   0  0  1  0  0  3  0  0  0  0  0  0
  196.4260  175.7420  143.3160 O   0  0  0  0  0  0  0  0  0  0  0  0
  197.6580  172.1720  139.9910 F   0  0  0  0  0  0  0  0  0  0  0  0
  195.6790  175.0790  141.1450 C   0  0  0  0  0  2  0  0  0  0  0  0
  195.9740  176.2480  142.0830 C   0  0  0  0  0  2  0  0  0  0  0  0
  195.5180  172.6880  139.5910 O   0  0  0  0  0  1  0  0  0  0  0  0
  195.9290  171.4680  144.3750 C   0  0  2  0  0  3  0  0  0  0  0  0
  197.9410  174.3360  141.6960 F   0  0  0  0  0  0  0  0  0  0  0  0
  194.3410  174.8070  144.0710 C   0  0  2  0  0  3  0  0  0  0  0  0
  195.7280  172.5660  145.1980 O   0  0  0  0  0  0  0  0  0  0  0  0
  194.0410  176.3000  144.0370 C   0  0  0  0  0  2  0  0  0  0  0  0
  194.0080  174.1530  145.3380 N   0  0  0  0  0  0  0  0  0  0  0  0
  194.0880  172.8920  141.7730 F   0  0  0  0  0  0  0  0  0  0  0  0
  193.6990  172.1200  144.1350 O   0  0  0  0  0  0  0  0  0  0  0  0
  194.8790  171.7800  142.0170 C   0  0  1  0  0  0  0  0  0  0  0  0
  196.5430  172.7730  140.5350 C   0  0  2  0  0  0  0  0  0  0  0  0
  196.2570  172.1120  141.7770 O   0  0  0  0  0  0  0  0  0  0  0  0
  195.4530  175.8020  144.3550 C   0  0  2  0  0  3  0  0  0  0  0  0
  194.6900  171.3530  143.5080 C   0  0  1  0  0  3  0  0  0  0  0  0
  190.9750  171.3970  142.0230 C   0  0  0  0  0  2  0  0  0  0  0  0
  192.2970  171.4200  139.9590 C   0  0  2  0  0  3  0  0  0  0  0  0
  195.9580  170.2470  138.4140 O   0  0  0  0  0  1  0  0  0  0  0  0
  192.1280  170.4210  142.2080 C   0  0  0  0  0  2  0  0  0  0  0  0
  195.3060  168.1660  139.5230 C   0  0  0  0  0  2  0  0  0  0  0  0
  193.7410  169.3280  137.9230 C   0  0  2  0  0  3  0  0  0  0  0  0
  190.9740  171.8260  140.5690 C   0  0  0  0  0  2  0  0  0  0  0  0
  195.1910  169.0820  138.3140 C   0  0  1  0  0  0  0  0  0  0  0  0
  197.0490  169.4930  141.3230 O   0  0  0  0  0  0  0  0  0  0  0  0
  194.4180  170.6260  141.0740 C   0  0  2  0  0  3  0  0  0  0  0  0
  194.9560  168.2010  142.2270 O   0  0  0  0  0  1  0  0  0  0  0  0
  192.0760  170.9190  138.6680 O   0  0  0  0  0  0  0  0  0  0  0  0
  194.0260  168.8290  136.5190 C   0  0  0  0  0  2  0  0  0  0  0  0
  193.3340  170.7930  138.0630 C   0  0  2  0  0  3  0  0  0  0  0  0
  192.9030  170.3820  140.9040 C   0  0  2  0  0  3  0  0  0  0  0  0
  195.4180  169.0900  141.0950 P   0  0  1  0  0  0  0  0  0  0  0  0
  195.4290  168.4340  136.9680 C   0  0  0  0  0  2  0  0  0  0  0  0
  193.5470  171.6880  136.8230 C   0  0  0  0  0  2  0  0  0  0  0  0
  193.8660  173.0740  137.1940 N   0  0  0  0  0  2  0  0  0  0  0  0
  192.8830  173.9490  137.7400 C   0  0  0  0  0  0  0  0  0  0  0  0
  193.0330  174.3860  138.9110 O   0  0  0  0  0  0  0  0  0  0  0  0
  191.7390  174.4050  136.9330 C   0  0  0  0  0  0  0  0  0  0  0  0
  189.2970  174.4020  136.4290 C   0  0  2  0  0  3  0  0  0  0  0  0
  192.0040  175.1950  135.6760 C   0  0  0  0  0  2  0  0  0  0  0  0
  190.4910  174.0440  137.2750 C   0  0  0  0  0  3  0  0  0  0  0  0
  190.8170  176.0230  135.2820 C   0  0  0  0  0  0  0  0  0  0  0  0
  190.9820  177.0100  134.5140 O   0  0  0  0  0  0  0  0  0  0  0  0
  189.4970  175.6500  135.6870 N   0  0  0  0  0  0  0  0  0  0  0  0
  188.4350  176.2890  135.1400 O   0  0  0  0  0  1  0  0  0  0  0  0
  188.0700  174.5110  137.3140 C   0  0  0  0  0  1  0  0  0  0  0  0
  196.1570  170.1880  145.1910 C   0  0  2  0  0  3  0  0  0  0  0  0
  196.3040  170.4870  146.6740 C   0  0  0  0  0  1  0  0  0  0  0  0
  197.2960  169.5370  144.7400 O   0  0  0  0  0  0  0  0  0  0  0  0
  197.0830  168.1810  145.0360 C   0  0  0  0  0  1  0  0  0  0  0  0
  192.5890  174.3060  145.6610 C   0  0  0  0  0  2  0  0  0  0  0  0
  191.7580  174.1920  144.3840 C   0  0  0  0  0  2  0  0  0  0  0  0
  190.3230  174.6350  144.6470 C   0  0  0  0  0  2  0  0  0  0  0  0
  190.0700  175.9490  144.0650 N   0  0  0  0  0  0  0  0  0  0  0  0
  190.4540  177.1420  144.7630 C   0  0  0  0  0  0  0  0  0  0  0  0
  190.4360  178.2540  144.1550 O   0  0  0  0  0  0  0  0  0  0  0  0
  189.6850  176.0220  142.6610 C   0  0  0  0  0  2  0  0  0  0  0  0
  187.8400  175.9200  141.1650 O   0  0  0  0  0  0  0  0  0  0  0  0
  188.2030  175.6990  142.5070 C   0  0  2  0  0  3  0  0  0  0  0  0
  187.4860  176.9220  142.0880 C   0  0  2  0  0  3  0  0  0  0  0  0
  186.0140  176.8030  142.4370 C   0  0  0  0  0  3  0  0  0  0  0  0
  185.2820  178.0700  142.0070 C   0  0  0  0  0  2  0  0  0  0  0  0
  185.6640  177.8730  143.4530 C   0  0  0  0  0  2  0  0  0  0  0  0
  190.8510  177.0760  146.1080 O   0  0  0  0  0  0  0  0  0  0  0  0
  189.9220  177.1720  147.1810 C   0  0  0  0  0  2  0  0  0  0  0  0
  188.5020  177.2250  146.6520 C   0  0  0  0  0  1  0  0  0  0  0  0
  1 15  1  6  0  0  0
  1 13  1  0  0  0  0
  2  5  1  0  0  0  0
  2  9  1  1  0  0  0
  3 19  1  0  0  0  0
  4 17  1  0  0  0  0
  5  6  1  0  0  0  0
  6  3  1  0  0  0  0
  8 51  1  1  0  0  0
  8 11  1  0  0  0  0
 10 12  1  1  0  0  0
 10 19  1  0  0  0  0
 10 13  1  0  0  0  0
 11  1  1  0  0  0  0
 13 55  1  0  0  0  0
 16 14  1  6  0  0  0
 16 20  1  0  0  0  0
 17  7  1  6  0  0  0
 17  2  1  0  0  0  0
 17 18  1  0  0  0  0
 18 16  1  0  0  0  0
 19 12  1  6  0  0  0
 20 15  1  1  0  0  0
 20  8  1  0  0  0  0
 21 24  1  0  0  0  0
 22 27  1  1  0  0  0
 22 35  1  0  0  0  0
 25 36  1  0  0  0  0
 26 33  1  6  0  0  0
 26 34  1  0  0  0  0
 26 28  1  0  0  0  0
 27 21  1  0  0  0  0
 28 23  1  1  0  0  0
 28 25  1  0  0  0  0
 30 36  1  0  0  0  0
 30 16  1  1  0  0  0
 32 22  1  0  0  0  0
 33 37  1  0  0  0  0
 34 38  1  6  0  0  0
 34 32  1  0  0  0  0
 35 30  1  0  0  0  0
 35 24  1  1  0  0  0
 36 29  2  1  0  0  0
 36 31  1  0  0  0  0
 37 28  1  0  0  0  0
 38 39  1  0  0  0  0
 39 40  1  0  0  0  0
 40 41  2  0  0  0  0
 42 45  2  0  0  0  0
 42 40  1  0  0  0  0
 43 45  1  0  0  0  0
 43 50  1  1  0  0  0
 44 42  1  0  0  0  0
 46 44  1  0  0  0  0
 46 48  1  0  0  0  0
 47 46  2  0  0  0  0
 48 43  1  0  0  0  0
 49 48  1  0  0  0  0
 51 52  1  1  0  0  0
 53 54  1  0  0  0  0
 53 51  1  0  0  0  0
 56 57  1  0  0  0  0
 56 55  1  0  0  0  0
 58 57  1  0  0  0  0
 58 59  1  0  0  0  0
 59 68  1  0  0  0  0
 60 59  2  0  0  0  0
 61 58  1  0  0  0  0
 62 64  1  0  0  0  0
 62 63  1  0  0  0  0
 63 61  1  6  0  0  0
 64 65  1  1  0  0  0
 64 63  1  0  0  0  0
 65 67  1  0  0  0  0
 66 65  1  0  0  0  0
 66 67  1  0  0  0  0
 68 69  1  0  0  0  0
 70 69  1  0  0  0  0
M  END
>  <MODEL>
2

>  <REMARK>
 VINA RESULT:      -6.0      1.971      2.901
  Name = 
  15 active torsions:
  status: ('A' for Active; 'I' for Inactive)
    1  A    between atoms: C_3  and  C_58
    2  A    between atoms: C_3  and  N_59
    3  A    between atoms: C_7  and  N_20
    4  A    between atoms: C_7  and  C_28
    5  A    between atoms: C_8  and  C_65
    6  A    between atoms: C_13  and  C_16
    7  A    between atoms: C_13  and  C_29
    8  A    between atoms: O_14  and  C_26
    9  A    between atoms: O_14  and  C_38
   10  A    between atoms: C_16  and  N_20
   11  A    between atoms: C_19  and  C_23
   12  A    between atoms: C_23  and  O_53
   13  A    between atoms: C_29  and  N_30
   14  A    between atoms: C_31  and  C_36
   15  A    between atoms: C_49  and  C_50
                            x       y       z     vdW  Elec       q    Type
                         _______ _______ _______ _____ _____    ______ ____

>  <TORSDO>
F 15

$$$$
=
 OpenBabel11072409423D

 70 78  0  0  1  0  0  0  0  0999 V2000
  195.1500  171.5740  139.9290 C   0  0  1  0  0  3  0  0  0  0  0  0
  190.0670  171.7690  141.6950 C   0  0  1  0  0  3  0  0  0  0  0  0
  191.1820  170.6670  139.1410 O   0  0  0  0  0  0  0  0  0  0  0  0
  190.4230  171.7300  144.0000 F   0  0  0  0  0  0  0  0  0  0  0  0
  190.3520  172.5300  140.3880 C   0  0  0  0  0  2  0  0  0  0  0  0
  190.2080  171.6840  139.1250 C   0  0  0  0  0  2  0  0  0  0  0  0
  190.7210  173.6930  142.9710 O   0  0  0  0  0  1  0  0  0  0  0  0
  194.6180  170.8140  141.9350 C   0  0  2  0  0  3  0  0  0  0  0  0
  190.2420  170.3990  141.5790 F   0  0  0  0  0  0  0  0  0  0  0  0
  193.1130  172.0580  138.7810 C   0  0  2  0  0  3  0  0  0  0  0  0
  194.6380  170.4490  140.5970 O   0  0  0  0  0  0  0  0  0  0  0  0
  192.3430  172.2160  137.4760 C   0  0  0  0  0  2  0  0  0  0  0  0
  194.5190  171.6880  138.6110 N   0  0  0  0  0  0  0  0  0  0  0  0
  192.7200  173.6710  141.2820 F   0  0  0  0  0  0  0  0  0  0  0  0
  194.9870  172.7540  140.6880 O   0  0  0  0  0  0  0  0  0  0  0  0
  193.2140  172.9600  142.3650 C   0  0  1  0  0  0  0  0  0  0  0  0
  190.9130  172.3150  142.8530 C   0  0  2  0  0  0  0  0  0  0  0  0
  192.2860  171.9200  142.7170 O   0  0  0  0  0  0  0  0  0  0  0  0
  192.2750  170.9020  138.2590 C   0  0  2  0  0  3  0  0  0  0  0  0
  194.5870  172.3300  141.9620 C   0  0  1  0  0  3  0  0  0  0  0  0
  194.8570  176.3210  141.1830 C   0  0  0  0  0  2  0  0  0  0  0  0
  192.9060  176.2540  142.6660 C   0  0  2  0  0  3  0  0  0  0  0  0
  191.2080  174.0380  145.7280 O   0  0  0  0  0  1  0  0  0  0  0  0
  195.1670  175.3340  142.3000 C   0  0  0  0  0  2  0  0  0  0  0  0
  193.4940  174.2180  146.5840 C   0  0  0  0  0  2  0  0  0  0  0  0
  192.2180  176.2660  145.8500 C   0  0  2  0  0  3  0  0  0  0  0  0
  193.5680  177.0290  141.5490 C   0  0  0  0  0  2  0  0  0  0  0  0
  192.1220  174.8520  146.4040 C   0  0  1  0  0  0  0  0  0  0  0  0
  193.3320  171.6820  145.3270 O   0  0  0  0  0  1  0  0  0  0  0  0
  193.4150  173.9460  143.5570 C   0  0  2  0  0  3  0  0  0  0  0  0
  195.5110  173.1220  145.1140 O   0  0  0  0  0  0  0  0  0  0  0  0
  192.3770  177.1530  143.6030 O   0  0  0  0  0  0  0  0  0  0  0  0
  191.4260  176.7920  147.0310 C   0  0  0  0  0  2  0  0  0  0  0  0
  191.5730  176.4030  144.4720 C   0  0  2  0  0  3  0  0  0  0  0  0
  193.9880  175.3480  143.2560 C   0  0  2  0  0  3  0  0  0  0  0  0
  194.0040  173.2270  145.1370 P   0  0  1  0  0  0  0  0  0  0  0  0
  191.4780  175.4020  147.6580 C   0  0  0  0  0  2  0  0  0  0  0  0
  190.0740  176.7760  144.4480 C   0  0  0  0  0  2  0  0  0  0  0  0
  189.5080  176.6860  143.0950 N   0  0  0  0  0  2  0  0  0  0  0  0
  188.5700  177.6430  142.6110 C   0  0  0  0  0  0  0  0  0  0  0  0
  188.8830  178.3650  141.6270 O   0  0  0  0  0  0  0  0  0  0  0  0
  187.2230  177.7500  143.1920 C   0  0  0  0  0  0  0  0  0  0  0  0
  185.7230  178.1180  145.1510 C   0  0  2  0  0  3  0  0  0  0  0  0
  186.0320  177.3790  142.3430 C   0  0  0  0  0  2  0  0  0  0  0  0
  187.0740  178.0900  144.4830 C   0  0  0  0  0  3  0  0  0  0  0  0
  184.7740  178.0290  142.8390 C   0  0  0  0  0  0  0  0  0  0  0  0
  183.7930  178.1480  142.0560 O   0  0  0  0  0  0  0  0  0  0  0  0
  184.6450  178.4240  144.2080 N   0  0  0  0  0  0  0  0  0  0  0  0
  183.4300  178.8060  144.6710 O   0  0  0  0  0  1  0  0  0  0  0  0
  185.7400  179.1360  146.2740 C   0  0  0  0  0  1  0  0  0  0  0  0
  195.8430  170.2710  142.6850 C   0  0  2  0  0  3  0  0  0  0  0  0
  195.4370  169.3940  143.8580 C   0  0  0  0  0  1  0  0  0  0  0  0
  196.6190  171.3240  143.1470 O   0  0  0  0  0  0  0  0  0  0  0  0
  197.9400  170.9720  142.8240 C   0  0  0  0  0  1  0  0  0  0  0  0
  195.2400  172.6800  137.8130 C   0  0  0  0  0  2  0  0  0  0  0  0
  196.4350  173.2050  138.6070 C   0  0  0  0  0  2  0  0  0  0  0  0
  197.7380  172.7050  137.9900 C   0  0  0  0  0  2  0  0  0  0  0  0
  197.6400  172.6590  136.5360 N   0  0  0  0  0  0  0  0  0  0  0  0
  197.5240  173.8680  135.7730 C   0  0  0  0  0  0  0  0  0  0  0  0
  197.6660  173.8290  134.5150 O   0  0  0  0  0  0  0  0  0  0  0  0
  197.9410  171.4020  135.8610 C   0  0  0  0  0  2  0  0  0  0  0  0
  197.2050  169.1650  135.5400 O   0  0  0  0  0  0  0  0  0  0  0  0
  196.9590  170.3230  136.3010 C   0  0  2  0  0  3  0  0  0  0  0  0
  196.1040  169.9530  135.1530 C   0  0  2  0  0  3  0  0  0  0  0  0
  194.8190  169.3190  135.6490 C   0  0  0  0  0  3  0  0  0  0  0  0
  194.1580  168.5450  134.5130 C   0  0  0  0  0  2  0  0  0  0  0  0
  193.6520  169.9170  134.8860 C   0  0  0  0  0  2  0  0  0  0  0  0
  197.2590  175.0870  136.4190 O   0  0  0  0  0  0  0  0  0  0  0  0
  196.1470  175.9040  136.0750 C   0  0  0  0  0  2  0  0  0  0  0  0
  196.5900  177.0760  135.2230 C   0  0  0  0  0  1  0  0  0  0  0  0
  1 11  1  1  0  0  0
  1 15  1  0  0  0  0
  2  9  1  6  0  0  0
  2 17  1  0  0  0  0
  5  2  1  0  0  0  0
  6  3  1  0  0  0  0
  6  5  1  0  0  0  0
  8 20  1  0  0  0  0
  8 51  1  1  0  0  0
 10 12  1  6  0  0  0
 11  8  1  0  0  0  0
 13 10  1  0  0  0  0
 13  1  1  0  0  0  0
 16 14  1  6  0  0  0
 16 18  1  0  0  0  0
 17  7  1  1  0  0  0
 17  4  1  0  0  0  0
 18 17  1  0  0  0  0
 19 12  1  6  0  0  0
 19 10  1  0  0  0  0
 19  3  1  0  0  0  0
 20 15  1  6  0  0  0
 20 16  1  0  0  0  0
 21 27  1  0  0  0  0
 21 24  1  0  0  0  0
 22 27  1  6  0  0  0
 22 35  1  0  0  0  0
 22 32  1  0  0  0  0
 26 28  1  0  0  0  0
 26 33  1  1  0  0  0
 28 23  1  6  0  0  0
 28 25  1  0  0  0  0
 28 37  1  0  0  0  0
 30 16  1  6  0  0  0
 30 36  1  0  0  0  0
 32 34  1  0  0  0  0
 33 37  1  0  0  0  0
 34 38  1  1  0  0  0
 34 26  1  0  0  0  0
 35 24  1  6  0  0  0
 35 30  1  0  0  0  0
 36 31  2  6  0  0  0
 36 29  1  0  0  0  0
 36 25  1  0  0  0  0
 39 38  1  0  0  0  0
 40 39  1  0  0  0  0
 40 42  1  0  0  0  0
 41 40  2  0  0  0  0
 42 45  2  0  0  0  0
 43 50  1  1  0  0  0
 44 46  1  0  0  0  0
 44 42  1  0  0  0  0
 45 43  1  0  0  0  0
 46 48  1  0  0  0  0
 47 46  2  0  0  0  0
 48 49  1  0  0  0  0
 48 43  1  0  0  0  0
 51 53  1  0  0  0  0
 51 52  1  1  0  0  0
 54 53  1  0  0  0  0
 55 56  1  0  0  0  0
 55 13  1  0  0  0  0
 57 56  1  0  0  0  0
 58 57  1  0  0  0  0
 59 68  1  0  0  0  0
 59 58  1  0  0  0  0
 60 59  2  0  0  0  0
 61 58  1  0  0  0  0
 62 63  1  0  0  0  0
 63 61  1  6  0  0  0
 64 62  1  0  0  0  0
 64 65  1  1  0  0  0
 64 63  1  0  0  0  0
 66 67  1  0  0  0  0
 66 65  1  0  0  0  0
 67 65  1  0  0  0  0
 69 68  1  0  0  0  0
 70 69  1  0  0  0  0
M  END
>  <MODEL>
3

>  <REMARK>
 VINA RESULT:      -5.8      2.681      9.329
  Name = 
  15 active torsions:
  status: ('A' for Active; 'I' for Inactive)
    1  A    between atoms: C_3  and  C_58
    2  A    between atoms: C_3  and  N_59
    3  A    between atoms: C_7  and  N_20
    4  A    between atoms: C_7  and  C_28
    5  A    between atoms: C_8  and  C_65
    6  A    between atoms: C_13  and  C_16
    7  A    between atoms: C_13  and  C_29
    8  A    between atoms: O_14  and  C_26
    9  A    between atoms: O_14  and  C_38
   10  A    between atoms: C_16  and  N_20
   11  A    between atoms: C_19  and  C_23
   12  A    between atoms: C_23  and  O_53
   13  A    between atoms: C_29  and  N_30
   14  A    between atoms: C_31  and  C_36
   15  A    between atoms: C_49  and  C_50
                            x       y       z     vdW  Elec       q    Type
                         _______ _______ _______ _____ _____    ______ ____

>  <TORSDO>
F 15

$$$$
=
 OpenBabel11072409423D

 70 78  0  0  1  0  0  0  0  0999 V2000
  193.4970  173.0330  145.6390 C   0  0  1  0  0  3  0  0  0  0  0  0
  194.8960  174.4460  140.6350 C   0  0  1  0  0  3  0  0  0  0  0  0
  195.6930  175.6300  143.2690 O   0  0  0  0  0  0  0  0  0  0  0  0
  194.7040  172.3890  139.5510 F   0  0  0  0  0  0  0  0  0  0  0  0
  194.1480  175.5160  141.4500 C   0  0  0  0  0  2  0  0  0  0  0  0
  195.0540  176.4140  142.2890 C   0  0  0  0  0  2  0  0  0  0  0  0
  192.8040  173.5090  139.9250 O   0  0  0  0  0  1  0  0  0  0  0  0
  194.2910  171.5360  144.2210 C   0  0  2  0  0  3  0  0  0  0  0  0
  196.1360  174.1250  141.1630 F   0  0  0  0  0  0  0  0  0  0  0  0
  193.7650  175.1850  144.6390 C   0  0  2  0  0  3  0  0  0  0  0  0
  194.6940  172.5160  145.1160 O   0  0  0  0  0  0  0  0  0  0  0  0
  193.9320  176.6920  144.7830 C   0  0  0  0  0  2  0  0  0  0  0  0
  193.6610  174.4650  145.9090 N   0  0  0  0  0  0  0  0  0  0  0  0
  192.2510  173.7650  142.4700 F   0  0  0  0  0  0  0  0  0  0  0  0
  192.4000  172.7870  144.7830 O   0  0  0  0  0  0  0  0  0  0  0  0
  192.7070  172.4580  142.3760 C   0  0  1  0  0  0  0  0  0  0  0  0
  194.0470  173.1780  140.4700 C   0  0  2  0  0  0  0  0  0  0  0  0
  193.9750  172.4430  141.7000 O   0  0  0  0  0  0  0  0  0  0  0  0
  195.1550  175.7950  144.5780 C   0  0  2  0  0  3  0  0  0  0  0  0
  192.8700  171.8840  143.8210 C   0  0  1  0  0  3  0  0  0  0  0  0
  189.0460  173.4440  143.3890 C   0  0  0  0  0  2  0  0  0  0  0  0
  189.7490  173.1890  141.0530 C   0  0  2  0  0  3  0  0  0  0  0  0
  192.2650  170.9670  138.6250 O   0  0  0  0  0  1  0  0  0  0  0  0
  189.7860  172.1180  143.2760 C   0  0  0  0  0  2  0  0  0  0  0  0
  191.2060  169.1490  139.8750 C   0  0  0  0  0  2  0  0  0  0  0  0
  189.8170  170.9120  138.7250 C   0  0  2  0  0  3  0  0  0  0  0  0
  188.8460  173.9710  141.9810 C   0  0  0  0  0  2  0  0  0  0  0  0
  191.1350  170.1500  138.7310 C   0  0  1  0  0  0  0  0  0  0  0  0
  193.6870  169.6340  141.1590 O   0  0  0  0  0  0  0  0  0  0  0  0
  191.6530  171.6200  141.5900 C   0  0  2  0  0  3  0  0  0  0  0  0
  191.5580  169.0680  142.5780 O   0  0  0  0  0  1  0  0  0  0  0  0
  189.0590  172.9090  139.8650 O   0  0  0  0  0  0  0  0  0  0  0  0
  189.5580  170.4690  137.2980 C   0  0  0  0  0  2  0  0  0  0  0  0
  190.0040  172.4110  138.9580 C   0  0  2  0  0  3  0  0  0  0  0  0
  190.1570  171.9290  141.8170 C   0  0  2  0  0  3  0  0  0  0  0  0
  192.0160  169.8380  141.3610 P   0  0  1  0  0  0  0  0  0  0  0  0
  190.7940  169.5780  137.3720 C   0  0  0  0  0  2  0  0  0  0  0  0
  190.2140  173.2810  137.7000 C   0  0  0  0  0  2  0  0  0  0  0  0
  191.1960  172.6900  136.7800 N   0  0  0  0  0  2  0  0  0  0  0  0
  192.4540  173.3100  136.5290 C   0  0  0  0  0  0  0  0  0  0  0  0
  193.5100  172.7090  136.8590 O   0  0  0  0  0  0  0  0  0  0  0  0
  192.5390  174.6000  135.8260 C   0  0  0  0  0  0  0  0  0  0  0  0
  191.4770  176.4350  134.5140 C   0  0  2  0  0  3  0  0  0  0  0  0
  193.8970  175.2180  135.6020 C   0  0  0  0  0  2  0  0  0  0  0  0
  191.4290  175.1660  135.3240 C   0  0  0  0  0  3  0  0  0  0  0  0
  193.8030  176.7010  135.3920 C   0  0  0  0  0  0  0  0  0  0  0  0
  194.8260  177.4150  135.5760 O   0  0  0  0  0  0  0  0  0  0  0  0
  192.6010  177.2950  134.8950 N   0  0  0  0  0  0  0  0  0  0  0  0
  192.6170  178.5940  134.5130 O   0  0  0  0  0  1  0  0  0  0  0  0
  190.1680  177.1830  134.6770 C   0  0  0  0  0  1  0  0  0  0  0  0
  194.3650  170.1360  144.8470 C   0  0  2  0  0  3  0  0  0  0  0  0
  194.9510  170.1800  146.2480 C   0  0  0  0  0  1  0  0  0  0  0  0
  195.1400  169.3050  144.0510 O   0  0  0  0  0  0  0  0  0  0  0  0
  196.0760  170.1540  143.4390 C   0  0  0  0  0  1  0  0  0  0  0  0
  192.5270  174.9410  146.7020 C   0  0  0  0  0  2  0  0  0  0  0  0
  191.4230  175.4370  145.7690 C   0  0  0  0  0  2  0  0  0  0  0  0
  190.7020  176.6280  146.3910 C   0  0  0  0  0  2  0  0  0  0  0  0
  189.3390  176.7340  145.8830 N   0  0  0  0  0  0  0  0  0  0  0  0
  189.0950  177.1180  144.5220 C   0  0  0  0  0  0  0  0  0  0  0  0
  187.9330  176.9880  144.0360 O   0  0  0  0  0  0  0  0  0  0  0  0
  188.2560  176.1770  146.6840 C   0  0  0  0  0  2  0  0  0  0  0  0
  186.2880  176.7230  147.9000 O   0  0  0  0  0  0  0  0  0  0  0  0
  187.4010  177.2990  147.2610 C   0  0  2  0  0  3  0  0  0  0  0  0
  186.0690  177.2680  146.6200 C   0  0  2  0  0  3  0  0  0  0  0  0
  185.4030  178.6250  146.7460 C   0  0  0  0  0  3  0  0  0  0  0  0
  184.0480  178.5960  146.0460 C   0  0  0  0  0  2  0  0  0  0  0  0
  185.2390  179.2190  145.3600 C   0  0  0  0  0  2  0  0  0  0  0  0
  190.1400  177.6320  143.7370 O   0  0  0  0  0  0  0  0  0  0  0  0
  190.0950  177.6290  142.3150 C   0  0  0  0  0  2  0  0  0  0  0  0
  188.7810  178.2040  141.8220 C   0  0  0  0  0  1  0  0  0  0  0  0
  1 15  1  6  0  0  0
  1 13  1  0  0  0  0
  2  9  1  1  0  0  0
  2  5  1  0  0  0  0
  3 19  1  0  0  0  0
  5  6  1  0  0  0  0
  6  3  1  0  0  0  0
  7 17  1  0  0  0  0
  8 51  1  1  0  0  0
  8 11  1  0  0  0  0
 10 12  1  1  0  0  0
 10 13  1  0  0  0  0
 11  1  1  0  0  0  0
 13 55  1  0  0  0  0
 16 14  1  1  0  0  0
 16 20  1  0  0  0  0
 17  4  1  6  0  0  0
 17  2  1  0  0  0  0
 17 18  1  0  0  0  0
 18 16  1  0  0  0  0
 19 10  1  0  0  0  0
 19 12  1  6  0  0  0
 20  8  1  0  0  0  0
 20 15  1  1  0  0  0
 22 35  1  0  0  0  0
 22 27  1  1  0  0  0
 24 21  1  0  0  0  0
 25 36  1  0  0  0  0
 26 33  1  6  0  0  0
 26 28  1  0  0  0  0
 26 34  1  0  0  0  0
 27 21  1  0  0  0  0
 28 23  1  6  0  0  0
 28 25  1  0  0  0  0
 30 35  1  0  0  0  0
 30 16  1  1  0  0  0
 32 22  1  0  0  0  0
 33 37  1  0  0  0  0
 34 38  1  6  0  0  0
 34 32  1  0  0  0  0
 35 24  1  1  0  0  0
 36 29  2  6  0  0  0
 36 30  1  0  0  0  0
 36 31  1  0  0  0  0
 37 28  1  0  0  0  0
 39 38  1  0  0  0  0
 40 39  1  0  0  0  0
 40 41  2  0  0  0  0
 42 40  1  0  0  0  0
 43 50  1  1  0  0  0
 43 48  1  0  0  0  0
 43 45  1  0  0  0  0
 44 42  1  0  0  0  0
 45 42  2  0  0  0  0
 46 47  2  0  0  0  0
 46 44  1  0  0  0  0
 48 46  1  0  0  0  0
 49 48  1  0  0  0  0
 51 52  1  1  0  0  0
 53 51  1  0  0  0  0
 54 53  1  0  0  0  0
 56 57  1  0  0  0  0
 56 55  1  0  0  0  0
 58 57  1  0  0  0  0
 58 61  1  0  0  0  0
 59 58  1  0  0  0  0
 60 59  2  0  0  0  0
 63 61  1  6  0  0  0
 63 62  1  0  0  0  0
 64 65  1  1  0  0  0
 64 63  1  0  0  0  0
 64 62  1  0  0  0  0
 66 65  1  0  0  0  0
 67 66  1  0  0  0  0
 67 65  1  0  0  0  0
 68 59  1  0  0  0  0
 69 68  1  0  0  0  0
 70 69  1  0  0  0  0
M  END
>  <MODEL>
4

>  <REMARK>
 VINA RESULT:      -5.7      1.830      2.660
  Name = 
  15 active torsions:
  status: ('A' for Active; 'I' for Inactive)
    1  A    between atoms: C_3  and  C_58
    2  A    between atoms: C_3  and  N_59
    3  A    between atoms: C_7  and  N_20
    4  A    between atoms: C_7  and  C_28
    5  A    between atoms: C_8  and  C_65
    6  A    between atoms: C_13  and  C_16
    7  A    between atoms: C_13  and  C_29
    8  A    between atoms: O_14  and  C_26
    9  A    between atoms: O_14  and  C_38
   10  A    between atoms: C_16  and  N_20
   11  A    between atoms: C_19  and  C_23
   12  A    between atoms: C_23  and  O_53
   13  A    between atoms: C_29  and  N_30
   14  A    between atoms: C_31  and  C_36
   15  A    between atoms: C_49  and  C_50
                            x       y       z     vdW  Elec       q    Type
                         _______ _______ _______ _____ _____    ______ ____

>  <TORSDO>
F 15

$$$$
=
 OpenBabel11072409423D

 70 78  0  0  1  0  0  0  0  0999 V2000
  191.5350  173.7280  142.9640 C   0  0  1  0  0  3  0  0  0  0  0  0
  196.4320  174.7890  144.9350 C   0  0  1  0  0  3  0  0  0  0  0  0
  193.7290  175.1690  146.1720 O   0  0  0  0  0  0  0  0  0  0  0  0
  197.6980  173.2010  143.7870 F   0  0  0  0  0  0  0  0  0  0  0  0
  195.4920  175.9990  144.7870 C   0  0  0  0  0  2  0  0  0  0  0  0
  194.6060  176.2580  146.0040 C   0  0  0  0  0  2  0  0  0  0  0  0
  197.1480  175.0530  142.6600 O   0  0  0  0  0  1  0  0  0  0  0  0
  193.1180  172.1860  142.9540 C   0  0  2  0  0  3  0  0  0  0  0  0
  195.9840  173.8580  145.8590 F   0  0  0  0  0  0  0  0  0  0  0  0
  192.3370  175.5720  144.2510 C   0  0  2  0  0  3  0  0  0  0  0  0
  192.1490  172.7530  143.7680 O   0  0  0  0  0  0  0  0  0  0  0  0
  192.0570  176.7890  145.1240 C   0  0  0  0  0  2  0  0  0  0  0  0
  191.1370  174.8670  143.7960 N   0  0  0  0  0  0  0  0  0  0  0  0
  194.5710  175.2860  142.2670 F   0  0  0  0  0  0  0  0  0  0  0  0
  192.3680  174.1290  141.8960 O   0  0  0  0  0  0  0  0  0  0  0  0
  194.8060  173.9380  142.0360 C   0  0  1  0  0  0  0  0  0  0  0  0
  196.6850  174.1110  143.5810 C   0  0  2  0  0  0  0  0  0  0  0  0
  195.5280  173.3820  143.1480 O   0  0  0  0  0  0  0  0  0  0  0  0
  192.3910  175.4390  145.7640 C   0  0  2  0  0  3  0  0  0  0  0  0
  193.4290  173.2140  141.8830 C   0  0  1  0  0  3  0  0  0  0  0  0
  196.5360  170.4240  141.7970 C   0  0  0  0  0  2  0  0  0  0  0  0
  195.3020  171.4210  139.9260 C   0  0  2  0  0  3  0  0  0  0  0  0
  194.4500  175.0660  138.1510 O   0  0  0  0  0  1  0  0  0  0  0  0
  197.0310  171.8550  141.6330 C   0  0  0  0  0  2  0  0  0  0  0  0
  196.8760  175.2910  138.3830 C   0  0  0  0  0  2  0  0  0  0  0  0
  195.8600  173.2560  137.2940 C   0  0  2  0  0  3  0  0  0  0  0  0
  195.6450  170.1150  140.6090 C   0  0  0  0  0  2  0  0  0  0  0  0
  195.6930  174.7370  137.6020 C   0  0  1  0  0  0  0  0  0  0  0  0
  195.7520  176.6660  140.5940 O   0  0  0  0  0  0  0  0  0  0  0  0
  195.6280  173.7960  140.7190 C   0  0  2  0  0  3  0  0  0  0  0  0
  197.9390  175.2540  140.8940 O   0  0  0  0  0  1  0  0  0  0  0  0
  195.3510  171.2420  138.5370 O   0  0  0  0  0  0  0  0  0  0  0  0
  195.6860  173.5360  135.8130 C   0  0  0  0  0  2  0  0  0  0  0  0
  194.7920  172.3920  137.9620 C   0  0  2  0  0  3  0  0  0  0  0  0
  196.3190  172.4460  140.4300 C   0  0  2  0  0  3  0  0  0  0  0  0
  196.6020  175.2560  140.1890 P   0  0  1  0  0  0  0  0  0  0  0  0
  195.6840  175.0300  136.1180 C   0  0  0  0  0  2  0  0  0  0  0  0
  193.5000  172.1470  137.1530 C   0  0  0  0  0  2  0  0  0  0  0  0
  192.7100  171.0360  137.7030 N   0  0  0  0  0  2  0  0  0  0  0  0
  191.3680  170.7950  137.2900 C   0  0  0  0  0  0  0  0  0  0  0  0
  191.0920  169.7190  136.6980 O   0  0  0  0  0  0  0  0  0  0  0  0
  190.2920  171.7470  137.6090 C   0  0  0  0  0  0  0  0  0  0  0  0
  188.5970  172.6610  139.1940 C   0  0  2  0  0  3  0  0  0  0  0  0
  189.7360  172.6140  136.5060 C   0  0  0  0  0  2  0  0  0  0  0  0
  189.7640  171.7750  138.8440 C   0  0  0  0  0  3  0  0  0  0  0  0
  189.0840  173.8510  137.0500 C   0  0  0  0  0  0  0  0  0  0  0  0
  188.9220  174.8450  136.2910 O   0  0  0  0  0  0  0  0  0  0  0  0
  188.5630  173.8800  138.3810 N   0  0  0  0  0  0  0  0  0  0  0  0
  187.7940  174.9270  138.7650 O   0  0  0  0  0  1  0  0  0  0  0  0
  188.6620  173.0170  140.6670 C   0  0  0  0  0  1  0  0  0  0  0  0
  192.6310  170.8680  142.3340 C   0  0  2  0  0  3  0  0  0  0  0  0
  191.1270  170.7050  142.4780 C   0  0  0  0  0  1  0  0  0  0  0  0
  193.2680  169.7970  142.9420 O   0  0  0  0  0  0  0  0  0  0  0  0
  192.3100  168.7720  142.9730 C   0  0  0  0  0  1  0  0  0  0  0  0
  190.2610  175.7480  143.0230 C   0  0  0  0  0  2  0  0  0  0  0  0
  188.8310  175.6410  143.5520 C   0  0  0  0  0  2  0  0  0  0  0  0
  188.3640  176.9900  144.0870 C   0  0  0  0  0  2  0  0  0  0  0  0
  187.3530  176.8140  145.1250 N   0  0  0  0  0  0  0  0  0  0  0  0
  187.7050  176.9190  146.5120 C   0  0  0  0  0  0  0  0  0  0  0  0
  186.7890  176.9890  147.3840 O   0  0  0  0  0  0  0  0  0  0  0  0
  185.9500  176.8120  144.7310 C   0  0  0  0  0  2  0  0  0  0  0  0
  184.2680  178.0480  143.5930 O   0  0  0  0  0  0  0  0  0  0  0  0
  185.6530  178.0150  143.8440 C   0  0  2  0  0  3  0  0  0  0  0  0
  185.0840  177.5410  142.5640 C   0  0  2  0  0  3  0  0  0  0  0  0
  185.2750  178.5970  141.4920 C   0  0  0  0  0  3  0  0  0  0  0  0
  184.2310  178.4080  140.3960 C   0  0  0  0  0  2  0  0  0  0  0  0
  185.6400  177.9100  140.1890 C   0  0  0  0  0  2  0  0  0  0  0  0
  189.0550  176.9460  146.8960 O   0  0  0  0  0  0  0  0  0  0  0  0
  189.6560  175.8930  147.6390 C   0  0  0  0  0  2  0  0  0  0  0  0
  189.2700  174.5450  147.0600 C   0  0  0  0  0  1  0  0  0  0  0  0
  1 15  1  6  0  0  0
  1 11  1  0  0  0  0
  1 13  1  0  0  0  0
  2  9  1  1  0  0  0
  5  2  1  0  0  0  0
  5  6  1  0  0  0  0
  6  3  1  0  0  0  0
  8 51  1  6  0  0  0
  8 11  1  0  0  0  0
 10 12  1  1  0  0  0
 10 19  1  0  0  0  0
 13 10  1  0  0  0  0
 16 14  1  1  0  0  0
 16 18  1  0  0  0  0
 17  7  1  6  0  0  0
 17  4  1  0  0  0  0
 17  2  1  0  0  0  0
 18 17  1  0  0  0  0
 19 12  1  1  0  0  0
 19  3  1  0  0  0  0
 20 15  1  1  0  0  0
 20 16  1  0  0  0  0
 20  8  1  0  0  0  0
 22 35  1  0  0  0  0
 22 27  1  1  0  0  0
 24 21  1  0  0  0  0
 25 36  1  0  0  0  0
 26 33  1  6  0  0  0
 26 28  1  0  0  0  0
 26 34  1  0  0  0  0
 27 21  1  0  0  0  0
 28 23  1  1  0  0  0
 28 25  1  0  0  0  0
 30 16  1  1  0  0  0
 32 22  1  0  0  0  0
 33 37  1  0  0  0  0
 34 38  1  6  0  0  0
 34 32  1  0  0  0  0
 35 30  1  0  0  0  0
 35 24  1  1  0  0  0
 36 29  2  1  0  0  0
 36 30  1  0  0  0  0
 36 31  1  0  0  0  0
 37 28  1  0  0  0  0
 38 39  1  0  0  0  0
 40 42  1  0  0  0  0
 40 39  1  0  0  0  0
 41 40  2  0  0  0  0
 42 45  2  0  0  0  0
 43 50  1  1  0  0  0
 44 46  1  0  0  0  0
 44 42  1  0  0  0  0
 45 43  1  0  0  0  0
 46 48  1  0  0  0  0
 47 46  2  0  0  0  0
 48 49  1  0  0  0  0
 48 43  1  0  0  0  0
 51 52  1  1  0  0  0
 51 53  1  0  0  0  0
 53 54  1  0  0  0  0
 55 56  1  0  0  0  0
 55 13  1  0  0  0  0
 56 57  1  0  0  0  0
 57 58  1  0  0  0  0
 58 59  1  0  0  0  0
 59 68  1  0  0  0  0
 59 60  2  0  0  0  0
 61 58  1  0  0  0  0
 62 63  1  0  0  0  0
 63 61  1  1  0  0  0
 64 65  1  6  0  0  0
 64 62  1  0  0  0  0
 64 63  1  0  0  0  0
 66 65  1  0  0  0  0
 67 66  1  0  0  0  0
 67 65  1  0  0  0  0
 68 69  1  0  0  0  0
 70 69  1  0  0  0  0
M  END
>  <MODEL>
5

>  <REMARK>
 VINA RESULT:      -5.5      2.522      5.059
  Name = 
  15 active torsions:
  status: ('A' for Active; 'I' for Inactive)
    1  A    between atoms: C_3  and  C_58
    2  A    between atoms: C_3  and  N_59
    3  A    between atoms: C_7  and  N_20
    4  A    between atoms: C_7  and  C_28
    5  A    between atoms: C_8  and  C_65
    6  A    between atoms: C_13  and  C_16
    7  A    between atoms: C_13  and  C_29
    8  A    between atoms: O_14  and  C_26
    9  A    between atoms: O_14  and  C_38
   10  A    between atoms: C_16  and  N_20
   11  A    between atoms: C_19  and  C_23
   12  A    between atoms: C_23  and  O_53
   13  A    between atoms: C_29  and  N_30
   14  A    between atoms: C_31  and  C_36
   15  A    between atoms: C_49  and  C_50
                            x       y       z     vdW  Elec       q    Type
                         _______ _______ _______ _____ _____    ______ ____

>  <TORSDO>
F 15

$$$$
=
 OpenBabel11072409423D

 70 78  0  0  1  0  0  0  0  0999 V2000
  193.4390  173.6190  140.5880 C   0  0  1  0  0  3  0  0  0  0  0  0
  189.1220  172.5330  143.6160 C   0  0  1  0  0  3  0  0  0  0  0  0
  189.8470  171.5710  140.8720 O   0  0  0  0  0  0  0  0  0  0  0  0
  190.0300  172.7950  145.7490 F   0  0  0  0  0  0  0  0  0  0  0  0
  188.8400  173.2270  142.2720 C   0  0  0  0  0  2  0  0  0  0  0  0
  188.6450  172.2690  141.0990 C   0  0  0  0  0  2  0  0  0  0  0  0
  189.4760  174.6660  144.6560 O   0  0  0  0  0  1  0  0  0  0  0  0
  193.6660  172.9180  142.6710 C   0  0  2  0  0  3  0  0  0  0  0  0
  189.6570  171.2620  143.4740 F   0  0  0  0  0  0  0  0  0  0  0  0
  191.1330  173.4110  140.0060 C   0  0  2  0  0  3  0  0  0  0  0  0
  193.4620  172.4580  141.3790 O   0  0  0  0  0  0  0  0  0  0  0  0
  190.0540  173.2330  138.9450 C   0  0  0  0  0  2  0  0  0  0  0  0
  192.4990  173.4370  139.4790 N   0  0  0  0  0  0  0  0  0  0  0  0
  190.9130  175.0600  142.5040 F   0  0  0  0  0  0  0  0  0  0  0  0
  193.1290  174.7680  141.3500 O   0  0  0  0  0  0  0  0  0  0  0  0
  191.8450  174.6120  143.4300 C   0  0  1  0  0  0  0  0  0  0  0  0
  190.0290  173.3930  144.5070 C   0  0  2  0  0  0  0  0  0  0  0  0
  191.3790  173.3880  144.0220 O   0  0  0  0  0  0  0  0  0  0  0  0
  190.5700  172.0260  139.7330 C   0  0  2  0  0  3  0  0  0  0  0  0
  193.1980  174.3610  142.6890 C   0  0  1  0  0  3  0  0  0  0  0  0
  191.0360  178.1790  142.0100 C   0  0  0  0  0  2  0  0  0  0  0  0
  190.1770  177.3890  144.1660 C   0  0  2  0  0  3  0  0  0  0  0  0
  191.1900  175.0280  147.4160 O   0  0  0  0  0  1  0  0  0  0  0  0
  192.2100  177.5960  142.7830 C   0  0  0  0  0  2  0  0  0  0  0  0
  193.2360  176.3590  147.2340 C   0  0  0  0  0  2  0  0  0  0  0  0
  190.9720  177.4660  147.3240 C   0  0  2  0  0  3  0  0  0  0  0  0
  189.8550  178.2410  142.9590 C   0  0  0  0  0  2  0  0  0  0  0  0
  191.7970  176.2500  147.7190 C   0  0  1  0  0  0  0  0  0  0  0  0
  193.7820  173.9090  145.9140 O   0  0  0  0  0  1  0  0  0  0  0  0
  192.0340  175.7150  144.5160 C   0  0  2  0  0  3  0  0  0  0  0  0
  194.7020  176.1630  144.9430 O   0  0  0  0  0  0  0  0  0  0  0  0
  189.7340  178.0430  145.3240 O   0  0  0  0  0  0  0  0  0  0  0  0
  190.6040  177.7000  148.7760 C   0  0  0  0  0  2  0  0  0  0  0  0
  189.8290  177.1160  146.3720 C   0  0  2  0  0  3  0  0  0  0  0  0
  191.6910  177.1740  144.1450 C   0  0  2  0  0  3  0  0  0  0  0  0
  193.4930  175.5530  145.6150 P   0  0  1  0  0  0  0  0  0  0  0  0
  191.5640  176.5830  149.1760 C   0  0  0  0  0  2  0  0  0  0  0  0
  188.4810  176.7390  147.0240 C   0  0  0  0  0  2  0  0  0  0  0  0
  187.6640  177.9240  147.3220 N   0  0  0  0  0  2  0  0  0  0  0  0
  186.2990  178.0120  146.9230 C   0  0  0  0  0  0  0  0  0  0  0  0
  185.4060  178.0930  147.8070 O   0  0  0  0  0  0  0  0  0  0  0  0
  185.9250  178.0830  145.5010 C   0  0  0  0  0  0  0  0  0  0  0  0
  186.3310  177.4840  143.1140 C   0  0  2  0  0  3  0  0  0  0  0  0
  184.8310  179.0340  145.0830 C   0  0  0  0  0  2  0  0  0  0  0  0
  186.6110  177.3720  144.5910 C   0  0  0  0  0  3  0  0  0  0  0  0
  184.2060  178.6220  143.7830 C   0  0  0  0  0  0  0  0  0  0  0  0
  183.0590  179.0520  143.4880 O   0  0  0  0  0  0  0  0  0  0  0  0
  184.9330  177.8290  142.8400 N   0  0  0  0  0  0  0  0  0  0  0  0
  184.4270  177.6580  141.5950 O   0  0  0  0  0  1  0  0  0  0  0  0
  186.6900  176.1770  142.4350 C   0  0  0  0  0  1  0  0  0  0  0  0
  195.1410  172.8070  143.0820 C   0  0  2  0  0  3  0  0  0  0  0  0
  195.3070  172.0000  144.3590 C   0  0  0  0  0  1  0  0  0  0  0  0
  195.6750  174.0730  143.2680 O   0  0  0  0  0  0  0  0  0  0  0  0
  197.0400  173.9410  142.9660 C   0  0  0  0  0  1  0  0  0  0  0  0
  192.6770  174.5180  138.5100 C   0  0  0  0  0  2  0  0  0  0  0  0
  193.4480  173.9980  137.2980 C   0  0  0  0  0  2  0  0  0  0  0  0
  192.4920  173.3530  136.3000 C   0  0  0  0  0  2  0  0  0  0  0  0
  192.9190  171.9970  135.9740 N   0  0  0  0  0  0  0  0  0  0  0  0
  192.1050  171.1560  135.1440 C   0  0  0  0  0  0  0  0  0  0  0  0
  192.5850  170.0770  134.6870 O   0  0  0  0  0  0  0  0  0  0  0  0
  194.2950  171.6150  136.2640 C   0  0  0  0  0  2  0  0  0  0  0  0
  193.5000  170.6260  138.2740 O   0  0  0  0  0  0  0  0  0  0  0  0
  194.3180  170.3800  137.1560 C   0  0  2  0  0  3  0  0  0  0  0  0
  194.8880  170.7460  138.4700 C   0  0  2  0  0  3  0  0  0  0  0  0
  195.4180  169.5070  139.1670 C   0  0  0  0  0  3  0  0  0  0  0  0
  195.0800  169.5710  140.6530 C   0  0  0  0  0  2  0  0  0  0  0  0
  196.4680  169.9250  140.1790 C   0  0  0  0  0  2  0  0  0  0  0  0
  190.7860  171.5300  134.8400 O   0  0  0  0  0  0  0  0  0  0  0  0
  189.6830  171.1680  135.6620 C   0  0  0  0  0  2  0  0  0  0  0  0
  190.1020  170.1350  136.6890 C   0  0  0  0  0  1  0  0  0  0  0  0
  1 15  1  1  0  0  0
  1 11  1  0  0  0  0
  2  9  1  6  0  0  0
  2 17  1  0  0  0  0
  3  6  1  0  0  0  0
  5  2  1  0  0  0  0
  6  5  1  0  0  0  0
  8 20  1  0  0  0  0
  8 51  1  6  0  0  0
 10 12  1  6  0  0  0
 11  8  1  0  0  0  0
 13 10  1  0  0  0  0
 13  1  1  0  0  0  0
 16 14  1  6  0  0  0
 16 18  1  0  0  0  0
 17  7  1  1  0  0  0
 17  4  1  0  0  0  0
 18 17  1  0  0  0  0
 19 12  1  6  0  0  0
 19 10  1  0  0  0  0
 19  3  1  0  0  0  0
 20 15  1  6  0  0  0
 20 16  1  0  0  0  0
 21 24  1  0  0  0  0
 21 27  1  0  0  0  0
 22 27  1  6  0  0  0
 22 32  1  0  0  0  0
 25 28  1  0  0  0  0
 26 28  1  0  0  0  0
 26 33  1  1  0  0  0
 28 23  1  6  0  0  0
 28 37  1  0  0  0  0
 30 16  1  6  0  0  0
 30 36  1  0  0  0  0
 32 34  1  0  0  0  0
 33 37  1  0  0  0  0
 34 38  1  1  0  0  0
 34 26  1  0  0  0  0
 35 24  1  6  0  0  0
 35 22  1  0  0  0  0
 35 30  1  0  0  0  0
 36 31  2  6  0  0  0
 36 29  1  0  0  0  0
 36 25  1  0  0  0  0
 38 39  1  0  0  0  0
 40 39  1  0  0  0  0
 40 41  2  0  0  0  0
 42 40  1  0  0  0  0
 43 50  1  6  0  0  0
 43 45  1  0  0  0  0
 44 42  1  0  0  0  0
 45 42  2  0  0  0  0
 46 44  1  0  0  0  0
 47 46  2  0  0  0  0
 48 43  1  0  0  0  0
 48 46  1  0  0  0  0
 49 48  1  0  0  0  0
 51 53  1  0  0  0  0
 51 52  1  1  0  0  0
 54 53  1  0  0  0  0
 55 13  1  0  0  0  0
 56 55  1  0  0  0  0
 57 56  1  0  0  0  0
 58 61  1  0  0  0  0
 58 57  1  0  0  0  0
 59 58  1  0  0  0  0
 60 59  2  0  0  0  0
 62 64  1  0  0  0  0
 63 61  1  6  0  0  0
 63 62  1  0  0  0  0
 63 64  1  0  0  0  0
 64 65  1  1  0  0  0
 65 67  1  0  0  0  0
 65 66  1  0  0  0  0
 67 66  1  0  0  0  0
 68 59  1  0  0  0  0
 68 69  1  0  0  0  0
 69 70  1  0  0  0  0
M  END
>  <MODEL>
6

>  <REMARK>
 VINA RESULT:      -5.3      3.050      9.713
  Name = 
  15 active torsions:
  status: ('A' for Active; 'I' for Inactive)
    1  A    between atoms: C_3  and  C_58
    2  A    between atoms: C_3  and  N_59
    3  A    between atoms: C_7  and  N_20
    4  A    between atoms: C_7  and  C_28
    5  A    between atoms: C_8  and  C_65
    6  A    between atoms: C_13  and  C_16
    7  A    between atoms: C_13  and  C_29
    8  A    between atoms: O_14  and  C_26
    9  A    between atoms: O_14  and  C_38
   10  A    between atoms: C_16  and  N_20
   11  A    between atoms: C_19  and  C_23
   12  A    between atoms: C_23  and  O_53
   13  A    between atoms: C_29  and  N_30
   14  A    between atoms: C_31  and  C_36
   15  A    between atoms: C_49  and  C_50
                            x       y       z     vdW  Elec       q    Type
                         _______ _______ _______ _____ _____    ______ ____

>  <TORSDO>
F 15

$$$$
=
 OpenBabel11072409423D

 70 78  0  0  1  0  0  0  0  0999 V2000
  191.5380  173.5370  142.9630 C   0  0  1  0  0  3  0  0  0  0  0  0
  195.6870  175.4380  145.8200 C   0  0  1  0  0  3  0  0  0  0  0  0
  192.7530  175.4570  146.4300 O   0  0  0  0  0  0  0  0  0  0  0  0
  197.3830  174.0090  145.0950 F   0  0  0  0  0  0  0  0  0  0  0  0
  194.6420  176.4790  145.3800 C   0  0  0  0  0  2  0  0  0  0  0  0
  193.4840  176.6580  146.3600 C   0  0  0  0  0  2  0  0  0  0  0  0
  196.8390  175.6960  143.7310 O   0  0  0  0  0  1  0  0  0  0  0  0
  193.2850  172.2590  143.4090 C   0  0  2  0  0  3  0  0  0  0  0  0
  195.1820  174.4960  146.7030 F   0  0  0  0  0  0  0  0  0  0  0  0
  191.7720  175.5440  144.2340 C   0  0  2  0  0  3  0  0  0  0  0  0
  192.0920  172.7090  143.9540 O   0  0  0  0  0  0  0  0  0  0  0  0
  191.1400  176.7450  144.9260 C   0  0  0  0  0  2  0  0  0  0  0  0
  190.8120  174.6410  143.5970 N   0  0  0  0  0  0  0  0  0  0  0  0
  194.4040  175.5080  142.7900 F   0  0  0  0  0  0  0  0  0  0  0  0
  192.5200  174.0080  142.0630 O   0  0  0  0  0  0  0  0  0  0  0  0
  194.8700  174.2030  142.7250 C   0  0  1  0  0  0  0  0  0  0  0  0
  196.3220  174.7410  144.6090 C   0  0  2  0  0  0  0  0  0  0  0  0
  195.4020  173.8210  144.0040 O   0  0  0  0  0  0  0  0  0  0  0  0
  191.5130  175.4960  145.7300 C   0  0  2  0  0  3  0  0  0  0  0  0
  193.6760  173.2680  142.3470 C   0  0  1  0  0  3  0  0  0  0  0  0
  197.1230  171.0220  143.1750 C   0  0  0  0  0  2  0  0  0  0  0  0
  196.1920  171.6860  141.0060 C   0  0  2  0  0  3  0  0  0  0  0  0
  195.2050  175.0260  138.7620 O   0  0  0  0  0  1  0  0  0  0  0  0
  197.4190  172.5030  142.9850 C   0  0  0  0  0  2  0  0  0  0  0  0
  197.4580  175.6690  139.4670 C   0  0  0  0  0  2  0  0  0  0  0  0
  197.0260  173.4320  138.3860 C   0  0  2  0  0  3  0  0  0  0  0  0
  196.5710  170.4990  141.8640 C   0  0  0  0  0  2  0  0  0  0  0  0
  196.5730  174.8790  138.5140 C   0  0  1  0  0  0  0  0  0  0  0  0
  195.6840  176.9630  141.2600 O   0  0  0  0  0  0  0  0  0  0  0  0
  195.9720  174.1250  141.6240 C   0  0  2  0  0  3  0  0  0  0  0  0
  197.9410  175.9580  142.1350 O   0  0  0  0  0  1  0  0  0  0  0  0
  196.5700  171.4370  139.6790 O   0  0  0  0  0  0  0  0  0  0  0  0
  197.1390  173.5910  136.8820 C   0  0  0  0  0  2  0  0  0  0  0  0
  195.9820  172.4410  138.8970 C   0  0  2  0  0  3  0  0  0  0  0  0
  196.9070  172.8950  141.6110 C   0  0  2  0  0  3  0  0  0  0  0  0
  196.8050  175.6940  141.1730 P   0  0  1  0  0  0  0  0  0  0  0  0
  196.8450  175.0800  137.0390 C   0  0  0  0  0  2  0  0  0  0  0  0
  194.9500  171.9360  137.8660 C   0  0  0  0  0  2  0  0  0  0  0  0
  194.1910  170.7820  138.3680 N   0  0  0  0  0  2  0  0  0  0  0  0
  192.9530  170.3880  137.7840 C   0  0  0  0  0  0  0  0  0  0  0  0
  192.8670  169.2600  137.2310 O   0  0  0  0  0  0  0  0  0  0  0  0
  191.7590  171.2450  137.8820 C   0  0  0  0  0  0  0  0  0  0  0  0
  189.6760  171.9430  139.0600 C   0  0  2  0  0  3  0  0  0  0  0  0
  191.4080  172.1380  136.7180 C   0  0  0  0  0  2  0  0  0  0  0  0
  190.9590  171.1600  138.9570 C   0  0  0  0  0  3  0  0  0  0  0  0
  190.5510  173.2930  137.1450 C   0  0  0  0  0  0  0  0  0  0  0  0
  190.4900  174.3180  136.4140 O   0  0  0  0  0  0  0  0  0  0  0  0
  189.7340  173.2050  138.3160 N   0  0  0  0  0  0  0  0  0  0  0  0
  188.8160  174.1720  138.5530 O   0  0  0  0  0  1  0  0  0  0  0  0
  189.3680  172.2120  140.5200 C   0  0  0  0  0  1  0  0  0  0  0  0
  193.1350  170.8530  142.8110 C   0  0  2  0  0  3  0  0  0  0  0  0
  191.6740  170.4640  142.6550 C   0  0  0  0  0  1  0  0  0  0  0  0
  193.7710  169.9250  143.6220 O   0  0  0  0  0  0  0  0  0  0  0  0
  192.9100  168.8160  143.6530 C   0  0  0  0  0  1  0  0  0  0  0  0
  190.0120  175.3360  142.5890 C   0  0  0  0  0  2  0  0  0  0  0  0
  188.5290  175.2120  142.9380 C   0  0  0  0  0  2  0  0  0  0  0  0
  187.6750  175.4030  141.6890 C   0  0  0  0  0  2  0  0  0  0  0  0
  187.1230  176.7520  141.6390 N   0  0  0  0  0  0  0  0  0  0  0  0
  186.4330  177.2160  140.4690 C   0  0  0  0  0  0  0  0  0  0  0  0
  185.7700  178.2930  140.5220 O   0  0  0  0  0  0  0  0  0  0  0  0
  187.0350  177.5110  142.8800 C   0  0  0  0  0  2  0  0  0  0  0  0
  184.7700  177.7020  143.5760 O   0  0  0  0  0  0  0  0  0  0  0  0
  185.9370  176.9390  143.7680 C   0  0  2  0  0  3  0  0  0  0  0  0
  185.5160  177.9710  144.7390 C   0  0  2  0  0  3  0  0  0  0  0  0
  184.8550  177.3160  145.9370 C   0  0  0  0  0  3  0  0  0  0  0  0
  184.5070  178.3780  146.9740 C   0  0  0  0  0  2  0  0  0  0  0  0
  185.7360  177.5210  147.1540 C   0  0  0  0  0  2  0  0  0  0  0  0
  186.4920  176.4770  139.2770 O   0  0  0  0  0  0  0  0  0  0  0  0
  186.6730  177.0930  138.0080 C   0  0  0  0  0  2  0  0  0  0  0  0
  186.5900  176.0620  136.8990 C   0  0  0  0  0  1  0  0  0  0  0  0
  1 15  1  6  0  0  0
  1 13  1  0  0  0  0
  1 11  1  0  0  0  0
  2  9  1  1  0  0  0
  5  2  1  0  0  0  0
  5  6  1  0  0  0  0
  6  3  1  0  0  0  0
  8 51  1  6  0  0  0
  8 11  1  0  0  0  0
 10 12  1  6  0  0  0
 10 19  1  0  0  0  0
 13 10  1  0  0  0  0
 16 14  1  1  0  0  0
 16 18  1  0  0  0  0
 17  7  1  6  0  0  0
 17  4  1  0  0  0  0
 17  2  1  0  0  0  0
 18 17  1  0  0  0  0
 19 12  1  1  0  0  0
 19  3  1  0  0  0  0
 20 15  1  1  0  0  0
 20 16  1  0  0  0  0
 20  8  1  0  0  0  0
 22 35  1  0  0  0  0
 22 27  1  1  0  0  0
 24 21  1  0  0  0  0
 25 36  1  0  0  0  0
 26 33  1  6  0  0  0
 26 28  1  0  0  0  0
 26 34  1  0  0  0  0
 27 21  1  0  0  0  0
 28 23  1  1  0  0  0
 28 25  1  0  0  0  0
 30 16  1  1  0  0  0
 32 22  1  0  0  0  0
 33 37  1  0  0  0  0
 34 38  1  6  0  0  0
 34 32  1  0  0  0  0
 35 30  1  0  0  0  0
 35 24  1  1  0  0  0
 36 29  2  1  0  0  0
 36 30  1  0  0  0  0
 36 31  1  0  0  0  0
 37 28  1  0  0  0  0
 38 39  1  0  0  0  0
 40 42  1  0  0  0  0
 40 39  1  0  0  0  0
 41 40  2  0  0  0  0
 42 45  2  0  0  0  0
 43 50  1  1  0  0  0
 44 46  1  0  0  0  0
 44 42  1  0  0  0  0
 45 43  1  0  0  0  0
 46 48  1  0  0  0  0
 47 46  2  0  0  0  0
 48 49  1  0  0  0  0
 48 43  1  0  0  0  0
 51 52  1  1  0  0  0
 51 53  1  0  0  0  0
 53 54  1  0  0  0  0
 55 56  1  0  0  0  0
 55 13  1  0  0  0  0
 57 56  1  0  0  0  0
 58 57  1  0  0  0  0
 58 61  1  0  0  0  0
 59 60  2  0  0  0  0
 59 58  1  0  0  0  0
 62 63  1  0  0  0  0
 62 64  1  0  0  0  0
 63 61  1  6  0  0  0
 63 64  1  0  0  0  0
 64 65  1  1  0  0  0
 65 66  1  0  0  0  0
 65 67  1  0  0  0  0
 66 67  1  0  0  0  0
 68 59  1  0  0  0  0
 69 68  1  0  0  0  0
 70 69  1  0  0  0  0
M  END
>  <MODEL>
7

>  <REMARK>
 VINA RESULT:      -5.2      2.743      5.952
  Name = 
  15 active torsions:
  status: ('A' for Active; 'I' for Inactive)
    1  A    between atoms: C_3  and  C_58
    2  A    between atoms: C_3  and  N_59
    3  A    between atoms: C_7  and  N_20
    4  A    between atoms: C_7  and  C_28
    5  A    between atoms: C_8  and  C_65
    6  A    between atoms: C_13  and  C_16
    7  A    between atoms: C_13  and  C_29
    8  A    between atoms: O_14  and  C_26
    9  A    between atoms: O_14  and  C_38
   10  A    between atoms: C_16  and  N_20
   11  A    between atoms: C_19  and  C_23
   12  A    between atoms: C_23  and  O_53
   13  A    between atoms: C_29  and  N_30
   14  A    between atoms: C_31  and  C_36
   15  A    between atoms: C_49  and  C_50
                            x       y       z     vdW  Elec       q    Type
                         _______ _______ _______ _____ _____    ______ ____

>  <TORSDO>
F 15

$$$$
=
 OpenBabel11072409423D

 70 78  0  0  1  0  0  0  0  0999 V2000
  191.1830  174.1210  142.5920 C   0  0  1  0  0  3  0  0  0  0  0  0
  195.7820  174.8560  145.2930 C   0  0  1  0  0  3  0  0  0  0  0  0
  192.9550  175.4270  146.1040 O   0  0  0  0  0  0  0  0  0  0  0  0
  197.0980  173.1790  144.3430 F   0  0  0  0  0  0  0  0  0  0  0  0
  194.9610  176.1260  145.0090 C   0  0  0  0  0  2  0  0  0  0  0  0
  193.9200  176.4520  146.0780 C   0  0  0  0  0  2  0  0  0  0  0  0
  196.8540  175.0590  143.1550 O   0  0  0  0  0  1  0  0  0  0  0  0
  192.6400  172.4740  142.8150 C   0  0  2  0  0  3  0  0  0  0  0  0
  195.1360  173.9630  146.1330 F   0  0  0  0  0  0  0  0  0  0  0  0
  191.9030  175.9130  143.9950 C   0  0  2  0  0  3  0  0  0  0  0  0
  191.5990  173.1110  143.4750 O   0  0  0  0  0  0  0  0  0  0  0  0
  191.5770  177.1510  144.8210 C   0  0  0  0  0  2  0  0  0  0  0  0
  190.7420  175.2890  143.3590 N   0  0  0  0  0  0  0  0  0  0  0  0
  194.3890  175.4640  142.3740 F   0  0  0  0  0  0  0  0  0  0  0  0
  192.1950  174.4580  141.6650 O   0  0  0  0  0  0  0  0  0  0  0  0
  194.5640  174.1020  142.1750 C   0  0  1  0  0  0  0  0  0  0  0  0
  196.1920  174.1560  143.9900 C   0  0  2  0  0  0  0  0  0  0  0  0
  195.0680  173.5050  143.3810 O   0  0  0  0  0  0  0  0  0  0  0  0
  191.7170  175.7850  145.4980 C   0  0  2  0  0  3  0  0  0  0  0  0
  193.1810  173.4730  141.8100 C   0  0  1  0  0  3  0  0  0  0  0  0
  196.0010  170.4520  142.1340 C   0  0  0  0  0  2  0  0  0  0  0  0
  195.1650  171.5660  140.1160 C   0  0  2  0  0  3  0  0  0  0  0  0
  194.9150  175.2840  138.3050 O   0  0  0  0  0  1  0  0  0  0  0  0
  196.6370  171.8340  142.0780 C   0  0  0  0  0  2  0  0  0  0  0  0
  197.2860  175.2920  138.9140 C   0  0  0  0  0  2  0  0  0  0  0  0
  196.2810  173.3620  137.6390 C   0  0  2  0  0  3  0  0  0  0  0  0
  195.2830  170.2300  140.8170 C   0  0  0  0  0  2  0  0  0  0  0  0
  196.1960  174.8500  137.9480 C   0  0  1  0  0  0  0  0  0  0  0  0
  195.9540  176.7460  140.9520 O   0  0  0  0  0  0  0  0  0  0  0  0
  195.5660  173.8980  140.9980 C   0  0  2  0  0  3  0  0  0  0  0  0
  197.9380  175.1450  141.5570 O   0  0  0  0  0  1  0  0  0  0  0  0
  195.4140  171.3920  138.7480 O   0  0  0  0  0  0  0  0  0  0  0  0
  196.3640  173.6660  136.1560 C   0  0  0  0  0  2  0  0  0  0  0  0
  195.0520  172.5910  138.1170 C   0  0  2  0  0  3  0  0  0  0  0  0
  196.1750  172.4940  140.7920 C   0  0  2  0  0  3  0  0  0  0  0  0
  196.7320  175.2700  140.6550 P   0  0  1  0  0  0  0  0  0  0  0  0
  196.4440  175.1530  136.4870 C   0  0  0  0  0  2  0  0  0  0  0  0
  193.8850  172.4660  137.1140 C   0  0  0  0  0  2  0  0  0  0  0  0
  193.0630  171.2760  137.3720 N   0  0  0  0  0  2  0  0  0  0  0  0
  191.8490  171.0360  136.6660 C   0  0  0  0  0  0  0  0  0  0  0  0
  191.7610  170.0220  135.9250 O   0  0  0  0  0  0  0  0  0  0  0  0
  190.6790  171.9110  136.8460 C   0  0  0  0  0  0  0  0  0  0  0  0
  188.6010  172.5360  138.0740 C   0  0  2  0  0  3  0  0  0  0  0  0
  190.3680  172.9370  135.7840 C   0  0  0  0  0  2  0  0  0  0  0  0
  189.8630  171.7320  137.8970 C   0  0  0  0  0  3  0  0  0  0  0  0
  189.5380  174.0620  136.3280 C   0  0  0  0  0  0  0  0  0  0  0  0
  189.5150  175.1630  135.7140 O   0  0  0  0  0  0  0  0  0  0  0  0
  188.7040  173.8690  137.4740 N   0  0  0  0  0  0  0  0  0  0  0  0
  187.8100  174.8310  137.8080 O   0  0  0  0  0  1  0  0  0  0  0  0
  188.2820  172.6510  139.5510 C   0  0  0  0  0  1  0  0  0  0  0  0
  192.1640  171.1900  142.1220 C   0  0  2  0  0  3  0  0  0  0  0  0
  190.6580  171.1850  141.9240 C   0  0  0  0  0  1  0  0  0  0  0  0
  192.5310  170.0840  142.8750 O   0  0  0  0  0  0  0  0  0  0  0  0
  191.9280  168.9900  142.2330 C   0  0  0  0  0  1  0  0  0  0  0  0
  190.0560  176.2240  142.4660 C   0  0  0  0  0  2  0  0  0  0  0  0
  188.7860  175.5730  141.9210 C   0  0  0  0  0  2  0  0  0  0  0  0
  187.7620  176.6400  141.5510 C   0  0  0  0  0  2  0  0  0  0  0  0
  186.8800  176.9270  142.6770 N   0  0  0  0  0  0  0  0  0  0  0  0
  185.5620  177.4510  142.4570 C   0  0  0  0  0  0  0  0  0  0  0  0
  184.7350  177.4810  143.4150 O   0  0  0  0  0  0  0  0  0  0  0  0
  187.2460  176.4150  143.9910 C   0  0  0  0  0  2  0  0  0  0  0  0
  188.1230  177.0860  146.0960 O   0  0  0  0  0  0  0  0  0  0  0  0
  187.4310  177.5690  144.9690 C   0  0  2  0  0  3  0  0  0  0  0  0
  186.7310  177.2480  146.2310 C   0  0  2  0  0  3  0  0  0  0  0  0
  186.4330  178.5230  146.9960 C   0  0  0  0  0  3  0  0  0  0  0  0
  185.2050  178.3170  147.8760 C   0  0  0  0  0  2  0  0  0  0  0  0
  185.0770  179.0470  146.5620 C   0  0  0  0  0  2  0  0  0  0  0  0
  185.1940  177.9220  141.1860 O   0  0  0  0  0  0  0  0  0  0  0  0
  184.0070  178.6740  140.9680 C   0  0  0  0  0  2  0  0  0  0  0  0
  183.0140  177.8750  140.1470 C   0  0  0  0  0  1  0  0  0  0  0  0
  1 15  1  6  0  0  0
  1 13  1  0  0  0  0
  1 11  1  0  0  0  0
  2  9  1  1  0  0  0
  5  2  1  0  0  0  0
  5  6  1  0  0  0  0
  6  3  1  0  0  0  0
  8 51  1  6  0  0  0
  8 11  1  0  0  0  0
 10 12  1  1  0  0  0
 10 19  1  0  0  0  0
 13 10  1  0  0  0  0
 16 14  1  1  0  0  0
 16 18  1  0  0  0  0
 17  7  1  6  0  0  0
 17  4  1  0  0  0  0
 17  2  1  0  0  0  0
 18 17  1  0  0  0  0
 19 12  1  1  0  0  0
 19  3  1  0  0  0  0
 20 15  1  1  0  0  0
 20 16  1  0  0  0  0
 20  8  1  0  0  0  0
 22 35  1  0  0  0  0
 22 27  1  1  0  0  0
 24 21  1  0  0  0  0
 25 36  1  0  0  0  0
 26 33  1  6  0  0  0
 26 28  1  0  0  0  0
 26 34  1  0  0  0  0
 27 21  1  0  0  0  0
 28 23  1  1  0  0  0
 28 25  1  0  0  0  0
 30 16  1  1  0  0  0
 32 22  1  0  0  0  0
 33 37  1  0  0  0  0
 34 38  1  6  0  0  0
 34 32  1  0  0  0  0
 35 30  1  0  0  0  0
 35 24  1  1  0  0  0
 36 29  2  1  0  0  0
 36 30  1  0  0  0  0
 36 31  1  0  0  0  0
 37 28  1  0  0  0  0
 38 39  1  0  0  0  0
 40 42  1  0  0  0  0
 40 39  1  0  0  0  0
 41 40  2  0  0  0  0
 42 45  2  0  0  0  0
 43 50  1  1  0  0  0
 44 46  1  0  0  0  0
 44 42  1  0  0  0  0
 45 43  1  0  0  0  0
 46 48  1  0  0  0  0
 47 46  2  0  0  0  0
 48 49  1  0  0  0  0
 48 43  1  0  0  0  0
 51 52  1  1  0  0  0
 51 53  1  0  0  0  0
 54 53  1  0  0  0  0
 55 13  1  0  0  0  0
 56 55  1  0  0  0  0
 57 56  1  0  0  0  0
 57 58  1  0  0  0  0
 58 61  1  0  0  0  0
 59 58  1  0  0  0  0
 59 60  2  0  0  0  0
 62 64  1  0  0  0  0
 63 61  1  6  0  0  0
 63 62  1  0  0  0  0
 63 64  1  0  0  0  0
 64 65  1  1  0  0  0
 65 66  1  0  0  0  0
 67 65  1  0  0  0  0
 67 66  1  0  0  0  0
 68 59  1  0  0  0  0
 69 68  1  0  0  0  0
 70 69  1  0  0  0  0
M  END
>  <MODEL>
8

>  <REMARK>
 VINA RESULT:      -5.1      2.589      5.634
  Name = 
  15 active torsions:
  status: ('A' for Active; 'I' for Inactive)
    1  A    between atoms: C_3  and  C_58
    2  A    between atoms: C_3  and  N_59
    3  A    between atoms: C_7  and  N_20
    4  A    between atoms: C_7  and  C_28
    5  A    between atoms: C_8  and  C_65
    6  A    between atoms: C_13  and  C_16
    7  A    between atoms: C_13  and  C_29
    8  A    between atoms: O_14  and  C_26
    9  A    between atoms: O_14  and  C_38
   10  A    between atoms: C_16  and  N_20
   11  A    between atoms: C_19  and  C_23
   12  A    between atoms: C_23  and  O_53
   13  A    between atoms: C_29  and  N_30
   14  A    between atoms: C_31  and  C_36
   15  A    between atoms: C_49  and  C_50
                            x       y       z     vdW  Elec       q    Type
                         _______ _______ _______ _____ _____    ______ ____

>  <TORSDO>
F 15

$$$$
=
 OpenBabel11072409423D

 70 78  0  0  1  0  0  0  0  0999 V2000
  189.0950  175.5420  142.4500 C   0  0  1  0  0  3  0  0  0  0  0  0
  190.8890  175.4600  147.5250 C   0  0  1  0  0  3  0  0  0  0  0  0
  188.2010  176.2170  146.4410 O   0  0  0  0  0  0  0  0  0  0  0  0
  192.5050  173.7840  147.3710 F   0  0  0  0  0  0  0  0  0  0  0  0
  190.4430  176.8340  146.9940 C   0  0  0  0  0  2  0  0  0  0  0  0
  188.9590  177.1320  147.1960 C   0  0  0  0  0  2  0  0  0  0  0  0
  193.0830  175.8100  146.6180 O   0  0  0  0  0  1  0  0  0  0  0  0
  190.0670  173.7380  143.2770 C   0  0  2  0  0  3  0  0  0  0  0  0
  189.8540  174.5430  147.6090 F   0  0  0  0  0  0  0  0  0  0  0  0
  188.7480  177.0650  144.2560 C   0  0  2  0  0  3  0  0  0  0  0  0
  188.8460  174.3940  143.2200 O   0  0  0  0  0  0  0  0  0  0  0  0
  187.9690  178.2190  144.8730 C   0  0  0  0  0  2  0  0  0  0  0  0
  188.2660  176.6470  142.9380 N   0  0  0  0  0  0  0  0  0  0  0  0
  191.6950  176.5620  144.5310 F   0  0  0  0  0  0  0  0  0  0  0  0
  190.4660  175.8830  142.4430 O   0  0  0  0  0  0  0  0  0  0  0  0
  191.9550  175.2240  144.2720 C   0  0  1  0  0  0  0  0  0  0  0  0
  192.0390  174.8850  146.6860 C   0  0  2  0  0  0  0  0  0  0  0  0
  191.5670  174.4340  145.4090 O   0  0  0  0  0  0  0  0  0  0  0  0
  187.6410  176.7740  145.2550 C   0  0  2  0  0  3  0  0  0  0  0  0
  191.1280  174.7910  143.0190 C   0  0  1  0  0  3  0  0  0  0  0  0
  193.0940  171.4870  144.6350 C   0  0  0  0  0  2  0  0  0  0  0  0
  193.7400  172.8860  142.7280 C   0  0  2  0  0  3  0  0  0  0  0  0
  194.6990  176.7890  141.7200 O   0  0  0  0  0  1  0  0  0  0  0  0
  193.6150  172.8040  145.1910 C   0  0  0  0  0  2  0  0  0  0  0  0
  196.1300  176.5190  143.6860 C   0  0  0  0  0  2  0  0  0  0  0  0
  196.1790  174.8390  141.8060 C   0  0  2  0  0  3  0  0  0  0  0  0
  193.3850  171.4770  143.1470 C   0  0  0  0  0  2  0  0  0  0  0  0
  195.9120  176.2850  142.1980 C   0  0  1  0  0  0  0  0  0  0  0  0
  193.8000  177.8520  144.5980 O   0  0  0  0  0  0  0  0  0  0  0  0
  193.4790  175.0620  143.9830 C   0  0  2  0  0  3  0  0  0  0  0  0
  194.9410  176.0240  146.0890 O   0  0  0  0  0  1  0  0  0  0  0  0
  194.8070  172.8440  141.8200 O   0  0  0  0  0  0  0  0  0  0  0  0
  197.1910  175.2960  140.7740 C   0  0  0  0  0  2  0  0  0  0  0  0
  194.9300  174.1320  141.2820 C   0  0  2  0  0  3  0  0  0  0  0  0
  194.0820  173.6400  144.0140 C   0  0  2  0  0  3  0  0  0  0  0  0
  194.5910  176.3540  144.6560 P   0  0  1  0  0  0  0  0  0  0  0  0
  197.0370  176.7240  141.2870 C   0  0  0  0  0  2  0  0  0  0  0  0
  194.6760  174.2230  139.7610 C   0  0  0  0  0  2  0  0  0  0  0  0
  195.0650  172.9890  139.0640 N   0  0  0  0  0  2  0  0  0  0  0  0
  194.7750  172.7860  137.6840 C   0  0  0  0  0  0  0  0  0  0  0  0
  195.7280  172.6640  136.8690 O   0  0  0  0  0  0  0  0  0  0  0  0
  193.3890  172.6430  137.2110 C   0  0  0  0  0  0  0  0  0  0  0  0
  191.6570  171.4300  135.8880 C   0  0  2  0  0  3  0  0  0  0  0  0
  192.4100  173.7590  137.4810 C   0  0  0  0  0  2  0  0  0  0  0  0
  193.0360  171.5740  136.4780 C   0  0  0  0  0  3  0  0  0  0  0  0
  190.9910  173.2710  137.4440 C   0  0  0  0  0  0  0  0  0  0  0  0
  190.0930  173.9470  138.0150 O   0  0  0  0  0  0  0  0  0  0  0  0
  190.6360  172.1070  136.6930 N   0  0  0  0  0  0  0  0  0  0  0  0
  189.3260  171.8190  136.5030 O   0  0  0  0  0  1  0  0  0  0  0  0
  191.3230  169.9580  135.7490 C   0  0  0  0  0  1  0  0  0  0  0  0
  190.1460  172.6050  142.2450 C   0  0  2  0  0  3  0  0  0  0  0  0
  189.0540  172.7260  141.1950 C   0  0  0  0  0  1  0  0  0  0  0  0
  190.0340  171.3780  142.8820 O   0  0  0  0  0  0  0  0  0  0  0  0
  190.4370  170.4320  141.9260 C   0  0  0  0  0  1  0  0  0  0  0  0
  188.3140  177.7500  141.9780 C   0  0  0  0  0  2  0  0  0  0  0  0
  186.9000  178.2740  141.7280 C   0  0  0  0  0  2  0  0  0  0  0  0
  185.8710  177.3220  142.3280 C   0  0  0  0  0  2  0  0  0  0  0  0
  184.5600  177.9570  142.4080 N   0  0  0  0  0  0  0  0  0  0  0  0
  184.0820  178.4900  143.6520 C   0  0  0  0  0  0  0  0  0  0  0  0
  183.0550  179.2310  143.6600 O   0  0  0  0  0  0  0  0  0  0  0  0
  183.8750  178.2900  141.1660 C   0  0  0  0  0  2  0  0  0  0  0  0
  182.1050  177.5490  139.7630 O   0  0  0  0  0  0  0  0  0  0  0  0
  182.5260  177.5830  141.1060 C   0  0  2  0  0  3  0  0  0  0  0  0
  181.5120  178.5250  140.5870 C   0  0  2  0  0  3  0  0  0  0  0  0
  180.1250  178.0720  141.0050 C   0  0  0  0  0  3  0  0  0  0  0  0
  179.0770  178.9660  140.3520 C   0  0  0  0  0  2  0  0  0  0  0  0
  179.4640  179.1860  141.7930 C   0  0  0  0  0  2  0  0  0  0  0  0
  184.7530  178.1940  144.8500 O   0  0  0  0  0  0  0  0  0  0  0  0
  184.1110  178.2610  146.1170 C   0  0  0  0  0  2  0  0  0  0  0  0
  185.0980  178.6700  147.1930 C   0  0  0  0  0  1  0  0  0  0  0  0
  1 15  1  1  0  0  0
  1 13  1  0  0  0  0
  1 11  1  0  0  0  0
  2  9  1  6  0  0  0
  3  6  1  0  0  0  0
  5  6  1  0  0  0  0
  5  2  1  0  0  0  0
  8 51  1  6  0  0  0
 10 12  1  6  0  0  0
 10 19  1  0  0  0  0
 11  8  1  0  0  0  0
 13 10  1  0  0  0  0
 16 14  1  1  0  0  0
 16 18  1  0  0  0  0
 17  7  1  6  0  0  0
 17  4  1  0  0  0  0
 17  2  1  0  0  0  0
 18 17  1  0  0  0  0
 19 12  1  1  0  0  0
 19  3  1  0  0  0  0
 20 15  1  1  0  0  0
 20  8  1  0  0  0  0
 20 16  1  0  0  0  0
 21 24  1  0  0  0  0
 22 27  1  1  0  0  0
 22 35  1  0  0  0  0
 25 36  1  0  0  0  0
 26 33  1  6  0  0  0
 26 28  1  0  0  0  0
 27 21  1  0  0  0  0
 28 23  1  6  0  0  0
 28 25  1  0  0  0  0
 30 35  1  0  0  0  0
 30 16  1  1  0  0  0
 30 36  1  0  0  0  0
 32 22  1  0  0  0  0
 33 37  1  0  0  0  0
 34 38  1  6  0  0  0
 34 26  1  0  0  0  0
 34 32  1  0  0  0  0
 35 24  1  1  0  0  0
 36 29  2  6  0  0  0
 36 31  1  0  0  0  0
 37 28  1  0  0  0  0
 39 38  1  0  0  0  0
 40 39  1  0  0  0  0
 41 40  2  0  0  0  0
 42 44  1  0  0  0  0
 42 40  1  0  0  0  0
 43 50  1  1  0  0  0
 43 45  1  0  0  0  0
 43 48  1  0  0  0  0
 45 42  2  0  0  0  0
 46 44  1  0  0  0  0
 46 47  2  0  0  0  0
 48 46  1  0  0  0  0
 49 48  1  0  0  0  0
 51 52  1  6  0  0  0
 51 53  1  0  0  0  0
 54 53  1  0  0  0  0
 55 13  1  0  0  0  0
 56 55  1  0  0  0  0
 56 57  1  0  0  0  0
 57 58  1  0  0  0  0
 58 59  1  0  0  0  0
 59 60  2  0  0  0  0
 59 68  1  0  0  0  0
 61 58  1  0  0  0  0
 62 64  1  0  0  0  0
 62 63  1  0  0  0  0
 63 61  1  6  0  0  0
 64 65  1  1  0  0  0
 64 63  1  0  0  0  0
 65 67  1  0  0  0  0
 66 65  1  0  0  0  0
 66 67  1  0  0  0  0
 68 69  1  0  0  0  0
 69 70  1  0  0  0  0
M  END
>  <MODEL>
9

>  <REMARK>
 VINA RESULT:      -4.9      3.172      6.858
  Name = 
  15 active torsions:
  status: ('A' for Active; 'I' for Inactive)
    1  A    between atoms: C_3  and  C_58
    2  A    between atoms: C_3  and  N_59
    3  A    between atoms: C_7  and  N_20
    4  A    between atoms: C_7  and  C_28
    5  A    between atoms: C_8  and  C_65
    6  A    between atoms: C_13  and  C_16
    7  A    between atoms: C_13  and  C_29
    8  A    between atoms: O_14  and  C_26
    9  A    between atoms: O_14  and  C_38
   10  A    between atoms: C_16  and  N_20
   11  A    between atoms: C_19  and  C_23
   12  A    between atoms: C_23  and  O_53
   13  A    between atoms: C_29  and  N_30
   14  A    between atoms: C_31  and  C_36
   15  A    between atoms: C_49  and  C_50
                            x       y       z     vdW  Elec       q    Type
                         _______ _______ _______ _____ _____    ______ ____

>  <TORSDO>
F 15

$$$$
