=
 OpenBabel11062422313D

 43 49  0  0  1  0  0  0  0  0999 V2000
  188.6740  175.9050  143.4020 N   0  0  0  0  0  0  0  0  0  0  0  0
  192.0660  173.5300  144.2510 C   0  0  0  0  0  3  0  0  0  0  0  0
  192.4530  172.5140  143.3790 C   0  0  0  0  0  0  0  0  0  0  0  0
  190.0250  173.8740  142.9770 C   0  0  0  0  0  0  0  0  0  0  0  0
  189.0440  177.2090  145.4820 C   0  0  0  0  0  3  0  0  0  0  0  0
  189.3910  176.1440  144.6320 C   0  0  0  0  0  0  0  0  0  0  0  0
  190.4000  172.8250  142.1150 C   0  0  0  0  0  0  0  0  0  0  0  0
  189.5330  172.4050  140.9740 C   0  0  0  0  0  1  0  0  0  0  0  0
  190.4640  175.3040  144.9820 C   0  0  0  0  0  0  0  0  0  0  0  0
  190.7890  176.5730  147.0270 C   0  0  0  0  0  0  0  0  0  0  0  0
  189.7370  177.4200  146.6740 C   0  0  0  0  0  3  0  0  0  0  0  0
  190.8560  174.2140  144.0650 C   0  0  0  0  0  0  0  0  0  0  0  0
  191.1550  175.5230  146.1850 C   0  0  0  0  0  3  0  0  0  0  0  0
  188.7000  174.5730  142.7910 C   0  0  0  0  0  2  0  0  0  0  0  0
  191.6070  172.1510  142.3200 C   0  0  0  0  0  3  0  0  0  0  0  0
  191.4690  176.7720  148.2220 O   0  0  0  0  0  1  0  0  0  0  0  0
  186.5560  177.1500  139.2300 C   0  0  0  0  0  1  0  0  0  0  0  0
  184.3000  179.2760  140.1200 O   0  0  0  0  0  1  0  0  0  0  0  0
  187.7880  177.1020  141.3710 C   0  0  2  0  0  3  0  0  0  0  0  0
  182.9960  178.1330  141.7960 C   0  0  2  0  0  3  0  0  0  0  0  0
  185.2480  177.4380  141.3470 C   0  0  2  0  0  3  0  0  0  0  0  0
  183.7920  178.2180  143.0920 C   0  0  0  0  0  2  0  0  0  0  0  0
  184.0160  178.0150  140.6610 C   0  0  2  0  0  3  0  0  0  0  0  0
  185.2520  178.0870  142.7020 C   0  0  1  0  0  3  0  0  0  0  0  0
  188.3210  178.1360  142.3620 C   0  0  0  0  0  2  0  0  0  0  0  0
  186.1500  177.0390  143.8690 S   0  0  0  0  0  0  0  0  0  0  0  0
  186.5780  177.7050  140.6450 C   0  0  2  0  0  3  0  0  0  0  0  0
  187.6950  176.8610  142.8850 C   0  0  2  0  0  0  0  0  0  0  0  0
  182.1570  179.2760  141.6670 O   0  0  0  0  0  0  0  0  0  0  0  0
  180.4110  180.1090  140.4370 O   0  0  0  0  0  0  0  0  0  0  0  0
  180.8410  179.2070  141.2010 C   0  0  0  0  0  0  0  0  0  0  0  0
  178.6720  178.5650  141.8870 O   0  0  0  0  0  1  0  0  0  0  0  0
  179.9390  178.0740  141.5680 C   0  0  0  0  0  2  0  0  0  0  0  0
  194.8830  172.7540  143.7250 C   0  0  2  0  0  3  0  0  0  0  0  0
  195.7350  172.5650  142.6360 O   0  0  0  0  0  1  0  0  0  0  0  0
  195.5730  172.3470  144.9910 C   0  0  2  0  0  3  0  0  0  0  0  0
  193.6770  171.0380  144.8940 N   0  0  0  0  0  2  0  0  0  0  0  0
  194.5900  171.6290  145.7910 N   0  0  0  0  0  2  0  0  0  0  0  0
  193.7340  171.7880  143.6400 C   0  0  1  0  0  3  0  0  0  0  0  0
  196.1380  173.5610  145.7350 C   0  0  2  0  0  3  0  0  0  0  0  0
  195.2080  174.7580  145.6130 C   0  0  0  0  0  1  0  0  0  0  0  0
  197.6020  174.8190  144.2810 O   0  0  0  0  0  1  0  0  0  0  0  0
  197.5760  173.9270  145.3540 C   0  0  0  0  0  2  0  0  0  0  0  0
  1  6  1  0  0  0  0
  3 39  1  0  0  0  0
  3  2  2  0  0  0  0
  4 12  2  0  0  0  0
  5 11  1  0  0  0  0
  6  9  1  0  0  0  0
  6  5  2  0  0  0  0
  7 15  2  0  0  0  0
  7  4  1  0  0  0  0
  8  7  1  0  0  0  0
  9 13  2  0  0  0  0
 10 16  1  0  0  0  0
 11 10  2  0  0  0  0
 12  2  1  0  0  0  0
 12  9  1  0  0  0  0
 13 10  1  0  0  0  0
 14  4  1  0  0  0  0
 14  1  1  0  0  0  0
 15  3  1  0  0  0  0
 17 27  1  0  0  0  0
 18 23  1  0  0  0  0
 19 25  1  1  0  0  0
 19 28  1  0  0  0  0
 20 29  1  6  0  0  0
 20 22  1  0  0  0  0
 21 24  1  0  0  0  0
 23 21  1  0  0  0  0
 23 20  1  0  0  0  0
 24 22  1  0  0  0  0
 24 26  1  0  0  0  0
 25 28  1  0  0  0  0
 27 21  1  0  0  0  0
 27 19  1  0  0  0  0
 28  1  1  0  0  0  0
 28 26  1  0  0  0  0
 30 31  2  0  0  0  0
 31 33  1  0  0  0  0
 31 29  1  0  0  0  0
 33 32  1  0  0  0  0
 34 36  1  0  0  0  0
 35 34  1  0  0  0  0
 36 40  1  0  0  0  0
 36 38  1  0  0  0  0
 37 38  1  0  0  0  0
 39 34  1  0  0  0  0
 39 37  1  0  0  0  0
 41 40  1  0  0  0  0
 42 43  1  0  0  0  0
 43 40  1  0  0  0  0
M  END
>  <MODEL>
1

>  <REMARK>
 VINA RESULT:      -7.9      0.000      0.000
  Name = 
  7 active torsions:
  status: ('A' for Active; 'I' for Inactive)
    1  A    between atoms: N_1  and  C_41
    2  A    between atoms: C_5  and  C_17
    3  A    between atoms: C_5  and  C_35
    4  A    between atoms: C_6  and  C_42
    5  A    between atoms: C_13  and  O_27
    6  A    between atoms: C_26  and  O_27
    7  A    between atoms: C_26  and  C_34
                            x       y       z     vdW  Elec       q    Type
                         _______ _______ _______ _____ _____    ______ ____

>  <TORSDO>
F 7

$$$$
=
 OpenBabel11062422313D

 43 49  0  0  1  0  0  0  0  0999 V2000
  191.3830  174.9890  144.2810 N   0  0  0  0  0  0  0  0  0  0  0  0
  194.3970  172.0650  144.7650 C   0  0  0  0  0  3  0  0  0  0  0  0
  195.5850  172.3770  145.4240 C   0  0  0  0  0  0  0  0  0  0  0  0
  193.7260  174.4000  144.8250 C   0  0  0  0  0  0  0  0  0  0  0  0
  189.9480  173.3390  143.1050 C   0  0  0  0  0  3  0  0  0  0  0  0
  191.1690  173.6790  143.7130 C   0  0  0  0  0  0  0  0  0  0  0  0
  194.9420  174.7210  145.4610 C   0  0  0  0  0  0  0  0  0  0  0  0
  195.2780  176.1270  145.8340 C   0  0  0  0  0  1  0  0  0  0  0  0
  192.1970  172.7190  143.7770 C   0  0  0  0  0  0  0  0  0  0  0  0
  190.7880  171.1320  142.5970 C   0  0  0  0  0  0  0  0  0  0  0  0
  189.7590  172.0740  142.5480 C   0  0  0  0  0  3  0  0  0  0  0  0
  193.4630  173.0640  144.4570 C   0  0  0  0  0  0  0  0  0  0  0  0
  192.0000  171.4500  143.2120 C   0  0  0  0  0  3  0  0  0  0  0  0
  192.7490  175.4910  144.4600 C   0  0  0  0  0  2  0  0  0  0  0  0
  195.8620  173.7130  145.7550 C   0  0  0  0  0  3  0  0  0  0  0  0
  190.6080  169.8780  142.0280 O   0  0  0  0  0  1  0  0  0  0  0  0
  188.2410  177.4770  141.5660 C   0  0  0  0  0  1  0  0  0  0  0  0
  186.2590  178.8240  143.7250 O   0  0  0  0  0  1  0  0  0  0  0  0
  189.9850  176.7590  143.1620 C   0  0  2  0  0  3  0  0  0  0  0  0
  185.4500  176.9840  145.0580 C   0  0  2  0  0  3  0  0  0  0  0  0
  187.5200  176.7800  143.8610 C   0  0  2  0  0  3  0  0  0  0  0  0
  186.5530  176.6600  146.0570 C   0  0  0  0  0  2  0  0  0  0  0  0
  186.1450  177.4270  143.7680 C   0  0  2  0  0  3  0  0  0  0  0  0
  187.8640  176.8580  145.3210 C   0  0  1  0  0  3  0  0  0  0  0  0
  190.7410  177.3900  144.3310 C   0  0  0  0  0  2  0  0  0  0  0  0
  189.0490  175.5560  145.7320 S   0  0  0  0  0  0  0  0  0  0  0  0
  188.6200  177.4480  143.0370 C   0  0  2  0  0  3  0  0  0  0  0  0
  190.2900  175.9480  144.4310 C   0  0  2  0  0  0  0  0  0  0  0  0
  184.5900  177.9840  145.5930 O   0  0  0  0  0  0  0  0  0  0  0  0
  184.0820  178.1940  147.8180 O   0  0  0  0  0  0  0  0  0  0  0  0
  184.7870  178.5690  146.8470 C   0  0  0  0  0  0  0  0  0  0  0  0
  186.5820  179.2940  148.2030 O   0  0  0  0  0  1  0  0  0  0  0  0
  185.8340  179.6110  147.0690 C   0  0  0  0  0  2  0  0  0  0  0  0
  195.8920  169.9420  145.6580 C   0  0  2  0  0  3  0  0  0  0  0  0
  195.8780  169.3870  146.9380 O   0  0  0  0  0  1  0  0  0  0  0  0
  196.7870  169.1410  144.7630 C   0  0  2  0  0  3  0  0  0  0  0  0
  197.6490  171.2790  144.7150 N   0  0  0  0  0  2  0  0  0  0  0  0
  197.5350  170.0950  143.9570 N   0  0  0  0  0  2  0  0  0  0  0  0
  196.5680  171.2840  145.6990 C   0  0  1  0  0  3  0  0  0  0  0  0
  195.9830  168.1680  143.8940 C   0  0  2  0  0  3  0  0  0  0  0  0
  196.4900  168.1660  142.4620 C   0  0  0  0  0  1  0  0  0  0  0  0
  193.9440  168.6330  142.6850 O   0  0  0  0  0  1  0  0  0  0  0  0
  194.4650  168.3710  143.9510 C   0  0  0  0  0  2  0  0  0  0  0  0
  1 28  1  0  0  0  0
  1 14  1  0  0  0  0
  2  3  1  0  0  0  0
  3 39  1  0  0  0  0
  3 15  2  0  0  0  0
  4  7  2  0  0  0  0
  5  6  1  0  0  0  0
  6  9  2  0  0  0  0
  6  1  1  0  0  0  0
  7 15  1  0  0  0  0
  7  8  1  0  0  0  0
  9 12  1  0  0  0  0
 10 13  2  0  0  0  0
 11 10  1  0  0  0  0
 11  5  2  0  0  0  0
 12  2  2  0  0  0  0
 12  4  1  0  0  0  0
 13  9  1  0  0  0  0
 14  4  1  0  0  0  0
 16 10  1  0  0  0  0
 17 27  1  0  0  0  0
 18 23  1  0  0  0  0
 19 25  1  1  0  0  0
 19 28  1  0  0  0  0
 20 29  1  1  0  0  0
 20 22  1  0  0  0  0
 21 24  1  0  0  0  0
 23 21  1  0  0  0  0
 23 20  1  0  0  0  0
 24 26  1  0  0  0  0
 24 22  1  0  0  0  0
 25 28  1  0  0  0  0
 27 19  1  0  0  0  0
 27 21  1  0  0  0  0
 28 26  1  0  0  0  0
 29 31  1  0  0  0  0
 31 33  1  0  0  0  0
 31 30  2  0  0  0  0
 33 32  1  0  0  0  0
 34 39  1  0  0  0  0
 34 35  1  0  0  0  0
 36 34  1  0  0  0  0
 37 39  1  0  0  0  0
 38 37  1  0  0  0  0
 38 36  1  0  0  0  0
 40 43  1  0  0  0  0
 40 36  1  0  0  0  0
 41 40  1  0  0  0  0
 42 43  1  0  0  0  0
M  END
>  <MODEL>
2

>  <REMARK>
 VINA RESULT:      -7.6      3.236      5.314
  Name = 
  7 active torsions:
  status: ('A' for Active; 'I' for Inactive)
    1  A    between atoms: N_1  and  C_41
    2  A    between atoms: C_5  and  C_17
    3  A    between atoms: C_5  and  C_35
    4  A    between atoms: C_6  and  C_42
    5  A    between atoms: C_13  and  O_27
    6  A    between atoms: C_26  and  O_27
    7  A    between atoms: C_26  and  C_34
                            x       y       z     vdW  Elec       q    Type
                         _______ _______ _______ _____ _____    ______ ____

>  <TORSDO>
F 7

$$$$
=
 OpenBabel11062422313D

 43 49  0  0  1  0  0  0  0  0999 V2000
  191.3450  174.2090  143.7220 N   0  0  0  0  0  0  0  0  0  0  0  0
  187.8050  176.5090  143.5220 C   0  0  0  0  0  3  0  0  0  0  0  0
  187.3960  177.2720  144.6150 C   0  0  0  0  0  0  0  0  0  0  0  0
  189.5670  175.5020  144.8600 C   0  0  0  0  0  0  0  0  0  0  0  0
  190.9940  173.4340  141.3890 C   0  0  0  0  0  3  0  0  0  0  0  0
  190.5540  174.1500  142.5160 C   0  0  0  0  0  0  0  0  0  0  0  0
  189.1330  176.2490  145.9730 C   0  0  0  0  0  0  0  0  0  0  0  0
  189.8030  176.1270  147.3020 C   0  0  0  0  0  1  0  0  0  0  0  0
  189.3230  174.8300  142.4620 C   0  0  0  0  0  0  0  0  0  0  0  0
  188.9830  174.0350  140.1920 C   0  0  0  0  0  0  0  0  0  0  0  0
  190.2130  173.3740  140.2350 C   0  0  0  0  0  3  0  0  0  0  0  0
  188.8830  175.6190  143.6320 C   0  0  0  0  0  0  0  0  0  0  0  0
  188.5410  174.7640  141.2980 C   0  0  0  0  0  3  0  0  0  0  0  0
  190.7020  174.5160  145.0020 C   0  0  0  0  0  2  0  0  0  0  0  0
  188.0530  177.1250  145.8460 C   0  0  0  0  0  3  0  0  0  0  0  0
  188.1960  173.9630  139.0510 O   0  0  0  0  0  1  0  0  0  0  0  0
  195.7090  175.4680  145.3980 C   0  0  0  0  0  1  0  0  0  0  0  0
  197.5130  172.8420  144.8900 O   0  0  0  0  0  1  0  0  0  0  0  0
  193.7800  174.7810  144.0150 C   0  0  2  0  0  3  0  0  0  0  0  0
  196.3190  171.0490  145.9750 C   0  0  2  0  0  3  0  0  0  0  0  0
  195.1490  173.0290  145.2890 C   0  0  2  0  0  3  0  0  0  0  0  0
  195.2010  170.6420  145.0240 C   0  0  0  0  0  2  0  0  0  0  0  0
  196.4990  172.5610  145.8160 C   0  0  2  0  0  3  0  0  0  0  0  0
  194.7070  171.9210  144.3760 C   0  0  1  0  0  3  0  0  0  0  0  0
  193.5740  174.1950  142.6190 C   0  0  0  0  0  2  0  0  0  0  0  0
  192.9050  171.9330  144.2400 S   0  0  0  0  0  0  0  0  0  0  0  0
  195.1630  174.3510  144.5240 C   0  0  2  0  0  3  0  0  0  0  0  0
  192.7170  173.7020  143.7650 C   0  0  2  0  0  0  0  0  0  0  0  0
  197.5030  170.3190  145.6730 O   0  0  0  0  0  0  0  0  0  0  0  0
  197.4150  168.2830  144.6220 O   0  0  0  0  0  0  0  0  0  0  0  0
  197.5630  168.9220  145.6950 C   0  0  0  0  0  0  0  0  0  0  0  0
  196.8020  168.4190  147.8750 O   0  0  0  0  0  1  0  0  0  0  0  0
  197.8240  168.1690  146.9590 C   0  0  0  0  0  2  0  0  0  0  0  0
  186.2560  178.8770  143.1300 C   0  0  2  0  0  3  0  0  0  0  0  0
  186.4800  180.2410  143.3240 O   0  0  0  0  0  1  0  0  0  0  0  0
  184.8750  178.6560  142.5940 C   0  0  2  0  0  3  0  0  0  0  0  0
  184.9600  177.4400  144.5510 N   0  0  0  0  0  2  0  0  0  0  0  0
  184.3390  177.4930  143.2860 N   0  0  0  0  0  2  0  0  0  0  0  0
  186.2180  178.1800  144.4610 C   0  0  1  0  0  3  0  0  0  0  0  0
  184.8910  178.4590  141.0740 C   0  0  2  0  0  3  0  0  0  0  0  0
  183.4860  178.2410  140.5360 C   0  0  0  0  0  1  0  0  0  0  0  0
  186.8070  177.8950  139.7130 O   0  0  0  0  0  1  0  0  0  0  0  0
  185.8530  177.3710  140.5860 C   0  0  0  0  0  2  0  0  0  0  0  0
  1 28  1  0  0  0  0
  1 14  1  0  0  0  0
  2 12  2  0  0  0  0
  2  3  1  0  0  0  0
  3 15  2  0  0  0  0
  4 14  1  0  0  0  0
  4  7  2  0  0  0  0
  5  6  1  0  0  0  0
  6  1  1  0  0  0  0
  7  8  1  0  0  0  0
  9  6  2  0  0  0  0
  9 12  1  0  0  0  0
 10 11  1  0  0  0  0
 10 13  2  0  0  0  0
 11  5  2  0  0  0  0
 12  4  1  0  0  0  0
 13  9  1  0  0  0  0
 15  7  1  0  0  0  0
 16 10  1  0  0  0  0
 18 23  1  0  0  0  0
 19 25  1  6  0  0  0
 19 27  1  0  0  0  0
 20 29  1  6  0  0  0
 21 23  1  0  0  0  0
 22 20  1  0  0  0  0
 23 20  1  0  0  0  0
 24 22  1  0  0  0  0
 24 21  1  0  0  0  0
 25 28  1  0  0  0  0
 26 24  1  0  0  0  0
 27 21  1  0  0  0  0
 27 17  1  0  0  0  0
 28 19  1  0  0  0  0
 28 26  1  0  0  0  0
 29 31  1  0  0  0  0
 30 31  2  0  0  0  0
 31 33  1  0  0  0  0
 33 32  1  0  0  0  0
 34 35  1  0  0  0  0
 34 39  1  0  0  0  0
 36 34  1  0  0  0  0
 36 38  1  0  0  0  0
 38 37  1  0  0  0  0
 39 37  1  0  0  0  0
 39  3  1  0  0  0  0
 40 36  1  0  0  0  0
 41 40  1  0  0  0  0
 42 43  1  0  0  0  0
 43 40  1  0  0  0  0
M  END
>  <MODEL>
3

>  <REMARK>
 VINA RESULT:      -7.5      3.059     11.472
  Name = 
  7 active torsions:
  status: ('A' for Active; 'I' for Inactive)
    1  A    between atoms: N_1  and  C_41
    2  A    between atoms: C_5  and  C_17
    3  A    between atoms: C_5  and  C_35
    4  A    between atoms: C_6  and  C_42
    5  A    between atoms: C_13  and  O_27
    6  A    between atoms: C_26  and  O_27
    7  A    between atoms: C_26  and  C_34
                            x       y       z     vdW  Elec       q    Type
                         _______ _______ _______ _____ _____    ______ ____

>  <TORSDO>
F 7

$$$$
=
 OpenBabel11062422313D

 43 49  0  0  1  0  0  0  0  0999 V2000
  191.6310  173.9350  142.9790 N   0  0  0  0  0  0  0  0  0  0  0  0
  194.8240  172.9100  140.4060 C   0  0  0  0  0  3  0  0  0  0  0  0
  194.6720  171.8960  139.4610 C   0  0  0  0  0  0  0  0  0  0  0  0
  192.6660  172.3560  141.3770 C   0  0  0  0  0  0  0  0  0  0  0  0
  193.0260  175.6960  144.0370 C   0  0  0  0  0  3  0  0  0  0  0  0
  192.8880  174.6290  143.1310 C   0  0  0  0  0  0  0  0  0  0  0  0
  192.5270  171.3100  140.4430 C   0  0  0  0  0  0  0  0  0  0  0  0
  191.3270  170.4220  140.4400 C   0  0  0  0  0  1  0  0  0  0  0  0
  193.9930  174.2400  142.3520 C   0  0  0  0  0  0  0  0  0  0  0  0
  195.3490  175.9470  143.4220 C   0  0  0  0  0  0  0  0  0  0  0  0
  194.2490  176.3490  144.1840 C   0  0  0  0  0  3  0  0  0  0  0  0
  193.8330  173.1480  141.3690 C   0  0  0  0  0  0  0  0  0  0  0  0
  195.2210  174.9000  142.5070 C   0  0  0  0  0  3  0  0  0  0  0  0
  191.6120  172.5740  142.4350 C   0  0  0  0  0  2  0  0  0  0  0  0
  193.5280  171.0850  139.4950 C   0  0  0  0  0  3  0  0  0  0  0  0
  196.5720  176.5850  143.5790 O   0  0  0  0  0  1  0  0  0  0  0  0
  189.8750  175.0180  147.3590 C   0  0  0  0  0  1  0  0  0  0  0  0
  187.0190  176.3780  146.7250 O   0  0  0  0  0  1  0  0  0  0  0  0
  190.2830  174.1050  145.0990 C   0  0  2  0  0  3  0  0  0  0  0  0
  187.5120  178.1700  145.1880 C   0  0  2  0  0  3  0  0  0  0  0  0
  189.0200  176.3160  145.3930 C   0  0  2  0  0  3  0  0  0  0  0  0
  187.6720  177.5280  143.8160 C   0  0  0  0  0  2  0  0  0  0  0  0
  188.0560  177.1670  146.2080 C   0  0  2  0  0  3  0  0  0  0  0  0
  188.3590  176.1960  144.0500 C   0  0  1  0  0  3  0  0  0  0  0  0
  189.4800  173.3180  144.0640 C   0  0  0  0  0  2  0  0  0  0  0  0
  189.6120  175.8760  142.7870 S   0  0  0  0  0  0  0  0  0  0  0  0
  189.3040  174.9230  145.9530 C   0  0  2  0  0  3  0  0  0  0  0  0
  190.4020  174.4260  143.6020 C   0  0  2  0  0  0  0  0  0  0  0  0
  186.1450  178.4980  145.4130 O   0  0  0  0  0  0  0  0  0  0  0  0
  185.5360  180.2850  144.1120 O   0  0  0  0  0  0  0  0  0  0  0  0
  185.3320  179.0890  144.4400 C   0  0  0  0  0  0  0  0  0  0  0  0
  184.2260  178.6360  142.4010 O   0  0  0  0  0  1  0  0  0  0  0  0
  184.2430  178.3240  143.7610 C   0  0  0  0  0  2  0  0  0  0  0  0
  196.0240  172.8870  137.6520 C   0  0  2  0  0  3  0  0  0  0  0  0
  195.6470  172.6480  136.3300 O   0  0  0  0  0  1  0  0  0  0  0  0
  197.5100  173.0530  137.7390 C   0  0  2  0  0  3  0  0  0  0  0  0
  197.0200  171.2960  139.1490 N   0  0  0  0  0  2  0  0  0  0  0  0
  197.9410  172.3410  138.9340 N   0  0  0  0  0  2  0  0  0  0  0  0
  195.7720  171.6560  138.4770 C   0  0  1  0  0  3  0  0  0  0  0  0
  197.9050  174.5330  137.7830 C   0  0  2  0  0  3  0  0  0  0  0  0
  197.0840  175.2880  138.8150 C   0  0  0  0  0  1  0  0  0  0  0  0
  196.8790  176.2080  136.3760 O   0  0  0  0  0  1  0  0  0  0  0  0
  197.8790  175.2380  136.4220 C   0  0  0  0  0  2  0  0  0  0  0  0
  1  6  1  0  0  0  0
  1 28  1  0  0  0  0
  2 12  1  0  0  0  0
  3 15  1  0  0  0  0
  3  2  2  0  0  0  0
  4 14  1  0  0  0  0
  5 11  1  0  0  0  0
  6  5  2  0  0  0  0
  7  4  1  0  0  0  0
  8  7  1  0  0  0  0
  9 13  2  0  0  0  0
  9  6  1  0  0  0  0
 10 16  1  0  0  0  0
 10 11  2  0  0  0  0
 12  4  2  0  0  0  0
 12  9  1  0  0  0  0
 13 10  1  0  0  0  0
 14  1  1  0  0  0  0
 15  7  2  0  0  0  0
 19 25  1  6  0  0  0
 19 27  1  0  0  0  0
 20 29  1  1  0  0  0
 20 23  1  0  0  0  0
 21 27  1  0  0  0  0
 21 23  1  0  0  0  0
 22 24  1  0  0  0  0
 22 20  1  0  0  0  0
 23 18  1  0  0  0  0
 24 21  1  0  0  0  0
 26 28  1  0  0  0  0
 26 24  1  0  0  0  0
 27 17  1  0  0  0  0
 28 25  1  0  0  0  0
 28 19  1  0  0  0  0
 30 31  2  0  0  0  0
 31 29  1  0  0  0  0
 32 33  1  0  0  0  0
 33 31  1  0  0  0  0
 34 36  1  0  0  0  0
 34 39  1  0  0  0  0
 35 34  1  0  0  0  0
 36 40  1  0  0  0  0
 36 38  1  0  0  0  0
 38 37  1  0  0  0  0
 39 37  1  0  0  0  0
 39  3  1  0  0  0  0
 40 41  1  0  0  0  0
 42 43  1  0  0  0  0
 43 40  1  0  0  0  0
M  END
>  <MODEL>
4

>  <REMARK>
 VINA RESULT:      -7.4      3.975      5.757
  Name = 
  7 active torsions:
  status: ('A' for Active; 'I' for Inactive)
    1  A    between atoms: N_1  and  C_41
    2  A    between atoms: C_5  and  C_17
    3  A    between atoms: C_5  and  C_35
    4  A    between atoms: C_6  and  C_42
    5  A    between atoms: C_13  and  O_27
    6  A    between atoms: C_26  and  O_27
    7  A    between atoms: C_26  and  C_34
                            x       y       z     vdW  Elec       q    Type
                         _______ _______ _______ _____ _____    ______ ____

>  <TORSDO>
F 7

$$$$
=
 OpenBabel11062422313D

 43 49  0  0  1  0  0  0  0  0999 V2000
  191.8940  175.0380  144.2570 N   0  0  0  0  0  0  0  0  0  0  0  0
  188.0750  176.6270  145.1280 C   0  0  0  0  0  3  0  0  0  0  0  0
  187.0270  176.4850  144.2190 C   0  0  0  0  0  0  0  0  0  0  0  0
  189.6340  175.7130  143.5030 C   0  0  0  0  0  0  0  0  0  0  0  0
  192.7490  175.8520  146.4420 C   0  0  0  0  0  3  0  0  0  0  0  0
  191.7150  175.7630  145.4930 C   0  0  0  0  0  0  0  0  0  0  0  0
  188.5820  175.6010  142.5730 C   0  0  0  0  0  0  0  0  0  0  0  0
  188.8120  175.0760  141.1940 C   0  0  0  0  0  1  0  0  0  0  0  0
  190.4800  176.3830  145.7600 C   0  0  0  0  0  0  0  0  0  0  0  0
  191.3470  177.1970  147.8780 C   0  0  0  0  0  0  0  0  0  0  0  0
  192.5680  176.5670  147.6250 C   0  0  0  0  0  3  0  0  0  0  0  0
  189.3800  176.2500  144.7820 C   0  0  0  0  0  0  0  0  0  0  0  0
  190.3060  177.1020  146.9530 C   0  0  0  0  0  3  0  0  0  0  0  0
  191.0430  175.3440  143.1040 C   0  0  0  0  0  2  0  0  0  0  0  0
  187.2890  175.9880  142.9330 C   0  0  0  0  0  3  0  0  0  0  0  0
  191.1700  177.9230  149.0480 O   0  0  0  0  0  1  0  0  0  0  0  0
  196.7000  175.4460  143.8420 C   0  0  0  0  0  1  0  0  0  0  0  0
  197.7220  172.3890  143.7230 O   0  0  0  0  0  1  0  0  0  0  0  0
  194.2980  174.9750  143.5090 C   0  0  2  0  0  3  0  0  0  0  0  0
  196.8040  171.3500  145.6960 C   0  0  2  0  0  3  0  0  0  0  0  0
  195.7770  173.3180  144.7870 C   0  0  2  0  0  3  0  0  0  0  0  0
  195.3510  171.0280  145.3760 C   0  0  0  0  0  2  0  0  0  0  0  0
  197.1350  172.6550  144.9680 C   0  0  2  0  0  3  0  0  0  0  0  0
  194.8410  172.1730  144.5220 C   0  0  1  0  0  3  0  0  0  0  0  0
  193.4610  174.1180  142.5600 C   0  0  0  0  0  2  0  0  0  0  0  0
  193.1610  172.6450  144.9950 S   0  0  0  0  0  0  0  0  0  0  0  0
  195.6840  174.3320  143.6480 C   0  0  2  0  0  3  0  0  0  0  0  0
  193.0710  174.2040  144.0200 C   0  0  2  0  0  0  0  0  0  0  0  0
  197.6400  170.2690  145.2980 O   0  0  0  0  0  0  0  0  0  0  0  0
  196.9020  168.2010  144.6380 O   0  0  0  0  0  0  0  0  0  0  0  0
  197.3350  168.9310  145.5650 C   0  0  0  0  0  0  0  0  0  0  0  0
  196.4320  168.6220  147.7280 O   0  0  0  0  0  1  0  0  0  0  0  0
  197.5360  168.3390  146.9230 C   0  0  0  0  0  2  0  0  0  0  0  0
  185.5410  177.0090  146.1160 C   0  0  2  0  0  3  0  0  0  0  0  0
  184.6580  176.0260  146.5640 O   0  0  0  0  0  1  0  0  0  0  0  0
  184.9520  178.3680  146.3420 C   0  0  2  0  0  3  0  0  0  0  0  0
  185.3520  178.2580  144.0740 N   0  0  0  0  0  2  0  0  0  0  0  0
  185.2520  179.1570  145.1560 N   0  0  0  0  0  2  0  0  0  0  0  0
  185.6590  176.9370  144.6190 C   0  0  1  0  0  3  0  0  0  0  0  0
  185.5110  179.0140  147.6140 C   0  0  2  0  0  3  0  0  0  0  0  0
  185.9920  180.4310  147.3420 C   0  0  0  0  0  1  0  0  0  0  0  0
  187.7090  178.9590  148.6160 O   0  0  0  0  0  1  0  0  0  0  0  0
  186.5840  178.1860  148.3290 C   0  0  0  0  0  2  0  0  0  0  0  0
  1  6  1  0  0  0  0
  3 39  1  0  0  0  0
  3  2  2  0  0  0  0
  4 12  2  0  0  0  0
  5 11  1  0  0  0  0
  6  9  1  0  0  0  0
  6  5  2  0  0  0  0
  7 15  2  0  0  0  0
  7  4  1  0  0  0  0
  8  7  1  0  0  0  0
  9 13  2  0  0  0  0
 10 16  1  0  0  0  0
 11 10  2  0  0  0  0
 12  2  1  0  0  0  0
 12  9  1  0  0  0  0
 13 10  1  0  0  0  0
 14  4  1  0  0  0  0
 14  1  1  0  0  0  0
 15  3  1  0  0  0  0
 18 23  1  0  0  0  0
 19 25  1  6  0  0  0
 19 27  1  0  0  0  0
 19 28  1  0  0  0  0
 20 29  1  6  0  0  0
 21 23  1  0  0  0  0
 22 20  1  0  0  0  0
 23 20  1  0  0  0  0
 24 21  1  0  0  0  0
 24 26  1  0  0  0  0
 24 22  1  0  0  0  0
 25 28  1  0  0  0  0
 27 17  1  0  0  0  0
 27 21  1  0  0  0  0
 28  1  1  0  0  0  0
 28 26  1  0  0  0  0
 29 31  1  0  0  0  0
 30 31  2  0  0  0  0
 31 33  1  0  0  0  0
 33 32  1  0  0  0  0
 34 36  1  0  0  0  0
 34 35  1  0  0  0  0
 36 40  1  0  0  0  0
 37 39  1  0  0  0  0
 37 38  1  0  0  0  0
 38 36  1  0  0  0  0
 39 34  1  0  0  0  0
 40 43  1  0  0  0  0
 41 40  1  0  0  0  0
 43 42  1  0  0  0  0
M  END
>  <MODEL>
5

>  <REMARK>
 VINA RESULT:      -7.3      3.700     10.956
  Name = 
  7 active torsions:
  status: ('A' for Active; 'I' for Inactive)
    1  A    between atoms: N_1  and  C_41
    2  A    between atoms: C_5  and  C_17
    3  A    between atoms: C_5  and  C_35
    4  A    between atoms: C_6  and  C_42
    5  A    between atoms: C_13  and  O_27
    6  A    between atoms: C_26  and  O_27
    7  A    between atoms: C_26  and  C_34
                            x       y       z     vdW  Elec       q    Type
                         _______ _______ _______ _____ _____    ______ ____

>  <TORSDO>
F 7

$$$$
=
 OpenBabel11062422313D

 43 49  0  0  1  0  0  0  0  0999 V2000
  192.1510  174.2980  142.6950 N   0  0  0  0  0  0  0  0  0  0  0  0
  195.0950  174.2230  139.6630 C   0  0  0  0  0  3  0  0  0  0  0  0
  194.8960  173.4740  138.5040 C   0  0  0  0  0  0  0  0  0  0  0  0
  193.0890  173.2680  140.6480 C   0  0  0  0  0  0  0  0  0  0  0  0
  193.5560  175.8380  144.0450 C   0  0  0  0  0  3  0  0  0  0  0  0
  193.3780  175.0300  142.9090 C   0  0  0  0  0  0  0  0  0  0  0  0
  192.9060  172.4870  139.4900 C   0  0  0  0  0  0  0  0  0  0  0  0
  191.7620  171.5360  139.3640 C   0  0  0  0  0  1  0  0  0  0  0  0
  194.4110  174.9410  141.9570 C   0  0  0  0  0  0  0  0  0  0  0  0
  195.7810  176.4230  143.3080 C   0  0  0  0  0  0  0  0  0  0  0  0
  194.7510  176.5280  144.2460 C   0  0  0  0  0  3  0  0  0  0  0  0
  194.2040  174.1270  140.7410 C   0  0  0  0  0  0  0  0  0  0  0  0
  195.6110  175.6380  142.1670 C   0  0  0  0  0  3  0  0  0  0  0  0
  192.1460  173.1240  141.8190 C   0  0  0  0  0  2  0  0  0  0  0  0
  193.8080  172.5920  138.4290 C   0  0  0  0  0  3  0  0  0  0  0  0
  196.9780  177.0960  143.5140 O   0  0  0  0  0  1  0  0  0  0  0  0
  191.0030  175.1380  147.3230 C   0  0  0  0  0  1  0  0  0  0  0  0
  187.8380  175.7560  147.2280 O   0  0  0  0  0  1  0  0  0  0  0  0
  191.2050  174.2440  145.0290 C   0  0  2  0  0  3  0  0  0  0  0  0
  187.6010  177.5410  145.6230 C   0  0  2  0  0  3  0  0  0  0  0  0
  189.5230  176.1060  145.5480 C   0  0  2  0  0  3  0  0  0  0  0  0
  187.6620  176.8920  144.2470 C   0  0  0  0  0  2  0  0  0  0  0  0
  188.5450  176.7420  146.5260 C   0  0  2  0  0  3  0  0  0  0  0  0
  188.6800  175.7720  144.3510 C   0  0  1  0  0  3  0  0  0  0  0  0
  190.4430  173.2430  144.1620 C   0  0  0  0  0  2  0  0  0  0  0  0
  189.7250  175.6980  142.8780 S   0  0  0  0  0  0  0  0  0  0  0  0
  190.2290  174.8460  146.0480 C   0  0  2  0  0  3  0  0  0  0  0  0
  190.9730  174.5140  143.5340 C   0  0  2  0  0  0  0  0  0  0  0  0
  186.2590  177.5480  146.0970 O   0  0  0  0  0  0  0  0  0  0  0  0
  185.7330  179.4150  147.3180 O   0  0  0  0  0  0  0  0  0  0  0  0
  185.5240  178.7220  146.2900 C   0  0  0  0  0  0  0  0  0  0  0  0
  185.1550  179.8720  144.2590 O   0  0  0  0  0  1  0  0  0  0  0  0
  184.5150  179.1860  145.2910 C   0  0  0  0  0  2  0  0  0  0  0  0
  195.2240  174.0090  136.1190 C   0  0  2  0  0  3  0  0  0  0  0  0
  195.2600  172.9600  135.1990 O   0  0  0  0  0  1  0  0  0  0  0  0
  196.0890  175.1360  135.6450 C   0  0  2  0  0  3  0  0  0  0  0  0
  196.9370  174.5560  137.7090 N   0  0  0  0  0  2  0  0  0  0  0  0
  196.8020  175.6350  136.8120 N   0  0  0  0  0  2  0  0  0  0  0  0
  195.8940  173.5820  137.3950 C   0  0  1  0  0  3  0  0  0  0  0  0
  195.2580  176.2330  134.9710 C   0  0  2  0  0  3  0  0  0  0  0  0
  196.0220  177.5460  134.9230 C   0  0  0  0  0  1  0  0  0  0  0  0
  193.4660  177.7590  135.5180 O   0  0  0  0  0  1  0  0  0  0  0  0
  193.8560  176.4210  135.5620 C   0  0  0  0  0  2  0  0  0  0  0  0
  1  6  1  0  0  0  0
  1 28  1  0  0  0  0
  2 12  1  0  0  0  0
  3  2  2  0  0  0  0
  4 12  2  0  0  0  0
  4 14  1  0  0  0  0
  5 11  1  0  0  0  0
  6  5  2  0  0  0  0
  7  4  1  0  0  0  0
  8  7  1  0  0  0  0
  9 13  2  0  0  0  0
  9  6  1  0  0  0  0
 10 16  1  0  0  0  0
 10 11  2  0  0  0  0
 12  9  1  0  0  0  0
 13 10  1  0  0  0  0
 14  1  1  0  0  0  0
 15  3  1  0  0  0  0
 15  7  2  0  0  0  0
 19 25  1  6  0  0  0
 19 27  1  0  0  0  0
 20 29  1  1  0  0  0
 20 23  1  0  0  0  0
 21 27  1  0  0  0  0
 21 23  1  0  0  0  0
 22 24  1  0  0  0  0
 22 20  1  0  0  0  0
 23 18  1  0  0  0  0
 24 21  1  0  0  0  0
 26 28  1  0  0  0  0
 26 24  1  0  0  0  0
 27 17  1  0  0  0  0
 28 25  1  0  0  0  0
 28 19  1  0  0  0  0
 29 31  1  0  0  0  0
 31 30  2  0  0  0  0
 32 33  1  0  0  0  0
 33 31  1  0  0  0  0
 34 39  1  0  0  0  0
 35 34  1  0  0  0  0
 36 34  1  0  0  0  0
 36 38  1  0  0  0  0
 38 37  1  0  0  0  0
 39 37  1  0  0  0  0
 39  3  1  0  0  0  0
 40 43  1  0  0  0  0
 40 36  1  0  0  0  0
 41 40  1  0  0  0  0
 42 43  1  0  0  0  0
M  END
>  <MODEL>
6

>  <REMARK>
 VINA RESULT:      -7.2      4.940      6.867
  Name = 
  7 active torsions:
  status: ('A' for Active; 'I' for Inactive)
    1  A    between atoms: N_1  and  C_41
    2  A    between atoms: C_5  and  C_17
    3  A    between atoms: C_5  and  C_35
    4  A    between atoms: C_6  and  C_42
    5  A    between atoms: C_13  and  O_27
    6  A    between atoms: C_26  and  O_27
    7  A    between atoms: C_26  and  C_34
                            x       y       z     vdW  Elec       q    Type
                         _______ _______ _______ _____ _____    ______ ____

>  <TORSDO>
F 7

$$$$
=
 OpenBabel11062422313D

 43 49  0  0  1  0  0  0  0  0999 V2000
  190.9820  175.4320  142.4950 N   0  0  0  0  0  0  0  0  0  0  0  0
  193.8110  173.6100  139.9380 C   0  0  0  0  0  3  0  0  0  0  0  0
  193.3920  172.8840  138.8240 C   0  0  0  0  0  0  0  0  0  0  0  0
  191.5100  173.8200  140.6920 C   0  0  0  0  0  0  0  0  0  0  0  0
  192.8140  176.3290  143.9110 C   0  0  0  0  0  3  0  0  0  0  0  0
  192.3820  175.5450  142.8270 C   0  0  0  0  0  0  0  0  0  0  0  0
  191.0890  173.0570  139.5840 C   0  0  0  0  0  0  0  0  0  0  0  0
  189.6500  172.7260  139.3680 C   0  0  0  0  0  1  0  0  0  0  0  0
  193.3360  174.8660  142.0450 C   0  0  0  0  0  0  0  0  0  0  0  0
  195.1100  175.7280  143.4620 C   0  0  0  0  0  0  0  0  0  0  0  0
  194.1690  176.4190  144.2290 C   0  0  0  0  0  3  0  0  0  0  0  0
  192.8840  174.0790  140.8790 C   0  0  0  0  0  0  0  0  0  0  0  0
  194.6980  174.9600  142.3730 C   0  0  0  0  0  3  0  0  0  0  0  0
  190.5070  174.2820  141.7210 C   0  0  0  0  0  2  0  0  0  0  0  0
  192.0290  172.5940  138.6600 C   0  0  0  0  0  3  0  0  0  0  0  0
  196.4580  175.8030  143.7870 O   0  0  0  0  0  1  0  0  0  0  0  0
  186.9800  177.9160  141.3750 C   0  0  0  0  0  1  0  0  0  0  0  0
  185.8310  178.8530  144.2400 O   0  0  0  0  0  1  0  0  0  0  0  0
  189.2030  177.1850  142.1650 C   0  0  2  0  0  3  0  0  0  0  0  0
  185.6240  176.8190  145.5210 C   0  0  2  0  0  3  0  0  0  0  0  0
  187.1450  176.9210  143.6680 C   0  0  2  0  0  3  0  0  0  0  0  0
  187.0210  176.4870  146.0280 C   0  0  0  0  0  2  0  0  0  0  0  0
  185.7990  177.4550  144.1390 C   0  0  2  0  0  3  0  0  0  0  0  0
  187.9780  176.8730  144.9170 C   0  0  1  0  0  3  0  0  0  0  0  0
  190.2950  177.7510  143.0730 C   0  0  0  0  0  2  0  0  0  0  0  0
  189.2870  175.6410  144.7230 S   0  0  0  0  0  0  0  0  0  0  0  0
  187.8540  177.7640  142.6090 C   0  0  2  0  0  3  0  0  0  0  0  0
  189.9710  176.2740  143.1350 C   0  0  2  0  0  0  0  0  0  0  0  0
  184.9650  177.6800  146.4440 O   0  0  0  0  0  0  0  0  0  0  0  0
  185.5670  177.3140  148.6250 O   0  0  0  0  0  0  0  0  0  0  0  0
  185.5470  178.1000  147.6440 C   0  0  0  0  0  0  0  0  0  0  0  0
  187.1600  179.4160  148.7630 O   0  0  0  0  0  1  0  0  0  0  0  0
  186.1680  179.4510  147.7820 C   0  0  0  0  0  2  0  0  0  0  0  0
  195.1630  173.5120  137.2270 C   0  0  2  0  0  3  0  0  0  0  0  0
  194.8460  173.5710  135.8690 O   0  0  0  0  0  1  0  0  0  0  0  0
  196.5980  173.1200  137.4010 C   0  0  2  0  0  3  0  0  0  0  0  0
  195.3960  171.5150  138.5400 N   0  0  0  0  0  2  0  0  0  0  0  0
  196.6420  172.1750  138.5080 N   0  0  0  0  0  2  0  0  0  0  0  0
  194.4200  172.3720  137.8670 C   0  0  1  0  0  3  0  0  0  0  0  0
  197.4830  174.3440  137.6610 C   0  0  2  0  0  3  0  0  0  0  0  0
  196.8310  175.2890  138.6570 C   0  0  0  0  0  1  0  0  0  0  0  0
  197.1920  176.2520  136.2080 O   0  0  0  0  0  1  0  0  0  0  0  0
  197.9300  175.0840  136.3960 C   0  0  0  0  0  2  0  0  0  0  0  0
  1  6  1  0  0  0  0
  1 28  1  0  0  0  0
  2 12  1  0  0  0  0
  3  2  2  0  0  0  0
  4 12  2  0  0  0  0
  4 14  1  0  0  0  0
  5 11  1  0  0  0  0
  6  5  2  0  0  0  0
  7  4  1  0  0  0  0
  8  7  1  0  0  0  0
  9 13  2  0  0  0  0
  9  6  1  0  0  0  0
 10 16  1  0  0  0  0
 10 11  2  0  0  0  0
 12  9  1  0  0  0  0
 13 10  1  0  0  0  0
 14  1  1  0  0  0  0
 15  3  1  0  0  0  0
 15  7  2  0  0  0  0
 17 27  1  0  0  0  0
 19 27  1  0  0  0  0
 19 25  1  1  0  0  0
 19 28  1  0  0  0  0
 20 22  1  0  0  0  0
 20 29  1  1  0  0  0
 21 23  1  0  0  0  0
 21 24  1  0  0  0  0
 23 18  1  0  0  0  0
 23 20  1  0  0  0  0
 24 22  1  0  0  0  0
 25 28  1  0  0  0  0
 26 24  1  0  0  0  0
 27 21  1  0  0  0  0
 28 26  1  0  0  0  0
 29 31  1  0  0  0  0
 31 33  1  0  0  0  0
 31 30  2  0  0  0  0
 33 32  1  0  0  0  0
 34 36  1  0  0  0  0
 34 39  1  0  0  0  0
 35 34  1  0  0  0  0
 36 40  1  0  0  0  0
 36 38  1  0  0  0  0
 38 37  1  0  0  0  0
 39 37  1  0  0  0  0
 39  3  1  0  0  0  0
 40 41  1  0  0  0  0
 42 43  1  0  0  0  0
 43 40  1  0  0  0  0
M  END
>  <MODEL>
7

>  <REMARK>
 VINA RESULT:      -7.0      4.211      5.642
  Name = 
  7 active torsions:
  status: ('A' for Active; 'I' for Inactive)
    1  A    between atoms: N_1  and  C_41
    2  A    between atoms: C_5  and  C_17
    3  A    between atoms: C_5  and  C_35
    4  A    between atoms: C_6  and  C_42
    5  A    between atoms: C_13  and  O_27
    6  A    between atoms: C_26  and  O_27
    7  A    between atoms: C_26  and  C_34
                            x       y       z     vdW  Elec       q    Type
                         _______ _______ _______ _____ _____    ______ ____

>  <TORSDO>
F 7

$$$$
=
 OpenBabel11062422313D

 43 49  0  0  1  0  0  0  0  0999 V2000
  186.8780  176.9410  143.1060 N   0  0  0  0  0  0  0  0  0  0  0  0
  182.9990  178.6180  143.0720 C   0  0  0  0  0  3  0  0  0  0  0  0
  182.2640  178.6740  141.8880 C   0  0  0  0  0  0  0  0  0  0  0  0
  184.9540  177.8560  141.8450 C   0  0  0  0  0  0  0  0  0  0  0  0
  187.0640  177.3760  145.5440 C   0  0  0  0  0  3  0  0  0  0  0  0
  186.3550  177.4890  144.3350 C   0  0  0  0  0  0  0  0  0  0  0  0
  184.2210  177.9440  140.6450 C   0  0  0  0  0  0  0  0  0  0  0  0
  184.8400  177.6110  139.3280 C   0  0  0  0  0  1  0  0  0  0  0  0
  185.1060  178.1380  144.3270 C   0  0  0  0  0  0  0  0  0  0  0  0
  185.3220  178.5820  146.7050 C   0  0  0  0  0  0  0  0  0  0  0  0
  186.5520  177.9220  146.7210 C   0  0  0  0  0  3  0  0  0  0  0  0
  184.3420  178.2160  143.0650 C   0  0  0  0  0  0  0  0  0  0  0  0
  184.5990  178.6860  145.5150 C   0  0  0  0  0  3  0  0  0  0  0  0
  186.4110  177.4620  141.8190 C   0  0  0  0  0  2  0  0  0  0  0  0
  182.8860  178.3530  140.6720 C   0  0  0  0  0  3  0  0  0  0  0  0
  184.8190  179.1410  147.8720 O   0  0  0  0  0  1  0  0  0  0  0  0
  188.7220  173.2220  140.6150 C   0  0  0  0  0  1  0  0  0  0  0  0
  191.6990  172.8950  141.8150 O   0  0  0  0  0  1  0  0  0  0  0  0
  187.8590  174.7460  142.3580 C   0  0  2  0  0  3  0  0  0  0  0  0
  192.7060  175.0730  141.5780 C   0  0  2  0  0  3  0  0  0  0  0  0
  190.3180  174.8560  141.6440 C   0  0  2  0  0  3  0  0  0  0  0  0
  192.1790  175.9180  142.7310 C   0  0  0  0  0  2  0  0  0  0  0  0
  191.5700  174.1320  141.1690 C   0  0  2  0  0  3  0  0  0  0  0  0
  190.7340  175.5040  142.9340 C   0  0  1  0  0  3  0  0  0  0  0  0
  187.8800  174.8030  143.8850 C   0  0  0  0  0  2  0  0  0  0  0  0
  189.6810  176.9360  143.2570 S   0  0  0  0  0  0  0  0  0  0  0  0
  189.0960  173.9710  141.8840 C   0  0  2  0  0  3  0  0  0  0  0  0
  188.0600  176.0800  143.0920 C   0  0  2  0  0  0  0  0  0  0  0  0
  193.8800  174.3770  141.9850 O   0  0  0  0  0  0  0  0  0  0  0  0
  196.0250  173.7790  141.4420 O   0  0  0  0  0  0  0  0  0  0  0  0
  195.1550  174.6850  141.5020 C   0  0  0  0  0  0  0  0  0  0  0  0
  196.4630  176.6170  141.8740 O   0  0  0  0  0  1  0  0  0  0  0  0
  195.5030  176.0590  141.0300 C   0  0  0  0  0  2  0  0  0  0  0  0
  180.2710  179.2510  140.5560 C   0  0  2  0  0  3  0  0  0  0  0  0
  180.0400  180.5920  140.2470 O   0  0  0  0  0  1  0  0  0  0  0  0
  178.9690  178.5210  140.6740 C   0  0  2  0  0  3  0  0  0  0  0  0
  180.0070  178.2300  142.7120 N   0  0  0  0  0  2  0  0  0  0  0  0
  179.0890  177.6340  141.8230 N   0  0  0  0  0  2  0  0  0  0  0  0
  180.8460  179.1450  141.9410 C   0  0  1  0  0  3  0  0  0  0  0  0
  178.6400  177.7520  139.3910 C   0  0  2  0  0  3  0  0  0  0  0  0
  177.9130  178.6380  138.3920 C   0  0  0  0  0  1  0  0  0  0  0  0
  178.0760  175.5620  138.5400 O   0  0  0  0  0  1  0  0  0  0  0  0
  177.8950  176.4310  139.6150 C   0  0  0  0  0  2  0  0  0  0  0  0
  1  6  1  0  0  0  0
  3 39  1  0  0  0  0
  3  2  2  0  0  0  0
  4 12  2  0  0  0  0
  5 11  1  0  0  0  0
  6  5  2  0  0  0  0
  7 15  2  0  0  0  0
  7  4  1  0  0  0  0
  8  7  1  0  0  0  0
  9  6  1  0  0  0  0
  9 13  2  0  0  0  0
 10 11  2  0  0  0  0
 10 16  1  0  0  0  0
 12  2  1  0  0  0  0
 12  9  1  0  0  0  0
 13 10  1  0  0  0  0
 14  4  1  0  0  0  0
 14  1  1  0  0  0  0
 15  3  1  0  0  0  0
 17 27  1  0  0  0  0
 19 28  1  0  0  0  0
 19 25  1  1  0  0  0
 20 29  1  1  0  0  0
 20 22  1  0  0  0  0
 21 27  1  0  0  0  0
 21 24  1  0  0  0  0
 22 24  1  0  0  0  0
 23 20  1  0  0  0  0
 23 21  1  0  0  0  0
 23 18  1  0  0  0  0
 24 26  1  0  0  0  0
 27 19  1  0  0  0  0
 28  1  1  0  0  0  0
 28 26  1  0  0  0  0
 28 25  1  0  0  0  0
 30 31  2  0  0  0  0
 31 29  1  0  0  0  0
 33 31  1  0  0  0  0
 33 32  1  0  0  0  0
 34 36  1  0  0  0  0
 34 39  1  0  0  0  0
 35 34  1  0  0  0  0
 36 38  1  0  0  0  0
 38 37  1  0  0  0  0
 39 37  1  0  0  0  0
 40 43  1  0  0  0  0
 40 36  1  0  0  0  0
 41 40  1  0  0  0  0
 42 43  1  0  0  0  0
M  END
>  <MODEL>
8

>  <REMARK>
 VINA RESULT:      -6.9      3.388     11.605
  Name = 
  7 active torsions:
  status: ('A' for Active; 'I' for Inactive)
    1  A    between atoms: N_1  and  C_41
    2  A    between atoms: C_5  and  C_17
    3  A    between atoms: C_5  and  C_35
    4  A    between atoms: C_6  and  C_42
    5  A    between atoms: C_13  and  O_27
    6  A    between atoms: C_26  and  O_27
    7  A    between atoms: C_26  and  C_34
                            x       y       z     vdW  Elec       q    Type
                         _______ _______ _______ _____ _____    ______ ____

>  <TORSDO>
F 7

$$$$
=
 OpenBabel11062422313D

 43 49  0  0  1  0  0  0  0  0999 V2000
  191.7100  174.8020  142.1410 N   0  0  0  0  0  0  0  0  0  0  0  0
  194.9810  173.8930  139.6230 C   0  0  0  0  0  3  0  0  0  0  0  0
  196.2770  174.2520  139.9920 C   0  0  0  0  0  0  0  0  0  0  0  0
  194.0800  175.1360  141.5080 C   0  0  0  0  0  0  0  0  0  0  0  0
  190.1520  173.7320  140.5320 C   0  0  0  0  0  3  0  0  0  0  0  0
  191.4470  174.1530  140.8790 C   0  0  0  0  0  0  0  0  0  0  0  0
  195.3880  175.5260  141.8610 C   0  0  0  0  0  0  0  0  0  0  0  0
  195.6470  176.4100  143.0360 C   0  0  0  0  0  1  0  0  0  0  0  0
  192.5080  173.9280  139.9820 C   0  0  0  0  0  0  0  0  0  0  0  0
  190.9620  172.9130  138.4080 C   0  0  0  0  0  0  0  0  0  0  0  0
  189.9100  173.1180  139.3030 C   0  0  0  0  0  3  0  0  0  0  0  0
  193.8770  174.3310  140.3680 C   0  0  0  0  0  0  0  0  0  0  0  0
  192.2560  173.3110  138.7460 C   0  0  0  0  0  3  0  0  0  0  0  0
  192.8970  175.6490  142.2920 C   0  0  0  0  0  2  0  0  0  0  0  0
  196.4750  175.0850  141.1030 C   0  0  0  0  0  3  0  0  0  0  0  0
  190.7200  172.3180  137.1770 O   0  0  0  0  0  1  0  0  0  0  0  0
  191.3900  175.1710  146.9580 C   0  0  0  0  0  1  0  0  0  0  0  0
  188.2370  175.6020  147.4860 O   0  0  0  0  0  1  0  0  0  0  0  0
  191.2100  174.4910  144.5900 C   0  0  2  0  0  3  0  0  0  0  0  0
  187.6330  177.5010  146.1260 C   0  0  2  0  0  3  0  0  0  0  0  0
  189.5700  176.1960  145.5750 C   0  0  2  0  0  3  0  0  0  0  0  0
  187.4710  176.9770  144.7060 C   0  0  0  0  0  2  0  0  0  0  0  0
  188.7600  176.6860  146.7670 C   0  0  2  0  0  3  0  0  0  0  0  0
  188.5380  175.9160  144.5200 C   0  0  1  0  0  3  0  0  0  0  0  0
  190.3470  173.5230  143.7810 C   0  0  0  0  0  2  0  0  0  0  0  0
  189.2990  176.0310  142.8850 S   0  0  0  0  0  0  0  0  0  0  0  0
  190.4100  174.9430  145.8190 C   0  0  2  0  0  3  0  0  0  0  0  0
  190.6970  174.8740  143.1930 C   0  0  2  0  0  0  0  0  0  0  0  0
  186.4010  177.3850  146.8300 O   0  0  0  0  0  0  0  0  0  0  0  0
  185.8780  179.4930  147.5630 O   0  0  0  0  0  0  0  0  0  0  0  0
  185.5030  178.4480  146.9740 C   0  0  0  0  0  0  0  0  0  0  0  0
  184.1260  178.7460  145.0770 O   0  0  0  0  0  1  0  0  0  0  0  0
  184.1160  178.3800  146.4230 C   0  0  0  0  0  2  0  0  0  0  0  0
  196.9930  172.6740  138.2370 C   0  0  2  0  0  3  0  0  0  0  0  0
  197.6270  171.4910  138.6200 O   0  0  0  0  0  1  0  0  0  0  0  0
  197.4990  173.1150  136.8980 C   0  0  2  0  0  3  0  0  0  0  0  0
  197.9410  174.8780  138.3170 N   0  0  0  0  0  2  0  0  0  0  0  0
  197.6700  174.5600  136.9700 N   0  0  0  0  0  2  0  0  0  0  0  0
  197.4220  173.7930  139.1460 C   0  0  1  0  0  3  0  0  0  0  0  0
  196.5380  172.7100  135.7760 C   0  0  2  0  0  3  0  0  0  0  0  0
  196.4280  173.8050  134.7270 C   0  0  0  0  0  1  0  0  0  0  0  0
  194.1410  172.9770  135.6320 O   0  0  0  0  0  1  0  0  0  0  0  0
  195.1560  172.2540  136.2570 C   0  0  0  0  0  2  0  0  0  0  0  0
  1 14  1  0  0  0  0
  1 28  1  0  0  0  0
  2  3  2  0  0  0  0
  2 12  1  0  0  0  0
  3 15  1  0  0  0  0
  4  7  1  0  0  0  0
  4 14  1  0  0  0  0
  5  6  1  0  0  0  0
  6  1  1  0  0  0  0
  7  8  1  0  0  0  0
  9 12  1  0  0  0  0
  9  6  2  0  0  0  0
 10 13  2  0  0  0  0
 10 11  1  0  0  0  0
 11  5  2  0  0  0  0
 12  4  2  0  0  0  0
 13  9  1  0  0  0  0
 15  7  2  0  0  0  0
 16 10  1  0  0  0  0
 19 25  1  6  0  0  0
 19 27  1  0  0  0  0
 20 23  1  0  0  0  0
 20 29  1  1  0  0  0
 21 27  1  0  0  0  0
 21 23  1  0  0  0  0
 22 20  1  0  0  0  0
 23 18  1  0  0  0  0
 24 22  1  0  0  0  0
 24 21  1  0  0  0  0
 26 28  1  0  0  0  0
 26 24  1  0  0  0  0
 27 17  1  0  0  0  0
 28 25  1  0  0  0  0
 28 19  1  0  0  0  0
 29 31  1  0  0  0  0
 31 30  2  0  0  0  0
 32 33  1  0  0  0  0
 33 31  1  0  0  0  0
 34 35  1  0  0  0  0
 34 39  1  0  0  0  0
 36 38  1  0  0  0  0
 36 34  1  0  0  0  0
 37 39  1  0  0  0  0
 38 37  1  0  0  0  0
 39  3  1  0  0  0  0
 40 43  1  0  0  0  0
 40 36  1  0  0  0  0
 41 40  1  0  0  0  0
 42 43  1  0  0  0  0
M  END
>  <MODEL>
9

>  <REMARK>
 VINA RESULT:      -6.7      4.620      7.142
  Name = 
  7 active torsions:
  status: ('A' for Active; 'I' for Inactive)
    1  A    between atoms: N_1  and  C_41
    2  A    between atoms: C_5  and  C_17
    3  A    between atoms: C_5  and  C_35
    4  A    between atoms: C_6  and  C_42
    5  A    between atoms: C_13  and  O_27
    6  A    between atoms: C_26  and  O_27
    7  A    between atoms: C_26  and  C_34
                            x       y       z     vdW  Elec       q    Type
                         _______ _______ _______ _____ _____    ______ ____

>  <TORSDO>
F 7

$$$$
