=
 OpenBabel11062418303D

 48 53  0  0  1  0  0  0  0  0999 V2000
  187.7100  175.6460  140.9880 N   0  0  0  0  0  0  0  0  0  0  0  0
  188.3720  174.9140  141.8530 C   0  0  0  0  0  0  0  0  0  0  0  0
  187.3520  178.1800  144.3250 N   0  0  0  0  0  0  0  0  0  0  0  0
  188.0130  177.6780  143.2690 C   0  0  0  0  0  0  0  0  0  0  0  0
  187.5380  177.0990  140.8800 C   0  0  2  0  0  3  0  0  0  0  0  0
  189.2840  176.9210  143.2950 C   0  0  0  0  0  2  0  0  0  0  0  0
  188.9730  175.4330  143.1630 C   0  0  2  0  0  3  0  0  0  0  0  0
  187.1930  177.7150  142.1950 C   0  0  0  0  0  0  0  0  0  0  0  0
  186.0270  178.2670  142.5770 N   0  0  0  0  0  0  0  0  0  0  0  0
  186.1610  178.5470  143.8690 N   0  0  0  0  0  2  0  0  0  0  0  0
  190.0850  173.6230  144.7080 C   0  0  0  0  0  2  0  0  0  0  0  0
  193.0920  171.6550  143.6890 N   0  0  0  0  0  2  0  0  0  0  0  0
  190.1650  174.6220  143.5790 C   0  0  0  0  0  0  0  0  0  0  0  0
  192.1970  172.7400  143.9260 C   0  0  0  0  0  0  0  0  0  0  0  0
  191.3550  174.8570  143.0070 C   0  0  0  0  0  3  0  0  0  0  0  0
  191.0350  172.5280  144.4740 N   0  0  0  0  0  0  0  0  0  0  0  0
  192.5980  174.1400  143.5030 C   0  0  1  0  0  3  0  0  0  0  0  0
  193.2020  174.8540  144.6410 N   0  0  0  0  0  0  0  0  0  0  0  0
  193.9990  177.0460  145.4820 C   0  0  0  0  0  2  0  0  0  0  0  0
  193.3110  176.2880  144.3360 C   0  0  0  0  0  2  0  0  0  0  0  0
  194.5670  174.3490  144.8380 C   0  0  0  0  0  2  0  0  0  0  0  0
  195.2660  175.0850  145.9920 C   0  0  0  0  0  2  0  0  0  0  0  0
  194.4210  176.1400  146.5510 N   0  0  0  0  0  2  0  0  0  0  0  0
  192.7700  170.3460  144.0680 N   0  0  0  0  0  2  0  0  0  0  0  0
  193.7080  169.5440  144.7820 C   0  0  0  0  0  0  0  0  0  0  0  0
  194.8500  169.9930  145.0620 O   0  0  0  0  0  0  0  0  0  0  0  0
  193.3340  168.1680  145.1930 C   0  0  0  0  0  1  0  0  0  0  0  0
  189.1780  172.7590  140.9880 C   0  0  0  0  0  3  0  0  0  0  0  0
  188.3600  173.4870  141.6930 N   0  0  0  0  0  0  0  0  0  0  0  0
  189.1260  173.6190  136.6240 C   0  0  0  0  0  3  0  0  0  0  0  0
  191.0550  172.1460  136.8520 C   0  0  0  0  0  3  0  0  0  0  0  0
  190.0890  172.7710  136.0450 C   0  0  0  0  0  3  0  0  0  0  0  0
  191.0170  172.3790  138.2290 C   0  0  0  0  0  0  0  0  0  0  0  0
  189.1300  173.8450  138.0090 C   0  0  0  0  0  3  0  0  0  0  0  0
  190.3470  173.2990  140.2300 C   0  0  1  0  0  3  0  0  0  0  0  0
  191.4990  172.5180  140.5090 O   0  0  0  0  0  0  0  0  0  0  0  0
  191.9230  171.8940  139.2960 C   0  0  1  0  0  3  0  0  0  0  0  0
  190.1000  173.1980  138.7800 C   0  0  0  0  0  0  0  0  0  0  0  0
  192.2830  170.0070  140.7480 O   0  0  0  0  0  1  0  0  0  0  0  0
  191.9220  170.3560  139.4440 C   0  0  2  0  0  0  0  0  0  0  0  0
  192.9410  169.7440  138.4930 C   0  0  0  0  0  1  0  0  0  0  0  0
  190.5880  168.6380  138.1180 C   0  0  0  0  0  1  0  0  0  0  0  0
  190.5410  169.7630  139.1460 C   0  0  0  0  0  2  0  0  0  0  0  0
  186.5010  177.4050  139.8130 C   0  0  0  0  0  2  0  0  0  0  0  0
  186.6860  176.5140  138.6350 C   0  0  0  0  0  3  0  0  0  0  0  0
  186.6550  177.0010  137.4500 N   0  0  0  0  0  0  0  0  0  0  0  0
  187.7770  176.7960  135.3150 C   0  0  0  0  0  1  0  0  0  0  0  0
  186.8200  176.1510  136.3040 C   0  0  0  0  0  2  0  0  0  0  0  0
  1  2  2  0  0  0  0
  2  7  1  0  0  0  0
  4  6  1  0  0  0  0
  4  3  2  0  0  0  0
  5 44  1  6  0  0  0
  5  1  1  0  0  0  0
  5  8  1  0  0  0  0
  7  6  1  0  0  0  0
  7 13  1  6  0  0  0
  8  9  2  0  0  0  0
  8  4  1  0  0  0  0
  9 10  1  0  0  0  0
 10  3  1  0  0  0  0
 12 14  1  0  0  0  0
 12 24  1  0  0  0  0
 13 11  1  0  0  0  0
 14 16  2  0  0  0  0
 15 13  2  0  0  0  0
 16 11  1  0  0  0  0
 17 15  1  1  0  0  0
 17 14  1  0  0  0  0
 17 18  1  0  0  0  0
 18 21  1  0  0  0  0
 19 23  1  0  0  0  0
 20 18  1  0  0  0  0
 20 19  1  0  0  0  0
 21 22  1  0  0  0  0
 22 23  1  0  0  0  0
 24 25  1  0  0  0  0
 25 26  2  0  0  0  0
 25 27  1  0  0  0  0
 28 29  2  0  0  0  0
 29  2  1  0  0  0  0
 30 34  1  0  0  0  0
 31 33  2  0  0  0  0
 32 30  2  0  0  0  0
 32 31  1  0  0  0  0
 33 38  1  0  0  0  0
 33 37  1  0  0  0  0
 34 38  2  0  0  0  0
 35 36  1  0  0  0  0
 35 28  1  1  0  0  0
 37 40  1  1  0  0  0
 37 36  1  0  0  0  0
 38 35  1  0  0  0  0
 40 41  1  6  0  0  0
 40 39  1  0  0  0  0
 42 43  1  0  0  0  0
 43 40  1  0  0  0  0
 45 44  1  0  0  0  0
 46 45  2  0  0  0  0
 47 48  1  0  0  0  0
 48 46  1  0  0  0  0
M  END
>  <MODEL>
1

>  <REMARK>
 VINA RESULT:      -6.8      0.000      0.000
  Name = 
  10 active torsions:
  status: ('A' for Active; 'I' for Inactive)
    1  A    between atoms: N_1  and  N_9
    2  A    between atoms: C_3  and  C_43
    3  A    between atoms: N_7  and  C_47
    4  A    between atoms: N_16  and  C_25
    5  A    between atoms: C_18  and  C_34
    6  A    between atoms: C_18  and  C_38
    7  A    between atoms: C_20  and  N_42
    8  A    between atoms: C_23  and  C_32
    9  A    between atoms: C_27  and  C_31
   10  A    between atoms: C_29  and  C_43
                            x       y       z     vdW  Elec       q    Type
                         _______ _______ _______ _____ _____    ______ ____

>  <TORSDO>
F 10

$$$$
=
 OpenBabel11062418303D

 48 53  0  0  1  0  0  0  0  0999 V2000
  190.9540  173.6170  143.5300 N   0  0  0  0  0  0  0  0  0  0  0  0
  190.3970  173.2610  142.3970 C   0  0  0  0  0  0  0  0  0  0  0  0
  193.4960  170.4020  142.5920 N   0  0  0  0  0  0  0  0  0  0  0  0
  193.0920  171.6780  142.4850 C   0  0  0  0  0  0  0  0  0  0  0  0
  192.3400  173.5250  143.9990 C   0  0  2  0  0  3  0  0  0  0  0  0
  192.5950  172.3540  141.2650 C   0  0  0  0  0  2  0  0  0  0  0  0
  191.0720  172.4080  141.3180 C   0  0  2  0  0  3  0  0  0  0  0  0
  192.9280  172.1800  143.7300 C   0  0  0  0  0  0  0  0  0  0  0  0
  193.2580  171.2220  144.6150 N   0  0  0  0  0  0  0  0  0  0  0  0
  193.6080  170.1620  143.8930 N   0  0  0  0  0  2  0  0  0  0  0  0
  189.1080  172.3460  139.5740 C   0  0  0  0  0  2  0  0  0  0  0  0
  188.8480  174.7480  136.7250 N   0  0  0  0  0  0  0  0  0  0  0  0
  190.5230  172.7120  139.9550 C   0  0  0  0  0  0  0  0  0  0  0  0
  189.3660  173.8060  137.6620 C   0  0  0  0  0  0  0  0  0  0  0  0
  191.3320  173.2280  139.0180 C   0  0  0  0  0  3  0  0  0  0  0  0
  188.5960  173.3000  138.5820 N   0  0  0  0  0  0  0  0  0  0  0  0
  190.8320  173.4230  137.5970 C   0  0  1  0  0  3  0  0  0  0  0  0
  190.9950  172.1900  136.8070 N   0  0  0  0  0  0  0  0  0  0  0  0
  192.4690  170.2570  136.3240 C   0  0  0  0  0  2  0  0  0  0  0  0
  192.2430  171.5110  137.1820 C   0  0  0  0  0  2  0  0  0  0  0  0
  191.1120  172.5580  135.3890 C   0  0  0  0  0  2  0  0  0  0  0  0
  191.3220  171.3130  134.5130 C   0  0  0  0  0  2  0  0  0  0  0  0
  191.4180  170.0950  135.3180 N   0  0  0  0  0  2  0  0  0  0  0  0
  187.5010  175.1280  136.7390 N   0  0  0  0  0  0  0  0  0  0  0  0
  186.9420  175.8660  135.6560 C   0  0  0  0  0  0  0  0  0  0  0  0
  187.6580  176.2080  134.6780 O   0  0  0  0  0  0  0  0  0  0  0  0
  185.5050  176.2360  135.6840 C   0  0  0  0  0  1  0  0  0  0  0  0
  188.3220  174.5770  142.4770 C   0  0  0  0  0  3  0  0  0  0  0  0
  188.9900  173.4880  142.2230 N   0  0  0  0  0  0  0  0  0  0  0  0
  188.4450  175.7880  146.7550 C   0  0  0  0  0  3  0  0  0  0  0  0
  187.4040  177.7170  145.6870 C   0  0  0  0  0  3  0  0  0  0  0  0
  187.7050  176.9830  146.8470 C   0  0  0  0  0  3  0  0  0  0  0  0
  187.8440  177.2210  144.4570 C   0  0  0  0  0  0  0  0  0  0  0  0
  188.8880  175.3300  145.5050 C   0  0  0  0  0  3  0  0  0  0  0  0
  188.9370  175.8470  142.9670 C   0  0  1  0  0  3  0  0  0  0  0  0
  188.4340  176.9420  142.2160 O   0  0  0  0  0  0  0  0  0  0  0  0
  187.7110  177.7990  143.1010 C   0  0  1  0  0  3  0  0  0  0  0  0
  188.5600  176.0820  144.3730 C   0  0  0  0  0  0  0  0  0  0  0  0
  185.5160  176.8130  143.0190 O   0  0  0  0  0  1  0  0  0  0  0  0
  186.2420  177.9440  142.6410 C   0  0  2  0  0  0  0  0  0  0  0  0
  186.1850  178.0580  141.1240 C   0  0  0  0  0  1  0  0  0  0  0  0
  184.2490  178.8610  143.9340 C   0  0  0  0  0  1  0  0  0  0  0  0
  185.5790  179.1790  143.2600 C   0  0  0  0  0  2  0  0  0  0  0  0
  192.3990  173.8920  145.4720 C   0  0  0  0  0  2  0  0  0  0  0  0
  193.2020  175.1310  145.6690 C   0  0  0  0  0  3  0  0  0  0  0  0
  194.1530  175.4150  144.8560 N   0  0  0  0  0  0  0  0  0  0  0  0
  194.5130  177.3160  146.3100 C   0  0  0  0  0  1  0  0  0  0  0  0
  194.9430  176.6000  145.0410 C   0  0  0  0  0  2  0  0  0  0  0  0
  1  5  1  0  0  0  0
  2  1  2  0  0  0  0
  3 10  1  0  0  0  0
  4  3  2  0  0  0  0
  4  8  1  0  0  0  0
  5 44  1  1  0  0  0
  6  7  1  0  0  0  0
  6  4  1  0  0  0  0
  7 13  1  6  0  0  0
  7  2  1  0  0  0  0
  8  5  1  0  0  0  0
  8  9  2  0  0  0  0
 10  9  1  0  0  0  0
 11 13  1  0  0  0  0
 12 24  2  0  0  0  0
 12 14  1  0  0  0  0
 14 16  2  0  0  0  0
 15 13  2  0  0  0  0
 16 11  1  0  0  0  0
 17 18  1  6  0  0  0
 17 14  1  0  0  0  0
 17 15  1  0  0  0  0
 18 20  1  0  0  0  0
 19 20  1  0  0  0  0
 21 18  1  0  0  0  0
 22 23  1  0  0  0  0
 22 21  1  0  0  0  0
 23 19  1  0  0  0  0
 25 27  1  0  0  0  0
 25 24  1  0  0  0  0
 26 25  2  0  0  0  0
 29  2  1  0  0  0  0
 29 28  2  0  0  0  0
 30 32  1  0  0  0  0
 31 32  2  0  0  0  0
 33 31  1  0  0  0  0
 34 30  2  0  0  0  0
 35 28  1  6  0  0  0
 35 38  1  0  0  0  0
 36 35  1  0  0  0  0
 36 37  1  0  0  0  0
 37 40  1  6  0  0  0
 37 33  1  0  0  0  0
 38 33  2  0  0  0  0
 38 34  1  0  0  0  0
 40 41  1  6  0  0  0
 40 39  1  0  0  0  0
 40 43  1  0  0  0  0
 43 42  1  0  0  0  0
 44 45  1  0  0  0  0
 46 48  1  0  0  0  0
 46 45  2  0  0  0  0
 48 47  1  0  0  0  0
M  END
>  <MODEL>
2

>  <REMARK>
 VINA RESULT:      -6.8      2.981      9.300
  Name = 
  10 active torsions:
  status: ('A' for Active; 'I' for Inactive)
    1  A    between atoms: N_1  and  N_9
    2  A    between atoms: C_3  and  C_43
    3  A    between atoms: N_7  and  C_47
    4  A    between atoms: N_16  and  C_25
    5  A    between atoms: C_18  and  C_34
    6  A    between atoms: C_18  and  C_38
    7  A    between atoms: C_20  and  N_42
    8  A    between atoms: C_23  and  C_32
    9  A    between atoms: C_27  and  C_31
   10  A    between atoms: C_29  and  C_43
                            x       y       z     vdW  Elec       q    Type
                         _______ _______ _______ _____ _____    ______ ____

>  <TORSDO>
F 10

$$$$
=
 OpenBabel11062418303D

 48 53  0  0  1  0  0  0  0  0999 V2000
  192.3040  175.3940  144.2960 N   0  0  0  0  0  0  0  0  0  0  0  0
  191.7110  174.5530  143.4830 C   0  0  0  0  0  0  0  0  0  0  0  0
  195.7100  173.2820  143.0220 N   0  0  0  0  0  0  0  0  0  0  0  0
  194.7600  174.2210  142.8760 C   0  0  0  0  0  0  0  0  0  0  0  0
  193.6500  175.9770  144.2740 C   0  0  2  0  0  3  0  0  0  0  0  0
  193.7320  174.2870  141.8140 C   0  0  0  0  0  2  0  0  0  0  0  0
  192.4130  173.7630  142.3730 C   0  0  2  0  0  3  0  0  0  0  0  0
  194.6970  174.9440  144.0170 C   0  0  0  0  0  0  0  0  0  0  0  0
  195.6290  174.4730  144.8650 N   0  0  0  0  0  0  0  0  0  0  0  0
  196.2320  173.4750  144.2270 N   0  0  0  0  0  2  0  0  0  0  0  0
  189.9800  173.3560  141.4680 C   0  0  0  0  0  2  0  0  0  0  0  0
  189.0410  173.8410  137.8860 N   0  0  0  0  0  2  0  0  0  0  0  0
  191.4720  173.4420  141.2490 C   0  0  0  0  0  0  0  0  0  0  0  0
  189.7360  173.4350  139.0630 C   0  0  0  0  0  0  0  0  0  0  0  0
  191.9670  173.1260  140.0440 C   0  0  0  0  0  3  0  0  0  0  0  0
  189.2730  173.7400  140.2410 N   0  0  0  0  0  0  0  0  0  0  0  0
  191.0410  172.6730  138.9290 C   0  0  1  0  0  3  0  0  0  0  0  0
  190.7860  171.2240  139.0100 N   0  0  0  0  0  0  0  0  0  0  0  0
  191.8090  168.9880  139.3260 C   0  0  0  0  0  2  0  0  0  0  0  0
  192.0360  170.5080  139.3030 C   0  0  0  0  0  2  0  0  0  0  0  0
  190.3190  170.7590  137.6960 C   0  0  0  0  0  2  0  0  0  0  0  0
  190.0710  169.2430  137.7050 C   0  0  0  0  0  2  0  0  0  0  0  0
  190.4260  168.6440  138.9920 N   0  0  0  0  0  2  0  0  0  0  0  0
  187.8300  174.5390  137.9570 N   0  0  0  0  0  2  0  0  0  0  0  0
  187.4300  175.4110  136.9020 C   0  0  0  0  0  0  0  0  0  0  0  0
  188.1720  175.5840  135.9000 O   0  0  0  0  0  0  0  0  0  0  0  0
  186.1300  176.1220  136.9910 C   0  0  0  0  0  1  0  0  0  0  0  0
  189.3580  174.9340  144.0810 C   0  0  0  0  0  3  0  0  0  0  0  0
  190.3590  174.1630  143.7670 N   0  0  0  0  0  0  0  0  0  0  0  0
  187.3050  177.3730  147.1830 C   0  0  0  0  0  3  0  0  0  0  0  0
  186.5160  178.3800  145.1070 C   0  0  0  0  0  3  0  0  0  0  0  0
  186.3930  178.1970  146.4950 C   0  0  0  0  0  3  0  0  0  0  0  0
  187.5490  177.7160  144.4410 C   0  0  0  0  0  0  0  0  0  0  0  0
  188.3420  176.7360  146.4840 C   0  0  0  0  0  3  0  0  0  0  0  0
  189.4330  176.4240  144.1560 C   0  0  1  0  0  3  0  0  0  0  0  0
  189.1280  176.9820  142.8860 O   0  0  0  0  0  0  0  0  0  0  0  0
  187.9360  177.7600  143.0130 C   0  0  1  0  0  3  0  0  0  0  0  0
  188.4260  176.9350  145.1030 C   0  0  0  0  0  0  0  0  0  0  0  0
  186.1340  176.1960  142.6900 O   0  0  0  0  0  1  0  0  0  0  0  0
  186.8360  177.2300  142.0660 C   0  0  2  0  0  0  0  0  0  0  0  0
  187.4690  176.6740  140.7980 C   0  0  0  0  0  1  0  0  0  0  0  0
  184.4200  178.0340  142.1480 C   0  0  0  0  0  1  0  0  0  0  0  0
  185.8420  178.3330  141.6860 C   0  0  0  0  0  2  0  0  0  0  0  0
  193.8940  176.7310  145.5700 C   0  0  0  0  0  2  0  0  0  0  0  0
  192.9130  176.3110  146.6090 C   0  0  0  0  0  3  0  0  0  0  0  0
  192.3800  177.1870  147.3800 N   0  0  0  0  0  0  0  0  0  0  0  0
  191.3950  177.8450  149.4900 C   0  0  0  0  0  1  0  0  0  0  0  0
  191.4420  176.7940  148.3930 C   0  0  0  0  0  2  0  0  0  0  0  0
  2 29  1  0  0  0  0
  2  1  2  0  0  0  0
  3 10  1  0  0  0  0
  4  3  2  0  0  0  0
  4  8  1  0  0  0  0
  5  1  1  0  0  0  0
  5 44  1  1  0  0  0
  6  7  1  0  0  0  0
  6  4  1  0  0  0  0
  7 13  1  6  0  0  0
  7  2  1  0  0  0  0
  8  5  1  0  0  0  0
  8  9  2  0  0  0  0
 10  9  1  0  0  0  0
 12 24  1  0  0  0  0
 12 14  1  0  0  0  0
 13 11  1  0  0  0  0
 14 16  2  0  0  0  0
 15 13  2  0  0  0  0
 16 11  1  0  0  0  0
 17 18  1  1  0  0  0
 17 14  1  0  0  0  0
 17 15  1  0  0  0  0
 18 20  1  0  0  0  0
 20 19  1  0  0  0  0
 21 22  1  0  0  0  0
 21 18  1  0  0  0  0
 22 23  1  0  0  0  0
 23 19  1  0  0  0  0
 25 27  1  0  0  0  0
 25 24  1  0  0  0  0
 26 25  2  0  0  0  0
 29 28  2  0  0  0  0
 31 32  2  0  0  0  0
 32 30  1  0  0  0  0
 33 38  2  0  0  0  0
 33 31  1  0  0  0  0
 34 30  2  0  0  0  0
 35 28  1  6  0  0  0
 35 38  1  0  0  0  0
 36 37  1  0  0  0  0
 36 35  1  0  0  0  0
 37 40  1  6  0  0  0
 37 33  1  0  0  0  0
 38 34  1  0  0  0  0
 40 41  1  6  0  0  0
 40 39  1  0  0  0  0
 43 40  1  0  0  0  0
 43 42  1  0  0  0  0
 44 45  1  0  0  0  0
 45 46  2  0  0  0  0
 46 48  1  0  0  0  0
 48 47  1  0  0  0  0
M  END
>  <MODEL>
3

>  <REMARK>
 VINA RESULT:      -6.7      3.096      8.949
  Name = 
  10 active torsions:
  status: ('A' for Active; 'I' for Inactive)
    1  A    between atoms: N_1  and  N_9
    2  A    between atoms: C_3  and  C_43
    3  A    between atoms: N_7  and  C_47
    4  A    between atoms: N_16  and  C_25
    5  A    between atoms: C_18  and  C_34
    6  A    between atoms: C_18  and  C_38
    7  A    between atoms: C_20  and  N_42
    8  A    between atoms: C_23  and  C_32
    9  A    between atoms: C_27  and  C_31
   10  A    between atoms: C_29  and  C_43
                            x       y       z     vdW  Elec       q    Type
                         _______ _______ _______ _____ _____    ______ ____

>  <TORSDO>
F 10

$$$$
=
 OpenBabel11062418303D

 48 53  0  0  1  0  0  0  0  0999 V2000
  189.8120  174.1880  144.5560 N   0  0  0  0  0  0  0  0  0  0  0  0
  190.2470  173.7680  143.3920 C   0  0  0  0  0  0  0  0  0  0  0  0
  190.6000  177.9350  142.8160 N   0  0  0  0  0  0  0  0  0  0  0  0
  189.8410  176.8450  143.0190 C   0  0  0  0  0  0  0  0  0  0  0  0
  189.1110  175.4170  144.9410 C   0  0  2  0  0  3  0  0  0  0  0  0
  189.4250  175.8500  142.0050 C   0  0  0  0  0  2  0  0  0  0  0  0
  190.3230  174.6230  142.1220 C   0  0  2  0  0  3  0  0  0  0  0  0
  189.7510  176.6290  144.3500 C   0  0  0  0  0  0  0  0  0  0  0  0
  190.4330  177.6030  144.9800 N   0  0  0  0  0  0  0  0  0  0  0  0
  190.9250  178.3830  144.0230 N   0  0  0  0  0  2  0  0  0  0  0  0
  191.4250  173.2450  140.1760 C   0  0  0  0  0  2  0  0  0  0  0  0
  189.6390  170.5130  138.3600 N   0  0  0  0  0  2  0  0  0  0  0  0
  190.2050  173.7820  140.8860 C   0  0  0  0  0  0  0  0  0  0  0  0
  189.9360  171.7660  138.9740 C   0  0  0  0  0  0  0  0  0  0  0  0
  188.9980  173.5820  140.3370 C   0  0  0  0  0  3  0  0  0  0  0  0
  191.1010  171.9740  139.5180 N   0  0  0  0  0  0  0  0  0  0  0  0
  188.8700  172.8430  139.0160 C   0  0  1  0  0  3  0  0  0  0  0  0
  189.0410  173.7630  137.8780 N   0  0  0  0  0  0  0  0  0  0  0  0
  187.9430  175.4670  136.4510 C   0  0  0  0  0  2  0  0  0  0  0  0
  187.8140  174.5470  137.6750 C   0  0  0  0  0  2  0  0  0  0  0  0
  189.2510  172.9660  136.6610 C   0  0  0  0  0  2  0  0  0  0  0  0
  189.3980  173.8710  135.4280 C   0  0  0  0  0  2  0  0  0  0  0  0
  189.2260  175.2830  135.7700 N   0  0  0  0  0  2  0  0  0  0  0  0
  190.5920  169.4900  138.2900 N   0  0  0  0  0  2  0  0  0  0  0  0
  191.3050  169.2420  137.0810 C   0  0  0  0  0  0  0  0  0  0  0  0
  191.0710  169.9250  136.0490 O   0  0  0  0  0  0  0  0  0  0  0  0
  192.3270  168.1670  137.0390 C   0  0  0  0  0  1  0  0  0  0  0  0
  192.0680  172.1710  143.8120 C   0  0  0  0  0  3  0  0  0  0  0  0
  190.9040  172.4930  143.3250 N   0  0  0  0  0  0  0  0  0  0  0  0
  195.0250  174.9500  141.9900 C   0  0  0  0  0  3  0  0  0  0  0  0
  196.3800  173.7080  143.5910 C   0  0  0  0  0  3  0  0  0  0  0  0
  196.2870  174.5530  142.4720 C   0  0  0  0  0  3  0  0  0  0  0  0
  195.1970  173.2710  144.1910 C   0  0  0  0  0  0  0  0  0  0  0  0
  193.8570  174.5070  142.6300 C   0  0  0  0  0  3  0  0  0  0  0  0
  192.9380  173.0980  144.5980 C   0  0  1  0  0  3  0  0  0  0  0  0
  193.5920  172.3770  145.6320 O   0  0  0  0  0  0  0  0  0  0  0  0
  195.0000  172.4250  145.3900 C   0  0  1  0  0  3  0  0  0  0  0  0
  193.9900  173.6600  143.7340 C   0  0  0  0  0  0  0  0  0  0  0  0
  195.3680  170.5490  143.9270 O   0  0  0  0  0  1  0  0  0  0  0  0
  195.5760  170.9990  145.2320 C   0  0  2  0  0  0  0  0  0  0  0  0
  194.8620  170.0460  146.1810 C   0  0  0  0  0  1  0  0  0  0  0  0
  197.6000  169.5560  145.7860 C   0  0  0  0  0  1  0  0  0  0  0  0
  197.0790  170.9650  145.5260 C   0  0  0  0  0  2  0  0  0  0  0  0
  189.0260  175.4950  146.4560 C   0  0  0  0  0  2  0  0  0  0  0  0
  187.7060  176.0410  146.8770 C   0  0  0  0  0  3  0  0  0  0  0  0
  187.5150  177.3090  146.9030 N   0  0  0  0  0  0  0  0  0  0  0  0
  185.1300  177.2260  146.5050 C   0  0  0  0  0  1  0  0  0  0  0  0
  186.2510  177.8500  147.3180 C   0  0  0  0  0  2  0  0  0  0  0  0
  1  5  1  0  0  0  0
  2  1  2  0  0  0  0
  3  4  2  0  0  0  0
  3 10  1  0  0  0  0
  4  8  1  0  0  0  0
  5 44  1  1  0  0  0
  6  7  1  0  0  0  0
  6  4  1  0  0  0  0
  7 13  1  6  0  0  0
  7  2  1  0  0  0  0
  8  5  1  0  0  0  0
  8  9  2  0  0  0  0
 10  9  1  0  0  0  0
 11 13  1  0  0  0  0
 12 14  1  0  0  0  0
 14 17  1  0  0  0  0
 14 16  2  0  0  0  0
 15 13  2  0  0  0  0
 16 11  1  0  0  0  0
 17 18  1  6  0  0  0
 17 15  1  0  0  0  0
 19 20  1  0  0  0  0
 20 18  1  0  0  0  0
 21 18  1  0  0  0  0
 22 23  1  0  0  0  0
 22 21  1  0  0  0  0
 23 19  1  0  0  0  0
 24 12  1  0  0  0  0
 25 24  1  0  0  0  0
 26 25  2  0  0  0  0
 27 25  1  0  0  0  0
 29  2  1  0  0  0  0
 29 28  2  0  0  0  0
 30 32  2  0  0  0  0
 30 34  1  0  0  0  0
 31 33  2  0  0  0  0
 32 31  1  0  0  0  0
 33 37  1  0  0  0  0
 34 38  2  0  0  0  0
 35 28  1  6  0  0  0
 35 36  1  0  0  0  0
 37 40  1  6  0  0  0
 37 36  1  0  0  0  0
 38 33  1  0  0  0  0
 38 35  1  0  0  0  0
 39 40  1  0  0  0  0
 40 43  1  0  0  0  0
 40 41  1  1  0  0  0
 43 42  1  0  0  0  0
 44 45  1  0  0  0  0
 45 46  2  0  0  0  0
 46 48  1  0  0  0  0
 47 48  1  0  0  0  0
M  END
>  <MODEL>
4

>  <REMARK>
 VINA RESULT:      -6.6      2.673      7.238
  Name = 
  10 active torsions:
  status: ('A' for Active; 'I' for Inactive)
    1  A    between atoms: N_1  and  N_9
    2  A    between atoms: C_3  and  C_43
    3  A    between atoms: N_7  and  C_47
    4  A    between atoms: N_16  and  C_25
    5  A    between atoms: C_18  and  C_34
    6  A    between atoms: C_18  and  C_38
    7  A    between atoms: C_20  and  N_42
    8  A    between atoms: C_23  and  C_32
    9  A    between atoms: C_27  and  C_31
   10  A    between atoms: C_29  and  C_43
                            x       y       z     vdW  Elec       q    Type
                         _______ _______ _______ _____ _____    ______ ____

>  <TORSDO>
F 10

$$$$
=
 OpenBabel11062418303D

 48 53  0  0  1  0  0  0  0  0999 V2000
  190.0910  173.0770  140.3710 N   0  0  0  0  0  0  0  0  0  0  0  0
  191.2110  173.1890  141.0440 C   0  0  0  0  0  0  0  0  0  0  0  0
  192.2970  170.1100  138.3680 N   0  0  0  0  0  0  0  0  0  0  0  0
  191.5450  170.5590  139.3860 C   0  0  1  0  0  3  0  0  0  0  0  0
  189.4710  171.9260  139.7050 C   0  0  2  0  0  3  0  0  0  0  0  0
  191.9460  170.6710  140.8060 C   0  0  0  0  0  2  0  0  0  0  0  0
  192.3100  172.1220  141.1020 C   0  0  2  0  0  3  0  0  0  0  0  0
  190.4540  171.1730  138.8730 C   0  0  0  0  0  0  0  0  0  0  0  0
  190.5140  171.0810  137.5320 N   0  0  0  0  0  0  0  0  0  0  0  0
  191.6360  170.4220  137.2600 N   0  0  0  0  0  0  0  0  0  0  0  0
  192.4400  171.9180  143.7180 C   0  0  0  0  0  2  0  0  0  0  0  0
  195.6250  171.2280  145.5440 N   0  0  0  0  0  2  0  0  0  0  0  0
  193.0870  172.2040  142.3830 C   0  0  0  0  0  0  0  0  0  0  0  0
  194.6710  171.7900  144.6440 C   0  0  0  0  0  0  0  0  0  0  0  0
  194.3550  172.6370  142.3600 C   0  0  0  0  0  3  0  0  0  0  0  0
  193.4360  171.3750  144.6490 N   0  0  0  0  0  0  0  0  0  0  0  0
  195.1170  172.8510  143.6560 C   0  0  1  0  0  3  0  0  0  0  0  0
  194.8540  174.1920  144.2080 N   0  0  0  0  0  0  0  0  0  0  0  0
  195.5560  176.5690  144.2090 C   0  0  0  0  0  2  0  0  0  0  0  0
  195.7640  175.1740  143.6010 C   0  0  0  0  0  2  0  0  0  0  0  0
  195.1430  174.1670  145.6490 C   0  0  0  0  0  2  0  0  0  0  0  0
  194.9250  175.5520  146.2780 C   0  0  0  0  0  2  0  0  0  0  0  0
  194.5510  176.5490  145.2740 N   0  0  0  0  0  2  0  0  0  0  0  0
  195.2620  170.2520  146.4780 N   0  0  0  0  0  2  0  0  0  0  0  0
  196.2010  169.2690  146.9050 C   0  0  0  0  0  0  0  0  0  0  0  0
  197.3660  169.2490  146.4300 O   0  0  0  0  0  0  0  0  0  0  0  0
  195.7980  168.2580  147.9150 C   0  0  0  0  0  1  0  0  0  0  0  0
  190.8500  175.2010  142.4090 C   0  0  0  0  0  3  0  0  0  0  0  0
  191.5550  174.4700  141.5940 N   0  0  0  0  0  0  0  0  0  0  0  0
  186.9570  176.8900  141.0750 C   0  0  0  0  0  3  0  0  0  0  0  0
  186.8990  177.2610  143.4830 C   0  0  0  0  0  3  0  0  0  0  0  0
  186.4020  177.5330  142.1970 C   0  0  0  0  0  3  0  0  0  0  0  0
  187.9570  176.3560  143.6070 C   0  0  0  0  0  0  0  0  0  0  0  0
  188.0060  175.9710  141.2380 C   0  0  0  0  0  3  0  0  0  0  0  0
  189.5270  174.7960  142.9740 C   0  0  1  0  0  3  0  0  0  0  0  0
  189.5720  174.8650  144.3910 O   0  0  0  0  0  0  0  0  0  0  0  0
  188.6370  175.8560  144.8220 C   0  0  1  0  0  3  0  0  0  0  0  0
  188.4800  175.7340  142.5310 C   0  0  0  0  0  0  0  0  0  0  0  0
  189.7020  178.0150  144.7660 O   0  0  0  0  0  1  0  0  0  0  0  0
  189.3520  176.9680  145.6220 C   0  0  2  0  0  0  0  0  0  0  0  0
  190.6290  176.4190  146.2430 C   0  0  0  0  0  1  0  0  0  0  0  0
  187.2840  176.6090  147.0650 C   0  0  0  0  0  1  0  0  0  0  0  0
  188.4560  177.5260  146.7330 C   0  0  0  0  0  2  0  0  0  0  0  0
  188.2750  172.3960  138.8960 C   0  0  0  0  0  2  0  0  0  0  0  0
  188.5100  173.7680  138.3680 C   0  0  0  0  0  3  0  0  0  0  0  0
  187.7480  174.2430  137.4520 N   0  0  0  0  0  0  0  0  0  0  0  0
  186.7170  176.4030  137.0910 C   0  0  0  0  0  1  0  0  0  0  0  0
  187.9710  175.5610  136.9260 C   0  0  0  0  0  2  0  0  0  0  0  0
  1  2  2  0  0  0  0
  2  7  1  0  0  0  0
  2 29  1  0  0  0  0
  3  4  1  0  0  0  0
  4  6  1  6  0  0  0
  5 44  1  6  0  0  0
  5  1  1  0  0  0  0
  6  7  1  0  0  0  0
  7 13  1  1  0  0  0
  8  4  1  0  0  0  0
  8  5  1  0  0  0  0
  9  8  2  0  0  0  0
 10  9  1  0  0  0  0
 10  3  2  0  0  0  0
 11 16  1  0  0  0  0
 12 24  1  0  0  0  0
 13 11  1  0  0  0  0
 14 16  2  0  0  0  0
 14 12  1  0  0  0  0
 15 13  2  0  0  0  0
 17 15  1  6  0  0  0
 17 18  1  0  0  0  0
 17 14  1  0  0  0  0
 18 21  1  0  0  0  0
 19 23  1  0  0  0  0
 20 18  1  0  0  0  0
 20 19  1  0  0  0  0
 21 22  1  0  0  0  0
 23 22  1  0  0  0  0
 24 25  1  0  0  0  0
 25 27  1  0  0  0  0
 26 25  2  0  0  0  0
 29 28  2  0  0  0  0
 30 34  2  0  0  0  0
 30 32  1  0  0  0  0
 31 33  1  0  0  0  0
 32 31  2  0  0  0  0
 33 37  1  0  0  0  0
 34 38  1  0  0  0  0
 35 28  1  6  0  0  0
 35 36  1  0  0  0  0
 36 37  1  0  0  0  0
 37 40  1  6  0  0  0
 38 35  1  0  0  0  0
 38 33  2  0  0  0  0
 39 40  1  0  0  0  0
 40 41  1  1  0  0  0
 40 43  1  0  0  0  0
 43 42  1  0  0  0  0
 45 44  1  0  0  0  0
 46 45  2  0  0  0  0
 48 47  1  0  0  0  0
 48 46  1  0  0  0  0
M  END
>  <MODEL>
5

>  <REMARK>
 VINA RESULT:      -6.6      2.758      6.119
  Name = 
  10 active torsions:
  status: ('A' for Active; 'I' for Inactive)
    1  A    between atoms: N_1  and  N_9
    2  A    between atoms: C_3  and  C_43
    3  A    between atoms: N_7  and  C_47
    4  A    between atoms: N_16  and  C_25
    5  A    between atoms: C_18  and  C_34
    6  A    between atoms: C_18  and  C_38
    7  A    between atoms: C_20  and  N_42
    8  A    between atoms: C_23  and  C_32
    9  A    between atoms: C_27  and  C_31
   10  A    between atoms: C_29  and  C_43
                            x       y       z     vdW  Elec       q    Type
                         _______ _______ _______ _____ _____    ______ ____

>  <TORSDO>
F 10

$$$$
=
 OpenBabel11062418303D

 48 53  0  0  1  0  0  0  0  0999 V2000
  192.6690  174.2780  143.9320 N   0  0  0  0  0  0  0  0  0  0  0  0
  191.7980  175.1570  143.4980 C   0  0  0  0  0  0  0  0  0  0  0  0
  193.2820  177.2320  146.8610 N   0  0  0  0  0  0  0  0  0  0  0  0
  192.6190  176.1910  146.3320 C   0  0  0  0  0  0  0  0  0  0  0  0
  193.1540  173.9810  145.2840 C   0  0  2  0  0  3  0  0  0  0  0  0
  191.2180  176.1800  145.8550 C   0  0  0  0  0  2  0  0  0  0  0  0
  191.2150  176.3020  144.3340 C   0  0  2  0  0  3  0  0  0  0  0  0
  193.5130  175.2230  146.0280 C   0  0  0  0  0  0  0  0  0  0  0  0
  194.7350  175.6520  146.3940 N   0  0  0  0  0  0  0  0  0  0  0  0
  194.5580  176.8670  146.9050 N   0  0  0  0  0  2  0  0  0  0  0  0
  189.6310  177.9130  142.9940 C   0  0  0  0  0  2  0  0  0  0  0  0
  186.3250  176.8370  141.6290 N   0  0  0  0  0  2  0  0  0  0  0  0
  189.8480  176.6910  143.8550 C   0  0  0  0  0  0  0  0  0  0  0  0
  187.4260  177.0440  142.5120 C   0  0  0  0  0  0  0  0  0  0  0  0
  188.7790  176.0010  144.2780 C   0  0  0  0  0  3  0  0  0  0  0  0
  188.4750  177.7060  142.1140 N   0  0  0  0  0  0  0  0  0  0  0  0
  187.3770  176.4570  143.9090 C   0  0  1  0  0  3  0  0  0  0  0  0
  186.8830  177.4670  144.8610 N   0  0  0  0  0  0  0  0  0  0  0  0
  186.6380  178.0670  147.2540 C   0  0  0  0  0  2  0  0  0  0  0  0
  187.2030  177.0620  146.2380 C   0  0  0  0  0  2  0  0  0  0  0  0
  185.4180  177.5280  144.7570 C   0  0  0  0  0  2  0  0  0  0  0  0
  184.8370  178.5400  145.7560 C   0  0  0  0  0  2  0  0  0  0  0  0
  185.8790  179.1320  146.5950 N   0  0  0  0  0  2  0  0  0  0  0  0
  186.3190  177.3640  140.3320 N   0  0  0  0  0  2  0  0  0  0  0  0
  186.8940  176.6380  139.2490 C   0  0  0  0  0  0  0  0  0  0  0  0
  187.4380  175.5200  139.4460 O   0  0  0  0  0  0  0  0  0  0  0  0
  186.8540  177.2090  137.8790 C   0  0  0  0  0  1  0  0  0  0  0  0
  191.3150  174.2070  141.2830 C   0  0  0  0  0  3  0  0  0  0  0  0
  191.5180  175.2090  142.0900 N   0  0  0  0  0  0  0  0  0  0  0  0
  194.7080  171.3870  140.7180 C   0  0  0  0  0  3  0  0  0  0  0  0
  192.8560  170.2090  139.6580 C   0  0  0  0  0  3  0  0  0  0  0  0
  194.2360  170.3700  139.8660 C   0  0  0  0  0  3  0  0  0  0  0  0
  191.9820  171.0870  140.3020 C   0  0  0  0  0  0  0  0  0  0  0  0
  193.7990  172.2390  141.3650 C   0  0  0  0  0  3  0  0  0  0  0  0
  191.2890  172.7750  141.7070 C   0  0  1  0  0  3  0  0  0  0  0  0
  190.1130  172.1520  141.2110 O   0  0  0  0  0  0  0  0  0  0  0  0
  190.5020  171.1220  140.3000 C   0  0  1  0  0  3  0  0  0  0  0  0
  192.4350  172.0540  141.1250 C   0  0  0  0  0  0  0  0  0  0  0  0
  188.6520  171.9910  139.0260 O   0  0  0  0  0  1  0  0  0  0  0  0
  189.9000  171.3770  138.8990 C   0  0  2  0  0  0  0  0  0  0  0  0
  189.7050  170.0550  138.1710 C   0  0  0  0  0  1  0  0  0  0  0  0
  190.1970  173.6590  137.8060 C   0  0  0  0  0  1  0  0  0  0  0  0
  190.8040  172.2830  138.0560 C   0  0  0  0  0  2  0  0  0  0  0  0
  194.3170  173.0070  145.1980 C   0  0  0  0  0  2  0  0  0  0  0  0
  193.8190  171.6160  145.0140 C   0  0  0  0  0  3  0  0  0  0  0  0
  194.5790  170.7260  144.4900 N   0  0  0  0  0  0  0  0  0  0  0  0
  192.7210  169.4080  143.6730 C   0  0  0  0  0  1  0  0  0  0  0  0
  194.1070  169.3830  144.2960 C   0  0  0  0  0  2  0  0  0  0  0  0
  1  5  1  0  0  0  0
  2  1  2  0  0  0  0
  2  7  1  0  0  0  0
  3 10  1  0  0  0  0
  4  3  2  0  0  0  0
  5 44  1  6  0  0  0
  5  8  1  0  0  0  0
  6  4  1  0  0  0  0
  7 13  1  6  0  0  0
  7  6  1  0  0  0  0
  8  4  1  0  0  0  0
  8  9  2  0  0  0  0
  9 10  1  0  0  0  0
 11 13  1  0  0  0  0
 12 14  1  0  0  0  0
 13 15  2  0  0  0  0
 14 17  1  0  0  0  0
 16 14  2  0  0  0  0
 16 11  1  0  0  0  0
 17 15  1  1  0  0  0
 17 18  1  0  0  0  0
 18 20  1  0  0  0  0
 20 19  1  0  0  0  0
 21 18  1  0  0  0  0
 21 22  1  0  0  0  0
 22 23  1  0  0  0  0
 23 19  1  0  0  0  0
 24 12  1  0  0  0  0
 25 26  2  0  0  0  0
 25 24  1  0  0  0  0
 27 25  1  0  0  0  0
 28 29  2  0  0  0  0
 29  2  1  0  0  0  0
 30 34  1  0  0  0  0
 31 32  1  0  0  0  0
 31 33  2  0  0  0  0
 32 30  2  0  0  0  0
 33 38  1  0  0  0  0
 35 28  1  6  0  0  0
 36 35  1  0  0  0  0
 37 40  1  6  0  0  0
 37 33  1  0  0  0  0
 37 36  1  0  0  0  0
 38 34  2  0  0  0  0
 38 35  1  0  0  0  0
 40 41  1  6  0  0  0
 40 39  1  0  0  0  0
 42 43  1  0  0  0  0
 43 40  1  0  0  0  0
 45 44  1  0  0  0  0
 46 45  2  0  0  0  0
 47 48  1  0  0  0  0
 48 46  1  0  0  0  0
M  END
>  <MODEL>
6

>  <REMARK>
 VINA RESULT:      -6.6      2.113      7.343
  Name = 
  10 active torsions:
  status: ('A' for Active; 'I' for Inactive)
    1  A    between atoms: N_1  and  N_9
    2  A    between atoms: C_3  and  C_43
    3  A    between atoms: N_7  and  C_47
    4  A    between atoms: N_16  and  C_25
    5  A    between atoms: C_18  and  C_34
    6  A    between atoms: C_18  and  C_38
    7  A    between atoms: C_20  and  N_42
    8  A    between atoms: C_23  and  C_32
    9  A    between atoms: C_27  and  C_31
   10  A    between atoms: C_29  and  C_43
                            x       y       z     vdW  Elec       q    Type
                         _______ _______ _______ _____ _____    ______ ____

>  <TORSDO>
F 10

$$$$
=
 OpenBabel11062418303D

 48 53  0  0  1  0  0  0  0  0999 V2000
  193.0760  173.1390  143.5180 N   0  0  0  0  0  0  0  0  0  0  0  0
  192.6880  173.0680  142.2670 C   0  0  0  0  0  0  0  0  0  0  0  0
  196.0020  170.4570  142.1270 N   0  0  0  0  0  0  0  0  0  0  0  0
  195.4930  171.6880  142.3020 C   0  0  0  0  0  0  0  0  0  0  0  0
  194.4040  173.0090  144.1280 C   0  0  2  0  0  3  0  0  0  0  0  0
  195.0760  172.6360  141.2440 C   0  0  0  0  0  2  0  0  0  0  0  0
  193.5580  172.5800  141.1040 C   0  0  2  0  0  3  0  0  0  0  0  0
  195.1430  171.8250  143.6000 C   0  0  0  0  0  0  0  0  0  0  0  0
  195.4600  170.6860  144.2430 N   0  0  0  0  0  0  0  0  0  0  0  0
  195.9880  169.8830  143.3240 N   0  0  0  0  0  2  0  0  0  0  0  0
  193.3240  174.6830  139.5470 C   0  0  0  0  0  2  0  0  0  0  0  0
  193.1460  174.4410  135.8230 N   0  0  0  0  0  2  0  0  0  0  0  0
  193.1410  173.2060  139.8060 C   0  0  0  0  0  0  0  0  0  0  0  0
  192.9100  174.2090  137.2110 C   0  0  0  0  0  0  0  0  0  0  0  0
  192.4990  172.4640  138.8920 C   0  0  0  0  0  3  0  0  0  0  0  0
  193.5300  174.9160  138.1120 N   0  0  0  0  0  0  0  0  0  0  0  0
  191.9540  173.1080  137.6280 C   0  0  1  0  0  3  0  0  0  0  0  0
  190.6110  173.6690  137.8580 N   0  0  0  0  0  0  0  0  0  0  0  0
  188.3380  173.2210  138.7380 C   0  0  0  0  0  2  0  0  0  0  0  0
  189.7640  172.6840  138.5460 C   0  0  0  0  0  2  0  0  0  0  0  0
  189.9900  173.9380  136.5540 C   0  0  0  0  0  2  0  0  0  0  0  0
  188.5660  174.4920  136.7270 C   0  0  0  0  0  2  0  0  0  0  0  0
  188.1740  174.5450  138.1350 N   0  0  0  0  0  2  0  0  0  0  0  0
  194.0130  175.4490  135.3880 N   0  0  0  0  0  2  0  0  0  0  0  0
  193.5320  176.7700  135.1510 C   0  0  0  0  0  0  0  0  0  0  0  0
  192.3130  177.0430  135.3070 O   0  0  0  0  0  0  0  0  0  0  0  0
  194.4760  177.8280  134.7130 C   0  0  0  0  0  1  0  0  0  0  0  0
  190.4920  174.1600  142.4380 C   0  0  0  0  0  3  0  0  0  0  0  0
  191.2940  173.2460  141.9710 N   0  0  0  0  0  0  0  0  0  0  0  0
  189.3220  174.3770  146.7240 C   0  0  0  0  0  3  0  0  0  0  0  0
  188.6090  176.5450  145.8680 C   0  0  0  0  0  3  0  0  0  0  0  0
  188.5670  175.5560  146.8660 C   0  0  0  0  0  3  0  0  0  0  0  0
  189.4020  176.3150  144.7410 C   0  0  0  0  0  0  0  0  0  0  0  0
  190.1240  174.1880  145.5870 C   0  0  0  0  0  3  0  0  0  0  0  0
  190.9110  175.2560  143.3630 C   0  0  1  0  0  3  0  0  0  0  0  0
  190.6340  176.5150  142.7680 O   0  0  0  0  0  0  0  0  0  0  0  0
  189.6660  177.1890  143.5750 C   0  0  1  0  0  3  0  0  0  0  0  0
  190.1320  175.1900  144.6120 C   0  0  0  0  0  0  0  0  0  0  0  0
  188.7370  178.2770  141.6380 O   0  0  0  0  0  1  0  0  0  0  0  0
  188.3960  177.5070  142.7530 C   0  0  2  0  0  0  0  0  0  0  0  0
  187.4180  178.3080  143.6010 C   0  0  0  0  0  1  0  0  0  0  0  0
  186.3160  176.0410  142.8670 C   0  0  0  0  0  1  0  0  0  0  0  0
  187.7060  176.2280  142.2670 C   0  0  0  0  0  2  0  0  0  0  0  0
  194.2610  172.9690  145.6400 C   0  0  0  0  0  2  0  0  0  0  0  0
  193.7430  174.2690  146.1490 C   0  0  0  0  0  3  0  0  0  0  0  0
  194.4650  175.3260  146.0620 N   0  0  0  0  0  0  0  0  0  0  0  0
  192.5730  176.4190  147.1030 C   0  0  0  0  0  1  0  0  0  0  0  0
  193.9830  176.5840  146.5600 C   0  0  0  0  0  2  0  0  0  0  0  0
  1  5  1  0  0  0  0
  2  1  2  0  0  0  0
  3  4  2  0  0  0  0
  3 10  1  0  0  0  0
  4  8  1  0  0  0  0
  5 44  1  1  0  0  0
  6  4  1  0  0  0  0
  7 13  1  6  0  0  0
  7  6  1  0  0  0  0
  7  2  1  0  0  0  0
  8  5  1  0  0  0  0
  8  9  2  0  0  0  0
 10  9  1  0  0  0  0
 11 13  1  0  0  0  0
 12 14  1  0  0  0  0
 14 17  1  0  0  0  0
 14 16  2  0  0  0  0
 15 13  2  0  0  0  0
 16 11  1  0  0  0  0
 17 18  1  1  0  0  0
 17 15  1  0  0  0  0
 18 20  1  0  0  0  0
 20 19  1  0  0  0  0
 21 22  1  0  0  0  0
 21 18  1  0  0  0  0
 22 23  1  0  0  0  0
 23 19  1  0  0  0  0
 24 12  1  0  0  0  0
 25 26  2  0  0  0  0
 25 24  1  0  0  0  0
 27 25  1  0  0  0  0
 29  2  1  0  0  0  0
 29 28  2  0  0  0  0
 30 32  1  0  0  0  0
 31 32  2  0  0  0  0
 33 31  1  0  0  0  0
 34 30  2  0  0  0  0
 35 28  1  6  0  0  0
 35 38  1  0  0  0  0
 36 35  1  0  0  0  0
 36 37  1  0  0  0  0
 37 40  1  6  0  0  0
 37 33  1  0  0  0  0
 38 33  2  0  0  0  0
 38 34  1  0  0  0  0
 39 40  1  0  0  0  0
 40 41  1  1  0  0  0
 43 40  1  0  0  0  0
 43 42  1  0  0  0  0
 44 45  1  0  0  0  0
 46 45  2  0  0  0  0
 46 48  1  0  0  0  0
 48 47  1  0  0  0  0
M  END
>  <MODEL>
7

>  <REMARK>
 VINA RESULT:      -6.5      3.335      9.168
  Name = 
  10 active torsions:
  status: ('A' for Active; 'I' for Inactive)
    1  A    between atoms: N_1  and  N_9
    2  A    between atoms: C_3  and  C_43
    3  A    between atoms: N_7  and  C_47
    4  A    between atoms: N_16  and  C_25
    5  A    between atoms: C_18  and  C_34
    6  A    between atoms: C_18  and  C_38
    7  A    between atoms: C_20  and  N_42
    8  A    between atoms: C_23  and  C_32
    9  A    between atoms: C_27  and  C_31
   10  A    between atoms: C_29  and  C_43
                            x       y       z     vdW  Elec       q    Type
                         _______ _______ _______ _____ _____    ______ ____

>  <TORSDO>
F 10

$$$$
=
 OpenBabel11062418303D

 48 53  0  0  1  0  0  0  0  0999 V2000
  192.8270  174.2170  139.9730 N   0  0  0  0  0  0  0  0  0  0  0  0
  192.2560  174.3260  141.1490 C   0  0  0  0  0  0  0  0  0  0  0  0
  189.7040  171.4630  139.3850 N   0  0  0  0  0  0  0  0  0  0  0  0
  190.2120  172.7060  139.4250 C   0  0  1  0  0  3  0  0  0  0  0  0
  192.2730  173.8990  138.6530 C   0  0  2  0  0  3  0  0  0  0  0  0
  189.8070  173.8030  140.3320 C   0  0  0  0  0  2  0  0  0  0  0  0
  190.8190  173.8990  141.4700 C   0  0  2  0  0  3  0  0  0  0  0  0
  191.3560  172.7230  138.7050 C   0  0  0  0  0  0  0  0  0  0  0  0
  191.5470  171.4930  138.1930 N   0  0  0  0  0  0  0  0  0  0  0  0
  190.5230  170.7580  138.6140 N   0  0  0  0  0  0  0  0  0  0  0  0
  190.0140  176.1920  142.4660 C   0  0  0  0  0  2  0  0  0  0  0  0
  187.5330  176.4370  145.2480 N   0  0  0  0  0  0  0  0  0  0  0  0
  190.2460  174.7060  142.5970 C   0  0  0  0  0  0  0  0  0  0  0  0
  188.6560  176.0420  144.4620 C   0  0  0  0  0  0  0  0  0  0  0  0
  190.0280  174.1200  143.7830 C   0  0  0  0  0  3  0  0  0  0  0  0
  188.8790  176.5960  143.3050 N   0  0  0  0  0  0  0  0  0  0  0  0
  189.5710  174.9460  144.9730 C   0  0  1  0  0  3  0  0  0  0  0  0
  190.7220  175.5400  145.6770 N   0  0  0  0  0  0  0  0  0  0  0  0
  193.0250  175.1530  146.5080 C   0  0  0  0  0  2  0  0  0  0  0  0
  191.8360  174.5820  145.7200 C   0  0  0  0  0  2  0  0  0  0  0  0
  190.3290  175.8100  147.0670 C   0  0  0  0  0  2  0  0  0  0  0  0
  191.5030  176.3970  147.8660 C   0  0  0  0  0  2  0  0  0  0  0  0
  192.7210  176.4740  147.0600 N   0  0  0  0  0  2  0  0  0  0  0  0
  186.6630  177.4480  144.8230 N   0  0  0  0  0  0  0  0  0  0  0  0
  185.6030  177.8960  145.6630 C   0  0  0  0  0  0  0  0  0  0  0  0
  185.4170  177.3710  146.7920 O   0  0  0  0  0  0  0  0  0  0  0  0
  184.7090  178.9860  145.1990 C   0  0  0  0  0  1  0  0  0  0  0  0
  194.0430  173.9600  142.7960 C   0  0  0  0  0  3  0  0  0  0  0  0
  193.0740  174.6610  142.2800 N   0  0  0  0  0  0  0  0  0  0  0  0
  192.3720  170.0080  143.9670 C   0  0  0  0  0  3  0  0  0  0  0  0
  194.7550  169.7230  144.3910 C   0  0  0  0  0  3  0  0  0  0  0  0
  193.4280  169.2970  144.5680 C   0  0  0  0  0  3  0  0  0  0  0  0
  194.9860  170.8670  143.6230 C   0  0  0  0  0  0  0  0  0  0  0  0
  192.6430  171.1430  143.1860 C   0  0  0  0  0  3  0  0  0  0  0  0
  194.5240  172.6560  142.2490 C   0  0  1  0  0  3  0  0  0  0  0  0
  195.9380  172.5840  142.3590 O   0  0  0  0  0  0  0  0  0  0  0  0
  196.2650  171.5080  143.2400 C   0  0  1  0  0  3  0  0  0  0  0  0
  193.9740  171.5410  143.0420 C   0  0  0  0  0  0  0  0  0  0  0  0
  197.9220  173.0590  144.0480 O   0  0  0  0  0  1  0  0  0  0  0  0
  197.0760  172.0230  144.4520 C   0  0  2  0  0  0  0  0  0  0  0  0
  197.9380  170.9000  145.0120 C   0  0  0  0  0  1  0  0  0  0  0  0
  196.4680  173.9890  145.9530 C   0  0  0  0  0  1  0  0  0  0  0  0
  196.1580  172.5490  145.5600 C   0  0  0  0  0  2  0  0  0  0  0  0
  193.4090  173.6980  137.6650 C   0  0  0  0  0  2  0  0  0  0  0  0
  194.6240  174.4340  138.1110 C   0  0  0  0  0  3  0  0  0  0  0  0
  195.7020  173.7930  138.3790 N   0  0  0  0  0  0  0  0  0  0  0  0
  196.5750  175.2530  140.1000 C   0  0  0  0  0  1  0  0  0  0  0  0
  196.8770  174.4900  138.8210 C   0  0  0  0  0  2  0  0  0  0  0  0
  1  2  2  0  0  0  0
  2  7  1  0  0  0  0
  2 29  1  0  0  0  0
  3  4  1  0  0  0  0
  4  6  1  1  0  0  0
  5 44  1  6  0  0  0
  5  8  1  0  0  0  0
  5  1  1  0  0  0  0
  6  7  1  0  0  0  0
  7 13  1  1  0  0  0
  8  4  1  0  0  0  0
  9 10  1  0  0  0  0
  9  8  2  0  0  0  0
 10  3  2  0  0  0  0
 11 13  1  0  0  0  0
 11 16  1  0  0  0  0
 13 15  2  0  0  0  0
 14 17  1  0  0  0  0
 14 12  1  0  0  0  0
 16 14  2  0  0  0  0
 17 15  1  6  0  0  0
 17 18  1  0  0  0  0
 18 20  1  0  0  0  0
 18 21  1  0  0  0  0
 19 23  1  0  0  0  0
 20 19  1  0  0  0  0
 21 22  1  0  0  0  0
 23 22  1  0  0  0  0
 24 12  2  0  0  0  0
 24 25  1  0  0  0  0
 25 26  2  0  0  0  0
 27 25  1  0  0  0  0
 29 28  2  0  0  0  0
 30 32  1  0  0  0  0
 31 32  2  0  0  0  0
 33 31  1  0  0  0  0
 34 30  2  0  0  0  0
 35 36  1  0  0  0  0
 35 28  1  1  0  0  0
 35 38  1  0  0  0  0
 36 37  1  0  0  0  0
 37 33  1  0  0  0  0
 37 40  1  1  0  0  0
 38 34  1  0  0  0  0
 38 33  2  0  0  0  0
 39 40  1  0  0  0  0
 40 41  1  1  0  0  0
 40 43  1  0  0  0  0
 43 42  1  0  0  0  0
 44 45  1  0  0  0  0
 45 46  2  0  0  0  0
 46 48  1  0  0  0  0
 48 47  1  0  0  0  0
M  END
>  <MODEL>
8

>  <REMARK>
 VINA RESULT:      -6.5      3.308      7.329
  Name = 
  10 active torsions:
  status: ('A' for Active; 'I' for Inactive)
    1  A    between atoms: N_1  and  N_9
    2  A    between atoms: C_3  and  C_43
    3  A    between atoms: N_7  and  C_47
    4  A    between atoms: N_16  and  C_25
    5  A    between atoms: C_18  and  C_34
    6  A    between atoms: C_18  and  C_38
    7  A    between atoms: C_20  and  N_42
    8  A    between atoms: C_23  and  C_32
    9  A    between atoms: C_27  and  C_31
   10  A    between atoms: C_29  and  C_43
                            x       y       z     vdW  Elec       q    Type
                         _______ _______ _______ _____ _____    ______ ____

>  <TORSDO>
F 10

$$$$
=
 OpenBabel11062418303D

 48 53  0  0  1  0  0  0  0  0999 V2000
  194.9010  173.3720  145.2920 N   0  0  0  0  0  0  0  0  0  0  0  0
  193.7620  173.7010  144.7310 C   0  0  0  0  0  0  0  0  0  0  0  0
  196.2140  176.7870  143.2190 N   0  0  0  0  0  0  0  0  0  0  0  0
  195.6200  176.1700  144.2540 C   0  0  1  0  0  3  0  0  0  0  0  0
  196.0370  174.1900  145.7290 C   0  0  2  0  0  3  0  0  0  0  0  0
  194.2060  176.2970  144.6710 C   0  0  0  0  0  2  0  0  0  0  0  0
  193.4310  175.0850  144.1610 C   0  0  2  0  0  3  0  0  0  0  0  0
  196.4360  175.1840  144.6890 C   0  0  0  0  0  0  0  0  0  0  0  0
  197.5540  175.2040  143.9400 N   0  0  0  0  0  0  0  0  0  0  0  0
  197.3920  176.1940  143.0670 N   0  0  0  0  0  0  0  0  0  0  0  0
  191.1580  175.1540  145.4750 C   0  0  0  0  0  2  0  0  0  0  0  0
  188.3120  177.3650  144.4930 N   0  0  0  0  0  2  0  0  0  0  0  0
  191.9580  175.3610  144.2110 C   0  0  0  0  0  0  0  0  0  0  0  0
  189.3890  176.4320  144.4310 C   0  0  0  0  0  0  0  0  0  0  0  0
  191.3120  175.7040  143.0870 C   0  0  0  0  0  3  0  0  0  0  0  0
  190.0310  176.0940  145.5130 N   0  0  0  0  0  0  0  0  0  0  0  0
  189.8020  175.8610  143.0880 C   0  0  1  0  0  3  0  0  0  0  0  0
  189.1350  174.5660  142.8670 N   0  0  0  0  0  0  0  0  0  0  0  0
  189.3620  172.2950  141.8990 C   0  0  0  0  0  2  0  0  0  0  0  0
  190.0550  173.6320  142.2010 C   0  0  0  0  0  2  0  0  0  0  0  0
  187.9990  174.7750  141.9600 C   0  0  0  0  0  2  0  0  0  0  0  0
  187.2830  173.4490  141.6590 C   0  0  0  0  0  2  0  0  0  0  0  0
  187.9530  172.3160  142.2970 N   0  0  0  0  0  2  0  0  0  0  0  0
  187.8900  177.9150  145.7090 N   0  0  0  0  0  2  0  0  0  0  0  0
  186.6150  177.5820  146.2530 C   0  0  0  0  0  0  0  0  0  0  0  0
  185.8390  176.8070  145.6360 O   0  0  0  0  0  0  0  0  0  0  0  0
  186.2000  178.1590  147.5560 C   0  0  0  0  0  1  0  0  0  0  0  0
  192.9040  171.7780  143.4630 C   0  0  0  0  0  3  0  0  0  0  0  0
  192.8250  172.6590  144.4190 N   0  0  0  0  0  0  0  0  0  0  0  0
  193.2420  174.0870  139.6760 C   0  0  0  0  0  3  0  0  0  0  0  0
  193.5090  171.7840  138.9200 C   0  0  0  0  0  3  0  0  0  0  0  0
  193.2540  173.1370  138.6360 C   0  0  0  0  0  3  0  0  0  0  0  0
  193.7310  171.4170  140.2500 C   0  0  0  0  0  0  0  0  0  0  0  0
  193.4890  173.6850  140.9980 C   0  0  0  0  0  3  0  0  0  0  0  0
  194.0540  171.6640  142.5160 C   0  0  1  0  0  3  0  0  0  0  0  0
  194.2930  170.2960  142.2180 O   0  0  0  0  0  0  0  0  0  0  0  0
  194.0620  170.0930  140.8230 C   0  0  1  0  0  3  0  0  0  0  0  0
  193.7280  172.3290  141.2420 C   0  0  0  0  0  0  0  0  0  0  0  0
  192.9030  168.1700  141.6950 O   0  0  0  0  0  1  0  0  0  0  0  0
  192.9530  169.0380  140.6020 C   0  0  2  0  0  0  0  0  0  0  0  0
  193.2630  168.2160  139.3590 C   0  0  0  0  0  1  0  0  0  0  0  0
  190.8180  169.1800  139.2200 C   0  0  0  0  0  1  0  0  0  0  0  0
  191.5780  169.6950  140.4380 C   0  0  0  0  0  2  0  0  0  0  0  0
  197.1890  173.2820  146.1250 C   0  0  0  0  0  2  0  0  0  0  0  0
  196.8790  171.8670  145.7800 C   0  0  0  0  0  3  0  0  0  0  0  0
  197.6140  171.2350  144.9410 N   0  0  0  0  0  0  0  0  0  0  0  0
  196.2110  169.3390  145.4800 C   0  0  0  0  0  1  0  0  0  0  0  0
  197.3190  169.8740  144.5900 C   0  0  0  0  0  2  0  0  0  0  0  0
  1  5  1  0  0  0  0
  2  1  2  0  0  0  0
  3  4  1  0  0  0  0
  4  6  1  6  0  0  0
  4  8  1  0  0  0  0
  5 44  1  6  0  0  0
  7 13  1  1  0  0  0
  7  6  1  0  0  0  0
  7  2  1  0  0  0  0
  8  5  1  0  0  0  0
  9  8  2  0  0  0  0
 10  3  2  0  0  0  0
 10  9  1  0  0  0  0
 11 16  1  0  0  0  0
 12 24  1  0  0  0  0
 13 11  1  0  0  0  0
 14 12  1  0  0  0  0
 14 16  2  0  0  0  0
 15 17  1  0  0  0  0
 15 13  2  0  0  0  0
 17 18  1  1  0  0  0
 17 14  1  0  0  0  0
 19 20  1  0  0  0  0
 19 23  1  0  0  0  0
 20 18  1  0  0  0  0
 21 18  1  0  0  0  0
 22 21  1  0  0  0  0
 22 23  1  0  0  0  0
 24 25  1  0  0  0  0
 25 27  1  0  0  0  0
 26 25  2  0  0  0  0
 28 29  2  0  0  0  0
 29  2  1  0  0  0  0
 30 34  1  0  0  0  0
 31 33  2  0  0  0  0
 32 31  1  0  0  0  0
 32 30  2  0  0  0  0
 33 37  1  0  0  0  0
 33 38  1  0  0  0  0
 34 38  2  0  0  0  0
 35 28  1  1  0  0  0
 36 35  1  0  0  0  0
 37 40  1  1  0  0  0
 37 36  1  0  0  0  0
 38 35  1  0  0  0  0
 40 41  1  6  0  0  0
 40 39  1  0  0  0  0
 42 43  1  0  0  0  0
 43 40  1  0  0  0  0
 45 44  1  0  0  0  0
 46 45  2  0  0  0  0
 48 46  1  0  0  0  0
 48 47  1  0  0  0  0
M  END
>  <MODEL>
9

>  <REMARK>
 VINA RESULT:      -6.4      2.828      7.804
  Name = 
  10 active torsions:
  status: ('A' for Active; 'I' for Inactive)
    1  A    between atoms: N_1  and  N_9
    2  A    between atoms: C_3  and  C_43
    3  A    between atoms: N_7  and  C_47
    4  A    between atoms: N_16  and  C_25
    5  A    between atoms: C_18  and  C_34
    6  A    between atoms: C_18  and  C_38
    7  A    between atoms: C_20  and  N_42
    8  A    between atoms: C_23  and  C_32
    9  A    between atoms: C_27  and  C_31
   10  A    between atoms: C_29  and  C_43
                            x       y       z     vdW  Elec       q    Type
                         _______ _______ _______ _____ _____    ______ ____

>  <TORSDO>
F 10

$$$$
