=
 OpenBabel11062418593D

 51 54  0  0  1  0  0  0  0  0999 V2000
  197.0020  173.5880  142.4060 C   0  0  1  0  0  3  0  0  0  0  0  0
  193.7880  174.1220  137.8870 C   0  0  0  0  0  3  0  0  0  0  0  0
  195.9010  175.0180  140.9400 C   0  0  2  0  0  3  0  0  0  0  0  0
  193.9270  174.3790  144.5990 C   0  0  0  0  0  2  0  0  0  0  0  0
  189.0430  174.6230  142.1190 C   0  0  2  0  0  3  0  0  0  0  0  0
  193.2230  174.1670  140.2340 C   0  0  0  0  0  3  0  0  0  0  0  0
  196.7340  176.2220  141.4010 C   0  0  0  0  0  2  0  0  0  0  0  0
  193.0540  175.4720  144.7120 O   0  0  0  0  0  0  0  0  0  0  0  0
  188.6120  172.5230  140.0300 C   0  0  0  0  0  0  0  0  0  0  0  0
  196.7700  176.4560  142.9060 C   0  0  0  0  0  0  0  0  0  0  0  0
  194.1380  174.4610  139.2040 C   0  0  0  0  0  0  0  0  0  0  0  0
  192.5880  173.4580  137.6110 C   0  0  0  0  0  3  0  0  0  0  0  0
  187.8860  173.2170  139.2700 O   0  0  0  0  0  0  0  0  0  0  0  0
  189.7900  171.9050  139.5280 N   0  0  0  0  0  2  0  0  0  0  0  0
  188.2410  172.3300  141.4650 C   0  0  0  0  0  2  0  0  0  0  0  0
  194.9910  174.6520  143.5540 C   0  0  1  0  0  3  0  0  0  0  0  0
  197.6550  177.1790  143.3290 O   0  0  0  0  0  0  0  0  0  0  0  0
  191.7130  173.1370  138.6420 C   0  0  0  0  0  0  0  0  0  0  0  0
  196.5490  173.7640  141.0760 O   0  0  0  0  0  0  0  0  0  0  0  0
  187.8670  173.6520  142.1270 C   0  0  0  0  0  2  0  0  0  0  0  0
  191.0620  174.9600  143.4840 C   0  0  0  0  0  3  0  0  0  0  0  0
  195.7780  175.9190  143.9240 C   0  0  0  0  0  2  0  0  0  0  0  0
  189.8090  174.5240  143.4010 C   0  0  0  0  0  3  0  0  0  0  0  0
  192.0270  173.5100  139.9580 C   0  0  0  0  0  3  0  0  0  0  0  0
  195.4130  175.2220  139.5010 C   0  0  2  0  0  3  0  0  0  0  0  0
  190.4460  172.3820  138.3140 C   0  0  0  0  0  2  0  0  0  0  0  0
  195.8790  173.4060  143.4200 C   0  0  0  0  0  2  0  0  0  0  0  0
  197.9410  172.4080  142.4650 C   0  0  0  0  0  1  0  0  0  0  0  0
  191.8020  174.9440  144.7160 N   0  0  0  0  0  0  0  0  0  0  0  0
  187.0810  177.5690  140.6980 C   0  0  0  0  0  0  0  0  0  0  0  0
  187.7300  178.6390  141.3290 C   0  0  0  0  0  3  0  0  0  0  0  0
  188.5510  176.0200  141.8570 C   0  0  0  0  0  0  0  0  0  0  0  0
  187.4980  176.2620  140.9570 C   0  0  0  0  0  3  0  0  0  0  0  0
  189.1960  177.0950  142.4760 C   0  0  0  0  0  3  0  0  0  0  0  0
  188.7870  178.4000  142.2130 C   0  0  0  0  0  3  0  0  0  0  0  0
  186.0170  177.7760  139.8190 O   0  0  0  0  0  0  0  0  0  0  0  0
  184.7120  177.8170  140.2720 N   0  0  0  0  0  1  0  0  0  0  0  0
  196.5170  174.9640  138.5020 C   0  0  0  0  0  0  0  0  0  0  0  0
  196.6100  175.7310  137.3440 O   0  0  0  0  0  0  0  0  0  0  0  0
  197.3250  174.0160  138.6930 O   0  0  0  0  0  1  0  0  0  0  0  0
  191.1640  174.6830  146.0030 C   0  0  0  0  0  2  0  0  0  0  0  0
  190.7570  175.9890  146.6850 C   0  0  1  0  0  3  0  0  0  0  0  0
  191.7980  176.4410  147.6960 C   0  0  0  0  0  1  0  0  0  0  0  0
  190.3760  177.0090  145.7840 O   0  0  0  0  0  0  0  0  0  0  0  0
  189.1410  177.5550  146.1970 C   0  0  0  0  0  2  0  0  0  0  0  0
  188.2270  176.4850  146.5340 N   0  0  0  0  0  2  0  0  0  0  0  0
  187.0690  176.6110  145.6630 C   0  0  0  0  0  2  0  0  0  0  0  0
  185.9220  178.4390  144.5560 C   0  0  0  0  0  0  0  0  0  0  0  0
  186.7670  178.0170  145.4450 N   0  0  0  0  0  0  0  0  0  0  0  0
  185.1890  177.5230  143.7470 N   0  0  0  0  0  1  0  0  0  0  0  0
  185.6640  179.8280  144.4420 N   0  0  0  0  0  1  0  0  0  0  0  0
  1 28  1  6  0  0  0
  1 27  1  0  0  0  0
  2 11  1  0  0  0  0
  3 19  1  0  0  0  0
  3  7  1  6  0  0  0
  4  8  1  0  0  0  0
  5 32  1  1  0  0  0
  5 20  1  0  0  0  0
  5 23  1  0  0  0  0
  7 10  1  0  0  0  0
  8 29  1  0  0  0  0
  9 15  1  0  0  0  0
 10 17  2  0  0  0  0
 10 22  1  0  0  0  0
 11 25  1  0  0  0  0
 11  6  2  0  0  0  0
 12  2  2  0  0  0  0
 12 18  1  0  0  0  0
 13  9  2  0  0  0  0
 14  9  1  0  0  0  0
 15 20  1  0  0  0  0
 16 27  1  1  0  0  0
 16 22  1  0  0  0  0
 16  4  1  0  0  0  0
 18 24  2  0  0  0  0
 19  1  1  0  0  0  0
 21 29  1  0  0  0  0
 23 21  2  0  0  0  0
 24  6  1  0  0  0  0
 25 38  1  6  0  0  0
 25  3  1  0  0  0  0
 26 18  1  0  0  0  0
 26 14  1  0  0  0  0
 29 41  1  0  0  0  0
 30 33  2  0  0  0  0
 30 31  1  0  0  0  0
 31 35  2  0  0  0  0
 32 34  2  0  0  0  0
 33 32  1  0  0  0  0
 35 34  1  0  0  0  0
 36 37  1  0  0  0  0
 36 30  1  0  0  0  0
 38 40  1  0  0  0  0
 39 38  2  0  0  0  0
 41 42  1  0  0  0  0
 42 43  1  6  0  0  0
 44 45  1  0  0  0  0
 44 42  1  0  0  0  0
 45 46  1  0  0  0  0
 47 46  1  0  0  0  0
 48 49  2  0  0  0  0
 49 47  1  0  0  0  0
 50 48  1  0  0  0  0
 51 48  1  0  0  0  0
M  END
>  <MODEL>
1

>  <REMARK>
 VINA RESULT:      -7.5      0.000      0.000
  Name = 
  10 active torsions:
  status: ('A' for Active; 'I' for Inactive)
    1  A    between atoms: C_5  and  O_11
    2  A    between atoms: C_7  and  C_33
    3  A    between atoms: C_10  and  N_23
    4  A    between atoms: C_10  and  O_25
    5  A    between atoms: C_13  and  C_44
    6  A    between atoms: C_14  and  N_15
    7  A    between atoms: C_14  and  N_23
    8  A    between atoms: C_20  and  C_34
    9  A    between atoms: C_20  and  N_51
   10  A    between atoms: O_25  and  C_34
                            x       y       z     vdW  Elec       q    Type
                         _______ _______ _______ _____ _____    ______ ____

>  <TORSDO>
F 10

$$$$
=
 OpenBabel11062418593D

 51 54  0  0  1  0  0  0  0  0999 V2000
  188.1700  174.9150  140.0590 C   0  0  1  0  0  3  0  0  0  0  0  0
  192.9400  172.6780  138.2480 C   0  0  0  0  0  3  0  0  0  0  0  0
  189.6420  173.1170  140.1240 C   0  0  2  0  0  3  0  0  0  0  0  0
  189.9090  175.7350  143.4060 C   0  0  0  0  0  2  0  0  0  0  0  0
  195.3310  174.9780  143.6940 C   0  0  2  0  0  3  0  0  0  0  0  0
  192.4350  173.8700  140.2860 C   0  0  0  0  0  3  0  0  0  0  0  0
  188.5750  172.1930  140.7260 C   0  0  0  0  0  2  0  0  0  0  0  0
  190.5330  174.9700  144.4040 O   0  0  0  0  0  0  0  0  0  0  0  0
  196.8280  175.8170  141.2420 C   0  0  0  0  0  0  0  0  0  0  0  0
  187.8720  172.7250  141.9690 C   0  0  0  0  0  0  0  0  0  0  0  0
  192.0260  172.9860  139.2690 C   0  0  0  0  0  0  0  0  0  0  0  0
  194.2020  173.2790  138.2100 C   0  0  0  0  0  3  0  0  0  0  0  0
  197.7350  174.9470  141.3160 O   0  0  0  0  0  0  0  0  0  0  0  0
  196.0490  175.9410  140.0590 N   0  0  0  0  0  2  0  0  0  0  0  0
  196.5650  176.7390  142.3890 C   0  0  0  0  0  2  0  0  0  0  0  0
  189.3740  174.8400  142.3040 C   0  0  1  0  0  3  0  0  0  0  0  0
  186.8230  172.1900  142.2810 O   0  0  0  0  0  0  0  0  0  0  0  0
  194.5780  174.1820  139.1970 C   0  0  0  0  0  0  0  0  0  0  0  0
  189.1290  174.1730  139.3290 O   0  0  0  0  0  0  0  0  0  0  0  0
  196.4820  175.9780  143.7080 C   0  0  0  0  0  2  0  0  0  0  0  0
  192.8990  175.0800  144.0520 C   0  0  0  0  0  3  0  0  0  0  0  0
  188.3800  173.8230  142.8890 C   0  0  0  0  0  2  0  0  0  0  0  0
  194.1040  175.5870  144.2960 C   0  0  0  0  0  3  0  0  0  0  0  0
  193.6940  174.4640  140.2500 C   0  0  0  0  0  3  0  0  0  0  0  0
  190.6770  172.3020  139.3400 C   0  0  2  0  0  3  0  0  0  0  0  0
  195.9320  174.8440  139.1020 C   0  0  0  0  0  2  0  0  0  0  0  0
  188.7610  175.7240  141.2080 C   0  0  0  0  0  2  0  0  0  0  0  0
  187.4220  175.8300  139.1220 C   0  0  0  0  0  1  0  0  0  0  0  0
  191.7090  175.5970  144.6680 N   0  0  0  0  0  0  0  0  0  0  0  0
  195.6610  171.3000  144.6500 C   0  0  0  0  0  0  0  0  0  0  0  0
  196.4570  171.4020  145.7980 C   0  0  0  0  0  3  0  0  0  0  0  0
  195.7440  173.7150  144.4000 C   0  0  0  0  0  0  0  0  0  0  0  0
  195.2980  172.4570  143.9570 C   0  0  0  0  0  3  0  0  0  0  0  0
  196.5310  173.8070  145.5520 C   0  0  0  0  0  3  0  0  0  0  0  0
  196.8870  172.6540  146.2490 C   0  0  0  0  0  3  0  0  0  0  0  0
  195.2250  170.0640  144.1720 O   0  0  0  0  0  0  0  0  0  0  0  0
  194.0710  169.4760  144.6560 N   0  0  0  0  0  1  0  0  0  0  0  0
  190.1400  171.8810  137.9910 C   0  0  0  0  0  0  0  0  0  0  0  0
  189.7080  170.5740  137.7830 O   0  0  0  0  0  1  0  0  0  0  0  0
  190.1350  172.7020  137.0360 O   0  0  0  0  0  0  0  0  0  0  0  0
  191.7550  176.5420  145.7800 C   0  0  0  0  0  2  0  0  0  0  0  0
  190.6910  176.2070  146.8240 C   0  0  1  0  0  3  0  0  0  0  0  0
  191.2740  175.4210  147.9870 C   0  0  0  0  0  1  0  0  0  0  0  0
  189.9230  177.3210  147.2340 O   0  0  0  0  0  0  0  0  0  0  0  0
  188.7420  177.3790  146.4620 C   0  0  0  0  0  2  0  0  0  0  0  0
  187.8380  176.3290  146.8830 N   0  0  0  0  0  2  0  0  0  0  0  0
  186.4830  176.7970  146.6340 C   0  0  0  0  0  2  0  0  0  0  0  0
  185.5050  178.6970  145.4860 C   0  0  0  0  0  0  0  0  0  0  0  0
  186.5080  177.8980  145.6830 N   0  0  0  0  0  0  0  0  0  0  0  0
  184.3040  178.5670  146.2390 N   0  0  0  0  0  1  0  0  0  0  0  0
  185.6370  179.7660  144.5650 N   0  0  0  0  0  1  0  0  0  0  0  0
  1 28  1  6  0  0  0
  1 27  1  0  0  0  0
  2 11  1  0  0  0  0
  3  7  1  6  0  0  0
  4  8  1  0  0  0  0
  5 20  1  0  0  0  0
  5 23  1  0  0  0  0
  5 32  1  1  0  0  0
  7 10  1  0  0  0  0
  8 29  1  0  0  0  0
  9 13  2  0  0  0  0
  9 15  1  0  0  0  0
 10 17  2  0  0  0  0
 10 22  1  0  0  0  0
 11 25  1  0  0  0  0
 11  6  2  0  0  0  0
 12  2  2  0  0  0  0
 12 18  1  0  0  0  0
 14  9  1  0  0  0  0
 15 20  1  0  0  0  0
 16 27  1  6  0  0  0
 16 22  1  0  0  0  0
 16  4  1  0  0  0  0
 18 24  2  0  0  0  0
 19  1  1  0  0  0  0
 19  3  1  0  0  0  0
 21 23  2  0  0  0  0
 21 29  1  0  0  0  0
 24  6  1  0  0  0  0
 25 38  1  6  0  0  0
 25  3  1  0  0  0  0
 26 18  1  0  0  0  0
 26 14  1  0  0  0  0
 29 41  1  0  0  0  0
 30 31  1  0  0  0  0
 31 35  2  0  0  0  0
 32 34  2  0  0  0  0
 33 32  1  0  0  0  0
 33 30  2  0  0  0  0
 34 35  1  0  0  0  0
 36 30  1  0  0  0  0
 36 37  1  0  0  0  0
 39 38  1  0  0  0  0
 40 38  2  0  0  0  0
 41 42  1  0  0  0  0
 42 44  1  0  0  0  0
 42 43  1  1  0  0  0
 45 46  1  0  0  0  0
 45 44  1  0  0  0  0
 47 46  1  0  0  0  0
 48 49  2  0  0  0  0
 48 50  1  0  0  0  0
 49 47  1  0  0  0  0
 51 48  1  0  0  0  0
M  END
>  <MODEL>
2

>  <REMARK>
 VINA RESULT:      -7.2      2.071      7.068
  Name = 
  10 active torsions:
  status: ('A' for Active; 'I' for Inactive)
    1  A    between atoms: C_5  and  O_11
    2  A    between atoms: C_7  and  C_33
    3  A    between atoms: C_10  and  N_23
    4  A    between atoms: C_10  and  O_25
    5  A    between atoms: C_13  and  C_44
    6  A    between atoms: C_14  and  N_15
    7  A    between atoms: C_14  and  N_23
    8  A    between atoms: C_20  and  C_34
    9  A    between atoms: C_20  and  N_51
   10  A    between atoms: O_25  and  C_34
                            x       y       z     vdW  Elec       q    Type
                         _______ _______ _______ _____ _____    ______ ____

>  <TORSDO>
F 10

$$$$
=
 OpenBabel11062418593D

 51 54  0  0  1  0  0  0  0  0999 V2000
  190.3300  175.1330  145.6820 C   0  0  1  0  0  3  0  0  0  0  0  0
  195.8700  174.5860  145.8900 C   0  0  0  0  0  3  0  0  0  0  0  0
  192.3910  175.6860  144.7600 C   0  0  2  0  0  3  0  0  0  0  0  0
  190.2740  172.7010  142.6860 C   0  0  0  0  0  2  0  0  0  0  0  0
  194.9460  170.1200  141.4330 C   0  0  2  0  0  3  0  0  0  0  0  0
  194.2270  173.4570  144.5280 C   0  0  0  0  0  3  0  0  0  0  0  0
  191.7950  176.8800  144.0010 C   0  0  0  0  0  2  0  0  0  0  0  0
  190.8420  172.7070  141.4030 O   0  0  0  0  0  0  0  0  0  0  0  0
  196.5160  169.1850  143.8030 C   0  0  0  0  0  0  0  0  0  0  0  0
  190.5700  176.5690  143.1490 C   0  0  0  0  0  0  0  0  0  0  0  0
  194.6550  174.6260  145.1860 C   0  0  0  0  0  0  0  0  0  0  0  0
  196.6060  173.4000  145.9850 C   0  0  0  0  0  3  0  0  0  0  0  0
  197.6570  169.3310  143.2920 O   0  0  0  0  0  0  0  0  0  0  0  0
  196.1970  169.8150  145.0380 N   0  0  0  0  0  2  0  0  0  0  0  0
  195.4840  168.3410  143.1280 C   0  0  0  0  0  2  0  0  0  0  0  0
  190.6330  173.9700  143.4350 C   0  0  1  0  0  3  0  0  0  0  0  0
  189.8880  177.5170  142.8000 O   0  0  0  0  0  0  0  0  0  0  0  0
  196.1500  172.2420  145.3650 C   0  0  0  0  0  0  0  0  0  0  0  0
  191.7040  175.3390  145.9510 O   0  0  0  0  0  0  0  0  0  0  0  0
  195.3770  168.6720  141.6430 C   0  0  0  0  0  2  0  0  0  0  0  0
  192.8140  171.3480  141.4590 C   0  0  0  0  0  3  0  0  0  0  0  0
  190.1470  175.1990  142.6480 C   0  0  0  0  0  2  0  0  0  0  0  0
  193.4610  170.2020  141.2670 C   0  0  0  0  0  3  0  0  0  0  0  0
  194.9630  172.2780  144.6190 C   0  0  0  0  0  3  0  0  0  0  0  0
  193.8800  175.9190  145.0420 C   0  0  2  0  0  3  0  0  0  0  0  0
  196.9490  170.9700  145.5230 C   0  0  0  0  0  2  0  0  0  0  0  0
  190.0450  173.8880  144.8510 C   0  0  0  0  0  2  0  0  0  0  0  0
  189.5670  175.0670  146.9820 C   0  0  0  0  0  1  0  0  0  0  0  0
  191.4000  171.4780  141.2410 N   0  0  0  0  0  0  0  0  0  0  0  0
  197.1280  172.4050  139.2960 C   0  0  0  0  0  0  0  0  0  0  0  0
  196.9560  171.8190  138.0350 C   0  0  0  0  0  3  0  0  0  0  0  0
  195.6820  170.7070  140.2590 C   0  0  0  0  0  0  0  0  0  0  0  0
  196.4830  171.8530  140.4050 C   0  0  0  0  0  3  0  0  0  0  0  0
  195.5110  170.1340  138.9950 C   0  0  0  0  0  3  0  0  0  0  0  0
  196.1470  170.6890  137.8860 C   0  0  0  0  0  3  0  0  0  0  0  0
  197.9370  173.5280  139.4760 O   0  0  0  0  0  0  0  0  0  0  0  0
  197.6220  174.4930  140.4130 N   0  0  0  0  0  1  0  0  0  0  0  0
  194.0800  176.8760  146.1940 C   0  0  0  0  0  0  0  0  0  0  0  0
  194.9300  177.9700  146.0580 O   0  0  0  0  0  0  0  0  0  0  0  0
  193.5190  176.6510  147.2990 O   0  0  0  0  0  1  0  0  0  0  0  0
  190.6180  170.4470  140.5660 C   0  0  0  0  0  2  0  0  0  0  0  0
  190.5310  170.7240  139.0650 C   0  0  1  0  0  3  0  0  0  0  0  0
  190.6380  169.4450  138.2520 C   0  0  0  0  0  1  0  0  0  0  0  0
  189.4300  171.5290  138.6970 O   0  0  0  0  0  0  0  0  0  0  0  0
  189.8670  172.5360  137.8090 C   0  0  0  0  0  2  0  0  0  0  0  0
  189.7180  173.8320  138.4360 N   0  0  0  0  0  2  0  0  0  0  0  0
  188.2920  174.1000  138.5490 C   0  0  0  0  0  2  0  0  0  0  0  0
  187.0480  175.7580  137.2900 C   0  0  0  0  0  0  0  0  0  0  0  0
  187.8060  174.7060  137.3190 N   0  0  0  0  0  0  0  0  0  0  0  0
  186.6710  176.4250  138.4910 N   0  0  0  0  0  1  0  0  0  0  0  0
  186.6540  176.3000  136.0410 N   0  0  0  0  0  1  0  0  0  0  0  0
  1 19  1  0  0  0  0
  1 28  1  1  0  0  0
  2 12  1  0  0  0  0
  3  7  1  1  0  0  0
  3 25  1  0  0  0  0
  3 19  1  0  0  0  0
  4 16  1  0  0  0  0
  5 32  1  6  0  0  0
  5 20  1  0  0  0  0
  6 24  2  0  0  0  0
  6 11  1  0  0  0  0
  8  4  1  0  0  0  0
  9 14  1  0  0  0  0
 10  7  1  0  0  0  0
 11  2  2  0  0  0  0
 13  9  2  0  0  0  0
 14 26  1  0  0  0  0
 15  9  1  0  0  0  0
 16 22  1  6  0  0  0
 16 27  1  0  0  0  0
 17 10  2  0  0  0  0
 18 26  1  0  0  0  0
 18 12  2  0  0  0  0
 20 15  1  0  0  0  0
 22 10  1  0  0  0  0
 23  5  1  0  0  0  0
 23 21  2  0  0  0  0
 24 18  1  0  0  0  0
 25 11  1  0  0  0  0
 25 38  1  1  0  0  0
 27  1  1  0  0  0  0
 29  8  1  0  0  0  0
 29 21  1  0  0  0  0
 30 36  1  0  0  0  0
 30 33  1  0  0  0  0
 31 30  2  0  0  0  0
 32 33  2  0  0  0  0
 34 32  1  0  0  0  0
 35 31  1  0  0  0  0
 35 34  2  0  0  0  0
 36 37  1  0  0  0  0
 38 40  1  0  0  0  0
 39 38  2  0  0  0  0
 41 29  1  0  0  0  0
 42 43  1  6  0  0  0
 42 41  1  0  0  0  0
 44 42  1  0  0  0  0
 45 46  1  0  0  0  0
 45 44  1  0  0  0  0
 46 47  1  0  0  0  0
 48 49  2  0  0  0  0
 48 50  1  0  0  0  0
 49 47  1  0  0  0  0
 51 48  1  0  0  0  0
M  END
>  <MODEL>
3

>  <REMARK>
 VINA RESULT:      -6.9      3.369      8.431
  Name = 
  10 active torsions:
  status: ('A' for Active; 'I' for Inactive)
    1  A    between atoms: C_5  and  O_11
    2  A    between atoms: C_7  and  C_33
    3  A    between atoms: C_10  and  N_23
    4  A    between atoms: C_10  and  O_25
    5  A    between atoms: C_13  and  C_44
    6  A    between atoms: C_14  and  N_15
    7  A    between atoms: C_14  and  N_23
    8  A    between atoms: C_20  and  C_34
    9  A    between atoms: C_20  and  N_51
   10  A    between atoms: O_25  and  C_34
                            x       y       z     vdW  Elec       q    Type
                         _______ _______ _______ _____ _____    ______ ____

>  <TORSDO>
F 10

$$$$
=
 OpenBabel11062418593D

 51 54  0  0  1  0  0  0  0  0999 V2000
  190.4080  175.1210  145.6360 C   0  0  1  0  0  3  0  0  0  0  0  0
  195.9490  174.5850  145.8680 C   0  0  0  0  0  3  0  0  0  0  0  0
  192.4690  175.6270  144.6860 C   0  0  2  0  0  3  0  0  0  0  0  0
  190.3510  172.5420  142.7640 C   0  0  0  0  0  2  0  0  0  0  0  0
  195.0230  169.9020  141.6390 C   0  0  2  0  0  3  0  0  0  0  0  0
  194.3050  173.3890  144.5650 C   0  0  0  0  0  3  0  0  0  0  0  0
  191.8730  176.7810  143.8690 C   0  0  0  0  0  2  0  0  0  0  0  0
  190.9190  172.4840  141.4830 O   0  0  0  0  0  0  0  0  0  0  0  0
  196.5940  169.0870  144.0520 C   0  0  0  0  0  0  0  0  0  0  0  0
  190.6470  176.4290  143.0350 C   0  0  0  0  0  0  0  0  0  0  0  0
  194.7340  174.5900  145.1630 C   0  0  0  0  0  0  0  0  0  0  0  0
  196.6850  173.4050  146.0220 C   0  0  0  0  0  3  0  0  0  0  0  0
  197.7350  169.2070  143.5340 O   0  0  0  0  0  0  0  0  0  0  0  0
  196.2760  169.7780  145.2540 N   0  0  0  0  0  2  0  0  0  0  0  0
  195.5620  168.2100  143.4200 C   0  0  0  0  0  2  0  0  0  0  0  0
  190.7100  173.8470  143.4490 C   0  0  1  0  0  3  0  0  0  0  0  0
  189.9650  177.3580  142.6390 O   0  0  0  0  0  0  0  0  0  0  0  0
  196.2290  172.2180  145.4600 C   0  0  0  0  0  0  0  0  0  0  0  0
  191.7830  175.3400  145.8940 O   0  0  0  0  0  0  0  0  0  0  0  0
  195.4540  168.4670  141.9210 C   0  0  0  0  0  2  0  0  0  0  0  0
  192.8900  171.1300  141.6050 C   0  0  0  0  0  3  0  0  0  0  0  0
  190.2240  175.0350  142.6020 C   0  0  0  0  0  2  0  0  0  0  0  0
  193.5370  169.9760  141.4700 C   0  0  0  0  0  3  0  0  0  0  0  0
  195.0410  172.2160  144.7130 C   0  0  0  0  0  3  0  0  0  0  0  0
  193.9580  175.8740  144.9550 C   0  0  2  0  0  3  0  0  0  0  0  0
  197.0280  170.9550  145.6810 C   0  0  0  0  0  2  0  0  0  0  0  0
  190.1230  173.8350  144.8680 C   0  0  0  0  0  2  0  0  0  0  0  0
  189.6460  175.1190  146.9380 C   0  0  0  0  0  1  0  0  0  0  0  0
  191.4760  171.2490  141.3820 N   0  0  0  0  0  0  0  0  0  0  0  0
  195.9710  170.7070  138.0330 C   0  0  0  0  0  0  0  0  0  0  0  0
  197.2040  171.3440  138.2270 C   0  0  0  0  0  3  0  0  0  0  0  0
  195.7580  170.4300  140.4370 C   0  0  0  0  0  0  0  0  0  0  0  0
  195.2540  170.2430  139.1380 C   0  0  0  0  0  3  0  0  0  0  0  0
  196.9920  171.0600  140.6200 C   0  0  0  0  0  3  0  0  0  0  0  0
  197.7140  171.5160  139.5180 C   0  0  0  0  0  3  0  0  0  0  0  0
  195.4340  170.5290  136.7580 O   0  0  0  0  0  0  0  0  0  0  0  0
  194.3250  171.2430  136.3430 N   0  0  0  0  0  1  0  0  0  0  0  0
  194.1590  176.8870  146.0580 C   0  0  0  0  0  0  0  0  0  0  0  0
  193.5210  176.7250  147.2850 O   0  0  0  0  0  1  0  0  0  0  0  0
  194.8630  177.9100  145.8480 O   0  0  0  0  0  0  0  0  0  0  0  0
  190.6950  170.1850  140.7590 C   0  0  0  0  0  2  0  0  0  0  0  0
  190.6060  170.3880  139.2470 C   0  0  1  0  0  3  0  0  0  0  0  0
  190.5500  169.0630  138.5050 C   0  0  0  0  0  1  0  0  0  0  0  0
  189.5930  171.2920  138.8510 O   0  0  0  0  0  0  0  0  0  0  0  0
  190.0380  172.0260  137.7300 C   0  0  0  0  0  2  0  0  0  0  0  0
  190.2060  173.4160  138.0990 N   0  0  0  0  0  2  0  0  0  0  0  0
  191.5060  173.8420  137.6020 C   0  0  0  0  0  2  0  0  0  0  0  0
  193.6550  174.1540  138.6830 C   0  0  0  0  0  0  0  0  0  0  0  0
  192.5380  173.5030  138.5700 N   0  0  0  0  0  0  0  0  0  0  0  0
  193.9250  175.2950  137.8750 N   0  0  0  0  0  1  0  0  0  0  0  0
  194.5850  173.7730  139.6810 N   0  0  0  0  0  1  0  0  0  0  0  0
  1 19  1  0  0  0  0
  1 28  1  1  0  0  0
  2 12  1  0  0  0  0
  3  7  1  1  0  0  0
  3 25  1  0  0  0  0
  3 19  1  0  0  0  0
  4 16  1  0  0  0  0
  5 32  1  6  0  0  0
  5 20  1  0  0  0  0
  6 24  2  0  0  0  0
  6 11  1  0  0  0  0
  8  4  1  0  0  0  0
  9 14  1  0  0  0  0
 10  7  1  0  0  0  0
 11  2  2  0  0  0  0
 13  9  2  0  0  0  0
 14 26  1  0  0  0  0
 15  9  1  0  0  0  0
 16 22  1  6  0  0  0
 16 27  1  0  0  0  0
 17 10  2  0  0  0  0
 18 26  1  0  0  0  0
 18 12  2  0  0  0  0
 20 15  1  0  0  0  0
 22 10  1  0  0  0  0
 23 21  2  0  0  0  0
 23  5  1  0  0  0  0
 24 18  1  0  0  0  0
 25 11  1  0  0  0  0
 25 38  1  1  0  0  0
 27  1  1  0  0  0  0
 29  8  1  0  0  0  0
 29 21  1  0  0  0  0
 30 31  2  0  0  0  0
 30 33  1  0  0  0  0
 31 35  1  0  0  0  0
 32 34  1  0  0  0  0
 33 32  2  0  0  0  0
 35 34  2  0  0  0  0
 36 30  1  0  0  0  0
 37 36  1  0  0  0  0
 38 39  1  0  0  0  0
 40 38  2  0  0  0  0
 41 29  1  0  0  0  0
 42 43  1  6  0  0  0
 42 41  1  0  0  0  0
 44 42  1  0  0  0  0
 45 46  1  0  0  0  0
 45 44  1  0  0  0  0
 47 46  1  0  0  0  0
 47 49  1  0  0  0  0
 48 51  1  0  0  0  0
 49 48  2  0  0  0  0
 50 48  1  0  0  0  0
M  END
>  <MODEL>
4

>  <REMARK>
 VINA RESULT:      -6.7      3.909      8.739
  Name = 
  10 active torsions:
  status: ('A' for Active; 'I' for Inactive)
    1  A    between atoms: C_5  and  O_11
    2  A    between atoms: C_7  and  C_33
    3  A    between atoms: C_10  and  N_23
    4  A    between atoms: C_10  and  O_25
    5  A    between atoms: C_13  and  C_44
    6  A    between atoms: C_14  and  N_15
    7  A    between atoms: C_14  and  N_23
    8  A    between atoms: C_20  and  C_34
    9  A    between atoms: C_20  and  N_51
   10  A    between atoms: O_25  and  C_34
                            x       y       z     vdW  Elec       q    Type
                         _______ _______ _______ _____ _____    ______ ____

>  <TORSDO>
F 10

$$$$
=
 OpenBabel11062418593D

 51 54  0  0  1  0  0  0  0  0999 V2000
  196.1020  172.4310  137.4570 C   0  0  1  0  0  3  0  0  0  0  0  0
  190.8450  174.1780  136.8640 C   0  0  0  0  0  3  0  0  0  0  0  0
  194.6170  174.2200  137.4610 C   0  0  2  0  0  3  0  0  0  0  0  0
  195.7320  172.8440  141.2770 C   0  0  0  0  0  2  0  0  0  0  0  0
  190.7250  173.9170  143.2350 C   0  0  2  0  0  3  0  0  0  0  0  0
  192.1300  173.7000  138.8520 C   0  0  0  0  0  3  0  0  0  0  0  0
  195.7560  175.2380  137.3050 C   0  0  0  0  0  2  0  0  0  0  0  0
  195.4480  173.9230  142.1270 O   0  0  0  0  0  0  0  0  0  0  0  0
  188.5230  172.3920  141.9000 C   0  0  0  0  0  0  0  0  0  0  0  0
  196.8920  175.1100  138.3120 C   0  0  0  0  0  0  0  0  0  0  0  0
  192.0830  174.1790  137.5280 C   0  0  0  0  0  0  0  0  0  0  0  0
  189.7010  173.6600  137.4790 C   0  0  0  0  0  3  0  0  0  0  0  0
  187.6380  173.2810  142.0090 O   0  0  0  0  0  0  0  0  0  0  0  0
  188.8380  171.8480  140.6240 N   0  0  0  0  0  2  0  0  0  0  0  0
  189.2450  171.8860  143.1070 C   0  0  0  0  0  2  0  0  0  0  0  0
  195.7710  173.2990  139.8300 C   0  0  1  0  0  3  0  0  0  0  0  0
  197.9400  175.6660  138.0340 O   0  0  0  0  0  0  0  0  0  0  0  0
  189.7700  173.1520  138.7710 C   0  0  0  0  0  0  0  0  0  0  0  0
  194.8920  172.9370  136.9230 O   0  0  0  0  0  0  0  0  0  0  0  0
  189.7340  173.0340  143.9850 C   0  0  0  0  0  2  0  0  0  0  0  0
  193.1260  173.8190  142.7060 C   0  0  0  0  0  3  0  0  0  0  0  0
  196.8280  174.4010  139.6550 C   0  0  0  0  0  2  0  0  0  0  0  0
  192.1280  173.4800  143.5170 C   0  0  0  0  0  3  0  0  0  0  0  0
  190.9890  173.1890  139.4650 C   0  0  0  0  0  3  0  0  0  0  0  0
  193.3130  174.7820  136.8830 C   0  0  2  0  0  3  0  0  0  0  0  0
  188.5240  172.5630  139.3890 C   0  0  0  0  0  2  0  0  0  0  0  0
  196.0200  172.0750  138.9360 C   0  0  0  0  0  2  0  0  0  0  0  0
  196.5350  171.2230  136.6630 C   0  0  0  0  0  1  0  0  0  0  0  0
  194.4930  173.4760  142.9840 N   0  0  0  0  0  0  0  0  0  0  0  0
  189.7180  177.5900  143.0220 C   0  0  0  0  0  0  0  0  0  0  0  0
  190.1760  178.0550  144.2610 C   0  0  0  0  0  3  0  0  0  0  0  0
  190.4960  175.3600  143.5930 C   0  0  0  0  0  0  0  0  0  0  0  0
  189.8870  176.2450  142.6850 C   0  0  0  0  0  3  0  0  0  0  0  0
  190.9560  175.8350  144.8240 C   0  0  0  0  0  3  0  0  0  0  0  0
  190.7970  177.1790  145.1580 C   0  0  0  0  0  3  0  0  0  0  0  0
  189.0870  178.4380  142.1110 O   0  0  0  0  0  0  0  0  0  0  0  0
  187.7420  178.3050  141.8240 N   0  0  0  0  0  1  0  0  0  0  0  0
  193.3020  174.7090  135.3740 C   0  0  0  0  0  0  0  0  0  0  0  0
  193.0280  173.5040  134.7310 O   0  0  0  0  0  1  0  0  0  0  0  0
  193.5950  175.7280  134.6960 O   0  0  0  0  0  0  0  0  0  0  0  0
  194.9160  172.9530  144.2790 C   0  0  0  0  0  2  0  0  0  0  0  0
  196.1330  173.7130  144.8030 C   0  0  1  0  0  3  0  0  0  0  0  0
  195.7310  174.8340  145.7480 C   0  0  0  0  0  1  0  0  0  0  0  0
  197.1460  172.8780  145.3280 O   0  0  0  0  0  0  0  0  0  0  0  0
  197.0820  171.6170  144.6960 C   0  0  0  0  0  2  0  0  0  0  0  0
  197.9410  170.6830  145.3930 N   0  0  0  0  0  2  0  0  0  0  0  0
  197.0830  169.7030  146.0400 C   0  0  0  0  0  2  0  0  0  0  0  0
  194.7320  169.1520  145.8050 C   0  0  0  0  0  0  0  0  0  0  0  0
  195.8500  169.5510  145.2820 N   0  0  0  0  0  0  0  0  0  0  0  0
  194.6320  168.8730  147.1980 N   0  0  0  0  0  1  0  0  0  0  0  0
  193.5730  169.0700  144.9940 N   0  0  0  0  0  1  0  0  0  0  0  0
  1 28  1  6  0  0  0
  1 27  1  0  0  0  0
  2 12  2  0  0  0  0
  2 11  1  0  0  0  0
  3  7  1  6  0  0  0
  4  8  1  0  0  0  0
  5 23  1  0  0  0  0
  5 32  1  1  0  0  0
  5 20  1  0  0  0  0
  6 24  1  0  0  0  0
  7 10  1  0  0  0  0
  8 29  1  0  0  0  0
  9 13  2  0  0  0  0
  9 15  1  0  0  0  0
 10 22  1  0  0  0  0
 11  6  2  0  0  0  0
 12 18  1  0  0  0  0
 14  9  1  0  0  0  0
 15 20  1  0  0  0  0
 16 27  1  6  0  0  0
 16  4  1  0  0  0  0
 17 10  2  0  0  0  0
 18 26  1  0  0  0  0
 18 24  2  0  0  0  0
 19  1  1  0  0  0  0
 19  3  1  0  0  0  0
 21 29  1  0  0  0  0
 21 23  2  0  0  0  0
 22 16  1  0  0  0  0
 25 38  1  6  0  0  0
 25  3  1  0  0  0  0
 25 11  1  0  0  0  0
 26 14  1  0  0  0  0
 29 41  1  0  0  0  0
 30 31  1  0  0  0  0
 31 35  2  0  0  0  0
 32 34  2  0  0  0  0
 33 30  2  0  0  0  0
 33 32  1  0  0  0  0
 34 35  1  0  0  0  0
 36 30  1  0  0  0  0
 37 36  1  0  0  0  0
 39 38  1  0  0  0  0
 40 38  2  0  0  0  0
 41 42  1  0  0  0  0
 42 44  1  0  0  0  0
 42 43  1  1  0  0  0
 45 44  1  0  0  0  0
 45 46  1  0  0  0  0
 46 47  1  0  0  0  0
 48 50  1  0  0  0  0
 49 48  2  0  0  0  0
 49 47  1  0  0  0  0
 51 48  1  0  0  0  0
M  END
>  <MODEL>
5

>  <REMARK>
 VINA RESULT:      -6.5      3.036      5.829
  Name = 
  10 active torsions:
  status: ('A' for Active; 'I' for Inactive)
    1  A    between atoms: C_5  and  O_11
    2  A    between atoms: C_7  and  C_33
    3  A    between atoms: C_10  and  N_23
    4  A    between atoms: C_10  and  O_25
    5  A    between atoms: C_13  and  C_44
    6  A    between atoms: C_14  and  N_15
    7  A    between atoms: C_14  and  N_23
    8  A    between atoms: C_20  and  C_34
    9  A    between atoms: C_20  and  N_51
   10  A    between atoms: O_25  and  C_34
                            x       y       z     vdW  Elec       q    Type
                         _______ _______ _______ _____ _____    ______ ____

>  <TORSDO>
F 10

$$$$
=
 OpenBabel11062418593D

 51 54  0  0  1  0  0  0  0  0999 V2000
  191.0250  173.7040  136.3800 C   0  0  1  0  0  3  0  0  0  0  0  0
  196.3640  174.1790  137.9000 C   0  0  0  0  0  3  0  0  0  0  0  0
  192.9730  172.6330  137.0620 C   0  0  2  0  0  3  0  0  0  0  0  0
  190.0940  173.1540  140.0850 C   0  0  0  0  0  2  0  0  0  0  0  0
  194.0220  173.9430  143.8270 C   0  0  2  0  0  3  0  0  0  0  0  0
  194.3620  173.9590  139.2320 C   0  0  0  0  0  3  0  0  0  0  0  0
  192.4640  171.2710  136.5710 C   0  0  0  0  0  2  0  0  0  0  0  0
  190.4410  172.2030  141.0560 O   0  0  0  0  0  0  0  0  0  0  0  0
  195.7820  176.3040  143.2930 C   0  0  0  0  0  0  0  0  0  0  0  0
  191.0840  170.8670  137.0750 C   0  0  0  0  0  0  0  0  0  0  0  0
  195.0750  173.6450  138.0580 C   0  0  0  0  0  0  0  0  0  0  0  0
  196.9040  175.0460  138.8550 C   0  0  0  0  0  3  0  0  0  0  0  0
  196.8350  175.8200  143.7860 O   0  0  0  0  0  0  0  0  0  0  0  0
  195.7730  176.7870  141.9550 N   0  0  0  0  0  2  0  0  0  0  0  0
  194.5320  176.3910  144.1070 C   0  0  0  0  0  2  0  0  0  0  0  0
  190.7690  172.8390  138.7640 C   0  0  1  0  0  3  0  0  0  0  0  0
  190.5170  169.9740  136.4710 O   0  0  0  0  0  0  0  0  0  0  0  0
  196.1730  175.3810  139.9890 C   0  0  0  0  0  0  0  0  0  0  0  0
  192.4410  173.7490  136.3690 O   0  0  0  0  0  0  0  0  0  0  0  0
  194.2420  175.0760  144.8240 C   0  0  0  0  0  2  0  0  0  0  0  0
  192.1500  173.1480  142.4430 C   0  0  0  0  0  3  0  0  0  0  0  0
  190.3690  171.4330  138.2910 C   0  0  0  0  0  2  0  0  0  0  0  0
  192.5630  173.7790  143.5380 C   0  0  0  0  0  3  0  0  0  0  0  0
  194.9030  174.8190  140.1850 C   0  0  0  0  0  3  0  0  0  0  0  0
  194.5060  172.6690  137.0500 C   0  0  2  0  0  3  0  0  0  0  0  0
  196.7700  176.3530  140.9790 C   0  0  0  0  0  2  0  0  0  0  0  0
  190.4130  173.9410  137.7550 C   0  0  0  0  0  2  0  0  0  0  0  0
  190.4820  174.7110  135.3970 C   0  0  0  0  0  1  0  0  0  0  0  0
  190.7590  172.9130  142.1700 N   0  0  0  0  0  0  0  0  0  0  0  0
  196.3250  170.9270  144.2130 C   0  0  0  0  0  0  0  0  0  0  0  0
  195.7130  170.2710  145.2890 C   0  0  0  0  0  3  0  0  0  0  0  0
  194.6450  172.6770  144.3480 C   0  0  0  0  0  0  0  0  0  0  0  0
  195.7850  172.1240  143.7380 C   0  0  0  0  0  3  0  0  0  0  0  0
  194.0370  172.0110  145.4160 C   0  0  0  0  0  3  0  0  0  0  0  0
  194.5690  170.8120  145.8860 C   0  0  0  0  0  3  0  0  0  0  0  0
  197.4720  170.4160  143.6040 O   0  0  0  0  0  0  0  0  0  0  0  0
  197.3980  169.7060  142.4210 N   0  0  0  0  0  1  0  0  0  0  0  0
  195.0410  172.8640  135.6510 C   0  0  0  0  0  0  0  0  0  0  0  0
  195.1090  174.1390  135.0960 O   0  0  0  0  0  1  0  0  0  0  0  0
  195.3770  171.8630  134.9630 O   0  0  0  0  0  0  0  0  0  0  0  0
  189.7230  173.1230  143.1760 C   0  0  0  0  0  2  0  0  0  0  0  0
  189.2400  174.5730  143.1660 C   0  0  1  0  0  3  0  0  0  0  0  0
  187.9270  174.7230  142.4160 C   0  0  0  0  0  1  0  0  0  0  0  0
  189.2250  175.1790  144.4440 O   0  0  0  0  0  0  0  0  0  0  0  0
  188.5810  176.4320  144.3560 C   0  0  0  0  0  2  0  0  0  0  0  0
  188.6230  177.0870  145.6470 N   0  0  0  0  0  2  0  0  0  0  0  0
  187.6910  176.3890  146.5190 C   0  0  0  0  0  2  0  0  0  0  0  0
  185.6650  177.6660  146.9060 C   0  0  0  0  0  0  0  0  0  0  0  0
  186.3280  176.7940  146.2110 N   0  0  0  0  0  0  0  0  0  0  0  0
  186.2630  178.3270  148.0170 N   0  0  0  0  0  1  0  0  0  0  0  0
  184.3540  178.0240  146.5060 N   0  0  0  0  0  1  0  0  0  0  0  0
  1 28  1  6  0  0  0
  1 27  1  0  0  0  0
  2 11  2  0  0  0  0
  2 12  1  0  0  0  0
  3  7  1  6  0  0  0
  4  8  1  0  0  0  0
  5 32  1  1  0  0  0
  5 20  1  0  0  0  0
  6 24  2  0  0  0  0
  7 10  1  0  0  0  0
  8 29  1  0  0  0  0
  9 13  2  0  0  0  0
  9 15  1  0  0  0  0
 10 22  1  0  0  0  0
 11  6  1  0  0  0  0
 12 18  2  0  0  0  0
 14  9  1  0  0  0  0
 15 20  1  0  0  0  0
 16 27  1  6  0  0  0
 16  4  1  0  0  0  0
 17 10  2  0  0  0  0
 18 24  1  0  0  0  0
 18 26  1  0  0  0  0
 19  1  1  0  0  0  0
 19  3  1  0  0  0  0
 21 23  2  0  0  0  0
 22 16  1  0  0  0  0
 23  5  1  0  0  0  0
 25 38  1  6  0  0  0
 25  3  1  0  0  0  0
 25 11  1  0  0  0  0
 26 14  1  0  0  0  0
 29 21  1  0  0  0  0
 29 41  1  0  0  0  0
 30 31  1  0  0  0  0
 31 35  2  0  0  0  0
 32 34  2  0  0  0  0
 33 30  2  0  0  0  0
 33 32  1  0  0  0  0
 34 35  1  0  0  0  0
 36 30  1  0  0  0  0
 37 36  1  0  0  0  0
 39 38  1  0  0  0  0
 40 38  2  0  0  0  0
 42 43  1  1  0  0  0
 42 41  1  0  0  0  0
 42 44  1  0  0  0  0
 45 44  1  0  0  0  0
 45 46  1  0  0  0  0
 46 47  1  0  0  0  0
 48 50  1  0  0  0  0
 49 47  1  0  0  0  0
 49 48  2  0  0  0  0
 51 48  1  0  0  0  0
M  END
>  <MODEL>
6

>  <REMARK>
 VINA RESULT:      -6.4      2.646      7.125
  Name = 
  10 active torsions:
  status: ('A' for Active; 'I' for Inactive)
    1  A    between atoms: C_5  and  O_11
    2  A    between atoms: C_7  and  C_33
    3  A    between atoms: C_10  and  N_23
    4  A    between atoms: C_10  and  O_25
    5  A    between atoms: C_13  and  C_44
    6  A    between atoms: C_14  and  N_15
    7  A    between atoms: C_14  and  N_23
    8  A    between atoms: C_20  and  C_34
    9  A    between atoms: C_20  and  N_51
   10  A    between atoms: O_25  and  C_34
                            x       y       z     vdW  Elec       q    Type
                         _______ _______ _______ _____ _____    ______ ____

>  <TORSDO>
F 10

$$$$
=
 OpenBabel11062418593D

 51 54  0  0  1  0  0  0  0  0999 V2000
  192.8950  174.5210  136.6800 C   0  0  1  0  0  3  0  0  0  0  0  0
  197.5720  175.1640  139.6390 C   0  0  0  0  0  3  0  0  0  0  0  0
  194.8600  173.5650  137.4760 C   0  0  2  0  0  3  0  0  0  0  0  0
  191.3950  172.5220  139.6210 C   0  0  0  0  0  2  0  0  0  0  0  0
  194.2130  172.4350  144.3230 C   0  0  2  0  0  3  0  0  0  0  0  0
  195.4490  174.1860  140.2440 C   0  0  0  0  0  3  0  0  0  0  0  0
  194.7820  172.4210  136.4560 C   0  0  0  0  0  2  0  0  0  0  0  0
  191.7490  171.3410  140.2900 O   0  0  0  0  0  0  0  0  0  0  0  0
  195.4580  175.0530  145.0660 C   0  0  0  0  0  0  0  0  0  0  0  0
  193.4590  171.6670  136.4150 C   0  0  0  0  0  0  0  0  0  0  0  0
  196.4330  174.4310  139.2660 C   0  0  0  0  0  0  0  0  0  0  0  0
  197.6980  175.6880  140.9290 C   0  0  0  0  0  3  0  0  0  0  0  0
  196.4730  174.5780  145.6390 O   0  0  0  0  0  0  0  0  0  0  0  0
  195.6060  175.9870  144.0030 N   0  0  0  0  0  2  0  0  0  0  0  0
  194.0850  174.6540  145.5010 C   0  0  0  0  0  2  0  0  0  0  0  0
  192.3730  172.8150  138.5000 C   0  0  1  0  0  3  0  0  0  0  0  0
  193.2430  170.9870  135.4280 O   0  0  0  0  0  0  0  0  0  0  0  0
  196.7000  175.4740  141.8720 C   0  0  0  0  0  0  0  0  0  0  0  0
  194.2350  174.7700  137.0620 O   0  0  0  0  0  0  0  0  0  0  0  0
  193.9650  173.1420  145.6510 C   0  0  0  0  0  2  0  0  0  0  0  0
  192.8860  171.9450  142.3100 C   0  0  0  0  0  3  0  0  0  0  0  0
  192.4070  171.6380  137.5110 C   0  0  0  0  0  2  0  0  0  0  0  0
  192.9180  172.1820  143.6180 C   0  0  0  0  0  3  0  0  0  0  0  0
  195.5780  174.7040  141.5300 C   0  0  0  0  0  3  0  0  0  0  0  0
  196.3150  173.8220  137.8850 C   0  0  2  0  0  3  0  0  0  0  0  0
  196.8500  176.0890  143.2430 C   0  0  0  0  0  2  0  0  0  0  0  0
  191.9830  174.1470  137.8420 C   0  0  0  0  0  2  0  0  0  0  0  0
  192.3440  175.7300  135.9660 C   0  0  0  0  0  1  0  0  0  0  0  0
  191.6680  171.6290  141.6160 N   0  0  0  0  0  0  0  0  0  0  0  0
  195.8300  169.4350  146.0360 C   0  0  0  0  0  0  0  0  0  0  0  0
  196.5260  168.8690  144.9610 C   0  0  0  0  0  3  0  0  0  0  0  0
  194.9920  171.1690  144.5550 C   0  0  0  0  0  0  0  0  0  0  0  0
  195.0700  170.5900  145.8340 C   0  0  0  0  0  3  0  0  0  0  0  0
  195.6960  170.6000  143.4900 C   0  0  0  0  0  3  0  0  0  0  0  0
  196.4620  169.4530  143.6920 C   0  0  0  0  0  3  0  0  0  0  0  0
  195.8690  168.8690  147.3110 O   0  0  0  0  0  0  0  0  0  0  0  0
  197.0670  168.5060  147.8970 N   0  0  0  0  0  1  0  0  0  0  0  0
  197.0590  174.5920  136.8190 C   0  0  0  0  0  0  0  0  0  0  0  0
  196.7330  175.9200  136.5550 O   0  0  0  0  0  1  0  0  0  0  0  0
  197.9410  174.0150  136.1300 O   0  0  0  0  0  0  0  0  0  0  0  0
  190.4320  171.3050  142.3200 C   0  0  0  0  0  2  0  0  0  0  0  0
  189.7620  172.5700  142.8550 C   0  0  1  0  0  3  0  0  0  0  0  0
  188.4420  172.8450  142.1520 C   0  0  0  0  0  1  0  0  0  0  0  0
  189.6620  172.6110  144.2640 O   0  0  0  0  0  0  0  0  0  0  0  0
  189.4020  173.9370  144.6730 C   0  0  0  0  0  2  0  0  0  0  0  0
  190.6040  174.7310  144.5330 N   0  0  0  0  0  2  0  0  0  0  0  0
  190.2710  176.0960  144.9090 C   0  0  0  0  0  2  0  0  0  0  0  0
  189.8300  177.5080  142.9860 C   0  0  0  0  0  0  0  0  0  0  0  0
  189.4070  176.6880  143.8990 N   0  0  0  0  0  0  0  0  0  0  0  0
  191.2090  177.8510  142.8900 N   0  0  0  0  0  1  0  0  0  0  0  0
  188.9200  178.0050  142.0210 N   0  0  0  0  0  1  0  0  0  0  0  0
  1 28  1  1  0  0  0
  1 19  1  0  0  0  0
  1 27  1  0  0  0  0
  2 12  1  0  0  0  0
  3  7  1  6  0  0  0
  3 25  1  0  0  0  0
  4  8  1  0  0  0  0
  5 32  1  1  0  0  0
  5 20  1  0  0  0  0
  6 24  2  0  0  0  0
  8 29  1  0  0  0  0
  9 15  1  0  0  0  0
  9 13  2  0  0  0  0
 10  7  1  0  0  0  0
 10 22  1  0  0  0  0
 11  2  2  0  0  0  0
 11  6  1  0  0  0  0
 12 18  2  0  0  0  0
 14  9  1  0  0  0  0
 15 20  1  0  0  0  0
 16 22  1  6  0  0  0
 16  4  1  0  0  0  0
 17 10  2  0  0  0  0
 18 26  1  0  0  0  0
 19  3  1  0  0  0  0
 21 23  2  0  0  0  0
 23  5  1  0  0  0  0
 24 18  1  0  0  0  0
 25 38  1  6  0  0  0
 25 11  1  0  0  0  0
 26 14  1  0  0  0  0
 27 16  1  0  0  0  0
 29 21  1  0  0  0  0
 29 41  1  0  0  0  0
 30 36  1  0  0  0  0
 31 30  2  0  0  0  0
 32 33  2  0  0  0  0
 33 30  1  0  0  0  0
 34 35  2  0  0  0  0
 34 32  1  0  0  0  0
 35 31  1  0  0  0  0
 36 37  1  0  0  0  0
 39 38  1  0  0  0  0
 40 38  2  0  0  0  0
 41 42  1  0  0  0  0
 42 43  1  6  0  0  0
 42 44  1  0  0  0  0
 44 45  1  0  0  0  0
 46 45  1  0  0  0  0
 46 47  1  0  0  0  0
 48 49  2  0  0  0  0
 49 47  1  0  0  0  0
 50 48  1  0  0  0  0
 51 48  1  0  0  0  0
M  END
>  <MODEL>
7

>  <REMARK>
 VINA RESULT:      -6.4      3.045      7.507
  Name = 
  10 active torsions:
  status: ('A' for Active; 'I' for Inactive)
    1  A    between atoms: C_5  and  O_11
    2  A    between atoms: C_7  and  C_33
    3  A    between atoms: C_10  and  N_23
    4  A    between atoms: C_10  and  O_25
    5  A    between atoms: C_13  and  C_44
    6  A    between atoms: C_14  and  N_15
    7  A    between atoms: C_14  and  N_23
    8  A    between atoms: C_20  and  C_34
    9  A    between atoms: C_20  and  N_51
   10  A    between atoms: O_25  and  C_34
                            x       y       z     vdW  Elec       q    Type
                         _______ _______ _______ _____ _____    ______ ____

>  <TORSDO>
F 10

$$$$
=
 OpenBabel11062418593D

 51 54  0  0  1  0  0  0  0  0999 V2000
  190.3170  176.7080  143.9260 C   0  0  1  0  0  3  0  0  0  0  0  0
  189.7740  173.3750  139.4950 C   0  0  0  0  0  3  0  0  0  0  0  0
  190.0930  174.5400  143.1190 C   0  0  2  0  0  3  0  0  0  0  0  0
  194.0110  175.6240  144.1990 C   0  0  0  0  0  2  0  0  0  0  0  0
  196.0760  172.6160  140.1070 C   0  0  2  0  0  3  0  0  0  0  0  0
  191.7230  173.9590  140.7950 C   0  0  0  0  0  3  0  0  0  0  0  0
  189.6730  174.0100  144.4970 C   0  0  0  0  0  2  0  0  0  0  0  0
  194.6640  174.3970  144.3920 O   0  0  0  0  0  0  0  0  0  0  0  0
  195.2000  173.4760  137.3770 C   0  0  0  0  0  0  0  0  0  0  0  0
  190.6060  174.3670  145.6480 C   0  0  0  0  0  0  0  0  0  0  0  0
  190.3400  173.6980  140.7390 C   0  0  0  0  0  0  0  0  0  0  0  0
  190.5510  173.3700  138.3320 C   0  0  0  0  0  3  0  0  0  0  0  0
  195.2040  172.3310  136.8520 O   0  0  0  0  0  0  0  0  0  0  0  0
  194.0280  174.2800  137.3330 N   0  0  0  0  0  2  0  0  0  0  0  0
  196.4280  174.0100  138.0420 C   0  0  0  0  0  2  0  0  0  0  0  0
  192.5060  175.4330  144.2010 C   0  0  1  0  0  3  0  0  0  0  0  0
  190.1590  174.2520  146.7750 O   0  0  0  0  0  0  0  0  0  0  0  0
  191.9070  173.6700  138.3960 C   0  0  0  0  0  0  0  0  0  0  0  0
  189.7830  175.9040  142.8900 O   0  0  0  0  0  0  0  0  0  0  0  0
  197.0430  172.9820  138.9860 C   0  0  0  0  0  2  0  0  0  0  0  0
  195.4110  173.6100  142.2570 C   0  0  0  0  0  3  0  0  0  0  0  0
  192.0580  174.8000  145.5280 C   0  0  0  0  0  2  0  0  0  0  0  0
  196.3370  173.4600  141.3150 C   0  0  0  0  0  3  0  0  0  0  0  0
  192.4970  173.9490  139.6380 C   0  0  0  0  0  3  0  0  0  0  0  0
  189.5120  173.6590  142.0070 C   0  0  2  0  0  3  0  0  0  0  0  0
  192.7070  173.6960  137.1150 C   0  0  0  0  0  2  0  0  0  0  0  0
  191.8390  176.7880  143.9210 C   0  0  0  0  0  2  0  0  0  0  0  0
  189.7320  178.0960  143.8370 C   0  0  0  0  0  1  0  0  0  0  0  0
  195.6530  174.3550  143.4610 N   0  0  0  0  0  0  0  0  0  0  0  0
  195.1410  168.9730  140.7410 C   0  0  0  0  0  0  0  0  0  0  0  0
  196.3940  168.4380  141.0660 C   0  0  0  0  0  3  0  0  0  0  0  0
  196.1760  171.1460  140.4080 C   0  0  0  0  0  0  0  0  0  0  0  0
  195.0320  170.3280  140.4210 C   0  0  0  0  0  3  0  0  0  0  0  0
  197.4210  170.6040  140.7420 C   0  0  0  0  0  3  0  0  0  0  0  0
  197.5300  169.2540  141.0690 C   0  0  0  0  0  3  0  0  0  0  0  0
  193.9920  168.1810  140.7210 O   0  0  0  0  0  0  0  0  0  0  0  0
  192.7400  168.7330  140.9150 N   0  0  0  0  0  1  0  0  0  0  0  0
  188.0470  173.9500  141.7810 C   0  0  0  0  0  0  0  0  0  0  0  0
  187.6190  175.2520  141.5330 O   0  0  0  0  0  0  0  0  0  0  0  0
  187.2020  173.0200  141.8700 O   0  0  0  0  0  1  0  0  0  0  0  0
  196.9910  174.7900  143.8510 C   0  0  0  0  0  2  0  0  0  0  0  0
  197.6100  173.8160  144.8530 C   0  0  1  0  0  3  0  0  0  0  0  0
  196.8320  173.7820  146.1580 C   0  0  0  0  0  1  0  0  0  0  0  0
  197.8600  172.5310  144.3190 O   0  0  0  0  0  0  0  0  0  0  0  0
  197.2360  171.5600  145.1330 C   0  0  0  0  0  2  0  0  0  0  0  0
  197.1630  170.3040  144.4170 N   0  0  0  0  0  2  0  0  0  0  0  0
  195.8020  169.8060  144.5500 C   0  0  0  0  0  2  0  0  0  0  0  0
  193.5850  170.5950  143.9610 C   0  0  0  0  0  0  0  0  0  0  0  0
  194.8630  170.8010  144.0540 N   0  0  0  0  0  0  0  0  0  0  0  0
  193.0060  169.3670  144.3890 N   0  0  0  0  0  1  0  0  0  0  0  0
  192.7440  171.6380  143.5000 N   0  0  0  0  0  1  0  0  0  0  0  0
  1 28  1  6  0  0  0
  2 11  1  0  0  0  0
  3  7  1  1  0  0  0
  4 16  1  0  0  0  0
  4  8  1  0  0  0  0
  5 32  1  1  0  0  0
  5 23  1  0  0  0  0
  7 10  1  0  0  0  0
  9 15  1  0  0  0  0
 10 17  2  0  0  0  0
 11  6  2  0  0  0  0
 11 25  1  0  0  0  0
 12 18  1  0  0  0  0
 12  2  2  0  0  0  0
 13  9  2  0  0  0  0
 14  9  1  0  0  0  0
 15 20  1  0  0  0  0
 16 27  1  1  0  0  0
 16 22  1  0  0  0  0
 18 24  2  0  0  0  0
 19  3  1  0  0  0  0
 19  1  1  0  0  0  0
 20  5  1  0  0  0  0
 21 29  1  0  0  0  0
 22 10  1  0  0  0  0
 23 21  2  0  0  0  0
 24  6  1  0  0  0  0
 25 38  1  6  0  0  0
 25  3  1  0  0  0  0
 26 14  1  0  0  0  0
 26 18  1  0  0  0  0
 27  1  1  0  0  0  0
 29 41  1  0  0  0  0
 29  8  1  0  0  0  0
 30 31  1  0  0  0  0
 31 35  2  0  0  0  0
 32 33  1  0  0  0  0
 32 34  2  0  0  0  0
 33 30  2  0  0  0  0
 34 35  1  0  0  0  0
 36 30  1  0  0  0  0
 36 37  1  0  0  0  0
 38 40  1  0  0  0  0
 39 38  2  0  0  0  0
 41 42  1  0  0  0  0
 42 43  1  1  0  0  0
 44 42  1  0  0  0  0
 44 45  1  0  0  0  0
 46 47  1  0  0  0  0
 46 45  1  0  0  0  0
 48 49  2  0  0  0  0
 48 50  1  0  0  0  0
 49 47  1  0  0  0  0
 51 48  1  0  0  0  0
M  END
>  <MODEL>
8

>  <REMARK>
 VINA RESULT:      -6.4      3.739      8.245
  Name = 
  10 active torsions:
  status: ('A' for Active; 'I' for Inactive)
    1  A    between atoms: C_5  and  O_11
    2  A    between atoms: C_7  and  C_33
    3  A    between atoms: C_10  and  N_23
    4  A    between atoms: C_10  and  O_25
    5  A    between atoms: C_13  and  C_44
    6  A    between atoms: C_14  and  N_15
    7  A    between atoms: C_14  and  N_23
    8  A    between atoms: C_20  and  C_34
    9  A    between atoms: C_20  and  N_51
   10  A    between atoms: O_25  and  C_34
                            x       y       z     vdW  Elec       q    Type
                         _______ _______ _______ _____ _____    ______ ____

>  <TORSDO>
F 10

$$$$
=
 OpenBabel11062418593D

 51 54  0  0  1  0  0  0  0  0999 V2000
  190.1410  174.7120  145.1610 C   0  0  1  0  0  3  0  0  0  0  0  0
  195.7110  174.6440  145.2620 C   0  0  0  0  0  3  0  0  0  0  0  0
  192.1270  175.7570  144.5520 C   0  0  2  0  0  3  0  0  0  0  0  0
  190.2650  173.5740  141.4760 C   0  0  0  0  0  2  0  0  0  0  0  0
  195.1380  172.0900  139.4460 C   0  0  2  0  0  3  0  0  0  0  0  0
  194.1590  173.9550  143.5450 C   0  0  0  0  0  3  0  0  0  0  0  0
  191.4090  177.0860  144.2790 C   0  0  0  0  0  2  0  0  0  0  0  0
  190.8100  174.1090  140.2980 O   0  0  0  0  0  0  0  0  0  0  0  0
  196.8260  170.4910  141.3310 C   0  0  0  0  0  0  0  0  0  0  0  0
  190.2050  177.0020  143.3490 C   0  0  0  0  0  0  0  0  0  0  0  0
  194.4870  174.8300  144.5990 C   0  0  0  0  0  0  0  0  0  0  0  0
  196.5560  173.5820  144.9240 C   0  0  0  0  0  3  0  0  0  0  0  0
  197.9410  170.9220  140.9340 O   0  0  0  0  0  0  0  0  0  0  0  0
  196.4700  170.5850  142.7050 N   0  0  0  0  0  2  0  0  0  0  0  0
  195.8670  169.8660  140.3690 C   0  0  0  0  0  2  0  0  0  0  0  0
  190.5150  174.5020  142.6490 C   0  0  1  0  0  3  0  0  0  0  0  0
  189.4320  177.9440  143.3630 O   0  0  0  0  0  0  0  0  0  0  0  0
  196.2010  172.7000  143.9090 C   0  0  0  0  0  0  0  0  0  0  0  0
  191.4950  174.9300  145.5150 O   0  0  0  0  0  0  0  0  0  0  0  0
  195.7060  170.7150  139.1130 C   0  0  0  0  0  2  0  0  0  0  0  0
  192.9010  173.0160  139.8850 C   0  0  0  0  0  3  0  0  0  0  0  0
  189.9040  175.8830  142.3660 C   0  0  0  0  0  2  0  0  0  0  0  0
  193.6490  172.0890  139.2940 C   0  0  0  0  0  3  0  0  0  0  0  0
  195.0040  172.9010  143.2060 C   0  0  0  0  0  3  0  0  0  0  0  0
  193.5920  176.0060  144.9300 C   0  0  2  0  0  3  0  0  0  0  0  0
  197.1180  171.5410  143.5990 C   0  0  0  0  0  2  0  0  0  0  0  0
  189.9610  173.8440  143.9220 C   0  0  0  0  0  2  0  0  0  0  0  0
  189.4100  174.0970  146.3280 C   0  0  0  0  0  1  0  0  0  0  0  0
  191.4770  173.0860  139.7030 N   0  0  0  0  0  0  0  0  0  0  0  0
  196.1670  174.1850  136.4300 C   0  0  0  0  0  0  0  0  0  0  0  0
  197.1140  175.0340  137.0170 C   0  0  0  0  0  3  0  0  0  0  0  0
  195.7960  173.1360  138.5900 C   0  0  0  0  0  0  0  0  0  0  0  0
  195.5160  173.2310  137.2150 C   0  0  0  0  0  3  0  0  0  0  0  0
  196.7490  173.9830  139.1650 C   0  0  0  0  0  3  0  0  0  0  0  0
  197.4060  174.9300  138.3810 C   0  0  0  0  0  3  0  0  0  0  0  0
  195.8490  174.2730  135.0740 O   0  0  0  0  0  0  0  0  0  0  0  0
  195.2410  175.3990  134.5530 N   0  0  0  0  0  1  0  0  0  0  0  0
  193.7200  176.4800  146.3580 C   0  0  0  0  0  0  0  0  0  0  0  0
  194.5700  177.5370  146.6740 O   0  0  0  0  0  0  0  0  0  0  0  0
  193.0970  175.8810  147.2750 O   0  0  0  0  0  1  0  0  0  0  0  0
  190.7850  172.3120  138.6770 C   0  0  0  0  0  2  0  0  0  0  0  0
  190.1320  171.0690  139.2800 C   0  0  1  0  0  3  0  0  0  0  0  0
  189.7870  170.0430  138.2130 C   0  0  0  0  0  1  0  0  0  0  0  0
  190.8460  170.5210  140.3710 O   0  0  0  0  0  0  0  0  0  0  0  0
  191.1600  169.1740  140.0910 C   0  0  0  0  0  2  0  0  0  0  0  0
  192.2630  168.7510  140.9280 N   0  0  0  0  0  2  0  0  0  0  0  0
  191.7160  168.4210  142.2350 C   0  0  0  0  0  2  0  0  0  0  0  0
  192.8660  169.7580  143.9000 C   0  0  0  0  0  0  0  0  0  0  0  0
  192.7250  168.6380  143.2600 N   0  0  0  0  0  0  0  0  0  0  0  0
  191.9910  170.8560  143.6610 N   0  0  0  0  0  1  0  0  0  0  0  0
  193.8550  169.8630  144.9100 N   0  0  0  0  0  1  0  0  0  0  0  0
  1 19  1  0  0  0  0
  1 28  1  1  0  0  0
  3  7  1  1  0  0  0
  3 25  1  0  0  0  0
  3 19  1  0  0  0  0
  5 32  1  6  0  0  0
  6 11  1  0  0  0  0
  8  4  1  0  0  0  0
  9 14  1  0  0  0  0
 10 17  2  0  0  0  0
 10  7  1  0  0  0  0
 11 25  1  0  0  0  0
 11  2  2  0  0  0  0
 12  2  1  0  0  0  0
 13  9  2  0  0  0  0
 14 26  1  0  0  0  0
 15  9  1  0  0  0  0
 16  4  1  6  0  0  0
 16 27  1  0  0  0  0
 18 12  2  0  0  0  0
 20  5  1  0  0  0  0
 20 15  1  0  0  0  0
 22 16  1  0  0  0  0
 22 10  1  0  0  0  0
 23  5  1  0  0  0  0
 23 21  2  0  0  0  0
 24  6  2  0  0  0  0
 24 18  1  0  0  0  0
 25 38  1  1  0  0  0
 26 18  1  0  0  0  0
 27  1  1  0  0  0  0
 29 21  1  0  0  0  0
 29  8  1  0  0  0  0
 30 31  2  0  0  0  0
 30 33  1  0  0  0  0
 31 35  1  0  0  0  0
 32 34  1  0  0  0  0
 33 32  2  0  0  0  0
 35 34  2  0  0  0  0
 36 30  1  0  0  0  0
 37 36  1  0  0  0  0
 38 39  2  0  0  0  0
 38 40  1  0  0  0  0
 41 42  1  0  0  0  0
 41 29  1  0  0  0  0
 42 43  1  6  0  0  0
 42 44  1  0  0  0  0
 45 44  1  0  0  0  0
 45 46  1  0  0  0  0
 46 47  1  0  0  0  0
 47 49  1  0  0  0  0
 48 51  1  0  0  0  0
 49 48  2  0  0  0  0
 50 48  1  0  0  0  0
M  END
>  <MODEL>
9

>  <REMARK>
 VINA RESULT:      -6.1      3.646      8.476
  Name = 
  10 active torsions:
  status: ('A' for Active; 'I' for Inactive)
    1  A    between atoms: C_5  and  O_11
    2  A    between atoms: C_7  and  C_33
    3  A    between atoms: C_10  and  N_23
    4  A    between atoms: C_10  and  O_25
    5  A    between atoms: C_13  and  C_44
    6  A    between atoms: C_14  and  N_15
    7  A    between atoms: C_14  and  N_23
    8  A    between atoms: C_20  and  C_34
    9  A    between atoms: C_20  and  N_51
   10  A    between atoms: O_25  and  C_34
                            x       y       z     vdW  Elec       q    Type
                         _______ _______ _______ _____ _____    ______ ____

>  <TORSDO>
F 10

$$$$
