=
 OpenBabel11062419033D

 68 77  0  0  1  0  0  0  0  0999 V2000
  189.9540  174.9530  143.3920 C   0  0  0  0  0  2  0  0  0  0  0  0
  190.9270  176.5060  146.6260 C   0  0  0  0  0  2  0  0  0  0  0  0
  193.8240  172.0580  144.6220 C   0  0  1  0  0  3  0  0  0  0  0  0
  192.6480  172.7920  143.9830 C   0  0  0  0  0  2  0  0  0  0  0  0
  196.4690  171.1340  145.2770 C   0  0  1  0  0  3  0  0  0  0  0  0
  189.8100  176.0820  145.6760 C   0  0  1  0  0  3  0  0  0  0  0  0
  193.5140  176.0220  146.4670 C   0  0  0  0  0  0  0  0  0  0  0  0
  194.4980  175.0960  145.9860 N   0  0  0  0  0  0  0  0  0  0  0  0
  197.1500  173.4800  145.8410 C   0  0  0  0  0  1  0  0  0  0  0  0
  189.8690  173.6700  145.4080 O   0  0  0  0  0  1  0  0  0  0  0  0
  194.3070  170.8090  143.9210 C   0  0  0  0  0  2  0  0  0  0  0  0
  190.3420  174.8730  144.8760 C   0  0  1  0  0  0  0  0  0  0  0  0
  192.1170  175.8360  146.0440 C   0  0  0  0  0  0  0  0  0  0  0  0
  195.3550  170.1480  144.8250 C   0  0  0  0  0  2  0  0  0  0  0  0
  193.8310  176.9180  147.2900 O   0  0  0  0  0  0  0  0  0  0  0  0
  194.9640  173.0470  144.7070 C   0  0  2  0  0  3  0  0  0  0  0  0
  195.9660  172.5290  145.7390 C   0  0  1  0  0  3  0  0  0  0  0  0
  194.2170  174.2850  145.0070 C   0  0  0  0  0  0  0  0  0  0  0  0
  191.8130  174.9480  145.1090 C   0  0  0  0  0  0  0  0  0  0  0  0
  192.8920  174.2720  144.2950 C   0  0  2  0  0  3  0  0  0  0  0  0
  197.3640  170.5380  146.1930 O   0  0  0  0  0  0  0  0  0  0  0  0
  196.9740  169.2050  146.4060 C   0  0  0  0  0  1  0  0  0  0  0  0
  188.4830  175.8560  146.3860 C   0  0  0  0  0  2  0  0  0  0  0  0
  186.6620  177.4890  146.4720 C   0  0  0  0  0  3  0  0  0  0  0  0
  185.7270  178.4260  145.8340 C   0  0  0  0  0  0  0  0  0  0  0  0
  187.2590  176.5870  144.2330 C   0  0  0  0  0  2  0  0  0  0  0  0
  186.4020  177.7250  142.1850 C   0  0  0  0  0  3  0  0  0  0  0  0
  185.0930  178.5140  142.0760 C   0  0  0  0  0  3  0  0  0  0  0  0
  185.8920  178.6720  144.3600 C   0  0  2  0  0  0  0  0  0  0  0  0
  187.4340  176.6850  145.7300 C   0  0  0  0  0  0  0  0  0  0  0  0
  185.7030  180.0160  143.9710 O   0  0  0  0  0  0  0  0  0  0  0  0
  184.8710  179.0430  146.5210 O   0  0  0  0  0  0  0  0  0  0  0  0
  184.8090  179.0520  143.4600 C   0  0  1  0  0  0  0  0  0  0  0  0
  183.5190  179.0880  143.9980 O   0  0  0  0  0  1  0  0  0  0  0  0
  186.9740  177.9460  143.5850 C   0  0  1  0  0  3  0  0  0  0  0  0
  189.4570  173.6350  142.7990 C   0  0  1  0  0  3  0  0  0  0  0  0
  188.0950  173.7210  142.4900 O   0  0  0  0  0  1  0  0  0  0  0  0
  190.2720  173.2710  141.5620 C   0  0  2  0  0  3  0  0  0  0  0  0
  191.1560  174.3050  141.2350 O   0  0  0  0  0  1  0  0  0  0  0  0
  189.3420  172.9850  140.3970 C   0  0  0  0  0  2  0  0  0  0  0  0
  190.1280  172.8850  139.0980 C   0  0  0  0  0  2  0  0  0  0  0  0
  190.6970  169.6210  141.0400 F   0  0  0  0  0  0  0  0  0  0  0  0
  193.3690  172.3530  138.6790 C   0  0  1  0  0  3  0  0  0  0  0  0
  191.0020  171.7160  139.1480 N   0  0  0  0  0  0  0  0  0  0  0  0
  193.7830  171.6720  140.3240 S   0  0  0  0  0  0  0  0  0  0  0  0
  192.0620  171.7690  138.1340 C   0  0  1  0  0  3  0  0  0  0  0  0
  194.0730  169.9780  139.6860 C   0  0  2  0  0  3  0  0  0  0  0  0
  190.7210  169.3420  139.6740 C   0  0  1  0  0  3  0  0  0  0  0  0
  190.1960  170.5330  138.8790 C   0  0  0  0  0  2  0  0  0  0  0  0
  192.9710  169.0320  140.1480 C   0  0  0  0  0  2  0  0  0  0  0  0
  191.9750  168.9190  139.1610 O   0  0  0  0  0  0  0  0  0  0  0  0
  196.5100  169.7320  138.8780 C   0  0  0  0  0  2  0  0  0  0  0  0
  195.4710  169.3830  139.9370 C   0  0  0  0  0  3  0  0  0  0  0  0
  196.4980  170.4760  140.1980 C   0  0  0  0  0  2  0  0  0  0  0  0
  193.3400  173.8800  138.7200 C   0  0  1  0  0  3  0  0  0  0  0  0
  194.5000  174.5990  138.0980 C   0  0  2  0  0  3  0  0  0  0  0  0
  193.3010  174.3620  137.3980 O   0  0  0  0  0  0  0  0  0  0  0  0
  195.6170  173.7270  137.5740 C   0  0  0  0  0  0  0  0  0  0  0  0
  195.5310  173.1640  136.4940 O   0  0  0  0  0  0  0  0  0  0  0  0
  196.8260  173.5130  138.4380 C   0  0  0  0  0  2  0  0  0  0  0  0
  197.9370  175.6930  139.0650 C   0  0  0  0  0  1  0  0  0  0  0  0
  197.0070  174.5870  139.5200 C   0  0  2  0  0  3  0  0  0  0  0  0
  197.4880  174.0120  140.8510 C   0  0  0  0  0  2  0  0  0  0  0  0
  196.7760  174.6710  142.0190 C   0  0  2  0  0  3  0  0  0  0  0  0
  195.3840  175.0900  141.5860 C   0  0  0  0  0  1  0  0  0  0  0  0
  197.4930  175.7980  142.4300 O   0  0  0  0  0  1  0  0  0  0  0  0
  191.6530  172.3890  136.9440 O   0  0  0  0  0  0  0  0  0  0  0  0
  192.0890  171.5940  135.9880 O   0  0  0  0  0  1  0  0  0  0  0  0
  1 12  1  0  0  0  0
  3 11  1  6  0  0  0
  3 16  1  0  0  0  0
  4  3  1  0  0  0  0
  5 17  1  0  0  0  0
  5 21  1  1  0  0  0
  6 23  1  1  0  0  0
  6  2  1  0  0  0  0
  7 15  2  0  0  0  0
  8  7  1  0  0  0  0
 11 14  1  0  0  0  0
 12 19  1  0  0  0  0
 12 10  1  1  0  0  0
 12  6  1  0  0  0  0
 13  7  1  0  0  0  0
 13  2  1  0  0  0  0
 14  5  1  0  0  0  0
 16 18  1  1  0  0  0
 16 17  1  0  0  0  0
 17  9  1  6  0  0  0
 18  8  2  0  0  0  0
 19 13  2  0  0  0  0
 20  4  1  1  0  0  0
 20 18  1  0  0  0  0
 20 19  1  0  0  0  0
 21 22  1  0  0  0  0
 25 24  1  0  0  0  0
 25 32  2  0  0  0  0
 26 30  1  0  0  0  0
 28 27  2  0  0  0  0
 28 33  1  0  0  0  0
 29 31  1  1  0  0  0
 29 25  1  0  0  0  0
 30 23  1  0  0  0  0
 30 24  2  0  0  0  0
 33 31  1  0  0  0  0
 33 34  1  1  0  0  0
 33 29  1  0  0  0  0
 35 27  1  6  0  0  0
 35 26  1  0  0  0  0
 35 29  1  0  0  0  0
 36 37  1  6  0  0  0
 36  1  1  0  0  0  0
 38 39  1  6  0  0  0
 38 36  1  0  0  0  0
 40 38  1  0  0  0  0
 41 44  1  0  0  0  0
 41 40  1  0  0  0  0
 43 55  1  0  0  0  0
 43 45  1  1  0  0  0
 46 67  1  6  0  0  0
 46 43  1  0  0  0  0
 46 44  1  0  0  0  0
 47 53  1  1  0  0  0
 47 50  1  0  0  0  0
 47 45  1  0  0  0  0
 48 42  1  1  0  0  0
 49 44  1  0  0  0  0
 49 48  1  0  0  0  0
 51 48  1  0  0  0  0
 51 50  1  0  0  0  0
 52 53  1  0  0  0  0
 52 54  1  0  0  0  0
 53 54  1  0  0  0  0
 55 57  1  6  0  0  0
 56 58  1  6  0  0  0
 56 55  1  0  0  0  0
 57 56  1  0  0  0  0
 58 60  1  0  0  0  0
 59 58  2  0  0  0  0
 60 62  1  0  0  0  0
 62 61  1  6  0  0  0
 62 63  1  0  0  0  0
 63 64  1  0  0  0  0
 64 65  1  6  0  0  0
 64 66  1  0  0  0  0
 68 67  1  0  0  0  0
M  END
>  <MODEL>
1

>  <REMARK>
 VINA RESULT:      -7.7      0.000      0.000
  Name = 
  17 active torsions:
  status: ('A' for Active; 'I' for Inactive)
    1  A    between atoms: C_4  and  O_15
    2  A    between atoms: C_5  and  C_31
    3  A    between atoms: C_6  and  C_47
    4  A    between atoms: C_8  and  C_13
    5  A    between atoms: C_8  and  C_26
    6  A    between atoms: C_12  and  C_21
    7  A    between atoms: C_12  and  C_36
    8  A    between atoms: C_13  and  C_37
    9  A    between atoms: C_18  and  C_34
   10  A    between atoms: C_21  and  C_22
   11  A    between atoms: C_22  and  C_31
   12  A    between atoms: N_24  and  C_45
   13  A    between atoms: C_26  and  C_32
   14  A    between atoms: C_30  and  O_39
   15  A    between atoms: C_37  and  C_45
   16  A    between atoms: C_40  and  C_50
   17  A    between atoms: C_47  and  C_49
                            x       y       z     vdW  Elec       q    Type
                         _______ _______ _______ _____ _____    ______ ____

>  <TORSDO>
F 17

$$$$
=
 OpenBabel11062419033D

 68 77  0  0  1  0  0  0  0  0999 V2000
  191.3120  175.8450  144.9150 C   0  0  0  0  0  2  0  0  0  0  0  0
  190.2550  173.2880  142.4340 C   0  0  0  0  0  2  0  0  0  0  0  0
  186.7220  177.4900  143.8680 C   0  0  1  0  0  3  0  0  0  0  0  0
  188.1510  177.2440  144.3460 C   0  0  0  0  0  2  0  0  0  0  0  0
  184.4160  178.5130  142.4850 C   0  0  1  0  0  3  0  0  0  0  0  0
  191.0050  173.6100  143.7230 C   0  0  1  0  0  3  0  0  0  0  0  0
  188.7010  174.8490  140.9840 C   0  0  0  0  0  0  0  0  0  0  0  0
  187.8080  175.9700  141.0300 N   0  0  0  0  0  0  0  0  0  0  0  0
  185.4240  177.8250  140.2950 C   0  0  0  0  0  1  0  0  0  0  0  0
  189.4280  174.4440  145.3710 O   0  0  0  0  0  1  0  0  0  0  0  0
  185.9670  178.6170  144.5350 C   0  0  0  0  0  2  0  0  0  0  0  0
  190.3030  174.8340  144.3520 C   0  0  1  0  0  0  0  0  0  0  0  0
  189.4880  174.5350  142.1870 C   0  0  0  0  0  0  0  0  0  0  0  0
  184.5180  178.5600  144.0350 C   0  0  0  0  0  2  0  0  0  0  0  0
  188.7470  174.1120  139.9660 O   0  0  0  0  0  0  0  0  0  0  0  0
  186.7980  177.7590  142.3830 C   0  0  2  0  0  3  0  0  0  0  0  0
  185.4060  177.5380  141.7890 C   0  0  1  0  0  3  0  0  0  0  0  0
  187.8830  176.8330  142.0020 C   0  0  0  0  0  0  0  0  0  0  0  0
  189.4990  175.3690  143.2160 C   0  0  0  0  0  0  0  0  0  0  0  0
  188.9020  176.7530  143.1050 C   0  0  2  0  0  3  0  0  0  0  0  0
  183.0830  178.3520  142.0460 O   0  0  0  0  0  0  0  0  0  0  0  0
  182.2250  178.9910  142.9580 C   0  0  0  0  0  1  0  0  0  0  0  0
  191.1490  172.4050  144.6410 C   0  0  0  0  0  2  0  0  0  0  0  0
  192.9760  170.8610  144.1170 C   0  0  0  0  0  3  0  0  0  0  0  0
  194.4020  170.5210  144.0240 C   0  0  0  0  0  0  0  0  0  0  0  0
  193.5630  172.8990  145.4140 C   0  0  0  0  0  2  0  0  0  0  0  0
  195.9590  173.5510  145.6540 C   0  0  0  0  0  3  0  0  0  0  0  0
  197.1560  172.5950  145.6530 C   0  0  0  0  0  3  0  0  0  0  0  0
  195.3940  171.6160  144.3040 C   0  0  2  0  0  0  0  0  0  0  0  0
  192.5830  172.0040  144.6930 C   0  0  0  0  0  0  0  0  0  0  0  0
  196.5180  171.6130  143.4510 O   0  0  0  0  0  0  0  0  0  0  0  0
  194.7640  169.3730  143.6560 O   0  0  0  0  0  0  0  0  0  0  0  0
  196.7380  171.3990  144.8270 C   0  0  1  0  0  0  0  0  0  0  0  0
  197.0780  170.0900  145.1820 O   0  0  0  0  0  1  0  0  0  0  0  0
  194.9090  173.0000  144.6900 C   0  0  1  0  0  3  0  0  0  0  0  0
  192.2010  176.5030  143.8590 C   0  0  1  0  0  3  0  0  0  0  0  0
  191.9740  177.8840  143.8230 O   0  0  0  0  0  1  0  0  0  0  0  0
  193.6690  176.2020  144.1400 C   0  0  2  0  0  3  0  0  0  0  0  0
  194.2020  177.1420  145.0290 O   0  0  0  0  0  1  0  0  0  0  0  0
  194.4530  176.2020  142.8410 C   0  0  0  0  0  2  0  0  0  0  0  0
  193.8490  175.2180  141.8500 C   0  0  0  0  0  2  0  0  0  0  0  0
  197.2430  176.2590  140.3860 F   0  0  0  0  0  0  0  0  0  0  0  0
  193.8550  173.7080  138.9040 C   0  0  1  0  0  3  0  0  0  0  0  0
  194.8790  174.7770  140.9130 N   0  0  0  0  0  0  0  0  0  0  0  0
  194.6970  174.9870  137.9060 S   0  0  0  0  0  0  0  0  0  0  0  0
  194.5340  173.5070  140.2630 C   0  0  1  0  0  3  0  0  0  0  0  0
  196.2260  173.9950  137.7020 C   0  0  2  0  0  3  0  0  0  0  0  0
  197.3190  174.9290  140.7960 C   0  0  1  0  0  3  0  0  0  0  0  0
  196.1130  174.5690  141.6580 C   0  0  0  0  0  2  0  0  0  0  0  0
  197.3740  174.6040  138.4990 C   0  0  0  0  0  2  0  0  0  0  0  0
  197.4840  173.9780  139.7550 O   0  0  0  0  0  0  0  0  0  0  0  0
  195.7460  172.6880  135.5300 C   0  0  0  0  0  2  0  0  0  0  0  0
  196.6480  173.6810  136.2550 C   0  0  0  0  0  3  0  0  0  0  0  0
  195.6090  174.1730  135.2570 C   0  0  0  0  0  2  0  0  0  0  0  0
  192.3690  174.0300  139.0490 C   0  0  1  0  0  3  0  0  0  0  0  0
  191.4270  173.3300  138.1140 C   0  0  2  0  0  3  0  0  0  0  0  0
  191.6890  172.8520  139.4130 O   0  0  0  0  0  0  0  0  0  0  0  0
  192.0650  172.4450  137.0700 C   0  0  0  0  0  0  0  0  0  0  0  0
  192.3340  172.8680  135.9570 O   0  0  0  0  0  0  0  0  0  0  0  0
  192.3100  171.0030  137.4050 C   0  0  0  0  0  2  0  0  0  0  0  0
  190.0510  170.8240  136.2890 C   0  0  0  0  0  1  0  0  0  0  0  0
  191.1730  170.0670  136.9700 C   0  0  2  0  0  3  0  0  0  0  0  0
  190.6190  169.2320  138.1220 C   0  0  0  0  0  2  0  0  0  0  0  0
  191.3870  169.4950  139.4050 C   0  0  2  0  0  3  0  0  0  0  0  0
  191.8380  168.1750  140.0000 C   0  0  0  0  0  1  0  0  0  0  0  0
  190.5630  170.1580  140.3180 O   0  0  0  0  0  1  0  0  0  0  0  0
  193.8150  172.6400  141.0980 O   0  0  0  0  0  0  0  0  0  0  0  0
  194.2510  171.4370  140.7820 O   0  0  0  0  0  1  0  0  0  0  0  0
  2  6  1  0  0  0  0
  3  4  1  1  0  0  0
  3 11  1  0  0  0  0
  5 21  1  1  0  0  0
  5 14  1  0  0  0  0
  6 12  1  0  0  0  0
  6 23  1  1  0  0  0
  7  8  1  0  0  0  0
  7 13  1  0  0  0  0
  8 18  2  0  0  0  0
 12  1  1  0  0  0  0
 12 10  1  1  0  0  0
 13  2  1  0  0  0  0
 13 19  2  0  0  0  0
 14 11  1  0  0  0  0
 15  7  2  0  0  0  0
 16 18  1  6  0  0  0
 16  3  1  0  0  0  0
 17  9  1  6  0  0  0
 17 16  1  0  0  0  0
 17  5  1  0  0  0  0
 18 20  1  0  0  0  0
 19 12  1  0  0  0  0
 20 19  1  0  0  0  0
 20  4  1  1  0  0  0
 21 22  1  0  0  0  0
 23 30  1  0  0  0  0
 24 30  2  0  0  0  0
 25 24  1  0  0  0  0
 25 29  1  0  0  0  0
 28 27  2  0  0  0  0
 29 31  1  6  0  0  0
 29 35  1  0  0  0  0
 29 33  1  0  0  0  0
 30 26  1  0  0  0  0
 31 33  1  0  0  0  0
 32 25  2  0  0  0  0
 33 34  1  1  0  0  0
 33 28  1  0  0  0  0
 35 26  1  1  0  0  0
 35 27  1  0  0  0  0
 36 37  1  1  0  0  0
 36 38  1  0  0  0  0
 36  1  1  0  0  0  0
 38 39  1  1  0  0  0
 40 38  1  0  0  0  0
 41 40  1  0  0  0  0
 43 45  1  1  0  0  0
 43 55  1  0  0  0  0
 43 46  1  0  0  0  0
 44 49  1  0  0  0  0
 44 41  1  0  0  0  0
 46 44  1  0  0  0  0
 46 67  1  1  0  0  0
 47 53  1  6  0  0  0
 47 45  1  0  0  0  0
 47 50  1  0  0  0  0
 48 42  1  6  0  0  0
 48 49  1  0  0  0  0
 50 51  1  0  0  0  0
 51 48  1  0  0  0  0
 52 53  1  0  0  0  0
 54 52  1  0  0  0  0
 54 53  1  0  0  0  0
 55 57  1  1  0  0  0
 56 58  1  6  0  0  0
 56 55  1  0  0  0  0
 56 57  1  0  0  0  0
 58 60  1  0  0  0  0
 59 58  2  0  0  0  0
 62 61  1  1  0  0  0
 62 60  1  0  0  0  0
 62 63  1  0  0  0  0
 63 64  1  0  0  0  0
 64 65  1  1  0  0  0
 64 66  1  0  0  0  0
 68 67  1  0  0  0  0
M  END
>  <MODEL>
2

>  <REMARK>
 VINA RESULT:      -7.1      2.396      8.634
  Name = 
  17 active torsions:
  status: ('A' for Active; 'I' for Inactive)
    1  A    between atoms: C_4  and  O_15
    2  A    between atoms: C_5  and  C_31
    3  A    between atoms: C_6  and  C_47
    4  A    between atoms: C_8  and  C_13
    5  A    between atoms: C_8  and  C_26
    6  A    between atoms: C_12  and  C_21
    7  A    between atoms: C_12  and  C_36
    8  A    between atoms: C_13  and  C_37
    9  A    between atoms: C_18  and  C_34
   10  A    between atoms: C_21  and  C_22
   11  A    between atoms: C_22  and  C_31
   12  A    between atoms: N_24  and  C_45
   13  A    between atoms: C_26  and  C_32
   14  A    between atoms: C_30  and  O_39
   15  A    between atoms: C_37  and  C_45
   16  A    between atoms: C_40  and  C_50
   17  A    between atoms: C_47  and  C_49
                            x       y       z     vdW  Elec       q    Type
                         _______ _______ _______ _____ _____    ______ ____

>  <TORSDO>
F 17

$$$$
=
 OpenBabel11062419033D

 68 77  0  0  1  0  0  0  0  0999 V2000
  190.0960  175.4640  143.4300 C   0  0  0  0  0  2  0  0  0  0  0  0
  191.3200  176.6570  146.7310 C   0  0  0  0  0  2  0  0  0  0  0  0
  194.1960  172.6630  143.9060 C   0  0  1  0  0  3  0  0  0  0  0  0
  192.9290  173.4030  143.4810 C   0  0  0  0  0  2  0  0  0  0  0  0
  196.9310  171.8170  144.1840 C   0  0  1  0  0  3  0  0  0  0  0  0
  190.1340  176.2910  145.8430 C   0  0  1  0  0  3  0  0  0  0  0  0
  193.8970  176.3440  146.2670 C   0  0  0  0  0  0  0  0  0  0  0  0
  194.8670  175.5420  145.5800 N   0  0  0  0  0  0  0  0  0  0  0  0
  197.5600  174.1090  144.9790 C   0  0  0  0  0  1  0  0  0  0  0  0
  190.2720  173.9370  145.2620 O   0  0  0  0  0  1  0  0  0  0  0  0
  194.6600  171.5400  143.0070 C   0  0  0  0  0  2  0  0  0  0  0  0
  190.6350  175.2220  144.8480 C   0  0  1  0  0  0  0  0  0  0  0  0
  192.4740  176.1330  145.9570 C   0  0  0  0  0  0  0  0  0  0  0  0
  195.8220  170.8330  143.7150 C   0  0  0  0  0  2  0  0  0  0  0  0
  194.2560  177.1470  147.1650 O   0  0  0  0  0  0  0  0  0  0  0  0
  195.2930  173.6970  144.0100 C   0  0  2  0  0  3  0  0  0  0  0  0
  196.4160  173.1130  144.8670 C   0  0  1  0  0  3  0  0  0  0  0  0
  194.5260  174.8430  144.5360 C   0  0  0  0  0  0  0  0  0  0  0  0
  192.1180  175.3520  144.9490 C   0  0  0  0  0  0  0  0  0  0  0  0
  193.1380  174.8440  143.9560 C   0  0  2  0  0  3  0  0  0  0  0  0
  197.9390  171.1640  144.9270 O   0  0  0  0  0  0  0  0  0  0  0  0
  197.3350  170.2410  145.7990 C   0  0  0  0  0  1  0  0  0  0  0  0
  188.8960  175.9030  146.6400 C   0  0  0  0  0  2  0  0  0  0  0  0
  187.2030  177.6260  147.0410 C   0  0  0  0  0  3  0  0  0  0  0  0
  186.1750  178.5680  146.5790 C   0  0  0  0  0  0  0  0  0  0  0  0
  187.2200  176.5670  144.7910 C   0  0  0  0  0  2  0  0  0  0  0  0
  185.9380  177.6240  142.9310 C   0  0  0  0  0  3  0  0  0  0  0  0
  184.6680  178.4670  143.0790 C   0  0  0  0  0  3  0  0  0  0  0  0
  185.9930  178.7190  145.0950 C   0  0  2  0  0  0  0  0  0  0  0  0
  187.7500  176.7430  146.1950 C   0  0  0  0  0  0  0  0  0  0  0  0
  185.7610  180.0460  144.6700 O   0  0  0  0  0  0  0  0  0  0  0  0
  185.5280  179.2650  147.4050 O   0  0  0  0  0  0  0  0  0  0  0  0
  184.7400  179.0990  144.4520 C   0  0  1  0  0  0  0  0  0  0  0  0
  183.6170  179.2290  145.2740 O   0  0  0  0  0  1  0  0  0  0  0  0
  186.8340  177.8980  144.1380 C   0  0  1  0  0  3  0  0  0  0  0  0
  189.4190  174.2470  142.7980 C   0  0  1  0  0  3  0  0  0  0  0  0
  188.2700  174.6360  142.1010 O   0  0  0  0  0  1  0  0  0  0  0  0
  190.3920  173.5190  141.8770 C   0  0  2  0  0  3  0  0  0  0  0  0
  190.5070  174.1920  140.6550 O   0  0  0  0  0  1  0  0  0  0  0  0
  189.9210  172.0940  141.6500 C   0  0  0  0  0  2  0  0  0  0  0  0
  190.0680  171.7090  140.1860 C   0  0  0  0  0  2  0  0  0  0  0  0
  192.7090  169.7970  142.2150 F   0  0  0  0  0  0  0  0  0  0  0  0
  192.2470  170.8070  137.8630 C   0  0  1  0  0  3  0  0  0  0  0  0
  191.0730  170.6570  140.0600 N   0  0  0  0  0  0  0  0  0  0  0  0
  193.8000  170.9990  138.8080 S   0  0  0  0  0  0  0  0  0  0  0  0
  191.1560  170.1250  138.6940 C   0  0  1  0  0  3  0  0  0  0  0  0
  194.1140  169.1940  138.8950 C   0  0  2  0  0  3  0  0  0  0  0  0
  191.9380  168.8800  141.5040 C   0  0  1  0  0  3  0  0  0  0  0  0
  190.6950  169.5570  140.9370 C   0  0  0  0  0  2  0  0  0  0  0  0
  193.9220  168.6820  140.3180 C   0  0  0  0  0  2  0  0  0  0  0  0
  192.6220  168.1690  140.4830 O   0  0  0  0  0  0  0  0  0  0  0  0
  195.5730  168.9110  136.7870 C   0  0  0  0  0  2  0  0  0  0  0  0
  195.4420  168.7020  138.2910 C   0  0  0  0  0  3  0  0  0  0  0  0
  196.2640  169.8610  137.7450 C   0  0  0  0  0  2  0  0  0  0  0  0
  191.7860  172.1520  137.3050 C   0  0  1  0  0  3  0  0  0  0  0  0
  192.3360  172.5590  135.9700 C   0  0  2  0  0  3  0  0  0  0  0  0
  191.0860  171.9230  136.1050 O   0  0  0  0  0  0  0  0  0  0  0  0
  193.3570  171.6280  135.3610 C   0  0  0  0  0  0  0  0  0  0  0  0
  193.0260  170.5770  134.8360 O   0  0  0  0  0  0  0  0  0  0  0  0
  194.8100  171.9910  135.4660 C   0  0  0  0  0  2  0  0  0  0  0  0
  195.1290  174.3080  134.5130 C   0  0  0  0  0  1  0  0  0  0  0  0
  195.0550  173.4740  135.7760 C   0  0  2  0  0  3  0  0  0  0  0  0
  196.2990  173.7040  136.6310 C   0  0  0  0  0  2  0  0  0  0  0  0
  195.9390  174.3700  137.9480 C   0  0  2  0  0  3  0  0  0  0  0  0
  194.5170  174.8900  137.8750 C   0  0  0  0  0  1  0  0  0  0  0  0
  196.8110  175.4340  138.1890 O   0  0  0  0  0  1  0  0  0  0  0  0
  189.9160  170.1050  138.0380 O   0  0  0  0  0  0  0  0  0  0  0  0
  189.9620  169.0320  137.2740 O   0  0  0  0  0  1  0  0  0  0  0  0
  1 12  1  0  0  0  0
  3 11  1  6  0  0  0
  3 16  1  0  0  0  0
  4  3  1  0  0  0  0
  5 17  1  0  0  0  0
  5 21  1  1  0  0  0
  6 23  1  1  0  0  0
  6  2  1  0  0  0  0
  7 15  2  0  0  0  0
  8  7  1  0  0  0  0
 11 14  1  0  0  0  0
 12 19  1  0  0  0  0
 12 10  1  1  0  0  0
 12  6  1  0  0  0  0
 13  7  1  0  0  0  0
 13  2  1  0  0  0  0
 14  5  1  0  0  0  0
 16 18  1  1  0  0  0
 16 17  1  0  0  0  0
 17  9  1  6  0  0  0
 18  8  2  0  0  0  0
 19 13  2  0  0  0  0
 20  4  1  1  0  0  0
 20 18  1  0  0  0  0
 20 19  1  0  0  0  0
 21 22  1  0  0  0  0
 25 24  1  0  0  0  0
 25 32  2  0  0  0  0
 26 30  1  0  0  0  0
 27 28  2  0  0  0  0
 28 33  1  0  0  0  0
 29 31  1  6  0  0  0
 29 25  1  0  0  0  0
 30 23  1  0  0  0  0
 30 24  2  0  0  0  0
 33 31  1  0  0  0  0
 33 29  1  0  0  0  0
 33 34  1  1  0  0  0
 35 27  1  6  0  0  0
 35 26  1  0  0  0  0
 35 29  1  0  0  0  0
 36 37  1  6  0  0  0
 36  1  1  0  0  0  0
 38 39  1  6  0  0  0
 38 36  1  0  0  0  0
 40 38  1  0  0  0  0
 41 40  1  0  0  0  0
 43 46  1  0  0  0  0
 43 45  1  1  0  0  0
 44 41  1  0  0  0  0
 44 49  1  0  0  0  0
 45 47  1  0  0  0  0
 46 67  1  6  0  0  0
 46 44  1  0  0  0  0
 47 53  1  1  0  0  0
 47 50  1  0  0  0  0
 48 42  1  6  0  0  0
 49 48  1  0  0  0  0
 50 51  1  0  0  0  0
 51 48  1  0  0  0  0
 52 54  1  0  0  0  0
 52 53  1  0  0  0  0
 54 53  1  0  0  0  0
 55 57  1  6  0  0  0
 55 43  1  0  0  0  0
 56 58  1  6  0  0  0
 56 57  1  0  0  0  0
 56 55  1  0  0  0  0
 58 60  1  0  0  0  0
 59 58  2  0  0  0  0
 60 62  1  0  0  0  0
 62 61  1  6  0  0  0
 62 63  1  0  0  0  0
 63 64  1  0  0  0  0
 64 65  1  6  0  0  0
 64 66  1  0  0  0  0
 68 67  1  0  0  0  0
M  END
>  <MODEL>
3

>  <REMARK>
 VINA RESULT:      -6.4      1.503      2.118
  Name = 
  17 active torsions:
  status: ('A' for Active; 'I' for Inactive)
    1  A    between atoms: C_4  and  O_15
    2  A    between atoms: C_5  and  C_31
    3  A    between atoms: C_6  and  C_47
    4  A    between atoms: C_8  and  C_13
    5  A    between atoms: C_8  and  C_26
    6  A    between atoms: C_12  and  C_21
    7  A    between atoms: C_12  and  C_36
    8  A    between atoms: C_13  and  C_37
    9  A    between atoms: C_18  and  C_34
   10  A    between atoms: C_21  and  C_22
   11  A    between atoms: C_22  and  C_31
   12  A    between atoms: N_24  and  C_45
   13  A    between atoms: C_26  and  C_32
   14  A    between atoms: C_30  and  O_39
   15  A    between atoms: C_37  and  C_45
   16  A    between atoms: C_40  and  C_50
   17  A    between atoms: C_47  and  C_49
                            x       y       z     vdW  Elec       q    Type
                         _______ _______ _______ _____ _____    ______ ____

>  <TORSDO>
F 17

$$$$
=
 OpenBabel11062419033D

 68 77  0  0  1  0  0  0  0  0999 V2000
  190.5150  174.3080  141.3210 C   0  0  0  0  0  2  0  0  0  0  0  0
  187.4780  175.0900  139.3270 C   0  0  0  0  0  2  0  0  0  0  0  0
  187.7260  176.5240  144.8110 C   0  0  1  0  0  3  0  0  0  0  0  0
  188.7970  175.8520  143.9550 C   0  0  0  0  0  2  0  0  0  0  0  0
  186.1870  178.4590  146.2820 C   0  0  1  0  0  3  0  0  0  0  0  0
  188.6130  174.1170  139.6310 C   0  0  1  0  0  3  0  0  0  0  0  0
  186.8020  177.2990  140.5970 C   0  0  0  0  0  0  0  0  0  0  0  0
  186.8050  177.9570  141.8710 N   0  0  0  0  0  0  0  0  0  0  0  0
  185.8890  179.8110  144.1930 C   0  0  0  0  0  1  0  0  0  0  0  0
  188.4090  173.3510  141.9260 O   0  0  0  0  0  1  0  0  0  0  0  0
  188.0210  176.6540  146.2880 C   0  0  0  0  0  2  0  0  0  0  0  0
  188.9940  174.3260  141.1130 C   0  0  1  0  0  0  0  0  0  0  0  0
  187.5640  176.0490  140.4570 C   0  0  0  0  0  0  0  0  0  0  0  0
  186.7510  177.1820  146.9670 C   0  0  0  0  0  2  0  0  0  0  0  0
  186.0990  177.7430  139.6530 O   0  0  0  0  0  0  0  0  0  0  0  0
  187.5010  177.9010  144.2300 C   0  0  2  0  0  3  0  0  0  0  0  0
  186.1500  178.4120  144.7300 C   0  0  1  0  0  3  0  0  0  0  0  0
  187.6580  177.6080  142.7910 C   0  0  0  0  0  0  0  0  0  0  0  0
  188.3680  175.6430  141.4280 C   0  0  0  0  0  0  0  0  0  0  0  0
  188.7030  176.5460  142.5920 C   0  0  2  0  0  3  0  0  0  0  0  0
  184.9610  178.8680  146.8520 O   0  0  0  0  0  0  0  0  0  0  0  0
  183.9950  177.8750  146.6120 C   0  0  0  0  0  1  0  0  0  0  0  0
  188.2830  172.6820  139.2440 C   0  0  0  0  0  2  0  0  0  0  0  0
  190.2590  173.0090  137.8350 C   0  0  0  0  0  3  0  0  0  0  0  0
  191.4030  172.5010  137.0660 C   0  0  0  0  0  0  0  0  0  0  0  0
  189.3640  170.6940  138.0000 C   0  0  0  0  0  2  0  0  0  0  0  0
  190.7590  168.7830  137.2100 C   0  0  0  0  0  3  0  0  0  0  0  0
  191.8110  168.8370  136.0980 C   0  0  0  0  0  3  0  0  0  0  0  0
  191.6820  171.0260  137.1340 C   0  0  2  0  0  0  0  0  0  0  0  0
  189.3480  172.1660  138.3390 C   0  0  0  0  0  0  0  0  0  0  0  0
  193.0530  170.6970  137.2020 O   0  0  0  0  0  0  0  0  0  0  0  0
  192.1520  173.2930  136.4360 O   0  0  0  0  0  0  0  0  0  0  0  0
  192.3280  170.2590  136.0750 C   0  0  1  0  0  0  0  0  0  0  0  0
  192.6090  170.9320  134.8830 O   0  0  0  0  0  1  0  0  0  0  0  0
  190.7830  170.1190  137.9520 C   0  0  1  0  0  3  0  0  0  0  0  0
  191.0600  172.9900  141.8740 C   0  0  1  0  0  3  0  0  0  0  0  0
  190.2870  171.9150  141.4210 O   0  0  0  0  0  1  0  0  0  0  0  0
  192.5210  172.8130  141.4770 C   0  0  2  0  0  3  0  0  0  0  0  0
  192.9230  173.8380  140.6140 O   0  0  0  0  0  1  0  0  0  0  0  0
  192.7170  171.4610  140.8160 C   0  0  0  0  0  2  0  0  0  0  0  0
  194.1900  171.2140  140.5290 C   0  0  0  0  0  2  0  0  0  0  0  0
  193.5410  168.3520  143.0070 F   0  0  0  0  0  0  0  0  0  0  0  0
  195.9910  172.1140  143.1580 C   0  0  1  0  0  3  0  0  0  0  0  0
  194.7940  170.5150  141.6610 N   0  0  0  0  0  0  0  0  0  0  0  0
  194.8820  171.5500  144.4970 S   0  0  0  0  0  0  0  0  0  0  0  0
  196.0970  171.0790  142.0330 C   0  0  1  0  0  3  0  0  0  0  0  0
  195.9920  170.1830  145.0070 C   0  0  2  0  0  3  0  0  0  0  0  0
  194.8230  168.2100  142.4820 C   0  0  1  0  0  3  0  0  0  0  0  0
  195.0100  169.1270  141.2770 C   0  0  0  0  0  2  0  0  0  0  0  0
  195.3850  168.8320  144.6440 C   0  0  0  0  0  2  0  0  0  0  0  0
  195.8850  168.3870  143.4070 O   0  0  0  0  0  0  0  0  0  0  0  0
  195.8750  169.1310  147.3590 C   0  0  0  0  0  2  0  0  0  0  0  0
  196.4810  170.2090  146.4670 C   0  0  0  0  0  3  0  0  0  0  0  0
  197.2750  168.9550  146.8060 C   0  0  0  0  0  2  0  0  0  0  0  0
  195.5540  173.4820  142.6370 C   0  0  1  0  0  3  0  0  0  0  0  0
  195.9120  174.6740  143.4740 C   0  0  2  0  0  3  0  0  0  0  0  0
  196.7040  174.2540  142.3880 O   0  0  0  0  0  0  0  0  0  0  0  0
  196.5920  174.3810  144.7900 C   0  0  0  0  0  0  0  0  0  0  0  0
  197.7340  173.9520  144.8340 O   0  0  0  0  0  0  0  0  0  0  0  0
  195.8120  174.5710  146.0590 C   0  0  0  0  0  2  0  0  0  0  0  0
  194.5700  176.6890  146.6510 C   0  0  0  0  0  1  0  0  0  0  0  0
  194.5260  175.3890  145.8750 C   0  0  2  0  0  3  0  0  0  0  0  0
  193.2680  174.6030  146.2370 C   0  0  0  0  0  2  0  0  0  0  0  0
  192.4410  174.2970  145.0000 C   0  0  2  0  0  3  0  0  0  0  0  0
  192.3680  175.5340  144.1270 C   0  0  0  0  0  1  0  0  0  0  0  0
  191.1510  173.9190  145.3800 O   0  0  0  0  0  1  0  0  0  0  0  0
  196.8230  171.5570  140.9320 O   0  0  0  0  0  0  0  0  0  0  0  0
  197.9360  170.8510  140.9360 O   0  0  0  0  0  1  0  0  0  0  0  0
  1 36  1  0  0  0  0
  2  6  1  0  0  0  0
  2 13  1  0  0  0  0
  3  4  1  6  0  0  0
  3 11  1  0  0  0  0
  5 21  1  1  0  0  0
  5 14  1  0  0  0  0
  6 23  1  1  0  0  0
  6 12  1  0  0  0  0
  7  8  1  0  0  0  0
  8 18  2  0  0  0  0
 11 14  1  0  0  0  0
 12  1  1  0  0  0  0
 12 19  1  0  0  0  0
 12 10  1  1  0  0  0
 13  7  1  0  0  0  0
 13 19  2  0  0  0  0
 15  7  2  0  0  0  0
 16 18  1  6  0  0  0
 16 17  1  0  0  0  0
 16  3  1  0  0  0  0
 17  9  1  6  0  0  0
 17  5  1  0  0  0  0
 19 20  1  0  0  0  0
 20 18  1  0  0  0  0
 20  4  1  1  0  0  0
 22 21  1  0  0  0  0
 24 30  2  0  0  0  0
 25 24  1  0  0  0  0
 26 30  1  0  0  0  0
 28 27  2  0  0  0  0
 29 25  1  6  0  0  0
 29 31  1  0  0  0  0
 29 35  1  0  0  0  0
 30 23  1  0  0  0  0
 32 25  2  0  0  0  0
 33 34  1  6  0  0  0
 33 28  1  0  0  0  0
 33 29  1  0  0  0  0
 33 31  1  0  0  0  0
 35 27  1  6  0  0  0
 35 26  1  0  0  0  0
 36 37  1  6  0  0  0
 38 39  1  6  0  0  0
 38 36  1  0  0  0  0
 40 38  1  0  0  0  0
 41 40  1  0  0  0  0
 41 44  1  0  0  0  0
 43 45  1  1  0  0  0
 44 46  1  0  0  0  0
 45 47  1  0  0  0  0
 46 67  1  6  0  0  0
 46 43  1  0  0  0  0
 47 53  1  1  0  0  0
 48 42  1  1  0  0  0
 48 51  1  0  0  0  0
 49 44  1  0  0  0  0
 49 48  1  0  0  0  0
 50 47  1  0  0  0  0
 51 50  1  0  0  0  0
 53 54  1  0  0  0  0
 53 52  1  0  0  0  0
 54 52  1  0  0  0  0
 55 57  1  6  0  0  0
 55 43  1  0  0  0  0
 55 56  1  0  0  0  0
 56 58  1  1  0  0  0
 57 56  1  0  0  0  0
 58 59  2  0  0  0  0
 58 60  1  0  0  0  0
 62 60  1  0  0  0  0
 62 63  1  0  0  0  0
 62 61  1  1  0  0  0
 64 65  1  6  0  0  0
 64 66  1  0  0  0  0
 64 63  1  0  0  0  0
 67 68  1  0  0  0  0
M  END
>  <MODEL>
4

>  <REMARK>
 VINA RESULT:      -6.4      2.433      8.424
  Name = 
  17 active torsions:
  status: ('A' for Active; 'I' for Inactive)
    1  A    between atoms: C_4  and  O_15
    2  A    between atoms: C_5  and  C_31
    3  A    between atoms: C_6  and  C_47
    4  A    between atoms: C_8  and  C_13
    5  A    between atoms: C_8  and  C_26
    6  A    between atoms: C_12  and  C_21
    7  A    between atoms: C_12  and  C_36
    8  A    between atoms: C_13  and  C_37
    9  A    between atoms: C_18  and  C_34
   10  A    between atoms: C_21  and  C_22
   11  A    between atoms: C_22  and  C_31
   12  A    between atoms: N_24  and  C_45
   13  A    between atoms: C_26  and  C_32
   14  A    between atoms: C_30  and  O_39
   15  A    between atoms: C_37  and  C_45
   16  A    between atoms: C_40  and  C_50
   17  A    between atoms: C_47  and  C_49
                            x       y       z     vdW  Elec       q    Type
                         _______ _______ _______ _____ _____    ______ ____

>  <TORSDO>
F 17

$$$$
=
 OpenBabel11062419033D

 68 77  0  0  1  0  0  0  0  0999 V2000
  192.5360  174.9080  144.8610 C   0  0  0  0  0  2  0  0  0  0  0  0
  190.0940  173.1370  142.6900 C   0  0  0  0  0  2  0  0  0  0  0  0
  188.3440  177.2900  146.1380 C   0  0  1  0  0  3  0  0  0  0  0  0
  189.7630  176.7710  145.9180 C   0  0  0  0  0  2  0  0  0  0  0  0
  185.9430  178.8730  146.0460 C   0  0  1  0  0  3  0  0  0  0  0  0
  191.3370  173.0610  143.5730 C   0  0  1  0  0  3  0  0  0  0  0  0
  188.4530  175.1650  142.3060 C   0  0  0  0  0  0  0  0  0  0  0  0
  187.8990  176.3440  142.9050 N   0  0  0  0  0  0  0  0  0  0  0  0
  185.8520  178.5910  143.5570 C   0  0  0  0  0  1  0  0  0  0  0  0
  190.7360  173.6780  145.8430 O   0  0  0  0  0  1  0  0  0  0  0  0
  188.1570  178.3150  147.2320 C   0  0  0  0  0  2  0  0  0  0  0  0
  191.2030  174.1830  144.6260 C   0  0  1  0  0  0  0  0  0  0  0  0
  189.5650  174.4900  142.9940 C   0  0  0  0  0  0  0  0  0  0  0  0
  186.6500  178.5500  147.3920 C   0  0  0  0  0  2  0  0  0  0  0  0
  187.9450  174.6820  141.2610 O   0  0  0  0  0  0  0  0  0  0  0  0
  187.8870  177.8820  144.8250 C   0  0  2  0  0  3  0  0  0  0  0  0
  186.3610  177.9730  144.8500 C   0  0  1  0  0  3  0  0  0  0  0  0
  188.5220  176.9450  143.8770 C   0  0  0  0  0  0  0  0  0  0  0  0
  190.1470  175.0580  144.0400 C   0  0  0  0  0  0  0  0  0  0  0  0
  189.8510  176.4910  144.4150 C   0  0  2  0  0  3  0  0  0  0  0  0
  184.5430  178.9800  146.1940 O   0  0  0  0  0  0  0  0  0  0  0  0
  184.0270  177.7210  146.5490 C   0  0  0  0  0  1  0  0  0  0  0  0
  191.5770  171.6690  144.1370 C   0  0  0  0  0  2  0  0  0  0  0  0
  193.7950  171.6540  145.1770 C   0  0  0  0  0  3  0  0  0  0  0  0
  195.2030  171.2390  145.2250 C   0  0  0  0  0  0  0  0  0  0  0  0
  193.6370  170.7880  142.8510 C   0  0  0  0  0  2  0  0  0  0  0  0
  195.5400  169.4880  141.8970 C   0  0  0  0  0  3  0  0  0  0  0  0
  197.0160  169.6460  142.2750 C   0  0  0  0  0  3  0  0  0  0  0  0
  195.6660  170.2430  144.1990 C   0  0  2  0  0  0  0  0  0  0  0  0
  193.0380  171.3790  144.1060 C   0  0  0  0  0  0  0  0  0  0  0  0
  196.5570  169.2680  144.6960 O   0  0  0  0  0  0  0  0  0  0  0  0
  195.9610  171.6560  146.1390 O   0  0  0  0  0  0  0  0  0  0  0  0
  197.0340  170.1460  143.7020 C   0  0  1  0  0  0  0  0  0  0  0  0
  197.9410  171.1140  144.1430 O   0  0  0  0  0  1  0  0  0  0  0  0
  194.6990  169.7270  143.1510 C   0  0  1  0  0  3  0  0  0  0  0  0
  193.2440  175.3550  143.5820 C   0  0  1  0  0  3  0  0  0  0  0  0
  193.2900  176.7520  143.5130 O   0  0  0  0  0  1  0  0  0  0  0  0
  194.6470  174.7630  143.5190 C   0  0  2  0  0  3  0  0  0  0  0  0
  195.4710  175.3480  144.4880 O   0  0  0  0  0  1  0  0  0  0  0  0
  195.2340  174.9690  142.1350 C   0  0  0  0  0  2  0  0  0  0  0  0
  195.3830  173.6380  141.4130 C   0  0  0  0  0  2  0  0  0  0  0  0
  197.9360  175.6220  139.3410 F   0  0  0  0  0  0  0  0  0  0  0  0
  193.8390  173.9820  138.5050 C   0  0  1  0  0  3  0  0  0  0  0  0
  195.8070  173.8780  140.0360 N   0  0  0  0  0  0  0  0  0  0  0  0
  194.3840  175.6700  138.0660 S   0  0  0  0  0  0  0  0  0  0  0  0
  194.9900  173.1400  139.0650 C   0  0  1  0  0  3  0  0  0  0  0  0
  195.4640  175.0980  136.7000 C   0  0  2  0  0  3  0  0  0  0  0  0
  197.9380  174.2980  138.9080 C   0  0  1  0  0  3  0  0  0  0  0  0
  197.1810  173.4150  139.8950 C   0  0  0  0  0  2  0  0  0  0  0  0
  196.9340  175.2800  137.0620 C   0  0  0  0  0  2  0  0  0  0  0  0
  197.4600  174.0860  137.5890 O   0  0  0  0  0  0  0  0  0  0  0  0
  194.0970  174.8870  134.5230 C   0  0  0  0  0  2  0  0  0  0  0  0
  195.1540  175.6630  135.3010 C   0  0  0  0  0  3  0  0  0  0  0  0
  193.7240  176.1800  135.2190 C   0  0  0  0  0  2  0  0  0  0  0  0
  192.6480  174.0310  139.4610 C   0  0  1  0  0  3  0  0  0  0  0  0
  191.3090  173.6570  138.8980 C   0  0  2  0  0  3  0  0  0  0  0  0
  192.1200  172.7330  139.5860 O   0  0  0  0  0  0  0  0  0  0  0  0
  191.2710  173.3540  137.4190 C   0  0  0  0  0  0  0  0  0  0  0  0
  191.5300  174.2100  136.5880 O   0  0  0  0  0  0  0  0  0  0  0  0
  190.8470  171.9830  136.9790 C   0  0  0  0  0  2  0  0  0  0  0  0
  192.9560  171.5890  135.6450 C   0  0  0  0  0  1  0  0  0  0  0  0
  192.0210  171.0340  136.7000 C   0  0  2  0  0  3  0  0  0  0  0  0
  191.5680  169.6280  136.3120 C   0  0  0  0  0  2  0  0  0  0  0  0
  190.9060  168.9250  137.4840 C   0  0  2  0  0  3  0  0  0  0  0  0
  189.7220  169.7450  137.9580 C   0  0  0  0  0  1  0  0  0  0  0  0
  191.8240  168.7900  138.5290 O   0  0  0  0  0  1  0  0  0  0  0  0
  194.5590  171.8940  139.5450 O   0  0  0  0  0  0  0  0  0  0  0  0
  194.9320  171.0340  138.6200 O   0  0  0  0  0  1  0  0  0  0  0  0
  2 13  1  0  0  0  0
  2  6  1  0  0  0  0
  3  4  1  6  0  0  0
  3 11  1  0  0  0  0
  5 21  1  1  0  0  0
  5 14  1  0  0  0  0
  6 23  1  1  0  0  0
  6 12  1  0  0  0  0
  7  8  1  0  0  0  0
  7 13  1  0  0  0  0
  8 18  2  0  0  0  0
 11 14  1  0  0  0  0
 12  1  1  0  0  0  0
 12 10  1  1  0  0  0
 13 19  2  0  0  0  0
 15  7  2  0  0  0  0
 16 18  1  6  0  0  0
 16 17  1  0  0  0  0
 16  3  1  0  0  0  0
 17  9  1  6  0  0  0
 17  5  1  0  0  0  0
 18 20  1  0  0  0  0
 19 20  1  0  0  0  0
 19 12  1  0  0  0  0
 20  4  1  1  0  0  0
 21 22  1  0  0  0  0
 24 25  1  0  0  0  0
 25 32  2  0  0  0  0
 26 35  1  0  0  0  0
 26 30  1  0  0  0  0
 27 28  2  0  0  0  0
 28 33  1  0  0  0  0
 29 31  1  1  0  0  0
 29 25  1  0  0  0  0
 30 23  1  0  0  0  0
 30 24  2  0  0  0  0
 33 34  1  1  0  0  0
 33 29  1  0  0  0  0
 33 31  1  0  0  0  0
 35 27  1  6  0  0  0
 35 29  1  0  0  0  0
 36 37  1  1  0  0  0
 36  1  1  0  0  0  0
 38 36  1  0  0  0  0
 38 39  1  1  0  0  0
 40 38  1  0  0  0  0
 41 40  1  0  0  0  0
 43 45  1  1  0  0  0
 43 46  1  0  0  0  0
 43 55  1  0  0  0  0
 44 41  1  0  0  0  0
 46 67  1  1  0  0  0
 46 44  1  0  0  0  0
 47 53  1  6  0  0  0
 47 50  1  0  0  0  0
 47 45  1  0  0  0  0
 48 42  1  1  0  0  0
 48 49  1  0  0  0  0
 49 44  1  0  0  0  0
 50 51  1  0  0  0  0
 51 48  1  0  0  0  0
 52 54  1  0  0  0  0
 52 53  1  0  0  0  0
 54 53  1  0  0  0  0
 55 57  1  1  0  0  0
 56 58  1  6  0  0  0
 56 55  1  0  0  0  0
 56 57  1  0  0  0  0
 59 58  2  0  0  0  0
 60 58  1  0  0  0  0
 62 61  1  6  0  0  0
 62 60  1  0  0  0  0
 63 62  1  0  0  0  0
 63 64  1  0  0  0  0
 64 65  1  1  0  0  0
 64 66  1  0  0  0  0
 68 67  1  0  0  0  0
M  END
>  <MODEL>
5

>  <REMARK>
 VINA RESULT:      -5.3      2.428      8.580
  Name = 
  17 active torsions:
  status: ('A' for Active; 'I' for Inactive)
    1  A    between atoms: C_4  and  O_15
    2  A    between atoms: C_5  and  C_31
    3  A    between atoms: C_6  and  C_47
    4  A    between atoms: C_8  and  C_13
    5  A    between atoms: C_8  and  C_26
    6  A    between atoms: C_12  and  C_21
    7  A    between atoms: C_12  and  C_36
    8  A    between atoms: C_13  and  C_37
    9  A    between atoms: C_18  and  C_34
   10  A    between atoms: C_21  and  C_22
   11  A    between atoms: C_22  and  C_31
   12  A    between atoms: N_24  and  C_45
   13  A    between atoms: C_26  and  C_32
   14  A    between atoms: C_30  and  O_39
   15  A    between atoms: C_37  and  C_45
   16  A    between atoms: C_40  and  C_50
   17  A    between atoms: C_47  and  C_49
                            x       y       z     vdW  Elec       q    Type
                         _______ _______ _______ _____ _____    ______ ____

>  <TORSDO>
F 17

$$$$
=
 OpenBabel11062419033D

 68 77  0  0  1  0  0  0  0  0999 V2000
  191.3130  174.3100  142.7930 C   0  0  0  0  0  2  0  0  0  0  0  0
  192.4570  176.0810  145.8540 C   0  0  0  0  0  2  0  0  0  0  0  0
  187.2000  176.9120  143.8850 C   0  0  1  0  0  3  0  0  0  0  0  0
  188.2840  175.9850  143.3400 C   0  0  0  0  0  2  0  0  0  0  0  0
  184.8710  177.9390  145.2240 C   0  0  1  0  0  3  0  0  0  0  0  0
  192.7890  175.5530  144.4610 C   0  0  1  0  0  3  0  0  0  0  0  0
  190.1210  176.1890  147.0720 C   0  0  0  0  0  0  0  0  0  0  0  0
  188.7060  176.3040  146.8700 N   0  0  0  0  0  0  0  0  0  0  0  0
  185.7400  177.0660  147.4070 C   0  0  0  0  0  1  0  0  0  0  0  0
  191.4070  176.6990  142.8270 O   0  0  0  0  0  1  0  0  0  0  0  0
  185.9370  177.0350  143.0650 C   0  0  0  0  0  2  0  0  0  0  0  0
  191.4740  175.5720  143.6520 C   0  0  1  0  0  0  0  0  0  0  0  0
  190.9770  175.9650  145.8970 C   0  0  0  0  0  0  0  0  0  0  0  0
  185.0820  178.1400  143.6970 C   0  0  0  0  0  2  0  0  0  0  0  0
  190.6160  176.3560  148.2170 O   0  0  0  0  0  0  0  0  0  0  0  0
  186.8450  176.4060  145.2640 C   0  0  2  0  0  3  0  0  0  0  0  0
  186.1440  177.5360  146.0180 C   0  0  1  0  0  3  0  0  0  0  0  0
  188.1730  175.9620  145.7320 C   0  0  0  0  0  0  0  0  0  0  0  0
  190.4380  175.7020  144.7170 C   0  0  0  0  0  0  0  0  0  0  0  0
  188.9630  175.4000  144.5830 C   0  0  2  0  0  3  0  0  0  0  0  0
  184.1740  179.0200  145.8100 O   0  0  0  0  0  0  0  0  0  0  0  0
  183.1400  179.4150  144.9440 C   0  0  0  0  0  1  0  0  0  0  0  0
  193.9570  176.2840  143.8150 C   0  0  0  0  0  2  0  0  0  0  0  0
  195.0320  174.0970  143.5780 C   0  0  0  0  0  3  0  0  0  0  0  0
  195.7120  173.0640  142.7860 C   0  0  0  0  0  0  0  0  0  0  0  0
  195.3320  175.7060  141.7060 C   0  0  0  0  0  2  0  0  0  0  0  0
  196.2080  174.8900  139.5180 C   0  0  0  0  0  3  0  0  0  0  0  0
  197.1530  173.7020  139.3140 C   0  0  0  0  0  3  0  0  0  0  0  0
  195.8280  173.2930  141.3040 C   0  0  2  0  0  0  0  0  0  0  0  0
  194.7820  175.3040  143.0550 C   0  0  0  0  0  0  0  0  0  0  0  0
  195.6320  172.1360  140.5200 O   0  0  0  0  0  0  0  0  0  0  0  0
  196.1140  172.0020  143.3290 O   0  0  0  0  0  0  0  0  0  0  0  0
  196.8960  172.7570  140.4680 C   0  0  1  0  0  0  0  0  0  0  0  0
  197.9280  172.0720  141.1160 O   0  0  0  0  0  1  0  0  0  0  0  0
  195.2790  174.5640  140.6870 C   0  0  1  0  0  3  0  0  0  0  0  0
  191.7570  173.0180  143.4820 C   0  0  1  0  0  3  0  0  0  0  0  0
  190.7250  172.5110  144.2790 O   0  0  0  0  0  1  0  0  0  0  0  0
  192.1970  171.9910  142.4450 C   0  0  2  0  0  3  0  0  0  0  0  0
  192.5710  172.6230  141.2540 O   0  0  0  0  0  1  0  0  0  0  0  0
  191.0730  171.0040  142.1870 C   0  0  0  0  0  2  0  0  0  0  0  0
  190.4850  171.2150  140.8000 C   0  0  0  0  0  2  0  0  0  0  0  0
  193.4980  168.8510  140.5150 F   0  0  0  0  0  0  0  0  0  0  0  0
  191.5570  171.7820  137.7190 C   0  0  1  0  0  3  0  0  0  0  0  0
  191.2690  170.4670  139.8210 N   0  0  0  0  0  0  0  0  0  0  0  0
  193.3600  171.6550  137.9930 S   0  0  0  0  0  0  0  0  0  0  0  0
  190.7910  170.6730  138.4480 C   0  0  1  0  0  3  0  0  0  0  0  0
  193.5130  170.0780  137.0720 C   0  0  2  0  0  3  0  0  0  0  0  0
  192.4360  168.3160  139.7880 C   0  0  1  0  0  3  0  0  0  0  0  0
  191.1410  169.0470  140.1220 C   0  0  0  0  0  2  0  0  0  0  0  0
  193.8140  168.9250  138.0230 C   0  0  0  0  0  2  0  0  0  0  0  0
  192.6250  168.2620  138.3820 O   0  0  0  0  0  0  0  0  0  0  0  0
  195.9510  170.1520  136.2320 C   0  0  0  0  0  2  0  0  0  0  0  0
  194.4720  170.0800  135.8670 C   0  0  0  0  0  3  0  0  0  0  0  0
  195.3320  168.8240  135.8430 C   0  0  0  0  0  2  0  0  0  0  0  0
  191.0500  173.1720  138.0980 C   0  0  1  0  0  3  0  0  0  0  0  0
  190.9970  174.1980  137.0050 C   0  0  2  0  0  3  0  0  0  0  0  0
  189.8730  173.4330  137.3720 O   0  0  0  0  0  0  0  0  0  0  0  0
  191.5350  173.7650  135.6620 C   0  0  0  0  0  0  0  0  0  0  0  0
  190.8530  173.1190  134.8820 O   0  0  0  0  0  0  0  0  0  0  0  0
  192.9590  174.0930  135.3200 C   0  0  0  0  0  2  0  0  0  0  0  0
  192.2610  176.4540  134.7560 C   0  0  0  0  0  1  0  0  0  0  0  0
  193.2950  175.5860  135.4450 C   0  0  2  0  0  3  0  0  0  0  0  0
  194.6920  175.9250  134.9300 C   0  0  0  0  0  2  0  0  0  0  0  0
  195.7520  175.5690  135.9570 C   0  0  2  0  0  3  0  0  0  0  0  0
  197.0390  176.2990  135.6240 C   0  0  0  0  0  1  0  0  0  0  0  0
  195.9820  174.1910  135.9370 O   0  0  0  0  0  1  0  0  0  0  0  0
  189.4010  170.8420  138.3710 O   0  0  0  0  0  0  0  0  0  0  0  0
  189.0270  170.0730  137.3690 O   0  0  0  0  0  1  0  0  0  0  0  0
  1 36  1  0  0  0  0
  1 12  1  0  0  0  0
  2 13  1  0  0  0  0
  3 11  1  6  0  0  0
  3 16  1  0  0  0  0
  4  3  1  0  0  0  0
  5 21  1  1  0  0  0
  5 17  1  0  0  0  0
  6 23  1  6  0  0  0
  6  2  1  0  0  0  0
  7 15  2  0  0  0  0
  8  7  1  0  0  0  0
 11 14  1  0  0  0  0
 12 10  1  6  0  0  0
 12  6  1  0  0  0  0
 12 19  1  0  0  0  0
 13  7  1  0  0  0  0
 14  5  1  0  0  0  0
 16 18  1  1  0  0  0
 16 17  1  0  0  0  0
 17  9  1  1  0  0  0
 18  8  2  0  0  0  0
 19 13  2  0  0  0  0
 20  4  1  6  0  0  0
 20 19  1  0  0  0  0
 20 18  1  0  0  0  0
 22 21  1  0  0  0  0
 25 32  2  0  0  0  0
 25 24  1  0  0  0  0
 26 30  1  0  0  0  0
 28 27  2  0  0  0  0
 28 33  1  0  0  0  0
 29 31  1  6  0  0  0
 29 25  1  0  0  0  0
 30 24  2  0  0  0  0
 30 23  1  0  0  0  0
 33 31  1  0  0  0  0
 33 34  1  1  0  0  0
 33 29  1  0  0  0  0
 35 27  1  6  0  0  0
 35 29  1  0  0  0  0
 35 26  1  0  0  0  0
 36 37  1  6  0  0  0
 38 39  1  6  0  0  0
 38 36  1  0  0  0  0
 40 38  1  0  0  0  0
 41 40  1  0  0  0  0
 43 45  1  1  0  0  0
 43 55  1  0  0  0  0
 43 46  1  0  0  0  0
 44 49  1  0  0  0  0
 44 41  1  0  0  0  0
 46 67  1  1  0  0  0
 46 44  1  0  0  0  0
 47 53  1  6  0  0  0
 47 45  1  0  0  0  0
 47 50  1  0  0  0  0
 48 49  1  0  0  0  0
 48 42  1  1  0  0  0
 50 51  1  0  0  0  0
 51 48  1  0  0  0  0
 53 52  1  0  0  0  0
 54 53  1  0  0  0  0
 54 52  1  0  0  0  0
 55 57  1  6  0  0  0
 56 58  1  6  0  0  0
 56 57  1  0  0  0  0
 56 55  1  0  0  0  0
 59 58  2  0  0  0  0
 60 62  1  0  0  0  0
 60 58  1  0  0  0  0
 62 61  1  6  0  0  0
 63 62  1  0  0  0  0
 63 64  1  0  0  0  0
 64 65  1  6  0  0  0
 66 64  1  0  0  0  0
 68 67  1  0  0  0  0
M  END
>  <MODEL>
6

>  <REMARK>
 VINA RESULT:      -5.2      2.297      7.530
  Name = 
  17 active torsions:
  status: ('A' for Active; 'I' for Inactive)
    1  A    between atoms: C_4  and  O_15
    2  A    between atoms: C_5  and  C_31
    3  A    between atoms: C_6  and  C_47
    4  A    between atoms: C_8  and  C_13
    5  A    between atoms: C_8  and  C_26
    6  A    between atoms: C_12  and  C_21
    7  A    between atoms: C_12  and  C_36
    8  A    between atoms: C_13  and  C_37
    9  A    between atoms: C_18  and  C_34
   10  A    between atoms: C_21  and  C_22
   11  A    between atoms: C_22  and  C_31
   12  A    between atoms: N_24  and  C_45
   13  A    between atoms: C_26  and  C_32
   14  A    between atoms: C_30  and  O_39
   15  A    between atoms: C_37  and  C_45
   16  A    between atoms: C_40  and  C_50
   17  A    between atoms: C_47  and  C_49
                            x       y       z     vdW  Elec       q    Type
                         _______ _______ _______ _____ _____    ______ ____

>  <TORSDO>
F 17

$$$$
=
 OpenBabel11062419033D

 68 77  0  0  1  0  0  0  0  0999 V2000
  190.9260  174.9510  143.1650 C   0  0  0  0  0  2  0  0  0  0  0  0
  191.2980  177.3150  146.0090 C   0  0  0  0  0  2  0  0  0  0  0  0
  186.5630  177.3500  142.8830 C   0  0  1  0  0  3  0  0  0  0  0  0
  187.7800  176.4360  142.7550 C   0  0  0  0  0  2  0  0  0  0  0  0
  183.9540  178.3950  143.4990 C   0  0  1  0  0  3  0  0  0  0  0  0
  191.9480  176.5840  144.8380 C   0  0  1  0  0  3  0  0  0  0  0  0
  188.7500  177.4370  146.6790 C   0  0  0  0  0  0  0  0  0  0  0  0
  187.4100  177.3970  146.1730 N   0  0  0  0  0  0  0  0  0  0  0  0
  184.3670  177.9890  145.9380 C   0  0  0  0  0  1  0  0  0  0  0  0
  190.9040  177.3090  142.7700 O   0  0  0  0  0  1  0  0  0  0  0  0
  185.5030  177.2230  141.8120 C   0  0  0  0  0  2  0  0  0  0  0  0
  190.8410  176.3530  143.7870 C   0  0  1  0  0  0  0  0  0  0  0  0
  189.8510  177.0850  145.7690 C   0  0  0  0  0  0  0  0  0  0  0  0
  184.4830  178.3450  142.0380 C   0  0  0  0  0  2  0  0  0  0  0  0
  188.9770  177.8400  147.8490 O   0  0  0  0  0  0  0  0  0  0  0  0
  185.9390  177.0620  144.2290 C   0  0  2  0  0  3  0  0  0  0  0  0
  185.0410  178.2440  144.5980 C   0  0  1  0  0  3  0  0  0  0  0  0
  187.1520  176.8190  145.0340 C   0  0  0  0  0  0  0  0  0  0  0  0
  189.5930  176.5780  144.5730 C   0  0  0  0  0  0  0  0  0  0  0  0
  188.1970  176.1350  144.1980 C   0  0  2  0  0  3  0  0  0  0  0  0
  183.1000  179.4990  143.7160 O   0  0  0  0  0  0  0  0  0  0  0  0
  181.7760  179.1050  143.4540 C   0  0  0  0  0  1  0  0  0  0  0  0
  193.1950  177.2870  144.3200 C   0  0  0  0  0  2  0  0  0  0  0  0
  194.4900  176.0970  142.6170 C   0  0  0  0  0  3  0  0  0  0  0  0
  195.5800  175.2020  142.2050 C   0  0  0  0  0  0  0  0  0  0  0  0
  194.8500  175.4180  144.9820 C   0  0  0  0  0  2  0  0  0  0  0  0
  196.8200  174.0030  145.5630 C   0  0  0  0  0  3  0  0  0  0  0  0
  197.5020  172.9880  144.6400 C   0  0  0  0  0  3  0  0  0  0  0  0
  196.5340  174.7390  143.2700 C   0  0  2  0  0  0  0  0  0  0  0  0
  194.1960  176.2620  143.9130 C   0  0  0  0  0  0  0  0  0  0  0  0
  197.8840  174.6900  142.8580 O   0  0  0  0  0  0  0  0  0  0  0  0
  195.7360  174.9010  140.9920 O   0  0  0  0  0  0  0  0  0  0  0  0
  197.2670  173.4780  143.2290 C   0  0  1  0  0  0  0  0  0  0  0  0
  196.9760  172.6070  142.1750 O   0  0  0  0  0  1  0  0  0  0  0  0
  196.3370  175.1740  144.7080 C   0  0  1  0  0  3  0  0  0  0  0  0
  191.5120  173.8850  144.0920 C   0  0  1  0  0  3  0  0  0  0  0  0
  190.4880  173.2010  144.7570 O   0  0  0  0  0  1  0  0  0  0  0  0
  192.3860  172.9180  143.3010 C   0  0  2  0  0  3  0  0  0  0  0  0
  192.2570  173.1510  141.9270 O   0  0  0  0  0  1  0  0  0  0  0  0
  192.0010  171.4870  143.6300 C   0  0  0  0  0  2  0  0  0  0  0  0
  191.5150  170.7640  142.3830 C   0  0  0  0  0  2  0  0  0  0  0  0
  195.2000  169.8460  142.9540 F   0  0  0  0  0  0  0  0  0  0  0  0
  192.6800  170.5060  139.2950 C   0  0  1  0  0  3  0  0  0  0  0  0
  192.6380  170.0750  141.7530 N   0  0  0  0  0  0  0  0  0  0  0  0
  194.3510  171.2060  139.5380 S   0  0  0  0  0  0  0  0  0  0  0  0
  192.2950  169.5470  140.4270 C   0  0  1  0  0  3  0  0  0  0  0  0
  195.1930  169.5940  139.3080 C   0  0  2  0  0  3  0  0  0  0  0  0
  194.5140  168.7090  142.5310 C   0  0  1  0  0  3  0  0  0  0  0  0
  193.0080  168.9430  142.5930 C   0  0  0  0  0  2  0  0  0  0  0  0
  195.7780  169.0990  140.6260 C   0  0  0  0  0  2  0  0  0  0  0  0
  194.8850  168.2120  141.2550 O   0  0  0  0  0  0  0  0  0  0  0  0
  196.2670  168.1860  137.4320 C   0  0  0  0  0  2  0  0  0  0  0  0
  196.2270  169.5200  138.1690 C   0  0  0  0  0  3  0  0  0  0  0  0
  195.5480  169.3680  136.8150 C   0  0  0  0  0  2  0  0  0  0  0  0
  191.6500  171.6190  139.1120 C   0  0  1  0  0  3  0  0  0  0  0  0
  191.4070  172.0960  137.7110 C   0  0  2  0  0  3  0  0  0  0  0  0
  190.5920  171.1250  138.3250 O   0  0  0  0  0  0  0  0  0  0  0  0
  192.2740  171.4800  136.6400 C   0  0  0  0  0  0  0  0  0  0  0  0
  192.0730  170.3480  136.2320 O   0  0  0  0  0  0  0  0  0  0  0  0
  193.4400  172.2700  136.1190 C   0  0  0  0  0  2  0  0  0  0  0  0
  192.2690  174.0540  134.7680 C   0  0  0  0  0  1  0  0  0  0  0  0
  193.1510  173.7700  135.9670 C   0  0  2  0  0  3  0  0  0  0  0  0
  194.4210  174.6150  135.8970 C   0  0  0  0  0  2  0  0  0  0  0  0
  194.8300  175.0990  137.2770 C   0  0  2  0  0  3  0  0  0  0  0  0
  196.1700  174.4920  137.6440 C   0  0  0  0  0  1  0  0  0  0  0  0
  193.8710  174.7090  138.2150 O   0  0  0  0  0  1  0  0  0  0  0  0
  190.9630  169.1180  140.3350 O   0  0  0  0  0  0  0  0  0  0  0  0
  190.9530  168.2780  139.3190 O   0  0  0  0  0  1  0  0  0  0  0  0
  1 12  1  0  0  0  0
  1 36  1  0  0  0  0
  3 11  1  6  0  0  0
  3 16  1  0  0  0  0
  4  3  1  0  0  0  0
  5 21  1  1  0  0  0
  5 17  1  0  0  0  0
  6 23  1  6  0  0  0
  6  2  1  0  0  0  0
  7 15  2  0  0  0  0
  8  7  1  0  0  0  0
 11 14  1  0  0  0  0
 12 10  1  6  0  0  0
 12 19  1  0  0  0  0
 12  6  1  0  0  0  0
 13  2  1  0  0  0  0
 13  7  1  0  0  0  0
 14  5  1  0  0  0  0
 16 17  1  0  0  0  0
 16 18  1  1  0  0  0
 17  9  1  1  0  0  0
 18  8  2  0  0  0  0
 19 13  2  0  0  0  0
 20  4  1  6  0  0  0
 20 19  1  0  0  0  0
 20 18  1  0  0  0  0
 22 21  1  0  0  0  0
 24 30  2  0  0  0  0
 25 24  1  0  0  0  0
 28 27  2  0  0  0  0
 29 25  1  6  0  0  0
 29 35  1  0  0  0  0
 30 23  1  0  0  0  0
 30 26  1  0  0  0  0
 31 33  1  0  0  0  0
 31 29  1  0  0  0  0
 32 25  2  0  0  0  0
 33 34  1  6  0  0  0
 33 29  1  0  0  0  0
 33 28  1  0  0  0  0
 35 26  1  6  0  0  0
 35 27  1  0  0  0  0
 36 37  1  6  0  0  0
 38 39  1  6  0  0  0
 38 40  1  0  0  0  0
 38 36  1  0  0  0  0
 41 40  1  0  0  0  0
 43 45  1  1  0  0  0
 43 46  1  0  0  0  0
 44 41  1  0  0  0  0
 44 49  1  0  0  0  0
 46 67  1  1  0  0  0
 46 44  1  0  0  0  0
 47 53  1  6  0  0  0
 47 45  1  0  0  0  0
 47 50  1  0  0  0  0
 48 49  1  0  0  0  0
 48 42  1  6  0  0  0
 50 51  1  0  0  0  0
 51 48  1  0  0  0  0
 52 53  1  0  0  0  0
 54 52  1  0  0  0  0
 54 53  1  0  0  0  0
 55 57  1  6  0  0  0
 55 43  1  0  0  0  0
 56 58  1  6  0  0  0
 56 57  1  0  0  0  0
 56 55  1  0  0  0  0
 59 58  2  0  0  0  0
 60 58  1  0  0  0  0
 62 61  1  6  0  0  0
 62 60  1  0  0  0  0
 63 62  1  0  0  0  0
 63 64  1  0  0  0  0
 64 65  1  1  0  0  0
 64 66  1  0  0  0  0
 68 67  1  0  0  0  0
M  END
>  <MODEL>
7

>  <REMARK>
 VINA RESULT:      -5.2      2.208      7.798
  Name = 
  17 active torsions:
  status: ('A' for Active; 'I' for Inactive)
    1  A    between atoms: C_4  and  O_15
    2  A    between atoms: C_5  and  C_31
    3  A    between atoms: C_6  and  C_47
    4  A    between atoms: C_8  and  C_13
    5  A    between atoms: C_8  and  C_26
    6  A    between atoms: C_12  and  C_21
    7  A    between atoms: C_12  and  C_36
    8  A    between atoms: C_13  and  C_37
    9  A    between atoms: C_18  and  C_34
   10  A    between atoms: C_21  and  C_22
   11  A    between atoms: C_22  and  C_31
   12  A    between atoms: N_24  and  C_45
   13  A    between atoms: C_26  and  C_32
   14  A    between atoms: C_30  and  O_39
   15  A    between atoms: C_37  and  C_45
   16  A    between atoms: C_40  and  C_50
   17  A    between atoms: C_47  and  C_49
                            x       y       z     vdW  Elec       q    Type
                         _______ _______ _______ _____ _____    ______ ____

>  <TORSDO>
F 17

$$$$
=
 OpenBabel11062419033D

 68 77  0  0  1  0  0  0  0  0999 V2000
  194.1430  171.0670  145.5540 C   0  0  0  0  0  2  0  0  0  0  0  0
  195.7850  174.3680  146.0280 C   0  0  0  0  0  2  0  0  0  0  0  0
  190.8140  174.0290  143.3140 C   0  0  1  0  0  3  0  0  0  0  0  0
  191.6250  172.9060  143.9560 C   0  0  0  0  0  2  0  0  0  0  0  0
  188.8470  176.0660  142.8090 C   0  0  1  0  0  3  0  0  0  0  0  0
  195.9330  172.8760  145.7390 C   0  0  1  0  0  3  0  0  0  0  0  0
  193.5880  175.8150  146.1990 C   0  0  0  0  0  0  0  0  0  0  0  0
  192.2350  175.9370  145.7390 N   0  0  0  0  0  0  0  0  0  0  0  0
  189.5580  177.2700  144.8890 C   0  0  0  0  0  1  0  0  0  0  0  0
  194.8070  172.3560  143.6520 O   0  0  0  0  0  1  0  0  0  0  0  0
  189.5880  173.6190  142.5300 C   0  0  0  0  0  2  0  0  0  0  0  0
  194.6330  172.4280  145.0370 C   0  0  1  0  0  0  0  0  0  0  0  0
  194.3240  174.5810  145.8800 C   0  0  0  0  0  0  0  0  0  0  0  0
  189.0460  174.8720  141.8330 C   0  0  0  0  0  2  0  0  0  0  0  0
  194.1480  176.7730  146.7900 O   0  0  0  0  0  0  0  0  0  0  0  0
  190.3970  174.9600  144.4280 C   0  0  2  0  0  3  0  0  0  0  0  0
  190.0140  176.3030  143.8060 C   0  0  1  0  0  3  0  0  0  0  0  0
  191.5960  174.8960  145.2870 C   0  0  0  0  0  0  0  0  0  0  0  0
  193.6950  173.5490  145.3390 C   0  0  0  0  0  0  0  0  0  0  0  0
  192.1870  173.5150  145.2450 C   0  0  2  0  0  3  0  0  0  0  0  0
  188.4500  177.2420  142.1330 O   0  0  0  0  0  0  0  0  0  0  0  0
  187.1250  177.0850  141.6900 C   0  0  0  0  0  1  0  0  0  0  0  0
  197.2180  172.5420  144.9960 C   0  0  0  0  0  2  0  0  0  0  0  0
  197.4660  172.6050  142.5610 C   0  0  0  0  0  3  0  0  0  0  0  0
  197.3350  173.2750  141.2600 C   0  0  0  0  0  0  0  0  0  0  0  0
  196.9960  174.7640  143.7000 C   0  0  0  0  0  2  0  0  0  0  0  0
  196.2800  176.7340  142.3460 C   0  0  0  0  0  3  0  0  0  0  0  0
  196.6600  177.0080  140.8880 C   0  0  0  0  0  3  0  0  0  0  0  0
  196.6410  174.6080  141.2350 C   0  0  2  0  0  0  0  0  0  0  0  0
  197.2330  173.2730  143.6990 C   0  0  0  0  0  0  0  0  0  0  0  0
  195.7910  174.7990  140.1240 O   0  0  0  0  0  0  0  0  0  0  0  0
  197.7320  172.7100  140.2080 O   0  0  0  0  0  0  0  0  0  0  0  0
  196.9030  175.6560  140.2550 C   0  0  1  0  0  0  0  0  0  0  0  0
  197.9410  175.4320  139.3460 O   0  0  0  0  0  1  0  0  0  0  0  0
  196.1300  175.2230  142.5230 C   0  0  1  0  0  3  0  0  0  0  0  0
  194.2280  169.9360  144.5280 C   0  0  1  0  0  3  0  0  0  0  0  0
  195.1150  168.9470  144.9650 O   0  0  0  0  0  1  0  0  0  0  0  0
  192.8440  169.3500  144.2710 C   0  0  2  0  0  3  0  0  0  0  0  0
  192.6050  168.2660  145.1230 O   0  0  0  0  0  1  0  0  0  0  0  0
  192.7280  168.9160  142.8210 C   0  0  0  0  0  2  0  0  0  0  0  0
  192.7810  170.1230  141.8960 C   0  0  0  0  0  2  0  0  0  0  0  0
  196.1460  169.0320  140.4020 F   0  0  0  0  0  0  0  0  0  0  0  0
  192.5300  171.1240  138.7500 C   0  0  1  0  0  3  0  0  0  0  0  0
  193.4060  169.7400  140.6330 N   0  0  0  0  0  0  0  0  0  0  0  0
  194.2540  171.6580  138.4600 S   0  0  0  0  0  0  0  0  0  0  0  0
  192.4660  169.7930  139.5070 C   0  0  1  0  0  3  0  0  0  0  0  0
  194.6210  170.2700  137.3190 C   0  0  2  0  0  3  0  0  0  0  0  0
  195.1510  168.1660  139.9510 C   0  0  1  0  0  3  0  0  0  0  0  0
  193.8700  168.3640  140.7530 C   0  0  0  0  0  2  0  0  0  0  0  0
  195.5860  169.2830  137.9650 C   0  0  0  0  0  2  0  0  0  0  0  0
  194.8780  168.2220  138.5600 O   0  0  0  0  0  0  0  0  0  0  0  0
  194.0460  170.3760  134.8070 C   0  0  0  0  0  2  0  0  0  0  0  0
  195.0730  170.6550  135.8980 C   0  0  0  0  0  3  0  0  0  0  0  0
  194.2230  171.7850  135.3350 C   0  0  0  0  0  2  0  0  0  0  0  0
  191.7370  172.2220  139.4560 C   0  0  1  0  0  3  0  0  0  0  0  0
  190.5650  172.7970  138.7170 C   0  0  2  0  0  3  0  0  0  0  0  0
  190.4220  171.7630  139.6630 O   0  0  0  0  0  0  0  0  0  0  0  0
  190.3490  172.2840  137.3130 C   0  0  0  0  0  0  0  0  0  0  0  0
  189.7250  171.2560  137.1010 O   0  0  0  0  0  0  0  0  0  0  0  0
  190.9730  173.0330  136.1720 C   0  0  0  0  0  2  0  0  0  0  0  0
  189.2650  174.8700  135.8810 C   0  0  0  0  0  1  0  0  0  0  0  0
  190.7080  174.5440  136.2080 C   0  0  2  0  0  3  0  0  0  0  0  0
  191.6440  175.3330  135.2950 C   0  0  0  0  0  2  0  0  0  0  0  0
  192.6530  176.1280  136.1040 C   0  0  2  0  0  3  0  0  0  0  0  0
  193.0920  177.3410  135.3070 C   0  0  0  0  0  1  0  0  0  0  0  0
  193.7650  175.3290  136.3830 O   0  0  0  0  0  1  0  0  0  0  0  0
  191.1560  169.4440  139.8680 O   0  0  0  0  0  0  0  0  0  0  0  0
  190.8500  168.4360  139.0770 O   0  0  0  0  0  1  0  0  0  0  0  0
  3 11  1  1  0  0  0
  3  4  1  0  0  0  0
  3 16  1  0  0  0  0
  5 21  1  6  0  0  0
  5 17  1  0  0  0  0
  6 23  1  6  0  0  0
  6  2  1  0  0  0  0
  7 15  2  0  0  0  0
  8  7  1  0  0  0  0
 12 10  1  6  0  0  0
 12 19  1  0  0  0  0
 12  1  1  0  0  0  0
 12  6  1  0  0  0  0
 13  2  1  0  0  0  0
 13  7  1  0  0  0  0
 14 11  1  0  0  0  0
 14  5  1  0  0  0  0
 16 18  1  1  0  0  0
 17 16  1  0  0  0  0
 17  9  1  1  0  0  0
 18  8  2  0  0  0  0
 19 13  2  0  0  0  0
 20  4  1  6  0  0  0
 20 18  1  0  0  0  0
 20 19  1  0  0  0  0
 22 21  1  0  0  0  0
 24 30  2  0  0  0  0
 25 24  1  0  0  0  0
 28 27  2  0  0  0  0
 29 31  1  6  0  0  0
 29 25  1  0  0  0  0
 29 35  1  0  0  0  0
 30 26  1  0  0  0  0
 30 23  1  0  0  0  0
 31 33  1  0  0  0  0
 32 25  2  0  0  0  0
 33 34  1  6  0  0  0
 33 28  1  0  0  0  0
 33 29  1  0  0  0  0
 35 27  1  6  0  0  0
 35 26  1  0  0  0  0
 36 37  1  1  0  0  0
 36  1  1  0  0  0  0
 38 36  1  0  0  0  0
 38 39  1  1  0  0  0
 40 38  1  0  0  0  0
 41 40  1  0  0  0  0
 43 45  1  1  0  0  0
 43 55  1  0  0  0  0
 43 46  1  0  0  0  0
 44 49  1  0  0  0  0
 44 41  1  0  0  0  0
 46 67  1  1  0  0  0
 46 44  1  0  0  0  0
 47 53  1  6  0  0  0
 47 50  1  0  0  0  0
 47 45  1  0  0  0  0
 48 42  1  1  0  0  0
 48 49  1  0  0  0  0
 50 51  1  0  0  0  0
 51 48  1  0  0  0  0
 52 54  1  0  0  0  0
 52 53  1  0  0  0  0
 54 53  1  0  0  0  0
 55 57  1  1  0  0  0
 56 58  1  6  0  0  0
 56 55  1  0  0  0  0
 56 57  1  0  0  0  0
 59 58  2  0  0  0  0
 60 62  1  0  0  0  0
 60 58  1  0  0  0  0
 62 61  1  6  0  0  0
 63 64  1  0  0  0  0
 63 62  1  0  0  0  0
 64 65  1  6  0  0  0
 64 66  1  0  0  0  0
 68 67  1  0  0  0  0
M  END
>  <MODEL>
8

>  <REMARK>
 VINA RESULT:      -4.9      2.467      7.461
  Name = 
  17 active torsions:
  status: ('A' for Active; 'I' for Inactive)
    1  A    between atoms: C_4  and  O_15
    2  A    between atoms: C_5  and  C_31
    3  A    between atoms: C_6  and  C_47
    4  A    between atoms: C_8  and  C_13
    5  A    between atoms: C_8  and  C_26
    6  A    between atoms: C_12  and  C_21
    7  A    between atoms: C_12  and  C_36
    8  A    between atoms: C_13  and  C_37
    9  A    between atoms: C_18  and  C_34
   10  A    between atoms: C_21  and  C_22
   11  A    between atoms: C_22  and  C_31
   12  A    between atoms: N_24  and  C_45
   13  A    between atoms: C_26  and  C_32
   14  A    between atoms: C_30  and  O_39
   15  A    between atoms: C_37  and  C_45
   16  A    between atoms: C_40  and  C_50
   17  A    between atoms: C_47  and  C_49
                            x       y       z     vdW  Elec       q    Type
                         _______ _______ _______ _____ _____    ______ ____

>  <TORSDO>
F 17

$$$$
=
 OpenBabel11062419033D

 68 77  0  0  1  0  0  0  0  0999 V2000
  192.3640  174.4320  143.4580 C   0  0  0  0  0  2  0  0  0  0  0  0
  193.2130  176.4920  146.4330 C   0  0  0  0  0  2  0  0  0  0  0  0
  188.0510  176.8510  144.1050 C   0  0  1  0  0  3  0  0  0  0  0  0
  189.2170  175.9550  143.6970 C   0  0  0  0  0  2  0  0  0  0  0  0
  185.5880  177.8310  145.2230 C   0  0  1  0  0  3  0  0  0  0  0  0
  193.6610  175.8830  145.1070 C   0  0  1  0  0  3  0  0  0  0  0  0
  190.8030  176.5470  147.5020 C   0  0  0  0  0  0  0  0  0  0  0  0
  189.4000  176.5600  147.2100 N   0  0  0  0  0  0  0  0  0  0  0  0
  186.3670  177.1770  147.5140 C   0  0  0  0  0  1  0  0  0  0  0  0
  192.3200  176.8180  143.3110 O   0  0  0  0  0  1  0  0  0  0  0  0
  186.8360  176.8360  143.2060 C   0  0  0  0  0  2  0  0  0  0  0  0
  192.4000  175.7620  144.2240 C   0  0  1  0  0  0  0  0  0  0  0  0
  191.7420  176.2890  146.4000 C   0  0  0  0  0  0  0  0  0  0  0  0
  185.8830  177.9310  143.7000 C   0  0  0  0  0  2  0  0  0  0  0  0
  191.2160  176.8280  148.6570 O   0  0  0  0  0  0  0  0  0  0  0  0
  187.6400  176.4280  145.4960 C   0  0  2  0  0  3  0  0  0  0  0  0
  186.8300  177.5660  146.1180 C   0  0  1  0  0  3  0  0  0  0  0  0
  188.9590  176.1020  146.0730 C   0  0  0  0  0  0  0  0  0  0  0  0
  191.2930  175.9070  145.2140 C   0  0  0  0  0  0  0  0  0  0  0  0
  189.8490  175.5060  145.0180 C   0  0  2  0  0  3  0  0  0  0  0  0
  184.7970  178.9070  145.6820 O   0  0  0  0  0  0  0  0  0  0  0  0
  184.5780  179.7960  144.6150 C   0  0  0  0  0  1  0  0  0  0  0  0
  194.8240  176.6350  144.4750 C   0  0  0  0  0  2  0  0  0  0  0  0
  196.0780  174.6850  143.6870 C   0  0  0  0  0  3  0  0  0  0  0  0
  196.5270  173.7710  142.6270 C   0  0  0  0  0  0  0  0  0  0  0  0
  195.2260  176.2500  141.9530 C   0  0  0  0  0  2  0  0  0  0  0  0
  195.2000  175.5340  139.5630 C   0  0  0  0  0  3  0  0  0  0  0  0
  196.1670  174.5410  138.9110 C   0  0  0  0  0  3  0  0  0  0  0  0
  195.9420  173.9630  141.2560 C   0  0  2  0  0  0  0  0  0  0  0  0
  195.4040  175.8020  143.3840 C   0  0  0  0  0  0  0  0  0  0  0  0
  195.6460  172.7610  140.5770 O   0  0  0  0  0  0  0  0  0  0  0  0
  197.3160  172.8270  142.8890 O   0  0  0  0  0  0  0  0  0  0  0  0
  196.6200  173.6090  140.0130 C   0  0  1  0  0  0  0  0  0  0  0  0
  197.9390  173.1580  140.1150 O   0  0  0  0  0  1  0  0  0  0  0  0
  194.9510  175.0820  141.0020 C   0  0  1  0  0  3  0  0  0  0  0  0
  192.8810  173.2320  144.2530 C   0  0  1  0  0  3  0  0  0  0  0  0
  192.5250  173.3500  145.6010 O   0  0  0  0  0  1  0  0  0  0  0  0
  192.3450  171.9340  143.6620 C   0  0  2  0  0  3  0  0  0  0  0  0
  192.9500  170.8290  144.2720 O   0  0  0  0  0  1  0  0  0  0  0  0
  192.5910  171.9080  142.1640 C   0  0  0  0  0  2  0  0  0  0  0  0
  192.2300  170.5470  141.5870 C   0  0  0  0  0  2  0  0  0  0  0  0
  195.3370  170.2880  139.3450 F   0  0  0  0  0  0  0  0  0  0  0  0
  191.2290  172.0200  138.7960 C   0  0  1  0  0  3  0  0  0  0  0  0
  192.6330  170.4930  140.1840 N   0  0  0  0  0  0  0  0  0  0  0  0
  192.7780  172.8680  138.3240 S   0  0  0  0  0  0  0  0  0  0  0  0
  191.4870  170.5870  139.2710 C   0  0  1  0  0  3  0  0  0  0  0  0
  193.0810  171.7760  136.8830 C   0  0  2  0  0  3  0  0  0  0  0  0
  194.3900  169.3630  138.9090 C   0  0  1  0  0  3  0  0  0  0  0  0
  193.2810  169.2100  139.9450 C   0  0  0  0  0  2  0  0  0  0  0  0
  194.2730  170.8610  137.1420 C   0  0  0  0  0  2  0  0  0  0  0  0
  193.8380  169.6130  137.6260 O   0  0  0  0  0  0  0  0  0  0  0  0
  193.4260  173.9720  135.5750 C   0  0  0  0  0  2  0  0  0  0  0  0
  193.1870  172.4670  135.5120 C   0  0  0  0  0  3  0  0  0  0  0  0
  194.5810  173.0340  135.2850 C   0  0  0  0  0  2  0  0  0  0  0  0
  190.4620  172.8380  139.8340 C   0  0  1  0  0  3  0  0  0  0  0  0
  189.2590  173.5920  139.3510 C   0  0  2  0  0  3  0  0  0  0  0  0
  189.1590  172.3160  139.9410 O   0  0  0  0  0  0  0  0  0  0  0  0
  188.9870  173.5280  137.8670 C   0  0  0  0  0  0  0  0  0  0  0  0
  188.3320  172.6200  137.3790 O   0  0  0  0  0  0  0  0  0  0  0  0
  189.5920  174.5780  136.9810 C   0  0  0  0  0  2  0  0  0  0  0  0
  189.5200  175.1630  134.5250 C   0  0  0  0  0  1  0  0  0  0  0  0
  188.7060  174.9630  135.7880 C   0  0  2  0  0  3  0  0  0  0  0  0
  187.8470  176.1960  136.0590 C   0  0  0  0  0  2  0  0  0  0  0  0
  186.7430  175.8820  137.0530 C   0  0  2  0  0  3  0  0  0  0  0  0
  185.4490  175.6320  136.3040 C   0  0  0  0  0  1  0  0  0  0  0  0
  186.5740  176.9620  137.9240 O   0  0  0  0  0  1  0  0  0  0  0  0
  190.3310  169.9740  139.7770 O   0  0  0  0  0  0  0  0  0  0  0  0
  190.3420  168.7630  139.2570 O   0  0  0  0  0  1  0  0  0  0  0  0
  1 12  1  0  0  0  0
  1 36  1  0  0  0  0
  3 11  1  6  0  0  0
  3 16  1  0  0  0  0
  4  3  1  0  0  0  0
  5 21  1  1  0  0  0
  5 17  1  0  0  0  0
  6 23  1  6  0  0  0
  6  2  1  0  0  0  0
  7 15  2  0  0  0  0
  8  7  1  0  0  0  0
 11 14  1  0  0  0  0
 12 10  1  6  0  0  0
 12  6  1  0  0  0  0
 12 19  1  0  0  0  0
 13  2  1  0  0  0  0
 13  7  1  0  0  0  0
 14  5  1  0  0  0  0
 16 18  1  1  0  0  0
 16 17  1  0  0  0  0
 17  9  1  1  0  0  0
 18  8  2  0  0  0  0
 19 13  2  0  0  0  0
 20  4  1  6  0  0  0
 20 19  1  0  0  0  0
 20 18  1  0  0  0  0
 22 21  1  0  0  0  0
 25 32  2  0  0  0  0
 25 24  1  0  0  0  0
 26 30  1  0  0  0  0
 28 27  2  0  0  0  0
 28 33  1  0  0  0  0
 29 31  1  1  0  0  0
 29 25  1  0  0  0  0
 30 24  2  0  0  0  0
 30 23  1  0  0  0  0
 33 34  1  1  0  0  0
 33 31  1  0  0  0  0
 33 29  1  0  0  0  0
 35 27  1  6  0  0  0
 35 29  1  0  0  0  0
 35 26  1  0  0  0  0
 36 37  1  1  0  0  0
 38 36  1  0  0  0  0
 38 39  1  1  0  0  0
 40 38  1  0  0  0  0
 41 40  1  0  0  0  0
 43 45  1  1  0  0  0
 43 46  1  0  0  0  0
 43 55  1  0  0  0  0
 44 41  1  0  0  0  0
 46 67  1  1  0  0  0
 46 44  1  0  0  0  0
 47 53  1  6  0  0  0
 47 50  1  0  0  0  0
 47 45  1  0  0  0  0
 48 42  1  1  0  0  0
 48 49  1  0  0  0  0
 49 44  1  0  0  0  0
 50 51  1  0  0  0  0
 51 48  1  0  0  0  0
 53 52  1  0  0  0  0
 54 53  1  0  0  0  0
 54 52  1  0  0  0  0
 55 57  1  1  0  0  0
 56 58  1  6  0  0  0
 56 55  1  0  0  0  0
 56 57  1  0  0  0  0
 59 58  2  0  0  0  0
 60 58  1  0  0  0  0
 62 61  1  6  0  0  0
 62 63  1  0  0  0  0
 62 60  1  0  0  0  0
 63 64  1  0  0  0  0
 64 65  1  6  0  0  0
 64 66  1  0  0  0  0
 68 67  1  0  0  0  0
M  END
>  <MODEL>
9

>  <REMARK>
 VINA RESULT:      -4.9      2.573      8.041
  Name = 
  17 active torsions:
  status: ('A' for Active; 'I' for Inactive)
    1  A    between atoms: C_4  and  O_15
    2  A    between atoms: C_5  and  C_31
    3  A    between atoms: C_6  and  C_47
    4  A    between atoms: C_8  and  C_13
    5  A    between atoms: C_8  and  C_26
    6  A    between atoms: C_12  and  C_21
    7  A    between atoms: C_12  and  C_36
    8  A    between atoms: C_13  and  C_37
    9  A    between atoms: C_18  and  C_34
   10  A    between atoms: C_21  and  C_22
   11  A    between atoms: C_22  and  C_31
   12  A    between atoms: N_24  and  C_45
   13  A    between atoms: C_26  and  C_32
   14  A    between atoms: C_30  and  O_39
   15  A    between atoms: C_37  and  C_45
   16  A    between atoms: C_40  and  C_50
   17  A    between atoms: C_47  and  C_49
                            x       y       z     vdW  Elec       q    Type
                         _______ _______ _______ _____ _____    ______ ____

>  <TORSDO>
F 17

$$$$
