=
 OpenBabel11062419453D

 30 33  0  0  1  0  0  0  0  0999 V2000
  188.5660  174.4030  142.4960 C   0  0  0  0  0  2  0  0  0  0  0  0
  189.6530  175.3270  142.7550 N   0  0  0  0  0  0  0  0  0  0  0  0
  189.2250  173.0690  142.2000 C   0  0  0  0  0  2  0  0  0  0  0  0
  190.6990  173.3670  141.9590 C   0  0  0  0  0  2  0  0  0  0  0  0
  190.4440  177.4660  143.2540 O   0  0  0  0  0  0  0  0  0  0  0  0
  190.9640  174.7370  142.5600 C   0  0  2  0  0  3  0  0  0  0  0  0
  189.4490  176.7070  143.0880 C   0  0  0  0  0  0  0  0  0  0  0  0
  195.0160  175.7200  142.9230 C   0  0  2  0  0  3  0  0  0  0  0  0
  193.9170  175.4100  141.9410 C   0  0  0  0  0  2  0  0  0  0  0  0
  195.5380  174.4150  143.5090 C   0  0  0  0  0  2  0  0  0  0  0  0
  193.5570  176.0760  143.2630 C   0  0  1  0  0  3  0  0  0  0  0  0
  195.6970  174.6710  146.0040 C   0  0  0  0  0  2  0  0  0  0  0  0
  196.4530  174.7260  144.6840 C   0  0  1  0  0  3  0  0  0  0  0  0
  192.8310  175.1280  144.2110 C   0  0  0  0  0  0  0  0  0  0  0  0
  193.2530  174.9410  145.6460 C   0  0  0  0  0  2  0  0  0  0  0  0
  194.5380  175.6570  146.0420 C   0  0  0  0  0  2  0  0  0  0  0  0
  191.6490  174.5790  143.8880 C   0  0  0  0  0  3  0  0  0  0  0  0
  197.2490  172.6430  145.5400 O   0  0  0  0  0  1  0  0  0  0  0  0
  197.5950  173.7270  144.7310 C   0  0  0  0  0  2  0  0  0  0  0  0
  188.0610  177.2400  143.2820 C   0  0  1  0  0  3  0  0  0  0  0  0
  187.7950  177.7930  145.0030 S   0  0  0  0  0  0  0  0  0  0  0  0
  186.0370  177.6980  144.8600 N   0  0  0  0  0  0  0  0  0  0  0  0
  184.2710  178.9580  145.6030 C   0  0  0  0  0  2  0  0  0  0  0  0
  185.5470  177.0190  146.0500 C   0  0  0  0  0  2  0  0  0  0  0  0
  184.2900  177.7290  146.4700 C   0  0  0  0  0  2  0  0  0  0  0  0
  185.5550  179.0160  144.9220 N   0  0  0  0  0  2  0  0  0  0  0  0
  187.6540  178.2810  142.2320 C   0  0  0  0  0  2  0  0  0  0  0  0
  187.0020  176.9170  140.2060 N   0  0  0  0  0  2  0  0  0  0  0  0
  186.6260  177.7940  141.2610 C   0  0  0  0  0  0  0  0  0  0  0  0
  185.3880  178.1310  141.4040 N   0  0  0  0  0  1  0  0  0  0  0  0
  1  2  1  0  0  0  0
  2  7  1  0  0  0  0
  3  1  1  0  0  0  0
  4  3  1  0  0  0  0
  4  6  1  0  0  0  0
  6  2  1  0  0  0  0
  6 17  1  1  0  0  0
  7  5  2  0  0  0  0
  7 20  1  0  0  0  0
  8  9  1  6  0  0  0
  8 11  1  0  0  0  0
  8 10  1  0  0  0  0
 10 13  1  0  0  0  0
 11  9  1  6  0  0  0
 11 14  1  0  0  0  0
 12 16  1  0  0  0  0
 13 19  1  1  0  0  0
 13 12  1  0  0  0  0
 14 15  1  0  0  0  0
 15 16  1  0  0  0  0
 17 14  2  0  0  0  0
 19 18  1  0  0  0  0
 20 27  1  6  0  0  0
 20 21  1  0  0  0  0
 22 26  1  0  0  0  0
 22 21  1  0  0  0  0
 22 24  1  0  0  0  0
 23 25  1  0  0  0  0
 24 25  1  0  0  0  0
 26 23  1  0  0  0  0
 28 29  2  0  0  0  0
 29 30  1  0  0  0  0
 29 27  1  0  0  0  0
M  END
>  <MODEL>
1

>  <REMARK>
 VINA RESULT:      -6.6      0.000      0.000
  Name = 
  7 active torsions:
  status: ('A' for Active; 'I' for Inactive)
    1  A    between atoms: N_1  and  S_4
    2  A    between atoms: S_4  and  C_13
    3  A    between atoms: C_13  and  C_14
    4  A    between atoms: C_13  and  C_28
    5  A    between atoms: C_14  and  C_17
    6  A    between atoms: C_18  and  C_24
    7  A    between atoms: C_26  and  C_30
                            x       y       z     vdW  Elec       q    Type
                         _______ _______ _______ _____ _____    ______ ____

>  <TORSDO>
F 7

$$$$
=
 OpenBabel11062419453D

 30 33  0  0  1  0  0  0  0  0999 V2000
  192.5060  172.9730  144.5150 C   0  0  0  0  0  2  0  0  0  0  0  0
  192.1400  174.3650  144.6920 N   0  0  0  0  0  0  0  0  0  0  0  0
  191.1960  172.2140  144.4240 C   0  0  0  0  0  2  0  0  0  0  0  0
  190.1150  173.1730  144.9040 C   0  0  0  0  0  2  0  0  0  0  0  0
  192.7130  176.6050  145.0130 O   0  0  0  0  0  0  0  0  0  0  0  0
  190.7100  174.5690  144.8200 C   0  0  2  0  0  3  0  0  0  0  0  0
  193.1020  175.4210  144.8130 C   0  0  0  0  0  0  0  0  0  0  0  0
  187.7470  177.4980  145.2150 C   0  0  2  0  0  3  0  0  0  0  0  0
  188.4320  176.3510  145.9110 C   0  0  0  0  0  2  0  0  0  0  0  0
  186.7140  176.9420  144.2450 C   0  0  0  0  0  2  0  0  0  0  0  0
  189.2170  177.1720  144.8970 C   0  0  1  0  0  3  0  0  0  0  0  0
  186.9790  178.1220  142.0410 C   0  0  0  0  0  2  0  0  0  0  0  0
  186.2090  178.0670  143.3540 C   0  0  1  0  0  3  0  0  0  0  0  0
  189.4770  176.4030  143.6050 C   0  0  0  0  0  0  0  0  0  0  0  0
  189.1780  176.9840  142.2460 C   0  0  0  0  0  2  0  0  0  0  0  0
  188.4700  178.3320  142.2590 C   0  0  0  0  0  2  0  0  0  0  0  0
  190.1870  175.2640  143.5950 C   0  0  0  0  0  3  0  0  0  0  0  0
  183.9600  178.6300  143.9250 O   0  0  0  0  0  1  0  0  0  0  0  0
  184.7360  177.8670  143.0510 C   0  0  0  0  0  2  0  0  0  0  0  0
  194.5650  175.1320  144.6580 C   0  0  1  0  0  3  0  0  0  0  0  0
  195.4350  176.5160  143.8440 S   0  0  0  0  0  0  0  0  0  0  0  0
  195.2430  175.8130  142.2350 N   0  0  0  0  0  0  0  0  0  0  0  0
  196.4600  174.3710  140.9300 C   0  0  0  0  0  2  0  0  0  0  0  0
  195.9830  176.6560  141.3080 C   0  0  0  0  0  2  0  0  0  0  0  0
  196.6670  175.7370  140.3340 C   0  0  0  0  0  2  0  0  0  0  0  0
  195.8980  174.5700  142.2570 N   0  0  0  0  0  2  0  0  0  0  0  0
  195.2360  174.6620  145.9550 C   0  0  0  0  0  2  0  0  0  0  0  0
  195.9330  172.2410  145.7440 N   0  0  0  0  0  1  0  0  0  0  0  0
  196.2880  173.6190  145.7520 C   0  0  0  0  0  0  0  0  0  0  0  0
  197.5130  173.9670  145.5370 N   0  0  0  0  0  2  0  0  0  0  0  0
  1  2  1  0  0  0  0
  2  7  1  0  0  0  0
  2  6  1  0  0  0  0
  3  1  1  0  0  0  0
  3  4  1  0  0  0  0
  6 17  1  6  0  0  0
  6  4  1  0  0  0  0
  7  5  2  0  0  0  0
  8 10  1  6  0  0  0
  8  9  1  0  0  0  0
 11  8  1  0  0  0  0
 11  9  1  1  0  0  0
 12 16  1  0  0  0  0
 12 13  1  0  0  0  0
 13 19  1  6  0  0  0
 13 10  1  0  0  0  0
 14 11  1  0  0  0  0
 15 16  1  0  0  0  0
 15 14  1  0  0  0  0
 17 14  2  0  0  0  0
 19 18  1  0  0  0  0
 20  7  1  0  0  0  0
 20 27  1  1  0  0  0
 21 20  1  0  0  0  0
 22 26  1  0  0  0  0
 22 21  1  0  0  0  0
 23 26  1  0  0  0  0
 24 22  1  0  0  0  0
 25 23  1  0  0  0  0
 25 24  1  0  0  0  0
 28 29  1  0  0  0  0
 29 27  1  0  0  0  0
 30 29  2  0  0  0  0
M  END
>  <MODEL>
2

>  <REMARK>
 VINA RESULT:      -6.5      3.783      8.969
  Name = 
  7 active torsions:
  status: ('A' for Active; 'I' for Inactive)
    1  A    between atoms: N_1  and  S_4
    2  A    between atoms: S_4  and  C_13
    3  A    between atoms: C_13  and  C_14
    4  A    between atoms: C_13  and  C_28
    5  A    between atoms: C_14  and  C_17
    6  A    between atoms: C_18  and  C_24
    7  A    between atoms: C_26  and  C_30
                            x       y       z     vdW  Elec       q    Type
                         _______ _______ _______ _____ _____    ______ ____

>  <TORSDO>
F 7

$$$$
=
 OpenBabel11062419453D

 30 33  0  0  1  0  0  0  0  0999 V2000
  191.8610  172.6400  143.8930 C   0  0  0  0  0  2  0  0  0  0  0  0
  191.5820  173.9500  144.4480 N   0  0  0  0  0  0  0  0  0  0  0  0
  190.5870  171.8380  144.0790 C   0  0  0  0  0  2  0  0  0  0  0  0
  189.7280  172.6250  145.0590 C   0  0  0  0  0  2  0  0  0  0  0  0
  192.2440  176.1190  145.0030 O   0  0  0  0  0  0  0  0  0  0  0  0
  190.2730  174.0430  145.0650 C   0  0  2  0  0  3  0  0  0  0  0  0
  192.5380  175.0190  144.4600 C   0  0  0  0  0  0  0  0  0  0  0  0
  187.9630  176.9920  146.9330 C   0  0  2  0  0  3  0  0  0  0  0  0
  188.7570  175.7330  147.1640 C   0  0  0  0  0  2  0  0  0  0  0  0
  186.5910  176.6180  146.3870 C   0  0  0  0  0  2  0  0  0  0  0  0
  189.1630  176.6620  146.0270 C   0  0  1  0  0  3  0  0  0  0  0  0
  186.0950  178.0910  144.4110 C   0  0  0  0  0  2  0  0  0  0  0  0
  185.8860  177.8770  145.9050 C   0  0  1  0  0  3  0  0  0  0  0  0
  188.8370  176.0770  144.6570 C   0  0  0  0  0  0  0  0  0  0  0  0
  188.0930  176.8560  143.6030 C   0  0  0  0  0  2  0  0  0  0  0  0
  187.5670  178.2140  144.0500 C   0  0  0  0  0  2  0  0  0  0  0  0
  189.3840  174.9260  144.2350 C   0  0  0  0  0  3  0  0  0  0  0  0
  183.7470  178.9250  145.7310 O   0  0  0  0  0  1  0  0  0  0  0  0
  184.3980  177.7760  146.1830 C   0  0  0  0  0  2  0  0  0  0  0  0
  193.8700  174.8490  143.7910 C   0  0  1  0  0  3  0  0  0  0  0  0
  193.9730  175.8300  142.2540 S   0  0  0  0  0  0  0  0  0  0  0  0
  195.6650  175.4010  141.9840 N   0  0  0  0  0  0  0  0  0  0  0  0
  197.1960  175.7760  140.3170 C   0  0  0  0  0  2  0  0  0  0  0  0
  195.6760  174.1850  141.1830 C   0  0  0  0  0  2  0  0  0  0  0  0
  196.7840  174.3360  140.1780 C   0  0  0  0  0  2  0  0  0  0  0  0
  196.2150  176.4150  141.1810 N   0  0  0  0  0  2  0  0  0  0  0  0
  195.0600  175.0590  144.7350 C   0  0  0  0  0  2  0  0  0  0  0  0
  196.7980  173.8260  146.0950 N   0  0  0  0  0  1  0  0  0  0  0  0
  195.7530  173.7940  145.1300 C   0  0  0  0  0  0  0  0  0  0  0  0
  195.3750  172.6650  144.6320 N   0  0  0  0  0  2  0  0  0  0  0  0
  1  3  1  0  0  0  0
  1  2  1  0  0  0  0
  2  7  1  0  0  0  0
  2  6  1  0  0  0  0
  3  4  1  0  0  0  0
  4  6  1  0  0  0  0
  6 17  1  6  0  0  0
  7  5  2  0  0  0  0
  8 10  1  6  0  0  0
  8  9  1  0  0  0  0
 11  8  1  0  0  0  0
 11  9  1  1  0  0  0
 12 13  1  0  0  0  0
 13 19  1  6  0  0  0
 13 10  1  0  0  0  0
 14 11  1  0  0  0  0
 15 16  1  0  0  0  0
 15 14  1  0  0  0  0
 16 12  1  0  0  0  0
 17 14  2  0  0  0  0
 18 19  1  0  0  0  0
 20  7  1  0  0  0  0
 20 27  1  1  0  0  0
 21 20  1  0  0  0  0
 22 21  1  0  0  0  0
 23 26  1  0  0  0  0
 24 22  1  0  0  0  0
 25 23  1  0  0  0  0
 25 24  1  0  0  0  0
 26 22  1  0  0  0  0
 27 29  1  0  0  0  0
 29 28  1  0  0  0  0
 30 29  2  0  0  0  0
M  END
>  <MODEL>
3

>  <REMARK>
 VINA RESULT:      -6.4      3.706      8.975
  Name = 
  7 active torsions:
  status: ('A' for Active; 'I' for Inactive)
    1  A    between atoms: N_1  and  S_4
    2  A    between atoms: S_4  and  C_13
    3  A    between atoms: C_13  and  C_14
    4  A    between atoms: C_13  and  C_28
    5  A    between atoms: C_14  and  C_17
    6  A    between atoms: C_18  and  C_24
    7  A    between atoms: C_26  and  C_30
                            x       y       z     vdW  Elec       q    Type
                         _______ _______ _______ _____ _____    ______ ____

>  <TORSDO>
F 7

$$$$
=
 OpenBabel11062419453D

 30 33  0  0  1  0  0  0  0  0999 V2000
  189.4680  175.5540  146.7650 C   0  0  0  0  0  2  0  0  0  0  0  0
  189.4100  176.5800  145.7420 N   0  0  0  0  0  0  0  0  0  0  0  0
  188.0390  175.3650  147.2360 C   0  0  0  0  0  2  0  0  0  0  0  0
  187.2530  176.5540  146.7000 C   0  0  0  0  0  2  0  0  0  0  0  0
  190.4470  177.9770  144.1850 O   0  0  0  0  0  0  0  0  0  0  0  0
  188.0840  177.1450  145.5730 C   0  0  2  0  0  3  0  0  0  0  0  0
  190.5640  177.0470  145.0300 C   0  0  0  0  0  0  0  0  0  0  0  0
  185.2630  179.5650  143.6500 C   0  0  2  0  0  3  0  0  0  0  0  0
  185.9440  179.2910  144.9650 C   0  0  0  0  0  2  0  0  0  0  0  0
  184.1540  178.5420  143.4460 C   0  0  0  0  0  2  0  0  0  0  0  0
  186.6980  179.0090  143.6720 C   0  0  1  0  0  3  0  0  0  0  0  0
  184.3310  177.6350  141.1080 C   0  0  0  0  0  2  0  0  0  0  0  0
  183.6390  178.6420  142.0170 C   0  0  1  0  0  3  0  0  0  0  0  0
  186.8510  177.5160  143.4040 C   0  0  0  0  0  0  0  0  0  0  0  0
  186.4940  176.8930  142.0790 C   0  0  0  0  0  2  0  0  0  0  0  0
  185.8390  177.8330  141.0760 C   0  0  0  0  0  2  0  0  0  0  0  0
  187.5160  176.7130  144.2500 C   0  0  0  0  0  3  0  0  0  0  0  0
  181.6310  178.6990  140.7260 O   0  0  0  0  0  1  0  0  0  0  0  0
  182.1440  178.3850  141.9860 C   0  0  0  0  0  2  0  0  0  0  0  0
  191.9000  176.4040  145.2530 C   0  0  1  0  0  3  0  0  0  0  0  0
  191.8850  174.6470  144.7540 S   0  0  0  0  0  0  0  0  0  0  0  0
  191.1330  175.0000  143.1950 N   0  0  0  0  0  0  0  0  0  0  0  0
  189.9020  173.8060  141.6710 C   0  0  0  0  0  2  0  0  0  0  0  0
  192.0760  174.5940  142.1630 C   0  0  0  0  0  2  0  0  0  0  0  0
  191.2720  173.9480  141.0690 C   0  0  0  0  0  2  0  0  0  0  0  0
  190.0220  174.1480  143.0800 N   0  0  0  0  0  2  0  0  0  0  0  0
  193.0680  177.2020  144.6610 C   0  0  0  0  0  2  0  0  0  0  0  0
  195.4850  176.4650  144.5590 N   0  0  0  0  0  2  0  0  0  0  0  0
  194.3830  176.9380  145.3240 C   0  0  0  0  0  0  0  0  0  0  0  0
  194.5340  177.1840  146.5830 N   0  0  0  0  0  1  0  0  0  0  0  0
  1  3  1  0  0  0  0
  2  1  1  0  0  0  0
  4  3  1  0  0  0  0
  5  7  2  0  0  0  0
  6 17  1  6  0  0  0
  6  2  1  0  0  0  0
  6  4  1  0  0  0  0
  7 20  1  0  0  0  0
  7  2  1  0  0  0  0
  8 10  1  6  0  0  0
  8 11  1  0  0  0  0
  8  9  1  0  0  0  0
 11  9  1  1  0  0  0
 12 13  1  0  0  0  0
 13 19  1  1  0  0  0
 13 10  1  0  0  0  0
 14 11  1  0  0  0  0
 14 17  2  0  0  0  0
 15 14  1  0  0  0  0
 16 12  1  0  0  0  0
 16 15  1  0  0  0  0
 18 19  1  0  0  0  0
 20 27  1  6  0  0  0
 21 20  1  0  0  0  0
 22 21  1  0  0  0  0
 23 26  1  0  0  0  0
 24 22  1  0  0  0  0
 25 23  1  0  0  0  0
 25 24  1  0  0  0  0
 26 22  1  0  0  0  0
 27 29  1  0  0  0  0
 28 29  2  0  0  0  0
 29 30  1  0  0  0  0
M  END
>  <MODEL>
4

>  <REMARK>
 VINA RESULT:      -6.3      3.242      8.877
  Name = 
  7 active torsions:
  status: ('A' for Active; 'I' for Inactive)
    1  A    between atoms: N_1  and  S_4
    2  A    between atoms: S_4  and  C_13
    3  A    between atoms: C_13  and  C_14
    4  A    between atoms: C_13  and  C_28
    5  A    between atoms: C_14  and  C_17
    6  A    between atoms: C_18  and  C_24
    7  A    between atoms: C_26  and  C_30
                            x       y       z     vdW  Elec       q    Type
                         _______ _______ _______ _____ _____    ______ ____

>  <TORSDO>
F 7

$$$$
=
 OpenBabel11062419453D

 30 33  0  0  1  0  0  0  0  0999 V2000
  191.7340  172.6550  143.8250 C   0  0  0  0  0  2  0  0  0  0  0  0
  191.5790  174.0390  144.2300 N   0  0  0  0  0  0  0  0  0  0  0  0
  190.4830  171.9450  144.3060 C   0  0  0  0  0  2  0  0  0  0  0  0
  189.8060  172.8940  145.2860 C   0  0  0  0  0  2  0  0  0  0  0  0
  192.3750  176.2280  144.3790 O   0  0  0  0  0  0  0  0  0  0  0  0
  190.3820  174.2730  145.0170 C   0  0  2  0  0  3  0  0  0  0  0  0
  192.5530  175.0530  143.9530 C   0  0  0  0  0  0  0  0  0  0  0  0
  188.1260  177.2500  146.9050 C   0  0  2  0  0  3  0  0  0  0  0  0
  188.9790  176.0300  147.1380 C   0  0  0  0  0  2  0  0  0  0  0  0
  186.7290  176.8040  146.4930 C   0  0  0  0  0  2  0  0  0  0  0  0
  189.2610  176.9060  145.9240 C   0  0  1  0  0  3  0  0  0  0  0  0
  186.0260  178.1480  144.4880 C   0  0  0  0  0  2  0  0  0  0  0  0
  185.9440  178.0110  146.0030 C   0  0  1  0  0  3  0  0  0  0  0  0
  188.8490  176.2360  144.6180 C   0  0  0  0  0  0  0  0  0  0  0  0
  187.9970  176.9320  143.5870 C   0  0  0  0  0  2  0  0  0  0  0  0
  187.4610  178.2960  144.0030 C   0  0  0  0  0  2  0  0  0  0  0  0
  189.4010  175.0800  144.2150 C   0  0  0  0  0  3  0  0  0  0  0  0
  183.7060  178.7760  145.6730 O   0  0  0  0  0  1  0  0  0  0  0  0
  184.4870  177.8810  146.4050 C   0  0  0  0  0  2  0  0  0  0  0  0
  193.7610  174.7340  143.1240 C   0  0  1  0  0  3  0  0  0  0  0  0
  193.9860  175.9520  141.7810 S   0  0  0  0  0  0  0  0  0  0  0  0
  194.2720  174.7000  140.5680 N   0  0  0  0  0  0  0  0  0  0  0  0
  193.9880  174.5350  138.2980 C   0  0  0  0  0  2  0  0  0  0  0  0
  193.0170  173.9880  140.3830 C   0  0  0  0  0  2  0  0  0  0  0  0
  192.8800  173.7220  138.9090 C   0  0  0  0  0  2  0  0  0  0  0  0
  194.5400  175.3630  139.3580 N   0  0  0  0  0  2  0  0  0  0  0  0
  195.0270  174.4930  143.9540 C   0  0  0  0  0  2  0  0  0  0  0  0
  197.2000  175.6260  143.3320 N   0  0  0  0  0  2  0  0  0  0  0  0
  195.9510  175.6690  144.0110 C   0  0  0  0  0  0  0  0  0  0  0  0
  195.5960  176.7410  144.6360 N   0  0  0  0  0  1  0  0  0  0  0  0
  1  2  1  0  0  0  0
  1  3  1  0  0  0  0
  2  6  1  0  0  0  0
  3  4  1  0  0  0  0
  6 17  1  6  0  0  0
  6  4  1  0  0  0  0
  7  2  1  0  0  0  0
  7  5  2  0  0  0  0
  8 10  1  6  0  0  0
  8  9  1  0  0  0  0
 11  8  1  0  0  0  0
 11  9  1  1  0  0  0
 12 13  1  0  0  0  0
 13 19  1  6  0  0  0
 13 10  1  0  0  0  0
 14 11  1  0  0  0  0
 15 16  1  0  0  0  0
 15 14  1  0  0  0  0
 16 12  1  0  0  0  0
 17 14  2  0  0  0  0
 18 19  1  0  0  0  0
 20  7  1  0  0  0  0
 20 27  1  1  0  0  0
 21 20  1  0  0  0  0
 22 21  1  0  0  0  0
 23 25  1  0  0  0  0
 23 26  1  0  0  0  0
 24 22  1  0  0  0  0
 25 24  1  0  0  0  0
 26 22  1  0  0  0  0
 27 29  1  0  0  0  0
 28 29  2  0  0  0  0
 29 30  1  0  0  0  0
M  END
>  <MODEL>
5

>  <REMARK>
 VINA RESULT:      -6.1      3.590      8.549
  Name = 
  7 active torsions:
  status: ('A' for Active; 'I' for Inactive)
    1  A    between atoms: N_1  and  S_4
    2  A    between atoms: S_4  and  C_13
    3  A    between atoms: C_13  and  C_14
    4  A    between atoms: C_13  and  C_28
    5  A    between atoms: C_14  and  C_17
    6  A    between atoms: C_18  and  C_24
    7  A    between atoms: C_26  and  C_30
                            x       y       z     vdW  Elec       q    Type
                         _______ _______ _______ _____ _____    ______ ____

>  <TORSDO>
F 7

$$$$
=
 OpenBabel11062419453D

 30 33  0  0  1  0  0  0  0  0999 V2000
  191.9420  172.9230  144.2290 C   0  0  0  0  0  2  0  0  0  0  0  0
  191.7200  174.3560  144.2480 N   0  0  0  0  0  0  0  0  0  0  0  0
  190.5940  172.2960  144.5290 C   0  0  0  0  0  2  0  0  0  0  0  0
  189.7110  173.4180  145.0560 C   0  0  0  0  0  2  0  0  0  0  0  0
  192.5010  176.5490  144.0800 O   0  0  0  0  0  0  0  0  0  0  0  0
  190.3680  174.7200  144.6290 C   0  0  2  0  0  3  0  0  0  0  0  0
  192.7550  175.3160  144.0000 C   0  0  0  0  0  0  0  0  0  0  0  0
  187.7480  177.9440  145.1400 C   0  0  2  0  0  3  0  0  0  0  0  0
  188.4910  176.8470  145.8570 C   0  0  0  0  0  2  0  0  0  0  0  0
  186.5000  177.3550  144.4960 C   0  0  0  0  0  2  0  0  0  0  0  0
  189.0940  177.4380  144.5900 C   0  0  1  0  0  3  0  0  0  0  0  0
  186.3650  178.1810  142.1260 C   0  0  0  0  0  2  0  0  0  0  0  0
  185.8890  178.3860  143.5580 C   0  0  1  0  0  3  0  0  0  0  0  0
  189.0240  176.4730  143.4110 C   0  0  0  0  0  0  0  0  0  0  0  0
  188.4810  176.8800  142.0650 C   0  0  0  0  0  2  0  0  0  0  0  0
  187.8790  178.2780  142.0050 C   0  0  0  0  0  2  0  0  0  0  0  0
  189.6420  175.2810  143.4390 C   0  0  0  0  0  3  0  0  0  0  0  0
  183.8730  178.1920  142.2930 O   0  0  0  0  0  1  0  0  0  0  0  0
  184.3760  178.2860  143.5910 C   0  0  0  0  0  2  0  0  0  0  0  0
  194.1270  174.8610  143.6010 C   0  0  1  0  0  3  0  0  0  0  0  0
  195.0530  174.2050  145.0330 S   0  0  0  0  0  0  0  0  0  0  0  0
  196.4320  175.2700  144.7480 N   0  0  0  0  0  0  0  0  0  0  0  0
  197.0130  176.7870  143.1270 C   0  0  0  0  0  2  0  0  0  0  0  0
  197.3430  174.5630  143.8590 C   0  0  0  0  0  2  0  0  0  0  0  0
  197.8680  175.5750  142.8780 C   0  0  0  0  0  2  0  0  0  0  0  0
  195.9470  176.3760  144.0280 N   0  0  0  0  0  2  0  0  0  0  0  0
  194.1330  173.9260  142.3860 C   0  0  0  0  0  2  0  0  0  0  0  0
  192.8710  174.1070  140.2020 N   0  0  0  0  0  2  0  0  0  0  0  0
  193.8620  174.6170  141.0870 C   0  0  0  0  0  0  0  0  0  0  0  0
  194.4940  175.7020  140.7860 N   0  0  0  0  0  1  0  0  0  0  0  0
  1  2  1  0  0  0  0
  1  3  1  0  0  0  0
  2  6  1  0  0  0  0
  3  4  1  0  0  0  0
  6 17  1  6  0  0  0
  6  4  1  0  0  0  0
  7  5  2  0  0  0  0
  7  2  1  0  0  0  0
  8 10  1  6  0  0  0
  8  9  1  0  0  0  0
 11  8  1  0  0  0  0
 11  9  1  1  0  0  0
 12 13  1  0  0  0  0
 13 19  1  6  0  0  0
 13 10  1  0  0  0  0
 14 17  2  0  0  0  0
 14 11  1  0  0  0  0
 15 14  1  0  0  0  0
 16 15  1  0  0  0  0
 16 12  1  0  0  0  0
 18 19  1  0  0  0  0
 20 27  1  6  0  0  0
 20  7  1  0  0  0  0
 20 21  1  0  0  0  0
 22 21  1  0  0  0  0
 23 26  1  0  0  0  0
 24 22  1  0  0  0  0
 25 23  1  0  0  0  0
 25 24  1  0  0  0  0
 26 22  1  0  0  0  0
 28 29  2  0  0  0  0
 29 27  1  0  0  0  0
 30 29  1  0  0  0  0
M  END
>  <MODEL>
6

>  <REMARK>
 VINA RESULT:      -6.0      3.631      8.554
  Name = 
  7 active torsions:
  status: ('A' for Active; 'I' for Inactive)
    1  A    between atoms: N_1  and  S_4
    2  A    between atoms: S_4  and  C_13
    3  A    between atoms: C_13  and  C_14
    4  A    between atoms: C_13  and  C_28
    5  A    between atoms: C_14  and  C_17
    6  A    between atoms: C_18  and  C_24
    7  A    between atoms: C_26  and  C_30
                            x       y       z     vdW  Elec       q    Type
                         _______ _______ _______ _____ _____    ______ ____

>  <TORSDO>
F 7

$$$$
=
 OpenBabel11062419453D

 30 33  0  0  1  0  0  0  0  0999 V2000
  187.8270  176.0430  146.7860 C   0  0  0  0  0  2  0  0  0  0  0  0
  188.5020  176.1190  145.5050 N   0  0  0  0  0  0  0  0  0  0  0  0
  188.6080  175.0310  147.6010 C   0  0  0  0  0  2  0  0  0  0  0  0
  189.5120  174.2990  146.6180 C   0  0  0  0  0  2  0  0  0  0  0  0
  188.6820  176.9600  143.3350 O   0  0  0  0  0  0  0  0  0  0  0  0
  189.5960  175.1750  145.3790 C   0  0  2  0  0  3  0  0  0  0  0  0
  188.0760  176.9800  144.4410 C   0  0  0  0  0  0  0  0  0  0  0  0
  193.0720  173.2220  144.1050 C   0  0  2  0  0  3  0  0  0  0  0  0
  191.6540  173.0140  144.5710 C   0  0  0  0  0  2  0  0  0  0  0  0
  193.9580  173.4730  145.3170 C   0  0  0  0  0  2  0  0  0  0  0  0
  192.0030  174.2910  143.8170 C   0  0  1  0  0  3  0  0  0  0  0  0
  195.4170  175.4630  144.8340 C   0  0  0  0  0  2  0  0  0  0  0  0
  195.3270  173.9420  144.8460 C   0  0  1  0  0  3  0  0  0  0  0  0
  192.0080  175.5170  144.7240 C   0  0  0  0  0  0  0  0  0  0  0  0
  193.1580  176.4920  144.7570 C   0  0  0  0  0  2  0  0  0  0  0  0
  194.3710  176.0920  143.9270 C   0  0  0  0  0  2  0  0  0  0  0  0
  190.9040  175.9150  145.3750 C   0  0  0  0  0  3  0  0  0  0  0  0
  197.5660  174.1620  145.6470 O   0  0  0  0  0  1  0  0  0  0  0  0
  196.4070  173.3940  145.7590 C   0  0  0  0  0  2  0  0  0  0  0  0
  186.9400  177.9370  144.6530 C   0  0  1  0  0  3  0  0  0  0  0  0
  186.7630  179.0820  143.2410 S   0  0  0  0  0  0  0  0  0  0  0  0
  185.8950  177.8930  142.2650 N   0  0  0  0  0  0  0  0  0  0  0  0
  185.5810  177.5420  140.0200 C   0  0  0  0  0  2  0  0  0  0  0  0
  184.5900  178.4600  141.9600 C   0  0  0  0  0  2  0  0  0  0  0  0
  184.2830  178.1050  140.5310 C   0  0  0  0  0  2  0  0  0  0  0  0
  186.5830  177.7910  141.0440 N   0  0  0  0  0  2  0  0  0  0  0  0
  185.6300  177.2500  145.0550 C   0  0  0  0  0  2  0  0  0  0  0  0
  185.0850  178.2820  147.2980 N   0  0  0  0  0  1  0  0  0  0  0  0
  184.7490  178.0860  145.9300 C   0  0  0  0  0  0  0  0  0  0  0  0
  183.7090  178.6690  145.4340 N   0  0  0  0  0  2  0  0  0  0  0  0
  1  3  1  0  0  0  0
  2  1  1  0  0  0  0
  4  3  1  0  0  0  0
  5  7  2  0  0  0  0
  6 17  1  1  0  0  0
  6  2  1  0  0  0  0
  6  4  1  0  0  0  0
  7 20  1  0  0  0  0
  7  2  1  0  0  0  0
  8  9  1  1  0  0  0
  8 10  1  0  0  0  0
 11  8  1  0  0  0  0
 11  9  1  1  0  0  0
 11 14  1  0  0  0  0
 12 13  1  0  0  0  0
 13 10  1  0  0  0  0
 13 19  1  1  0  0  0
 14 15  1  0  0  0  0
 14 17  2  0  0  0  0
 16 15  1  0  0  0  0
 16 12  1  0  0  0  0
 18 19  1  0  0  0  0
 20 27  1  6  0  0  0
 21 20  1  0  0  0  0
 22 21  1  0  0  0  0
 23 25  1  0  0  0  0
 23 26  1  0  0  0  0
 24 22  1  0  0  0  0
 25 24  1  0  0  0  0
 26 22  1  0  0  0  0
 27 29  1  0  0  0  0
 29 28  1  0  0  0  0
 30 29  2  0  0  0  0
M  END
>  <MODEL>
7

>  <REMARK>
 VINA RESULT:      -6.0      1.998      3.686
  Name = 
  7 active torsions:
  status: ('A' for Active; 'I' for Inactive)
    1  A    between atoms: N_1  and  S_4
    2  A    between atoms: S_4  and  C_13
    3  A    between atoms: C_13  and  C_14
    4  A    between atoms: C_13  and  C_28
    5  A    between atoms: C_14  and  C_17
    6  A    between atoms: C_18  and  C_24
    7  A    between atoms: C_26  and  C_30
                            x       y       z     vdW  Elec       q    Type
                         _______ _______ _______ _____ _____    ______ ____

>  <TORSDO>
F 7

$$$$
=
 OpenBabel11062419453D

 30 33  0  0  1  0  0  0  0  0999 V2000
  189.6900  173.7090  144.7940 C   0  0  0  0  0  2  0  0  0  0  0  0
  189.5040  174.2620  143.4660 N   0  0  0  0  0  0  0  0  0  0  0  0
  189.7580  172.2060  144.6050 C   0  0  0  0  0  2  0  0  0  0  0  0
  189.2550  171.9310  143.1950 C   0  0  0  0  0  2  0  0  0  0  0  0
  189.1890  176.0760  142.0320 O   0  0  0  0  0  0  0  0  0  0  0  0
  189.3480  173.2470  142.4410 C   0  0  2  0  0  3  0  0  0  0  0  0
  189.3990  175.6680  143.2070 C   0  0  0  0  0  0  0  0  0  0  0  0
  188.8760  172.8400  138.3030 C   0  0  2  0  0  3  0  0  0  0  0  0
  188.1910  172.6690  139.6330 C   0  0  0  0  0  2  0  0  0  0  0  0
  189.7940  171.6490  138.0630 C   0  0  0  0  0  2  0  0  0  0  0  0
  189.2510  173.7530  139.4840 C   0  0  1  0  0  3  0  0  0  0  0  0
  192.0260  172.5090  137.2890 C   0  0  0  0  0  2  0  0  0  0  0  0
  190.6810  171.9360  136.8600 C   0  0  1  0  0  3  0  0  0  0  0  0
  190.5390  173.4100  140.2240 C   0  0  0  0  0  0  0  0  0  0  0  0
  191.8940  173.4910  139.5670 C   0  0  0  0  0  2  0  0  0  0  0  0
  191.8740  173.8020  138.0760 C   0  0  0  0  0  2  0  0  0  0  0  0
  190.5610  173.2340  141.5550 C   0  0  0  0  0  3  0  0  0  0  0  0
  190.6140  169.5490  136.8610 O   0  0  0  0  0  1  0  0  0  0  0  0
  190.9190  170.6600  136.0740 C   0  0  0  0  0  2  0  0  0  0  0  0
  189.5820  176.6570  144.3200 C   0  0  1  0  0  3  0  0  0  0  0  0
  191.1300  177.6050  144.1200 S   0  0  0  0  0  0  0  0  0  0  0  0
  192.0890  176.3990  144.9850 N   0  0  0  0  0  0  0  0  0  0  0  0
  192.7990  176.1270  147.1500 C   0  0  0  0  0  2  0  0  0  0  0  0
  193.4620  176.8810  145.0090 C   0  0  0  0  0  2  0  0  0  0  0  0
  194.0100  176.5680  146.3750 C   0  0  0  0  0  2  0  0  0  0  0  0
  191.6390  176.4030  146.3160 N   0  0  0  0  0  2  0  0  0  0  0  0
  188.3500  177.5360  144.5660 C   0  0  0  0  0  2  0  0  0  0  0  0
  186.0000  177.1940  145.4330 N   0  0  0  0  0  2  0  0  0  0  0  0
  187.3990  176.9810  145.5780 C   0  0  0  0  0  0  0  0  0  0  0  0
  187.8420  176.2700  146.5610 N   0  0  0  0  0  1  0  0  0  0  0  0
  2  1  1  0  0  0  0
  3  1  1  0  0  0  0
  4  3  1  0  0  0  0
  5  7  2  0  0  0  0
  6 17  1  6  0  0  0
  6  4  1  0  0  0  0
  6  2  1  0  0  0  0
  7  2  1  0  0  0  0
  7 20  1  0  0  0  0
  8 10  1  1  0  0  0
  8 11  1  0  0  0  0
  8  9  1  0  0  0  0
 11  9  1  1  0  0  0
 11 14  1  0  0  0  0
 12 16  1  0  0  0  0
 13 19  1  1  0  0  0
 13 12  1  0  0  0  0
 13 10  1  0  0  0  0
 14 17  2  0  0  0  0
 15 14  1  0  0  0  0
 16 15  1  0  0  0  0
 19 18  1  0  0  0  0
 20 27  1  6  0  0  0
 21 20  1  0  0  0  0
 21 22  1  0  0  0  0
 22 24  1  0  0  0  0
 22 26  1  0  0  0  0
 24 25  1  0  0  0  0
 25 23  1  0  0  0  0
 26 23  1  0  0  0  0
 27 29  1  0  0  0  0
 28 29  2  0  0  0  0
 29 30  1  0  0  0  0
M  END
>  <MODEL>
8

>  <REMARK>
 VINA RESULT:      -5.8      3.482      6.554
  Name = 
  7 active torsions:
  status: ('A' for Active; 'I' for Inactive)
    1  A    between atoms: N_1  and  S_4
    2  A    between atoms: S_4  and  C_13
    3  A    between atoms: C_13  and  C_14
    4  A    between atoms: C_13  and  C_28
    5  A    between atoms: C_14  and  C_17
    6  A    between atoms: C_18  and  C_24
    7  A    between atoms: C_26  and  C_30
                            x       y       z     vdW  Elec       q    Type
                         _______ _______ _______ _____ _____    ______ ____

>  <TORSDO>
F 7

$$$$
=
 OpenBabel11062419453D

 30 33  0  0  1  0  0  0  0  0999 V2000
  193.9610  175.0070  145.9010 C   0  0  0  0  0  2  0  0  0  0  0  0
  193.3380  175.3720  144.6440 N   0  0  0  0  0  0  0  0  0  0  0  0
  193.0440  175.5430  146.9830 C   0  0  0  0  0  2  0  0  0  0  0  0
  192.0920  176.5110  146.2930 C   0  0  0  0  0  2  0  0  0  0  0  0
  193.3210  175.4300  142.3100 O   0  0  0  0  0  0  0  0  0  0  0  0
  192.1460  176.1830  144.8110 C   0  0  2  0  0  3  0  0  0  0  0  0
  193.8930  175.0380  143.3650 C   0  0  0  0  0  0  0  0  0  0  0  0
  188.9920  178.0480  142.7890 C   0  0  2  0  0  3  0  0  0  0  0  0
  190.2270  178.2910  143.6160 C   0  0  0  0  0  2  0  0  0  0  0  0
  187.8440  177.6710  143.7150 C   0  0  0  0  0  2  0  0  0  0  0  0
  190.1660  177.0550  142.7290 C   0  0  1  0  0  3  0  0  0  0  0  0
  186.6880  175.6510  142.7630 C   0  0  0  0  0  2  0  0  0  0  0  0
  186.6740  177.1690  142.8800 C   0  0  1  0  0  3  0  0  0  0  0  0
  190.0090  175.7700  143.5360 C   0  0  0  0  0  0  0  0  0  0  0  0
  188.9550  174.7410  143.2180 C   0  0  0  0  0  2  0  0  0  0  0  0
  187.9710  175.1370  142.1250 C   0  0  0  0  0  2  0  0  0  0  0  0
  190.9340  175.3820  144.4290 C   0  0  0  0  0  3  0  0  0  0  0  0
  185.5300  178.8160  144.1770 O   0  0  0  0  0  1  0  0  0  0  0  0
  185.3640  177.6010  143.5120 C   0  0  0  0  0  2  0  0  0  0  0  0
  195.1240  174.1870  143.2740 C   0  0  1  0  0  3  0  0  0  0  0  0
  194.7180  172.4120  143.4150 S   0  0  0  0  0  0  0  0  0  0  0  0
  196.0850  172.0890  144.4870 N   0  0  0  0  0  0  0  0  0  0  0  0
  197.3900  170.2620  144.9610 C   0  0  0  0  0  2  0  0  0  0  0  0
  195.5430  171.5310  145.7170 C   0  0  0  0  0  2  0  0  0  0  0  0
  196.4730  170.4280  146.1420 C   0  0  0  0  0  2  0  0  0  0  0  0
  196.8410  171.0700  143.8820 N   0  0  0  0  0  2  0  0  0  0  0  0
  196.0110  174.5210  142.0690 C   0  0  0  0  0  2  0  0  0  0  0  0
  197.7030  176.0660  143.1380 N   0  0  0  0  0  1  0  0  0  0  0  0
  196.6900  175.8510  142.1630 C   0  0  0  0  0  0  0  0  0  0  0  0
  196.3900  176.7910  141.3300 N   0  0  0  0  0  2  0  0  0  0  0  0
  1  3  1  0  0  0  0
  2  6  1  0  0  0  0
  2  1  1  0  0  0  0
  4  3  1  0  0  0  0
  5  7  2  0  0  0  0
  6 17  1  1  0  0  0
  6  4  1  0  0  0  0
  7  2  1  0  0  0  0
  8  9  1  1  0  0  0
  8 10  1  0  0  0  0
 11  8  1  0  0  0  0
 11 14  1  0  0  0  0
 11  9  1  1  0  0  0
 12 13  1  0  0  0  0
 13 19  1  1  0  0  0
 13 10  1  0  0  0  0
 14 17  2  0  0  0  0
 15 14  1  0  0  0  0
 16 12  1  0  0  0  0
 16 15  1  0  0  0  0
 19 18  1  0  0  0  0
 20 27  1  6  0  0  0
 20  7  1  0  0  0  0
 20 21  1  0  0  0  0
 21 22  1  0  0  0  0
 22 24  1  0  0  0  0
 23 25  1  0  0  0  0
 24 25  1  0  0  0  0
 26 22  1  0  0  0  0
 26 23  1  0  0  0  0
 27 29  1  0  0  0  0
 29 28  1  0  0  0  0
 30 29  2  0  0  0  0
M  END
>  <MODEL>
9

>  <REMARK>
 VINA RESULT:      -5.7      4.042      9.018
  Name = 
  7 active torsions:
  status: ('A' for Active; 'I' for Inactive)
    1  A    between atoms: N_1  and  S_4
    2  A    between atoms: S_4  and  C_13
    3  A    between atoms: C_13  and  C_14
    4  A    between atoms: C_13  and  C_28
    5  A    between atoms: C_14  and  C_17
    6  A    between atoms: C_18  and  C_24
    7  A    between atoms: C_26  and  C_30
                            x       y       z     vdW  Elec       q    Type
                         _______ _______ _______ _____ _____    ______ ____

>  <TORSDO>
F 7

$$$$
