=
 OpenBabel11072408493D

 26 31  0  0  1  0  0  0  0  0999 V2000
  190.1190  176.4670  146.5790 O   0  0  0  0  0  0  0  0  0  0  0  0
  189.2200  176.3550  145.5340 N   0  0  0  0  0  0  0  0  0  0  0  0
  189.9940  175.2330  146.0140 C   0  0  1  0  0  3  0  0  0  0  0  0
  191.1210  174.9780  145.1120 N   0  0  0  0  0  0  0  0  0  0  0  0
  191.8600  173.9260  143.1390 O   0  0  0  0  0  0  0  0  0  0  0  0
  190.9510  174.0520  144.0090 C   0  0  0  0  0  0  0  0  0  0  0  0
  193.0640  177.0040  144.6060 S   0  0  0  0  0  0  0  0  0  0  0  0
  194.4540  175.7370  146.4860 N   0  0  0  0  0  0  0  0  0  0  0  0
  193.2250  175.0470  146.3460 C   0  0  0  0  0  3  0  0  0  0  0  0
  192.4060  175.5570  145.4430 C   0  0  0  0  0  0  0  0  0  0  0  0
  194.6010  176.8680  145.5850 C   0  0  0  0  0  3  0  0  0  0  0  0
  190.0320  171.9180  143.3470 C   0  0  1  0  0  3  0  0  0  0  0  0
  189.3490  172.8950  142.4850 N   0  0  0  0  0  2  0  0  0  0  0  0
  189.6760  173.2510  143.8730 C   0  0  2  0  0  0  0  0  0  0  0  0
  189.5940  172.0490  144.7840 C   0  0  0  0  0  2  0  0  0  0  0  0
  187.8970  176.2330  146.1260 C   0  0  0  0  0  2  0  0  0  0  0  0
  186.8370  176.7920  145.1880 C   0  0  0  0  0  2  0  0  0  0  0  0
  186.6200  178.2840  145.4170 C   0  0  2  0  0  3  0  0  0  0  0  0
  187.0550  178.7700  142.6940 F   0  0  0  0  0  0  0  0  0  0  0  0
  184.0880  178.6570  144.9650 C   0  0  0  0  0  3  0  0  0  0  0  0
  186.2390  178.5310  146.8590 C   0  0  0  0  0  3  0  0  0  0  0  0
  183.8510  178.6120  146.2770 C   0  0  0  0  0  3  0  0  0  0  0  0
  185.7640  180.0850  144.0390 O   0  0  0  0  0  0  0  0  0  0  0  0
  185.7520  179.0720  143.0540 C   0  0  2  0  0  3  0  0  0  0  0  0
  185.5030  178.7780  144.4870 C   0  0  1  0  0  0  0  0  0  0  0  0
  184.9620  178.6440  147.2520 C   0  0  0  0  0  3  0  0  0  0  0  0
  2  3  1  0  0  0  0
  2 16  1  0  0  0  0
  2  1  1  0  0  0  0
  3  4  1  6  0  0  0
  3  1  1  0  0  0  0
  4 10  1  0  0  0  0
  5  6  2  0  0  0  0
  6  4  1  0  0  0  0
  7 10  1  0  0  0  0
  7 11  1  0  0  0  0
  9  8  1  0  0  0  0
 10  9  2  0  0  0  0
 11  8  2  0  0  0  0
 12 14  1  0  0  0  0
 12 15  1  1  0  0  0
 13 12  1  0  0  0  0
 13 14  1  0  0  0  0
 14  6  1  1  0  0  0
 14 15  1  0  0  0  0
 17 16  1  0  0  0  0
 18 17  1  1  0  0  0
 18 21  1  0  0  0  0
 20 22  2  0  0  0  0
 21 26  2  0  0  0  0
 22 26  1  0  0  0  0
 23 25  1  0  0  0  0
 24 19  1  1  0  0  0
 24 23  1  0  0  0  0
 24 25  1  0  0  0  0
 25 20  1  1  0  0  0
 25 18  1  0  0  0  0
M  END
>  <MODEL>
1

>  <REMARK>
 VINA RESULT:      -6.8      0.000      0.000
  Name = 
  6 active torsions:
  status: ('A' for Active; 'I' for Inactive)
    1  A    between atoms: C_1  and  C_7
    2  A    between atoms: C_1  and  N_18
    3  A    between atoms: C_4  and  C_7
    4  A    between atoms: C_13  and  C_24
    5  A    between atoms: N_15  and  C_20
    6  A    between atoms: N_15  and  C_21
                            x       y       z     vdW  Elec       q    Type
                         _______ _______ _______ _____ _____    ______ ____

>  <TORSDO>
F 6

$$$$
=
 OpenBabel11072408493D

 26 31  0  0  1  0  0  0  0  0999 V2000
  190.1790  176.3130  146.3740 O   0  0  0  0  0  0  0  0  0  0  0  0
  189.2340  176.5610  145.3960 N   0  0  0  0  0  0  0  0  0  0  0  0
  190.0090  175.3430  145.4320 C   0  0  1  0  0  3  0  0  0  0  0  0
  191.0910  175.4060  144.4450 N   0  0  0  0  0  0  0  0  0  0  0  0
  191.6950  175.2260  142.1770 O   0  0  0  0  0  0  0  0  0  0  0  0
  190.8170  175.0430  143.0690 C   0  0  0  0  0  0  0  0  0  0  0  0
  193.4530  174.4740  145.7440 S   0  0  0  0  0  0  0  0  0  0  0  0
  194.2880  176.9750  145.3910 N   0  0  0  0  0  0  0  0  0  0  0  0
  192.9920  176.8890  144.8270 C   0  0  0  0  0  3  0  0  0  0  0  0
  192.4290  175.6960  144.9160 C   0  0  0  0  0  0  0  0  0  0  0  0
  194.7520  175.7360  145.9930 C   0  0  0  0  0  3  0  0  0  0  0  0
  189.6550  173.6800  141.4470 C   0  0  1  0  0  3  0  0  0  0  0  0
  188.9630  174.9770  141.4000 N   0  0  0  0  0  2  0  0  0  0  0  0
  189.4720  174.4700  142.6820 C   0  0  2  0  0  0  0  0  0  0  0  0
  189.3940  172.9630  142.7480 C   0  0  0  0  0  2  0  0  0  0  0  0
  187.9360  176.2490  145.9730 C   0  0  0  0  0  2  0  0  0  0  0  0
  186.8160  176.8120  145.1110 C   0  0  0  0  0  2  0  0  0  0  0  0
  186.6010  178.2980  145.3750 C   0  0  2  0  0  3  0  0  0  0  0  0
  186.9670  178.8420  142.6540 F   0  0  0  0  0  0  0  0  0  0  0  0
  184.0580  178.6720  144.9940 C   0  0  0  0  0  3  0  0  0  0  0  0
  186.2560  178.5140  146.8310 C   0  0  0  0  0  3  0  0  0  0  0  0
  183.8530  178.5990  146.3110 C   0  0  0  0  0  3  0  0  0  0  0  0
  185.7060  180.1250  144.0570 O   0  0  0  0  0  0  0  0  0  0  0  0
  185.6730  179.1330  143.0520 C   0  0  2  0  0  3  0  0  0  0  0  0
  185.4600  178.8080  144.4840 C   0  0  1  0  0  0  0  0  0  0  0  0
  184.9880  178.6150  147.2580 C   0  0  0  0  0  3  0  0  0  0  0  0
  2  3  1  0  0  0  0
  2 16  1  0  0  0  0
  2  1  1  0  0  0  0
  3  4  1  6  0  0  0
  3  1  1  0  0  0  0
  4 10  1  0  0  0  0
  5  6  2  0  0  0  0
  6  4  1  0  0  0  0
  7 11  1  0  0  0  0
  8 11  2  0  0  0  0
  9 10  2  0  0  0  0
  9  8  1  0  0  0  0
 10  7  1  0  0  0  0
 12 14  1  0  0  0  0
 12 15  1  1  0  0  0
 13 12  1  0  0  0  0
 13 14  1  0  0  0  0
 14 15  1  0  0  0  0
 14  6  1  1  0  0  0
 17 16  1  0  0  0  0
 18 17  1  1  0  0  0
 18 21  1  0  0  0  0
 20 22  2  0  0  0  0
 21 26  2  0  0  0  0
 22 26  1  0  0  0  0
 23 25  1  0  0  0  0
 24 19  1  1  0  0  0
 24 23  1  0  0  0  0
 24 25  1  0  0  0  0
 25 20  1  1  0  0  0
 25 18  1  0  0  0  0
M  END
>  <MODEL>
2

>  <REMARK>
 VINA RESULT:      -6.7      1.188      1.305
  Name = 
  6 active torsions:
  status: ('A' for Active; 'I' for Inactive)
    1  A    between atoms: C_1  and  C_7
    2  A    between atoms: C_1  and  N_18
    3  A    between atoms: C_4  and  C_7
    4  A    between atoms: C_13  and  C_24
    5  A    between atoms: N_15  and  C_20
    6  A    between atoms: N_15  and  C_21
                            x       y       z     vdW  Elec       q    Type
                         _______ _______ _______ _____ _____    ______ ____

>  <TORSDO>
F 6

$$$$
=
 OpenBabel11072408493D

 26 31  0  0  1  0  0  0  0  0999 V2000
  190.2850  174.6810  146.4050 O   0  0  0  0  0  0  0  0  0  0  0  0
  189.6690  175.7270  145.7440 N   0  0  0  0  0  0  0  0  0  0  0  0
  189.6560  174.3750  145.2360 C   0  0  1  0  0  3  0  0  0  0  0  0
  190.6400  174.2320  144.1590 N   0  0  0  0  0  0  0  0  0  0  0  0
  191.1000  174.5170  141.8670 O   0  0  0  0  0  0  0  0  0  0  0  0
  190.2360  174.4960  142.7910 C   0  0  0  0  0  0  0  0  0  0  0  0
  193.3750  174.7410  144.7830 S   0  0  0  0  0  0  0  0  0  0  0  0
  193.5550  172.0880  144.8480 N   0  0  0  0  0  0  0  0  0  0  0  0
  192.2060  172.4030  144.5550 C   0  0  0  0  0  3  0  0  0  0  0  0
  191.9430  173.6970  144.4900 C   0  0  0  0  0  0  0  0  0  0  0  0
  194.4140  173.2520  144.9950 C   0  0  0  0  0  3  0  0  0  0  0  0
  188.6090  174.5860  141.0070 C   0  0  1  0  0  3  0  0  0  0  0  0
  188.5950  175.9380  141.5860 N   0  0  0  0  0  2  0  0  0  0  0  0
  188.7870  174.7730  142.4610 C   0  0  2  0  0  0  0  0  0  0  0  0
  188.0210  173.5730  141.9560 C   0  0  0  0  0  2  0  0  0  0  0  0
  188.3870  175.9430  146.3940 C   0  0  0  0  0  2  0  0  0  0  0  0
  187.7420  177.2290  145.8980 C   0  0  0  0  0  2  0  0  0  0  0  0
  186.2550  177.0390  145.6260 C   0  0  2  0  0  3  0  0  0  0  0  0
  185.6760  177.7300  148.2760 F   0  0  0  0  0  0  0  0  0  0  0  0
  185.4050  179.3970  144.9420 C   0  0  0  0  0  3  0  0  0  0  0  0
  186.0390  176.7090  144.1660 C   0  0  0  0  0  3  0  0  0  0  0  0
  185.4930  179.0520  143.6550 C   0  0  0  0  0  3  0  0  0  0  0  0
  184.2420  178.0430  146.5290 O   0  0  0  0  0  0  0  0  0  0  0  0
  185.1690  178.6690  147.3920 C   0  0  2  0  0  3  0  0  0  0  0  0
  185.5080  178.3300  145.9880 C   0  0  1  0  0  0  0  0  0  0  0  0
  185.7250  177.6460  143.2600 C   0  0  0  0  0  3  0  0  0  0  0  0
  2 16  1  0  0  0  0
  2  1  1  0  0  0  0
  3  4  1  6  0  0  0
  3  2  1  0  0  0  0
  3  1  1  0  0  0  0
  4 10  1  0  0  0  0
  5  6  2  0  0  0  0
  6  4  1  0  0  0  0
  7 11  1  0  0  0  0
  8 11  2  0  0  0  0
  9  8  1  0  0  0  0
 10  9  2  0  0  0  0
 10  7  1  0  0  0  0
 12 13  1  0  0  0  0
 12 15  1  1  0  0  0
 12 14  1  0  0  0  0
 13 14  1  0  0  0  0
 14  6  1  1  0  0  0
 15 14  1  0  0  0  0
 17 16  1  0  0  0  0
 18 17  1  6  0  0  0
 18 25  1  0  0  0  0
 21 18  1  0  0  0  0
 22 20  2  0  0  0  0
 23 24  1  0  0  0  0
 24 19  1  1  0  0  0
 25 20  1  6  0  0  0
 25 23  1  0  0  0  0
 25 24  1  0  0  0  0
 26 22  1  0  0  0  0
 26 21  2  0  0  0  0
M  END
>  <MODEL>
3

>  <REMARK>
 VINA RESULT:      -6.6      2.285      2.900
  Name = 
  6 active torsions:
  status: ('A' for Active; 'I' for Inactive)
    1  A    between atoms: C_1  and  C_7
    2  A    between atoms: C_1  and  N_18
    3  A    between atoms: C_4  and  C_7
    4  A    between atoms: C_13  and  C_24
    5  A    between atoms: N_15  and  C_20
    6  A    between atoms: N_15  and  C_21
                            x       y       z     vdW  Elec       q    Type
                         _______ _______ _______ _____ _____    ______ ____

>  <TORSDO>
F 6

$$$$
=
 OpenBabel11072408493D

 26 31  0  0  1  0  0  0  0  0999 V2000
  188.1750  175.0410  141.1780 O   0  0  0  0  0  0  0  0  0  0  0  0
  187.6400  175.2440  142.4360 N   0  0  0  0  0  0  0  0  0  0  0  0
  188.9660  175.6890  142.0770 C   0  0  1  0  0  3  0  0  0  0  0  0
  189.9700  174.7670  142.6180 N   0  0  0  0  0  0  0  0  0  0  0  0
  191.3430  174.2100  144.4480 O   0  0  0  0  0  0  0  0  0  0  0  0
  190.5840  175.0600  143.8980 C   0  0  0  0  0  0  0  0  0  0  0  0
  189.7800  171.9980  141.9660 S   0  0  0  0  0  0  0  0  0  0  0  0
  191.6630  172.5830  140.1820 N   0  0  0  0  0  0  0  0  0  0  0  0
  191.3440  173.7880  140.8550 C   0  0  0  0  0  3  0  0  0  0  0  0
  190.4100  173.6690  141.7830 C   0  0  0  0  0  0  0  0  0  0  0  0
  190.9220  171.4270  140.6580 C   0  0  0  0  0  3  0  0  0  0  0  0
  191.5160  176.7530  145.3480 C   0  0  1  0  0  3  0  0  0  0  0  0
  190.3270  176.2690  146.0660 N   0  0  0  0  0  2  0  0  0  0  0  0
  190.3020  176.3690  144.6000 C   0  0  2  0  0  0  0  0  0  0  0  0
  191.1360  177.5310  144.1140 C   0  0  0  0  0  2  0  0  0  0  0  0
  186.7700  176.4060  142.3440 C   0  0  0  0  0  2  0  0  0  0  0  0
  185.8660  176.4970  143.5640 C   0  0  0  0  0  2  0  0  0  0  0  0
  186.4010  177.4970  144.5830 C   0  0  2  0  0  3  0  0  0  0  0  0
  186.0860  179.5670  142.7240 F   0  0  0  0  0  0  0  0  0  0  0  0
  184.2870  178.4070  145.7870 C   0  0  0  0  0  3  0  0  0  0  0  0
  186.6600  176.8000  145.8990 C   0  0  0  0  0  3  0  0  0  0  0  0
  184.4960  177.5550  146.7930 C   0  0  0  0  0  3  0  0  0  0  0  0
  186.0080  179.8550  144.9850 O   0  0  0  0  0  0  0  0  0  0  0  0
  185.2400  179.7340  143.8070 C   0  0  2  0  0  3  0  0  0  0  0  0
  185.3720  178.6190  144.7760 C   0  0  1  0  0  0  0  0  0  0  0  0
  185.7640  176.8000  146.8960 C   0  0  0  0  0  3  0  0  0  0  0  0
  1  3  1  0  0  0  0
  1  2  1  0  0  0  0
  3  2  1  0  0  0  0
  3  4  1  1  0  0  0
  4  6  1  0  0  0  0
  6  5  2  0  0  0  0
  8 11  2  0  0  0  0
  8  9  1  0  0  0  0
  9 10  2  0  0  0  0
 10  7  1  0  0  0  0
 10  4  1  0  0  0  0
 11  7  1  0  0  0  0
 12 15  1  1  0  0  0
 12 13  1  0  0  0  0
 14  6  1  6  0  0  0
 14 12  1  0  0  0  0
 14 13  1  0  0  0  0
 15 14  1  0  0  0  0
 16  2  1  0  0  0  0
 16 17  1  0  0  0  0
 18 17  1  6  0  0  0
 18 25  1  0  0  0  0
 18 21  1  0  0  0  0
 20 22  2  0  0  0  0
 21 26  2  0  0  0  0
 22 26  1  0  0  0  0
 24 19  1  6  0  0  0
 24 25  1  0  0  0  0
 24 23  1  0  0  0  0
 25 23  1  0  0  0  0
 25 20  1  1  0  0  0
M  END
>  <MODEL>
4

>  <REMARK>
 VINA RESULT:      -6.6      2.467      4.083
  Name = 
  6 active torsions:
  status: ('A' for Active; 'I' for Inactive)
    1  A    between atoms: C_1  and  C_7
    2  A    between atoms: C_1  and  N_18
    3  A    between atoms: C_4  and  C_7
    4  A    between atoms: C_13  and  C_24
    5  A    between atoms: N_15  and  C_20
    6  A    between atoms: N_15  and  C_21
                            x       y       z     vdW  Elec       q    Type
                         _______ _______ _______ _____ _____    ______ ____

>  <TORSDO>
F 6

$$$$
=
 OpenBabel11072408493D

 26 31  0  0  1  0  0  0  0  0999 V2000
  191.8530  177.1080  142.7880 O   0  0  0  0  0  0  0  0  0  0  0  0
  190.7470  176.4950  143.3460 N   0  0  0  0  0  0  0  0  0  0  0  0
  191.7400  177.1740  144.1440 C   0  0  1  0  0  3  0  0  0  0  0  0
  192.6360  176.1960  144.7700 N   0  0  0  0  0  0  0  0  0  0  0  0
  192.9180  174.6010  146.4800 O   0  0  0  0  0  0  0  0  0  0  0  0
  192.2280  175.5480  146.0010 C   0  0  0  0  0  0  0  0  0  0  0  0
  194.3610  174.6840  143.0770 S   0  0  0  0  0  0  0  0  0  0  0  0
  196.2050  176.4220  143.8850 N   0  0  0  0  0  0  0  0  0  0  0  0
  194.9890  176.7910  144.5090 C   0  0  0  0  0  3  0  0  0  0  0  0
  193.9580  176.0210  144.2060 C   0  0  0  0  0  0  0  0  0  0  0  0
  196.1020  175.2400  143.0450 C   0  0  0  0  0  3  0  0  0  0  0  0
  190.9190  175.2900  148.0160 C   0  0  1  0  0  3  0  0  0  0  0  0
  190.0120  174.8770  146.9330 N   0  0  0  0  0  2  0  0  0  0  0  0
  190.9620  175.9760  146.7080 C   0  0  2  0  0  0  0  0  0  0  0  0
  191.1910  176.7730  147.9710 C   0  0  0  0  0  2  0  0  0  0  0  0
  189.6310  177.4150  143.1940 C   0  0  0  0  0  2  0  0  0  0  0  0
  188.4010  176.8920  143.9220 C   0  0  0  0  0  2  0  0  0  0  0  0
  187.7310  177.9870  144.7430 C   0  0  2  0  0  3  0  0  0  0  0  0
  186.9130  179.2610  142.3880 F   0  0  0  0  0  0  0  0  0  0  0  0
  185.2760  177.1850  145.0300 C   0  0  0  0  0  3  0  0  0  0  0  0
  187.8430  177.6650  146.2160 C   0  0  0  0  0  3  0  0  0  0  0  0
  185.5740  176.7160  146.2430 C   0  0  0  0  0  3  0  0  0  0  0  0
  185.8100  179.4200  144.3780 O   0  0  0  0  0  0  0  0  0  0  0  0
  185.8250  178.7990  143.1100 C   0  0  2  0  0  3  0  0  0  0  0  0
  186.2530  178.0870  144.3390 C   0  0  1  0  0  0  0  0  0  0  0  0
  186.8620  177.0480  146.8900 C   0  0  0  0  0  3  0  0  0  0  0  0
  1  2  1  0  0  0  0
  1  3  1  0  0  0  0
  2  3  1  0  0  0  0
  3  4  1  1  0  0  0
  4  6  1  0  0  0  0
  6  5  2  0  0  0  0
  7 10  1  0  0  0  0
  8  9  1  0  0  0  0
 10  9  2  0  0  0  0
 10  4  1  0  0  0  0
 11  7  1  0  0  0  0
 11  8  2  0  0  0  0
 12 15  1  1  0  0  0
 13 12  1  0  0  0  0
 14  6  1  6  0  0  0
 14 13  1  0  0  0  0
 14 15  1  0  0  0  0
 14 12  1  0  0  0  0
 16  2  1  0  0  0  0
 16 17  1  0  0  0  0
 18 17  1  6  0  0  0
 18 21  1  0  0  0  0
 20 22  2  0  0  0  0
 21 26  2  0  0  0  0
 22 26  1  0  0  0  0
 24 19  1  6  0  0  0
 24 25  1  0  0  0  0
 24 23  1  0  0  0  0
 25 23  1  0  0  0  0
 25 18  1  0  0  0  0
 25 20  1  1  0  0  0
M  END
>  <MODEL>
5

>  <REMARK>
 VINA RESULT:      -6.6      2.480      3.136
  Name = 
  6 active torsions:
  status: ('A' for Active; 'I' for Inactive)
    1  A    between atoms: C_1  and  C_7
    2  A    between atoms: C_1  and  N_18
    3  A    between atoms: C_4  and  C_7
    4  A    between atoms: C_13  and  C_24
    5  A    between atoms: N_15  and  C_20
    6  A    between atoms: N_15  and  C_21
                            x       y       z     vdW  Elec       q    Type
                         _______ _______ _______ _____ _____    ______ ____

>  <TORSDO>
F 6

$$$$
=
 OpenBabel11072408493D

 26 31  0  0  1  0  0  0  0  0999 V2000
  191.6130  177.2590  142.9220 O   0  0  0  0  0  0  0  0  0  0  0  0
  190.5270  176.7920  143.6400 N   0  0  0  0  0  0  0  0  0  0  0  0
  191.7170  177.3040  144.2800 C   0  0  1  0  0  3  0  0  0  0  0  0
  192.5490  176.1950  144.7570 N   0  0  0  0  0  0  0  0  0  0  0  0
  192.7970  174.4590  146.3270 O   0  0  0  0  0  0  0  0  0  0  0  0
  192.1780  175.5040  145.9760 C   0  0  0  0  0  0  0  0  0  0  0  0
  193.9380  174.6600  142.7960 S   0  0  0  0  0  0  0  0  0  0  0  0
  196.0360  176.0990  143.5730 N   0  0  0  0  0  0  0  0  0  0  0  0
  194.9270  176.5430  144.3320 C   0  0  0  0  0  3  0  0  0  0  0  0
  193.7900  175.9250  144.0620 C   0  0  0  0  0  0  0  0  0  0  0  0
  195.7250  175.0180  142.6510 C   0  0  0  0  0  3  0  0  0  0  0  0
  191.1310  175.3670  148.1490 C   0  0  1  0  0  3  0  0  0  0  0  0
  190.0770  174.9600  147.2070 N   0  0  0  0  0  2  0  0  0  0  0  0
  191.0310  176.0090  146.8230 C   0  0  2  0  0  0  0  0  0  0  0  0
  191.4530  176.8340  148.0160 C   0  0  0  0  0  2  0  0  0  0  0  0
  189.5440  177.8630  143.6660 C   0  0  0  0  0  2  0  0  0  0  0  0
  188.6580  177.7480  144.8980 C   0  0  0  0  0  2  0  0  0  0  0  0
  187.2580  177.2650  144.5360 C   0  0  2  0  0  3  0  0  0  0  0  0
  187.0290  176.0380  147.0420 F   0  0  0  0  0  0  0  0  0  0  0  0
  185.6710  179.1210  145.4240 C   0  0  0  0  0  3  0  0  0  0  0  0
  186.8670  177.7980  143.1770 C   0  0  0  0  0  3  0  0  0  0  0  0
  185.6040  179.6450  144.1980 C   0  0  0  0  0  3  0  0  0  0  0  0
  185.2580  176.8030  145.8250 O   0  0  0  0  0  0  0  0  0  0  0  0
  186.1220  177.0760  146.9090 C   0  0  2  0  0  3  0  0  0  0  0  0
  186.2660  177.7570  145.5990 C   0  0  1  0  0  0  0  0  0  0  0  0
  186.1370  178.9130  143.0290 C   0  0  0  0  0  3  0  0  0  0  0  0
  1  2  1  0  0  0  0
  1  3  1  0  0  0  0
  2 16  1  0  0  0  0
  2  3  1  0  0  0  0
  3  4  1  1  0  0  0
  4  6  1  0  0  0  0
  6  5  2  0  0  0  0
  7 10  1  0  0  0  0
  8  9  1  0  0  0  0
 10  9  2  0  0  0  0
 10  4  1  0  0  0  0
 11  7  1  0  0  0  0
 11  8  2  0  0  0  0
 12 15  1  1  0  0  0
 13 12  1  0  0  0  0
 14  6  1  6  0  0  0
 14 13  1  0  0  0  0
 14 15  1  0  0  0  0
 14 12  1  0  0  0  0
 16 17  1  0  0  0  0
 18 17  1  1  0  0  0
 18 25  1  0  0  0  0
 21 18  1  0  0  0  0
 22 20  2  0  0  0  0
 23 24  1  0  0  0  0
 24 19  1  6  0  0  0
 25 20  1  6  0  0  0
 25 23  1  0  0  0  0
 25 24  1  0  0  0  0
 26 21  2  0  0  0  0
 26 22  1  0  0  0  0
M  END
>  <MODEL>
6

>  <REMARK>
 VINA RESULT:      -6.6      2.771      3.644
  Name = 
  6 active torsions:
  status: ('A' for Active; 'I' for Inactive)
    1  A    between atoms: C_1  and  C_7
    2  A    between atoms: C_1  and  N_18
    3  A    between atoms: C_4  and  C_7
    4  A    between atoms: C_13  and  C_24
    5  A    between atoms: N_15  and  C_20
    6  A    between atoms: N_15  and  C_21
                            x       y       z     vdW  Elec       q    Type
                         _______ _______ _______ _____ _____    ______ ____

>  <TORSDO>
F 6

$$$$
=
 OpenBabel11072408493D

 26 31  0  0  1  0  0  0  0  0999 V2000
  189.0980  175.5470  142.2180 O   0  0  0  0  0  0  0  0  0  0  0  0
  188.7960  176.0250  143.4800 N   0  0  0  0  0  0  0  0  0  0  0  0
  190.1530  175.9040  143.0020 C   0  0  1  0  0  3  0  0  0  0  0  0
  190.7810  174.7080  143.5720 N   0  0  0  0  0  0  0  0  0  0  0  0
  191.9800  173.7890  145.3780 O   0  0  0  0  0  0  0  0  0  0  0  0
  191.5510  174.8260  144.7950 C   0  0  0  0  0  0  0  0  0  0  0  0
  189.5720  172.1530  143.1950 S   0  0  0  0  0  0  0  0  0  0  0  0
  191.3480  171.9220  141.2280 N   0  0  0  0  0  0  0  0  0  0  0  0
  191.5390  173.1990  141.8090 C   0  0  0  0  0  3  0  0  0  0  0  0
  190.7230  173.4770  142.8110 C   0  0  0  0  0  0  0  0  0  0  0  0
  190.3030  171.1360  141.8630 C   0  0  0  0  0  3  0  0  0  0  0  0
  192.9840  176.0540  146.3040 C   0  0  1  0  0  3  0  0  0  0  0  0
  191.6320  176.2330  146.8540 N   0  0  0  0  0  2  0  0  0  0  0  0
  191.8240  176.1860  145.3980 C   0  0  2  0  0  0  0  0  0  0  0  0
  193.1500  176.7910  144.9980 C   0  0  0  0  0  2  0  0  0  0  0  0
  188.4210  177.4220  143.3240 C   0  0  0  0  0  2  0  0  0  0  0  0
  187.6010  177.8930  144.5160 C   0  0  0  0  0  2  0  0  0  0  0  0
  186.3010  177.1080  144.6440 C   0  0  2  0  0  3  0  0  0  0  0  0
  186.9960  176.3730  147.2540 F   0  0  0  0  0  0  0  0  0  0  0  0
  184.6160  178.7900  145.6860 C   0  0  0  0  0  3  0  0  0  0  0  0
  185.4680  177.2880  143.3960 C   0  0  0  0  0  3  0  0  0  0  0  0
  184.1250  179.0450  144.4720 C   0  0  0  0  0  3  0  0  0  0  0  0
  184.8490  176.5590  146.5070 O   0  0  0  0  0  0  0  0  0  0  0  0
  185.8760  177.1870  147.2460 C   0  0  2  0  0  3  0  0  0  0  0  0
  185.5260  177.6140  145.8690 C   0  0  1  0  0  0  0  0  0  0  0  0
  184.4940  178.2060  143.3120 C   0  0  0  0  0  3  0  0  0  0  0  0
  1  3  1  0  0  0  0
  1  2  1  0  0  0  0
  3  2  1  0  0  0  0
  3  4  1  1  0  0  0
  4  6  1  0  0  0  0
  6  5  2  0  0  0  0
  8  9  1  0  0  0  0
  8 11  2  0  0  0  0
  9 10  2  0  0  0  0
 10  7  1  0  0  0  0
 10  4  1  0  0  0  0
 11  7  1  0  0  0  0
 12 15  1  6  0  0  0
 12 13  1  0  0  0  0
 14  6  1  6  0  0  0
 14 12  1  0  0  0  0
 14 13  1  0  0  0  0
 15 14  1  0  0  0  0
 16  2  1  0  0  0  0
 16 17  1  0  0  0  0
 18 17  1  6  0  0  0
 18 25  1  0  0  0  0
 21 18  1  0  0  0  0
 22 20  2  0  0  0  0
 23 24  1  0  0  0  0
 24 19  1  6  0  0  0
 25 20  1  6  0  0  0
 25 23  1  0  0  0  0
 25 24  1  0  0  0  0
 26 21  2  0  0  0  0
 26 22  1  0  0  0  0
M  END
>  <MODEL>
7

>  <REMARK>
 VINA RESULT:      -6.5      2.506      4.293
  Name = 
  6 active torsions:
  status: ('A' for Active; 'I' for Inactive)
    1  A    between atoms: C_1  and  C_7
    2  A    between atoms: C_1  and  N_18
    3  A    between atoms: C_4  and  C_7
    4  A    between atoms: C_13  and  C_24
    5  A    between atoms: N_15  and  C_20
    6  A    between atoms: N_15  and  C_21
                            x       y       z     vdW  Elec       q    Type
                         _______ _______ _______ _____ _____    ______ ____

>  <TORSDO>
F 6

$$$$
=
 OpenBabel11072408493D

 26 31  0  0  1  0  0  0  0  0999 V2000
  190.7330  175.8580  146.3600 O   0  0  0  0  0  0  0  0  0  0  0  0
  189.8080  176.1800  145.3830 N   0  0  0  0  0  0  0  0  0  0  0  0
  190.3100  174.8370  145.5630 C   0  0  1  0  0  3  0  0  0  0  0  0
  191.3260  174.5410  144.5470 N   0  0  0  0  0  0  0  0  0  0  0  0
  191.7570  173.7400  142.3760 O   0  0  0  0  0  0  0  0  0  0  0  0
  190.9280  173.8760  143.3210 C   0  0  0  0  0  0  0  0  0  0  0  0
  193.5780  176.2740  144.3250 S   0  0  0  0  0  0  0  0  0  0  0  0
  194.8140  174.3760  145.7190 N   0  0  0  0  0  0  0  0  0  0  0  0
  193.4730  173.9560  145.5490 C   0  0  0  0  0  3  0  0  0  0  0  0
  192.7120  174.7990  144.8720 C   0  0  0  0  0  0  0  0  0  0  0  0
  195.1170  175.6500  145.0890 C   0  0  0  0  0  3  0  0  0  0  0  0
  189.5370  172.3050  142.1230 C   0  0  1  0  0  3  0  0  0  0  0  0
  188.9540  173.6210  141.8160 N   0  0  0  0  0  2  0  0  0  0  0  0
  189.5150  173.3670  143.1510 C   0  0  2  0  0  0  0  0  0  0  0  0
  189.3150  171.9280  143.5670 C   0  0  0  0  0  2  0  0  0  0  0  0
  188.5080  176.2300  146.0320 C   0  0  0  0  0  2  0  0  0  0  0  0
  187.7250  177.4520  145.5730 C   0  0  0  0  0  2  0  0  0  0  0  0
  186.2420  177.1370  145.4120 C   0  0  2  0  0  3  0  0  0  0  0  0
  185.8110  177.7720  148.1040 F   0  0  0  0  0  0  0  0  0  0  0  0
  185.1470  179.4160  144.8150 C   0  0  0  0  0  3  0  0  0  0  0  0
  185.9440  176.7930  143.9710 C   0  0  0  0  0  3  0  0  0  0  0  0
  185.1660  179.0830  143.5220 C   0  0  0  0  0  3  0  0  0  0  0  0
  184.2270  177.9660  146.4740 O   0  0  0  0  0  0  0  0  0  0  0  0
  185.1610  178.6660  147.2700 C   0  0  2  0  0  3  0  0  0  0  0  0
  185.4200  178.3600  145.8410 C   0  0  1  0  0  0  0  0  0  0  0  0
  185.4840  177.7020  143.0990 C   0  0  0  0  0  3  0  0  0  0  0  0
  2  3  1  0  0  0  0
  2 16  1  0  0  0  0
  2  1  1  0  0  0  0
  3  4  1  6  0  0  0
  3  1  1  0  0  0  0
  4 10  1  0  0  0  0
  5  6  2  0  0  0  0
  6  4  1  0  0  0  0
  7 10  1  0  0  0  0
  7 11  1  0  0  0  0
  9  8  1  0  0  0  0
 10  9  2  0  0  0  0
 11  8  2  0  0  0  0
 12 14  1  0  0  0  0
 12 15  1  1  0  0  0
 13 12  1  0  0  0  0
 13 14  1  0  0  0  0
 14  6  1  1  0  0  0
 14 15  1  0  0  0  0
 17 16  1  0  0  0  0
 18 17  1  6  0  0  0
 18 25  1  0  0  0  0
 21 18  1  0  0  0  0
 22 20  2  0  0  0  0
 23 24  1  0  0  0  0
 24 19  1  1  0  0  0
 25 20  1  6  0  0  0
 25 23  1  0  0  0  0
 25 24  1  0  0  0  0
 26 22  1  0  0  0  0
 26 21  2  0  0  0  0
M  END
>  <MODEL>
8

>  <REMARK>
 VINA RESULT:      -6.4      1.638      2.202
  Name = 
  6 active torsions:
  status: ('A' for Active; 'I' for Inactive)
    1  A    between atoms: C_1  and  C_7
    2  A    between atoms: C_1  and  N_18
    3  A    between atoms: C_4  and  C_7
    4  A    between atoms: C_13  and  C_24
    5  A    between atoms: N_15  and  C_20
    6  A    between atoms: N_15  and  C_21
                            x       y       z     vdW  Elec       q    Type
                         _______ _______ _______ _____ _____    ______ ____

>  <TORSDO>
F 6

$$$$
=
 OpenBabel11072408493D

 26 31  0  0  1  0  0  0  0  0999 V2000
  189.3120  175.3400  142.2580 O   0  0  0  0  0  0  0  0  0  0  0  0
  189.1230  175.8290  143.5380 N   0  0  0  0  0  0  0  0  0  0  0  0
  190.4340  175.6820  142.9500 C   0  0  1  0  0  3  0  0  0  0  0  0
  191.0880  174.4790  143.4720 N   0  0  0  0  0  0  0  0  0  0  0  0
  192.3970  173.5420  145.1910 O   0  0  0  0  0  0  0  0  0  0  0  0
  191.9400  174.5860  144.6410 C   0  0  0  0  0  0  0  0  0  0  0  0
  189.7810  171.9680  143.1280 S   0  0  0  0  0  0  0  0  0  0  0  0
  191.4950  171.6770  141.1150 N   0  0  0  0  0  0  0  0  0  0  0  0
  191.7460  172.9460  141.6910 C   0  0  0  0  0  3  0  0  0  0  0  0
  190.9670  173.2510  142.7140 C   0  0  0  0  0  0  0  0  0  0  0  0
  190.4410  170.9270  141.7780 C   0  0  0  0  0  3  0  0  0  0  0  0
  193.5280  175.8140  145.9860 C   0  0  1  0  0  3  0  0  0  0  0  0
  192.2490  175.9640  146.6980 N   0  0  0  0  0  2  0  0  0  0  0  0
  192.2660  175.9400  145.2280 C   0  0  2  0  0  0  0  0  0  0  0  0
  193.5250  176.5710  144.6820 C   0  0  0  0  0  2  0  0  0  0  0  0
  188.7600  177.2310  143.4060 C   0  0  0  0  0  2  0  0  0  0  0  0
  187.2850  177.4350  143.7220 C   0  0  0  0  0  2  0  0  0  0  0  0
  187.0960  178.2720  144.9820 C   0  0  2  0  0  3  0  0  0  0  0  0
  185.6480  180.1650  143.5130 F   0  0  0  0  0  0  0  0  0  0  0  0
  184.8300  177.4700  145.9700 C   0  0  0  0  0  3  0  0  0  0  0  0
  187.6910  177.5520  146.1700 C   0  0  0  0  0  3  0  0  0  0  0  0
  185.4860  176.6770  146.8200 C   0  0  0  0  0  3  0  0  0  0  0  0
  185.3630  179.7870  145.7450 O   0  0  0  0  0  0  0  0  0  0  0  0
  184.8450  179.5410  144.4540 C   0  0  2  0  0  3  0  0  0  0  0  0
  185.5960  178.5080  145.2080 C   0  0  1  0  0  0  0  0  0  0  0  0
  186.9500  176.7910  146.9890 C   0  0  0  0  0  3  0  0  0  0  0  0
  1  3  1  0  0  0  0
  1  2  1  0  0  0  0
  3  4  1  1  0  0  0
  3  2  1  0  0  0  0
  4  6  1  0  0  0  0
  6  5  2  0  0  0  0
  8  9  1  0  0  0  0
  8 11  2  0  0  0  0
  9 10  2  0  0  0  0
 10  7  1  0  0  0  0
 10  4  1  0  0  0  0
 11  7  1  0  0  0  0
 12 15  1  6  0  0  0
 12 13  1  0  0  0  0
 14  6  1  6  0  0  0
 14 12  1  0  0  0  0
 14 13  1  0  0  0  0
 15 14  1  0  0  0  0
 16  2  1  0  0  0  0
 16 17  1  0  0  0  0
 18 17  1  6  0  0  0
 18 25  1  0  0  0  0
 18 21  1  0  0  0  0
 20 22  2  0  0  0  0
 21 26  2  0  0  0  0
 22 26  1  0  0  0  0
 24 19  1  6  0  0  0
 24 25  1  0  0  0  0
 24 23  1  0  0  0  0
 25 23  1  0  0  0  0
 25 20  1  1  0  0  0
M  END
>  <MODEL>
9

>  <REMARK>
 VINA RESULT:      -6.1      2.217      3.983
  Name = 
  6 active torsions:
  status: ('A' for Active; 'I' for Inactive)
    1  A    between atoms: C_1  and  C_7
    2  A    between atoms: C_1  and  N_18
    3  A    between atoms: C_4  and  C_7
    4  A    between atoms: C_13  and  C_24
    5  A    between atoms: N_15  and  C_20
    6  A    between atoms: N_15  and  C_21
                            x       y       z     vdW  Elec       q    Type
                         _______ _______ _______ _____ _____    ______ ____

>  <TORSDO>
F 6

$$$$
