=
 OpenBabel11062418453D

 43 46  0  0  1  0  0  0  0  0999 V2000
  191.0080  175.7960  146.3750 C   0  0  1  0  0  3  0  0  0  0  0  0
  191.5070  177.7500  142.7940 O   0  0  0  0  0  1  0  0  0  0  0  0
  191.2640  176.6800  143.6610 C   0  0  1  0  0  3  0  0  0  0  0  0
  189.8260  174.9760  146.0550 C   0  0  2  0  0  0  0  0  0  0  0  0
  192.3340  176.5980  144.7190 C   0  0  1  0  0  3  0  0  0  0  0  0
  192.0490  175.4720  145.4850 O   0  0  0  0  0  0  0  0  0  0  0  0
  189.7870  176.4330  145.7710 N   0  0  2  0  0  0  0  0  0  0  0  0
  189.0100  174.6050  147.2810 C   0  0  0  0  0  1  0  0  0  0  0  0
  189.9260  176.8930  144.3620 C   0  0  2  0  0  3  0  0  0  0  0  0
  193.7430  176.5110  144.1100 C   0  0  0  0  0  2  0  0  0  0  0  0
  195.1320  175.5230  145.7860 F   0  0  0  0  0  0  0  0  0  0  0  0
  194.5650  177.6670  146.0350 F   0  0  0  0  0  0  0  0  0  0  0  0
  194.9100  176.7070  145.0990 C   0  0  0  0  0  0  0  0  0  0  0  0
  196.0890  177.1270  144.4430 O   0  0  0  0  0  0  0  0  0  0  0  0
  196.0990  176.5890  143.1440 C   0  0  0  0  0  2  0  0  0  0  0  0
  197.3030  175.6960  142.9740 C   0  0  0  0  0  2  0  0  0  0  0  0
  196.9350  174.4850  142.2560 N   0  0  0  0  0  0  0  0  0  0  0  0
  197.7360  173.6160  144.7730 S   0  0  0  0  0  0  0  0  0  0  0  0
  195.4300  170.4390  146.0150 C   0  0  0  0  0  1  0  0  0  0  0  0
  195.3440  173.2410  143.5450 N   0  0  0  0  0  0  0  0  0  0  0  0
  196.7580  173.4010  143.2280 C   0  0  1  0  0  3  0  0  0  0  0  0
  195.8620  171.6920  145.3400 C   0  0  0  0  0  0  0  0  0  0  0  0
  193.1920  172.2880  144.7230 Cl  0  0  0  0  0  0  0  0  0  0  0  0
  197.1390  172.0600  145.4490 C   0  0  0  0  0  3  0  0  0  0  0  0
  194.9220  172.4520  144.4900 C   0  0  0  0  0  0  0  0  0  0  0  0
  195.6910  174.7350  141.5340 C   0  0  0  0  0  2  0  0  0  0  0  0
  195.8740  174.4780  140.0760 C   0  0  0  0  0  0  0  0  0  0  0  0
  196.1320  175.5180  139.2400 F   0  0  0  0  0  0  0  0  0  0  0  0
  195.9340  173.2780  139.6350 N   0  0  0  0  0  2  0  0  0  0  0  0
  189.8440  174.0180  144.8480 C   0  0  0  0  0  2  0  0  0  0  0  0
  189.7960  171.7200  144.2100 O   0  0  0  0  0  1  0  0  0  0  0  0
  189.6210  172.5790  145.2850 C   0  0  0  0  0  2  0  0  0  0  0  0
  188.7190  176.5820  143.4710 C   0  0  0  0  0  2  0  0  0  0  0  0
  187.7610  177.7580  143.2440 C   0  0  1  0  0  3  0  0  0  0  0  0
  187.6310  178.1360  141.7750 C   0  0  0  0  0  2  0  0  0  0  0  0
  186.3140  178.4060  141.4330 O   0  0  0  0  0  1  0  0  0  0  0  0
  186.4450  177.5610  143.8630 N   0  0  0  0  0  2  0  0  0  0  0  0
  185.6900  179.3460  147.1350 C   0  0  0  0  0  2  0  0  0  0  0  0
  185.1580  178.2170  147.7920 O   0  0  0  0  0  0  0  0  0  0  0  0
  185.6700  179.1320  145.6210 C   0  0  0  0  0  2  0  0  0  0  0  0
  186.4910  177.8880  145.2870 C   0  0  0  0  0  3  0  0  0  0  0  0
  186.1110  176.6980  146.1800 C   0  0  0  0  0  2  0  0  0  0  0  0
  186.0850  177.1670  147.6340 C   0  0  0  0  0  2  0  0  0  0  0  0
  1  6  1  6  0  0  0
  3  2  1  6  0  0  0
  3  9  1  0  0  0  0
  3  5  1  0  0  0  0
  4  1  1  0  0  0  0
  4  8  1  1  0  0  0
  5 10  1  6  0  0  0
  5  6  1  0  0  0  0
  7  4  1  0  0  0  0
  7  1  1  0  0  0  0
  9  7  1  0  0  0  0
 10 13  1  0  0  0  0
 13 11  1  0  0  0  0
 13 12  1  0  0  0  0
 14 13  1  0  0  0  0
 15 14  1  0  0  0  0
 16 15  1  0  0  0  0
 17 16  1  0  0  0  0
 17 21  1  0  0  0  0
 18 24  1  0  0  0  0
 20 25  2  0  0  0  0
 21 20  1  0  0  0  0
 21 18  1  0  0  0  0
 22 24  2  0  0  0  0
 22 19  1  0  0  0  0
 25 23  1  0  0  0  0
 25 22  1  0  0  0  0
 26 17  1  0  0  0  0
 27 26  1  0  0  0  0
 28 27  1  0  0  0  0
 29 27  2  0  0  0  0
 30 32  1  0  0  0  0
 30  4  1  0  0  0  0
 31 32  1  0  0  0  0
 33  9  1  0  0  0  0
 34 33  1  0  0  0  0
 34 37  1  0  0  0  0
 35 34  1  0  0  0  0
 36 35  1  0  0  0  0
 37 41  1  0  0  0  0
 38 39  1  0  0  0  0
 40 38  1  0  0  0  0
 41 40  1  0  0  0  0
 41 42  1  0  0  0  0
 42 43  1  0  0  0  0
 43 39  1  0  0  0  0
M  END
>  <MODEL>
1

>  <REMARK>
 VINA RESULT:      -6.4      0.000      0.000
  Name = 
  16 active torsions:
  status: ('A' for Active; 'I' for Inactive)
    1  A    between atoms: C_1  and  C_15
    2  A    between atoms: C_1  and  C_42
    3  A    between atoms: O_2  and  C_21
    4  A    between atoms: O_2  and  C_27
    5  A    between atoms: C_9  and  C_18
    6  A    between atoms: C_13  and  N_22
    7  A    between atoms: C_17  and  CA_38
    8  A    between atoms: C_17  and  C_41
    9  A    between atoms: C_18  and  N_26
   10  A    between atoms: C_19  and  CA_38
   11  A    between atoms: C_20  and  N_26
   12  A    between atoms: C_20  and  C_27
   13  A    between atoms: C_21  and  C_34
   14  A    between atoms: N_22  and  CA_38
   15  A    between atoms: C_24  and  N_26
   16  A    between atoms: C_28  and  C_34
                            x       y       z     vdW  Elec       q    Type
                         _______ _______ _______ _____ _____    ______ ____

>  <TORSDO>
F 16

$$$$
=
 OpenBabel11062418453D

 43 46  0  0  1  0  0  0  0  0999 V2000
  190.8350  174.2820  144.5670 C   0  0  1  0  0  3  0  0  0  0  0  0
  191.0650  178.3510  144.0350 O   0  0  0  0  0  1  0  0  0  0  0  0
  191.1470  176.9960  143.6990 C   0  0  1  0  0  3  0  0  0  0  0  0
  190.1700  173.8990  143.3090 C   0  0  2  0  0  0  0  0  0  0  0  0
  191.9630  176.2440  144.7180 C   0  0  1  0  0  3  0  0  0  0  0  0
  192.0480  174.9310  144.2690 O   0  0  0  0  0  0  0  0  0  0  0  0
  189.5780  174.9840  144.1310 N   0  0  2  0  0  0  0  0  0  0  0  0
  189.3900  172.5990  143.4210 C   0  0  0  0  0  1  0  0  0  0  0  0
  189.7450  176.3940  143.6840 C   0  0  2  0  0  3  0  0  0  0  0  0
  193.3600  176.8560  144.9060 C   0  0  0  0  0  2  0  0  0  0  0  0
  193.1320  176.0580  147.1470 F   0  0  0  0  0  0  0  0  0  0  0  0
  194.6440  177.6540  146.7590 F   0  0  0  0  0  0  0  0  0  0  0  0
  194.0690  176.5100  146.2300 C   0  0  0  0  0  0  0  0  0  0  0  0
  195.0850  175.5460  146.0460 O   0  0  0  0  0  0  0  0  0  0  0  0
  195.6130  175.6880  144.7510 C   0  0  0  0  0  2  0  0  0  0  0  0
  196.7790  174.7480  144.5710 C   0  0  0  0  0  2  0  0  0  0  0  0
  196.5070  173.8090  143.4930 N   0  0  0  0  0  0  0  0  0  0  0  0
  196.7610  172.3070  145.8210 S   0  0  0  0  0  0  0  0  0  0  0  0
  194.4690  168.8930  145.6040 C   0  0  0  0  0  1  0  0  0  0  0  0
  194.7550  172.2510  143.9920 N   0  0  0  0  0  0  0  0  0  0  0  0
  196.1880  172.5030  144.0810 C   0  0  1  0  0  3  0  0  0  0  0  0
  194.9530  170.2850  145.4000 C   0  0  0  0  0  0  0  0  0  0  0  0
  192.4640  170.9990  144.3230 Cl  0  0  0  0  0  0  0  0  0  0  0  0
  196.1390  170.6220  145.9080 C   0  0  0  0  0  3  0  0  0  0  0  0
  194.1830  171.2350  144.5690 C   0  0  0  0  0  0  0  0  0  0  0  0
  195.3780  174.3100  142.7150 C   0  0  0  0  0  2  0  0  0  0  0  0
  195.7770  174.5230  141.2940 C   0  0  0  0  0  0  0  0  0  0  0  0
  195.3330  173.6650  140.3380 F   0  0  0  0  0  0  0  0  0  0  0  0
  196.4070  175.5840  140.9530 N   0  0  0  0  0  2  0  0  0  0  0  0
  190.7830  174.2900  141.9510 C   0  0  0  0  0  2  0  0  0  0  0  0
  189.2200  174.1390  140.1560 O   0  0  0  0  0  1  0  0  0  0  0  0
  190.2150  173.4410  140.8250 C   0  0  0  0  0  2  0  0  0  0  0  0
  188.9420  176.7630  142.4330 C   0  0  0  0  0  2  0  0  0  0  0  0
  187.5710  177.3960  142.7060 C   0  0  1  0  0  3  0  0  0  0  0  0
  186.4430  176.3740  142.7120 C   0  0  0  0  0  2  0  0  0  0  0  0
  186.8800  175.1280  142.2900 O   0  0  0  0  0  1  0  0  0  0  0  0
  187.5470  178.2240  143.9170 N   0  0  0  0  0  2  0  0  0  0  0  0
  185.5550  177.0350  146.9310 C   0  0  0  0  0  2  0  0  0  0  0  0
  184.8770  178.2550  147.1420 O   0  0  0  0  0  0  0  0  0  0  0  0
  186.8070  177.2680  146.0850 C   0  0  0  0  0  2  0  0  0  0  0  0
  186.3940  177.8840  144.7500 C   0  0  0  0  0  3  0  0  0  0  0  0
  185.4320  179.0660  144.9410 C   0  0  0  0  0  2  0  0  0  0  0  0
  184.3250  178.6460  145.9060 C   0  0  0  0  0  2  0  0  0  0  0  0
  1  6  1  6  0  0  0
  3  2  1  1  0  0  0
  3  5  1  0  0  0  0
  4  8  1  1  0  0  0
  4  7  1  0  0  0  0
  4  1  1  0  0  0  0
  5 10  1  6  0  0  0
  6  5  1  0  0  0  0
  7  1  1  0  0  0  0
  9  3  1  0  0  0  0
  9  7  1  0  0  0  0
 10 13  1  0  0  0  0
 13 12  1  0  0  0  0
 13 11  1  0  0  0  0
 14 13  1  0  0  0  0
 15 14  1  0  0  0  0
 16 15  1  0  0  0  0
 17 21  1  0  0  0  0
 17 16  1  0  0  0  0
 18 24  1  0  0  0  0
 20 21  1  0  0  0  0
 20 25  2  0  0  0  0
 21 18  1  0  0  0  0
 22 19  1  0  0  0  0
 22 24  2  0  0  0  0
 23 25  1  0  0  0  0
 25 22  1  0  0  0  0
 26 17  1  0  0  0  0
 27 26  1  0  0  0  0
 28 27  1  0  0  0  0
 29 27  2  0  0  0  0
 30  4  1  0  0  0  0
 31 32  1  0  0  0  0
 32 30  1  0  0  0  0
 33 34  1  0  0  0  0
 33  9  1  0  0  0  0
 34 35  1  0  0  0  0
 34 37  1  0  0  0  0
 36 35  1  0  0  0  0
 37 41  1  0  0  0  0
 38 39  1  0  0  0  0
 40 38  1  0  0  0  0
 41 42  1  0  0  0  0
 41 40  1  0  0  0  0
 42 43  1  0  0  0  0
 43 39  1  0  0  0  0
M  END
>  <MODEL>
2

>  <REMARK>
 VINA RESULT:      -6.3      1.791      2.188
  Name = 
  16 active torsions:
  status: ('A' for Active; 'I' for Inactive)
    1  A    between atoms: C_1  and  C_15
    2  A    between atoms: C_1  and  C_42
    3  A    between atoms: O_2  and  C_21
    4  A    between atoms: O_2  and  C_27
    5  A    between atoms: C_9  and  C_18
    6  A    between atoms: C_13  and  N_22
    7  A    between atoms: C_17  and  CA_38
    8  A    between atoms: C_17  and  C_41
    9  A    between atoms: C_18  and  N_26
   10  A    between atoms: C_19  and  CA_38
   11  A    between atoms: C_20  and  N_26
   12  A    between atoms: C_20  and  C_27
   13  A    between atoms: C_21  and  C_34
   14  A    between atoms: N_22  and  CA_38
   15  A    between atoms: C_24  and  N_26
   16  A    between atoms: C_28  and  C_34
                            x       y       z     vdW  Elec       q    Type
                         _______ _______ _______ _____ _____    ______ ____

>  <TORSDO>
F 16

$$$$
=
 OpenBabel11062418453D

 43 46  0  0  1  0  0  0  0  0999 V2000
  191.2830  175.5630  143.3900 C   0  0  1  0  0  3  0  0  0  0  0  0
  189.0710  173.1870  140.8700 O   0  0  0  0  0  1  0  0  0  0  0  0
  189.5190  173.7200  142.0820 C   0  0  1  0  0  3  0  0  0  0  0  0
  190.2270  175.9960  144.3230 C   0  0  2  0  0  0  0  0  0  0  0  0
  191.0240  173.6760  142.1580 C   0  0  1  0  0  3  0  0  0  0  0  0
  191.3720  174.1580  143.4150 O   0  0  0  0  0  0  0  0  0  0  0  0
  189.9980  176.1400  142.8630 N   0  0  2  0  0  0  0  0  0  0  0  0
  190.5350  177.3250  144.9930 C   0  0  0  0  0  1  0  0  0  0  0  0
  189.0870  175.1800  142.1820 C   0  0  2  0  0  3  0  0  0  0  0  0
  191.5730  172.2570  141.9370 C   0  0  0  0  0  2  0  0  0  0  0  0
  193.2030  173.3690  140.5870 F   0  0  0  0  0  0  0  0  0  0  0  0
  192.0700  171.6770  139.6710 F   0  0  0  0  0  0  0  0  0  0  0  0
  192.6540  172.1220  140.8460 C   0  0  0  0  0  0  0  0  0  0  0  0
  193.6630  171.2050  141.2170 O   0  0  0  0  0  0  0  0  0  0  0  0
  193.8940  171.3240  142.5990 C   0  0  0  0  0  2  0  0  0  0  0  0
  195.2040  172.0350  142.8350 C   0  0  0  0  0  2  0  0  0  0  0  0
  195.4880  172.1060  144.2610 N   0  0  0  0  0  0  0  0  0  0  0  0
  195.3910  174.7100  143.2890 S   0  0  0  0  0  0  0  0  0  0  0  0
  194.4650  177.3530  146.3080 C   0  0  0  0  0  1  0  0  0  0  0  0
  194.2360  173.7060  145.5310 N   0  0  0  0  0  0  0  0  0  0  0  0
  195.4050  173.5080  144.6840 C   0  0  1  0  0  3  0  0  0  0  0  0
  194.5400  176.1130  145.4890 C   0  0  0  0  0  0  0  0  0  0  0  0
  192.4660  174.9830  147.0020 Cl  0  0  0  0  0  0  0  0  0  0  0  0
  195.3220  176.1140  144.4100 C   0  0  0  0  0  3  0  0  0  0  0  0
  193.8430  174.8830  145.9220 C   0  0  0  0  0  0  0  0  0  0  0  0
  194.5030  171.2960  144.9710 C   0  0  0  0  0  2  0  0  0  0  0  0
  195.1790  170.3350  145.8890 C   0  0  0  0  0  0  0  0  0  0  0  0
  196.3240  170.7050  146.5200 F   0  0  0  0  0  0  0  0  0  0  0  0
  194.6130  169.2300  146.1970 N   0  0  0  0  0  2  0  0  0  0  0  0
  189.3760  174.9560  145.0760 C   0  0  0  0  0  2  0  0  0  0  0  0
  189.0360  174.4810  147.3890 O   0  0  0  0  0  1  0  0  0  0  0  0
  188.9380  175.4820  146.4340 C   0  0  0  0  0  2  0  0  0  0  0  0
  187.6070  175.3490  142.5360 C   0  0  0  0  0  2  0  0  0  0  0  0
  187.0490  176.7640  142.3320 C   0  0  1  0  0  3  0  0  0  0  0  0
  187.2510  177.2760  140.9130 C   0  0  0  0  0  2  0  0  0  0  0  0
  186.1070  177.8900  140.4250 O   0  0  0  0  0  1  0  0  0  0  0  0
  185.6500  176.9020  142.7550 N   0  0  0  0  0  2  0  0  0  0  0  0
  184.2490  179.0690  145.5480 C   0  0  0  0  0  2  0  0  0  0  0  0
  184.2320  178.0490  146.5230 O   0  0  0  0  0  0  0  0  0  0  0  0
  184.3100  178.4590  144.1480 C   0  0  0  0  0  2  0  0  0  0  0  0
  185.5670  177.5980  144.0380 C   0  0  0  0  0  3  0  0  0  0  0  0
  185.7150  176.6490  145.2360 C   0  0  0  0  0  2  0  0  0  0  0  0
  185.5070  177.4480  146.5220 C   0  0  0  0  0  2  0  0  0  0  0  0
  1  6  1  6  0  0  0
  1  4  1  0  0  0  0
  3  2  1  6  0  0  0
  3  5  1  0  0  0  0
  3  9  1  0  0  0  0
  4  8  1  1  0  0  0
  4 30  1  0  0  0  0
  5 10  1  1  0  0  0
  5  6  1  0  0  0  0
  7  1  1  0  0  0  0
  7  4  1  0  0  0  0
  9 33  1  0  0  0  0
  9  7  1  0  0  0  0
 11 13  1  0  0  0  0
 12 13  1  0  0  0  0
 13 14  1  0  0  0  0
 13 10  1  0  0  0  0
 14 15  1  0  0  0  0
 15 16  1  0  0  0  0
 16 17  1  0  0  0  0
 17 21  1  0  0  0  0
 17 26  1  0  0  0  0
 18 24  1  0  0  0  0
 18 21  1  0  0  0  0
 20 25  2  0  0  0  0
 21 20  1  0  0  0  0
 22 25  1  0  0  0  0
 22 19  1  0  0  0  0
 24 22  2  0  0  0  0
 25 23  1  0  0  0  0
 26 27  1  0  0  0  0
 27 29  2  0  0  0  0
 27 28  1  0  0  0  0
 30 32  1  0  0  0  0
 32 31  1  0  0  0  0
 34 33  1  0  0  0  0
 34 37  1  0  0  0  0
 35 34  1  0  0  0  0
 36 35  1  0  0  0  0
 37 41  1  0  0  0  0
 38 39  1  0  0  0  0
 40 38  1  0  0  0  0
 41 40  1  0  0  0  0
 41 42  1  0  0  0  0
 42 43  1  0  0  0  0
 43 39  1  0  0  0  0
M  END
>  <MODEL>
3

>  <REMARK>
 VINA RESULT:      -6.3      2.689      4.366
  Name = 
  16 active torsions:
  status: ('A' for Active; 'I' for Inactive)
    1  A    between atoms: C_1  and  C_15
    2  A    between atoms: C_1  and  C_42
    3  A    between atoms: O_2  and  C_21
    4  A    between atoms: O_2  and  C_27
    5  A    between atoms: C_9  and  C_18
    6  A    between atoms: C_13  and  N_22
    7  A    between atoms: C_17  and  CA_38
    8  A    between atoms: C_17  and  C_41
    9  A    between atoms: C_18  and  N_26
   10  A    between atoms: C_19  and  CA_38
   11  A    between atoms: C_20  and  N_26
   12  A    between atoms: C_20  and  C_27
   13  A    between atoms: C_21  and  C_34
   14  A    between atoms: N_22  and  CA_38
   15  A    between atoms: C_24  and  N_26
   16  A    between atoms: C_28  and  C_34
                            x       y       z     vdW  Elec       q    Type
                         _______ _______ _______ _____ _____    ______ ____

>  <TORSDO>
F 16

$$$$
=
 OpenBabel11062418453D

 43 46  0  0  1  0  0  0  0  0999 V2000
  190.7330  173.8090  144.5090 C   0  0  1  0  0  3  0  0  0  0  0  0
  190.2410  177.8880  144.3890 O   0  0  0  0  0  1  0  0  0  0  0  0
  190.5840  176.6120  143.9300 C   0  0  1  0  0  3  0  0  0  0  0  0
  190.2060  173.4510  143.1810 C   0  0  2  0  0  0  0  0  0  0  0  0
  191.4770  175.9120  144.9210 C   0  0  1  0  0  3  0  0  0  0  0  0
  191.8200  174.6900  144.3530 O   0  0  0  0  0  0  0  0  0  0  0  0
  189.3900  174.3210  144.0640 N   0  0  2  0  0  0  0  0  0  0  0  0
  189.6720  172.0290  143.1170 C   0  0  0  0  0  1  0  0  0  0  0  0
  189.3170  175.7780  143.7680 C   0  0  2  0  0  3  0  0  0  0  0  0
  192.7300  176.7380  145.2550 C   0  0  0  0  0  2  0  0  0  0  0  0
  192.7970  175.4010  147.2360 F   0  0  0  0  0  0  0  0  0  0  0  0
  193.9960  177.2850  147.2090 F   0  0  0  0  0  0  0  0  0  0  0  0
  193.5790  176.2160  146.4310 C   0  0  0  0  0  0  0  0  0  0  0  0
  194.7240  175.5190  145.9840 O   0  0  0  0  0  0  0  0  0  0  0  0
  195.3020  176.2350  144.9210 C   0  0  0  0  0  2  0  0  0  0  0  0
  195.6980  175.2810  143.8210 C   0  0  0  0  0  2  0  0  0  0  0  0
  195.5820  173.9050  144.2820 N   0  0  0  0  0  0  0  0  0  0  0  0
  195.9600  172.4060  141.9700 S   0  0  0  0  0  0  0  0  0  0  0  0
  192.4980  170.4290  140.9400 C   0  0  0  0  0  1  0  0  0  0  0  0
  194.0720  172.0850  143.8950 N   0  0  0  0  0  0  0  0  0  0  0  0
  194.8660  173.1310  143.2620 C   0  0  1  0  0  3  0  0  0  0  0  0
  193.5630  171.0870  141.7430 C   0  0  0  0  0  0  0  0  0  0  0  0
  192.4710  170.0050  144.0880 Cl  0  0  0  0  0  0  0  0  0  0  0  0
  194.5630  171.6850  141.0950 C   0  0  0  0  0  3  0  0  0  0  0  0
  193.4580  171.1610  143.2150 C   0  0  0  0  0  0  0  0  0  0  0  0
  196.9250  173.3700  144.4840 C   0  0  0  0  0  2  0  0  0  0  0  0
  197.0420  172.7480  145.8340 C   0  0  0  0  0  0  0  0  0  0  0  0
  197.1560  173.5440  146.9300 F   0  0  0  0  0  0  0  0  0  0  0  0
  196.8860  171.4860  145.9790 N   0  0  0  0  0  2  0  0  0  0  0  0
  190.7980  174.0870  141.9080 C   0  0  0  0  0  2  0  0  0  0  0  0
  189.4130  173.9430  139.9720 O   0  0  0  0  0  1  0  0  0  0  0  0
  190.4210  173.2920  140.6680 C   0  0  0  0  0  2  0  0  0  0  0  0
  188.5170  176.1300  142.5100 C   0  0  0  0  0  2  0  0  0  0  0  0
  187.5130  177.2770  142.6810 C   0  0  1  0  0  3  0  0  0  0  0  0
  187.3660  178.1220  141.4230 C   0  0  0  0  0  2  0  0  0  0  0  0
  186.9470  177.3600  140.3430 O   0  0  0  0  0  1  0  0  0  0  0  0
  186.2060  176.8330  143.1800 N   0  0  0  0  0  2  0  0  0  0  0  0
  184.1160  178.9240  145.5730 C   0  0  0  0  0  2  0  0  0  0  0  0
  184.0870  177.9660  146.6090 O   0  0  0  0  0  0  0  0  0  0  0  0
  184.4710  178.2540  144.2460 C   0  0  0  0  0  2  0  0  0  0  0  0
  185.8350  177.5780  144.3820 C   0  0  0  0  0  3  0  0  0  0  0  0
  185.9230  176.7270  145.6570 C   0  0  0  0  0  2  0  0  0  0  0  0
  185.4160  177.5570  146.8360 C   0  0  0  0  0  2  0  0  0  0  0  0
  1  6  1  6  0  0  0
  3  2  1  1  0  0  0
  3  5  1  0  0  0  0
  4  8  1  6  0  0  0
  4  7  1  0  0  0  0
  4  1  1  0  0  0  0
  5 10  1  6  0  0  0
  6  5  1  0  0  0  0
  7  1  1  0  0  0  0
  9  3  1  0  0  0  0
  9  7  1  0  0  0  0
 10 13  1  0  0  0  0
 13 12  1  0  0  0  0
 13 11  1  0  0  0  0
 14 13  1  0  0  0  0
 15 14  1  0  0  0  0
 16 17  1  0  0  0  0
 16 15  1  0  0  0  0
 17 26  1  0  0  0  0
 18 21  1  0  0  0  0
 19 22  1  0  0  0  0
 21 20  1  0  0  0  0
 21 17  1  0  0  0  0
 22 25  1  0  0  0  0
 24 22  2  0  0  0  0
 24 18  1  0  0  0  0
 25 20  2  0  0  0  0
 25 23  1  0  0  0  0
 26 27  1  0  0  0  0
 27 29  2  0  0  0  0
 27 28  1  0  0  0  0
 30  4  1  0  0  0  0
 31 32  1  0  0  0  0
 32 30  1  0  0  0  0
 33 34  1  0  0  0  0
 33  9  1  0  0  0  0
 34 37  1  0  0  0  0
 35 34  1  0  0  0  0
 36 35  1  0  0  0  0
 37 41  1  0  0  0  0
 38 39  1  0  0  0  0
 39 43  1  0  0  0  0
 40 41  1  0  0  0  0
 40 38  1  0  0  0  0
 41 42  1  0  0  0  0
 42 43  1  0  0  0  0
M  END
>  <MODEL>
4

>  <REMARK>
 VINA RESULT:      -6.2      2.336      3.196
  Name = 
  16 active torsions:
  status: ('A' for Active; 'I' for Inactive)
    1  A    between atoms: C_1  and  C_15
    2  A    between atoms: C_1  and  C_42
    3  A    between atoms: O_2  and  C_21
    4  A    between atoms: O_2  and  C_27
    5  A    between atoms: C_9  and  C_18
    6  A    between atoms: C_13  and  N_22
    7  A    between atoms: C_17  and  CA_38
    8  A    between atoms: C_17  and  C_41
    9  A    between atoms: C_18  and  N_26
   10  A    between atoms: C_19  and  CA_38
   11  A    between atoms: C_20  and  N_26
   12  A    between atoms: C_20  and  C_27
   13  A    between atoms: C_21  and  C_34
   14  A    between atoms: N_22  and  CA_38
   15  A    between atoms: C_24  and  N_26
   16  A    between atoms: C_28  and  C_34
                            x       y       z     vdW  Elec       q    Type
                         _______ _______ _______ _____ _____    ______ ____

>  <TORSDO>
F 16

$$$$
=
 OpenBabel11062418453D

 43 46  0  0  1  0  0  0  0  0999 V2000
  190.7660  176.2900  142.7950 C   0  0  1  0  0  3  0  0  0  0  0  0
  188.4080  173.7000  140.6440 O   0  0  0  0  0  1  0  0  0  0  0  0
  188.9990  174.2770  141.7720 C   0  0  1  0  0  3  0  0  0  0  0  0
  189.8440  176.6170  143.8970 C   0  0  2  0  0  0  0  0  0  0  0  0
  190.4920  174.3850  141.5950 C   0  0  1  0  0  3  0  0  0  0  0  0
  190.9970  174.9010  142.7830 O   0  0  0  0  0  0  0  0  0  0  0  0
  189.3590  176.7340  142.4990 N   0  0  2  0  0  0  0  0  0  0  0  0
  190.1260  177.9710  144.5260 C   0  0  0  0  0  1  0  0  0  0  0  0
  188.4470  175.6860  141.9650 C   0  0  2  0  0  3  0  0  0  0  0  0
  191.1330  173.0270  141.2640 C   0  0  0  0  0  2  0  0  0  0  0  0
  189.9250  171.1550  142.1290 F   0  0  0  0  0  0  0  0  0  0  0  0
  190.8380  172.5710  143.5930 F   0  0  0  0  0  0  0  0  0  0  0  0
  191.0320  171.9550  142.3680 C   0  0  0  0  0  0  0  0  0  0  0  0
  192.2030  171.1690  142.4450 O   0  0  0  0  0  0  0  0  0  0  0  0
  193.2270  171.8120  141.7280 C   0  0  0  0  0  2  0  0  0  0  0  0
  194.4090  172.0530  142.6340 C   0  0  0  0  0  2  0  0  0  0  0  0
  194.7180  173.4740  142.6910 N   0  0  0  0  0  0  0  0  0  0  0  0
  193.8520  172.9780  145.2870 S   0  0  0  0  0  0  0  0  0  0  0  0
  192.3810  176.4170  147.0100 C   0  0  0  0  0  1  0  0  0  0  0  0
  194.5690  175.3490  144.1760 N   0  0  0  0  0  0  0  0  0  0  0  0
  193.9770  174.0690  143.8090 C   0  0  1  0  0  3  0  0  0  0  0  0
  193.1760  175.4920  146.1580 C   0  0  0  0  0  0  0  0  0  0  0  0
  194.9350  177.5820  145.5220 Cl  0  0  0  0  0  0  0  0  0  0  0  0
  192.8770  174.1930  146.1860 C   0  0  0  0  0  3  0  0  0  0  0  0
  194.2000  176.0170  145.2300 C   0  0  0  0  0  0  0  0  0  0  0  0
  196.1560  173.6280  142.8900 C   0  0  0  0  0  2  0  0  0  0  0  0
  196.8050  174.1250  141.6430 C   0  0  0  0  0  0  0  0  0  0  0  0
  196.5030  175.3660  141.1790 F   0  0  0  0  0  0  0  0  0  0  0  0
  197.7480  173.4540  141.0950 N   0  0  0  0  0  2  0  0  0  0  0  0
  189.2380  175.4980  144.7660 C   0  0  0  0  0  2  0  0  0  0  0  0
  188.7600  174.8660  147.0160 O   0  0  0  0  0  1  0  0  0  0  0  0
  189.0720  175.9500  146.2080 C   0  0  0  0  0  2  0  0  0  0  0  0
  187.0380  175.7070  142.5640 C   0  0  0  0  0  2  0  0  0  0  0  0
  186.3670  177.0870  142.5950 C   0  0  1  0  0  3  0  0  0  0  0  0
  185.9450  177.5670  141.2130 C   0  0  0  0  0  2  0  0  0  0  0  0
  184.9410  178.5200  141.2890 O   0  0  0  0  0  1  0  0  0  0  0  0
  185.2550  177.1690  143.5500 N   0  0  0  0  0  2  0  0  0  0  0  0
  185.7070  179.3940  146.6010 C   0  0  0  0  0  2  0  0  0  0  0  0
  185.1840  178.4680  147.5290 O   0  0  0  0  0  0  0  0  0  0  0  0
  185.2520  179.0350  145.1870 C   0  0  0  0  0  2  0  0  0  0  0  0
  185.7320  177.6230  144.8560 C   0  0  0  0  0  3  0  0  0  0  0  0
  185.4060  176.6320  145.9820 C   0  0  0  0  0  2  0  0  0  0  0  0
  185.8440  177.2420  147.3130 C   0  0  0  0  0  2  0  0  0  0  0  0
  1  6  1  1  0  0  0
  1  4  1  0  0  0  0
  3  2  1  6  0  0  0
  3  9  1  0  0  0  0
  4  8  1  1  0  0  0
  4 30  1  0  0  0  0
  5 10  1  1  0  0  0
  5  3  1  0  0  0  0
  5  6  1  0  0  0  0
  7  1  1  0  0  0  0
  7  4  1  0  0  0  0
  9  7  1  0  0  0  0
  9 33  1  0  0  0  0
 10 13  1  0  0  0  0
 11 13  1  0  0  0  0
 13 14  1  0  0  0  0
 13 12  1  0  0  0  0
 15 14  1  0  0  0  0
 15 16  1  0  0  0  0
 16 17  1  0  0  0  0
 17 26  1  0  0  0  0
 17 21  1  0  0  0  0
 18 24  1  0  0  0  0
 20 25  2  0  0  0  0
 21 20  1  0  0  0  0
 21 18  1  0  0  0  0
 22 24  2  0  0  0  0
 22 19  1  0  0  0  0
 25 23  1  0  0  0  0
 25 22  1  0  0  0  0
 27 26  1  0  0  0  0
 28 27  1  0  0  0  0
 29 27  2  0  0  0  0
 30 32  1  0  0  0  0
 32 31  1  0  0  0  0
 33 34  1  0  0  0  0
 34 37  1  0  0  0  0
 35 36  1  0  0  0  0
 35 34  1  0  0  0  0
 37 41  1  0  0  0  0
 38 39  1  0  0  0  0
 40 38  1  0  0  0  0
 41 40  1  0  0  0  0
 41 42  1  0  0  0  0
 42 43  1  0  0  0  0
 43 39  1  0  0  0  0
M  END
>  <MODEL>
5

>  <REMARK>
 VINA RESULT:      -6.1      2.724      3.916
  Name = 
  16 active torsions:
  status: ('A' for Active; 'I' for Inactive)
    1  A    between atoms: C_1  and  C_15
    2  A    between atoms: C_1  and  C_42
    3  A    between atoms: O_2  and  C_21
    4  A    between atoms: O_2  and  C_27
    5  A    between atoms: C_9  and  C_18
    6  A    between atoms: C_13  and  N_22
    7  A    between atoms: C_17  and  CA_38
    8  A    between atoms: C_17  and  C_41
    9  A    between atoms: C_18  and  N_26
   10  A    between atoms: C_19  and  CA_38
   11  A    between atoms: C_20  and  N_26
   12  A    between atoms: C_20  and  C_27
   13  A    between atoms: C_21  and  C_34
   14  A    between atoms: N_22  and  CA_38
   15  A    between atoms: C_24  and  N_26
   16  A    between atoms: C_28  and  C_34
                            x       y       z     vdW  Elec       q    Type
                         _______ _______ _______ _____ _____    ______ ____

>  <TORSDO>
F 16

$$$$
=
 OpenBabel11062418453D

 43 46  0  0  1  0  0  0  0  0999 V2000
  192.1370  176.7490  145.5660 C   0  0  1  0  0  3  0  0  0  0  0  0
  190.9810  175.2340  141.9240 O   0  0  0  0  0  1  0  0  0  0  0  0
  191.1530  175.2770  143.3110 C   0  0  1  0  0  3  0  0  0  0  0  0
  190.9390  176.4320  146.3640 C   0  0  2  0  0  0  0  0  0  0  0  0
  192.5830  175.6030  143.6600 C   0  0  1  0  0  3  0  0  0  0  0  0
  192.6740  175.5560  145.0460 O   0  0  0  0  0  0  0  0  0  0  0  0
  190.7710  177.1370  145.0690 N   0  0  2  0  0  0  0  0  0  0  0  0
  190.7560  177.3590  147.5550 C   0  0  0  0  0  1  0  0  0  0  0  0
  190.2660  176.3720  143.8960 C   0  0  2  0  0  3  0  0  0  0  0  0
  193.5740  174.6270  143.0060 C   0  0  0  0  0  2  0  0  0  0  0  0
  195.2110  176.3120  143.4450 F   0  0  0  0  0  0  0  0  0  0  0  0
  195.7680  174.6560  142.0560 F   0  0  0  0  0  0  0  0  0  0  0  0
  195.0670  174.9530  143.2130 C   0  0  0  0  0  0  0  0  0  0  0  0
  195.6240  174.2070  144.2760 O   0  0  0  0  0  0  0  0  0  0  0  0
  195.3350  172.8470  144.0730 C   0  0  0  0  0  2  0  0  0  0  0  0
  195.4090  172.1100  145.3880 C   0  0  0  0  0  2  0  0  0  0  0  0
  194.4110  171.0520  145.4290 N   0  0  0  0  0  0  0  0  0  0  0  0
  193.4530  169.6470  143.2280 S   0  0  0  0  0  0  0  0  0  0  0  0
  190.4440  171.7500  141.3610 C   0  0  0  0  0  1  0  0  0  0  0  0
  192.2130  171.6000  144.6480 N   0  0  0  0  0  0  0  0  0  0  0  0
  193.5490  171.1770  144.2490 C   0  0  1  0  0  3  0  0  0  0  0  0
  191.3590  171.2220  142.4090 C   0  0  0  0  0  0  0  0  0  0  0  0
  189.6730  172.2450  144.4020 Cl  0  0  0  0  0  0  0  0  0  0  0  0
  192.3650  170.4320  142.0310 C   0  0  0  0  0  3  0  0  0  0  0  0
  191.2120  171.6450  143.8180 C   0  0  0  0  0  0  0  0  0  0  0  0
  195.1000  169.7650  145.4270 C   0  0  0  0  0  2  0  0  0  0  0  0
  195.4630  169.3650  146.8170 C   0  0  0  0  0  0  0  0  0  0  0  0
  196.7010  169.6570  147.2960 F   0  0  0  0  0  0  0  0  0  0  0  0
  194.5740  168.8850  147.6030 N   0  0  0  0  0  2  0  0  0  0  0  0
  190.4230  174.9830  146.4560 C   0  0  0  0  0  2  0  0  0  0  0  0
  188.1950  175.2470  147.2670 O   0  0  0  0  0  1  0  0  0  0  0  0
  189.4640  174.8130  147.6230 C   0  0  0  0  0  2  0  0  0  0  0  0
  188.7910  175.9720  143.9870 C   0  0  0  0  0  2  0  0  0  0  0  0
  187.8110  176.9520  143.3300 C   0  0  1  0  0  3  0  0  0  0  0  0
  188.2160  177.3230  141.9100 C   0  0  0  0  0  2  0  0  0  0  0  0
  187.8180  176.3580  140.9970 O   0  0  0  0  0  1  0  0  0  0  0  0
  186.4150  176.5010  143.3850 N   0  0  0  0  0  2  0  0  0  0  0  0
  184.8230  177.7860  146.5910 C   0  0  0  0  0  2  0  0  0  0  0  0
  185.4870  179.0310  146.5890 O   0  0  0  0  0  0  0  0  0  0  0  0
  185.5670  176.7910  145.7000 C   0  0  0  0  0  2  0  0  0  0  0  0
  185.6350  177.3540  144.2810 C   0  0  0  0  0  3  0  0  0  0  0  0
  186.1090  178.8140  144.2700 C   0  0  0  0  0  2  0  0  0  0  0  0
  185.3090  179.5970  145.3100 C   0  0  0  0  0  2  0  0  0  0  0  0
  1  6  1  6  0  0  0
  1  4  1  0  0  0  0
  3  2  1  6  0  0  0
  3  5  1  0  0  0  0
  3  9  1  0  0  0  0
  4 30  1  0  0  0  0
  4  8  1  1  0  0  0
  5 10  1  6  0  0  0
  5  6  1  0  0  0  0
  7  1  1  0  0  0  0
  7  4  1  0  0  0  0
  9 33  1  0  0  0  0
  9  7  1  0  0  0  0
 10 13  1  0  0  0  0
 12 13  1  0  0  0  0
 13 11  1  0  0  0  0
 13 14  1  0  0  0  0
 15 14  1  0  0  0  0
 15 16  1  0  0  0  0
 16 17  1  0  0  0  0
 18 21  1  0  0  0  0
 19 22  1  0  0  0  0
 21 20  1  0  0  0  0
 21 17  1  0  0  0  0
 22 25  1  0  0  0  0
 24 22  2  0  0  0  0
 24 18  1  0  0  0  0
 25 23  1  0  0  0  0
 25 20  2  0  0  0  0
 26 17  1  0  0  0  0
 26 27  1  0  0  0  0
 27 28  1  0  0  0  0
 27 29  2  0  0  0  0
 30 32  1  0  0  0  0
 31 32  1  0  0  0  0
 34 37  1  0  0  0  0
 34 33  1  0  0  0  0
 35 34  1  0  0  0  0
 36 35  1  0  0  0  0
 37 41  1  0  0  0  0
 39 38  1  0  0  0  0
 40 38  1  0  0  0  0
 41 40  1  0  0  0  0
 42 41  1  0  0  0  0
 42 43  1  0  0  0  0
 43 39  1  0  0  0  0
M  END
>  <MODEL>
6

>  <REMARK>
 VINA RESULT:      -5.9      2.631      4.141
  Name = 
  16 active torsions:
  status: ('A' for Active; 'I' for Inactive)
    1  A    between atoms: C_1  and  C_15
    2  A    between atoms: C_1  and  C_42
    3  A    between atoms: O_2  and  C_21
    4  A    between atoms: O_2  and  C_27
    5  A    between atoms: C_9  and  C_18
    6  A    between atoms: C_13  and  N_22
    7  A    between atoms: C_17  and  CA_38
    8  A    between atoms: C_17  and  C_41
    9  A    between atoms: C_18  and  N_26
   10  A    between atoms: C_19  and  CA_38
   11  A    between atoms: C_20  and  N_26
   12  A    between atoms: C_20  and  C_27
   13  A    between atoms: C_21  and  C_34
   14  A    between atoms: N_22  and  CA_38
   15  A    between atoms: C_24  and  N_26
   16  A    between atoms: C_28  and  C_34
                            x       y       z     vdW  Elec       q    Type
                         _______ _______ _______ _____ _____    ______ ____

>  <TORSDO>
F 16

$$$$
=
 OpenBabel11062418453D

 43 46  0  0  1  0  0  0  0  0999 V2000
  191.0470  174.2840  144.9430 C   0  0  1  0  0  3  0  0  0  0  0  0
  192.3430  172.2780  141.5990 O   0  0  0  0  0  1  0  0  0  0  0  0
  192.1790  173.3500  142.4810 C   0  0  1  0  0  3  0  0  0  0  0  0
  192.2800  175.0080  145.2990 C   0  0  2  0  0  0  0  0  0  0  0  0
  190.7240  173.5370  142.8260 C   0  0  1  0  0  3  0  0  0  0  0  0
  190.6510  174.6580  143.6450 O   0  0  0  0  0  0  0  0  0  0  0  0
  192.3520  173.5460  145.0550 N   0  0  2  0  0  0  0  0  0  0  0  0
  192.3620  175.3520  146.7770 C   0  0  0  0  0  1  0  0  0  0  0  0
  192.9340  173.0590  143.7740 C   0  0  2  0  0  3  0  0  0  0  0  0
  189.8500  173.7090  141.5730 C   0  0  0  0  0  2  0  0  0  0  0  0
  188.1870  172.4720  142.7640 F   0  0  0  0  0  0  0  0  0  0  0  0
  187.8360  172.8680  140.5960 F   0  0  0  0  0  0  0  0  0  0  0  0
  188.3480  173.4150  141.7610 C   0  0  0  0  0  0  0  0  0  0  0  0
  187.6170  174.5870  142.0620 O   0  0  0  0  0  0  0  0  0  0  0  0
  188.1350  175.6490  141.3000 C   0  0  0  0  0  2  0  0  0  0  0  0
  188.1150  176.9170  142.1180 C   0  0  0  0  0  2  0  0  0  0  0  0
  186.7440  177.3460  142.3490 N   0  0  0  0  0  0  0  0  0  0  0  0
  184.8910  178.0930  144.2850 S   0  0  0  0  0  0  0  0  0  0  0  0
  186.6960  178.4300  147.9700 C   0  0  0  0  0  1  0  0  0  0  0  0
  187.2830  176.8570  144.6320 N   0  0  0  0  0  0  0  0  0  0  0  0
  186.6260  177.8020  143.7380 C   0  0  1  0  0  3  0  0  0  0  0  0
  186.3880  177.9890  146.5830 C   0  0  0  0  0  0  0  0  0  0  0  0
  188.1000  175.7900  146.8960 Cl  0  0  0  0  0  0  0  0  0  0  0  0
  185.4220  178.6240  145.9180 C   0  0  0  0  0  3  0  0  0  0  0  0
  187.2000  176.9420  145.9280 C   0  0  0  0  0  0  0  0  0  0  0  0
  186.4360  178.4330  141.4250 C   0  0  0  0  0  2  0  0  0  0  0  0
  185.4160  177.9970  140.4280 C   0  0  0  0  0  0  0  0  0  0  0  0
  185.7770  177.1590  139.4220 F   0  0  0  0  0  0  0  0  0  0  0  0
  184.1810  178.2880  140.6000 N   0  0  0  0  0  2  0  0  0  0  0  0
  192.9660  175.9330  144.2760 C   0  0  0  0  0  2  0  0  0  0  0  0
  195.1200  176.8630  144.7030 O   0  0  0  0  0  1  0  0  0  0  0  0
  193.7690  177.0220  144.9690 C   0  0  0  0  0  2  0  0  0  0  0  0
  194.4470  173.2590  143.6490 C   0  0  0  0  0  2  0  0  0  0  0  0
  195.2830  172.5830  144.7440 C   0  0  1  0  0  3  0  0  0  0  0  0
  195.8180  173.5720  145.7700 C   0  0  0  0  0  2  0  0  0  0  0  0
  197.1990  173.5030  145.8720 O   0  0  0  0  0  1  0  0  0  0  0  0
  194.5900  171.4630  145.3930 N   0  0  0  0  0  2  0  0  0  0  0  0
  196.9730  168.8580  143.9810 C   0  0  0  0  0  2  0  0  0  0  0  0
  197.9320  168.9710  145.0100 O   0  0  0  0  0  0  0  0  0  0  0  0
  196.0820  170.1000  143.9520 C   0  0  0  0  0  2  0  0  0  0  0  0
  195.3910  170.2430  145.3080 C   0  0  0  0  0  3  0  0  0  0  0  0
  196.3840  170.1050  146.4700 C   0  0  0  0  0  2  0  0  0  0  0  0
  197.2440  168.8640  146.2350 C   0  0  0  0  0  2  0  0  0  0  0  0
  1  6  1  6  0  0  0
  1  7  1  0  0  0  0
  1  4  1  0  0  0  0
  3  2  1  6  0  0  0
  3  5  1  0  0  0  0
  3  9  1  0  0  0  0
  4  8  1  1  0  0  0
  5 10  1  6  0  0  0
  5  6  1  0  0  0  0
  7  4  1  0  0  0  0
  9  7  1  0  0  0  0
 10 13  1  0  0  0  0
 12 13  1  0  0  0  0
 13 14  1  0  0  0  0
 13 11  1  0  0  0  0
 15 14  1  0  0  0  0
 15 16  1  0  0  0  0
 16 17  1  0  0  0  0
 17 21  1  0  0  0  0
 18 24  1  0  0  0  0
 20 25  2  0  0  0  0
 21 18  1  0  0  0  0
 21 20  1  0  0  0  0
 22 19  1  0  0  0  0
 24 22  2  0  0  0  0
 25 22  1  0  0  0  0
 25 23  1  0  0  0  0
 26 17  1  0  0  0  0
 27 29  2  0  0  0  0
 27 26  1  0  0  0  0
 28 27  1  0  0  0  0
 30 32  1  0  0  0  0
 30  4  1  0  0  0  0
 31 32  1  0  0  0  0
 33  9  1  0  0  0  0
 33 34  1  0  0  0  0
 34 37  1  0  0  0  0
 34 35  1  0  0  0  0
 35 36  1  0  0  0  0
 38 39  1  0  0  0  0
 39 43  1  0  0  0  0
 40 38  1  0  0  0  0
 40 41  1  0  0  0  0
 41 37  1  0  0  0  0
 41 42  1  0  0  0  0
 43 42  1  0  0  0  0
M  END
>  <MODEL>
7

>  <REMARK>
 VINA RESULT:      -5.8      4.171      9.629
  Name = 
  16 active torsions:
  status: ('A' for Active; 'I' for Inactive)
    1  A    between atoms: C_1  and  C_15
    2  A    between atoms: C_1  and  C_42
    3  A    between atoms: O_2  and  C_21
    4  A    between atoms: O_2  and  C_27
    5  A    between atoms: C_9  and  C_18
    6  A    between atoms: C_13  and  N_22
    7  A    between atoms: C_17  and  CA_38
    8  A    between atoms: C_17  and  C_41
    9  A    between atoms: C_18  and  N_26
   10  A    between atoms: C_19  and  CA_38
   11  A    between atoms: C_20  and  N_26
   12  A    between atoms: C_20  and  C_27
   13  A    between atoms: C_21  and  C_34
   14  A    between atoms: N_22  and  CA_38
   15  A    between atoms: C_24  and  N_26
   16  A    between atoms: C_28  and  C_34
                            x       y       z     vdW  Elec       q    Type
                         _______ _______ _______ _____ _____    ______ ____

>  <TORSDO>
F 16

$$$$
=
 OpenBabel11062418453D

 43 46  0  0  1  0  0  0  0  0999 V2000
  193.3770  172.7040  144.4170 C   0  0  1  0  0  3  0  0  0  0  0  0
  195.3660  176.2520  145.0040 O   0  0  0  0  0  1  0  0  0  0  0  0
  195.0230  174.9120  145.2110 C   0  0  1  0  0  3  0  0  0  0  0  0
  194.5090  171.7620  144.4940 C   0  0  2  0  0  0  0  0  0  0  0  0
  193.5300  174.7630  145.3560 C   0  0  1  0  0  3  0  0  0  0  0  0
  193.2900  173.4200  145.6260 O   0  0  0  0  0  0  0  0  0  0  0  0
  194.6130  172.9370  143.5920 N   0  0  2  0  0  0  0  0  0  0  0  0
  194.2600  170.4700  143.7340 C   0  0  0  0  0  1  0  0  0  0  0  0
  195.4620  174.0870  144.0060 C   0  0  2  0  0  3  0  0  0  0  0  0
  192.9650  175.6610  146.4690 C   0  0  0  0  0  2  0  0  0  0  0  0
  191.1270  177.0630  147.0800 F   0  0  0  0  0  0  0  0  0  0  0  0
  190.8230  174.8530  147.1620 F   0  0  0  0  0  0  0  0  0  0  0  0
  191.4370  175.8680  146.4470 C   0  0  0  0  0  0  0  0  0  0  0  0
  190.9240  175.8580  145.1300 O   0  0  0  0  0  0  0  0  0  0  0  0
  190.9120  177.1760  144.6410 C   0  0  0  0  0  2  0  0  0  0  0  0
  189.6000  177.4480  143.9460 C   0  0  0  0  0  2  0  0  0  0  0  0
  188.7400  176.2760  144.0170 N   0  0  0  0  0  0  0  0  0  0  0  0
  187.6430  176.6130  146.5500 S   0  0  0  0  0  0  0  0  0  0  0  0
  183.9570  178.4330  146.3070 C   0  0  0  0  0  1  0  0  0  0  0  0
  187.0520  177.9580  144.2680 N   0  0  0  0  0  0  0  0  0  0  0  0
  187.5040  176.6460  144.7140 C   0  0  1  0  0  3  0  0  0  0  0  0
  185.3570  178.0300  146.0030 C   0  0  0  0  0  0  0  0  0  0  0  0
  185.5650  180.1270  144.1530 Cl  0  0  0  0  0  0  0  0  0  0  0  0
  185.9210  177.0870  146.7580 C   0  0  0  0  0  3  0  0  0  0  0  0
  186.0640  178.5900  144.8310 C   0  0  0  0  0  0  0  0  0  0  0  0
  188.4490  175.8320  142.6570 C   0  0  0  0  0  2  0  0  0  0  0  0
  188.6310  174.3570  142.5390 C   0  0  0  0  0  0  0  0  0  0  0  0
  187.5950  173.5860  142.1170 F   0  0  0  0  0  0  0  0  0  0  0  0
  189.7910  173.8360  142.6900 N   0  0  0  0  0  2  0  0  0  0  0  0
  195.4210  171.7380  145.7360 C   0  0  0  0  0  2  0  0  0  0  0  0
  197.4800  170.5480  145.5550 O   0  0  0  0  0  1  0  0  0  0  0  0
  196.1370  170.4030  145.8670 C   0  0  0  0  0  2  0  0  0  0  0  0
  196.9670  173.8050  143.9820 C   0  0  0  0  0  2  0  0  0  0  0  0
  197.6680  174.1380  142.6590 C   0  0  1  0  0  3  0  0  0  0  0  0
  197.9410  172.9040  141.8110 C   0  0  0  0  0  2  0  0  0  0  0  0
  197.6660  171.7360  142.5070 O   0  0  0  0  0  1  0  0  0  0  0  0
  196.9770  175.1750  141.8830 N   0  0  0  0  0  2  0  0  0  0  0  0
  195.3930  174.4200  138.5090 C   0  0  0  0  0  2  0  0  0  0  0  0
  196.1220  175.3910  137.7900 O   0  0  0  0  0  0  0  0  0  0  0  0
  195.4150  174.7440  140.0030 C   0  0  0  0  0  2  0  0  0  0  0  0
  196.8660  174.7790  140.4800 C   0  0  0  0  0  3  0  0  0  0  0  0
  197.7500  175.6260  139.5530 C   0  0  0  0  0  2  0  0  0  0  0  0
  197.4840  175.2100  138.1070 C   0  0  0  0  0  2  0  0  0  0  0  0
  1  4  1  0  0  0  0
  1  6  1  1  0  0  0
  3  2  1  6  0  0  0
  3  5  1  0  0  0  0
  4  8  1  6  0  0  0
  4 30  1  0  0  0  0
  5  6  1  0  0  0  0
  5 10  1  1  0  0  0
  7  9  1  0  0  0  0
  7  1  1  0  0  0  0
  7  4  1  0  0  0  0
  9  3  1  0  0  0  0
 13 10  1  0  0  0  0
 13 11  1  0  0  0  0
 13 12  1  0  0  0  0
 14 13  1  0  0  0  0
 15 14  1  0  0  0  0
 16 17  1  0  0  0  0
 16 15  1  0  0  0  0
 17 21  1  0  0  0  0
 18 24  1  0  0  0  0
 20 21  1  0  0  0  0
 20 25  2  0  0  0  0
 21 18  1  0  0  0  0
 22 19  1  0  0  0  0
 22 24  2  0  0  0  0
 23 25  1  0  0  0  0
 25 22  1  0  0  0  0
 26 17  1  0  0  0  0
 27 26  1  0  0  0  0
 27 29  2  0  0  0  0
 28 27  1  0  0  0  0
 30 32  1  0  0  0  0
 31 32  1  0  0  0  0
 33  9  1  0  0  0  0
 34 33  1  0  0  0  0
 35 36  1  0  0  0  0
 35 34  1  0  0  0  0
 37 34  1  0  0  0  0
 38 40  1  0  0  0  0
 39 43  1  0  0  0  0
 39 38  1  0  0  0  0
 40 41  1  0  0  0  0
 41 37  1  0  0  0  0
 42 41  1  0  0  0  0
 43 42  1  0  0  0  0
M  END
>  <MODEL>
8

>  <REMARK>
 VINA RESULT:      -5.8      3.631      9.230
  Name = 
  16 active torsions:
  status: ('A' for Active; 'I' for Inactive)
    1  A    between atoms: C_1  and  C_15
    2  A    between atoms: C_1  and  C_42
    3  A    between atoms: O_2  and  C_21
    4  A    between atoms: O_2  and  C_27
    5  A    between atoms: C_9  and  C_18
    6  A    between atoms: C_13  and  N_22
    7  A    between atoms: C_17  and  CA_38
    8  A    between atoms: C_17  and  C_41
    9  A    between atoms: C_18  and  N_26
   10  A    between atoms: C_19  and  CA_38
   11  A    between atoms: C_20  and  N_26
   12  A    between atoms: C_20  and  C_27
   13  A    between atoms: C_21  and  C_34
   14  A    between atoms: N_22  and  CA_38
   15  A    between atoms: C_24  and  N_26
   16  A    between atoms: C_28  and  C_34
                            x       y       z     vdW  Elec       q    Type
                         _______ _______ _______ _____ _____    ______ ____

>  <TORSDO>
F 16

$$$$
=
 OpenBabel11062418453D

 43 46  0  0  1  0  0  0  0  0999 V2000
  189.3400  177.5930  143.4950 C   0  0  1  0  0  3  0  0  0  0  0  0
  190.4060  173.8180  144.7200 O   0  0  0  0  0  1  0  0  0  0  0  0
  189.5660  174.9070  144.4700 C   0  0  1  0  0  3  0  0  0  0  0  0
  188.0970  177.2830  142.7670 C   0  0  2  0  0  0  0  0  0  0  0  0
  190.1370  176.1670  145.0690 C   0  0  1  0  0  3  0  0  0  0  0  0
  189.2080  177.1750  144.8330 O   0  0  0  0  0  0  0  0  0  0  0  0
  189.3240  176.5090  142.4530 N   0  0  2  0  0  0  0  0  0  0  0  0
  187.7670  178.3040  141.6910 C   0  0  0  0  0  1  0  0  0  0  0  0
  189.4450  175.1160  142.9640 C   0  0  2  0  0  3  0  0  0  0  0  0
  190.4200  176.0160  146.5720 C   0  0  0  0  0  2  0  0  0  0  0  0
  192.3700  174.9150  147.4090 F   0  0  0  0  0  0  0  0  0  0  0  0
  191.9970  177.0150  148.0670 F   0  0  0  0  0  0  0  0  0  0  0  0
  191.8980  176.1500  146.9890 C   0  0  0  0  0  0  0  0  0  0  0  0
  192.6970  176.6530  145.9390 O   0  0  0  0  0  0  0  0  0  0  0  0
  193.9040  175.9330  145.9050 C   0  0  0  0  0  2  0  0  0  0  0  0
  193.9880  175.1440  144.6210 C   0  0  0  0  0  2  0  0  0  0  0  0
  195.3720  175.0380  144.1840 N   0  0  0  0  0  0  0  0  0  0  0  0
  196.7990  173.4830  145.9960 S   0  0  0  0  0  0  0  0  0  0  0  0
  196.3870  169.4810  145.1150 C   0  0  0  0  0  1  0  0  0  0  0  0
  194.7100  172.7480  144.4260 N   0  0  0  0  0  0  0  0  0  0  0  0
  195.8380  173.6700  144.4360 C   0  0  1  0  0  3  0  0  0  0  0  0
  196.1060  170.9370  145.2390 C   0  0  0  0  0  0  0  0  0  0  0  0
  193.4050  170.4720  144.6420 Cl  0  0  0  0  0  0  0  0  0  0  0  0
  197.0740  171.7310  145.6970 C   0  0  0  0  0  3  0  0  0  0  0  0
  194.8210  171.4980  144.7700 C   0  0  0  0  0  0  0  0  0  0  0  0
  195.4330  175.3470  142.7590 C   0  0  0  0  0  2  0  0  0  0  0  0
  196.2970  176.5380  142.5190 C   0  0  0  0  0  0  0  0  0  0  0  0
  196.4000  177.0490  141.2640 F   0  0  0  0  0  0  0  0  0  0  0  0
  196.8190  177.1660  143.5050 N   0  0  0  0  0  2  0  0  0  0  0  0
  186.9470  176.5350  143.4690 C   0  0  0  0  0  2  0  0  0  0  0  0
  184.8070  177.5470  143.1750 O   0  0  0  0  0  1  0  0  0  0  0  0
  185.9110  177.5060  144.0140 C   0  0  0  0  0  2  0  0  0  0  0  0
  188.5120  174.1080  142.2860 C   0  0  0  0  0  2  0  0  0  0  0  0
  189.1350  173.3330  141.1180 C   0  0  1  0  0  3  0  0  0  0  0  0
  188.5740  173.7550  139.7670 C   0  0  0  0  0  2  0  0  0  0  0  0
  188.0470  172.6760  139.0740 O   0  0  0  0  0  1  0  0  0  0  0  0
  190.6020  173.3630  141.1190 N   0  0  0  0  0  2  0  0  0  0  0  0
  190.8840  169.6080  141.6530 C   0  0  0  0  0  2  0  0  0  0  0  0
  190.8670  169.2700  140.2830 O   0  0  0  0  0  0  0  0  0  0  0  0
  190.3100  171.0110  141.8550 C   0  0  0  0  0  2  0  0  0  0  0  0
  191.1450  172.0070  141.0520 C   0  0  0  0  0  3  0  0  0  0  0  0
  191.3680  171.5300  139.6100 C   0  0  0  0  0  2  0  0  0  0  0  0
  191.8310  170.0740  139.6420 C   0  0  0  0  0  2  0  0  0  0  0  0
  1  6  1  1  0  0  0
  3  2  1  6  0  0  0
  3  5  1  0  0  0  0
  4  8  1  6  0  0  0
  4 30  1  0  0  0  0
  4  1  1  0  0  0  0
  5 10  1  1  0  0  0
  6  5  1  0  0  0  0
  7  4  1  0  0  0  0
  7  9  1  0  0  0  0
  7  1  1  0  0  0  0
  9  3  1  0  0  0  0
 10 13  1  0  0  0  0
 13 11  1  0  0  0  0
 13 12  1  0  0  0  0
 14 13  1  0  0  0  0
 15 14  1  0  0  0  0
 16 15  1  0  0  0  0
 17 21  1  0  0  0  0
 17 16  1  0  0  0  0
 19 22  1  0  0  0  0
 20 21  1  0  0  0  0
 20 25  2  0  0  0  0
 21 18  1  0  0  0  0
 22 24  2  0  0  0  0
 23 25  1  0  0  0  0
 24 18  1  0  0  0  0
 25 22  1  0  0  0  0
 26 17  1  0  0  0  0
 27 26  1  0  0  0  0
 27 29  2  0  0  0  0
 28 27  1  0  0  0  0
 30 32  1  0  0  0  0
 31 32  1  0  0  0  0
 33  9  1  0  0  0  0
 34 37  1  0  0  0  0
 34 33  1  0  0  0  0
 35 34  1  0  0  0  0
 36 35  1  0  0  0  0
 38 40  1  0  0  0  0
 39 38  1  0  0  0  0
 41 37  1  0  0  0  0
 41 40  1  0  0  0  0
 42 43  1  0  0  0  0
 42 41  1  0  0  0  0
 43 39  1  0  0  0  0
M  END
>  <MODEL>
9

>  <REMARK>
 VINA RESULT:      -5.8      2.884      5.503
  Name = 
  16 active torsions:
  status: ('A' for Active; 'I' for Inactive)
    1  A    between atoms: C_1  and  C_15
    2  A    between atoms: C_1  and  C_42
    3  A    between atoms: O_2  and  C_21
    4  A    between atoms: O_2  and  C_27
    5  A    between atoms: C_9  and  C_18
    6  A    between atoms: C_13  and  N_22
    7  A    between atoms: C_17  and  CA_38
    8  A    between atoms: C_17  and  C_41
    9  A    between atoms: C_18  and  N_26
   10  A    between atoms: C_19  and  CA_38
   11  A    between atoms: C_20  and  N_26
   12  A    between atoms: C_20  and  C_27
   13  A    between atoms: C_21  and  C_34
   14  A    between atoms: N_22  and  CA_38
   15  A    between atoms: C_24  and  N_26
   16  A    between atoms: C_28  and  C_34
                            x       y       z     vdW  Elec       q    Type
                         _______ _______ _______ _____ _____    ______ ____

>  <TORSDO>
F 16

$$$$
