=
 OpenBabel11062421573D

 37 41  0  0  1  0  0  0  0  0999 V2000
  187.2820  176.7840  144.9170 C   0  0  0  0  0  0  0  0  0  0  0  0
  189.5970  174.3680  146.7750 C   0  0  0  0  0  2  0  0  0  0  0  0
  193.5020  175.8060  143.3310 C   0  0  0  0  0  2  0  0  0  0  0  0
  190.4310  175.7570  143.8830 C   0  0  2  0  0  3  0  0  0  0  0  0
  188.9460  177.2170  142.0310 O   0  0  0  0  0  1  0  0  0  0  0  0
  190.7470  174.8800  141.6950 O   0  0  0  0  0  0  0  0  0  0  0  0
  193.2980  176.3820  144.7370 C   0  0  1  0  0  3  0  0  0  0  0  0
  192.3520  175.5230  145.6090 C   0  0  2  0  0  3  0  0  0  0  0  0
  188.1100  175.5780  145.1030 C   0  0  1  0  0  3  0  0  0  0  0  0
  186.6810  177.5110  145.9480 C   0  0  0  0  0  0  0  0  0  0  0  0
  185.7040  178.9560  144.2500 C   0  0  0  0  0  3  0  0  0  0  0  0
  188.9010  175.4640  143.7710 C   0  0  1  0  0  3  0  0  0  0  0  0
  191.1490  175.6400  142.5630 C   0  0  0  0  0  0  0  0  0  0  0  0
  187.0820  177.2430  147.3760 C   0  0  0  0  0  2  0  0  0  0  0  0
  191.2120  174.8350  144.8380 C   0  0  1  0  0  3  0  0  0  0  0  0
  187.8470  175.9220  147.5580 C   0  0  0  0  0  2  0  0  0  0  0  0
  190.4150  173.7910  145.6230 C   0  0  0  0  0  2  0  0  0  0  0  0
  188.1130  176.3630  142.7580 C   0  0  1  0  0  3  0  0  0  0  0  0
  186.3870  178.2550  143.2390 C   0  0  0  0  0  0  0  0  0  0  0  0
  185.2230  179.3790  146.6090 N   0  0  0  0  0  1  0  0  0  0  0  0
  188.8640  175.6630  146.4370 C   0  0  1  0  0  3  0  0  0  0  0  0
  192.4500  176.3490  142.3710 C   0  0  0  0  0  2  0  0  0  0  0  0
  187.1990  177.1710  143.6100 C   0  0  0  0  0  0  0  0  0  0  0  0
  185.8660  178.6040  145.6020 C   0  0  0  0  0  0  0  0  0  0  0  0
  191.8310  176.3140  146.6350 O   0  0  0  0  0  1  0  0  0  0  0  0
  194.8720  177.9130  145.7530 O   0  0  0  0  0  1  0  0  0  0  0  0
  194.6590  176.5730  145.4230 C   0  0  2  0  0  3  0  0  0  0  0  0
  195.7880  176.0960  144.5530 C   0  0  0  0  0  0  0  0  0  0  0  0
  196.3270  176.8950  143.7430 O   0  0  0  0  0  0  0  0  0  0  0  0
  196.2470  174.7790  144.6160 O   0  0  0  0  0  0  0  0  0  0  0  0
  196.3330  174.0640  145.8400 C   0  0  0  0  0  1  0  0  0  0  0  0
  186.2250  178.6540  141.8030 C   0  0  0  0  0  2  0  0  0  0  0  0
  185.3380  177.6730  141.0430 C   0  0  0  0  0  2  0  0  0  0  0  0
  184.0090  178.3070  140.6700 C   0  0  1  0  0  3  0  0  0  0  0  0
  183.4150  177.5770  139.6400 O   0  0  0  0  0  1  0  0  0  0  0  0
  183.0990  178.3100  141.8820 C   0  0  0  0  0  2  0  0  0  0  0  0
  181.7860  178.0520  141.4890 O   0  0  0  0  0  1  0  0  0  0  0  0
  1 10  1  0  0  0  0
  3  7  1  0  0  0  0
  4 13  1  6  0  0  0
  4 15  1  0  0  0  0
  5 18  1  0  0  0  0
  6 13  2  0  0  0  0
  7 27  1  1  0  0  0
  7  8  1  0  0  0  0
  8 25  1  1  0  0  0
  9  1  1  6  0  0  0
  9 21  1  0  0  0  0
 10 14  1  0  0  0  0
 11 24  1  0  0  0  0
 12  4  1  0  0  0  0
 12  9  1  0  0  0  0
 14 16  1  0  0  0  0
 15  8  1  0  0  0  0
 15 17  1  0  0  0  0
 17  2  1  0  0  0  0
 18 23  1  0  0  0  0
 18 12  1  0  0  0  0
 19 23  1  0  0  0  0
 19 11  2  0  0  0  0
 21  2  1  0  0  0  0
 21 16  1  0  0  0  0
 22 13  1  0  0  0  0
 22  3  1  0  0  0  0
 23  1  2  0  0  0  0
 24 10  2  0  0  0  0
 24 20  1  0  0  0  0
 27 26  1  0  0  0  0
 28 30  1  0  0  0  0
 28 27  1  0  0  0  0
 29 28  2  0  0  0  0
 30 31  1  0  0  0  0
 32 19  1  0  0  0  0
 33 32  1  0  0  0  0
 34 33  1  0  0  0  0
 34 36  1  0  0  0  0
 35 34  1  0  0  0  0
 37 36  1  0  0  0  0
M  END
>  <MODEL>
1

>  <REMARK>
 VINA RESULT:      -8.1      0.000      0.000
  Name = 
  7 active torsions:
  status: ('A' for Active; 'I' for Inactive)
    1  A    between atoms: O_4  and  C_15
    2  A    between atoms: C_5  and  C_8
    3  A    between atoms: C_8  and  C_23
    4  A    between atoms: C_10  and  C_37
    5  A    between atoms: C_15  and  C_37
    6  A    between atoms: C_23  and  C_27
    7  A    between atoms: C_27  and  C_28
                            x       y       z     vdW  Elec       q    Type
                         _______ _______ _______ _____ _____    ______ ____

>  <TORSDO>
F 7

$$$$
=
 OpenBabel11062421573D

 37 41  0  0  1  0  0  0  0  0999 V2000
  189.3940  175.5910  145.4590 C   0  0  0  0  0  0  0  0  0  0  0  0
  192.8340  174.3670  146.6060 C   0  0  0  0  0  2  0  0  0  0  0  0
  194.4920  174.9180  141.4940 C   0  0  0  0  0  2  0  0  0  0  0  0
  192.0350  174.6750  143.4040 C   0  0  2  0  0  3  0  0  0  0  0  0
  189.5950  175.1320  142.1370 O   0  0  0  0  0  1  0  0  0  0  0  0
  191.7020  173.0960  141.6560 O   0  0  0  0  0  0  0  0  0  0  0  0
  194.7010  175.9440  142.6140 C   0  0  1  0  0  3  0  0  0  0  0  0
  194.4600  175.3560  144.0240 C   0  0  2  0  0  3  0  0  0  0  0  0
  190.5340  174.6610  145.5610 C   0  0  1  0  0  3  0  0  0  0  0  0
  189.0660  176.5630  146.4070 C   0  0  0  0  0  0  0  0  0  0  0  0
  187.1340  177.1310  145.0380 C   0  0  0  0  0  3  0  0  0  0  0  0
  190.7360  174.1640  144.1020 C   0  0  1  0  0  3  0  0  0  0  0  0
  192.1790  174.1710  141.9910 C   0  0  0  0  0  0  0  0  0  0  0  0
  190.0520  176.9020  147.4950 C   0  0  0  0  0  2  0  0  0  0  0  0
  193.3550  174.2870  144.0960 C   0  0  1  0  0  3  0  0  0  0  0  0
  191.1690  175.8560  147.6540 C   0  0  0  0  0  2  0  0  0  0  0  0
  193.2620  173.5160  145.4140 C   0  0  0  0  0  2  0  0  0  0  0  0
  189.3940  174.5090  143.3710 C   0  0  1  0  0  3  0  0  0  0  0  0
  187.5350  176.2000  144.0610 C   0  0  0  0  0  0  0  0  0  0  0  0
  187.5180  178.3350  147.1290 N   0  0  0  0  0  1  0  0  0  0  0  0
  191.6930  175.3350  146.3080 C   0  0  1  0  0  3  0  0  0  0  0  0
  193.0410  174.9210  141.0280 C   0  0  0  0  0  2  0  0  0  0  0  0
  188.6980  175.4490  144.2920 C   0  0  0  0  0  0  0  0  0  0  0  0
  187.9060  177.3320  146.1960 C   0  0  0  0  0  0  0  0  0  0  0  0
  194.1810  176.3960  144.9130 O   0  0  0  0  0  1  0  0  0  0  0  0
  196.2950  177.1660  141.2640 O   0  0  0  0  0  1  0  0  0  0  0  0
  196.1070  176.5540  142.5050 C   0  0  2  0  0  3  0  0  0  0  0  0
  197.1750  175.5170  142.7060 C   0  0  0  0  0  0  0  0  0  0  0  0
  197.7750  175.0400  141.7070 O   0  0  0  0  0  0  0  0  0  0  0  0
  197.5130  175.0610  143.9830 O   0  0  0  0  0  0  0  0  0  0  0  0
  197.8110  173.6980  144.2480 C   0  0  0  0  0  1  0  0  0  0  0  0
  186.7170  176.0100  142.8190 C   0  0  0  0  0  2  0  0  0  0  0  0
  185.7890  177.1930  142.5700 C   0  0  0  0  0  2  0  0  0  0  0  0
  186.1960  177.9610  141.3240 C   0  0  1  0  0  3  0  0  0  0  0  0
  187.0670  177.1840  140.5590 O   0  0  0  0  0  1  0  0  0  0  0  0
  184.9590  178.2880  140.5120 C   0  0  0  0  0  2  0  0  0  0  0  0
  183.8340  178.2780  141.3360 O   0  0  0  0  0  1  0  0  0  0  0  0
  1 10  1  0  0  0  0
  3  7  1  0  0  0  0
  4 13  1  6  0  0  0
  4 15  1  0  0  0  0
  4 12  1  0  0  0  0
  5 18  1  0  0  0  0
  6 13  2  0  0  0  0
  7 27  1  1  0  0  0
  7  8  1  0  0  0  0
  8 15  1  0  0  0  0
  8 25  1  1  0  0  0
  9  1  1  6  0  0  0
  9 21  1  0  0  0  0
 10 14  1  0  0  0  0
 11 24  1  0  0  0  0
 12  9  1  0  0  0  0
 14 16  1  0  0  0  0
 15 17  1  0  0  0  0
 17  2  1  0  0  0  0
 18 12  1  0  0  0  0
 18 23  1  0  0  0  0
 19 23  1  0  0  0  0
 19 11  2  0  0  0  0
 21  2  1  0  0  0  0
 21 16  1  0  0  0  0
 22  3  1  0  0  0  0
 22 13  1  0  0  0  0
 23  1  2  0  0  0  0
 24 10  2  0  0  0  0
 24 20  1  0  0  0  0
 26 27  1  0  0  0  0
 27 28  1  0  0  0  0
 28 30  1  0  0  0  0
 29 28  2  0  0  0  0
 30 31  1  0  0  0  0
 32 19  1  0  0  0  0
 33 32  1  0  0  0  0
 34 33  1  0  0  0  0
 35 34  1  0  0  0  0
 36 34  1  0  0  0  0
 36 37  1  0  0  0  0
M  END
>  <MODEL>
2

>  <REMARK>
 VINA RESULT:      -7.6      1.739      2.637
  Name = 
  7 active torsions:
  status: ('A' for Active; 'I' for Inactive)
    1  A    between atoms: O_4  and  C_15
    2  A    between atoms: C_5  and  C_8
    3  A    between atoms: C_8  and  C_23
    4  A    between atoms: C_10  and  C_37
    5  A    between atoms: C_15  and  C_37
    6  A    between atoms: C_23  and  C_27
    7  A    between atoms: C_27  and  C_28
                            x       y       z     vdW  Elec       q    Type
                         _______ _______ _______ _____ _____    ______ ____

>  <TORSDO>
F 7

$$$$
=
 OpenBabel11062421573D

 37 41  0  0  1  0  0  0  0  0999 V2000
  192.1710  173.7530  143.4750 C   0  0  0  0  0  0  0  0  0  0  0  0
  191.9510  177.5370  144.0040 C   0  0  0  0  0  2  0  0  0  0  0  0
  186.5890  177.0690  143.5520 C   0  0  0  0  0  2  0  0  0  0  0  0
  189.3550  175.7280  143.0150 C   0  0  2  0  0  3  0  0  0  0  0  0
  189.1600  173.0890  142.1410 O   0  0  0  0  0  1  0  0  0  0  0  0
  188.1360  175.6210  140.9760 O   0  0  0  0  0  0  0  0  0  0  0  0
  187.3700  177.1270  144.8700 C   0  0  1  0  0  3  0  0  0  0  0  0
  188.8200  177.6350  144.6900 C   0  0  2  0  0  3  0  0  0  0  0  0
  191.9200  175.1580  143.1040 C   0  0  1  0  0  3  0  0  0  0  0  0
  193.0260  173.3340  144.4970 C   0  0  0  0  0  0  0  0  0  0  0  0
  192.5130  171.0370  143.8750 C   0  0  0  0  0  3  0  0  0  0  0  0
  190.5910  175.0960  142.3000 C   0  0  1  0  0  3  0  0  0  0  0  0
  188.0930  175.6350  142.1970 C   0  0  0  0  0  0  0  0  0  0  0  0
  193.5520  174.3440  145.4850 C   0  0  0  0  0  2  0  0  0  0  0  0
  189.4870  177.2220  143.3660 C   0  0  1  0  0  3  0  0  0  0  0  0
  193.3780  175.8000  145.0220 C   0  0  0  0  0  2  0  0  0  0  0  0
  190.8180  177.9080  143.0510 C   0  0  0  0  0  2  0  0  0  0  0  0
  190.4390  173.5910  141.8920 C   0  0  1  0  0  3  0  0  0  0  0  0
  191.5960  171.4880  142.9070 C   0  0  0  0  0  0  0  0  0  0  0  0
  194.0720  171.4650  145.7070 N   0  0  0  0  0  1  0  0  0  0  0  0
  192.0210  176.0520  144.3480 C   0  0  1  0  0  3  0  0  0  0  0  0
  186.7670  175.7110  142.8820 C   0  0  0  0  0  2  0  0  0  0  0  0
  191.4270  172.8720  142.7420 C   0  0  0  0  0  0  0  0  0  0  0  0
  193.2090  171.9520  144.6840 C   0  0  0  0  0  0  0  0  0  0  0  0
  189.5920  177.2080  145.7710 O   0  0  0  0  0  1  0  0  0  0  0  0
  187.1810  177.8920  147.1580 O   0  0  0  0  0  1  0  0  0  0  0  0
  186.6070  177.9880  145.8880 C   0  0  2  0  0  3  0  0  0  0  0  0
  185.1600  177.5910  145.9730 C   0  0  0  0  0  0  0  0  0  0  0  0
  184.8500  176.4720  146.4590 O   0  0  0  0  0  0  0  0  0  0  0  0
  184.1480  178.4370  145.5140 O   0  0  0  0  0  0  0  0  0  0  0  0
  184.3870  179.4560  144.5550 C   0  0  0  0  0  1  0  0  0  0  0  0
  190.8420  170.5040  142.0650 C   0  0  0  0  0  2  0  0  0  0  0  0
  191.7350  169.8700  141.0040 C   0  0  0  0  0  2  0  0  0  0  0  0
  191.4270  170.4230  139.6230 C   0  0  1  0  0  3  0  0  0  0  0  0
  190.1390  170.9590  139.6090 O   0  0  0  0  0  1  0  0  0  0  0  0
  192.4320  171.5060  139.2830 C   0  0  0  0  0  2  0  0  0  0  0  0
  191.7730  172.6120  138.7480 O   0  0  0  0  0  1  0  0  0  0  0  0
  1 10  1  0  0  0  0
  2 21  1  0  0  0  0
  3  7  1  0  0  0  0
  4 13  1  6  0  0  0
  4 15  1  0  0  0  0
  6 13  2  0  0  0  0
  7 27  1  1  0  0  0
  8  7  1  0  0  0  0
  8 25  1  1  0  0  0
  9  1  1  1  0  0  0
  9 21  1  0  0  0  0
 10 24  2  0  0  0  0
 10 14  1  0  0  0  0
 11 24  1  0  0  0  0
 12  4  1  0  0  0  0
 12  9  1  0  0  0  0
 13 22  1  0  0  0  0
 15  8  1  0  0  0  0
 16 14  1  0  0  0  0
 17 15  1  0  0  0  0
 17  2  1  0  0  0  0
 18  5  1  0  0  0  0
 18 12  1  0  0  0  0
 18 23  1  0  0  0  0
 19 11  2  0  0  0  0
 21 16  1  0  0  0  0
 22  3  1  0  0  0  0
 23 19  1  0  0  0  0
 23  1  2  0  0  0  0
 24 20  1  0  0  0  0
 27 28  1  0  0  0  0
 27 26  1  0  0  0  0
 28 29  2  0  0  0  0
 30 28  1  0  0  0  0
 31 30  1  0  0  0  0
 32 19  1  0  0  0  0
 33 32  1  0  0  0  0
 34 33  1  0  0  0  0
 35 34  1  0  0  0  0
 36 34  1  0  0  0  0
 37 36  1  0  0  0  0
M  END
>  <MODEL>
3

>  <REMARK>
 VINA RESULT:      -7.4      3.661      7.931
  Name = 
  7 active torsions:
  status: ('A' for Active; 'I' for Inactive)
    1  A    between atoms: O_4  and  C_15
    2  A    between atoms: C_5  and  C_8
    3  A    between atoms: C_8  and  C_23
    4  A    between atoms: C_10  and  C_37
    5  A    between atoms: C_15  and  C_37
    6  A    between atoms: C_23  and  C_27
    7  A    between atoms: C_27  and  C_28
                            x       y       z     vdW  Elec       q    Type
                         _______ _______ _______ _____ _____    ______ ____

>  <TORSDO>
F 7

$$$$
=
 OpenBabel11062421573D

 37 41  0  0  1  0  0  0  0  0999 V2000
  190.9600  173.9360  142.9060 C   0  0  0  0  0  0  0  0  0  0  0  0
  191.0680  176.8970  145.3290 C   0  0  0  0  0  2  0  0  0  0  0  0
  185.8110  177.6290  144.3270 C   0  0  0  0  0  2  0  0  0  0  0  0
  188.4680  176.3080  143.3590 C   0  0  2  0  0  3  0  0  0  0  0  0
  188.1230  174.5600  141.2160 O   0  0  0  0  0  1  0  0  0  0  0  0
  187.5570  177.4620  141.4890 O   0  0  0  0  0  0  0  0  0  0  0  0
  186.3920  176.8760  145.5290 C   0  0  1  0  0  3  0  0  0  0  0  0
  187.8990  177.1530  145.7440 C   0  0  2  0  0  3  0  0  0  0  0  0
  190.9160  175.3530  143.3130 C   0  0  1  0  0  3  0  0  0  0  0  0
  191.6060  172.9190  143.6110 C   0  0  0  0  0  0  0  0  0  0  0  0
  190.9480  171.3830  141.8400 C   0  0  0  0  0  3  0  0  0  0  0  0
  189.7210  175.9320  142.5060 C   0  0  1  0  0  3  0  0  0  0  0  0
  187.3370  176.8580  142.5290 C   0  0  0  0  0  0  0  0  0  0  0  0
  192.0860  173.1790  145.0170 C   0  0  0  0  0  2  0  0  0  0  0  0
  188.7050  177.3680  144.4510 C   0  0  1  0  0  3  0  0  0  0  0  0
  192.1370  174.6730  145.3770 C   0  0  0  0  0  2  0  0  0  0  0  0
  190.1330  177.8850  144.6380 C   0  0  0  0  0  2  0  0  0  0  0  0
  189.4710  174.8960  141.3580 C   0  0  1  0  0  3  0  0  0  0  0  0
  190.2360  172.4110  141.1940 C   0  0  0  0  0  0  0  0  0  0  0  0
  192.2590  170.5490  143.7270 N   0  0  0  0  0  1  0  0  0  0  0  0
  190.9290  175.4570  144.8450 C   0  0  1  0  0  3  0  0  0  0  0  0
  185.9410  176.7950  143.0580 C   0  0  0  0  0  2  0  0  0  0  0  0
  190.2420  173.6910  141.7700 C   0  0  0  0  0  0  0  0  0  0  0  0
  191.6120  171.6260  143.0560 C   0  0  0  0  0  0  0  0  0  0  0  0
  188.4550  176.1130  146.4900 O   0  0  0  0  0  1  0  0  0  0  0  0
  184.4450  176.4090  146.8880 O   0  0  0  0  0  1  0  0  0  0  0  0
  185.5850  177.2110  146.7920 C   0  0  2  0  0  3  0  0  0  0  0  0
  185.1700  178.6550  146.8160 C   0  0  0  0  0  0  0  0  0  0  0  0
  184.1020  179.0050  146.2490 O   0  0  0  0  0  0  0  0  0  0  0  0
  185.9530  179.6250  147.4470 O   0  0  0  0  0  0  0  0  0  0  0  0
  186.9370  179.2930  148.4150 C   0  0  0  0  0  1  0  0  0  0  0  0
  189.5130  172.1350  139.9100 C   0  0  0  0  0  2  0  0  0  0  0  0
  190.3990  172.4000  138.6970 C   0  0  0  0  0  2  0  0  0  0  0  0
  189.6560  173.1920  137.6350 C   0  0  1  0  0  3  0  0  0  0  0  0
  189.6370  172.4700  136.4400 O   0  0  0  0  0  1  0  0  0  0  0  0
  188.2350  173.4430  138.1000 C   0  0  0  0  0  2  0  0  0  0  0  0
  187.8140  174.7040  137.6780 O   0  0  0  0  0  1  0  0  0  0  0  0
  1 10  1  0  0  0  0
  3  7  1  0  0  0  0
  4 13  1  6  0  0  0
  4 15  1  0  0  0  0
  5 18  1  0  0  0  0
  6 13  2  0  0  0  0
  7  8  1  0  0  0  0
  7 27  1  1  0  0  0
  8 25  1  6  0  0  0
  9  1  1  1  0  0  0
  9 21  1  0  0  0  0
 10 14  1  0  0  0  0
 11 24  1  0  0  0  0
 12  9  1  0  0  0  0
 12  4  1  0  0  0  0
 13 22  1  0  0  0  0
 14 16  1  0  0  0  0
 15 17  1  0  0  0  0
 15  8  1  0  0  0  0
 17  2  1  0  0  0  0
 18 23  1  0  0  0  0
 18 12  1  0  0  0  0
 19 23  1  0  0  0  0
 19 11  2  0  0  0  0
 21  2  1  0  0  0  0
 21 16  1  0  0  0  0
 22  3  1  0  0  0  0
 23  1  2  0  0  0  0
 24 10  2  0  0  0  0
 24 20  1  0  0  0  0
 27 28  1  0  0  0  0
 27 26  1  0  0  0  0
 28 30  1  0  0  0  0
 29 28  2  0  0  0  0
 30 31  1  0  0  0  0
 32 19  1  0  0  0  0
 33 32  1  0  0  0  0
 34 36  1  0  0  0  0
 34 33  1  0  0  0  0
 35 34  1  0  0  0  0
 37 36  1  0  0  0  0
M  END
>  <MODEL>
4

>  <REMARK>
 VINA RESULT:      -7.4      3.810      7.295
  Name = 
  7 active torsions:
  status: ('A' for Active; 'I' for Inactive)
    1  A    between atoms: O_4  and  C_15
    2  A    between atoms: C_5  and  C_8
    3  A    between atoms: C_8  and  C_23
    4  A    between atoms: C_10  and  C_37
    5  A    between atoms: C_15  and  C_37
    6  A    between atoms: C_23  and  C_27
    7  A    between atoms: C_27  and  C_28
                            x       y       z     vdW  Elec       q    Type
                         _______ _______ _______ _____ _____    ______ ____

>  <TORSDO>
F 7

$$$$
=
 OpenBabel11062421573D

 37 41  0  0  1  0  0  0  0  0999 V2000
  192.7470  174.2220  141.2040 C   0  0  0  0  0  0  0  0  0  0  0  0
  189.5840  172.7570  142.7850 C   0  0  0  0  0  2  0  0  0  0  0  0
  188.9730  177.4520  145.3860 C   0  0  0  0  0  2  0  0  0  0  0  0
  190.9410  175.5960  143.8290 C   0  0  2  0  0  3  0  0  0  0  0  0
  193.3890  176.8010  143.2610 O   0  0  0  0  0  1  0  0  0  0  0  0
  192.0410  176.2230  145.8430 O   0  0  0  0  0  0  0  0  0  0  0  0
  188.2690  177.0570  144.0830 C   0  0  1  0  0  3  0  0  0  0  0  0
  188.3480  175.5410  143.7900 C   0  0  2  0  0  3  0  0  0  0  0  0
  191.8960  173.6940  142.2870 C   0  0  1  0  0  3  0  0  0  0  0  0
  192.5990  173.9210  139.8490 C   0  0  0  0  0  0  0  0  0  0  0  0
  194.5610  175.2940  139.4120 C   0  0  0  0  0  3  0  0  0  0  0  0
  192.1480  174.6750  143.4660 C   0  0  1  0  0  3  0  0  0  0  0  0
  191.2400  176.5320  144.9730 C   0  0  0  0  0  0  0  0  0  0  0  0
  191.3490  173.2230  139.3760 C   0  0  0  0  0  2  0  0  0  0  0  0
  189.6520  174.8640  144.2470 C   0  0  1  0  0  3  0  0  0  0  0  0
  190.5380  172.5840  140.5160 C   0  0  0  0  0  2  0  0  0  0  0  0
  189.6590  173.3340  144.1960 C   0  0  0  0  0  2  0  0  0  0  0  0
  193.4770  175.4170  143.0950 C   0  0  1  0  0  3  0  0  0  0  0  0
  194.6370  175.6450  140.7720 C   0  0  0  0  0  0  0  0  0  0  0  0
  193.4380  174.1780  137.5500 N   0  0  0  0  0  1  0  0  0  0  0  0
  190.4690  173.4710  141.7680 C   0  0  1  0  0  3  0  0  0  0  0  0
  190.4380  177.7830  145.1250 C   0  0  0  0  0  2  0  0  0  0  0  0
  193.6890  175.1030  141.6550 C   0  0  0  0  0  0  0  0  0  0  0  0
  193.5340  174.4540  138.9440 C   0  0  0  0  0  0  0  0  0  0  0  0
  188.1480  175.3270  142.4250 O   0  0  0  0  0  1  0  0  0  0  0  0
  185.9240  176.4570  144.0670 O   0  0  0  0  0  1  0  0  0  0  0  0
  186.8090  177.5370  144.1150 C   0  0  2  0  0  3  0  0  0  0  0  0
  186.5090  178.4680  142.9750 C   0  0  0  0  0  0  0  0  0  0  0  0
  185.6990  179.4170  143.1440 O   0  0  0  0  0  0  0  0  0  0  0  0
  187.1030  178.2970  141.7220 O   0  0  0  0  0  0  0  0  0  0  0  0
  186.3690  177.8660  140.5860 C   0  0  0  0  0  1  0  0  0  0  0  0
  195.7220  176.5590  141.2570 C   0  0  0  0  0  2  0  0  0  0  0  0
  197.0130  175.7990  141.5380 C   0  0  0  0  0  2  0  0  0  0  0  0
  197.4940  176.0360  142.9600 C   0  0  1  0  0  3  0  0  0  0  0  0
  196.8120  177.1220  143.5100 O   0  0  0  0  0  1  0  0  0  0  0  0
  197.2280  174.7960  143.7900 C   0  0  0  0  0  2  0  0  0  0  0  0
  196.3140  175.0890  144.8020 O   0  0  0  0  0  1  0  0  0  0  0  0
  1 23  1  0  0  0  0
  2 17  1  0  0  0  0
  4 15  1  0  0  0  0
  4 13  1  1  0  0  0
  7 27  1  1  0  0  0
  7  3  1  0  0  0  0
  8 25  1  6  0  0  0
  8  7  1  0  0  0  0
  8 15  1  0  0  0  0
  9  1  1  6  0  0  0
  9 12  1  0  0  0  0
 10  1  2  0  0  0  0
 11 19  1  0  0  0  0
 12  4  1  0  0  0  0
 13 22  1  0  0  0  0
 13  6  2  0  0  0  0
 14 10  1  0  0  0  0
 14 16  1  0  0  0  0
 16 21  1  0  0  0  0
 17 15  1  0  0  0  0
 18  5  1  0  0  0  0
 18 12  1  0  0  0  0
 19 32  1  0  0  0  0
 19 23  2  0  0  0  0
 20 24  1  0  0  0  0
 21  9  1  0  0  0  0
 21  2  1  0  0  0  0
 22  3  1  0  0  0  0
 23 18  1  0  0  0  0
 24 11  2  0  0  0  0
 24 10  1  0  0  0  0
 26 27  1  0  0  0  0
 28 29  2  0  0  0  0
 28 27  1  0  0  0  0
 30 28  1  0  0  0  0
 31 30  1  0  0  0  0
 32 33  1  0  0  0  0
 33 34  1  0  0  0  0
 34 35  1  0  0  0  0
 34 36  1  0  0  0  0
 36 37  1  0  0  0  0
M  END
>  <MODEL>
5

>  <REMARK>
 VINA RESULT:      -7.4      3.239      8.715
  Name = 
  7 active torsions:
  status: ('A' for Active; 'I' for Inactive)
    1  A    between atoms: O_4  and  C_15
    2  A    between atoms: C_5  and  C_8
    3  A    between atoms: C_8  and  C_23
    4  A    between atoms: C_10  and  C_37
    5  A    between atoms: C_15  and  C_37
    6  A    between atoms: C_23  and  C_27
    7  A    between atoms: C_27  and  C_28
                            x       y       z     vdW  Elec       q    Type
                         _______ _______ _______ _____ _____    ______ ____

>  <TORSDO>
F 7

$$$$
=
 OpenBabel11062421573D

 37 41  0  0  1  0  0  0  0  0999 V2000
  190.9290  175.4700  142.5330 C   0  0  0  0  0  0  0  0  0  0  0  0
  194.1810  174.2270  140.9440 C   0  0  0  0  0  2  0  0  0  0  0  0
  196.3360  174.2000  145.8980 C   0  0  0  0  0  2  0  0  0  0  0  0
  194.0230  175.2600  144.0900 C   0  0  2  0  0  3  0  0  0  0  0  0
  192.0230  176.5850  145.5080 O   0  0  0  0  0  1  0  0  0  0  0  0
  194.9250  177.1460  145.2240 O   0  0  0  0  0  0  0  0  0  0  0  0
  195.7470  172.9820  145.1760 C   0  0  1  0  0  3  0  0  0  0  0  0
  195.5570  173.2140  143.6580 C   0  0  2  0  0  3  0  0  0  0  0  0
  192.3350  175.5450  142.0950 C   0  0  1  0  0  3  0  0  0  0  0  0
  189.9580  174.6380  141.9720 C   0  0  0  0  0  0  0  0  0  0  0  0
  188.3440  175.6200  143.5090 C   0  0  0  0  0  3  0  0  0  0  0  0
  193.0620  176.2040  143.3000 C   0  0  1  0  0  3  0  0  0  0  0  0
  194.6960  175.9460  145.2510 C   0  0  0  0  0  0  0  0  0  0  0  0
  190.3760  173.5390  141.0290 C   0  0  0  0  0  2  0  0  0  0  0  0
  195.1760  174.6540  143.2690 C   0  0  1  0  0  3  0  0  0  0  0  0
  191.8110  173.7040  140.4990 C   0  0  0  0  0  2  0  0  0  0  0  0
  195.2240  174.9710  141.7730 C   0  0  0  0  0  2  0  0  0  0  0  0
  191.9210  176.8680  144.1440 C   0  0  1  0  0  3  0  0  0  0  0  0
  189.3600  176.3860  144.1100 C   0  0  0  0  0  0  0  0  0  0  0  0
  187.6070  173.9110  141.9240 N   0  0  0  0  0  1  0  0  0  0  0  0
  192.7950  174.1740  141.5800 C   0  0  1  0  0  3  0  0  0  0  0  0
  195.2250  175.1250  146.3820 C   0  0  0  0  0  2  0  0  0  0  0  0
  190.6670  176.2730  143.6070 C   0  0  0  0  0  0  0  0  0  0  0  0
  188.6410  174.7310  142.4600 C   0  0  0  0  0  0  0  0  0  0  0  0
  194.6040  172.3170  143.1730 O   0  0  0  0  0  1  0  0  0  0  0  0
  197.3460  171.3920  144.2980 O   0  0  0  0  0  1  0  0  0  0  0  0
  196.6230  171.7480  145.4390 C   0  0  2  0  0  3  0  0  0  0  0  0
  195.8000  170.5720  145.8840 C   0  0  0  0  0  0  0  0  0  0  0  0
  194.5580  170.7060  146.0410 O   0  0  0  0  0  0  0  0  0  0  0  0
  196.3860  169.3300  146.1380 O   0  0  0  0  0  0  0  0  0  0  0  0
  196.7770  168.9270  147.4420 C   0  0  0  0  0  1  0  0  0  0  0  0
  189.0370  177.3140  145.2410 C   0  0  0  0  0  2  0  0  0  0  0  0
  187.9300  176.7550  146.1280 C   0  0  0  0  0  2  0  0  0  0  0  0
  186.7630  177.7220  146.2300 C   0  0  1  0  0  3  0  0  0  0  0  0
  186.6030  178.3920  145.0160 O   0  0  0  0  0  1  0  0  0  0  0  0
  185.5000  176.9490  146.5550 C   0  0  0  0  0  2  0  0  0  0  0  0
  184.3830  177.7580  146.3460 O   0  0  0  0  0  1  0  0  0  0  0  0
  1 23  1  0  0  0  0
  2 21  1  0  0  0  0
  2 17  1  0  0  0  0
  3 22  1  0  0  0  0
  4 13  1  1  0  0  0
  6 13  2  0  0  0  0
  7 27  1  6  0  0  0
  7  3  1  0  0  0  0
  8 25  1  1  0  0  0
  8  7  1  0  0  0  0
  9  1  1  1  0  0  0
  9 12  1  0  0  0  0
 10 24  1  0  0  0  0
 10  1  2  0  0  0  0
 11 19  1  0  0  0  0
 12  4  1  0  0  0  0
 12 18  1  0  0  0  0
 13 22  1  0  0  0  0
 14 10  1  0  0  0  0
 15  8  1  0  0  0  0
 15  4  1  0  0  0  0
 16 14  1  0  0  0  0
 16 21  1  0  0  0  0
 17 15  1  0  0  0  0
 18  5  1  0  0  0  0
 19 32  1  0  0  0  0
 20 24  1  0  0  0  0
 21  9  1  0  0  0  0
 23 19  2  0  0  0  0
 23 18  1  0  0  0  0
 24 11  2  0  0  0  0
 26 27  1  0  0  0  0
 27 28  1  0  0  0  0
 28 29  2  0  0  0  0
 28 30  1  0  0  0  0
 30 31  1  0  0  0  0
 32 33  1  0  0  0  0
 33 34  1  0  0  0  0
 34 36  1  0  0  0  0
 35 34  1  0  0  0  0
 37 36  1  0  0  0  0
M  END
>  <MODEL>
6

>  <REMARK>
 VINA RESULT:      -7.3      3.046      5.594
  Name = 
  7 active torsions:
  status: ('A' for Active; 'I' for Inactive)
    1  A    between atoms: O_4  and  C_15
    2  A    between atoms: C_5  and  C_8
    3  A    between atoms: C_8  and  C_23
    4  A    between atoms: C_10  and  C_37
    5  A    between atoms: C_15  and  C_37
    6  A    between atoms: C_23  and  C_27
    7  A    between atoms: C_27  and  C_28
                            x       y       z     vdW  Elec       q    Type
                         _______ _______ _______ _____ _____    ______ ____

>  <TORSDO>
F 7

$$$$
=
 OpenBabel11062421573D

 37 41  0  0  1  0  0  0  0  0999 V2000
  192.7380  174.2500  140.8580 C   0  0  0  0  0  0  0  0  0  0  0  0
  189.3750  172.8980  142.0880 C   0  0  0  0  0  2  0  0  0  0  0  0
  188.6680  177.6020  144.6480 C   0  0  0  0  0  2  0  0  0  0  0  0
  190.7180  175.6800  143.2900 C   0  0  2  0  0  3  0  0  0  0  0  0
  193.2550  176.7950  142.9900 O   0  0  0  0  0  1  0  0  0  0  0  0
  191.6230  176.2580  145.4130 O   0  0  0  0  0  0  0  0  0  0  0  0
  188.0900  177.2390  143.2750 C   0  0  1  0  0  3  0  0  0  0  0  0
  188.1440  175.7220  142.9800 C   0  0  2  0  0  3  0  0  0  0  0  0
  191.7600  173.7500  141.8420 C   0  0  1  0  0  3  0  0  0  0  0  0
  192.7210  173.9590  139.4920 C   0  0  0  0  0  0  0  0  0  0  0  0
  194.7680  175.2600  139.2730 C   0  0  0  0  0  3  0  0  0  0  0  0
  191.9220  174.7160  143.0480 C   0  0  1  0  0  3  0  0  0  0  0  0
  190.9300  176.5990  144.4660 C   0  0  0  0  0  0  0  0  0  0  0  0
  191.5030  173.3110  138.8860 C   0  0  0  0  0  2  0  0  0  0  0  0
  189.3670  174.9950  143.5660 C   0  0  1  0  0  3  0  0  0  0  0  0
  190.5540  172.6990  139.9300 C   0  0  0  0  0  2  0  0  0  0  0  0
  189.3230  173.4670  143.5030 C   0  0  0  0  0  2  0  0  0  0  0  0
  193.3090  175.4090  142.8240 C   0  0  1  0  0  3  0  0  0  0  0  0
  194.7140  175.6030  140.6370 C   0  0  0  0  0  0  0  0  0  0  0  0
  193.8050  174.1940  137.2960 N   0  0  0  0  0  1  0  0  0  0  0  0
  190.3870  173.5820  141.1740 C   0  0  1  0  0  3  0  0  0  0  0  0
  190.1630  177.8800  144.5430 C   0  0  0  0  0  2  0  0  0  0  0  0
  193.6590  175.0940  141.4120 C   0  0  0  0  0  0  0  0  0  0  0  0
  193.7660  174.4610  138.6940 C   0  0  0  0  0  0  0  0  0  0  0  0
  188.0800  175.5210  141.5990 O   0  0  0  0  0  1  0  0  0  0  0  0
  186.6140  178.9520  142.4120 O   0  0  0  0  0  1  0  0  0  0  0  0
  186.6540  177.7720  143.1580 C   0  0  2  0  0  3  0  0  0  0  0  0
  186.0480  178.0280  144.5100 C   0  0  0  0  0  0  0  0  0  0  0  0
  185.9410  179.2100  144.9300 O   0  0  0  0  0  0  0  0  0  0  0  0
  185.6080  176.9770  145.3180 O   0  0  0  0  0  0  0  0  0  0  0  0
  184.8560  177.1940  146.5020 C   0  0  0  0  0  1  0  0  0  0  0  0
  195.7750  176.4730  141.2390 C   0  0  0  0  0  2  0  0  0  0  0  0
  197.0100  175.6680  141.6270 C   0  0  0  0  0  2  0  0  0  0  0  0
  197.4790  176.0180  143.0290 C   0  0  1  0  0  3  0  0  0  0  0  0
  196.8060  177.1560  143.4780 O   0  0  0  0  0  1  0  0  0  0  0  0
  197.1880  174.8560  143.9580 C   0  0  0  0  0  2  0  0  0  0  0  0
  196.1330  175.1820  144.8090 O   0  0  0  0  0  1  0  0  0  0  0  0
  1 23  1  0  0  0  0
  2 17  1  0  0  0  0
  4 15  1  0  0  0  0
  4 13  1  1  0  0  0
  7 27  1  1  0  0  0
  7  3  1  0  0  0  0
  8 25  1  6  0  0  0
  8  7  1  0  0  0  0
  8 15  1  0  0  0  0
  9  1  1  6  0  0  0
  9 12  1  0  0  0  0
 10  1  2  0  0  0  0
 11 19  1  0  0  0  0
 12  4  1  0  0  0  0
 13 22  1  0  0  0  0
 13  6  2  0  0  0  0
 14 10  1  0  0  0  0
 14 16  1  0  0  0  0
 16 21  1  0  0  0  0
 17 15  1  0  0  0  0
 18  5  1  0  0  0  0
 18 12  1  0  0  0  0
 19 32  1  0  0  0  0
 19 23  2  0  0  0  0
 20 24  1  0  0  0  0
 21  9  1  0  0  0  0
 21  2  1  0  0  0  0
 22  3  1  0  0  0  0
 23 18  1  0  0  0  0
 24 11  2  0  0  0  0
 24 10  1  0  0  0  0
 26 27  1  0  0  0  0
 27 28  1  0  0  0  0
 28 29  2  0  0  0  0
 28 30  1  0  0  0  0
 30 31  1  0  0  0  0
 32 33  1  0  0  0  0
 33 34  1  0  0  0  0
 34 35  1  0  0  0  0
 34 36  1  0  0  0  0
 36 37  1  0  0  0  0
M  END
>  <MODEL>
7

>  <REMARK>
 VINA RESULT:      -7.3      3.415      8.845
  Name = 
  7 active torsions:
  status: ('A' for Active; 'I' for Inactive)
    1  A    between atoms: O_4  and  C_15
    2  A    between atoms: C_5  and  C_8
    3  A    between atoms: C_8  and  C_23
    4  A    between atoms: C_10  and  C_37
    5  A    between atoms: C_15  and  C_37
    6  A    between atoms: C_23  and  C_27
    7  A    between atoms: C_27  and  C_28
                            x       y       z     vdW  Elec       q    Type
                         _______ _______ _______ _____ _____    ______ ____

>  <TORSDO>
F 7

$$$$
=
 OpenBabel11062421573D

 37 41  0  0  1  0  0  0  0  0999 V2000
  190.0990  175.3060  145.5730 C   0  0  0  0  0  0  0  0  0  0  0  0
  193.2640  173.1530  145.6070 C   0  0  0  0  0  2  0  0  0  0  0  0
  193.4170  173.6790  140.2330 C   0  0  0  0  0  2  0  0  0  0  0  0
  191.6650  173.9170  142.8060 C   0  0  2  0  0  3  0  0  0  0  0  0
  189.1760  175.0840  142.3500 O   0  0  0  0  0  1  0  0  0  0  0  0
  190.4190  172.6240  141.2460 O   0  0  0  0  0  0  0  0  0  0  0  0
  194.2160  174.5220  141.2340 C   0  0  1  0  0  3  0  0  0  0  0  0
  194.2540  173.9020  142.6510 C   0  0  2  0  0  3  0  0  0  0  0  0
  190.9240  174.1100  145.3200 C   0  0  1  0  0  3  0  0  0  0  0  0
  190.3400  176.2480  146.5750 C   0  0  0  0  0  0  0  0  0  0  0  0
  188.3160  177.4010  145.8650 C   0  0  0  0  0  3  0  0  0  0  0  0
  190.5440  173.6990  143.8700 C   0  0  1  0  0  3  0  0  0  0  0  0
  191.2430  173.5100  141.4170 C   0  0  0  0  0  0  0  0  0  0  0  0
  191.6580  176.2330  147.3070 C   0  0  0  0  0  2  0  0  0  0  0  0
  192.9760  173.1480  143.0590 C   0  0  1  0  0  3  0  0  0  0  0  0
  192.4480  174.9280  147.1160 C   0  0  0  0  0  2  0  0  0  0  0  0
  193.0740  172.3210  144.3420 C   0  0  0  0  0  2  0  0  0  0  0  0
  189.1900  174.4350  143.5860 C   0  0  1  0  0  3  0  0  0  0  0  0
  188.1440  176.4820  144.8130 C   0  0  0  0  0  0  0  0  0  0  0  0
  189.6110  178.2910  147.7370 N   0  0  0  0  0  1  0  0  0  0  0  0
  192.3890  174.4010  145.6740 C   0  0  1  0  0  3  0  0  0  0  0  0
  191.9490  174.0910  140.2360 C   0  0  0  0  0  2  0  0  0  0  0  0
  189.0780  175.4420  144.6760 C   0  0  0  0  0  0  0  0  0  0  0  0
  189.4210  177.3020  146.7300 C   0  0  0  0  0  0  0  0  0  0  0  0
  194.5410  174.9020  143.5810 O   0  0  0  0  0  1  0  0  0  0  0  0
  196.4820  173.6990  141.0310 O   0  0  0  0  0  1  0  0  0  0  0  0
  195.6360  174.7590  140.6980 C   0  0  2  0  0  3  0  0  0  0  0  0
  196.2200  176.0380  141.2290 C   0  0  0  0  0  0  0  0  0  0  0  0
  195.6180  177.1260  141.0310 O   0  0  0  0  0  0  0  0  0  0  0  0
  197.4270  176.0480  141.9320 O   0  0  0  0  0  0  0  0  0  0  0  0
  197.5960  176.7770  143.1380 C   0  0  0  0  0  1  0  0  0  0  0  0
  186.9760  176.6100  143.8830 C   0  0  0  0  0  2  0  0  0  0  0  0
  186.7330  178.0600  143.4790 C   0  0  0  0  0  2  0  0  0  0  0  0
  187.0580  178.2850  142.0130 C   0  0  1  0  0  3  0  0  0  0  0  0
  188.4420  178.3080  141.8370 O   0  0  0  0  0  1  0  0  0  0  0  0
  186.4590  177.1620  141.1890 C   0  0  0  0  0  2  0  0  0  0  0  0
  185.5440  177.6820  140.2740 O   0  0  0  0  0  1  0  0  0  0  0  0
  1 10  1  0  0  0  0
  2 21  1  0  0  0  0
  3 22  1  0  0  0  0
  3  7  1  0  0  0  0
  4 13  1  6  0  0  0
  4 15  1  0  0  0  0
  4 12  1  0  0  0  0
  5 18  1  0  0  0  0
  6 13  2  0  0  0  0
  7 27  1  6  0  0  0
  7  8  1  0  0  0  0
  8 15  1  0  0  0  0
  8 25  1  1  0  0  0
  9  1  1  6  0  0  0
  9 21  1  0  0  0  0
 10 24  2  0  0  0  0
 10 14  1  0  0  0  0
 11 24  1  0  0  0  0
 12  9  1  0  0  0  0
 15 17  1  0  0  0  0
 16 14  1  0  0  0  0
 17  2  1  0  0  0  0
 18 12  1  0  0  0  0
 18 23  1  0  0  0  0
 19 11  2  0  0  0  0
 21 16  1  0  0  0  0
 22 13  1  0  0  0  0
 23 19  1  0  0  0  0
 23  1  2  0  0  0  0
 24 20  1  0  0  0  0
 27 26  1  0  0  0  0
 27 28  1  0  0  0  0
 28 30  1  0  0  0  0
 29 28  2  0  0  0  0
 30 31  1  0  0  0  0
 32 19  1  0  0  0  0
 33 32  1  0  0  0  0
 34 33  1  0  0  0  0
 35 34  1  0  0  0  0
 36 34  1  0  0  0  0
 37 36  1  0  0  0  0
M  END
>  <MODEL>
8

>  <REMARK>
 VINA RESULT:      -7.0      2.287      3.702
  Name = 
  7 active torsions:
  status: ('A' for Active; 'I' for Inactive)
    1  A    between atoms: O_4  and  C_15
    2  A    between atoms: C_5  and  C_8
    3  A    between atoms: C_8  and  C_23
    4  A    between atoms: C_10  and  C_37
    5  A    between atoms: C_15  and  C_37
    6  A    between atoms: C_23  and  C_27
    7  A    between atoms: C_27  and  C_28
                            x       y       z     vdW  Elec       q    Type
                         _______ _______ _______ _____ _____    ______ ____

>  <TORSDO>
F 7

$$$$
=
 OpenBabel11062421573D

 37 41  0  0  1  0  0  0  0  0999 V2000
  191.1920  174.9530  142.1170 C   0  0  0  0  0  0  0  0  0  0  0  0
  194.4600  173.4320  140.8300 C   0  0  0  0  0  2  0  0  0  0  0  0
  196.4380  174.0040  145.8240 C   0  0  0  0  0  2  0  0  0  0  0  0
  194.2220  174.8740  143.8050 C   0  0  2  0  0  3  0  0  0  0  0  0
  192.2130  176.4220  144.9600 O   0  0  0  0  0  1  0  0  0  0  0  0
  195.1390  176.8700  144.7170 O   0  0  0  0  0  0  0  0  0  0  0  0
  195.8390  172.7170  145.2450 C   0  0  1  0  0  3  0  0  0  0  0  0
  195.7100  172.7520  143.7040 C   0  0  2  0  0  3  0  0  0  0  0  0
  192.6140  174.9350  141.7270 C   0  0  1  0  0  3  0  0  0  0  0  0
  190.2170  174.0780  141.6320 C   0  0  0  0  0  0  0  0  0  0  0  0
  188.5800  175.2930  142.9640 C   0  0  0  0  0  3  0  0  0  0  0  0
  193.3180  175.7290  142.8630 C   0  0  1  0  0  3  0  0  0  0  0  0
  194.8740  175.6900  144.8920 C   0  0  0  0  0  0  0  0  0  0  0  0
  190.6360  172.8550  140.8570 C   0  0  0  0  0  2  0  0  0  0  0  0
  195.3850  174.1360  143.1160 C   0  0  1  0  0  3  0  0  0  0  0  0
  192.0930  172.9130  140.3660 C   0  0  0  0  0  2  0  0  0  0  0  0
  195.4950  174.2530  141.5940 C   0  0  0  0  0  2  0  0  0  0  0  0
  192.1680  176.5250  143.5680 C   0  0  1  0  0  3  0  0  0  0  0  0
  189.5970  176.1060  143.4980 C   0  0  0  0  0  0  0  0  0  0  0  0
  187.8500  173.4090  141.5880 N   0  0  0  0  0  1  0  0  0  0  0  0
  193.0520  173.4970  141.4130 C   0  0  1  0  0  3  0  0  0  0  0  0
  195.3390  175.0120  146.1400 C   0  0  0  0  0  2  0  0  0  0  0  0
  190.9160  175.8960  143.0660 C   0  0  0  0  0  0  0  0  0  0  0  0
  188.8880  174.2660  142.0520 C   0  0  0  0  0  0  0  0  0  0  0  0
  194.7480  171.8220  143.3040 O   0  0  0  0  0  1  0  0  0  0  0  0
  197.7290  171.2650  144.8240 O   0  0  0  0  0  1  0  0  0  0  0  0
  196.6690  171.5070  145.7010 C   0  0  2  0  0  3  0  0  0  0  0  0
  195.8260  170.2670  145.8040 C   0  0  0  0  0  0  0  0  0  0  0  0
  194.6690  170.3410  146.2960 O   0  0  0  0  0  0  0  0  0  0  0  0
  196.3030  169.0270  145.3720 O   0  0  0  0  0  0  0  0  0  0  0  0
  195.8630  168.4230  144.1650 C   0  0  0  0  0  1  0  0  0  0  0  0
  189.2610  177.1820  144.4860 C   0  0  0  0  0  2  0  0  0  0  0  0
  187.9090  176.9380  145.1460 C   0  0  0  0  0  2  0  0  0  0  0  0
  188.0580  176.7050  146.6390 C   0  0  1  0  0  3  0  0  0  0  0  0
  186.8160  176.8410  147.2620 O   0  0  0  0  0  1  0  0  0  0  0  0
  188.5960  175.3080  146.8760 C   0  0  0  0  0  2  0  0  0  0  0  0
  189.8700  175.3790  147.4380 O   0  0  0  0  0  1  0  0  0  0  0  0
  1 23  1  0  0  0  0
  2 21  1  0  0  0  0
  2 17  1  0  0  0  0
  3 22  1  0  0  0  0
  4 13  1  1  0  0  0
  6 13  2  0  0  0  0
  7 27  1  6  0  0  0
  7  3  1  0  0  0  0
  8 25  1  1  0  0  0
  8  7  1  0  0  0  0
  9  1  1  1  0  0  0
  9 12  1  0  0  0  0
 10 24  1  0  0  0  0
 10  1  2  0  0  0  0
 11 19  1  0  0  0  0
 12 18  1  0  0  0  0
 12  4  1  0  0  0  0
 13 22  1  0  0  0  0
 14 10  1  0  0  0  0
 15  8  1  0  0  0  0
 15  4  1  0  0  0  0
 16 14  1  0  0  0  0
 16 21  1  0  0  0  0
 17 15  1  0  0  0  0
 18  5  1  0  0  0  0
 19 32  1  0  0  0  0
 20 24  1  0  0  0  0
 21  9  1  0  0  0  0
 23 19  2  0  0  0  0
 23 18  1  0  0  0  0
 24 11  2  0  0  0  0
 26 27  1  0  0  0  0
 27 28  1  0  0  0  0
 28 29  2  0  0  0  0
 30 28  1  0  0  0  0
 31 30  1  0  0  0  0
 32 33  1  0  0  0  0
 33 34  1  0  0  0  0
 34 36  1  0  0  0  0
 34 35  1  0  0  0  0
 36 37  1  0  0  0  0
M  END
>  <MODEL>
9

>  <REMARK>
 VINA RESULT:      -7.0      3.364      6.185
  Name = 
  7 active torsions:
  status: ('A' for Active; 'I' for Inactive)
    1  A    between atoms: O_4  and  C_15
    2  A    between atoms: C_5  and  C_8
    3  A    between atoms: C_8  and  C_23
    4  A    between atoms: C_10  and  C_37
    5  A    between atoms: C_15  and  C_37
    6  A    between atoms: C_23  and  C_27
    7  A    between atoms: C_27  and  C_28
                            x       y       z     vdW  Elec       q    Type
                         _______ _______ _______ _____ _____    ______ ____

>  <TORSDO>
F 7

$$$$
