=
 OpenBabel11062419033D

 68 74  0  0  1  0  0  0  0  0999 V2000
  188.7610  172.8790  139.6080 C   0  0  0  0  0  2  0  0  0  0  0  0
  190.3990  172.1500  143.1560 C   0  0  1  0  0  3  0  0  0  0  0  0
  190.8590  174.0600  138.7440 N   0  0  2  0  0  0  0  0  0  0  0  0
  192.8070  172.1620  142.3460 N   0  0  0  0  0  2  0  0  0  0  0  0
  187.8860  176.1670  141.2920 C   0  0  0  0  0  0  0  0  0  0  0  0
  189.6480  173.2800  138.4060 C   0  0  2  0  0  3  0  0  0  0  0  0
  188.6870  173.6110  142.0420 C   0  0  0  0  0  0  0  0  0  0  0  0
  188.1230  175.2240  140.2940 C   0  0  0  0  0  3  0  0  0  0  0  0
  187.2780  178.0910  142.5010 N   0  0  0  0  0  0  0  0  0  0  0  0
  188.0410  175.8660  142.6070 C   0  0  0  0  0  0  0  0  0  0  0  0
  187.6460  177.0200  143.4440 C   0  0  1  0  0  3  0  0  0  0  0  0
  191.4770  171.6510  142.2320 C   0  0  0  0  0  0  0  0  0  0  0  0
  187.3880  177.5450  141.1360 C   0  0  0  0  0  2  0  0  0  0  0  0
  189.0150  172.2210  142.4940 C   0  0  0  0  0  2  0  0  0  0  0  0
  188.5550  173.9340  140.6640 C   0  0  0  0  0  0  0  0  0  0  0  0
  191.2080  170.8010  141.3380 O   0  0  0  0  0  0  0  0  0  0  0  0
  192.7860  171.8910  138.5940 C   0  0  2  0  0  3  0  0  0  0  0  0
  192.1300  172.4640  137.3300 C   0  0  0  0  0  2  0  0  0  0  0  0
  193.9220  173.0790  140.6710 C   0  0  2  0  0  3  0  0  0  0  0  0
  193.7360  171.8840  141.3940 O   0  0  0  0  0  0  0  0  0  0  0  0
  191.8980  173.9470  137.6970 C   0  0  2  0  0  3  0  0  0  0  0  0
  191.5390  173.5290  139.9320 C   0  0  0  0  0  2  0  0  0  0  0  0
  188.4190  174.5860  143.0170 C   0  0  0  0  0  3  0  0  0  0  0  0
  193.1640  174.2380  138.4570 C   0  0  0  0  0  2  0  0  0  0  0  0
  192.9370  173.1510  139.4700 C   0  0  2  0  0  0  0  0  0  0  0  0
  197.5940  173.4320  141.0260 C   0  0  0  0  0  2  0  0  0  0  0  0
  196.5980  171.2870  140.9960 O   0  0  0  0  0  1  0  0  0  0  0  0
  195.3920  173.1940  140.2350 C   0  0  1  0  0  3  0  0  0  0  0  0
  197.1300  174.6240  140.2180 C   0  0  2  0  0  3  0  0  0  0  0  0
  195.7430  174.5340  139.9950 O   0  0  0  0  0  0  0  0  0  0  0  0
  196.3490  172.6380  141.2610 C   0  0  2  0  0  3  0  0  0  0  0  0
  197.8580  174.6680  138.9150 C   0  0  0  0  0  3  0  0  0  0  0  0
  197.1920  174.8100  137.7670 C   0  0  0  0  0  3  0  0  0  0  0  0
  197.6610  176.0500  135.8020 O   0  0  0  0  0  1  0  0  0  0  0  0
  197.9240  174.8500  136.4680 C   0  0  0  0  0  2  0  0  0  0  0  0
  189.4710  174.4450  136.1520 N   0  0  0  0  0  1  0  0  0  0  0  0
  187.6000  174.0750  137.4730 O   0  0  0  0  0  0  0  0  0  0  0  0
  188.8450  173.9510  137.3320 C   0  0  0  0  0  0  0  0  0  0  0  0
  194.9950  171.7530  137.3180 N   0  0  0  0  0  2  0  0  0  0  0  0
  194.3700  170.1350  138.8860 O   0  0  0  0  0  0  0  0  0  0  0  0
  194.0840  171.1980  138.2750 C   0  0  0  0  0  0  0  0  0  0  0  0
  196.3340  171.2430  137.0460 C   0  0  2  0  0  3  0  0  0  0  0  0
  195.6350  171.9630  134.5440 O   0  0  0  0  0  0  0  0  0  0  0  0
  196.4920  170.9720  135.2840 S   0  0  0  0  0  0  0  0  0  0  0  0
  197.9370  171.1620  134.8950 O   0  0  0  0  0  0  0  0  0  0  0  0
  195.9760  169.3590  134.8990 N   0  0  0  0  0  2  0  0  0  0  0  0
  194.5750  169.4230  134.5160 C   0  0  0  0  0  2  0  0  0  0  0  0
  193.7320  168.7210  135.5660 C   0  0  0  0  0  1  0  0  0  0  0  0
  197.9320  169.7090  137.9600 O   0  0  0  0  0  1  0  0  0  0  0  0
  196.5660  169.9260  137.7820 C   0  0  0  0  0  2  0  0  0  0  0  0
  190.3910  171.4980  144.4090 O   0  0  0  0  0  0  0  0  0  0  0  0
  189.6100  172.2400  145.3090 C   0  0  0  0  0  1  0  0  0  0  0  0
  188.7680  177.4650  144.2620 N   0  0  0  0  0  2  0  0  0  0  0  0
  187.9980  175.7540  146.1200 O   0  0  0  0  0  0  0  0  0  0  0  0
  188.4080  177.1900  145.9370 S   0  0  0  0  0  0  0  0  0  0  0  0
  187.2920  178.0900  146.3980 O   0  0  0  0  0  0  0  0  0  0  0  0
  189.8260  177.5330  146.8730 N   0  0  0  0  0  2  0  0  0  0  0  0
  190.5060  176.2740  147.1390 C   0  0  0  0  0  2  0  0  0  0  0  0
  192.0160  176.4680  147.0870 C   0  0  0  0  0  2  0  0  0  0  0  0
  193.8760  176.7590  145.4330 C   0  0  0  0  0  2  0  0  0  0  0  0
  194.3720  176.3280  144.0790 C   0  0  0  0  0  3  0  0  0  0  0  0
  192.5340  176.2530  145.7430 N   0  0  0  0  0  0  0  0  0  0  0  0
  191.7080  175.6300  144.7470 C   0  0  0  0  0  3  0  0  0  0  0  0
  193.5830  175.7090  143.1990 C   0  0  0  0  0  3  0  0  0  0  0  0
  192.1900  175.3750  143.5320 C   0  0  0  0  0  3  0  0  0  0  0  0
  185.8760  178.4060  142.7280 C   0  0  0  0  0  2  0  0  0  0  0  0
  184.5800  179.3710  144.5460 N   0  0  0  0  0  1  0  0  0  0  0  0
  185.7600  179.5530  143.7120 C   0  0  0  0  0  2  0  0  0  0  0  0
  1 15  1  0  0  0  0
  2 51  1  1  0  0  0
  3 22  1  1  0  0  0
  5 10  1  0  0  0  0
  6 38  1  6  0  0  0
  6  3  1  0  0  0  0
  6  1  1  0  0  0  0
  7 14  1  0  0  0  0
  7 23  1  0  0  0  0
  8 15  1  0  0  0  0
  8  5  2  0  0  0  0
  9 66  1  0  0  0  0
  9 11  1  0  0  0  0
 10 23  2  0  0  0  0
 10 11  1  0  0  0  0
 11 53  1  6  0  0  0
 12  4  1  0  0  0  0
 12  2  1  0  0  0  0
 13  5  1  0  0  0  0
 13  9  1  0  0  0  0
 14  2  1  0  0  0  0
 15  7  2  0  0  0  0
 16 12  2  0  0  0  0
 17 41  1  6  0  0  0
 17 25  1  0  0  0  0
 18 17  1  0  0  0  0
 19 20  1  6  0  0  0
 20  4  1  0  0  0  0
 21 18  1  1  0  0  0
 21 24  1  0  0  0  0
 21  3  1  0  0  0  0
 25 24  1  6  0  0  0
 25 22  1  0  0  0  0
 25 19  1  0  0  0  0
 26 31  1  0  0  0  0
 28 30  1  1  0  0  0
 28 19  1  0  0  0  0
 28 31  1  0  0  0  0
 29 32  1  6  0  0  0
 29 26  1  0  0  0  0
 30 29  1  0  0  0  0
 31 27  1  6  0  0  0
 33 32  2  0  0  0  0
 34 35  1  0  0  0  0
 35 33  1  0  0  0  0
 36 38  1  0  0  0  0
 38 37  2  0  0  0  0
 39 41  1  0  0  0  0
 41 40  2  0  0  0  0
 42 39  1  0  0  0  0
 42 50  1  1  0  0  0
 43 44  2  0  0  0  0
 44 42  1  0  0  0  0
 45 44  2  0  0  0  0
 46 44  1  0  0  0  0
 47 46  1  0  0  0  0
 47 48  1  0  0  0  0
 50 49  1  0  0  0  0
 51 52  1  0  0  0  0
 53 55  1  0  0  0  0
 55 54  2  0  0  0  0
 55 56  2  0  0  0  0
 55 57  1  0  0  0  0
 57 58  1  0  0  0  0
 59 58  1  0  0  0  0
 60 62  1  0  0  0  0
 61 60  1  0  0  0  0
 62 59  1  0  0  0  0
 63 62  1  0  0  0  0
 64 65  1  0  0  0  0
 64 61  2  0  0  0  0
 65 63  2  0  0  0  0
 66 68  1  0  0  0  0
 68 67  1  0  0  0  0
M  END
>  <MODEL>
1

>  <REMARK>
 VINA RESULT:      -5.9      0.000      0.000
  Name = 
  19 active torsions:
  status: ('A' for Active; 'I' for Inactive)
    1  A    between atoms: N_1  and  C_51
    2  A    between atoms: C_2  and  C_21
    3  A    between atoms: C_3  and  C_37
    4  A    between atoms: C_9  and  O_40
    5  A    between atoms: C_16  and  C_44
    6  A    between atoms: C_20  and  C_57
    7  A    between atoms: C_22  and  N_54
    8  A    between atoms: N_23  and  C_24
    9  A    between atoms: N_23  and  S_50
   10  A    between atoms: C_24  and  C_31
   11  A    between atoms: C_26  and  C_45
   12  A    between atoms: N_27  and  C_45
   13  A    between atoms: C_30  and  N_33
   14  A    between atoms: C_31  and  N_34
   15  A    between atoms: C_32  and  C_51
   16  A    between atoms: N_33  and  S_50
   17  A    between atoms: C_51  and  S_65
   18  A    between atoms: C_52  and  C_63
   19  A    between atoms: N_54  and  S_65
                            x       y       z     vdW  Elec       q    Type
                         _______ _______ _______ _____ _____    ______ ____

>  <TORSDO>
F 19

$$$$
=
 OpenBabel11062419033D

 68 74  0  0  1  0  0  0  0  0999 V2000
  189.7280  171.8190  140.8560 C   0  0  0  0  0  2  0  0  0  0  0  0
  192.7270  171.5080  143.4480 C   0  0  1  0  0  3  0  0  0  0  0  0
  190.9960  173.4990  139.4030 N   0  0  2  0  0  0  0  0  0  0  0  0
  194.5640  172.1360  141.8090 N   0  0  0  0  0  2  0  0  0  0  0  0
  188.8310  174.7660  143.0740 C   0  0  0  0  0  0  0  0  0  0  0  0
  189.9650  172.4390  139.4600 C   0  0  2  0  0  3  0  0  0  0  0  0
  190.4300  172.4930  143.2060 C   0  0  0  0  0  0  0  0  0  0  0  0
  188.8780  173.9200  141.9680 C   0  0  0  0  0  3  0  0  0  0  0  0
  188.3070  176.4660  144.6140 N   0  0  0  0  0  0  0  0  0  0  0  0
  189.5460  174.5060  144.2000 C   0  0  0  0  0  0  0  0  0  0  0  0
  189.2480  175.5180  145.2380 C   0  0  1  0  0  3  0  0  0  0  0  0
  193.4500  171.3040  142.1440 C   0  0  0  0  0  0  0  0  0  0  0  0
  188.0070  175.9730  143.2570 C   0  0  0  0  0  2  0  0  0  0  0  0
  191.2190  171.2290  143.3590 C   0  0  0  0  0  2  0  0  0  0  0  0
  189.7060  172.7810  142.0170 C   0  0  0  0  0  0  0  0  0  0  0  0
  193.0630  170.4190  141.3320 O   0  0  0  0  0  0  0  0  0  0  0  0
  193.1630  171.8920  138.3260 C   0  0  2  0  0  3  0  0  0  0  0  0
  191.9570  172.2870  137.4620 C   0  0  0  0  0  2  0  0  0  0  0  0
  194.7020  173.3160  139.9440 C   0  0  2  0  0  3  0  0  0  0  0  0
  195.0910  172.1090  140.5580 O   0  0  0  0  0  0  0  0  0  0  0  0
  191.5470  173.6600  138.0390 C   0  0  2  0  0  3  0  0  0  0  0  0
  192.1840  173.1500  140.1930 C   0  0  0  0  0  2  0  0  0  0  0  0
  190.3390  173.3630  144.3060 C   0  0  0  0  0  3  0  0  0  0  0  0
  192.9030  174.2580  138.3010 C   0  0  0  0  0  2  0  0  0  0  0  0
  193.3430  173.1430  139.2090 C   0  0  2  0  0  0  0  0  0  0  0  0
  197.6370  175.2850  138.8330 C   0  0  0  0  0  2  0  0  0  0  0  0
  197.9360  173.2080  139.9230 O   0  0  0  0  0  1  0  0  0  0  0  0
  195.8200  173.8030  139.0090 C   0  0  1  0  0  3  0  0  0  0  0  0
  196.5170  175.6160  137.8710 C   0  0  2  0  0  3  0  0  0  0  0  0
  195.3740  174.8630  138.1990 O   0  0  0  0  0  0  0  0  0  0  0  0
  197.0440  174.2720  139.7580 C   0  0  2  0  0  3  0  0  0  0  0  0
  196.9450  175.3190  136.4720 C   0  0  0  0  0  3  0  0  0  0  0  0
  197.1410  174.0620  136.0720 C   0  0  0  0  0  3  0  0  0  0  0  0
  197.7990  172.4010  134.5140 O   0  0  0  0  0  1  0  0  0  0  0  0
  197.5720  173.7710  134.6740 C   0  0  0  0  0  2  0  0  0  0  0  0
  188.6100  174.1070  138.1000 N   0  0  0  0  0  1  0  0  0  0  0  0
  187.6450  172.1810  138.9600 O   0  0  0  0  0  0  0  0  0  0  0  0
  188.6790  172.8900  138.8350 C   0  0  0  0  0  0  0  0  0  0  0  0
  195.2060  170.4450  137.8160 N   0  0  0  0  0  2  0  0  0  0  0  0
  194.5920  172.2410  136.4510 O   0  0  0  0  0  0  0  0  0  0  0  0
  194.3600  171.5520  137.4790 C   0  0  0  0  0  0  0  0  0  0  0  0
  196.2980  169.9440  136.9890 C   0  0  2  0  0  3  0  0  0  0  0  0
  195.2190  170.1300  134.5260 O   0  0  0  0  0  0  0  0  0  0  0  0
  195.5980  169.1130  135.5680 S   0  0  0  0  0  0  0  0  0  0  0  0
  196.6330  168.1710  135.0030 O   0  0  0  0  0  0  0  0  0  0  0  0
  194.1850  168.2280  136.0530 N   0  0  0  0  0  2  0  0  0  0  0  0
  193.0420  168.8110  135.3680 C   0  0  0  0  0  2  0  0  0  0  0  0
  191.8650  168.8890  136.3250 C   0  0  0  0  0  1  0  0  0  0  0  0
  196.7270  168.8950  139.1000 O   0  0  0  0  0  1  0  0  0  0  0  0
  197.1580  168.9590  137.7760 C   0  0  0  0  0  2  0  0  0  0  0  0
  193.3530  170.8670  144.5410 O   0  0  0  0  0  0  0  0  0  0  0  0
  193.2540  169.4770  144.3770 C   0  0  0  0  0  1  0  0  0  0  0  0
  190.4610  176.2280  145.6220 N   0  0  0  0  0  2  0  0  0  0  0  0
  189.9110  174.8030  147.7760 O   0  0  0  0  0  0  0  0  0  0  0  0
  190.9770  175.6860  147.1880 S   0  0  0  0  0  0  0  0  0  0  0  0
  191.2200  176.8550  148.1050 O   0  0  0  0  0  0  0  0  0  0  0  0
  192.4570  174.8000  147.0080 N   0  0  0  0  0  2  0  0  0  0  0  0
  193.3850  175.6220  146.2480 C   0  0  0  0  0  2  0  0  0  0  0  0
  194.2960  174.7440  145.3990 C   0  0  0  0  0  2  0  0  0  0  0  0
  193.4710  175.3720  143.1170 C   0  0  0  0  0  2  0  0  0  0  0  0
  193.8020  176.1740  141.8870 C   0  0  0  0  0  3  0  0  0  0  0  0
  194.5600  175.3510  144.1010 N   0  0  0  0  0  0  0  0  0  0  0  0
  195.8750  175.8370  143.7890 C   0  0  0  0  0  3  0  0  0  0  0  0
  195.0270  176.6480  141.6580 C   0  0  0  0  0  3  0  0  0  0  0  0
  196.1130  176.4460  142.6290 C   0  0  0  0  0  3  0  0  0  0  0  0
  187.0690  176.4130  145.3760 C   0  0  0  0  0  2  0  0  0  0  0  0
  185.7510  178.4500  145.1940 N   0  0  0  0  0  1  0  0  0  0  0  0
  186.7770  177.7730  145.9760 C   0  0  0  0  0  2  0  0  0  0  0  0
  1 15  1  0  0  0  0
  2 51  1  1  0  0  0
  3  6  1  0  0  0  0
  3 22  1  1  0  0  0
  4 12  1  0  0  0  0
  5 13  1  0  0  0  0
  5 10  1  0  0  0  0
  6 38  1  1  0  0  0
  6  1  1  0  0  0  0
  7 14  1  0  0  0  0
  7 23  1  0  0  0  0
  8 15  1  0  0  0  0
  8  5  2  0  0  0  0
  9 11  1  0  0  0  0
  9 66  1  0  0  0  0
 10 23  2  0  0  0  0
 10 11  1  0  0  0  0
 11 53  1  6  0  0  0
 12  2  1  0  0  0  0
 13  9  1  0  0  0  0
 14  2  1  0  0  0  0
 15  7  2  0  0  0  0
 16 12  2  0  0  0  0
 17 41  1  6  0  0  0
 17 25  1  0  0  0  0
 18 17  1  0  0  0  0
 19 20  1  6  0  0  0
 20  4  1  0  0  0  0
 21 18  1  1  0  0  0
 21 24  1  0  0  0  0
 21  3  1  0  0  0  0
 25 24  1  6  0  0  0
 25 19  1  0  0  0  0
 25 22  1  0  0  0  0
 26 31  1  0  0  0  0
 28 30  1  1  0  0  0
 28 31  1  0  0  0  0
 28 19  1  0  0  0  0
 29 32  1  6  0  0  0
 29 30  1  0  0  0  0
 29 26  1  0  0  0  0
 31 27  1  6  0  0  0
 33 32  2  0  0  0  0
 34 35  1  0  0  0  0
 35 33  1  0  0  0  0
 36 38  1  0  0  0  0
 38 37  2  0  0  0  0
 40 41  2  0  0  0  0
 41 39  1  0  0  0  0
 42 50  1  1  0  0  0
 42 39  1  0  0  0  0
 43 44  2  0  0  0  0
 44 46  1  0  0  0  0
 44 42  1  0  0  0  0
 45 44  2  0  0  0  0
 47 46  1  0  0  0  0
 47 48  1  0  0  0  0
 50 49  1  0  0  0  0
 52 51  1  0  0  0  0
 53 55  1  0  0  0  0
 55 54  2  0  0  0  0
 55 56  2  0  0  0  0
 57 55  1  0  0  0  0
 58 57  1  0  0  0  0
 59 58  1  0  0  0  0
 60 62  1  0  0  0  0
 61 60  1  0  0  0  0
 62 59  1  0  0  0  0
 63 62  1  0  0  0  0
 64 61  2  0  0  0  0
 64 65  1  0  0  0  0
 65 63  2  0  0  0  0
 66 68  1  0  0  0  0
 67 68  1  0  0  0  0
M  END
>  <MODEL>
2

>  <REMARK>
 VINA RESULT:      -5.8      1.826      2.476
  Name = 
  19 active torsions:
  status: ('A' for Active; 'I' for Inactive)
    1  A    between atoms: N_1  and  C_51
    2  A    between atoms: C_2  and  C_21
    3  A    between atoms: C_3  and  C_37
    4  A    between atoms: C_9  and  O_40
    5  A    between atoms: C_16  and  C_44
    6  A    between atoms: C_20  and  C_57
    7  A    between atoms: C_22  and  N_54
    8  A    between atoms: N_23  and  C_24
    9  A    between atoms: N_23  and  S_50
   10  A    between atoms: C_24  and  C_31
   11  A    between atoms: C_26  and  C_45
   12  A    between atoms: N_27  and  C_45
   13  A    between atoms: C_30  and  N_33
   14  A    between atoms: C_31  and  N_34
   15  A    between atoms: C_32  and  C_51
   16  A    between atoms: N_33  and  S_50
   17  A    between atoms: C_51  and  S_65
   18  A    between atoms: C_52  and  C_63
   19  A    between atoms: N_54  and  S_65
                            x       y       z     vdW  Elec       q    Type
                         _______ _______ _______ _____ _____    ______ ____

>  <TORSDO>
F 19

$$$$
=
 OpenBabel11062419033D

 68 74  0  0  1  0  0  0  0  0999 V2000
  189.5110  172.2050  141.0010 C   0  0  0  0  0  2  0  0  0  0  0  0
  192.5130  171.8140  143.5780 C   0  0  1  0  0  3  0  0  0  0  0  0
  190.8770  173.7110  139.4480 N   0  0  2  0  0  0  0  0  0  0  0  0
  194.3690  172.2200  141.8900 N   0  0  0  0  0  2  0  0  0  0  0  0
  188.8580  175.3230  143.0670 C   0  0  0  0  0  0  0  0  0  0  0  0
  189.7740  172.7330  139.5710 C   0  0  2  0  0  3  0  0  0  0  0  0
  190.2900  172.9500  143.3050 C   0  0  0  0  0  0  0  0  0  0  0  0
  188.8290  174.4190  142.0070 C   0  0  0  0  0  3  0  0  0  0  0  0
  188.4780  177.1340  144.5190 N   0  0  0  0  0  0  0  0  0  0  0  0
  189.5670  175.0710  144.1970 C   0  0  0  0  0  0  0  0  0  0  0  0
  189.3560  176.1540  145.1830 C   0  0  1  0  0  3  0  0  0  0  0  0
  193.2030  171.4910  142.2790 C   0  0  0  0  0  0  0  0  0  0  0  0
  188.1260  176.5940  143.1920 C   0  0  0  0  0  2  0  0  0  0  0  0
  190.9880  171.6410  143.5170 C   0  0  0  0  0  2  0  0  0  0  0  0
  189.5740  173.2260  142.1080 C   0  0  0  0  0  0  0  0  0  0  0  0
  192.7420  170.5940  141.5190 O   0  0  0  0  0  0  0  0  0  0  0  0
  192.9090  171.8960  138.4380 C   0  0  2  0  0  3  0  0  0  0  0  0
  191.7240  172.3320  137.5650 C   0  0  0  0  0  2  0  0  0  0  0  0
  194.5670  173.2880  139.9640 C   0  0  2  0  0  3  0  0  0  0  0  0
  194.8770  172.0900  140.6370 O   0  0  0  0  0  0  0  0  0  0  0  0
  191.4200  173.7590  138.0730 C   0  0  2  0  0  3  0  0  0  0  0  0
  192.0470  173.3190  140.2440 C   0  0  0  0  0  2  0  0  0  0  0  0
  190.2770  173.8800  144.3580 C   0  0  0  0  0  3  0  0  0  0  0  0
  192.8200  174.2700  138.2900 C   0  0  0  0  0  2  0  0  0  0  0  0
  193.1900  173.1750  139.2510 C   0  0  2  0  0  0  0  0  0  0  0  0
  197.7080  174.8570  138.7780 C   0  0  0  0  0  2  0  0  0  0  0  0
  197.7500  172.7230  139.7950 O   0  0  0  0  0  1  0  0  0  0  0  0
  195.7050  173.6430  138.9930 C   0  0  1  0  0  3  0  0  0  0  0  0
  196.6090  175.3760  137.8770 C   0  0  2  0  0  3  0  0  0  0  0  0
  195.3840  174.7810  138.2340 O   0  0  0  0  0  0  0  0  0  0  0  0
  197.0130  173.9080  139.7000 C   0  0  2  0  0  3  0  0  0  0  0  0
  196.9330  175.0690  136.4520 C   0  0  0  0  0  3  0  0  0  0  0  0
  197.3770  173.8610  136.1000 C   0  0  0  0  0  3  0  0  0  0  0  0
  197.9410  172.1930  134.5130 O   0  0  0  0  0  1  0  0  0  0  0  0
  197.7030  173.5610  134.6750 C   0  0  0  0  0  2  0  0  0  0  0  0
  187.9170  172.5540  137.8420 N   0  0  0  0  0  1  0  0  0  0  0  0
  187.9770  174.2930  139.3760 O   0  0  0  0  0  0  0  0  0  0  0  0
  188.5150  173.2430  138.9350 C   0  0  0  0  0  0  0  0  0  0  0  0
  194.5420  170.0780  137.6950 N   0  0  0  0  0  2  0  0  0  0  0  0
  194.5970  172.2320  136.7900 O   0  0  0  0  0  0  0  0  0  0  0  0
  194.0670  171.4270  137.6000 C   0  0  0  0  0  0  0  0  0  0  0  0
  195.5540  169.4840  136.8280 C   0  0  2  0  0  3  0  0  0  0  0  0
  197.8780  168.1720  137.2050 O   0  0  0  0  0  0  0  0  0  0  0  0
  197.0710  169.3140  137.7610 S   0  0  0  0  0  0  0  0  0  0  0  0
  197.8580  170.5960  137.6380 O   0  0  0  0  0  0  0  0  0  0  0  0
  196.6950  169.0000  139.4270 N   0  0  0  0  0  2  0  0  0  0  0  0
  197.6710  169.7060  140.2410 C   0  0  0  0  0  2  0  0  0  0  0  0
  197.2800  169.6010  141.7040 C   0  0  0  0  0  1  0  0  0  0  0  0
  195.0400  169.9380  134.5330 O   0  0  0  0  0  1  0  0  0  0  0  0
  195.8070  170.3720  135.6130 C   0  0  0  0  0  2  0  0  0  0  0  0
  193.1060  171.1880  144.6970 O   0  0  0  0  0  0  0  0  0  0  0  0
  192.9430  169.7980  144.5860 C   0  0  0  0  0  1  0  0  0  0  0  0
  190.6220  176.7940  145.5180 N   0  0  0  0  0  2  0  0  0  0  0  0
  190.3670  175.0790  147.5090 O   0  0  0  0  0  0  0  0  0  0  0  0
  191.0930  176.3380  147.1250 S   0  0  0  0  0  0  0  0  0  0  0  0
  190.7590  177.4280  148.1080 O   0  0  0  0  0  0  0  0  0  0  0  0
  192.8060  176.0720  147.1460 N   0  0  0  0  0  2  0  0  0  0  0  0
  193.2920  176.1520  145.7770 C   0  0  0  0  0  2  0  0  0  0  0  0
  194.7540  176.5810  145.7600 C   0  0  0  0  0  2  0  0  0  0  0  0
  195.8710  174.3380  145.7590 C   0  0  0  0  0  2  0  0  0  0  0  0
  196.5890  173.3420  144.8880 C   0  0  0  0  0  3  0  0  0  0  0  0
  195.5870  175.6030  145.0730 N   0  0  0  0  0  0  0  0  0  0  0  0
  196.1650  175.9220  143.7960 C   0  0  0  0  0  3  0  0  0  0  0  0
  197.0690  173.6660  143.6870 C   0  0  0  0  0  3  0  0  0  0  0  0
  196.8790  175.0150  143.1320 C   0  0  0  0  0  3  0  0  0  0  0  0
  187.2490  177.2110  145.2940 C   0  0  0  0  0  2  0  0  0  0  0  0
  186.3710  177.2370  147.5620 N   0  0  0  0  0  1  0  0  0  0  0  0
  187.5450  176.9360  146.7540 C   0  0  0  0  0  2  0  0  0  0  0  0
  1 15  1  0  0  0  0
  2 51  1  1  0  0  0
  3  6  1  0  0  0  0
  3 22  1  1  0  0  0
  4 12  1  0  0  0  0
  5 13  1  0  0  0  0
  5 10  1  0  0  0  0
  6 38  1  1  0  0  0
  6  1  1  0  0  0  0
  7 14  1  0  0  0  0
  7 23  1  0  0  0  0
  8 15  1  0  0  0  0
  8  5  2  0  0  0  0
  9 11  1  0  0  0  0
  9 66  1  0  0  0  0
 10 23  2  0  0  0  0
 10 11  1  0  0  0  0
 11 53  1  6  0  0  0
 12  2  1  0  0  0  0
 13  9  1  0  0  0  0
 14  2  1  0  0  0  0
 15  7  2  0  0  0  0
 16 12  2  0  0  0  0
 17 41  1  6  0  0  0
 17 25  1  0  0  0  0
 18 17  1  0  0  0  0
 19 20  1  6  0  0  0
 20  4  1  0  0  0  0
 21 18  1  1  0  0  0
 21 24  1  0  0  0  0
 21  3  1  0  0  0  0
 25 24  1  6  0  0  0
 25 19  1  0  0  0  0
 25 22  1  0  0  0  0
 26 31  1  0  0  0  0
 28 30  1  1  0  0  0
 28 31  1  0  0  0  0
 28 19  1  0  0  0  0
 29 32  1  6  0  0  0
 29 30  1  0  0  0  0
 29 26  1  0  0  0  0
 31 27  1  6  0  0  0
 33 32  2  0  0  0  0
 34 35  1  0  0  0  0
 35 33  1  0  0  0  0
 36 38  1  0  0  0  0
 38 37  2  0  0  0  0
 40 41  2  0  0  0  0
 41 39  1  0  0  0  0
 42 50  1  6  0  0  0
 42 39  1  0  0  0  0
 42 44  1  0  0  0  0
 43 44  2  0  0  0  0
 44 46  1  0  0  0  0
 45 44  2  0  0  0  0
 46 47  1  0  0  0  0
 47 48  1  0  0  0  0
 49 50  1  0  0  0  0
 52 51  1  0  0  0  0
 53 55  1  0  0  0  0
 55 57  1  0  0  0  0
 55 54  2  0  0  0  0
 55 56  2  0  0  0  0
 58 57  1  0  0  0  0
 59 58  1  0  0  0  0
 61 60  1  0  0  0  0
 62 60  1  0  0  0  0
 62 59  1  0  0  0  0
 63 62  1  0  0  0  0
 64 61  2  0  0  0  0
 65 64  1  0  0  0  0
 65 63  2  0  0  0  0
 66 68  1  0  0  0  0
 68 67  1  0  0  0  0
M  END
>  <MODEL>
3

>  <REMARK>
 VINA RESULT:      -4.4      1.986      2.932
  Name = 
  19 active torsions:
  status: ('A' for Active; 'I' for Inactive)
    1  A    between atoms: N_1  and  C_51
    2  A    between atoms: C_2  and  C_21
    3  A    between atoms: C_3  and  C_37
    4  A    between atoms: C_9  and  O_40
    5  A    between atoms: C_16  and  C_44
    6  A    between atoms: C_20  and  C_57
    7  A    between atoms: C_22  and  N_54
    8  A    between atoms: N_23  and  C_24
    9  A    between atoms: N_23  and  S_50
   10  A    between atoms: C_24  and  C_31
   11  A    between atoms: C_26  and  C_45
   12  A    between atoms: N_27  and  C_45
   13  A    between atoms: C_30  and  N_33
   14  A    between atoms: C_31  and  N_34
   15  A    between atoms: C_32  and  C_51
   16  A    between atoms: N_33  and  S_50
   17  A    between atoms: C_51  and  S_65
   18  A    between atoms: C_52  and  C_63
   19  A    between atoms: N_54  and  S_65
                            x       y       z     vdW  Elec       q    Type
                         _______ _______ _______ _____ _____    ______ ____

>  <TORSDO>
F 19

$$$$
=
 OpenBabel11062419033D

 68 74  0  0  1  0  0  0  0  0999 V2000
  196.4830  173.9510  142.6130 C   0  0  0  0  0  2  0  0  0  0  0  0
  194.0680  170.7930  142.6830 C   0  0  1  0  0  3  0  0  0  0  0  0
  194.5740  175.5520  142.0370 N   0  0  2  0  0  0  0  0  0  0  0  0
  191.9570  172.0840  143.2600 N   0  0  0  0  0  2  0  0  0  0  0  0
  196.5850  173.1110  138.9120 C   0  0  0  0  0  0  0  0  0  0  0  0
  195.8990  175.3810  142.6720 C   0  0  2  0  0  3  0  0  0  0  0  0
  195.8620  171.8670  141.2930 C   0  0  0  0  0  0  0  0  0  0  0  0
  196.7010  173.8290  140.1000 C   0  0  0  0  0  3  0  0  0  0  0  0
  196.6790  172.3890  136.6750 N   0  0  0  0  0  0  0  0  0  0  0  0
  196.1280  171.8320  138.8960 C   0  0  0  0  0  0  0  0  0  0  0  0
  196.1850  171.2880  137.5200 C   0  0  1  0  0  3  0  0  0  0  0  0
  193.3140  171.7540  143.5640 C   0  0  0  0  0  0  0  0  0  0  0  0
  196.9740  173.5340  137.5560 C   0  0  0  0  0  2  0  0  0  0  0  0
  195.5620  171.1260  142.5600 C   0  0  0  0  0  2  0  0  0  0  0  0
  196.3120  173.2160  141.3080 C   0  0  0  0  0  0  0  0  0  0  0  0
  193.8820  172.2890  144.5560 O   0  0  0  0  0  0  0  0  0  0  0  0
  192.9630  175.5070  144.4530 C   0  0  2  0  0  3  0  0  0  0  0  0
  193.8630  176.7040  144.1170 C   0  0  0  0  0  2  0  0  0  0  0  0
  191.2260  174.1520  142.9810 C   0  0  2  0  0  3  0  0  0  0  0  0
  191.3330  173.1000  143.9110 O   0  0  0  0  0  0  0  0  0  0  0  0
  193.8530  176.7280  142.5730 C   0  0  2  0  0  3  0  0  0  0  0  0
  193.6660  174.4430  142.3560 C   0  0  0  0  0  2  0  0  0  0  0  0
  195.7790  171.1720  140.0750 C   0  0  0  0  0  3  0  0  0  0  0  0
  192.4130  176.3790  142.3070 C   0  0  0  0  0  2  0  0  0  0  0  0
  192.4750  175.0770  143.0550 C   0  0  2  0  0  0  0  0  0  0  0  0
  187.7730  175.3280  142.3320 C   0  0  0  0  0  2  0  0  0  0  0  0
  188.1470  173.3640  143.5930 O   0  0  0  0  0  1  0  0  0  0  0  0
  189.9130  174.9160  143.2160 C   0  0  1  0  0  3  0  0  0  0  0  0
  188.6430  176.5660  142.3590 C   0  0  2  0  0  3  0  0  0  0  0  0
  189.9710  176.2030  142.6540 O   0  0  0  0  0  0  0  0  0  0  0  0
  188.7140  174.2070  142.6320 C   0  0  2  0  0  3  0  0  0  0  0  0
  188.1320  177.5240  143.3840 C   0  0  0  0  0  3  0  0  0  0  0  0
  186.8740  177.9650  143.3360 C   0  0  0  0  0  3  0  0  0  0  0  0
  185.5460  179.8820  143.7600 O   0  0  0  0  0  1  0  0  0  0  0  0
  186.3700  178.9260  144.3600 C   0  0  0  0  0  2  0  0  0  0  0  0
  197.8110  177.0130  143.0590 N   0  0  0  0  0  1  0  0  0  0  0  0
  196.8920  176.7050  140.9520 O   0  0  0  0  0  0  0  0  0  0  0  0
  196.8830  176.3960  142.1720 C   0  0  0  0  0  0  0  0  0  0  0  0
  191.6240  175.1420  146.5980 N   0  0  0  0  0  2  0  0  0  0  0  0
  191.1660  176.9130  145.1430 O   0  0  0  0  0  0  0  0  0  0  0  0
  191.8610  175.8960  145.4020 C   0  0  0  0  0  0  0  0  0  0  0  0
  190.6860  175.5150  147.6510 C   0  0  2  0  0  3  0  0  0  0  0  0
  189.1540  173.8700  146.1640 O   0  0  0  0  0  0  0  0  0  0  0  0
  189.0470  174.9900  147.1640 S   0  0  0  0  0  0  0  0  0  0  0  0
  188.3130  174.5050  148.3910 O   0  0  0  0  0  0  0  0  0  0  0  0
  188.1990  176.3250  146.4490 N   0  0  0  0  0  2  0  0  0  0  0  0
  186.8100  176.2440  146.8720 C   0  0  0  0  0  2  0  0  0  0  0  0
  186.4390  177.5050  147.6330 C   0  0  0  0  0  1  0  0  0  0  0  0
  191.5710  177.3710  148.8820 O   0  0  0  0  0  1  0  0  0  0  0  0
  190.6890  177.0280  147.8590 C   0  0  0  0  0  2  0  0  0  0  0  0
  193.8170  169.4370  142.9920 O   0  0  0  0  0  0  0  0  0  0  0  0
  194.7100  168.6290  142.2710 C   0  0  0  0  0  1  0  0  0  0  0  0
  194.8550  170.8970  137.0700 N   0  0  0  0  0  2  0  0  0  0  0  0
  195.7900  168.6630  138.1220 O   0  0  0  0  0  0  0  0  0  0  0  0
  194.6430  169.1910  137.3060 S   0  0  0  0  0  0  0  0  0  0  0  0
  194.5970  168.4710  135.9840 O   0  0  0  0  0  0  0  0  0  0  0  0
  193.1450  168.9280  138.1380 N   0  0  0  0  0  2  0  0  0  0  0  0
  192.2880  170.0790  137.9000 C   0  0  0  0  0  2  0  0  0  0  0  0
  190.9610  169.9110  138.6290 C   0  0  0  0  0  2  0  0  0  0  0  0
  189.8740  171.8140  139.8430 C   0  0  0  0  0  2  0  0  0  0  0  0
  189.2020  173.1480  139.6530 C   0  0  0  0  0  3  0  0  0  0  0  0
  190.1670  171.1310  138.5790 N   0  0  0  0  0  0  0  0  0  0  0  0
  189.6350  171.5900  137.3260 C   0  0  0  0  0  3  0  0  0  0  0  0
  188.7640  173.5570  138.4620 C   0  0  0  0  0  3  0  0  0  0  0  0
  188.9590  172.7350  137.2580 C   0  0  0  0  0  3  0  0  0  0  0  0
  197.9410  171.9570  136.0930 C   0  0  0  0  0  2  0  0  0  0  0  0
  197.4130  170.1600  134.5410 N   0  0  0  0  0  1  0  0  0  0  0  0
  197.7330  171.5770  134.6410 C   0  0  0  0  0  2  0  0  0  0  0  0
  1  6  1  0  0  0  0
  2 51  1  1  0  0  0
  2 12  1  0  0  0  0
  3 22  1  1  0  0  0
  3 21  1  0  0  0  0
  3  6  1  0  0  0  0
  4 12  1  0  0  0  0
  4 20  1  0  0  0  0
  5  8  1  0  0  0  0
  6 38  1  6  0  0  0
  7 15  1  0  0  0  0
  7 14  1  0  0  0  0
  8 15  2  0  0  0  0
  9 11  1  0  0  0  0
  9 13  1  0  0  0  0
 10  5  2  0  0  0  0
 10 23  1  0  0  0  0
 11 53  1  6  0  0  0
 11 10  1  0  0  0  0
 12 16  2  0  0  0  0
 13  5  1  0  0  0  0
 14  2  1  0  0  0  0
 15  1  1  0  0  0  0
 17 41  1  1  0  0  0
 18 17  1  0  0  0  0
 19 25  1  0  0  0  0
 19 28  1  0  0  0  0
 19 20  1  1  0  0  0
 21 24  1  6  0  0  0
 21 18  1  0  0  0  0
 22 25  1  0  0  0  0
 23  7  2  0  0  0  0
 25 24  1  6  0  0  0
 25 17  1  0  0  0  0
 26 29  1  0  0  0  0
 26 31  1  0  0  0  0
 28 30  1  6  0  0  0
 29 30  1  0  0  0  0
 29 32  1  1  0  0  0
 31 28  1  0  0  0  0
 31 27  1  1  0  0  0
 33 32  2  0  0  0  0
 33 35  1  0  0  0  0
 34 35  1  0  0  0  0
 37 38  2  0  0  0  0
 38 36  1  0  0  0  0
 39 42  1  0  0  0  0
 40 41  2  0  0  0  0
 41 39  1  0  0  0  0
 42 50  1  6  0  0  0
 43 44  2  0  0  0  0
 44 42  1  0  0  0  0
 44 45  2  0  0  0  0
 46 47  1  0  0  0  0
 46 44  1  0  0  0  0
 47 48  1  0  0  0  0
 50 49  1  0  0  0  0
 52 51  1  0  0  0  0
 53 55  1  0  0  0  0
 55 54  2  0  0  0  0
 55 57  1  0  0  0  0
 56 55  2  0  0  0  0
 58 57  1  0  0  0  0
 58 59  1  0  0  0  0
 61 60  1  0  0  0  0
 62 59  1  0  0  0  0
 62 60  1  0  0  0  0
 63 62  1  0  0  0  0
 64 61  2  0  0  0  0
 65 63  2  0  0  0  0
 65 64  1  0  0  0  0
 66  9  1  0  0  0  0
 67 68  1  0  0  0  0
 68 66  1  0  0  0  0
M  END
>  <MODEL>
4

>  <REMARK>
 VINA RESULT:      -4.3      2.528     10.545
  Name = 
  19 active torsions:
  status: ('A' for Active; 'I' for Inactive)
    1  A    between atoms: N_1  and  C_51
    2  A    between atoms: C_2  and  C_21
    3  A    between atoms: C_3  and  C_37
    4  A    between atoms: C_9  and  O_40
    5  A    between atoms: C_16  and  C_44
    6  A    between atoms: C_20  and  C_57
    7  A    between atoms: C_22  and  N_54
    8  A    between atoms: N_23  and  C_24
    9  A    between atoms: N_23  and  S_50
   10  A    between atoms: C_24  and  C_31
   11  A    between atoms: C_26  and  C_45
   12  A    between atoms: N_27  and  C_45
   13  A    between atoms: C_30  and  N_33
   14  A    between atoms: C_31  and  N_34
   15  A    between atoms: C_32  and  C_51
   16  A    between atoms: N_33  and  S_50
   17  A    between atoms: C_51  and  S_65
   18  A    between atoms: C_52  and  C_63
   19  A    between atoms: N_54  and  S_65
                            x       y       z     vdW  Elec       q    Type
                         _______ _______ _______ _____ _____    ______ ____

>  <TORSDO>
F 19

$$$$
=
 OpenBabel11062419033D

 68 74  0  0  1  0  0  0  0  0999 V2000
  194.5280  173.7010  143.1090 C   0  0  0  0  0  2  0  0  0  0  0  0
  191.8380  171.5730  141.0980 C   0  0  1  0  0  3  0  0  0  0  0  0
  193.1600  175.8520  142.9030 N   0  0  2  0  0  0  0  0  0  0  0  0
  189.8480  173.0420  141.6750 N   0  0  0  0  0  2  0  0  0  0  0  0
  195.7750  174.4340  139.5990 C   0  0  0  0  0  0  0  0  0  0  0  0
  194.1530  175.0860  143.6870 C   0  0  2  0  0  3  0  0  0  0  0  0
  194.1250  172.5830  140.8600 C   0  0  0  0  0  0  0  0  0  0  0  0
  195.5720  174.5500  140.9730 C   0  0  0  0  0  3  0  0  0  0  0  0
  196.5310  174.6810  137.3860 N   0  0  0  0  0  0  0  0  0  0  0  0
  195.1860  173.4480  138.8740 C   0  0  0  0  0  0  0  0  0  0  0  0
  195.6370  173.5130  137.4660 C   0  0  1  0  0  3  0  0  0  0  0  0
  190.9630  172.2610  142.1110 C   0  0  0  0  0  0  0  0  0  0  0  0
  196.6560  175.2450  138.7420 C   0  0  0  0  0  2  0  0  0  0  0  0
  193.3150  171.5060  141.5150 C   0  0  0  0  0  2  0  0  0  0  0  0
  194.7160  173.6320  141.6150 C   0  0  0  0  0  0  0  0  0  0  0  0
  191.2230  172.1740  143.3430 O   0  0  0  0  0  0  0  0  0  0  0  0
  190.8290  175.2760  144.5390 C   0  0  2  0  0  3  0  0  0  0  0  0
  191.9400  176.2120  145.0350 C   0  0  0  0  0  2  0  0  0  0  0  0
  189.5370  175.1600  142.2290 C   0  0  2  0  0  3  0  0  0  0  0  0
  189.1790  173.8360  142.5510 O   0  0  0  0  0  0  0  0  0  0  0  0
  192.4620  176.8590  143.7330 C   0  0  2  0  0  3  0  0  0  0  0  0
  192.0590  175.0020  142.4320 C   0  0  0  0  0  2  0  0  0  0  0  0
  194.3720  172.4900  139.4800 C   0  0  0  0  0  3  0  0  0  0  0  0
  191.1660  177.0540  142.9920 C   0  0  0  0  0  2  0  0  0  0  0  0
  190.7950  175.5970  143.0310 C   0  0  2  0  0  0  0  0  0  0  0  0
  186.4010  176.9830  141.4680 C   0  0  0  0  0  2  0  0  0  0  0  0
  186.3240  174.8180  142.4170 O   0  0  0  0  0  1  0  0  0  0  0  0
  188.3360  176.0900  142.4650 C   0  0  1  0  0  3  0  0  0  0  0  0
  187.4400  178.0380  141.7790 C   0  0  2  0  0  3  0  0  0  0  0  0
  188.6540  177.4190  142.1310 O   0  0  0  0  0  0  0  0  0  0  0  0
  187.1210  175.6870  141.6650 C   0  0  2  0  0  3  0  0  0  0  0  0
  186.9630  178.9060  142.8970 C   0  0  0  0  0  3  0  0  0  0  0  0
  185.6690  179.2070  143.0200 C   0  0  0  0  0  3  0  0  0  0  0  0
  183.9460  179.6510  144.5870 O   0  0  0  0  0  1  0  0  0  0  0  0
  185.1980  180.0780  144.1370 C   0  0  0  0  0  2  0  0  0  0  0  0
  196.6780  175.3540  143.8290 N   0  0  0  0  0  1  0  0  0  0  0  0
  195.2450  177.0990  144.3600 O   0  0  0  0  0  0  0  0  0  0  0  0
  195.3740  175.9050  143.9790 C   0  0  0  0  0  0  0  0  0  0  0  0
  189.0070  176.8620  145.3710 N   0  0  0  0  0  2  0  0  0  0  0  0
  188.8970  174.5550  145.7320 O   0  0  0  0  0  0  0  0  0  0  0  0
  189.5310  175.5320  145.2570 C   0  0  0  0  0  0  0  0  0  0  0  0
  187.6960  177.2000  145.9130 C   0  0  2  0  0  3  0  0  0  0  0  0
  188.1400  175.9980  148.2840 O   0  0  0  0  0  0  0  0  0  0  0  0
  187.8370  177.3470  147.6910 S   0  0  0  0  0  0  0  0  0  0  0  0
  188.9600  178.3040  148.0070 O   0  0  0  0  0  0  0  0  0  0  0  0
  186.3420  177.9420  148.3430 N   0  0  0  0  0  2  0  0  0  0  0  0
  185.9700  179.1270  147.5860 C   0  0  0  0  0  2  0  0  0  0  0  0
  186.3990  180.3680  148.3480 C   0  0  0  0  0  1  0  0  0  0  0  0
  185.6360  176.6450  144.8220 O   0  0  0  0  0  1  0  0  0  0  0  0
  186.6790  176.1110  145.5770 C   0  0  0  0  0  2  0  0  0  0  0  0
  191.3200  170.3320  140.6620 O   0  0  0  0  0  0  0  0  0  0  0  0
  191.3640  169.4170  141.7260 C   0  0  0  0  0  1  0  0  0  0  0  0
  194.5010  173.7160  136.5750 N   0  0  0  0  0  2  0  0  0  0  0  0
  194.0980  171.1060  136.5500 O   0  0  0  0  0  0  0  0  0  0  0  0
  194.2460  172.2840  135.6270 S   0  0  0  0  0  0  0  0  0  0  0  0
  195.4060  172.0470  134.6960 O   0  0  0  0  0  0  0  0  0  0  0  0
  192.8070  172.4920  134.6840 N   0  0  0  0  0  2  0  0  0  0  0  0
  191.6910  172.6800  135.5990 C   0  0  0  0  0  2  0  0  0  0  0  0
  191.2090  174.1250  135.5560 C   0  0  0  0  0  2  0  0  0  0  0  0
  189.8780  173.6170  137.6160 C   0  0  0  0  0  2  0  0  0  0  0  0
  188.6490  174.0090  138.3930 C   0  0  0  0  0  3  0  0  0  0  0  0
  189.9830  174.3000  136.3230 N   0  0  0  0  0  0  0  0  0  0  0  0
  188.8960  175.0610  135.7740 C   0  0  0  0  0  3  0  0  0  0  0  0
  187.6830  174.7580  137.8610 C   0  0  0  0  0  3  0  0  0  0  0  0
  187.7930  175.2780  136.4900 C   0  0  0  0  0  3  0  0  0  0  0  0
  197.8470  174.1950  136.9980 C   0  0  0  0  0  2  0  0  0  0  0  0
  197.6030  175.4080  134.9040 N   0  0  0  0  0  1  0  0  0  0  0  0
  197.9410  174.1170  135.4880 C   0  0  0  0  0  2  0  0  0  0  0  0
  1  6  1  0  0  0  0
  2 51  1  1  0  0  0
  2 14  1  0  0  0  0
  2 12  1  0  0  0  0
  3 22  1  1  0  0  0
  3  6  1  0  0  0  0
  3 21  1  0  0  0  0
  4 12  1  0  0  0  0
  4 20  1  0  0  0  0
  5  8  1  0  0  0  0
  6 38  1  6  0  0  0
  7 14  1  0  0  0  0
  7 15  1  0  0  0  0
  8 15  2  0  0  0  0
  9 11  1  0  0  0  0
  9 13  1  0  0  0  0
 10 23  1  0  0  0  0
 10  5  2  0  0  0  0
 11 53  1  6  0  0  0
 11 10  1  0  0  0  0
 12 16  2  0  0  0  0
 13  5  1  0  0  0  0
 15  1  1  0  0  0  0
 17 18  1  0  0  0  0
 17 41  1  1  0  0  0
 19 28  1  0  0  0  0
 19 20  1  1  0  0  0
 19 25  1  0  0  0  0
 21 24  1  6  0  0  0
 21 18  1  0  0  0  0
 23  7  2  0  0  0  0
 24 25  1  0  0  0  0
 25 22  1  6  0  0  0
 25 17  1  0  0  0  0
 26 31  1  0  0  0  0
 26 29  1  0  0  0  0
 28 30  1  6  0  0  0
 29 30  1  0  0  0  0
 29 32  1  1  0  0  0
 31 27  1  1  0  0  0
 31 28  1  0  0  0  0
 32 33  2  0  0  0  0
 33 35  1  0  0  0  0
 35 34  1  0  0  0  0
 36 38  1  0  0  0  0
 38 37  2  0  0  0  0
 39 42  1  0  0  0  0
 41 39  1  0  0  0  0
 41 40  2  0  0  0  0
 42 50  1  1  0  0  0
 42 44  1  0  0  0  0
 44 45  2  0  0  0  0
 44 43  2  0  0  0  0
 44 46  1  0  0  0  0
 47 46  1  0  0  0  0
 47 48  1  0  0  0  0
 49 50  1  0  0  0  0
 51 52  1  0  0  0  0
 55 54  2  0  0  0  0
 55 53  1  0  0  0  0
 56 55  2  0  0  0  0
 57 58  1  0  0  0  0
 57 55  1  0  0  0  0
 59 58  1  0  0  0  0
 59 62  1  0  0  0  0
 60 61  1  0  0  0  0
 62 60  1  0  0  0  0
 63 62  1  0  0  0  0
 63 65  2  0  0  0  0
 64 61  2  0  0  0  0
 65 64  1  0  0  0  0
 66  9  1  0  0  0  0
 67 68  1  0  0  0  0
 68 66  1  0  0  0  0
M  END
>  <MODEL>
5

>  <REMARK>
 VINA RESULT:      -3.9      2.464     10.879
  Name = 
  19 active torsions:
  status: ('A' for Active; 'I' for Inactive)
    1  A    between atoms: N_1  and  C_51
    2  A    between atoms: C_2  and  C_21
    3  A    between atoms: C_3  and  C_37
    4  A    between atoms: C_9  and  O_40
    5  A    between atoms: C_16  and  C_44
    6  A    between atoms: C_20  and  C_57
    7  A    between atoms: C_22  and  N_54
    8  A    between atoms: N_23  and  C_24
    9  A    between atoms: N_23  and  S_50
   10  A    between atoms: C_24  and  C_31
   11  A    between atoms: C_26  and  C_45
   12  A    between atoms: N_27  and  C_45
   13  A    between atoms: C_30  and  N_33
   14  A    between atoms: C_31  and  N_34
   15  A    between atoms: C_32  and  C_51
   16  A    between atoms: N_33  and  S_50
   17  A    between atoms: C_51  and  S_65
   18  A    between atoms: C_52  and  C_63
   19  A    between atoms: N_54  and  S_65
                            x       y       z     vdW  Elec       q    Type
                         _______ _______ _______ _____ _____    ______ ____

>  <TORSDO>
F 19

$$$$
=
 OpenBabel11062419033D

 68 74  0  0  1  0  0  0  0  0999 V2000
  190.6880  170.0420  140.7400 C   0  0  0  0  0  2  0  0  0  0  0  0
  189.0800  173.0640  138.7170 C   0  0  1  0  0  3  0  0  0  0  0  0
  192.0970  171.6050  142.1950 N   0  0  2  0  0  0  0  0  0  0  0  0
  189.3540  174.7940  140.5580 N   0  0  0  0  0  2  0  0  0  0  0  0
  193.3960  170.4310  138.1080 C   0  0  0  0  0  0  0  0  0  0  0  0
  191.4100  170.3000  142.0840 C   0  0  2  0  0  3  0  0  0  0  0  0
  190.7490  171.2030  138.4780 C   0  0  0  0  0  0  0  0  0  0  0  0
  192.7540  170.0650  139.2900 C   0  0  0  0  0  3  0  0  0  0  0  0
  194.9190  170.6790  136.3330 N   0  0  0  0  0  0  0  0  0  0  0  0
  192.7610  171.1510  137.1480 C   0  0  0  0  0  0  0  0  0  0  0  0
  193.6450  171.3260  135.9740 C   0  0  1  0  0  3  0  0  0  0  0  0
  188.8640  173.5190  140.1360 C   0  0  0  0  0  0  0  0  0  0  0  0
  194.7550  170.0740  137.6680 C   0  0  0  0  0  2  0  0  0  0  0  0
  189.2950  171.5490  138.5900 C   0  0  0  0  0  2  0  0  0  0  0  0
  191.4220  170.4750  139.4970 C   0  0  0  0  0  0  0  0  0  0  0  0
  188.2750  172.7690  140.9630 O   0  0  0  0  0  0  0  0  0  0  0  0
  190.0840  172.9830  143.7730 C   0  0  2  0  0  3  0  0  0  0  0  0
  190.9570  171.8780  144.3840 C   0  0  0  0  0  2  0  0  0  0  0  0
  190.7030  175.0850  142.2850 C   0  0  2  0  0  3  0  0  0  0  0  0
  189.3560  175.1300  141.8740 O   0  0  0  0  0  0  0  0  0  0  0  0
  192.2850  172.0100  143.6060 C   0  0  2  0  0  3  0  0  0  0  0  0
  191.2840  172.7000  141.6500 C   0  0  0  0  0  2  0  0  0  0  0  0
  191.4260  171.5340  137.2920 C   0  0  0  0  0  3  0  0  0  0  0  0
  192.3900  173.5090  143.5060 C   0  0  0  0  0  2  0  0  0  0  0  0
  191.0700  173.6660  142.8040 C   0  0  2  0  0  0  0  0  0  0  0  0
  191.9240  178.2980  143.6700 C   0  0  0  0  0  2  0  0  0  0  0  0
  189.7570  178.1470  142.7370 O   0  0  0  0  0  1  0  0  0  0  0  0
  190.9580  176.1800  143.3330 C   0  0  1  0  0  3  0  0  0  0  0  0
  192.6160  177.2070  144.4580 C   0  0  2  0  0  3  0  0  0  0  0  0
  192.1620  175.9480  144.0220 O   0  0  0  0  0  0  0  0  0  0  0  0
  191.0270  177.5610  142.7290 C   0  0  2  0  0  3  0  0  0  0  0  0
  192.3370  177.3780  145.9150 C   0  0  0  0  0  3  0  0  0  0  0  0
  192.3400  176.3260  146.7370 C   0  0  0  0  0  3  0  0  0  0  0  0
  191.2130  175.4840  148.6440 O   0  0  0  0  0  1  0  0  0  0  0  0
  192.0560  176.5020  148.1910 C   0  0  0  0  0  2  0  0  0  0  0  0
  192.1130  168.4010  143.6220 N   0  0  0  0  0  1  0  0  0  0  0  0
  193.2890  168.8840  141.6820 O   0  0  0  0  0  0  0  0  0  0  0  0
  192.3240  169.1660  142.4400 C   0  0  0  0  0  0  0  0  0  0  0  0
  188.5990  174.9330  144.4940 N   0  0  0  0  0  2  0  0  0  0  0  0
  189.8640  173.7080  146.0320 O   0  0  0  0  0  0  0  0  0  0  0  0
  189.5250  173.8930  144.8340 C   0  0  0  0  0  0  0  0  0  0  0  0
  187.8910  175.7690  145.4560 C   0  0  2  0  0  3  0  0  0  0  0  0
  185.4380  176.8820  145.3560 O   0  0  0  0  0  0  0  0  0  0  0  0
  186.7170  176.7870  144.5690 S   0  0  0  0  0  0  0  0  0  0  0  0
  187.3090  178.1640  144.3940 O   0  0  0  0  0  0  0  0  0  0  0  0
  186.3900  176.0760  143.0190 N   0  0  0  0  0  2  0  0  0  0  0  0
  186.2770  177.1560  142.0520 C   0  0  0  0  0  2  0  0  0  0  0  0
  184.8300  177.6070  141.9660 C   0  0  0  0  0  1  0  0  0  0  0  0
  188.2110  177.3400  147.2370 O   0  0  0  0  0  1  0  0  0  0  0  0
  188.8690  176.6680  146.2080 C   0  0  0  0  0  2  0  0  0  0  0  0
  188.1200  173.5730  137.8150 O   0  0  0  0  0  0  0  0  0  0  0  0
  188.7800  174.2110  136.7520 C   0  0  0  0  0  1  0  0  0  0  0  0
  193.8810  172.7420  135.7190 N   0  0  0  0  0  2  0  0  0  0  0  0
  195.3460  174.7590  136.5910 O   0  0  0  0  0  0  0  0  0  0  0  0
  194.8240  173.4130  137.0130 S   0  0  0  0  0  0  0  0  0  0  0  0
  195.9820  172.5120  137.3510 O   0  0  0  0  0  0  0  0  0  0  0  0
  193.8130  173.5730  138.4110 N   0  0  0  0  0  2  0  0  0  0  0  0
  194.6720  173.6670  139.5810 C   0  0  0  0  0  2  0  0  0  0  0  0
  194.5310  175.0370  140.2330 C   0  0  0  0  0  2  0  0  0  0  0  0
  195.4570  176.3860  142.1310 C   0  0  0  0  0  2  0  0  0  0  0  0
  195.9570  176.2990  143.5480 C   0  0  0  0  0  3  0  0  0  0  0  0
  195.1740  175.0730  141.5400 N   0  0  0  0  0  0  0  0  0  0  0  0
  195.5780  173.8500  142.1750 C   0  0  0  0  0  3  0  0  0  0  0  0
  196.2770  175.1370  144.1180 C   0  0  0  0  0  3  0  0  0  0  0  0
  196.1120  173.8670  143.3950 C   0  0  0  0  0  3  0  0  0  0  0  0
  195.1350  169.5920  135.3900 C   0  0  0  0  0  2  0  0  0  0  0  0
  197.2670  170.6060  134.8020 N   0  0  0  0  0  1  0  0  0  0  0  0
  196.6210  169.3630  135.2020 C   0  0  0  0  0  2  0  0  0  0  0  0
  1  6  1  0  0  0  0
  2 51  1  6  0  0  0
  2 12  1  0  0  0  0
  3 22  1  6  0  0  0
  3 21  1  0  0  0  0
  4 20  1  0  0  0  0
  5  8  1  0  0  0  0
  6  3  1  0  0  0  0
  6 38  1  6  0  0  0
  7 14  1  0  0  0  0
  7 15  1  0  0  0  0
  8 15  2  0  0  0  0
  9 13  1  0  0  0  0
 10 23  1  0  0  0  0
 10  5  2  0  0  0  0
 11 53  1  1  0  0  0
 11  9  1  0  0  0  0
 11 10  1  0  0  0  0
 12  4  1  0  0  0  0
 12 16  2  0  0  0  0
 13  5  1  0  0  0  0
 14  2  1  0  0  0  0
 15  1  1  0  0  0  0
 17 18  1  0  0  0  0
 17 41  1  1  0  0  0
 19 20  1  1  0  0  0
 19 25  1  0  0  0  0
 19 28  1  0  0  0  0
 21 24  1  6  0  0  0
 21 18  1  0  0  0  0
 23  7  2  0  0  0  0
 25 22  1  6  0  0  0
 25 24  1  0  0  0  0
 25 17  1  0  0  0  0
 26 29  1  0  0  0  0
 28 30  1  6  0  0  0
 29 32  1  1  0  0  0
 30 29  1  0  0  0  0
 31 27  1  1  0  0  0
 31 28  1  0  0  0  0
 31 26  1  0  0  0  0
 32 33  2  0  0  0  0
 33 35  1  0  0  0  0
 35 34  1  0  0  0  0
 37 38  2  0  0  0  0
 38 36  1  0  0  0  0
 39 41  1  0  0  0  0
 39 42  1  0  0  0  0
 41 40  2  0  0  0  0
 42 50  1  6  0  0  0
 44 43  2  0  0  0  0
 44 42  1  0  0  0  0
 45 44  2  0  0  0  0
 46 44  1  0  0  0  0
 47 46  1  0  0  0  0
 48 47  1  0  0  0  0
 50 49  1  0  0  0  0
 52 51  1  0  0  0  0
 53 55  1  0  0  0  0
 54 55  2  0  0  0  0
 55 56  2  0  0  0  0
 55 57  1  0  0  0  0
 57 58  1  0  0  0  0
 58 59  1  0  0  0  0
 59 62  1  0  0  0  0
 60 61  1  0  0  0  0
 61 64  2  0  0  0  0
 62 60  1  0  0  0  0
 62 63  1  0  0  0  0
 63 65  2  0  0  0  0
 65 64  1  0  0  0  0
 66  9  1  0  0  0  0
 67 68  1  0  0  0  0
 68 66  1  0  0  0  0
M  END
>  <MODEL>
6

>  <REMARK>
 VINA RESULT:      -3.7      2.368      9.570
  Name = 
  19 active torsions:
  status: ('A' for Active; 'I' for Inactive)
    1  A    between atoms: N_1  and  C_51
    2  A    between atoms: C_2  and  C_21
    3  A    between atoms: C_3  and  C_37
    4  A    between atoms: C_9  and  O_40
    5  A    between atoms: C_16  and  C_44
    6  A    between atoms: C_20  and  C_57
    7  A    between atoms: C_22  and  N_54
    8  A    between atoms: N_23  and  C_24
    9  A    between atoms: N_23  and  S_50
   10  A    between atoms: C_24  and  C_31
   11  A    between atoms: C_26  and  C_45
   12  A    between atoms: N_27  and  C_45
   13  A    between atoms: C_30  and  N_33
   14  A    between atoms: C_31  and  N_34
   15  A    between atoms: C_32  and  C_51
   16  A    between atoms: N_33  and  S_50
   17  A    between atoms: C_51  and  S_65
   18  A    between atoms: C_52  and  C_63
   19  A    between atoms: N_54  and  S_65
                            x       y       z     vdW  Elec       q    Type
                         _______ _______ _______ _____ _____    ______ ____

>  <TORSDO>
F 19

$$$$
=
 OpenBabel11062419033D

 68 74  0  0  1  0  0  0  0  0999 V2000
  191.9860  173.6860  139.8950 C   0  0  0  0  0  2  0  0  0  0  0  0
  194.1250  175.7400  142.5430 C   0  0  1  0  0  3  0  0  0  0  0  0
  190.0110  173.4340  141.5010 N   0  0  2  0  0  0  0  0  0  0  0  0
  192.1390  176.6580  143.8360 N   0  0  0  0  0  2  0  0  0  0  0  0
  193.5470  170.7480  141.7230 C   0  0  0  0  0  0  0  0  0  0  0  0
  190.4630  173.5050  140.0940 C   0  0  2  0  0  3  0  0  0  0  0  0
  193.9850  173.4820  141.4540 C   0  0  0  0  0  0  0  0  0  0  0  0
  192.6770  171.4860  140.9220 C   0  0  0  0  0  3  0  0  0  0  0  0
  194.6990  169.0280  142.8410 N   0  0  0  0  0  0  0  0  0  0  0  0
  194.5880  171.3330  142.3690 C   0  0  0  0  0  0  0  0  0  0  0  0
  195.3890  170.3090  143.0770 C   0  0  1  0  0  3  0  0  0  0  0  0
  192.8160  176.4830  142.5890 C   0  0  0  0  0  0  0  0  0  0  0  0
  193.5530  169.2930  141.9510 C   0  0  0  0  0  2  0  0  0  0  0  0
  194.3180  174.9280  141.2540 C   0  0  0  0  0  2  0  0  0  0  0  0
  192.8760  172.8760  140.8020 C   0  0  0  0  0  0  0  0  0  0  0  0
  192.3000  176.9320  141.5280 O   0  0  0  0  0  0  0  0  0  0  0  0
  189.0480  176.1640  141.7490 C   0  0  2  0  0  3  0  0  0  0  0  0
  188.2950  175.1270  140.9050 C   0  0  0  0  0  2  0  0  0  0  0  0
  190.0480  176.0390  144.1990 C   0  0  2  0  0  3  0  0  0  0  0  0
  190.8680  177.1350  143.8680 O   0  0  0  0  0  0  0  0  0  0  0  0
  188.5840  173.7990  141.6410 C   0  0  2  0  0  3  0  0  0  0  0  0
  190.6840  174.4320  142.3430 C   0  0  0  0  0  2  0  0  0  0  0  0
  194.8490  172.6970  142.2370 C   0  0  0  0  0  3  0  0  0  0  0  0
  188.5010  174.2620  143.0710 C   0  0  0  0  0  2  0  0  0  0  0  0
  189.5750  175.3020  142.9130 C   0  0  2  0  0  0  0  0  0  0  0  0
  187.7390  176.1440  147.0950 C   0  0  0  0  0  2  0  0  0  0  0  0
  189.7140  177.4440  147.0950 O   0  0  0  0  0  1  0  0  0  0  0  0
  188.8750  176.5160  145.0700 C   0  0  1  0  0  3  0  0  0  0  0  0
  186.8830  175.8510  145.8820 C   0  0  2  0  0  3  0  0  0  0  0  0
  187.6870  175.8460  144.7260 O   0  0  0  0  0  0  0  0  0  0  0  0
  189.1190  176.3050  146.5440 C   0  0  2  0  0  3  0  0  0  0  0  0
  185.8100  176.8820  145.7580 C   0  0  0  0  0  3  0  0  0  0  0  0
  185.6860  177.8490  146.6680 C   0  0  0  0  0  3  0  0  0  0  0  0
  183.6630  178.4640  145.5960 O   0  0  0  0  0  1  0  0  0  0  0  0
  184.6080  178.8730  146.5410 C   0  0  0  0  0  2  0  0  0  0  0  0
  188.5900  172.3330  138.8350 N   0  0  0  0  0  1  0  0  0  0  0  0
  190.7020  171.3910  139.0120 O   0  0  0  0  0  0  0  0  0  0  0  0
  189.9380  172.3530  139.2910 C   0  0  0  0  0  0  0  0  0  0  0  0
  186.7210  177.1710  142.0590 N   0  0  0  0  0  2  0  0  0  0  0  0
  188.6600  178.3350  142.6520 O   0  0  0  0  0  0  0  0  0  0  0  0
  188.1450  177.2920  142.1710 C   0  0  0  0  0  0  0  0  0  0  0  0
  185.7570  178.1370  142.5720 C   0  0  2  0  0  3  0  0  0  0  0  0
  184.7130  179.5190  140.5070 O   0  0  0  0  0  0  0  0  0  0  0  0
  184.4410  178.3190  141.3730 S   0  0  0  0  0  0  0  0  0  0  0  0
  184.3960  177.0770  140.5170 O   0  0  0  0  0  0  0  0  0  0  0  0
  182.9300  178.5310  142.2000 N   0  0  0  0  0  2  0  0  0  0  0  0
  181.8660  178.4000  141.2170 C   0  0  0  0  0  2  0  0  0  0  0  0
  180.8180  179.4720  141.4600 C   0  0  0  0  0  1  0  0  0  0  0  0
  185.8170  180.1550  143.8630 O   0  0  0  0  0  1  0  0  0  0  0  0
  186.4240  179.4920  142.7970 C   0  0  0  0  0  2  0  0  0  0  0  0
  195.2370  176.5460  142.8730 O   0  0  0  0  0  0  0  0  0  0  0  0
  196.0940  176.6230  141.7640 C   0  0  0  0  0  1  0  0  0  0  0  0
  195.4180  170.5820  144.5080 N   0  0  0  0  0  2  0  0  0  0  0  0
  197.9240  169.7870  144.2620 O   0  0  0  0  0  0  0  0  0  0  0  0
  197.0640  170.7510  145.0320 S   0  0  0  0  0  0  0  0  0  0  0  0
  197.1880  170.4660  146.5050 O   0  0  0  0  0  0  0  0  0  0  0  0
  197.5760  172.3800  144.7330 N   0  0  0  0  0  2  0  0  0  0  0  0
  197.0370  173.2240  145.7880 C   0  0  0  0  0  2  0  0  0  0  0  0
  196.3500  174.4450  145.1900 C   0  0  0  0  0  2  0  0  0  0  0  0
  194.6940  175.7370  146.5560 C   0  0  0  0  0  2  0  0  0  0  0  0
  193.2280  175.8800  146.8670 C   0  0  0  0  0  3  0  0  0  0  0  0
  194.9900  174.5900  145.6910 N   0  0  0  0  0  0  0  0  0  0  0  0
  194.0060  173.5860  145.3970 C   0  0  0  0  0  3  0  0  0  0  0  0
  192.3390  174.9440  146.5340 C   0  0  0  0  0  3  0  0  0  0  0  0
  192.7450  173.7370  145.7990 C   0  0  0  0  0  3  0  0  0  0  0  0
  195.6190  168.1660  142.1160 C   0  0  0  0  0  2  0  0  0  0  0  0
  197.4140  168.7110  140.5670 N   0  0  0  0  0  1  0  0  0  0  0  0
  195.9770  168.8000  140.7870 C   0  0  0  0  0  2  0  0  0  0  0  0
  1  6  1  0  0  0  0
  1 15  1  0  0  0  0
  2 12  1  0  0  0  0
  2 51  1  6  0  0  0
  3 21  1  0  0  0  0
  3 22  1  1  0  0  0
  4 20  1  0  0  0  0
  5 13  1  0  0  0  0
  5 10  1  0  0  0  0
  6 38  1  6  0  0  0
  6  3  1  0  0  0  0
  7 23  1  0  0  0  0
  8  5  2  0  0  0  0
  9 11  1  0  0  0  0
 10 11  1  0  0  0  0
 11 53  1  1  0  0  0
 12  4  1  0  0  0  0
 13  9  1  0  0  0  0
 14  7  1  0  0  0  0
 14  2  1  0  0  0  0
 15  8  1  0  0  0  0
 15  7  2  0  0  0  0
 16 12  2  0  0  0  0
 17 41  1  1  0  0  0
 17 25  1  0  0  0  0
 18 17  1  0  0  0  0
 19 20  1  6  0  0  0
 19 28  1  0  0  0  0
 21 18  1  6  0  0  0
 21 24  1  0  0  0  0
 23 10  2  0  0  0  0
 25 22  1  6  0  0  0
 25 24  1  0  0  0  0
 25 19  1  0  0  0  0
 28 30  1  6  0  0  0
 28 31  1  0  0  0  0
 29 32  1  6  0  0  0
 29 26  1  0  0  0  0
 30 29  1  0  0  0  0
 31 26  1  0  0  0  0
 31 27  1  1  0  0  0
 32 33  2  0  0  0  0
 34 35  1  0  0  0  0
 35 33  1  0  0  0  0
 36 38  1  0  0  0  0
 37 38  2  0  0  0  0
 39 41  1  0  0  0  0
 39 42  1  0  0  0  0
 41 40  2  0  0  0  0
 42 50  1  6  0  0  0
 43 44  2  0  0  0  0
 44 46  1  0  0  0  0
 44 42  1  0  0  0  0
 45 44  2  0  0  0  0
 47 48  1  0  0  0  0
 47 46  1  0  0  0  0
 50 49  1  0  0  0  0
 52 51  1  0  0  0  0
 53 55  1  0  0  0  0
 54 55  2  0  0  0  0
 55 56  2  0  0  0  0
 57 55  1  0  0  0  0
 57 58  1  0  0  0  0
 59 62  1  0  0  0  0
 59 58  1  0  0  0  0
 60 61  1  0  0  0  0
 62 60  1  0  0  0  0
 63 62  1  0  0  0  0
 63 65  2  0  0  0  0
 64 61  2  0  0  0  0
 65 64  1  0  0  0  0
 66  9  1  0  0  0  0
 67 68  1  0  0  0  0
 68 66  1  0  0  0  0
M  END
>  <MODEL>
7

>  <REMARK>
 VINA RESULT:      -3.6      3.604     10.113
  Name = 
  19 active torsions:
  status: ('A' for Active; 'I' for Inactive)
    1  A    between atoms: N_1  and  C_51
    2  A    between atoms: C_2  and  C_21
    3  A    between atoms: C_3  and  C_37
    4  A    between atoms: C_9  and  O_40
    5  A    between atoms: C_16  and  C_44
    6  A    between atoms: C_20  and  C_57
    7  A    between atoms: C_22  and  N_54
    8  A    between atoms: N_23  and  C_24
    9  A    between atoms: N_23  and  S_50
   10  A    between atoms: C_24  and  C_31
   11  A    between atoms: C_26  and  C_45
   12  A    between atoms: N_27  and  C_45
   13  A    between atoms: C_30  and  N_33
   14  A    between atoms: C_31  and  N_34
   15  A    between atoms: C_32  and  C_51
   16  A    between atoms: N_33  and  S_50
   17  A    between atoms: C_51  and  S_65
   18  A    between atoms: C_52  and  C_63
   19  A    between atoms: N_54  and  S_65
                            x       y       z     vdW  Elec       q    Type
                         _______ _______ _______ _____ _____    ______ ____

>  <TORSDO>
F 19

$$$$
=
 OpenBabel11062419033D

 68 74  0  0  1  0  0  0  0  0999 V2000
  193.8050  172.6500  143.6230 C   0  0  0  0  0  2  0  0  0  0  0  0
  194.9600  175.8860  141.6240 C   0  0  1  0  0  3  0  0  0  0  0  0
  192.2310  171.9040  141.7500 N   0  0  2  0  0  0  0  0  0  0  0  0
  194.4970  174.9500  139.3070 N   0  0  0  0  0  2  0  0  0  0  0  0
  191.0180  174.9830  144.7180 C   0  0  0  0  0  0  0  0  0  0  0  0
  193.0820  171.4960  142.8890 C   0  0  2  0  0  3  0  0  0  0  0  0
  193.5470  175.1800  143.5750 C   0  0  0  0  0  0  0  0  0  0  0  0
  191.7250  173.8100  144.4610 C   0  0  0  0  0  3  0  0  0  0  0  0
  189.4400  176.5740  145.4360 N   0  0  0  0  0  0  0  0  0  0  0  0
  191.5330  176.2040  144.4220 C   0  0  0  0  0  0  0  0  0  0  0  0
  190.6110  177.2700  144.8720 C   0  0  1  0  0  3  0  0  0  0  0  0
  195.1410  174.8200  140.5770 C   0  0  0  0  0  0  0  0  0  0  0  0
  189.7090  175.1250  145.3780 C   0  0  0  0  0  2  0  0  0  0  0  0
  194.9440  175.3360  143.0570 C   0  0  0  0  0  2  0  0  0  0  0  0
  192.9960  173.9000  143.8570 C   0  0  0  0  0  0  0  0  0  0  0  0
  195.8400  173.7980  140.8220 O   0  0  0  0  0  0  0  0  0  0  0  0
  194.0750  171.2230  139.6110 C   0  0  2  0  0  3  0  0  0  0  0  0
  193.3680  170.1350  140.4290 C   0  0  0  0  0  2  0  0  0  0  0  0
  193.1550  173.4180  138.4460 C   0  0  2  0  0  3  0  0  0  0  0  0
  194.4760  173.9080  138.4360 O   0  0  0  0  0  0  0  0  0  0  0  0
  192.0190  170.7930  140.7960 C   0  0  2  0  0  3  0  0  0  0  0  0
  192.8820  172.9240  140.9180 C   0  0  0  0  0  2  0  0  0  0  0  0
  192.8080  176.3380  143.8690 C   0  0  0  0  0  3  0  0  0  0  0  0
  191.7150  171.5160  139.5110 C   0  0  0  0  0  2  0  0  0  0  0  0
  192.9890  172.3150  139.5300 C   0  0  2  0  0  0  0  0  0  0  0  0
  191.5610  173.4630  135.1010 C   0  0  0  0  0  2  0  0  0  0  0  0
  193.7190  174.3780  135.4070 O   0  0  0  0  0  1  0  0  0  0  0  0
  192.7780  172.9230  137.0400 C   0  0  1  0  0  3  0  0  0  0  0  0
  191.0190  172.2420  135.8120 C   0  0  2  0  0  3  0  0  0  0  0  0
  191.6210  172.1260  137.0790 O   0  0  0  0  0  0  0  0  0  0  0  0
  192.5320  174.0550  136.0710 C   0  0  2  0  0  3  0  0  0  0  0  0
  191.2910  171.0190  135.0000 C   0  0  0  0  0  3  0  0  0  0  0  0
  191.1520  169.8030  135.5320 C   0  0  0  0  0  3  0  0  0  0  0  0
  192.7960  168.2890  134.7430 O   0  0  0  0  0  1  0  0  0  0  0  0
  191.4300  168.5850  134.7180 C   0  0  0  0  0  2  0  0  0  0  0  0
  192.9550  169.4860  144.4420 N   0  0  0  0  0  1  0  0  0  0  0  0
  191.1380  170.8950  144.1370 O   0  0  0  0  0  0  0  0  0  0  0  0
  192.3330  170.6210  143.8490 C   0  0  0  0  0  0  0  0  0  0  0  0
  195.8830  170.8810  137.8380 N   0  0  0  0  0  2  0  0  0  0  0  0
  193.7070  170.0740  137.5560 O   0  0  0  0  0  0  0  0  0  0  0  0
  194.5290  170.7000  138.2740 C   0  0  0  0  0  0  0  0  0  0  0  0
  196.4600  170.2900  136.6360 C   0  0  2  0  0  3  0  0  0  0  0  0
  197.9410  171.1330  134.5490 O   0  0  0  0  0  0  0  0  0  0  0  0
  196.8740  171.6060  135.4980 S   0  0  0  0  0  0  0  0  0  0  0  0
  195.6350  171.9790  134.7210 O   0  0  0  0  0  0  0  0  0  0  0  0
  197.4580  172.9780  136.3870 N   0  0  0  0  0  2  0  0  0  0  0  0
  196.8790  174.1710  135.7890 C   0  0  0  0  0  2  0  0  0  0  0  0
  197.9140  174.8450  134.9050 C   0  0  0  0  0  1  0  0  0  0  0  0
  196.1070  168.5580  135.0180 O   0  0  0  0  0  1  0  0  0  0  0  0
  195.4620  169.3440  135.9710 C   0  0  0  0  0  2  0  0  0  0  0  0
  195.8270  176.9890  141.4540 O   0  0  0  0  0  0  0  0  0  0  0  0
  197.1420  176.5870  141.7330 C   0  0  0  0  0  1  0  0  0  0  0  0
  190.1860  178.0880  143.7430 N   0  0  0  0  0  2  0  0  0  0  0  0
  188.0180  176.5830  143.8490 O   0  0  0  0  0  0  0  0  0  0  0  0
  188.9350  177.2610  142.8680 S   0  0  0  0  0  0  0  0  0  0  0  0
  189.5240  176.2320  141.9400 O   0  0  0  0  0  0  0  0  0  0  0  0
  188.0550  178.4220  141.9290 N   0  0  0  0  0  2  0  0  0  0  0  0
  186.6660  178.3930  142.3620 C   0  0  0  0  0  2  0  0  0  0  0  0
  186.4030  179.5070  143.3680 C   0  0  0  0  0  2  0  0  0  0  0  0
  184.2780  179.3190  144.6830 C   0  0  0  0  0  2  0  0  0  0  0  0
  183.6260  178.6070  145.8380 C   0  0  0  0  0  3  0  0  0  0  0  0
  185.7040  179.0060  144.5450 N   0  0  0  0  0  0  0  0  0  0  0  0
  186.4290  178.2970  145.5620 C   0  0  0  0  0  3  0  0  0  0  0  0
  184.3320  177.9180  146.7350 C   0  0  0  0  0  3  0  0  0  0  0  0
  185.7910  177.7840  146.6120 C   0  0  0  0  0  3  0  0  0  0  0  0
  189.3510  176.9410  146.8410 C   0  0  0  0  0  2  0  0  0  0  0  0
  191.0060  176.4930  148.5670 N   0  0  0  0  0  1  0  0  0  0  0  0
  190.0160  175.8780  147.6920 C   0  0  0  0  0  2  0  0  0  0  0  0
  1 15  1  0  0  0  0
  2 51  1  1  0  0  0
  2 14  1  0  0  0  0
  3 22  1  6  0  0  0
  3  6  1  0  0  0  0
  4 12  1  0  0  0  0
  5 13  1  0  0  0  0
  6  1  1  0  0  0  0
  6 38  1  1  0  0  0
  7 15  1  0  0  0  0
  7 23  2  0  0  0  0
  8  5  1  0  0  0  0
  9 66  1  0  0  0  0
 10  5  2  0  0  0  0
 10 11  1  0  0  0  0
 11 53  1  6  0  0  0
 11  9  1  0  0  0  0
 12 16  2  0  0  0  0
 12  2  1  0  0  0  0
 13  9  1  0  0  0  0
 14  7  1  0  0  0  0
 15  8  2  0  0  0  0
 17 41  1  6  0  0  0
 17 18  1  0  0  0  0
 18 21  1  0  0  0  0
 19 20  1  6  0  0  0
 19 25  1  0  0  0  0
 20  4  1  0  0  0  0
 21 24  1  6  0  0  0
 21  3  1  0  0  0  0
 23 10  1  0  0  0  0
 25 24  1  6  0  0  0
 25 17  1  0  0  0  0
 25 22  1  0  0  0  0
 26 29  1  0  0  0  0
 26 31  1  0  0  0  0
 28 30  1  1  0  0  0
 28 19  1  0  0  0  0
 29 32  1  6  0  0  0
 29 30  1  0  0  0  0
 31 27  1  6  0  0  0
 31 28  1  0  0  0  0
 32 33  2  0  0  0  0
 35 34  1  0  0  0  0
 35 33  1  0  0  0  0
 38 37  2  0  0  0  0
 38 36  1  0  0  0  0
 39 41  1  0  0  0  0
 40 41  2  0  0  0  0
 42 50  1  6  0  0  0
 42 39  1  0  0  0  0
 43 44  2  0  0  0  0
 44 46  1  0  0  0  0
 44 42  1  0  0  0  0
 45 44  2  0  0  0  0
 47 46  1  0  0  0  0
 48 47  1  0  0  0  0
 49 50  1  0  0  0  0
 51 52  1  0  0  0  0
 55 53  1  0  0  0  0
 55 54  2  0  0  0  0
 56 55  2  0  0  0  0
 57 58  1  0  0  0  0
 57 55  1  0  0  0  0
 58 59  1  0  0  0  0
 59 62  1  0  0  0  0
 60 61  1  0  0  0  0
 61 64  2  0  0  0  0
 62 60  1  0  0  0  0
 62 63  1  0  0  0  0
 63 65  2  0  0  0  0
 65 64  1  0  0  0  0
 66 68  1  0  0  0  0
 68 67  1  0  0  0  0
M  END
>  <MODEL>
8

>  <REMARK>
 VINA RESULT:      -3.0      2.417      5.988
  Name = 
  19 active torsions:
  status: ('A' for Active; 'I' for Inactive)
    1  A    between atoms: N_1  and  C_51
    2  A    between atoms: C_2  and  C_21
    3  A    between atoms: C_3  and  C_37
    4  A    between atoms: C_9  and  O_40
    5  A    between atoms: C_16  and  C_44
    6  A    between atoms: C_20  and  C_57
    7  A    between atoms: C_22  and  N_54
    8  A    between atoms: N_23  and  C_24
    9  A    between atoms: N_23  and  S_50
   10  A    between atoms: C_24  and  C_31
   11  A    between atoms: C_26  and  C_45
   12  A    between atoms: N_27  and  C_45
   13  A    between atoms: C_30  and  N_33
   14  A    between atoms: C_31  and  N_34
   15  A    between atoms: C_32  and  C_51
   16  A    between atoms: N_33  and  S_50
   17  A    between atoms: C_51  and  S_65
   18  A    between atoms: C_52  and  C_63
   19  A    between atoms: N_54  and  S_65
                            x       y       z     vdW  Elec       q    Type
                         _______ _______ _______ _____ _____    ______ ____

>  <TORSDO>
F 19

$$$$
=
 OpenBabel11062419033D

 68 74  0  0  1  0  0  0  0  0999 V2000
  194.3530  173.5250  143.8010 C   0  0  0  0  0  2  0  0  0  0  0  0
  191.5880  171.2560  142.0650 C   0  0  1  0  0  3  0  0  0  0  0  0
  193.0810  175.6840  143.2860 N   0  0  2  0  0  0  0  0  0  0  0  0
  189.6590  172.8730  142.4110 N   0  0  0  0  0  2  0  0  0  0  0  0
  195.6550  173.7180  140.2400 C   0  0  0  0  0  0  0  0  0  0  0  0
  194.0350  174.9900  144.1800 C   0  0  2  0  0  3  0  0  0  0  0  0
  193.9180  172.1280  141.7210 C   0  0  0  0  0  0  0  0  0  0  0  0
  195.4480  174.0290  141.5830 C   0  0  0  0  0  3  0  0  0  0  0  0
  196.4370  173.6280  138.0230 N   0  0  0  0  0  0  0  0  0  0  0  0
  195.0290  172.6680  139.6490 C   0  0  0  0  0  0  0  0  0  0  0  0
  195.4920  172.5200  138.2510 C   0  0  1  0  0  3  0  0  0  0  0  0
  190.7370  172.1130  142.9630 C   0  0  0  0  0  0  0  0  0  0  0  0
  196.5760  174.3670  139.2920 C   0  0  0  0  0  2  0  0  0  0  0  0
  193.0570  171.1850  142.5060 C   0  0  0  0  0  2  0  0  0  0  0  0
  194.5490  173.2450  142.3330 C   0  0  0  0  0  0  0  0  0  0  0  0
  190.9840  172.1840  144.1990 O   0  0  0  0  0  0  0  0  0  0  0  0
  190.7160  175.4350  144.9550 C   0  0  2  0  0  3  0  0  0  0  0  0
  191.8630  176.3830  145.3340 C   0  0  0  0  0  2  0  0  0  0  0  0
  189.4360  175.0580  142.6670 C   0  0  2  0  0  3  0  0  0  0  0  0
  189.0190  173.8070  143.1620 O   0  0  0  0  0  0  0  0  0  0  0  0
  192.4210  176.8230  143.9620 C   0  0  2  0  0  3  0  0  0  0  0  0
  191.9480  174.8240  142.9210 C   0  0  0  0  0  2  0  0  0  0  0  0
  194.1700  171.8370  140.3700 C   0  0  0  0  0  3  0  0  0  0  0  0
  191.1400  176.9690  143.1840 C   0  0  0  0  0  2  0  0  0  0  0  0
  190.7070  175.5480  143.4180 C   0  0  2  0  0  0  0  0  0  0  0  0
  186.4180  176.9260  141.6020 C   0  0  0  0  0  2  0  0  0  0  0  0
  186.2060  174.8830  142.7740 O   0  0  0  0  0  1  0  0  0  0  0  0
  188.2750  176.0610  142.7580 C   0  0  1  0  0  3  0  0  0  0  0  0
  187.4960  177.9620  141.8360 C   0  0  2  0  0  3  0  0  0  0  0  0
  188.6670  177.3300  142.2960 O   0  0  0  0  0  0  0  0  0  0  0  0
  187.0670  175.6290  141.9620 C   0  0  2  0  0  3  0  0  0  0  0  0
  187.0270  178.9660  142.8370 C   0  0  0  0  0  3  0  0  0  0  0  0
  185.7780  178.9290  143.3040 C   0  0  0  0  0  3  0  0  0  0  0  0
  185.6410  181.2270  143.8690 O   0  0  0  0  0  1  0  0  0  0  0  0
  185.3140  179.9380  144.3000 C   0  0  0  0  0  2  0  0  0  0  0  0
  196.4990  175.1650  144.7810 N   0  0  0  0  0  1  0  0  0  0  0  0
  195.2700  177.0330  144.1680 O   0  0  0  0  0  0  0  0  0  0  0  0
  195.2880  175.7910  144.3730 C   0  0  0  0  0  0  0  0  0  0  0  0
  188.9490  177.1900  145.5240 N   0  0  0  0  0  2  0  0  0  0  0  0
  188.7550  174.9690  146.2260 O   0  0  0  0  0  0  0  0  0  0  0  0
  189.4260  175.8410  145.6150 C   0  0  0  0  0  0  0  0  0  0  0  0
  187.6490  177.6510  145.9970 C   0  0  2  0  0  3  0  0  0  0  0  0
  186.7110  179.0510  148.1010 O   0  0  0  0  0  0  0  0  0  0  0  0
  187.7920  178.0720  147.7310 S   0  0  0  0  0  0  0  0  0  0  0  0
  187.6350  176.8110  148.5460 O   0  0  0  0  0  0  0  0  0  0  0  0
  189.3460  178.7860  148.0270 N   0  0  0  0  0  2  0  0  0  0  0  0
  189.9770  178.0410  149.1050 C   0  0  0  0  0  2  0  0  0  0  0  0
  191.3770  177.6300  148.6830 C   0  0  0  0  0  1  0  0  0  0  0  0
  185.3230  177.0780  146.0430 O   0  0  0  0  0  1  0  0  0  0  0  0
  186.5980  176.5570  145.8290 C   0  0  0  0  0  2  0  0  0  0  0  0
  191.0190  169.9910  141.7960 O   0  0  0  0  0  0  0  0  0  0  0  0
  191.8740  169.2750  140.9430 C   0  0  0  0  0  1  0  0  0  0  0  0
  194.3720  172.6470  137.3260 N   0  0  0  0  0  2  0  0  0  0  0  0
  194.6790  170.0560  136.9170 O   0  0  0  0  0  0  0  0  0  0  0  0
  194.4160  171.3420  136.1830 S   0  0  0  0  0  0  0  0  0  0  0  0
  195.4990  171.5650  135.1600 O   0  0  0  0  0  0  0  0  0  0  0  0
  192.8870  171.2650  135.3690 N   0  0  0  0  0  2  0  0  0  0  0  0
  192.5980  172.5840  134.8280 C   0  0  0  0  0  2  0  0  0  0  0  0
  191.1350  172.9420  135.0610 C   0  0  0  0  0  2  0  0  0  0  0  0
  189.9040  171.1940  136.3670 C   0  0  0  0  0  2  0  0  0  0  0  0
  189.6240  170.6940  137.7590 C   0  0  0  0  0  3  0  0  0  0  0  0
  190.6650  172.4480  136.3480 N   0  0  0  0  0  0  0  0  0  0  0  0
  190.8860  173.2210  137.5380 C   0  0  0  0  0  3  0  0  0  0  0  0
  189.8890  171.4260  138.8410 C   0  0  0  0  0  3  0  0  0  0  0  0
  190.5130  172.7520  138.7270 C   0  0  0  0  0  3  0  0  0  0  0  0
  197.7320  173.0380  137.7220 C   0  0  0  0  0  2  0  0  0  0  0  0
  197.9260  171.0810  139.1540 N   0  0  0  0  0  1  0  0  0  0  0  0
  197.6380  171.5280  137.7970 C   0  0  0  0  0  2  0  0  0  0  0  0
  1  6  1  0  0  0  0
  2 51  1  1  0  0  0
  2 14  1  0  0  0  0
  2 12  1  0  0  0  0
  3 22  1  1  0  0  0
  3 21  1  0  0  0  0
  3  6  1  0  0  0  0
  4 12  1  0  0  0  0
  4 20  1  0  0  0  0
  5  8  1  0  0  0  0
  6 38  1  6  0  0  0
  7 15  1  0  0  0  0
  7 14  1  0  0  0  0
  8 15  2  0  0  0  0
  9 11  1  0  0  0  0
  9 13  1  0  0  0  0
 10  5  2  0  0  0  0
 10 23  1  0  0  0  0
 11 53  1  6  0  0  0
 11 10  1  0  0  0  0
 12 16  2  0  0  0  0
 13  5  1  0  0  0  0
 15  1  1  0  0  0  0
 17 18  1  0  0  0  0
 17 41  1  1  0  0  0
 19 28  1  0  0  0  0
 19 20  1  1  0  0  0
 19 25  1  0  0  0  0
 21 24  1  6  0  0  0
 21 18  1  0  0  0  0
 23  7  2  0  0  0  0
 24 25  1  0  0  0  0
 25 22  1  6  0  0  0
 25 17  1  0  0  0  0
 26 29  1  0  0  0  0
 26 31  1  0  0  0  0
 28 30  1  6  0  0  0
 29 30  1  0  0  0  0
 29 32  1  1  0  0  0
 31 28  1  0  0  0  0
 31 27  1  1  0  0  0
 32 33  2  0  0  0  0
 33 35  1  0  0  0  0
 34 35  1  0  0  0  0
 37 38  2  0  0  0  0
 38 36  1  0  0  0  0
 39 41  1  0  0  0  0
 39 42  1  0  0  0  0
 41 40  2  0  0  0  0
 42 50  1  1  0  0  0
 42 44  1  0  0  0  0
 44 46  1  0  0  0  0
 44 43  2  0  0  0  0
 44 45  2  0  0  0  0
 46 47  1  0  0  0  0
 48 47  1  0  0  0  0
 50 49  1  0  0  0  0
 52 51  1  0  0  0  0
 55 54  2  0  0  0  0
 55 53  1  0  0  0  0
 56 55  2  0  0  0  0
 57 55  1  0  0  0  0
 58 59  1  0  0  0  0
 58 57  1  0  0  0  0
 59 62  1  0  0  0  0
 60 61  1  0  0  0  0
 61 64  2  0  0  0  0
 62 60  1  0  0  0  0
 62 63  1  0  0  0  0
 63 65  2  0  0  0  0
 65 64  1  0  0  0  0
 66 68  1  0  0  0  0
 66  9  1  0  0  0  0
 68 67  1  0  0  0  0
M  END
>  <MODEL>
9

>  <REMARK>
 VINA RESULT:      -2.9      2.359     10.897
  Name = 
  19 active torsions:
  status: ('A' for Active; 'I' for Inactive)
    1  A    between atoms: N_1  and  C_51
    2  A    between atoms: C_2  and  C_21
    3  A    between atoms: C_3  and  C_37
    4  A    between atoms: C_9  and  O_40
    5  A    between atoms: C_16  and  C_44
    6  A    between atoms: C_20  and  C_57
    7  A    between atoms: C_22  and  N_54
    8  A    between atoms: N_23  and  C_24
    9  A    between atoms: N_23  and  S_50
   10  A    between atoms: C_24  and  C_31
   11  A    between atoms: C_26  and  C_45
   12  A    between atoms: N_27  and  C_45
   13  A    between atoms: C_30  and  N_33
   14  A    between atoms: C_31  and  N_34
   15  A    between atoms: C_32  and  C_51
   16  A    between atoms: N_33  and  S_50
   17  A    between atoms: C_51  and  S_65
   18  A    between atoms: C_52  and  C_63
   19  A    between atoms: N_54  and  S_65
                            x       y       z     vdW  Elec       q    Type
                         _______ _______ _______ _____ _____    ______ ____

>  <TORSDO>
F 19

$$$$
