=
 OpenBabel11062420373D

 32 36  0  0  1  0  0  0  0  0999 V2000
  191.4400  175.9380  146.4180 N   0  0  2  0  0  0  0  0  0  0  0  0
  189.7940  177.5490  147.2130 C   0  0  0  0  0  2  0  0  0  0  0  0
  189.5730  177.2960  145.7490 C   0  0  1  0  0  3  0  0  0  0  0  0
  190.3470  176.0330  145.4530 C   0  0  0  0  0  2  0  0  0  0  0  0
  191.0340  176.7530  147.5700 C   0  0  0  0  0  2  0  0  0  0  0  0
  185.4140  176.8410  144.8130 C   0  0  0  0  0  3  0  0  0  0  0  0
  185.7650  177.3530  142.3840 C   0  0  1  0  0  3  0  0  0  0  0  0
  185.8660  176.6840  146.0830 N   0  0  0  0  0  0  0  0  0  0  0  0
  187.1800  176.8330  146.3960 C   0  0  0  0  0  3  0  0  0  0  0  0
  186.8490  177.3380  141.3410 C   0  0  0  0  0  0  0  0  0  0  0  0
  188.6350  177.5580  142.9850 C   0  0  0  0  0  3  0  0  0  0  0  0
  186.5440  177.1820  140.1300 O   0  0  0  0  0  0  0  0  0  0  0  0
  186.3030  177.1510  143.7800 C   0  0  0  0  0  0  0  0  0  0  0  0
  187.6730  177.3020  144.0770 C   0  0  0  0  0  0  0  0  0  0  0  0
  188.2540  177.5610  141.7090 C   0  0  0  0  0  3  0  0  0  0  0  0
  188.1170  177.1540  145.4030 C   0  0  0  0  0  0  0  0  0  0  0  0
  185.0470  178.6160  142.3120 N   0  0  0  0  0  2  0  0  0  0  0  0
  183.6480  178.2980  142.0750 C   0  0  0  0  0  2  0  0  0  0  0  0
  183.3550  178.3210  140.5890 C   0  0  0  0  0  2  0  0  0  0  0  0
  182.0360  177.9280  140.3580 O   0  0  0  0  0  1  0  0  0  0  0  0
  194.3140  176.2880  144.1320 C   0  0  1  0  0  3  0  0  0  0  0  0
  195.8010  175.3130  142.3960 C   0  0  0  0  0  3  0  0  0  0  0  0
  196.3550  174.8320  144.7420 C   0  0  0  0  0  2  0  0  0  0  0  0
  195.3670  175.8940  145.2170 C   0  0  2  0  0  3  0  0  0  0  0  0
  194.7450  175.4380  146.4000 O   0  0  0  0  0  0  0  0  0  0  0  0
  194.6030  175.8110  142.7270 C   0  0  0  0  0  0  0  0  0  0  0  0
  193.8400  176.4330  146.8130 C   0  0  0  0  0  2  0  0  0  0  0  0
  192.6500  176.5320  145.8320 C   0  0  1  0  0  3  0  0  0  0  0  0
  196.9170  175.2260  143.3870 C   0  0  0  0  0  2  0  0  0  0  0  0
  192.9770  175.8780  144.5550 N   0  0  0  0  0  2  0  0  0  0  0  0
  193.0100  174.8290  141.2420 O   0  0  0  0  0  1  0  0  0  0  0  0
  193.5950  175.9150  141.7650 O   0  0  0  0  0  0  0  0  0  0  0  0
  1  4  1  6  0  0  0
  1  5  1  0  0  0  0
  2  5  1  0  0  0  0
  3 16  1  1  0  0  0
  3  2  1  0  0  0  0
  4  3  1  0  0  0  0
  6  8  1  0  0  0  0
  7 17  1  1  0  0  0
  7 13  1  0  0  0  0
  8  9  2  0  0  0  0
 10 15  1  0  0  0  0
 10  7  1  0  0  0  0
 11 14  1  0  0  0  0
 12 10  2  0  0  0  0
 13 14  1  0  0  0  0
 13  6  2  0  0  0  0
 14 16  2  0  0  0  0
 15 11  2  0  0  0  0
 16  9  1  0  0  0  0
 18 17  1  0  0  0  0
 19 18  1  0  0  0  0
 20 19  1  0  0  0  0
 21 26  1  6  0  0  0
 21 30  1  0  0  0  0
 21 24  1  0  0  0  0
 22 26  2  0  0  0  0
 22 29  1  0  0  0  0
 24 23  1  6  0  0  0
 24 25  1  0  0  0  0
 25 27  1  0  0  0  0
 28  1  1  0  0  0  0
 28 27  1  1  0  0  0
 29 23  1  0  0  0  0
 30 28  1  0  0  0  0
 31 32  1  0  0  0  0
 32 26  1  0  0  0  0
M  END
>  <MODEL>
1

>  <REMARK>
 VINA RESULT:      -7.8      0.000      0.000
  Name = 
  6 active torsions:
  status: ('A' for Active; 'I' for Inactive)
    1  A    between atoms: C_3  and  C_6
    2  A    between atoms: C_3  and  N_19
    3  A    between atoms: C_4  and  N_19
    4  A    between atoms: N_11  and  C_24
    5  A    between atoms: C_16  and  O_26
    6  A    between atoms: C_20  and  C_32
                            x       y       z     vdW  Elec       q    Type
                         _______ _______ _______ _____ _____    ______ ____

>  <TORSDO>
F 6

$$$$
=
 OpenBabel11062420373D

 32 36  0  0  1  0  0  0  0  0999 V2000
  190.1290  177.2950  146.1120 N   0  0  2  0  0  0  0  0  0  0  0  0
  191.2040  175.6800  147.5870 C   0  0  0  0  0  2  0  0  0  0  0  0
  191.5310  175.3420  146.1600 C   0  0  1  0  0  3  0  0  0  0  0  0
  191.1730  176.5840  145.3770 C   0  0  0  0  0  2  0  0  0  0  0  0
  190.2440  176.8520  147.5070 C   0  0  0  0  0  2  0  0  0  0  0  0
  195.6610  174.3240  145.6220 C   0  0  0  0  0  3  0  0  0  0  0  0
  195.1220  172.0550  144.7020 C   0  0  1  0  0  3  0  0  0  0  0  0
  195.2990  175.5240  146.1420 N   0  0  0  0  0  0  0  0  0  0  0  0
  193.9940  175.8580  146.3250 C   0  0  0  0  0  3  0  0  0  0  0  0
  193.9980  171.3130  144.0330 C   0  0  0  0  0  0  0  0  0  0  0  0
  192.2850  172.7790  144.9580 C   0  0  0  0  0  3  0  0  0  0  0  0
  194.2590  170.3460  143.2700 O   0  0  0  0  0  0  0  0  0  0  0  0
  194.6870  173.3950  145.2450 C   0  0  0  0  0  0  0  0  0  0  0  0
  193.3260  173.7210  145.4180 C   0  0  0  0  0  0  0  0  0  0  0  0
  192.5960  171.6630  144.3010 C   0  0  0  0  0  3  0  0  0  0  0  0
  192.9740  174.9620  145.9760 C   0  0  0  0  0  0  0  0  0  0  0  0
  195.6620  171.2400  145.7790 N   0  0  0  0  0  2  0  0  0  0  0  0
  197.0350  170.9210  145.4250 C   0  0  0  0  0  2  0  0  0  0  0  0
  197.3530  169.4910  145.8170 C   0  0  0  0  0  2  0  0  0  0  0  0
  196.8320  169.2180  147.0820 O   0  0  0  0  0  1  0  0  0  0  0  0
  186.9230  177.5660  144.3050 C   0  0  1  0  0  3  0  0  0  0  0  0
  185.2390  178.9640  143.1320 C   0  0  0  0  0  3  0  0  0  0  0  0
  185.0760  178.8380  145.5810 C   0  0  0  0  0  2  0  0  0  0  0  0
  186.0720  177.6810  145.6100 C   0  0  2  0  0  3  0  0  0  0  0  0
  186.8900  177.8150  146.7530 O   0  0  0  0  0  0  0  0  0  0  0  0
  186.4460  178.3870  143.1300 C   0  0  0  0  0  0  0  0  0  0  0  0
  187.7960  176.7390  146.7520 C   0  0  0  0  0  2  0  0  0  0  0  0
  188.8160  176.8810  145.5990 C   0  0  1  0  0  3  0  0  0  0  0  0
  184.2940  178.8070  144.2800 C   0  0  0  0  0  2  0  0  0  0  0  0
  188.3290  177.8420  144.5960 N   0  0  0  0  0  2  0  0  0  0  0  0
  187.3400  177.5850  141.0650 O   0  0  0  0  0  1  0  0  0  0  0  0
  187.2880  178.5210  142.0230 O   0  0  0  0  0  0  0  0  0  0  0  0
  1  4  1  6  0  0  0
  1  5  1  0  0  0  0
  3 16  1  1  0  0  0
  3  2  1  0  0  0  0
  4  3  1  0  0  0  0
  5  2  1  0  0  0  0
  6  8  1  0  0  0  0
  7 13  1  0  0  0  0
  7 17  1  1  0  0  0
  8  9  2  0  0  0  0
 10 15  1  0  0  0  0
 10  7  1  0  0  0  0
 11 14  1  0  0  0  0
 12 10  2  0  0  0  0
 13 14  1  0  0  0  0
 13  6  2  0  0  0  0
 14 16  2  0  0  0  0
 15 11  2  0  0  0  0
 16  9  1  0  0  0  0
 18 17  1  0  0  0  0
 18 19  1  0  0  0  0
 19 20  1  0  0  0  0
 21 26  1  6  0  0  0
 21 30  1  0  0  0  0
 21 24  1  0  0  0  0
 22 29  1  0  0  0  0
 24 23  1  6  0  0  0
 24 25  1  0  0  0  0
 26 22  2  0  0  0  0
 27 25  1  0  0  0  0
 28  1  1  0  0  0  0
 28 27  1  1  0  0  0
 29 23  1  0  0  0  0
 30 28  1  0  0  0  0
 31 32  1  0  0  0  0
 32 26  1  0  0  0  0
M  END
>  <MODEL>
2

>  <REMARK>
 VINA RESULT:      -7.5      3.203      9.388
  Name = 
  6 active torsions:
  status: ('A' for Active; 'I' for Inactive)
    1  A    between atoms: C_3  and  C_6
    2  A    between atoms: C_3  and  N_19
    3  A    between atoms: C_4  and  N_19
    4  A    between atoms: N_11  and  C_24
    5  A    between atoms: C_16  and  O_26
    6  A    between atoms: C_20  and  C_32
                            x       y       z     vdW  Elec       q    Type
                         _______ _______ _______ _____ _____    ______ ____

>  <TORSDO>
F 6

$$$$
=
 OpenBabel11062420373D

 32 36  0  0  1  0  0  0  0  0999 V2000
  188.1250  176.8140  146.3370 N   0  0  2  0  0  0  0  0  0  0  0  0
  189.7130  175.0650  146.9350 C   0  0  0  0  0  2  0  0  0  0  0  0
  190.1900  175.7630  145.6940 C   0  0  1  0  0  3  0  0  0  0  0  0
  189.3880  177.0420  145.6370 C   0  0  0  0  0  2  0  0  0  0  0  0
  188.3670  175.6890  147.2490 C   0  0  0  0  0  2  0  0  0  0  0  0
  194.3970  176.5780  145.8090 C   0  0  0  0  0  3  0  0  0  0  0  0
  194.7200  175.9630  143.4000 C   0  0  1  0  0  3  0  0  0  0  0  0
  193.6260  176.7300  146.9150 N   0  0  0  0  0  0  0  0  0  0  0  0
  192.2920  176.4690  146.8950 C   0  0  0  0  0  3  0  0  0  0  0  0
  193.9400  175.8440  142.1200 C   0  0  0  0  0  0  0  0  0  0  0  0
  191.8190  175.5080  143.2720 C   0  0  0  0  0  3  0  0  0  0  0  0
  194.5300  175.9920  141.0180 O   0  0  0  0  0  0  0  0  0  0  0  0
  193.8300  176.1560  144.6040 C   0  0  0  0  0  0  0  0  0  0  0  0
  192.4460  175.8850  144.5560 C   0  0  0  0  0  0  0  0  0  0  0  0
  192.5120  175.5010  142.1350 C   0  0  0  0  0  3  0  0  0  0  0  0
  191.6690  176.0320  145.7180 C   0  0  0  0  0  0  0  0  0  0  0  0
  195.5360  174.7710  143.5790 N   0  0  0  0  0  2  0  0  0  0  0  0
  196.8710  175.2180  143.9380 C   0  0  0  0  0  2  0  0  0  0  0  0
  197.3190  176.3220  143.0020 C   0  0  0  0  0  2  0  0  0  0  0  0
  197.9410  175.7710  141.8810 O   0  0  0  0  0  1  0  0  0  0  0  0
  186.2120  176.8350  143.1820 C   0  0  1  0  0  3  0  0  0  0  0  0
  185.6390  177.9420  141.0330 C   0  0  0  0  0  3  0  0  0  0  0  0
  184.4100  178.6760  143.0320 C   0  0  0  0  0  2  0  0  0  0  0  0
  184.9470  177.4870  143.8260 C   0  0  2  0  0  3  0  0  0  0  0  0
  185.1960  177.9030  145.1520 O   0  0  0  0  0  0  0  0  0  0  0  0
  186.5260  177.2580  141.7660 C   0  0  0  0  0  0  0  0  0  0  0  0
  185.6900  176.7910  145.8580 C   0  0  0  0  0  2  0  0  0  0  0  0
  187.1030  176.4100  145.3610 C   0  0  1  0  0  3  0  0  0  0  0  0
  184.2880  178.2980  141.5660 C   0  0  0  0  0  2  0  0  0  0  0  0
  187.3730  177.0230  144.0510 N   0  0  0  0  0  2  0  0  0  0  0  0
  188.0700  175.6310  140.9420 O   0  0  0  0  0  1  0  0  0  0  0  0
  187.7640  176.9060  141.2220 O   0  0  0  0  0  0  0  0  0  0  0  0
  1  4  1  6  0  0  0
  1  5  1  0  0  0  0
  2  5  1  0  0  0  0
  3 16  1  1  0  0  0
  3  2  1  0  0  0  0
  4  3  1  0  0  0  0
  6  8  1  0  0  0  0
  7 17  1  1  0  0  0
  7 13  1  0  0  0  0
  9  8  2  0  0  0  0
 10 15  1  0  0  0  0
 10  7  1  0  0  0  0
 11 14  1  0  0  0  0
 12 10  2  0  0  0  0
 13  6  2  0  0  0  0
 14 13  1  0  0  0  0
 14 16  2  0  0  0  0
 15 11  2  0  0  0  0
 16  9  1  0  0  0  0
 17 18  1  0  0  0  0
 19 18  1  0  0  0  0
 20 19  1  0  0  0  0
 21 26  1  6  0  0  0
 21 24  1  0  0  0  0
 21 30  1  0  0  0  0
 22 29  1  0  0  0  0
 22 26  2  0  0  0  0
 24 23  1  6  0  0  0
 24 25  1  0  0  0  0
 25 27  1  0  0  0  0
 28 27  1  1  0  0  0
 28  1  1  0  0  0  0
 29 23  1  0  0  0  0
 30 28  1  0  0  0  0
 31 32  1  0  0  0  0
 32 26  1  0  0  0  0
M  END
>  <MODEL>
3

>  <REMARK>
 VINA RESULT:      -7.5      2.041      8.477
  Name = 
  6 active torsions:
  status: ('A' for Active; 'I' for Inactive)
    1  A    between atoms: C_3  and  C_6
    2  A    between atoms: C_3  and  N_19
    3  A    between atoms: C_4  and  N_19
    4  A    between atoms: N_11  and  C_24
    5  A    between atoms: C_16  and  O_26
    6  A    between atoms: C_20  and  C_32
                            x       y       z     vdW  Elec       q    Type
                         _______ _______ _______ _____ _____    ______ ____

>  <TORSDO>
F 6

$$$$
=
 OpenBabel11062420373D

 32 36  0  0  1  0  0  0  0  0999 V2000
  194.4010  175.3360  144.4870 N   0  0  2  0  0  0  0  0  0  0  0  0
  193.4470  176.7050  146.2620 C   0  0  0  0  0  2  0  0  0  0  0  0
  192.3870  176.4110  145.2400 C   0  0  1  0  0  3  0  0  0  0  0  0
  192.9420  175.2670  144.4250 C   0  0  0  0  0  2  0  0  0  0  0  0
  194.7180  176.0950  145.7030 C   0  0  0  0  0  2  0  0  0  0  0  0
  188.6450  175.3510  147.0440 C   0  0  0  0  0  3  0  0  0  0  0  0
  187.3150  176.6850  145.3900 C   0  0  1  0  0  3  0  0  0  0  0  0
  189.8190  174.9000  147.5530 N   0  0  0  0  0  0  0  0  0  0  0  0
  191.0130  175.2340  146.9970 C   0  0  0  0  0  3  0  0  0  0  0  0
  187.4260  177.2540  144.0020 C   0  0  0  0  0  0  0  0  0  0  0  0
  189.8610  177.3300  144.0720 C   0  0  0  0  0  3  0  0  0  0  0  0
  186.3850  177.4320  143.3180 O   0  0  0  0  0  0  0  0  0  0  0  0
  188.6340  176.1710  145.9120 C   0  0  0  0  0  0  0  0  0  0  0  0
  189.8600  176.5250  145.3110 C   0  0  0  0  0  0  0  0  0  0  0  0
  188.7280  177.6590  143.4540 C   0  0  0  0  0  3  0  0  0  0  0  0
  191.0650  176.0610  145.8660 C   0  0  0  0  0  0  0  0  0  0  0  0
  186.7960  177.7060  146.2870 N   0  0  0  0  0  2  0  0  0  0  0  0
  185.5200  177.2230  146.7910 C   0  0  0  0  0  2  0  0  0  0  0  0
  184.4360  178.2490  146.5290 C   0  0  0  0  0  2  0  0  0  0  0  0
  184.9250  179.2530  145.6920 O   0  0  0  0  0  1  0  0  0  0  0  0
  195.4630  175.9470  141.0070 C   0  0  1  0  0  3  0  0  0  0  0  0
  196.0990  175.0590  138.7760 C   0  0  0  0  0  3  0  0  0  0  0  0
  197.8730  175.1960  140.4720 C   0  0  0  0  0  2  0  0  0  0  0  0
  196.9790  176.0470  141.3710 C   0  0  2  0  0  3  0  0  0  0  0  0
  197.2140  175.6870  142.7160 O   0  0  0  0  0  0  0  0  0  0  0  0
  195.1430  175.2950  139.6810 C   0  0  0  0  0  0  0  0  0  0  0  0
  196.3770  176.4830  143.5190 C   0  0  0  0  0  2  0  0  0  0  0  0
  194.8950  176.0890  143.3260 C   0  0  1  0  0  3  0  0  0  0  0  0
  197.5230  175.4480  139.0160 C   0  0  0  0  0  2  0  0  0  0  0  0
  194.7250  175.3040  142.0930 N   0  0  0  0  0  2  0  0  0  0  0  0
  193.4360  174.5390  138.1900 O   0  0  0  0  0  1  0  0  0  0  0  0
  193.8160  174.9550  139.4070 O   0  0  0  0  0  0  0  0  0  0  0  0
  1  4  1  6  0  0  0
  1  5  1  0  0  0  0
  3 16  1  1  0  0  0
  3  2  1  0  0  0  0
  4  3  1  0  0  0  0
  5  2  1  0  0  0  0
  6  8  1  0  0  0  0
  7 13  1  0  0  0  0
  7 17  1  1  0  0  0
  9  8  2  0  0  0  0
 10  7  1  0  0  0  0
 11 14  1  0  0  0  0
 12 10  2  0  0  0  0
 13  6  2  0  0  0  0
 14 16  2  0  0  0  0
 14 13  1  0  0  0  0
 15 10  1  0  0  0  0
 15 11  2  0  0  0  0
 16  9  1  0  0  0  0
 17 18  1  0  0  0  0
 19 18  1  0  0  0  0
 20 19  1  0  0  0  0
 21 26  1  6  0  0  0
 21 24  1  0  0  0  0
 21 30  1  0  0  0  0
 22 29  1  0  0  0  0
 22 26  2  0  0  0  0
 24 23  1  6  0  0  0
 24 25  1  0  0  0  0
 25 27  1  0  0  0  0
 28 27  1  1  0  0  0
 28  1  1  0  0  0  0
 29 23  1  0  0  0  0
 30 28  1  0  0  0  0
 31 32  1  0  0  0  0
 32 26  1  0  0  0  0
M  END
>  <MODEL>
4

>  <REMARK>
 VINA RESULT:      -7.5      2.435      3.832
  Name = 
  6 active torsions:
  status: ('A' for Active; 'I' for Inactive)
    1  A    between atoms: C_3  and  C_6
    2  A    between atoms: C_3  and  N_19
    3  A    between atoms: C_4  and  N_19
    4  A    between atoms: N_11  and  C_24
    5  A    between atoms: C_16  and  O_26
    6  A    between atoms: C_20  and  C_32
                            x       y       z     vdW  Elec       q    Type
                         _______ _______ _______ _____ _____    ______ ____

>  <TORSDO>
F 6

$$$$
=
 OpenBabel11062420373D

 32 36  0  0  1  0  0  0  0  0999 V2000
  191.5730  173.3660  142.8650 N   0  0  2  0  0  0  0  0  0  0  0  0
  189.1690  172.9670  142.8900 C   0  0  0  0  0  2  0  0  0  0  0  0
  189.4400  174.3880  143.2970 C   0  0  1  0  0  3  0  0  0  0  0  0
  190.8670  174.6460  142.8740 C   0  0  0  0  0  2  0  0  0  0  0  0
  190.5370  172.3350  142.7230 C   0  0  0  0  0  2  0  0  0  0  0  0
  186.7590  177.1640  141.4310 C   0  0  0  0  0  3  0  0  0  0  0  0
  186.0010  178.1140  143.6240 C   0  0  1  0  0  3  0  0  0  0  0  0
  187.4980  176.3010  140.6900 N   0  0  0  0  0  0  0  0  0  0  0  0
  188.3470  175.4100  141.2670 C   0  0  0  0  0  3  0  0  0  0  0  0
  186.4590  178.2460  145.0500 C   0  0  0  0  0  0  0  0  0  0  0  0
  187.9160  176.2970  144.9140 C   0  0  0  0  0  3  0  0  0  0  0  0
  186.0520  179.2120  145.7470 O   0  0  0  0  0  0  0  0  0  0  0  0
  186.8620  177.1670  142.8240 C   0  0  0  0  0  0  0  0  0  0  0  0
  187.7420  176.2580  143.4480 C   0  0  0  0  0  0  0  0  0  0  0  0
  187.3300  177.2320  145.6600 C   0  0  0  0  0  3  0  0  0  0  0  0
  188.4850  175.3590  142.6610 C   0  0  0  0  0  0  0  0  0  0  0  0
  184.6200  177.6590  143.6020 N   0  0  0  0  0  2  0  0  0  0  0  0
  183.8360  178.7020  142.9620 C   0  0  0  0  0  2  0  0  0  0  0  0
  183.2750  178.1970  141.6480 C   0  0  0  0  0  2  0  0  0  0  0  0
  181.8810  178.2600  141.6710 O   0  0  0  0  0  1  0  0  0  0  0  0
  194.2530  173.5790  145.3920 C   0  0  1  0  0  3  0  0  0  0  0  0
  196.6200  174.0660  145.9670 C   0  0  0  0  0  3  0  0  0  0  0  0
  196.1120  171.8080  145.1380 C   0  0  0  0  0  2  0  0  0  0  0  0
  194.6150  172.0620  145.2960 C   0  0  2  0  0  3  0  0  0  0  0  0
  193.9320  171.4330  144.2320 O   0  0  0  0  0  0  0  0  0  0  0  0
  195.4120  174.5220  145.6170 C   0  0  0  0  0  0  0  0  0  0  0  0
  192.5590  171.6850  144.4030 C   0  0  0  0  0  2  0  0  0  0  0  0
  192.2420  173.1790  144.1600 C   0  0  1  0  0  3  0  0  0  0  0  0
  196.8790  172.6080  146.1760 C   0  0  0  0  0  2  0  0  0  0  0  0
  193.4710  173.9850  144.2250 N   0  0  0  0  0  2  0  0  0  0  0  0
  194.6040  176.6180  146.4320 O   0  0  0  0  0  1  0  0  0  0  0  0
  195.1950  175.8950  145.4700 O   0  0  0  0  0  0  0  0  0  0  0  0
  1  5  1  1  0  0  0
  1  4  1  0  0  0  0
  1 28  1  0  0  0  0
  2  3  1  0  0  0  0
  3 16  1  6  0  0  0
  4  3  1  0  0  0  0
  5  2  1  0  0  0  0
  6 13  1  0  0  0  0
  7 17  1  1  0  0  0
  7 10  1  0  0  0  0
  8  9  1  0  0  0  0
  8  6  2  0  0  0  0
  9 16  2  0  0  0  0
 10 15  1  0  0  0  0
 10 12  2  0  0  0  0
 11 15  2  0  0  0  0
 13 14  2  0  0  0  0
 13  7  1  0  0  0  0
 14 11  1  0  0  0  0
 16 14  1  0  0  0  0
 18 17  1  0  0  0  0
 19 20  1  0  0  0  0
 19 18  1  0  0  0  0
 21 30  1  6  0  0  0
 21 26  1  0  0  0  0
 22 29  1  0  0  0  0
 23 29  1  0  0  0  0
 24 23  1  6  0  0  0
 24 21  1  0  0  0  0
 25 27  1  0  0  0  0
 25 24  1  0  0  0  0
 26 22  2  0  0  0  0
 28 30  1  0  0  0  0
 28 27  1  6  0  0  0
 32 26  1  0  0  0  0
 32 31  1  0  0  0  0
M  END
>  <MODEL>
5

>  <REMARK>
 VINA RESULT:      -7.3      2.761      3.908
  Name = 
  6 active torsions:
  status: ('A' for Active; 'I' for Inactive)
    1  A    between atoms: C_3  and  C_6
    2  A    between atoms: C_3  and  N_19
    3  A    between atoms: C_4  and  N_19
    4  A    between atoms: N_11  and  C_24
    5  A    between atoms: C_16  and  O_26
    6  A    between atoms: C_20  and  C_32
                            x       y       z     vdW  Elec       q    Type
                         _______ _______ _______ _____ _____    ______ ____

>  <TORSDO>
F 6

$$$$
=
 OpenBabel11062420373D

 32 36  0  0  1  0  0  0  0  0999 V2000
  190.0260  177.2340  146.1520 N   0  0  2  0  0  0  0  0  0  0  0  0
  191.6220  175.4150  146.4330 C   0  0  0  0  0  2  0  0  0  0  0  0
  191.6970  175.9260  145.0230 C   0  0  1  0  0  3  0  0  0  0  0  0
  190.9940  177.2630  145.0570 C   0  0  0  0  0  2  0  0  0  0  0  0
  190.4940  176.1960  147.0790 C   0  0  0  0  0  2  0  0  0  0  0  0
  195.7390  176.3420  143.6550 C   0  0  0  0  0  3  0  0  0  0  0  0
  195.2620  175.1990  141.4750 C   0  0  1  0  0  3  0  0  0  0  0  0
  195.3630  176.7990  144.8760 N   0  0  0  0  0  0  0  0  0  0  0  0
  194.0880  176.6680  145.3260 C   0  0  0  0  0  3  0  0  0  0  0  0
  194.1120  174.8850  140.5580 C   0  0  0  0  0  0  0  0  0  0  0  0
  192.4620  175.0060  142.3480 C   0  0  0  0  0  3  0  0  0  0  0  0
  194.3220  174.7380  139.3260 O   0  0  0  0  0  0  0  0  0  0  0  0
  194.8070  175.7280  142.8140 C   0  0  0  0  0  0  0  0  0  0  0  0
  193.4740  175.5870  143.2540 C   0  0  0  0  0  0  0  0  0  0  0  0
  192.7550  174.6910  141.0880 C   0  0  0  0  0  3  0  0  0  0  0  0
  193.1120  176.0510  144.5310 C   0  0  0  0  0  0  0  0  0  0  0  0
  196.0640  174.0010  141.6680 N   0  0  0  0  0  2  0  0  0  0  0  0
  197.4380  174.3500  141.3430 C   0  0  0  0  0  2  0  0  0  0  0  0
  197.7250  174.0310  139.8900 C   0  0  0  0  0  2  0  0  0  0  0  0
  197.9410  175.2120  139.1780 O   0  0  0  0  0  1  0  0  0  0  0  0
  186.7950  177.5600  144.4000 C   0  0  1  0  0  3  0  0  0  0  0  0
  185.0660  179.0010  143.3470 C   0  0  0  0  0  3  0  0  0  0  0  0
  184.9340  178.6930  145.7820 C   0  0  0  0  0  2  0  0  0  0  0  0
  185.9550  177.5600  145.7170 C   0  0  2  0  0  3  0  0  0  0  0  0
  186.7830  177.6300  146.8590 O   0  0  0  0  0  0  0  0  0  0  0  0
  186.2870  178.4530  143.2920 C   0  0  0  0  0  0  0  0  0  0  0  0
  187.7130  176.5790  146.7720 C   0  0  0  0  0  2  0  0  0  0  0  0
  188.7160  176.8280  145.6220 C   0  0  1  0  0  3  0  0  0  0  0  0
  184.1380  178.7380  144.4890 C   0  0  0  0  0  2  0  0  0  0  0  0
  188.1970  177.8470  144.6960 N   0  0  0  0  0  2  0  0  0  0  0  0
  187.3980  177.7170  141.3090 O   0  0  0  0  0  1  0  0  0  0  0  0
  187.1130  178.6870  142.1890 O   0  0  0  0  0  0  0  0  0  0  0  0
  1  4  1  6  0  0  0
  1  5  1  0  0  0  0
  2  5  1  0  0  0  0
  3 16  1  1  0  0  0
  3  4  1  0  0  0  0
  3  2  1  0  0  0  0
  6  8  1  0  0  0  0
  7 17  1  1  0  0  0
  7 13  1  0  0  0  0
  8  9  2  0  0  0  0
 10 15  1  0  0  0  0
 10  7  1  0  0  0  0
 11 14  1  0  0  0  0
 12 10  2  0  0  0  0
 13 14  1  0  0  0  0
 13  6  2  0  0  0  0
 14 16  2  0  0  0  0
 15 11  2  0  0  0  0
 16  9  1  0  0  0  0
 18 17  1  0  0  0  0
 19 18  1  0  0  0  0
 20 19  1  0  0  0  0
 21 26  1  6  0  0  0
 21 30  1  0  0  0  0
 21 24  1  0  0  0  0
 22 29  1  0  0  0  0
 24 23  1  6  0  0  0
 24 25  1  0  0  0  0
 26 22  2  0  0  0  0
 27 25  1  0  0  0  0
 28  1  1  0  0  0  0
 28 27  1  1  0  0  0
 29 23  1  0  0  0  0
 30 28  1  0  0  0  0
 31 32  1  0  0  0  0
 32 26  1  0  0  0  0
M  END
>  <MODEL>
6

>  <REMARK>
 VINA RESULT:      -7.1      2.481      8.726
  Name = 
  6 active torsions:
  status: ('A' for Active; 'I' for Inactive)
    1  A    between atoms: C_3  and  C_6
    2  A    between atoms: C_3  and  N_19
    3  A    between atoms: C_4  and  N_19
    4  A    between atoms: N_11  and  C_24
    5  A    between atoms: C_16  and  O_26
    6  A    between atoms: C_20  and  C_32
                            x       y       z     vdW  Elec       q    Type
                         _______ _______ _______ _____ _____    ______ ____

>  <TORSDO>
F 6

$$$$
=
 OpenBabel11062420373D

 32 36  0  0  1  0  0  0  0  0999 V2000
  193.4810  175.6160  145.8830 N   0  0  2  0  0  0  0  0  0  0  0  0
  192.0140  177.1300  144.6620 C   0  0  0  0  0  2  0  0  0  0  0  0
  191.2930  175.8370  144.9120 C   0  0  1  0  0  3  0  0  0  0  0  0
  192.1020  175.1440  145.9840 C   0  0  0  0  0  2  0  0  0  0  0  0
  193.4150  176.9140  145.2010 C   0  0  0  0  0  2  0  0  0  0  0  0
  187.2300  176.3820  146.1690 C   0  0  0  0  0  3  0  0  0  0  0  0
  186.4890  177.1500  143.9000 C   0  0  1  0  0  3  0  0  0  0  0  0
  188.1800  175.9580  147.0400 N   0  0  0  0  0  0  0  0  0  0  0  0
  189.4740  175.7870  146.6580 C   0  0  0  0  0  3  0  0  0  0  0  0
  186.8980  177.0620  142.4550 C   0  0  0  0  0  0  0  0  0  0  0  0
  189.2440  176.6740  142.9930 C   0  0  0  0  0  3  0  0  0  0  0  0
  186.0220  177.1440  141.5560 O   0  0  0  0  0  0  0  0  0  0  0  0
  187.5600  176.6460  144.8370 C   0  0  0  0  0  0  0  0  0  0  0  0
  188.8940  176.4690  144.4130 C   0  0  0  0  0  0  0  0  0  0  0  0
  188.3130  176.9370  142.0770 C   0  0  0  0  0  3  0  0  0  0  0  0
  189.8660  176.0460  145.3370 C   0  0  0  0  0  0  0  0  0  0  0  0
  186.1640  178.5310  144.2240 N   0  0  0  0  0  2  0  0  0  0  0  0
  184.7220  178.6030  144.3860 C   0  0  0  0  0  2  0  0  0  0  0  0
  184.3710  178.7410  145.8540 C   0  0  0  0  0  2  0  0  0  0  0  0
  185.4330  179.3300  146.5430 O   0  0  0  0  0  1  0  0  0  0  0  0
  194.8010  172.3880  144.6800 C   0  0  1  0  0  3  0  0  0  0  0  0
  195.1560  169.9540  145.0340 C   0  0  0  0  0  3  0  0  0  0  0  0
  196.8090  171.4810  146.0230 C   0  0  0  0  0  2  0  0  0  0  0  0
  196.2430  172.6500  145.2210 C   0  0  2  0  0  3  0  0  0  0  0  0
  196.2930  173.8150  146.0190 O   0  0  0  0  0  0  0  0  0  0  0  0
  194.3150  170.9590  144.7610 C   0  0  0  0  0  0  0  0  0  0  0  0
  195.7650  174.8720  145.2560 C   0  0  0  0  0  2  0  0  0  0  0  0
  194.2450  174.6860  145.0400 C   0  0  1  0  0  3  0  0  0  0  0  0
  196.6170  170.1890  145.2490 C   0  0  0  0  0  2  0  0  0  0  0  0
  193.8500  173.2960  145.3190 N   0  0  0  0  0  2  0  0  0  0  0  0
  192.5270  170.2770  143.3290 O   0  0  0  0  0  1  0  0  0  0  0  0
  192.9620  170.6990  144.5250 O   0  0  0  0  0  0  0  0  0  0  0  0
  1  5  1  6  0  0  0
  1  4  1  0  0  0  0
  2  3  1  0  0  0  0
  2  5  1  0  0  0  0
  3 16  1  1  0  0  0
  3  4  1  0  0  0  0
  6  8  1  0  0  0  0
  7 17  1  1  0  0  0
  7 13  1  0  0  0  0
  9  8  2  0  0  0  0
 10  7  1  0  0  0  0
 11 14  1  0  0  0  0
 12 10  2  0  0  0  0
 13  6  2  0  0  0  0
 14 13  1  0  0  0  0
 14 16  2  0  0  0  0
 15 10  1  0  0  0  0
 15 11  2  0  0  0  0
 16  9  1  0  0  0  0
 17 18  1  0  0  0  0
 18 19  1  0  0  0  0
 19 20  1  0  0  0  0
 21 26  1  1  0  0  0
 21 24  1  0  0  0  0
 21 30  1  0  0  0  0
 22 29  1  0  0  0  0
 24 25  1  0  0  0  0
 24 23  1  1  0  0  0
 26 22  2  0  0  0  0
 27 25  1  0  0  0  0
 28 27  1  1  0  0  0
 28 30  1  0  0  0  0
 28  1  1  0  0  0  0
 29 23  1  0  0  0  0
 31 32  1  0  0  0  0
 32 26  1  0  0  0  0
M  END
>  <MODEL>
7

>  <REMARK>
 VINA RESULT:      -6.9      2.799      3.480
  Name = 
  6 active torsions:
  status: ('A' for Active; 'I' for Inactive)
    1  A    between atoms: C_3  and  C_6
    2  A    between atoms: C_3  and  N_19
    3  A    between atoms: C_4  and  N_19
    4  A    between atoms: N_11  and  C_24
    5  A    between atoms: C_16  and  O_26
    6  A    between atoms: C_20  and  C_32
                            x       y       z     vdW  Elec       q    Type
                         _______ _______ _______ _____ _____    ______ ____

>  <TORSDO>
F 6

$$$$
=
 OpenBabel11062420373D

 32 36  0  0  1  0  0  0  0  0999 V2000
  191.9400  172.0800  142.9920 N   0  0  2  0  0  0  0  0  0  0  0  0
  189.5090  172.1980  143.1080 C   0  0  0  0  0  2  0  0  0  0  0  0
  190.0960  173.4010  143.7890 C   0  0  1  0  0  3  0  0  0  0  0  0
  191.5340  173.4430  143.3280 C   0  0  0  0  0  2  0  0  0  0  0  0
  190.6990  171.3480  142.7090 C   0  0  0  0  0  2  0  0  0  0  0  0
  188.0480  177.0260  142.7680 C   0  0  0  0  0  3  0  0  0  0  0  0
  187.4750  177.5340  145.1560 C   0  0  1  0  0  3  0  0  0  0  0  0
  188.6070  176.2450  141.8100 N   0  0  0  0  0  0  0  0  0  0  0  0
  189.2520  175.0900  142.1170 C   0  0  0  0  0  3  0  0  0  0  0  0
  187.9350  177.2150  146.5520 C   0  0  0  0  0  0  0  0  0  0  0  0
  188.9710  175.1120  145.8850 C   0  0  0  0  0  3  0  0  0  0  0  0
  187.7230  178.0390  147.4790 O   0  0  0  0  0  0  0  0  0  0  0  0
  188.1350  176.6630  144.1150 C   0  0  0  0  0  0  0  0  0  0  0  0
  188.8080  175.4720  144.4620 C   0  0  0  0  0  0  0  0  0  0  0  0
  188.5770  175.9300  146.8590 C   0  0  0  0  0  3  0  0  0  0  0  0
  189.3630  174.6690  143.4500 C   0  0  0  0  0  0  0  0  0  0  0  0
  186.0300  177.3810  145.0790 N   0  0  0  0  0  2  0  0  0  0  0  0
  185.4640  178.7150  144.9640 C   0  0  0  0  0  2  0  0  0  0  0  0
  184.1540  178.7910  145.7220 C   0  0  0  0  0  2  0  0  0  0  0  0
  184.3330  178.3280  147.0260 O   0  0  0  0  0  1  0  0  0  0  0  0
  194.6650  171.1390  145.2950 C   0  0  1  0  0  3  0  0  0  0  0  0
  197.0950  170.9590  145.7750 C   0  0  0  0  0  3  0  0  0  0  0  0
  196.0610  169.1070  144.5330 C   0  0  0  0  0  2  0  0  0  0  0  0
  194.6670  169.6400  144.8550 C   0  0  2  0  0  3  0  0  0  0  0  0
  193.8300  169.4260  143.7380 O   0  0  0  0  0  0  0  0  0  0  0  0
  196.0150  171.7330  145.6230 C   0  0  0  0  0  0  0  0  0  0  0  0
  192.5560  169.9270  144.0630 C   0  0  0  0  0  2  0  0  0  0  0  0
  192.5830  171.4690  144.1640 C   0  0  1  0  0  3  0  0  0  0  0  0
  197.0190  169.4700  145.6540 C   0  0  0  0  0  2  0  0  0  0  0  0
  193.9660  171.9540  144.3030 N   0  0  0  0  0  2  0  0  0  0  0  0
  197.0620  173.6670  146.5570 O   0  0  0  0  0  1  0  0  0  0  0  0
  196.1140  173.1180  145.7840 O   0  0  0  0  0  0  0  0  0  0  0  0
  1  5  1  1  0  0  0
  1  4  1  0  0  0  0
  1 28  1  0  0  0  0
  2  3  1  0  0  0  0
  3 16  1  6  0  0  0
  4  3  1  0  0  0  0
  5  2  1  0  0  0  0
  6 13  1  0  0  0  0
  7 17  1  1  0  0  0
  7 10  1  0  0  0  0
  8  9  1  0  0  0  0
  8  6  2  0  0  0  0
  9 16  2  0  0  0  0
 10 15  1  0  0  0  0
 10 12  2  0  0  0  0
 11 15  2  0  0  0  0
 13 14  2  0  0  0  0
 13  7  1  0  0  0  0
 14 11  1  0  0  0  0
 16 14  1  0  0  0  0
 18 17  1  0  0  0  0
 18 19  1  0  0  0  0
 19 20  1  0  0  0  0
 21 30  1  6  0  0  0
 21 26  1  0  0  0  0
 23 29  1  0  0  0  0
 24 23  1  6  0  0  0
 24 21  1  0  0  0  0
 25 27  1  0  0  0  0
 25 24  1  0  0  0  0
 26 22  2  0  0  0  0
 26 32  1  0  0  0  0
 28 27  1  6  0  0  0
 28 30  1  0  0  0  0
 29 22  1  0  0  0  0
 32 31  1  0  0  0  0
M  END
>  <MODEL>
8

>  <REMARK>
 VINA RESULT:      -6.9      4.040      5.282
  Name = 
  6 active torsions:
  status: ('A' for Active; 'I' for Inactive)
    1  A    between atoms: C_3  and  C_6
    2  A    between atoms: C_3  and  N_19
    3  A    between atoms: C_4  and  N_19
    4  A    between atoms: N_11  and  C_24
    5  A    between atoms: C_16  and  O_26
    6  A    between atoms: C_20  and  C_32
                            x       y       z     vdW  Elec       q    Type
                         _______ _______ _______ _____ _____    ______ ____

>  <TORSDO>
F 6

$$$$
=
 OpenBabel11062420373D

 32 36  0  0  1  0  0  0  0  0999 V2000
  191.7380  173.7190  141.5320 N   0  0  2  0  0  0  0  0  0  0  0  0
  189.4070  173.1390  141.9380 C   0  0  0  0  0  2  0  0  0  0  0  0
  189.7780  174.3200  142.7880 C   0  0  1  0  0  3  0  0  0  0  0  0
  191.0660  174.8370  142.1900 C   0  0  0  0  0  2  0  0  0  0  0  0
  190.6900  172.7330  141.2400 C   0  0  0  0  0  2  0  0  0  0  0  0
  186.7460  177.3510  142.7780 C   0  0  0  0  0  3  0  0  0  0  0  0
  186.7700  177.5730  145.2750 C   0  0  1  0  0  3  0  0  0  0  0  0
  187.1760  176.7890  141.6200 N   0  0  0  0  0  0  0  0  0  0  0  0
  188.1310  175.8210  141.6080 C   0  0  0  0  0  3  0  0  0  0  0  0
  187.6660  177.3110  146.4540 C   0  0  0  0  0  0  0  0  0  0  0  0
  188.9280  175.5790  145.2930 C   0  0  0  0  0  3  0  0  0  0  0  0
  187.5410  178.0050  147.4960 O   0  0  0  0  0  0  0  0  0  0  0  0
  187.2920  176.9540  144.0020 C   0  0  0  0  0  0  0  0  0  0  0  0
  188.2910  175.9580  144.0160 C   0  0  0  0  0  0  0  0  0  0  0  0
  188.6470  176.2180  146.4280 C   0  0  0  0  0  3  0  0  0  0  0  0
  188.7070  175.3750  142.8060 C   0  0  0  0  0  0  0  0  0  0  0  0
  185.4380  177.0610  145.5600 N   0  0  0  0  0  2  0  0  0  0  0  0
  184.6030  178.2040  145.8910 C   0  0  0  0  0  2  0  0  0  0  0  0
  184.0170  178.8010  144.6280 C   0  0  0  0  0  2  0  0  0  0  0  0
  184.7160  179.9580  144.2810 O   0  0  0  0  0  1  0  0  0  0  0  0
  194.1690  173.5550  144.3030 C   0  0  1  0  0  3  0  0  0  0  0  0
  195.6440  174.7190  145.9280 C   0  0  0  0  0  3  0  0  0  0  0  0
  196.5570  174.3120  143.6820 C   0  0  0  0  0  2  0  0  0  0  0  0
  195.4000  173.3700  143.3580 C   0  0  2  0  0  3  0  0  0  0  0  0
  195.0430  173.5400  142.0020 O   0  0  0  0  0  0  0  0  0  0  0  0
  194.4070  174.3870  145.5420 C   0  0  0  0  0  0  0  0  0  0  0  0
  193.9760  172.6640  141.7330 C   0  0  0  0  0  2  0  0  0  0  0  0
  192.6950  173.1160  142.4710 C   0  0  1  0  0  3  0  0  0  0  0  0
  196.8520  174.2660  145.1710 C   0  0  0  0  0  2  0  0  0  0  0  0
  193.0260  174.0640  143.5470 N   0  0  0  0  0  2  0  0  0  0  0  0
  193.1720  176.0570  146.7230 O   0  0  0  0  0  1  0  0  0  0  0  0
  193.3030  174.7920  146.2960 O   0  0  0  0  0  0  0  0  0  0  0  0
  1  5  1  1  0  0  0
  1  4  1  0  0  0  0
  1 28  1  0  0  0  0
  2  3  1  0  0  0  0
  3 16  1  6  0  0  0
  4  3  1  0  0  0  0
  5  2  1  0  0  0  0
  6 13  1  0  0  0  0
  7 17  1  1  0  0  0
  7 10  1  0  0  0  0
  8  6  2  0  0  0  0
  9  8  1  0  0  0  0
  9 16  2  0  0  0  0
 10 12  2  0  0  0  0
 11 15  2  0  0  0  0
 13 14  2  0  0  0  0
 13  7  1  0  0  0  0
 14 11  1  0  0  0  0
 15 10  1  0  0  0  0
 16 14  1  0  0  0  0
 17 18  1  0  0  0  0
 19 18  1  0  0  0  0
 20 19  1  0  0  0  0
 21 30  1  6  0  0  0
 21 26  1  0  0  0  0
 23 29  1  0  0  0  0
 24 23  1  1  0  0  0
 24 21  1  0  0  0  0
 25 24  1  0  0  0  0
 26 22  2  0  0  0  0
 26 32  1  0  0  0  0
 27 25  1  0  0  0  0
 28 27  1  6  0  0  0
 28 30  1  0  0  0  0
 29 22  1  0  0  0  0
 32 31  1  0  0  0  0
M  END
>  <MODEL>
9

>  <REMARK>
 VINA RESULT:      -6.8      2.861      4.390
  Name = 
  6 active torsions:
  status: ('A' for Active; 'I' for Inactive)
    1  A    between atoms: C_3  and  C_6
    2  A    between atoms: C_3  and  N_19
    3  A    between atoms: C_4  and  N_19
    4  A    between atoms: N_11  and  C_24
    5  A    between atoms: C_16  and  O_26
    6  A    between atoms: C_20  and  C_32
                            x       y       z     vdW  Elec       q    Type
                         _______ _______ _______ _____ _____    ______ ____

>  <TORSDO>
F 6

$$$$
