=
 OpenBabel11062418443D

 43 47  0  0  1  0  0  0  0  0999 V2000
  184.4200  178.3270  145.8590 O   0  0  0  0  0  0  0  0  0  0  0  0
  185.3900  178.1420  145.0750 C   0  0  0  0  0  0  0  0  0  0  0  0
  185.8720  177.6260  141.3640 C   0  0  0  0  0  0  0  0  0  0  0  0
  183.8700  178.2800  143.1500 N   0  0  0  0  0  0  0  0  0  0  0  0
  183.5710  178.2080  141.8250 C   0  0  0  0  0  0  0  0  0  0  0  0
  185.1210  178.0190  143.6270 C   0  0  0  0  0  0  0  0  0  0  0  0
  186.1450  177.6960  142.7300 C   0  0  0  0  0  3  0  0  0  0  0  0
  184.5730  177.8720  140.9060 C   0  0  0  0  0  3  0  0  0  0  0  0
  182.1990  178.4930  141.3830 C   0  0  0  0  0  3  0  0  0  0  0  0
  181.7290  178.0020  140.2830 N   0  0  0  0  0  2  0  0  0  0  0  0
  186.9680  177.2770  140.4130 C   0  0  0  0  0  2  0  0  0  0  0  0
  187.6230  175.1920  138.5960 O   0  0  0  0  0  0  0  0  0  0  0  0
  187.5680  176.0020  140.7840 N   0  0  0  0  0  2  0  0  0  0  0  0
  187.9620  175.0400  139.8020 C   0  0  0  0  0  0  0  0  0  0  0  0
  190.4920  172.2480  139.7210 C   0  0  0  0  0  0  0  0  0  0  0  0
  189.2370  171.8240  143.0210 O   0  0  0  0  0  0  0  0  0  0  0  0
  188.6360  173.3430  141.4460 N   0  0  0  0  0  0  0  0  0  0  0  0
  191.4000  171.7100  138.8730 F   0  0  0  0  0  0  0  0  0  0  0  0
  189.7150  173.3350  139.3130 C   0  0  0  0  0  2  0  0  0  0  0  0
  190.3320  171.7190  141.0020 C   0  0  0  0  0  3  0  0  0  0  0  0
  189.3880  172.2870  141.8620 C   0  0  0  0  0  0  0  0  0  0  0  0
  188.7750  173.8800  140.1990 C   0  0  0  0  0  0  0  0  0  0  0  0
  186.6800  178.0750  145.6150 O   0  0  0  0  0  0  0  0  0  0  0  0
  187.3710  176.8500  145.8210 C   0  0  0  0  0  2  0  0  0  0  0  0
  191.8040  175.2720  147.0730 C   0  0  0  0  0  0  0  0  0  0  0  0
  188.8010  177.1320  146.2330 C   0  0  2  0  0  3  0  0  0  0  0  0
  191.2200  174.0030  144.5420 O   0  0  0  0  0  1  0  0  0  0  0  0
  193.1200  174.6750  146.6960 C   0  0  0  0  0  2  0  0  0  0  0  0
  191.1900  175.9660  145.9220 C   0  0  2  0  0  3  0  0  0  0  0  0
  189.6780  177.3560  145.0200 C   0  0  1  0  0  3  0  0  0  0  0  0
  189.6930  176.0140  145.7450 C   0  0  2  0  0  3  0  0  0  0  0  0
  193.2630  175.0110  145.1990 C   0  0  1  0  0  3  0  0  0  0  0  0
  190.2120  175.9750  143.0190 O   0  0  0  0  0  0  0  0  0  0  0  0
  189.3710  176.9950  143.5580 C   0  0  0  0  0  2  0  0  0  0  0  0
  191.3490  175.2710  148.2060 O   0  0  0  0  0  0  0  0  0  0  0  0
  191.5700  176.1110  143.4330 C   0  0  1  0  0  3  0  0  0  0  0  0
  191.8170  175.2620  144.7190 C   0  0  1  0  0  0  0  0  0  0  0  0
  193.8090  177.3540  145.2790 O   0  0  0  0  0  0  0  0  0  0  0  0
  195.5250  175.9570  144.5860 N   0  0  0  0  0  1  0  0  0  0  0  0
  194.1880  176.1820  145.0190 C   0  0  0  0  0  0  0  0  0  0  0  0
  192.4700  175.7080  142.3060 C   0  0  0  0  0  0  0  0  0  0  0  0
  193.5280  176.5300  141.9450 O   0  0  0  0  0  1  0  0  0  0  0  0
  192.2690  174.6350  141.6790 O   0  0  0  0  0  0  0  0  0  0  0  0
  2 23  1  0  0  0  0
  2  1  2  0  0  0  0
  3  7  1  0  0  0  0
  4  6  1  0  0  0  0
  5  4  2  0  0  0  0
  6  2  1  0  0  0  0
  7  6  2  0  0  0  0
  8  3  2  0  0  0  0
  8  5  1  0  0  0  0
  9  5  1  0  0  0  0
 10  9  2  0  0  0  0
 11 13  1  0  0  0  0
 11  3  1  0  0  0  0
 12 14  2  0  0  0  0
 14 22  1  0  0  0  0
 14 13  1  0  0  0  0
 15 20  2  0  0  0  0
 17 21  1  0  0  0  0
 18 15  1  0  0  0  0
 19 15  1  0  0  0  0
 19 22  1  0  0  0  0
 20 21  1  0  0  0  0
 21 16  2  0  0  0  0
 22 17  2  0  0  0  0
 23 24  1  0  0  0  0
 25 35  2  0  0  0  0
 26 24  1  6  0  0  0
 27 37  1  0  0  0  0
 28 25  1  0  0  0  0
 29 25  1  1  0  0  0
 30 34  1  6  0  0  0
 30 31  1  0  0  0  0
 30 26  1  0  0  0  0
 31 29  1  0  0  0  0
 31 26  1  0  0  0  0
 32 28  1  0  0  0  0
 33 36  1  0  0  0  0
 33 34  1  0  0  0  0
 36 37  1  0  0  0  0
 37 32  1  0  0  0  0
 37 29  1  0  0  0  0
 39 40  1  0  0  0  0
 40 32  1  0  0  0  0
 40 38  2  0  0  0  0
 41 36  1  0  0  0  0
 42 41  1  0  0  0  0
 43 41  2  0  0  0  0
M  END
>  <MODEL>
1

>  <REMARK>
 VINA RESULT:      -7.7      0.000      0.000
  Name = 
  10 active torsions:
  status: ('A' for Active; 'I' for Inactive)
    1  A    between atoms: C_4  and  C_19
    2  A    between atoms: C_7  and  C_13
    3  A    between atoms: C_7  and  O_42
    4  A    between atoms: C_8  and  C_39
    5  A    between atoms: C_9  and  C_38
    6  A    between atoms: C_17  and  C_30
    7  A    between atoms: N_22  and  C_39
    8  A    between atoms: C_23  and  C_26
    9  A    between atoms: C_26  and  O_42
   10  A    between atoms: C_36  and  C_40
                            x       y       z     vdW  Elec       q    Type
                         _______ _______ _______ _____ _____    ______ ____

>  <TORSDO>
F 10

$$$$
=
 OpenBabel11062418443D

 43 47  0  0  1  0  0  0  0  0999 V2000
  190.9660  177.7350  145.1040 O   0  0  0  0  0  0  0  0  0  0  0  0
  190.2030  177.0250  145.8120 C   0  0  0  0  0  0  0  0  0  0  0  0
  186.7770  176.8320  144.2320 C   0  0  0  0  0  0  0  0  0  0  0  0
  187.9660  177.7090  146.5640 N   0  0  0  0  0  0  0  0  0  0  0  0
  186.6210  177.8520  146.4180 C   0  0  0  0  0  0  0  0  0  0  0  0
  188.7430  177.1270  145.6060 C   0  0  0  0  0  0  0  0  0  0  0  0
  188.1520  176.6880  144.4160 C   0  0  0  0  0  3  0  0  0  0  0  0
  186.0010  177.4080  145.2440 C   0  0  0  0  0  3  0  0  0  0  0  0
  185.8460  178.4790  147.4970 C   0  0  0  0  0  3  0  0  0  0  0  0
  184.5530  178.4610  147.4970 N   0  0  0  0  0  2  0  0  0  0  0  0
  186.1520  176.3580  142.9620 C   0  0  0  0  0  2  0  0  0  0  0  0
  187.7820  176.2830  140.6350 O   0  0  0  0  0  0  0  0  0  0  0  0
  186.8510  175.1790  142.4680 N   0  0  0  0  0  2  0  0  0  0  0  0
  187.7340  175.2410  141.3450 C   0  0  0  0  0  0  0  0  0  0  0  0
  190.0150  172.8830  139.4890 C   0  0  0  0  0  0  0  0  0  0  0  0
  189.8930  171.2410  142.6410 O   0  0  0  0  0  0  0  0  0  0  0  0
  188.8570  173.1500  141.9800 N   0  0  0  0  0  0  0  0  0  0  0  0
  190.5800  172.7520  138.2660 F   0  0  0  0  0  0  0  0  0  0  0  0
  189.1800  173.9700  139.7590 C   0  0  0  0  0  2  0  0  0  0  0  0
  190.2660  171.9350  140.4810 C   0  0  0  0  0  3  0  0  0  0  0  0
  189.6710  172.0870  141.7370 C   0  0  0  0  0  0  0  0  0  0  0  0
  188.5970  174.0920  141.0290 C   0  0  0  0  0  0  0  0  0  0  0  0
  190.7780  176.1620  146.7540 O   0  0  0  0  0  0  0  0  0  0  0  0
  192.1110  176.3050  147.2230 C   0  0  0  0  0  2  0  0  0  0  0  0
  193.3520  172.9710  143.8980 C   0  0  0  0  0  0  0  0  0  0  0  0
  192.9320  175.1010  146.8080 C   0  0  2  0  0  3  0  0  0  0  0  0
  193.7230  175.5290  142.6010 O   0  0  0  0  0  1  0  0  0  0  0  0
  194.0710  172.5990  142.6430 C   0  0  0  0  0  2  0  0  0  0  0  0
  193.9830  174.1410  144.5420 C   0  0  2  0  0  3  0  0  0  0  0  0
  194.2860  175.5270  146.2810 C   0  0  1  0  0  3  0  0  0  0  0  0
  193.1660  175.1450  145.3150 C   0  0  2  0  0  3  0  0  0  0  0  0
  195.1820  173.6600  142.5260 C   0  0  1  0  0  3  0  0  0  0  0  0
  195.0030  177.0280  144.4280 O   0  0  0  0  0  0  0  0  0  0  0  0
  194.7180  176.9290  145.8240 C   0  0  0  0  0  2  0  0  0  0  0  0
  192.4280  172.3300  144.3760 O   0  0  0  0  0  0  0  0  0  0  0  0
  195.6990  175.8860  143.9310 C   0  0  1  0  0  3  0  0  0  0  0  0
  194.6760  174.8450  143.3760 C   0  0  1  0  0  0  0  0  0  0  0  0
  196.6520  172.6870  144.1650 O   0  0  0  0  0  0  0  0  0  0  0  0
  197.5620  172.9570  142.0490 N   0  0  0  0  0  1  0  0  0  0  0  0
  196.4950  173.0870  142.9810 C   0  0  0  0  0  0  0  0  0  0  0  0
  196.6810  176.3250  142.8900 C   0  0  0  0  0  0  0  0  0  0  0  0
  196.2240  176.9220  141.7230 O   0  0  0  0  0  0  0  0  0  0  0  0
  197.9160  176.1480  143.0590 O   0  0  0  0  0  1  0  0  0  0  0  0
  1  2  2  0  0  0  0
  2 23  1  0  0  0  0
  3  7  2  0  0  0  0
  3  8  1  0  0  0  0
  5  4  1  0  0  0  0
  5  9  1  0  0  0  0
  6  2  1  0  0  0  0
  6  4  2  0  0  0  0
  7  6  1  0  0  0  0
  8  5  2  0  0  0  0
 10  9  2  0  0  0  0
 11  3  1  0  0  0  0
 12 14  2  0  0  0  0
 13 11  1  0  0  0  0
 14 13  1  0  0  0  0
 15 19  1  0  0  0  0
 15 20  2  0  0  0  0
 18 15  1  0  0  0  0
 19 22  1  0  0  0  0
 20 21  1  0  0  0  0
 21 17  1  0  0  0  0
 21 16  2  0  0  0  0
 22 14  1  0  0  0  0
 22 17  2  0  0  0  0
 23 24  1  0  0  0  0
 25 35  2  0  0  0  0
 26 24  1  6  0  0  0
 27 37  1  0  0  0  0
 28 25  1  0  0  0  0
 29 25  1  6  0  0  0
 29 31  1  0  0  0  0
 30 34  1  6  0  0  0
 30 26  1  0  0  0  0
 31 30  1  0  0  0  0
 31 26  1  0  0  0  0
 32 28  1  0  0  0  0
 32 40  1  0  0  0  0
 32 37  1  0  0  0  0
 33 34  1  0  0  0  0
 36 33  1  0  0  0  0
 37 36  1  0  0  0  0
 37 29  1  0  0  0  0
 39 40  1  0  0  0  0
 40 38  2  0  0  0  0
 41 43  1  0  0  0  0
 41 36  1  0  0  0  0
 42 41  2  0  0  0  0
M  END
>  <MODEL>
2

>  <REMARK>
 VINA RESULT:      -7.3      2.490      4.175
  Name = 
  10 active torsions:
  status: ('A' for Active; 'I' for Inactive)
    1  A    between atoms: C_4  and  C_19
    2  A    between atoms: C_7  and  C_13
    3  A    between atoms: C_7  and  O_42
    4  A    between atoms: C_8  and  C_39
    5  A    between atoms: C_9  and  C_38
    6  A    between atoms: C_17  and  C_30
    7  A    between atoms: N_22  and  C_39
    8  A    between atoms: C_23  and  C_26
    9  A    between atoms: C_26  and  O_42
   10  A    between atoms: C_36  and  C_40
                            x       y       z     vdW  Elec       q    Type
                         _______ _______ _______ _____ _____    ______ ____

>  <TORSDO>
F 10

$$$$
=
 OpenBabel11062418443D

 43 47  0  0  1  0  0  0  0  0999 V2000
  194.2960  176.3770  146.5330 O   0  0  0  0  0  0  0  0  0  0  0  0
  193.9500  176.2830  145.3250 C   0  0  0  0  0  0  0  0  0  0  0  0
  195.2170  174.5190  142.2350 C   0  0  0  0  0  0  0  0  0  0  0  0
  195.5710  174.4720  144.9730 N   0  0  0  0  0  0  0  0  0  0  0  0
  196.2780  173.6010  144.2040 C   0  0  0  0  0  0  0  0  0  0  0  0
  194.7100  175.3820  144.4350 C   0  0  0  0  0  0  0  0  0  0  0  0
  194.5150  175.4080  143.0490 C   0  0  0  0  0  3  0  0  0  0  0  0
  196.1150  173.6150  142.8140 C   0  0  0  0  0  3  0  0  0  0  0  0
  197.1960  172.6540  144.8520 C   0  0  0  0  0  3  0  0  0  0  0  0
  196.8820  172.0580  145.9560 N   0  0  0  0  0  2  0  0  0  0  0  0
  195.0080  174.5540  140.7570 C   0  0  0  0  0  2  0  0  0  0  0  0
  193.3200  172.4020  139.9830 O   0  0  0  0  0  0  0  0  0  0  0  0
  193.5880  174.6730  140.4540 N   0  0  0  0  0  2  0  0  0  0  0  0
  192.7800  173.5280  140.1680 C   0  0  0  0  0  0  0  0  0  0  0  0
  189.1960  174.1410  141.1600 C   0  0  0  0  0  0  0  0  0  0  0  0
  188.7530  173.4740  137.6950 O   0  0  0  0  0  0  0  0  0  0  0  0
  190.6660  173.4910  138.9170 N   0  0  0  0  0  0  0  0  0  0  0  0
  188.4760  174.4580  142.2620 F   0  0  0  0  0  0  0  0  0  0  0  0
  190.5830  173.9960  141.2510 C   0  0  0  0  0  3  0  0  0  0  0  0
  188.5560  173.9620  139.9340 C   0  0  0  0  0  2  0  0  0  0  0  0
  189.3170  173.6340  138.8080 C   0  0  0  0  0  0  0  0  0  0  0  0
  191.3160  173.6630  140.1030 C   0  0  0  0  0  0  0  0  0  0  0  0
  192.8480  177.0300  144.8880 O   0  0  0  0  0  0  0  0  0  0  0  0
  191.5120  176.5520  144.9550 C   0  0  0  0  0  2  0  0  0  0  0  0
  187.5600  177.6450  142.3290 C   0  0  0  0  0  0  0  0  0  0  0  0
  190.5700  177.5770  144.3570 C   0  0  2  0  0  3  0  0  0  0  0  0
  186.6460  175.8170  144.3730 O   0  0  0  0  0  1  0  0  0  0  0  0
  186.0750  177.7250  142.1960 C   0  0  0  0  0  2  0  0  0  0  0  0
  187.9690  177.7190  143.7460 C   0  0  2  0  0  3  0  0  0  0  0  0
  189.5080  177.9830  145.3570 C   0  0  1  0  0  3  0  0  0  0  0  0
  189.1850  176.9830  144.2500 C   0  0  2  0  0  3  0  0  0  0  0  0
  185.5780  177.8080  143.6520 C   0  0  1  0  0  3  0  0  0  0  0  0
  187.7900  176.7120  146.6340 O   0  0  0  0  0  0  0  0  0  0  0  0
  189.1100  177.2570  146.6510 C   0  0  0  0  0  2  0  0  0  0  0  0
  188.3340  177.6240  141.3840 O   0  0  0  0  0  0  0  0  0  0  0  0
  186.8500  177.5790  146.0030 C   0  0  1  0  0  3  0  0  0  0  0  0
  186.7320  177.2150  144.4890 C   0  0  1  0  0  0  0  0  0  0  0  0
  186.0360  180.1680  143.7720 O   0  0  0  0  0  0  0  0  0  0  0  0
  183.9490  179.5190  144.5500 N   0  0  0  0  0  1  0  0  0  0  0  0
  185.2280  179.2290  143.9970 C   0  0  0  0  0  0  0  0  0  0  0  0
  185.5360  177.4790  146.7130 C   0  0  0  0  0  0  0  0  0  0  0  0
  185.1460  178.4900  147.5800 O   0  0  0  0  0  1  0  0  0  0  0  0
  184.7870  176.4820  146.5390 O   0  0  0  0  0  0  0  0  0  0  0  0
  2  1  2  0  0  0  0
  3  8  2  0  0  0  0
  3  7  1  0  0  0  0
  5  9  1  0  0  0  0
  5  4  2  0  0  0  0
  6  4  1  0  0  0  0
  6  2  1  0  0  0  0
  7  6  2  0  0  0  0
  8  5  1  0  0  0  0
  9 10  2  0  0  0  0
 11  3  1  0  0  0  0
 12 14  2  0  0  0  0
 13 11  1  0  0  0  0
 14 13  1  0  0  0  0
 15 19  2  0  0  0  0
 15 18  1  0  0  0  0
 16 21  2  0  0  0  0
 17 22  2  0  0  0  0
 20 15  1  0  0  0  0
 21 17  1  0  0  0  0
 21 20  1  0  0  0  0
 22 14  1  0  0  0  0
 22 19  1  0  0  0  0
 23 24  1  0  0  0  0
 23  2  1  0  0  0  0
 26 24  1  1  0  0  0
 26 30  1  0  0  0  0
 27 37  1  0  0  0  0
 28 25  1  0  0  0  0
 28 32  1  0  0  0  0
 29 25  1  6  0  0  0
 29 31  1  0  0  0  0
 29 37  1  0  0  0  0
 30 34  1  1  0  0  0
 31 26  1  0  0  0  0
 31 30  1  0  0  0  0
 32 40  1  0  0  0  0
 32 37  1  0  0  0  0
 33 34  1  0  0  0  0
 35 25  2  0  0  0  0
 36 33  1  0  0  0  0
 36 41  1  0  0  0  0
 37 36  1  0  0  0  0
 38 40  2  0  0  0  0
 40 39  1  0  0  0  0
 41 42  1  0  0  0  0
 43 41  2  0  0  0  0
M  END
>  <MODEL>
3

>  <REMARK>
 VINA RESULT:      -7.3      2.444      8.110
  Name = 
  10 active torsions:
  status: ('A' for Active; 'I' for Inactive)
    1  A    between atoms: C_4  and  C_19
    2  A    between atoms: C_7  and  C_13
    3  A    between atoms: C_7  and  O_42
    4  A    between atoms: C_8  and  C_39
    5  A    between atoms: C_9  and  C_38
    6  A    between atoms: C_17  and  C_30
    7  A    between atoms: N_22  and  C_39
    8  A    between atoms: C_23  and  C_26
    9  A    between atoms: C_26  and  O_42
   10  A    between atoms: C_36  and  C_40
                            x       y       z     vdW  Elec       q    Type
                         _______ _______ _______ _____ _____    ______ ____

>  <TORSDO>
F 10

$$$$
=
 OpenBabel11062418443D

 43 47  0  0  1  0  0  0  0  0999 V2000
  189.4210  178.0450  147.6790 O   0  0  0  0  0  0  0  0  0  0  0  0
  189.0510  177.1290  146.8970 C   0  0  0  0  0  0  0  0  0  0  0  0
  187.4510  177.5500  143.5010 C   0  0  0  0  0  0  0  0  0  0  0  0
  186.8990  178.0560  146.1590 N   0  0  0  0  0  0  0  0  0  0  0  0
  185.9770  178.3990  145.2190 C   0  0  0  0  0  0  0  0  0  0  0  0
  188.0770  177.4510  145.8330 C   0  0  0  0  0  0  0  0  0  0  0  0
  188.3710  177.1990  144.4880 C   0  0  0  0  0  3  0  0  0  0  0  0
  186.2380  178.1440  143.8680 C   0  0  0  0  0  3  0  0  0  0  0  0
  184.7250  179.0390  145.6440 C   0  0  0  0  0  3  0  0  0  0  0  0
  183.8310  178.3920  146.3180 N   0  0  0  0  0  2  0  0  0  0  0  0
  187.7680  177.2740  142.0690 C   0  0  0  0  0  2  0  0  0  0  0  0
  187.4910  175.6740  139.7370 O   0  0  0  0  0  0  0  0  0  0  0  0
  188.2780  175.9170  141.9210 N   0  0  0  0  0  2  0  0  0  0  0  0
  188.1880  175.2090  140.6810 C   0  0  0  0  0  0  0  0  0  0  0  0
  190.1990  172.1070  141.4140 C   0  0  0  0  0  0  0  0  0  0  0  0
  189.6700  171.6690  137.9240 O   0  0  0  0  0  0  0  0  0  0  0  0
  188.9890  173.3630  139.2730 N   0  0  0  0  0  0  0  0  0  0  0  0
  190.7930  171.4940  142.4630 F   0  0  0  0  0  0  0  0  0  0  0  0
  189.5280  173.3180  141.6010 C   0  0  0  0  0  3  0  0  0  0  0  0
  190.2520  171.5300  140.1440 C   0  0  0  0  0  2  0  0  0  0  0  0
  189.6340  172.1800  139.0730 C   0  0  0  0  0  0  0  0  0  0  0  0
  188.9200  173.9450  140.5040 C   0  0  0  0  0  0  0  0  0  0  0  0
  189.5920  175.8480  147.0670 O   0  0  0  0  0  0  0  0  0  0  0  0
  190.9900  175.6010  147.1330 C   0  0  0  0  0  2  0  0  0  0  0  0
  195.0670  176.7930  144.7540 C   0  0  0  0  0  0  0  0  0  0  0  0
  191.6860  176.2830  145.9740 C   0  0  2  0  0  3  0  0  0  0  0  0
  195.1550  173.9170  145.0420 O   0  0  0  0  0  1  0  0  0  0  0  0
  196.2100  176.4110  143.8710 C   0  0  0  0  0  2  0  0  0  0  0  0
  193.9090  175.9040  144.5320 C   0  0  2  0  0  3  0  0  0  0  0  0
  191.7410  175.3730  144.7660 C   0  0  1  0  0  3  0  0  0  0  0  0
  192.9680  175.5490  145.6560 C   0  0  2  0  0  3  0  0  0  0  0  0
  195.6900  175.1780  143.1060 C   0  0  1  0  0  3  0  0  0  0  0  0
  192.6810  173.1000  144.3800 O   0  0  0  0  0  0  0  0  0  0  0  0
  191.5170  173.8530  144.7230 C   0  0  0  0  0  2  0  0  0  0  0  0
  195.0620  177.7700  145.4860 O   0  0  0  0  0  0  0  0  0  0  0  0
  193.4510  173.7220  143.3520 C   0  0  1  0  0  3  0  0  0  0  0  0
  194.5510  174.6270  143.9910 C   0  0  1  0  0  0  0  0  0  0  0  0
  194.3350  176.4050  141.5390 O   0  0  0  0  0  0  0  0  0  0  0  0
  195.9450  175.0270  140.5970 N   0  0  0  0  0  1  0  0  0  0  0  0
  195.2630  175.5720  141.7200 C   0  0  0  0  0  0  0  0  0  0  0  0
  194.0320  172.6640  142.4660 C   0  0  0  0  0  0  0  0  0  0  0  0
  194.9800  171.7870  142.9740 O   0  0  0  0  0  1  0  0  0  0  0  0
  193.6750  172.5700  141.2620 O   0  0  0  0  0  0  0  0  0  0  0  0
  2 23  1  0  0  0  0
  2  1  2  0  0  0  0
  3  8  2  0  0  0  0
  3  7  1  0  0  0  0
  5  9  1  0  0  0  0
  5  4  2  0  0  0  0
  6  4  1  0  0  0  0
  6  2  1  0  0  0  0
  7  6  2  0  0  0  0
  8  5  1  0  0  0  0
  9 10  2  0  0  0  0
 11  3  1  0  0  0  0
 12 14  2  0  0  0  0
 13 11  1  0  0  0  0
 14 13  1  0  0  0  0
 15 19  2  0  0  0  0
 15 18  1  0  0  0  0
 16 21  2  0  0  0  0
 17 22  2  0  0  0  0
 20 15  1  0  0  0  0
 21 17  1  0  0  0  0
 21 20  1  0  0  0  0
 22 14  1  0  0  0  0
 22 19  1  0  0  0  0
 23 24  1  0  0  0  0
 25 35  2  0  0  0  0
 26 24  1  1  0  0  0
 28 25  1  0  0  0  0
 29 25  1  1  0  0  0
 29 31  1  0  0  0  0
 30 34  1  1  0  0  0
 30 31  1  0  0  0  0
 30 26  1  0  0  0  0
 31 26  1  0  0  0  0
 32 28  1  0  0  0  0
 32 37  1  0  0  0  0
 33 34  1  0  0  0  0
 36 37  1  0  0  0  0
 36 33  1  0  0  0  0
 37 29  1  0  0  0  0
 37 27  1  0  0  0  0
 38 40  2  0  0  0  0
 39 40  1  0  0  0  0
 40 32  1  0  0  0  0
 41 42  1  0  0  0  0
 41 36  1  0  0  0  0
 43 41  2  0  0  0  0
M  END
>  <MODEL>
4

>  <REMARK>
 VINA RESULT:      -7.3      2.456      3.600
  Name = 
  10 active torsions:
  status: ('A' for Active; 'I' for Inactive)
    1  A    between atoms: C_4  and  C_19
    2  A    between atoms: C_7  and  C_13
    3  A    between atoms: C_7  and  O_42
    4  A    between atoms: C_8  and  C_39
    5  A    between atoms: C_9  and  C_38
    6  A    between atoms: C_17  and  C_30
    7  A    between atoms: N_22  and  C_39
    8  A    between atoms: C_23  and  C_26
    9  A    between atoms: C_26  and  O_42
   10  A    between atoms: C_36  and  C_40
                            x       y       z     vdW  Elec       q    Type
                         _______ _______ _______ _____ _____    ______ ____

>  <TORSDO>
F 10

$$$$
=
 OpenBabel11062418443D

 43 47  0  0  1  0  0  0  0  0999 V2000
  188.0870  172.4860  140.2880 O   0  0  0  0  0  0  0  0  0  0  0  0
  188.7600  173.3610  139.6820 C   0  0  0  0  0  0  0  0  0  0  0  0
  186.8920  176.6340  139.4250 C   0  0  0  0  0  0  0  0  0  0  0  0
  187.8300  174.6180  137.7880 N   0  0  0  0  0  0  0  0  0  0  0  0
  187.1700  175.6680  137.2270 C   0  0  0  0  0  0  0  0  0  0  0  0
  188.0620  174.5400  139.1290 C   0  0  0  0  0  0  0  0  0  0  0  0
  187.5830  175.5510  139.9700 C   0  0  0  0  0  3  0  0  0  0  0  0
  186.6930  176.7010  138.0420 C   0  0  0  0  0  3  0  0  0  0  0  0
  186.9650  175.6900  135.7720 C   0  0  0  0  0  3  0  0  0  0  0  0
  186.7310  176.7940  135.1410 N   0  0  0  0  0  2  0  0  0  0  0  0
  186.3870  177.7110  140.3260 C   0  0  0  0  0  2  0  0  0  0  0  0
  188.4770  178.2910  142.1620 O   0  0  0  0  0  0  0  0  0  0  0  0
  186.4290  177.2660  141.7130 N   0  0  0  0  0  2  0  0  0  0  0  0
  187.4660  177.6810  142.6070 C   0  0  0  0  0  0  0  0  0  0  0  0
  186.0130  176.7910  145.9690 C   0  0  0  0  0  0  0  0  0  0  0  0
  189.4220  177.2250  146.8840 O   0  0  0  0  0  0  0  0  0  0  0  0
  188.4470  177.4520  144.8470 N   0  0  0  0  0  0  0  0  0  0  0  0
  184.8190  176.4690  146.5180 F   0  0  0  0  0  0  0  0  0  0  0  0
  186.1010  177.0700  144.6030 C   0  0  0  0  0  2  0  0  0  0  0  0
  187.1580  176.8430  146.7650 C   0  0  0  0  0  3  0  0  0  0  0  0
  188.3820  177.1790  146.1790 C   0  0  0  0  0  0  0  0  0  0  0  0
  187.3430  177.4060  144.0480 C   0  0  0  0  0  0  0  0  0  0  0  0
  190.1450  173.1790  139.5720 O   0  0  0  0  0  0  0  0  0  0  0  0
  190.9800  172.8990  140.6870 C   0  0  0  0  0  2  0  0  0  0  0  0
  191.2950  174.5120  145.2700 C   0  0  0  0  0  0  0  0  0  0  0  0
  190.8790  174.0240  141.6970 C   0  0  2  0  0  3  0  0  0  0  0  0
  193.8350  173.2430  144.7230 O   0  0  0  0  0  1  0  0  0  0  0  0
  192.1210  174.9160  146.4470 C   0  0  0  0  0  2  0  0  0  0  0  0
  192.0490  174.6810  144.0120 C   0  0  2  0  0  3  0  0  0  0  0  0
  192.1780  174.7970  141.7750 C   0  0  1  0  0  3  0  0  0  0  0  0
  191.8330  173.7590  142.8390 C   0  0  2  0  0  3  0  0  0  0  0  0
  193.4760  175.3100  145.8290 C   0  0  1  0  0  3  0  0  0  0  0  0
  194.5260  174.1470  142.2890 O   0  0  0  0  0  0  0  0  0  0  0  0
  193.5600  174.3680  141.2600 C   0  0  0  0  0  2  0  0  0  0  0  0
  190.1210  174.1830  145.3360 O   0  0  0  0  0  0  0  0  0  0  0  0
  194.4400  175.1140  143.3340 C   0  0  1  0  0  3  0  0  0  0  0  0
  193.5050  174.5850  144.4670 C   0  0  1  0  0  0  0  0  0  0  0  0
  192.7990  177.4710  145.0120 O   0  0  0  0  0  0  0  0  0  0  0  0
  194.5670  177.4850  146.5140 N   0  0  0  0  0  1  0  0  0  0  0  0
  193.5850  176.8060  145.7380 C   0  0  0  0  0  0  0  0  0  0  0  0
  195.8180  175.4210  143.8330 C   0  0  0  0  0  0  0  0  0  0  0  0
  196.3440  176.6930  143.6590 O   0  0  0  0  0  0  0  0  0  0  0  0
  196.5060  174.5320  144.3990 O   0  0  0  0  0  1  0  0  0  0  0  0
  2  1  2  0  0  0  0
  3  7  1  0  0  0  0
  3 11  1  0  0  0  0
  4  6  1  0  0  0  0
  5  4  2  0  0  0  0
  5  8  1  0  0  0  0
  6  2  1  0  0  0  0
  6  7  2  0  0  0  0
  8  3  2  0  0  0  0
  9  5  1  0  0  0  0
 10  9  2  0  0  0  0
 11 13  1  0  0  0  0
 12 14  2  0  0  0  0
 13 14  1  0  0  0  0
 14 22  1  0  0  0  0
 15 18  1  0  0  0  0
 15 20  2  0  0  0  0
 17 21  1  0  0  0  0
 19 15  1  0  0  0  0
 21 20  1  0  0  0  0
 21 16  2  0  0  0  0
 22 19  1  0  0  0  0
 22 17  2  0  0  0  0
 23  2  1  0  0  0  0
 23 24  1  0  0  0  0
 25 35  2  0  0  0  0
 25 28  1  0  0  0  0
 26 24  1  6  0  0  0
 26 30  1  0  0  0  0
 26 31  1  0  0  0  0
 29 37  1  0  0  0  0
 29 25  1  1  0  0  0
 30 34  1  6  0  0  0
 30 31  1  0  0  0  0
 31 29  1  0  0  0  0
 32 28  1  0  0  0  0
 33 36  1  0  0  0  0
 34 33  1  0  0  0  0
 36 41  1  0  0  0  0
 36 37  1  0  0  0  0
 37 27  1  0  0  0  0
 37 32  1  0  0  0  0
 38 40  2  0  0  0  0
 40 32  1  0  0  0  0
 40 39  1  0  0  0  0
 41 43  1  0  0  0  0
 42 41  2  0  0  0  0
M  END
>  <MODEL>
5

>  <REMARK>
 VINA RESULT:      -7.2      2.871      5.508
  Name = 
  10 active torsions:
  status: ('A' for Active; 'I' for Inactive)
    1  A    between atoms: C_4  and  C_19
    2  A    between atoms: C_7  and  C_13
    3  A    between atoms: C_7  and  O_42
    4  A    between atoms: C_8  and  C_39
    5  A    between atoms: C_9  and  C_38
    6  A    between atoms: C_17  and  C_30
    7  A    between atoms: N_22  and  C_39
    8  A    between atoms: C_23  and  C_26
    9  A    between atoms: C_26  and  O_42
   10  A    between atoms: C_36  and  C_40
                            x       y       z     vdW  Elec       q    Type
                         _______ _______ _______ _____ _____    ______ ____

>  <TORSDO>
F 10

$$$$
=
 OpenBabel11062418443D

 43 47  0  0  1  0  0  0  0  0999 V2000
  187.8610  175.0440  142.8450 O   0  0  0  0  0  0  0  0  0  0  0  0
  187.7560  176.0570  143.5860 C   0  0  0  0  0  0  0  0  0  0  0  0
  184.7670  177.9590  142.2750 C   0  0  0  0  0  0  0  0  0  0  0  0
  185.9710  177.3400  144.6820 N   0  0  0  0  0  0  0  0  0  0  0  0
  184.8430  178.1010  144.6870 C   0  0  0  0  0  0  0  0  0  0  0  0
  186.5140  176.8550  143.5290 C   0  0  0  0  0  0  0  0  0  0  0  0
  185.9170  177.1710  142.3020 C   0  0  0  0  0  3  0  0  0  0  0  0
  184.2170  178.4200  143.4760 C   0  0  0  0  0  3  0  0  0  0  0  0
  184.3080  178.5810  145.9690 C   0  0  0  0  0  3  0  0  0  0  0  0
  184.9280  178.3640  147.0820 N   0  0  0  0  0  2  0  0  0  0  0  0
  184.1340  178.2890  140.9640 C   0  0  0  0  0  2  0  0  0  0  0  0
  181.8120  177.3520  139.6200 O   0  0  0  0  0  0  0  0  0  0  0  0
  182.7840  178.7980  141.1730 N   0  0  0  0  0  2  0  0  0  0  0  0
  181.6500  178.2080  140.5330 C   0  0  0  0  0  0  0  0  0  0  0  0
  178.3740  178.3130  142.3940 C   0  0  0  0  0  0  0  0  0  0  0  0
  177.8590  181.0010  140.1230 O   0  0  0  0  0  0  0  0  0  0  0  0
  179.6560  179.6300  140.3350 N   0  0  0  0  0  0  0  0  0  0  0  0
  177.7450  177.6640  143.4020 F   0  0  0  0  0  0  0  0  0  0  0  0
  179.6540  177.9150  141.9990 C   0  0  0  0  0  3  0  0  0  0  0  0
  177.7460  179.3790  141.7490 C   0  0  0  0  0  2  0  0  0  0  0  0
  178.4120  180.0350  140.7090 C   0  0  0  0  0  0  0  0  0  0  0  0
  180.2920  178.5930  140.9500 C   0  0  0  0  0  0  0  0  0  0  0  0
  188.8210  176.3720  144.4410 O   0  0  0  0  0  0  0  0  0  0  0  0
  188.9150  175.8840  145.7720 C   0  0  0  0  0  2  0  0  0  0  0  0
  191.6800  172.5800  143.5050 C   0  0  0  0  0  0  0  0  0  0  0  0
  189.6960  174.5870  145.7890 C   0  0  2  0  0  3  0  0  0  0  0  0
  193.0280  175.1090  143.1190 O   0  0  0  0  0  1  0  0  0  0  0  0
  192.9970  172.1640  142.9370 C   0  0  0  0  0  2  0  0  0  0  0  0
  191.8580  173.5920  144.5660 C   0  0  2  0  0  3  0  0  0  0  0  0
  191.1060  174.8120  146.2930 C   0  0  1  0  0  3  0  0  0  0  0  0
  190.8330  174.6730  144.7970 C   0  0  2  0  0  3  0  0  0  0  0  0
  194.0180  173.0330  143.6970 C   0  0  1  0  0  3  0  0  0  0  0  0
  192.9750  176.2740  145.5410 O   0  0  0  0  0  0  0  0  0  0  0  0
  191.8560  176.1460  146.4190 C   0  0  0  0  0  2  0  0  0  0  0  0
  190.6110  172.0750  143.2010 O   0  0  0  0  0  0  0  0  0  0  0  0
  193.7200  175.0620  145.4250 C   0  0  1  0  0  3  0  0  0  0  0  0
  193.1970  174.2360  144.2080 C   0  0  1  0  0  0  0  0  0  0  0  0
  194.0150  171.7970  145.7620 O   0  0  0  0  0  0  0  0  0  0  0  0
  196.0600  171.9110  144.6750 N   0  0  0  0  0  1  0  0  0  0  0  0
  194.6770  172.2270  144.7810 C   0  0  0  0  0  0  0  0  0  0  0  0
  195.1760  175.3900  145.3050 C   0  0  0  0  0  0  0  0  0  0  0  0
  195.6090  176.2230  144.2820 O   0  0  0  0  0  0  0  0  0  0  0  0
  196.0100  174.9090  146.1150 O   0  0  0  0  0  1  0  0  0  0  0  0
  1  2  2  0  0  0  0
  2 23  1  0  0  0  0
  3  7  2  0  0  0  0
  3  8  1  0  0  0  0
  4  5  1  0  0  0  0
  5  9  1  0  0  0  0
  6  2  1  0  0  0  0
  6  4  2  0  0  0  0
  7  6  1  0  0  0  0
  8  5  2  0  0  0  0
  9 10  2  0  0  0  0
 11 13  1  0  0  0  0
 11  3  1  0  0  0  0
 12 14  2  0  0  0  0
 14 22  1  0  0  0  0
 14 13  1  0  0  0  0
 15 18  1  0  0  0  0
 16 21  2  0  0  0  0
 17 21  1  0  0  0  0
 17 22  2  0  0  0  0
 19 15  2  0  0  0  0
 20 15  1  0  0  0  0
 21 20  1  0  0  0  0
 22 19  1  0  0  0  0
 23 24  1  0  0  0  0
 26 24  1  6  0  0  0
 26 30  1  0  0  0  0
 27 37  1  0  0  0  0
 28 25  1  0  0  0  0
 28 32  1  0  0  0  0
 29 25  1  6  0  0  0
 29 31  1  0  0  0  0
 30 34  1  6  0  0  0
 31 26  1  0  0  0  0
 31 30  1  0  0  0  0
 32 37  1  0  0  0  0
 32 40  1  0  0  0  0
 33 34  1  0  0  0  0
 35 25  2  0  0  0  0
 36 33  1  0  0  0  0
 37 29  1  0  0  0  0
 37 36  1  0  0  0  0
 39 40  1  0  0  0  0
 40 38  2  0  0  0  0
 41 36  1  0  0  0  0
 41 43  1  0  0  0  0
 42 41  2  0  0  0  0
M  END
>  <MODEL>
6

>  <REMARK>
 VINA RESULT:      -7.2      3.701      6.792
  Name = 
  10 active torsions:
  status: ('A' for Active; 'I' for Inactive)
    1  A    between atoms: C_4  and  C_19
    2  A    between atoms: C_7  and  C_13
    3  A    between atoms: C_7  and  O_42
    4  A    between atoms: C_8  and  C_39
    5  A    between atoms: C_9  and  C_38
    6  A    between atoms: C_17  and  C_30
    7  A    between atoms: N_22  and  C_39
    8  A    between atoms: C_23  and  C_26
    9  A    between atoms: C_26  and  O_42
   10  A    between atoms: C_36  and  C_40
                            x       y       z     vdW  Elec       q    Type
                         _______ _______ _______ _____ _____    ______ ____

>  <TORSDO>
F 10

$$$$
=
 OpenBabel11062418443D

 43 47  0  0  1  0  0  0  0  0999 V2000
  190.5680  169.3670  141.2600 O   0  0  0  0  0  0  0  0  0  0  0  0
  190.8350  170.5120  141.7140 C   0  0  0  0  0  0  0  0  0  0  0  0
  193.4020  172.9350  140.3700 C   0  0  0  0  0  0  0  0  0  0  0  0
  190.9220  171.9210  139.7050 N   0  0  0  0  0  0  0  0  0  0  0  0
  191.5040  172.8300  138.8770 C   0  0  0  0  0  0  0  0  0  0  0  0
  191.5310  171.4790  140.8410 C   0  0  0  0  0  0  0  0  0  0  0  0
  192.7850  171.9930  141.1930 C   0  0  0  0  0  3  0  0  0  0  0  0
  192.7640  173.3500  139.1960 C   0  0  0  0  0  3  0  0  0  0  0  0
  190.7920  173.2540  137.6630 C   0  0  0  0  0  3  0  0  0  0  0  0
  191.3400  174.0490  136.8020 N   0  0  0  0  0  2  0  0  0  0  0  0
  194.7400  173.4770  140.7490 C   0  0  0  0  0  2  0  0  0  0  0  0
  194.3110  176.1740  141.5370 O   0  0  0  0  0  0  0  0  0  0  0  0
  194.7170  173.9530  142.1270 N   0  0  0  0  0  2  0  0  0  0  0  0
  194.3960  175.3080  142.4510 C   0  0  0  0  0  0  0  0  0  0  0  0
  193.1140  175.2730  145.9960 C   0  0  0  0  0  0  0  0  0  0  0  0
  195.1650  178.1760  146.1280 O   0  0  0  0  0  0  0  0  0  0  0  0
  194.7600  176.7880  144.3780 N   0  0  0  0  0  0  0  0  0  0  0  0
  192.3060  174.5310  146.7870 F   0  0  0  0  0  0  0  0  0  0  0  0
  193.3140  174.9070  144.6620 C   0  0  0  0  0  2  0  0  0  0  0  0
  193.7510  176.4030  146.5100 C   0  0  0  0  0  3  0  0  0  0  0  0
  194.5810  177.1570  145.6760 C   0  0  0  0  0  0  0  0  0  0  0  0
  194.1510  175.6870  143.8520 C   0  0  0  0  0  0  0  0  0  0  0  0
  190.4440  170.8170  143.0240 O   0  0  0  0  0  0  0  0  0  0  0  0
  190.8650  171.9910  143.7040 C   0  0  0  0  0  2  0  0  0  0  0  0
  188.9810  175.5560  146.4340 C   0  0  0  0  0  0  0  0  0  0  0  0
  189.6720  172.6620  144.3540 C   0  0  2  0  0  3  0  0  0  0  0  0
  190.4650  176.8890  144.3410 O   0  0  0  0  0  1  0  0  0  0  0  0
  188.5620  176.9810  146.5950 C   0  0  0  0  0  2  0  0  0  0  0  0
  188.9500  175.1530  145.0140 C   0  0  2  0  0  3  0  0  0  0  0  0
  188.9910  173.6070  143.3880 C   0  0  1  0  0  3  0  0  0  0  0  0
  189.9300  174.1470  144.4640 C   0  0  2  0  0  3  0  0  0  0  0  0
  188.3090  177.4550  145.1510 C   0  0  1  0  0  3  0  0  0  0  0  0
  189.7750  175.5850  142.0950 O   0  0  0  0  0  0  0  0  0  0  0  0
  189.5530  174.1740  142.0750 C   0  0  0  0  0  2  0  0  0  0  0  0
  189.2190  174.8020  147.3650 O   0  0  0  0  0  0  0  0  0  0  0  0
  188.7380  176.2920  142.7730 C   0  0  1  0  0  3  0  0  0  0  0  0
  189.1220  176.4800  144.2740 C   0  0  1  0  0  0  0  0  0  0  0  0
  186.1660  176.3980  144.8590 O   0  0  0  0  0  0  0  0  0  0  0  0
  186.1750  178.7060  144.6300 N   0  0  0  0  0  1  0  0  0  0  0  0
  186.8340  177.4660  144.8630 C   0  0  0  0  0  0  0  0  0  0  0  0
  188.5000  177.5980  142.0810 C   0  0  0  0  0  0  0  0  0  0  0  0
  187.2620  177.8570  141.5100 O   0  0  0  0  0  0  0  0  0  0  0  0
  189.4170  178.4580  142.0040 O   0  0  0  0  0  1  0  0  0  0  0  0
  1  2  2  0  0  0  0
  2 23  1  0  0  0  0
  3 11  1  0  0  0  0
  3  7  1  0  0  0  0
  4  6  1  0  0  0  0
  5  8  1  0  0  0  0
  5  4  2  0  0  0  0
  6  7  2  0  0  0  0
  6  2  1  0  0  0  0
  8  3  2  0  0  0  0
  9  5  1  0  0  0  0
 10  9  2  0  0  0  0
 11 13  1  0  0  0  0
 12 14  2  0  0  0  0
 13 14  1  0  0  0  0
 14 22  1  0  0  0  0
 15 20  2  0  0  0  0
 15 18  1  0  0  0  0
 17 21  1  0  0  0  0
 19 15  1  0  0  0  0
 21 16  2  0  0  0  0
 21 20  1  0  0  0  0
 22 17  2  0  0  0  0
 22 19  1  0  0  0  0
 23 24  1  0  0  0  0
 25 28  1  0  0  0  0
 25 35  2  0  0  0  0
 26 24  1  6  0  0  0
 26 31  1  0  0  0  0
 29 25  1  1  0  0  0
 30 34  1  6  0  0  0
 30 26  1  0  0  0  0
 30 31  1  0  0  0  0
 31 29  1  0  0  0  0
 32 28  1  0  0  0  0
 33 36  1  0  0  0  0
 34 33  1  0  0  0  0
 36 37  1  0  0  0  0
 37 27  1  0  0  0  0
 37 29  1  0  0  0  0
 37 32  1  0  0  0  0
 38 40  2  0  0  0  0
 39 40  1  0  0  0  0
 40 32  1  0  0  0  0
 41 36  1  0  0  0  0
 42 41  2  0  0  0  0
 43 41  1  0  0  0  0
M  END
>  <MODEL>
7

>  <REMARK>
 VINA RESULT:      -7.1      2.885      7.329
  Name = 
  10 active torsions:
  status: ('A' for Active; 'I' for Inactive)
    1  A    between atoms: C_4  and  C_19
    2  A    between atoms: C_7  and  C_13
    3  A    between atoms: C_7  and  O_42
    4  A    between atoms: C_8  and  C_39
    5  A    between atoms: C_9  and  C_38
    6  A    between atoms: C_17  and  C_30
    7  A    between atoms: N_22  and  C_39
    8  A    between atoms: C_23  and  C_26
    9  A    between atoms: C_26  and  O_42
   10  A    between atoms: C_36  and  C_40
                            x       y       z     vdW  Elec       q    Type
                         _______ _______ _______ _____ _____    ______ ____

>  <TORSDO>
F 10

$$$$
=
 OpenBabel11062418443D

 43 47  0  0  1  0  0  0  0  0999 V2000
  191.2490  171.9210  139.0930 O   0  0  0  0  0  0  0  0  0  0  0  0
  191.2050  173.1640  138.8900 C   0  0  0  0  0  0  0  0  0  0  0  0
  194.6920  174.5920  139.1550 C   0  0  0  0  0  0  0  0  0  0  0  0
  192.5490  174.5950  137.4140 N   0  0  0  0  0  0  0  0  0  0  0  0
  193.6690  175.2920  137.0800 C   0  0  0  0  0  0  0  0  0  0  0  0
  192.4590  173.8770  138.5700 C   0  0  0  0  0  0  0  0  0  0  0  0
  193.5350  173.8770  139.4640 C   0  0  0  0  0  3  0  0  0  0  0  0
  194.7660  175.2960  137.9480 C   0  0  0  0  0  3  0  0  0  0  0  0
  193.6990  176.0340  135.8120 C   0  0  0  0  0  3  0  0  0  0  0  0
  193.0690  177.1550  135.6710 N   0  0  0  0  0  2  0  0  0  0  0  0
  195.8380  174.5850  140.1110 C   0  0  0  0  0  2  0  0  0  0  0  0
  196.9220  176.0390  142.2990 O   0  0  0  0  0  0  0  0  0  0  0  0
  195.3480  174.5210  141.4820 N   0  0  0  0  0  2  0  0  0  0  0  0
  195.8800  175.3590  142.5120 C   0  0  0  0  0  0  0  0  0  0  0  0
  194.6070  176.6620  145.8110 C   0  0  0  0  0  0  0  0  0  0  0  0
  193.1410  173.4220  145.8400 O   0  0  0  0  0  0  0  0  0  0  0  0
  194.4730  174.3760  144.2700 N   0  0  0  0  0  0  0  0  0  0  0  0
  194.6760  177.7820  146.5670 F   0  0  0  0  0  0  0  0  0  0  0  0
  195.2780  176.6040  144.5870 C   0  0  0  0  0  2  0  0  0  0  0  0
  193.8660  175.5650  146.2520 C   0  0  0  0  0  3  0  0  0  0  0  0
  193.8090  174.4170  145.4570 C   0  0  0  0  0  0  0  0  0  0  0  0
  195.2030  175.4360  143.8160 C   0  0  0  0  0  0  0  0  0  0  0  0
  189.9630  173.8080  138.9640 O   0  0  0  0  0  0  0  0  0  0  0  0
  189.0800  173.6630  140.0680 C   0  0  0  0  0  2  0  0  0  0  0  0
  191.4680  176.6240  143.1080 C   0  0  0  0  0  0  0  0  0  0  0  0
  189.8350  173.8920  141.3610 C   0  0  2  0  0  3  0  0  0  0  0  0
  188.9100  177.8910  142.6470 O   0  0  0  0  0  1  0  0  0  0  0  0
  191.4580  177.7160  144.1260 C   0  0  0  0  0  2  0  0  0  0  0  0
  190.1790  175.9030  143.0930 C   0  0  2  0  0  3  0  0  0  0  0  0
  188.8790  174.1720  142.5010 C   0  0  1  0  0  3  0  0  0  0  0  0
  189.6240  175.3160  141.8190 C   0  0  2  0  0  3  0  0  0  0  0  0
  190.0370  177.6530  144.7200 C   0  0  1  0  0  3  0  0  0  0  0  0
  187.1230  175.8970  142.8740 O   0  0  0  0  0  0  0  0  0  0  0  0
  187.3990  174.5740  142.4100 C   0  0  0  0  0  2  0  0  0  0  0  0
  192.4470  176.3080  142.4490 O   0  0  0  0  0  0  0  0  0  0  0  0
  187.8660  176.2310  144.0450 C   0  0  1  0  0  3  0  0  0  0  0  0
  189.1970  176.9390  143.6400 C   0  0  1  0  0  0  0  0  0  0  0  0
  190.3750  175.7340  146.1330 O   0  0  0  0  0  0  0  0  0  0  0  0
  189.7740  177.6850  147.2330 N   0  0  0  0  0  1  0  0  0  0  0  0
  190.0640  176.9520  146.0490 C   0  0  0  0  0  0  0  0  0  0  0  0
  187.0190  177.0850  144.9370 C   0  0  0  0  0  0  0  0  0  0  0  0
  186.5780  178.3210  144.4870 O   0  0  0  0  0  0  0  0  0  0  0  0
  186.7120  176.6950  146.0930 O   0  0  0  0  0  1  0  0  0  0  0  0
  2 23  1  0  0  0  0
  2  1  2  0  0  0  0
  3  7  1  0  0  0  0
  3 11  1  0  0  0  0
  4  6  1  0  0  0  0
  5  4  2  0  0  0  0
  5  8  1  0  0  0  0
  6  2  1  0  0  0  0
  6  7  2  0  0  0  0
  8  3  2  0  0  0  0
  9  5  1  0  0  0  0
 10  9  2  0  0  0  0
 11 13  1  0  0  0  0
 12 14  2  0  0  0  0
 13 14  1  0  0  0  0
 14 22  1  0  0  0  0
 15 20  2  0  0  0  0
 15 18  1  0  0  0  0
 17 21  1  0  0  0  0
 19 15  1  0  0  0  0
 21 16  2  0  0  0  0
 21 20  1  0  0  0  0
 22 17  2  0  0  0  0
 22 19  1  0  0  0  0
 23 24  1  0  0  0  0
 25 28  1  0  0  0  0
 26 24  1  6  0  0  0
 26 31  1  0  0  0  0
 26 30  1  0  0  0  0
 27 37  1  0  0  0  0
 28 32  1  0  0  0  0
 29 25  1  6  0  0  0
 29 37  1  0  0  0  0
 30 34  1  6  0  0  0
 31 30  1  0  0  0  0
 31 29  1  0  0  0  0
 32 40  1  0  0  0  0
 33 36  1  0  0  0  0
 34 33  1  0  0  0  0
 35 25  2  0  0  0  0
 36 41  1  0  0  0  0
 37 36  1  0  0  0  0
 37 32  1  0  0  0  0
 40 38  2  0  0  0  0
 40 39  1  0  0  0  0
 41 43  1  0  0  0  0
 42 41  2  0  0  0  0
M  END
>  <MODEL>
8

>  <REMARK>
 VINA RESULT:      -7.1      3.650      7.722
  Name = 
  10 active torsions:
  status: ('A' for Active; 'I' for Inactive)
    1  A    between atoms: C_4  and  C_19
    2  A    between atoms: C_7  and  C_13
    3  A    between atoms: C_7  and  O_42
    4  A    between atoms: C_8  and  C_39
    5  A    between atoms: C_9  and  C_38
    6  A    between atoms: C_17  and  C_30
    7  A    between atoms: N_22  and  C_39
    8  A    between atoms: C_23  and  C_26
    9  A    between atoms: C_26  and  O_42
   10  A    between atoms: C_36  and  C_40
                            x       y       z     vdW  Elec       q    Type
                         _______ _______ _______ _____ _____    ______ ____

>  <TORSDO>
F 10

$$$$
=
 OpenBabel11062418443D

 43 47  0  0  1  0  0  0  0  0999 V2000
  189.6760  171.5250  139.7330 O   0  0  0  0  0  0  0  0  0  0  0  0
  189.8590  172.7690  139.8060 C   0  0  0  0  0  0  0  0  0  0  0  0
  193.3080  174.1430  139.1080 C   0  0  0  0  0  0  0  0  0  0  0  0
  190.8930  173.7790  137.8200 N   0  0  0  0  0  0  0  0  0  0  0  0
  191.9220  174.3520  137.1380 C   0  0  0  0  0  0  0  0  0  0  0  0
  191.0220  173.3590  139.1110 C   0  0  0  0  0  0  0  0  0  0  0  0
  192.2380  173.5470  139.7760 C   0  0  0  0  0  3  0  0  0  0  0  0
  193.1540  174.5390  137.7740 C   0  0  0  0  0  3  0  0  0  0  0  0
  191.7140  174.7710  135.7460 C   0  0  0  0  0  3  0  0  0  0  0  0
  190.7450  174.2940  135.0350 N   0  0  0  0  0  2  0  0  0  0  0  0
  194.6040  174.3380  139.8220 C   0  0  0  0  0  2  0  0  0  0  0  0
  194.9460  176.8010  141.1970 O   0  0  0  0  0  0  0  0  0  0  0  0
  194.3670  174.5400  141.2460 N   0  0  0  0  0  2  0  0  0  0  0  0
  194.4640  175.8340  141.8490 C   0  0  0  0  0  0  0  0  0  0  0  0
  192.3050  176.8010  144.7830 C   0  0  0  0  0  0  0  0  0  0  0  0
  195.0490  175.3440  146.5130 O   0  0  0  0  0  0  0  0  0  0  0  0
  194.7440  175.6110  144.2790 N   0  0  0  0  0  0  0  0  0  0  0  0
  191.1100  177.3870  145.0280 F   0  0  0  0  0  0  0  0  0  0  0  0
  192.7460  176.6410  143.4670 C   0  0  0  0  0  2  0  0  0  0  0  0
  193.0960  176.3550  145.8420 C   0  0  0  0  0  3  0  0  0  0  0  0
  194.3280  175.7540  145.5680 C   0  0  0  0  0  0  0  0  0  0  0  0
  193.9880  176.0360  143.2270 C   0  0  0  0  0  0  0  0  0  0  0  0
  188.9400  173.5380  140.5330 O   0  0  0  0  0  0  0  0  0  0  0  0
  189.3300  174.5730  141.4240 C   0  0  0  0  0  2  0  0  0  0  0  0
  188.3920  176.0840  145.9570 C   0  0  0  0  0  0  0  0  0  0  0  0
  188.5250  174.4780  142.7040 C   0  0  2  0  0  3  0  0  0  0  0  0
  188.2740  178.4590  144.3130 O   0  0  0  0  0  1  0  0  0  0  0  0
  187.8210  177.0990  146.8920 C   0  0  0  0  0  2  0  0  0  0  0  0
  187.7280  176.1450  144.6390 C   0  0  2  0  0  3  0  0  0  0  0  0
  187.2620  175.3080  142.6100 C   0  0  1  0  0  3  0  0  0  0  0  0
  188.4780  175.8340  143.3690 C   0  0  2  0  0  3  0  0  0  0  0  0
  186.7710  177.8360  146.0380 C   0  0  1  0  0  3  0  0  0  0  0  0
  186.8320  177.7200  142.1680 O   0  0  0  0  0  0  0  0  0  0  0  0
  186.9390  176.4160  141.5960 C   0  0  0  0  0  2  0  0  0  0  0  0
  189.2270  175.2510  146.2750 O   0  0  0  0  0  0  0  0  0  0  0  0
  186.1630  177.7100  143.4280 C   0  0  1  0  0  3  0  0  0  0  0  0
  187.2100  177.5820  144.5800 C   0  0  1  0  0  0  0  0  0  0  0  0
  185.1070  176.1120  146.2680 O   0  0  0  0  0  0  0  0  0  0  0  0
  184.4090  178.2500  146.8370 N   0  0  0  0  0  1  0  0  0  0  0  0
  185.3930  177.3350  146.3670 C   0  0  0  0  0  0  0  0  0  0  0  0
  185.3330  178.9500  143.5530 C   0  0  0  0  0  0  0  0  0  0  0  0
  185.9410  180.1530  143.8840 O   0  0  0  0  0  1  0  0  0  0  0  0
  184.0880  178.9080  143.3710 O   0  0  0  0  0  0  0  0  0  0  0  0
  1  2  2  0  0  0  0
  2 23  1  0  0  0  0
  3  7  1  0  0  0  0
  3 11  1  0  0  0  0
  4  6  1  0  0  0  0
  5  8  1  0  0  0  0
  5  4  2  0  0  0  0
  6  7  2  0  0  0  0
  6  2  1  0  0  0  0
  8  3  2  0  0  0  0
  9  5  1  0  0  0  0
 10  9  2  0  0  0  0
 11 13  1  0  0  0  0
 12 14  2  0  0  0  0
 13 14  1  0  0  0  0
 14 22  1  0  0  0  0
 15 18  1  0  0  0  0
 15 20  2  0  0  0  0
 17 21  1  0  0  0  0
 19 15  1  0  0  0  0
 21 20  1  0  0  0  0
 21 16  2  0  0  0  0
 22 19  1  0  0  0  0
 22 17  2  0  0  0  0
 23 24  1  0  0  0  0
 25 35  2  0  0  0  0
 25 28  1  0  0  0  0
 26 24  1  6  0  0  0
 26 31  1  0  0  0  0
 27 37  1  0  0  0  0
 29 25  1  1  0  0  0
 30 34  1  6  0  0  0
 30 26  1  0  0  0  0
 30 31  1  0  0  0  0
 31 29  1  0  0  0  0
 32 40  1  0  0  0  0
 32 28  1  0  0  0  0
 33 36  1  0  0  0  0
 34 33  1  0  0  0  0
 36 41  1  0  0  0  0
 36 37  1  0  0  0  0
 37 29  1  0  0  0  0
 37 32  1  0  0  0  0
 38 40  2  0  0  0  0
 40 39  1  0  0  0  0
 41 42  1  0  0  0  0
 43 41  2  0  0  0  0
M  END
>  <MODEL>
9

>  <REMARK>
 VINA RESULT:      -7.1      2.894      7.575
  Name = 
  10 active torsions:
  status: ('A' for Active; 'I' for Inactive)
    1  A    between atoms: C_4  and  C_19
    2  A    between atoms: C_7  and  C_13
    3  A    between atoms: C_7  and  O_42
    4  A    between atoms: C_8  and  C_39
    5  A    between atoms: C_9  and  C_38
    6  A    between atoms: C_17  and  C_30
    7  A    between atoms: N_22  and  C_39
    8  A    between atoms: C_23  and  C_26
    9  A    between atoms: C_26  and  O_42
   10  A    between atoms: C_36  and  C_40
                            x       y       z     vdW  Elec       q    Type
                         _______ _______ _______ _____ _____    ______ ____

>  <TORSDO>
F 10

$$$$
