=
 OpenBabel11062421073D

 27 31  0  0  1  0  0  0  0  0999 V2000
  184.5290  178.0130  143.8770 C   0  0  0  0  0  3  0  0  0  0  0  0
  187.5940  177.5260  141.3150 C   0  0  0  0  0  3  0  0  0  0  0  0
  187.5740  176.8290  142.4630 C   0  0  0  0  0  0  0  0  0  0  0  0
  185.5520  178.3130  147.4430 C   0  0  0  0  0  3  0  0  0  0  0  0
  184.0060  178.5730  140.9960 O   0  0  0  0  0  1  0  0  0  0  0  0
  185.9200  176.9330  145.5600 C   0  0  0  0  0  0  0  0  0  0  0  0
  188.8050  176.9270  145.8270 C   0  0  2  0  0  3  0  0  0  0  0  0
  187.8740  177.9010  146.5740 C   0  0  0  0  0  2  0  0  0  0  0  0
  184.8550  177.6610  145.2720 C   0  0  0  0  0  0  0  0  0  0  0  0
  186.3050  178.0320  140.7530 C   0  0  0  0  0  3  0  0  0  0  0  0
  186.3080  176.4450  143.1330 C   0  0  0  0  0  0  0  0  0  0  0  0
  186.5130  177.2690  146.8660 C   0  0  1  0  0  3  0  0  0  0  0  0
  185.2480  177.4950  142.8760 C   0  0  0  0  0  0  0  0  0  0  0  0
  188.6990  176.6490  143.3230 N   0  0  0  0  0  0  0  0  0  0  0  0
  185.1840  178.0340  141.5010 C   0  0  1  0  0  3  0  0  0  0  0  0
  188.1740  176.1830  144.6180 C   0  0  2  0  0  3  0  0  0  0  0  0
  184.4180  178.4730  146.4300 C   0  0  0  0  0  3  0  0  0  0  0  0
  186.7090  176.3290  144.5300 N   0  0  0  0  0  0  0  0  0  0  0  0
  190.4780  176.3450  147.5850 O   0  0  0  0  0  1  0  0  0  0  0  0
  189.4200  175.9480  146.7780 C   0  0  0  0  0  0  0  0  0  0  0  0
  188.9870  174.7680  146.8570 O   0  0  0  0  0  0  0  0  0  0  0  0
  191.0470  177.4540  143.1430 C   0  0  0  0  0  1  0  0  0  0  0  0
  190.0330  176.3650  142.7850 C   0  0  1  0  0  3  0  0  0  0  0  0
  190.2050  173.8530  142.5050 C   0  0  0  0  0  0  0  0  0  0  0  0
  190.4910  175.0470  143.2410 N   0  0  0  0  0  2  0  0  0  0  0  0
  190.4640  172.6110  143.0680 O   0  0  0  0  0  1  0  0  0  0  0  0
  189.6730  173.9230  141.3590 O   0  0  0  0  0  0  0  0  0  0  0  0
  1  9  1  0  0  0  0
  2  3  1  0  0  0  0
  3 11  2  0  0  0  0
  3 14  1  0  0  0  0
  6 12  1  0  0  0  0
  7  8  1  0  0  0  0
  7 20  1  1  0  0  0
  9  6  2  0  0  0  0
  9 17  1  0  0  0  0
 10  2  2  0  0  0  0
 10 15  1  0  0  0  0
 11 18  1  0  0  0  0
 12  8  1  6  0  0  0
 12  4  1  0  0  0  0
 13 11  1  0  0  0  0
 13  1  2  0  0  0  0
 15  5  1  1  0  0  0
 15 13  1  0  0  0  0
 16 14  1  6  0  0  0
 16  7  1  0  0  0  0
 17  4  2  0  0  0  0
 18 16  1  0  0  0  0
 18  6  1  0  0  0  0
 20 21  2  0  0  0  0
 20 19  1  0  0  0  0
 23 22  1  1  0  0  0
 23 25  1  0  0  0  0
 23 14  1  0  0  0  0
 24 26  1  0  0  0  0
 24 25  1  0  0  0  0
 27 24  2  0  0  0  0
M  END
>  <MODEL>
1

>  <REMARK>
 VINA RESULT:      -8.0      0.000      0.000
  Name = 
  3 active torsions:
  status: ('A' for Active; 'I' for Inactive)
    1  A    between atoms: C_10  and  N_11
    2  A    between atoms: C_10  and  N_23
    3  A    between atoms: C_12  and  C_13
                            x       y       z     vdW  Elec       q    Type
                         _______ _______ _______ _____ _____    ______ ____

>  <TORSDO>
F 3

$$$$
=
 OpenBabel11062421073D

 27 31  0  0  1  0  0  0  0  0999 V2000
  185.3690  178.4240  143.5590 C   0  0  0  0  0  3  0  0  0  0  0  0
  186.7500  176.7230  146.9350 C   0  0  0  0  0  3  0  0  0  0  0  0
  187.6170  177.0880  145.9750 C   0  0  0  0  0  0  0  0  0  0  0  0
  186.9290  177.1190  140.4420 C   0  0  0  0  0  3  0  0  0  0  0  0
  183.7100  178.7210  146.0180 O   0  0  0  0  0  1  0  0  0  0  0  0
  187.5440  177.9450  142.5700 C   0  0  0  0  0  0  0  0  0  0  0  0
  189.3840  175.7830  143.1440 C   0  0  2  0  0  3  0  0  0  0  0  0
  188.3550  175.7550  141.9980 C   0  0  0  0  0  2  0  0  0  0  0  0
  186.2750  178.2810  142.4030 C   0  0  0  0  0  0  0  0  0  0  0  0
  185.4180  177.3980  147.0020 C   0  0  0  0  0  3  0  0  0  0  0  0
  187.3450  178.2170  145.0530 C   0  0  2  0  0  3  0  0  0  0  0  0
  188.0820  177.1550  141.4490 C   0  0  1  0  0  3  0  0  0  0  0  0
  185.8560  178.3310  144.8010 C   0  0  0  0  0  0  0  0  0  0  0  0
  188.7090  176.2890  145.5210 N   0  0  0  0  0  0  0  0  0  0  0  0
  184.9800  178.1550  145.9780 C   0  0  0  0  0  0  0  0  0  0  0  0
  189.1490  176.8620  144.2370 C   0  0  2  0  0  3  0  0  0  0  0  0
  185.7960  177.9530  141.0420 C   0  0  0  0  0  3  0  0  0  0  0  0
  188.1260  177.8610  143.8740 N   0  0  0  0  0  0  0  0  0  0  0  0
  191.2950  174.8450  141.8430 O   0  0  0  0  0  0  0  0  0  0  0  0
  190.7760  175.8840  142.6030 C   0  0  0  0  0  0  0  0  0  0  0  0
  191.4820  176.9020  142.8280 O   0  0  0  0  0  1  0  0  0  0  0  0
  189.2950  174.0330  146.3910 C   0  0  0  0  0  1  0  0  0  0  0  0
  189.5490  175.5410  146.4590 C   0  0  1  0  0  3  0  0  0  0  0  0
  191.8040  176.3720  147.2610 C   0  0  0  0  0  0  0  0  0  0  0  0
  190.9660  175.8490  146.2260 N   0  0  0  0  0  2  0  0  0  0  0  0
  193.0700  176.8510  146.9540 O   0  0  0  0  0  0  0  0  0  0  0  0
  191.3790  176.4440  148.4500 O   0  0  0  0  0  1  0  0  0  0  0  0
  1 13  2  0  0  0  0
  2 10  1  0  0  0  0
  3  2  2  0  0  0  0
  4 17  2  0  0  0  0
  6 18  1  0  0  0  0
  7 20  1  6  0  0  0
  7 16  1  0  0  0  0
  8  7  1  0  0  0  0
  9  6  2  0  0  0  0
  9  1  1  0  0  0  0
 11 13  1  6  0  0  0
 11  3  1  0  0  0  0
 12  4  1  6  0  0  0
 12  8  1  0  0  0  0
 12  6  1  0  0  0  0
 13 15  1  0  0  0  0
 14  3  1  0  0  0  0
 14 23  1  0  0  0  0
 15  5  1  0  0  0  0
 15 10  2  0  0  0  0
 16 18  1  6  0  0  0
 16 14  1  0  0  0  0
 17  9  1  0  0  0  0
 18 11  1  0  0  0  0
 19 20  2  0  0  0  0
 20 21  1  0  0  0  0
 23 22  1  6  0  0  0
 24 27  1  0  0  0  0
 25 23  1  0  0  0  0
 25 24  1  0  0  0  0
 26 24  2  0  0  0  0
M  END
>  <MODEL>
2

>  <REMARK>
 VINA RESULT:      -7.8      1.908      4.682
  Name = 
  3 active torsions:
  status: ('A' for Active; 'I' for Inactive)
    1  A    between atoms: C_10  and  N_11
    2  A    between atoms: C_10  and  N_23
    3  A    between atoms: C_12  and  C_13
                            x       y       z     vdW  Elec       q    Type
                         _______ _______ _______ _____ _____    ______ ____

>  <TORSDO>
F 3

$$$$
=
 OpenBabel11062421073D

 27 31  0  0  1  0  0  0  0  0999 V2000
  186.2290  178.5200  144.0150 C   0  0  0  0  0  3  0  0  0  0  0  0
  187.6910  176.1430  146.9150 C   0  0  0  0  0  3  0  0  0  0  0  0
  188.4190  176.3600  145.8060 C   0  0  0  0  0  0  0  0  0  0  0  0
  186.6910  177.1890  140.5710 C   0  0  0  0  0  3  0  0  0  0  0  0
  185.2490  178.9880  146.7910 O   0  0  0  0  0  1  0  0  0  0  0  0
  187.9280  177.5740  142.5480 C   0  0  0  0  0  0  0  0  0  0  0  0
  189.1310  174.9400  142.5950 C   0  0  2  0  0  3  0  0  0  0  0  0
  187.9340  175.3220  141.7050 C   0  0  0  0  0  2  0  0  0  0  0  0
  186.8060  178.2620  142.6820 C   0  0  0  0  0  0  0  0  0  0  0  0
  186.6550  177.1470  147.3080 C   0  0  0  0  0  3  0  0  0  0  0  0
  188.3120  177.6140  145.0230 C   0  0  2  0  0  3  0  0  0  0  0  0
  187.9800  176.7950  141.2990 C   0  0  1  0  0  3  0  0  0  0  0  0
  186.9020  178.1610  145.1120 C   0  0  0  0  0  0  0  0  0  0  0  0
  189.1170  175.3460  145.0830 N   0  0  0  0  0  0  0  0  0  0  0  0
  186.2640  178.1030  146.4440 C   0  0  0  0  0  0  0  0  0  0  0  0
  189.4430  175.9140  143.7640 C   0  0  2  0  0  3  0  0  0  0  0  0
  185.9930  178.2300  141.4460 C   0  0  0  0  0  3  0  0  0  0  0  0
  188.7060  177.1900  143.6860 N   0  0  0  0  0  0  0  0  0  0  0  0
  191.5570  175.3050  142.1350 O   0  0  0  0  0  1  0  0  0  0  0  0
  190.3570  174.7130  141.7650 C   0  0  0  0  0  0  0  0  0  0  0  0
  190.3130  173.9880  140.7370 O   0  0  0  0  0  0  0  0  0  0  0  0
  189.6410  172.9150  145.1580 C   0  0  0  0  0  1  0  0  0  0  0  0
  189.8700  174.2970  145.7750 C   0  0  1  0  0  3  0  0  0  0  0  0
  191.9040  175.2710  146.9310 C   0  0  0  0  0  0  0  0  0  0  0  0
  191.2990  174.6330  145.8010 N   0  0  0  0  0  2  0  0  0  0  0  0
  193.1970  175.7660  146.8390 O   0  0  0  0  0  0  0  0  0  0  0  0
  191.2480  175.4270  148.0010 O   0  0  0  0  0  1  0  0  0  0  0  0
  1 13  2  0  0  0  0
  2 10  1  0  0  0  0
  3  2  2  0  0  0  0
  4 17  2  0  0  0  0
  6  9  2  0  0  0  0
  6 18  1  0  0  0  0
  7 20  1  6  0  0  0
  7 16  1  0  0  0  0
  8  7  1  0  0  0  0
  9  1  1  0  0  0  0
 11 13  1  6  0  0  0
 11  3  1  0  0  0  0
 12  4  1  6  0  0  0
 12  8  1  0  0  0  0
 12  6  1  0  0  0  0
 13 15  1  0  0  0  0
 14 23  1  0  0  0  0
 14  3  1  0  0  0  0
 15  5  1  0  0  0  0
 15 10  2  0  0  0  0
 16 18  1  6  0  0  0
 16 14  1  0  0  0  0
 17  9  1  0  0  0  0
 18 11  1  0  0  0  0
 20 19  1  0  0  0  0
 21 20  2  0  0  0  0
 23 22  1  6  0  0  0
 23 25  1  0  0  0  0
 24 27  1  0  0  0  0
 25 24  1  0  0  0  0
 26 24  2  0  0  0  0
M  END
>  <MODEL>
3

>  <REMARK>
 VINA RESULT:      -7.8      1.975      4.771
  Name = 
  3 active torsions:
  status: ('A' for Active; 'I' for Inactive)
    1  A    between atoms: C_10  and  N_11
    2  A    between atoms: C_10  and  N_23
    3  A    between atoms: C_12  and  C_13
                            x       y       z     vdW  Elec       q    Type
                         _______ _______ _______ _____ _____    ______ ____

>  <TORSDO>
F 3

$$$$
=
 OpenBabel11062421073D

 27 31  0  0  1  0  0  0  0  0999 V2000
  185.4400  178.2810  144.2330 C   0  0  0  0  0  3  0  0  0  0  0  0
  188.1740  176.7740  141.6940 C   0  0  0  0  0  3  0  0  0  0  0  0
  188.0270  176.2240  142.9110 C   0  0  0  0  0  0  0  0  0  0  0  0
  186.6520  178.6660  147.7310 C   0  0  0  0  0  3  0  0  0  0  0  0
  184.9570  178.6660  141.3170 O   0  0  0  0  0  1  0  0  0  0  0  0
  186.5820  177.0560  146.0020 C   0  0  0  0  0  0  0  0  0  0  0  0
  189.3800  176.3410  146.2260 C   0  0  2  0  0  3  0  0  0  0  0  0
  188.7580  177.5890  146.8780 C   0  0  0  0  0  2  0  0  0  0  0  0
  185.7240  177.9990  145.6540 C   0  0  0  0  0  0  0  0  0  0  0  0
  187.0320  177.5340  141.1000 C   0  0  0  0  0  3  0  0  0  0  0  0
  186.7340  176.2450  143.6360 C   0  0  0  0  0  0  0  0  0  0  0  0
  187.2940  177.3590  147.2550 C   0  0  1  0  0  3  0  0  0  0  0  0
  185.9640  177.5000  143.2830 C   0  0  0  0  0  0  0  0  0  0  0  0
  189.1050  175.8500  143.7680 N   0  0  0  0  0  0  0  0  0  0  0  0
  185.9810  177.8970  141.8590 C   0  0  1  0  0  3  0  0  0  0  0  0
  188.5330  175.6650  145.1130 C   0  0  2  0  0  3  0  0  0  0  0  0
  185.5550  179.0080  146.7230 C   0  0  0  0  0  3  0  0  0  0  0  0
  187.1490  176.1700  145.0310 N   0  0  0  0  0  0  0  0  0  0  0  0
  188.9410  174.2490  147.5140 O   0  0  0  0  0  0  0  0  0  0  0  0
  189.7670  175.3370  147.2680 C   0  0  0  0  0  0  0  0  0  0  0  0
  190.8350  175.4670  147.9210 O   0  0  0  0  0  1  0  0  0  0  0  0
  190.0840  174.6270  141.8350 C   0  0  0  0  0  1  0  0  0  0  0  0
  190.3000  175.1820  143.2450 C   0  0  1  0  0  3  0  0  0  0  0  0
  192.4910  175.9600  144.2510 C   0  0  0  0  0  0  0  0  0  0  0  0
  191.4470  176.0970  143.2820 N   0  0  0  0  0  2  0  0  0  0  0  0
  193.4430  176.9600  144.3940 O   0  0  0  0  0  0  0  0  0  0  0  0
  192.5260  174.9500  145.0110 O   0  0  0  0  0  1  0  0  0  0  0  0
  1  9  1  0  0  0  0
  2  3  1  0  0  0  0
  3 11  2  0  0  0  0
  3 14  1  0  0  0  0
  6 12  1  0  0  0  0
  7  8  1  0  0  0  0
  7 20  1  1  0  0  0
  9  6  2  0  0  0  0
  9 17  1  0  0  0  0
 10  2  2  0  0  0  0
 10 15  1  0  0  0  0
 11 18  1  0  0  0  0
 12  8  1  6  0  0  0
 12  4  1  0  0  0  0
 13 11  1  0  0  0  0
 13  1  2  0  0  0  0
 15  5  1  1  0  0  0
 15 13  1  0  0  0  0
 16 14  1  6  0  0  0
 16  7  1  0  0  0  0
 17  4  2  0  0  0  0
 18 16  1  0  0  0  0
 18  6  1  0  0  0  0
 20 19  2  0  0  0  0
 20 21  1  0  0  0  0
 23 22  1  6  0  0  0
 23 25  1  0  0  0  0
 23 14  1  0  0  0  0
 24 26  2  0  0  0  0
 24 27  1  0  0  0  0
 25 24  1  0  0  0  0
M  END
>  <MODEL>
4

>  <REMARK>
 VINA RESULT:      -6.9      1.534      1.998
  Name = 
  3 active torsions:
  status: ('A' for Active; 'I' for Inactive)
    1  A    between atoms: C_10  and  N_11
    2  A    between atoms: C_10  and  N_23
    3  A    between atoms: C_12  and  C_13
                            x       y       z     vdW  Elec       q    Type
                         _______ _______ _______ _____ _____    ______ ____

>  <TORSDO>
F 3

$$$$
=
 OpenBabel11062421073D

 27 31  0  0  1  0  0  0  0  0999 V2000
  187.0560  178.1310  144.4450 C   0  0  0  0  0  3  0  0  0  0  0  0
  188.7200  175.2980  146.7690 C   0  0  0  0  0  3  0  0  0  0  0  0
  189.2500  175.5600  145.5620 C   0  0  0  0  0  0  0  0  0  0  0  0
  186.6950  177.1580  140.8710 C   0  0  0  0  0  3  0  0  0  0  0  0
  186.6780  178.3830  147.3910 O   0  0  0  0  0  1  0  0  0  0  0  0
  188.3170  177.1820  142.5900 C   0  0  0  0  0  0  0  0  0  0  0  0
  189.1650  174.4460  142.1580 C   0  0  2  0  0  3  0  0  0  0  0  0
  187.8810  175.0520  141.5620 C   0  0  0  0  0  2  0  0  0  0  0  0
  187.3370  177.9660  143.0060 C   0  0  0  0  0  0  0  0  0  0  0  0
  187.9110  176.3550  147.4490 C   0  0  0  0  0  3  0  0  0  0  0  0
  189.1580  176.8990  144.9330 C   0  0  2  0  0  3  0  0  0  0  0  0
  188.0360  176.5490  141.2900 C   0  0  1  0  0  3  0  0  0  0  0  0
  187.8710  177.5800  145.3490 C   0  0  0  0  0  0  0  0  0  0  0  0
  189.6670  174.5660  144.6260 N   0  0  0  0  0  0  0  0  0  0  0  0
  187.4900  177.4400  146.7710 C   0  0  0  0  0  0  0  0  0  0  0  0
  189.8100  175.2430  143.3250 C   0  0  2  0  0  3  0  0  0  0  0  0
  186.3100  178.1620  141.9580 C   0  0  0  0  0  3  0  0  0  0  0  0
  189.2390  176.5900  143.5110 N   0  0  0  0  0  0  0  0  0  0  0  0
  189.7560  173.7280  139.8420 O   0  0  0  0  0  0  0  0  0  0  0  0
  190.1750  174.1850  141.0840 C   0  0  0  0  0  0  0  0  0  0  0  0
  191.4010  174.3790  141.2930 O   0  0  0  0  0  1  0  0  0  0  0  0
  189.7080  172.0790  144.6110 C   0  0  0  0  0  1  0  0  0  0  0  0
  190.3970  173.3710  145.0560 C   0  0  1  0  0  3  0  0  0  0  0  0
  192.8060  174.1150  145.2950 C   0  0  0  0  0  0  0  0  0  0  0  0
  191.7820  173.4240  144.5740 N   0  0  0  0  0  2  0  0  0  0  0  0
  194.0470  174.3270  144.7100 O   0  0  0  0  0  0  0  0  0  0  0  0
  192.5720  174.5760  146.4500 O   0  0  0  0  0  1  0  0  0  0  0  0
  1 13  2  0  0  0  0
  2 10  1  0  0  0  0
  3  2  2  0  0  0  0
  4 17  2  0  0  0  0
  6  9  2  0  0  0  0
  6 18  1  0  0  0  0
  7 20  1  6  0  0  0
  7 16  1  0  0  0  0
  8  7  1  0  0  0  0
  9  1  1  0  0  0  0
 11 13  1  6  0  0  0
 11  3  1  0  0  0  0
 12  4  1  1  0  0  0
 12  8  1  0  0  0  0
 12  6  1  0  0  0  0
 13 15  1  0  0  0  0
 14 23  1  0  0  0  0
 14  3  1  0  0  0  0
 15  5  1  0  0  0  0
 15 10  2  0  0  0  0
 16 18  1  1  0  0  0
 16 14  1  0  0  0  0
 17  9  1  0  0  0  0
 18 11  1  0  0  0  0
 19 20  2  0  0  0  0
 20 21  1  0  0  0  0
 23 22  1  6  0  0  0
 24 27  1  0  0  0  0
 25 23  1  0  0  0  0
 25 24  1  0  0  0  0
 26 24  2  0  0  0  0
M  END
>  <MODEL>
5

>  <REMARK>
 VINA RESULT:      -6.9      2.330      5.006
  Name = 
  3 active torsions:
  status: ('A' for Active; 'I' for Inactive)
    1  A    between atoms: C_10  and  N_11
    2  A    between atoms: C_10  and  N_23
    3  A    between atoms: C_12  and  C_13
                            x       y       z     vdW  Elec       q    Type
                         _______ _______ _______ _____ _____    ______ ____

>  <TORSDO>
F 3

$$$$
=
 OpenBabel11062421073D

 27 31  0  0  1  0  0  0  0  0999 V2000
  188.4120  176.9440  146.6470 C   0  0  0  0  0  3  0  0  0  0  0  0
  189.5930  173.8640  144.3410 C   0  0  0  0  0  3  0  0  0  0  0  0
  189.2270  175.0210  143.7640 C   0  0  0  0  0  0  0  0  0  0  0  0
  185.3800  178.7080  145.4040 C   0  0  0  0  0  3  0  0  0  0  0  0
  190.2580  174.9480  147.8700 O   0  0  0  0  0  1  0  0  0  0  0  0
  187.4770  177.9400  144.6300 C   0  0  0  0  0  0  0  0  0  0  0  0
  186.4030  176.6440  142.2730 C   0  0  2  0  0  3  0  0  0  0  0  0
  185.5420  177.1320  143.4530 C   0  0  0  0  0  2  0  0  0  0  0  0
  187.5460  177.9150  145.9500 C   0  0  0  0  0  0  0  0  0  0  0  0
  190.0660  173.8800  145.7590 C   0  0  0  0  0  3  0  0  0  0  0  0
  189.3860  176.3280  144.4450 C   0  0  2  0  0  3  0  0  0  0  0  0
  186.1550  178.3570  144.1310 C   0  0  1  0  0  3  0  0  0  0  0  0
  189.2280  176.1550  145.9410 C   0  0  0  0  0  0  0  0  0  0  0  0
  188.3860  175.1250  142.6160 N   0  0  0  0  0  0  0  0  0  0  0  0
  189.8800  174.9670  146.5320 C   0  0  0  0  0  0  0  0  0  0  0  0
  187.9260  176.5230  142.5520 C   0  0  2  0  0  3  0  0  0  0  0  0
  186.3450  178.5130  146.5740 C   0  0  0  0  0  3  0  0  0  0  0  0
  188.3470  177.1400  143.8240 N   0  0  0  0  0  0  0  0  0  0  0  0
  184.8630  177.8380  140.7130 O   0  0  0  0  0  1  0  0  0  0  0  0
  186.1610  177.4850  141.0570 C   0  0  0  0  0  0  0  0  0  0  0  0
  187.1220  177.8790  140.3460 O   0  0  0  0  0  0  0  0  0  0  0  0
  187.7130  172.9380  141.6380 C   0  0  0  0  0  1  0  0  0  0  0  0
  188.5360  174.2180  141.4750 C   0  0  1  0  0  3  0  0  0  0  0  0
  188.1910  174.2400  138.9650 C   0  0  0  0  0  0  0  0  0  0  0  0
  188.1910  174.9120  140.2280 N   0  0  0  0  0  2  0  0  0  0  0  0
  188.0710  174.9680  137.7900 O   0  0  0  0  0  0  0  0  0  0  0  0
  188.3470  172.9860  138.9110 O   0  0  0  0  0  1  0  0  0  0  0  0
  2 10  1  0  0  0  0
  3  2  2  0  0  0  0
  4 17  2  0  0  0  0
  6  9  2  0  0  0  0
  7 20  1  6  0  0  0
  7 16  1  0  0  0  0
  7  8  1  0  0  0  0
  9 17  1  0  0  0  0
  9  1  1  0  0  0  0
 10 15  2  0  0  0  0
 11  3  1  6  0  0  0
 11 13  1  0  0  0  0
 12  8  1  1  0  0  0
 12  6  1  0  0  0  0
 12  4  1  0  0  0  0
 13 15  1  0  0  0  0
 13  1  2  0  0  0  0
 14  3  1  0  0  0  0
 15  5  1  0  0  0  0
 16 14  1  1  0  0  0
 16 18  1  0  0  0  0
 18 11  1  0  0  0  0
 18  6  1  0  0  0  0
 19 20  1  0  0  0  0
 21 20  2  0  0  0  0
 23 22  1  1  0  0  0
 23 14  1  0  0  0  0
 24 25  1  0  0  0  0
 25 23  1  0  0  0  0
 26 24  2  0  0  0  0
 27 24  1  0  0  0  0
M  END
>  <MODEL>
6

>  <REMARK>
 VINA RESULT:      -6.6      2.043      5.044
  Name = 
  3 active torsions:
  status: ('A' for Active; 'I' for Inactive)
    1  A    between atoms: C_10  and  N_11
    2  A    between atoms: C_10  and  N_23
    3  A    between atoms: C_12  and  C_13
                            x       y       z     vdW  Elec       q    Type
                         _______ _______ _______ _____ _____    ______ ____

>  <TORSDO>
F 3

$$$$
=
 OpenBabel11062421073D

 27 31  0  0  1  0  0  0  0  0999 V2000
  188.9170  177.1880  146.8850 C   0  0  0  0  0  3  0  0  0  0  0  0
  191.7830  175.0320  145.0590 C   0  0  0  0  0  3  0  0  0  0  0  0
  191.0200  175.8670  144.3340 C   0  0  0  0  0  0  0  0  0  0  0  0
  185.6740  177.2710  145.0610 C   0  0  0  0  0  3  0  0  0  0  0  0
  191.2460  176.3330  148.5370 O   0  0  0  0  0  1  0  0  0  0  0  0
  187.9820  177.5970  144.6720 C   0  0  0  0  0  0  0  0  0  0  0  0
  188.0660  175.9250  142.3080 C   0  0  2  0  0  3  0  0  0  0  0  0
  186.8900  175.9500  143.3020 C   0  0  0  0  0  2  0  0  0  0  0  0
  187.8290  177.6190  145.9860 C   0  0  0  0  0  0  0  0  0  0  0  0
  191.9440  175.2850  146.5240 C   0  0  0  0  0  3  0  0  0  0  0  0
  190.4260  177.0960  144.9120 C   0  0  2  0  0  3  0  0  0  0  0  0
  186.7270  177.3250  143.9510 C   0  0  1  0  0  3  0  0  0  0  0  0
  190.1150  176.8810  146.3780 C   0  0  0  0  0  0  0  0  0  0  0  0
  190.4390  175.5450  143.0710 N   0  0  0  0  0  0  0  0  0  0  0  0
  191.1380  176.1560  147.1620 C   0  0  0  0  0  0  0  0  0  0  0  0
  189.3930  176.5510  142.8160 C   0  0  2  0  0  3  0  0  0  0  0  0
  186.4010  177.5730  146.3710 C   0  0  0  0  0  3  0  0  0  0  0  0
  189.2500  177.3050  144.0760 N   0  0  0  0  0  0  0  0  0  0  0  0
  187.5490  177.9160  140.8950 O   0  0  0  0  0  1  0  0  0  0  0  0
  187.6670  176.5370  141.0010 C   0  0  0  0  0  0  0  0  0  0  0  0
  187.4410  175.8150  139.9950 O   0  0  0  0  0  0  0  0  0  0  0  0
  192.6420  175.2890  141.9420 C   0  0  0  0  0  1  0  0  0  0  0  0
  191.1910  174.8120  142.0490 C   0  0  1  0  0  3  0  0  0  0  0  0
  190.1220  172.5380  141.7280 C   0  0  0  0  0  0  0  0  0  0  0  0
  191.1280  173.3690  142.3130 N   0  0  0  0  0  2  0  0  0  0  0  0
  189.9610  171.2300  142.1620 O   0  0  0  0  0  1  0  0  0  0  0  0
  189.3450  173.0040  140.8450 O   0  0  0  0  0  0  0  0  0  0  0  0
  2 10  1  0  0  0  0
  3  2  2  0  0  0  0
  4 17  2  0  0  0  0
  6  9  2  0  0  0  0
  7 20  1  6  0  0  0
  7 16  1  0  0  0  0
  7  8  1  0  0  0  0
  9 17  1  0  0  0  0
  9  1  1  0  0  0  0
 10 15  2  0  0  0  0
 11  3  1  6  0  0  0
 11 13  1  0  0  0  0
 12  8  1  1  0  0  0
 12  6  1  0  0  0  0
 12  4  1  0  0  0  0
 13  1  2  0  0  0  0
 13 15  1  0  0  0  0
 14  3  1  0  0  0  0
 15  5  1  0  0  0  0
 16 14  1  1  0  0  0
 16 18  1  0  0  0  0
 18  6  1  0  0  0  0
 18 11  1  0  0  0  0
 19 20  1  0  0  0  0
 21 20  2  0  0  0  0
 23 22  1  1  0  0  0
 23 25  1  0  0  0  0
 23 14  1  0  0  0  0
 24 26  1  0  0  0  0
 24 25  1  0  0  0  0
 27 24  2  0  0  0  0
M  END
>  <MODEL>
7

>  <REMARK>
 VINA RESULT:      -6.4      1.773      4.891
  Name = 
  3 active torsions:
  status: ('A' for Active; 'I' for Inactive)
    1  A    between atoms: C_10  and  N_11
    2  A    between atoms: C_10  and  N_23
    3  A    between atoms: C_12  and  C_13
                            x       y       z     vdW  Elec       q    Type
                         _______ _______ _______ _____ _____    ______ ____

>  <TORSDO>
F 3

$$$$
=
 OpenBabel11062421073D

 27 31  0  0  1  0  0  0  0  0999 V2000
  191.5350  174.8660  142.7030 C   0  0  0  0  0  3  0  0  0  0  0  0
  187.5760  175.4990  143.0450 C   0  0  0  0  0  3  0  0  0  0  0  0
  188.4300  176.2580  143.7510 C   0  0  0  0  0  0  0  0  0  0  0  0
  193.3700  174.8820  145.9410 C   0  0  0  0  0  3  0  0  0  0  0  0
  189.8210  174.0850  140.3930 O   0  0  0  0  0  1  0  0  0  0  0  0
  191.7990  176.1770  144.7400 C   0  0  0  0  0  0  0  0  0  0  0  0
  189.9810  176.4830  146.9730 C   0  0  2  0  0  3  0  0  0  0  0  0
  191.1390  175.4690  146.9410 C   0  0  0  0  0  2  0  0  0  0  0  0
  192.3170  175.3320  143.8650 C   0  0  0  0  0  0  0  0  0  0  0  0
  188.0580  174.8350  141.7960 C   0  0  0  0  0  3  0  0  0  0  0  0
  189.8020  176.5540  143.2740 C   0  0  0  0  0  0  0  0  0  0  0  0
  192.3140  175.9800  146.1060 C   0  0  1  0  0  3  0  0  0  0  0  0
  190.3300  175.3910  142.4610 C   0  0  0  0  0  0  0  0  0  0  0  0
  188.2670  176.5980  145.1280 N   0  0  0  0  0  0  0  0  0  0  0  0
  189.3750  174.7670  141.5200 C   0  0  1  0  0  3  0  0  0  0  0  0
  189.5730  177.0880  145.6020 C   0  0  2  0  0  3  0  0  0  0  0  0
  193.4300  174.5510  144.4500 C   0  0  0  0  0  3  0  0  0  0  0  0
  190.5270  176.7930  144.5160 N   0  0  0  0  0  0  0  0  0  0  0  0
  191.3280  177.4490  148.8390 O   0  0  0  0  0  1  0  0  0  0  0  0
  190.2590  177.5730  147.9610 C   0  0  0  0  0  0  0  0  0  0  0  0
  189.5370  178.6030  148.0040 O   0  0  0  0  0  0  0  0  0  0  0  0
  186.8300  176.6490  147.1580 C   0  0  0  0  0  1  0  0  0  0  0  0
  186.9600  176.9800  145.6700 C   0  0  1  0  0  3  0  0  0  0  0  0
  185.6910  178.8410  144.5110 C   0  0  0  0  0  0  0  0  0  0  0  0
  186.7050  178.4040  145.4210 N   0  0  0  0  0  2  0  0  0  0  0  0
  185.6210  180.1770  144.1390 O   0  0  0  0  0  1  0  0  0  0  0  0
  184.8840  178.0080  144.0070 O   0  0  0  0  0  0  0  0  0  0  0  0
  1  9  1  0  0  0  0
  2  3  1  0  0  0  0
  3 14  1  0  0  0  0
  6 12  1  0  0  0  0
  7 20  1  1  0  0  0
  8  7  1  0  0  0  0
  9 17  1  0  0  0  0
  9  6  2  0  0  0  0
 10  2  2  0  0  0  0
 11  3  2  0  0  0  0
 11 18  1  0  0  0  0
 12  4  1  6  0  0  0
 12  8  1  0  0  0  0
 13  1  2  0  0  0  0
 13 11  1  0  0  0  0
 14 16  1  0  0  0  0
 14 23  1  0  0  0  0
 15  5  1  1  0  0  0
 15 10  1  0  0  0  0
 15 13  1  0  0  0  0
 16 18  1  6  0  0  0
 16  7  1  0  0  0  0
 17  4  2  0  0  0  0
 18  6  1  0  0  0  0
 20 21  2  0  0  0  0
 20 19  1  0  0  0  0
 23 22  1  1  0  0  0
 24 25  1  0  0  0  0
 25 23  1  0  0  0  0
 26 24  1  0  0  0  0
 27 24  2  0  0  0  0
M  END
>  <MODEL>
8

>  <REMARK>
 VINA RESULT:      -6.4      2.182      5.602
  Name = 
  3 active torsions:
  status: ('A' for Active; 'I' for Inactive)
    1  A    between atoms: C_10  and  N_11
    2  A    between atoms: C_10  and  N_23
    3  A    between atoms: C_12  and  C_13
                            x       y       z     vdW  Elec       q    Type
                         _______ _______ _______ _____ _____    ______ ____

>  <TORSDO>
F 3

$$$$
=
 OpenBabel11062421073D

 27 31  0  0  1  0  0  0  0  0999 V2000
  187.7270  176.0690  140.9850 C   0  0  0  0  0  3  0  0  0  0  0  0
  187.7660  177.3390  144.8030 C   0  0  0  0  0  3  0  0  0  0  0  0
  188.8140  176.6490  144.3240 C   0  0  0  0  0  0  0  0  0  0  0  0
  188.8990  172.5660  140.5280 C   0  0  0  0  0  3  0  0  0  0  0  0
  186.0920  178.4730  141.6430 O   0  0  0  0  0  1  0  0  0  0  0  0
  189.5540  174.5750  141.5880 C   0  0  0  0  0  0  0  0  0  0  0  0
  190.1350  173.3230  144.1360 C   0  0  2  0  0  3  0  0  0  0  0  0
  189.3530  172.6380  142.9990 C   0  0  0  0  0  2  0  0  0  0  0  0
  188.6050  174.9100  140.7310 C   0  0  0  0  0  0  0  0  0  0  0  0
  186.8840  178.0740  143.8450 C   0  0  0  0  0  3  0  0  0  0  0  0
  189.1960  176.6840  142.8920 C   0  0  0  0  0  0  0  0  0  0  0  0
  189.8110  173.1250  141.6240 C   0  0  1  0  0  3  0  0  0  0  0  0
  187.9630  176.8650  142.0320 C   0  0  0  0  0  0  0  0  0  0  0  0
  189.4750  175.5910  145.0190 N   0  0  0  0  0  0  0  0  0  0  0  0
  186.9640  177.8390  142.5210 C   0  0  1  0  0  3  0  0  0  0  0  0
  190.2800  174.8650  144.0210 C   0  0  2  0  0  3  0  0  0  0  0  0
  188.2010  173.7650  139.8860 C   0  0  0  0  0  3  0  0  0  0  0  0
  189.8710  175.4050  142.7100 N   0  0  0  0  0  0  0  0  0  0  0  0
  191.6020  171.3060  144.2170 O   0  0  0  0  0  0  0  0  0  0  0  0
  191.4780  172.6850  144.3150 C   0  0  0  0  0  0  0  0  0  0  0  0
  192.4970  173.3860  144.5500 O   0  0  0  0  0  1  0  0  0  0  0  0
  189.0970  174.5630  147.2530 C   0  0  0  0  0  1  0  0  0  0  0  0
  189.7650  175.6830  146.4530 C   0  0  1  0  0  3  0  0  0  0  0  0
  191.8330  176.6330  147.5660 C   0  0  0  0  0  0  0  0  0  0  0  0
  191.2160  175.6990  146.6750 N   0  0  0  0  0  2  0  0  0  0  0  0
  193.2140  176.7620  147.5900 O   0  0  0  0  0  0  0  0  0  0  0  0
  191.1220  177.3760  148.3020 O   0  0  0  0  0  1  0  0  0  0  0  0
  1 13  2  0  0  0  0
  3  2  1  0  0  0  0
  3 14  1  0  0  0  0
  6 12  1  0  0  0  0
  6 18  1  0  0  0  0
  7 20  1  6  0  0  0
  8  7  1  0  0  0  0
  9  1  1  0  0  0  0
  9  6  2  0  0  0  0
 10  2  2  0  0  0  0
 11  3  2  0  0  0  0
 12  4  1  6  0  0  0
 12  8  1  0  0  0  0
 13 15  1  0  0  0  0
 13 11  1  0  0  0  0
 14 23  1  0  0  0  0
 15  5  1  1  0  0  0
 15 10  1  0  0  0  0
 16 18  1  6  0  0  0
 16  7  1  0  0  0  0
 16 14  1  0  0  0  0
 17  4  2  0  0  0  0
 17  9  1  0  0  0  0
 18 11  1  0  0  0  0
 19 20  2  0  0  0  0
 20 21  1  0  0  0  0
 23 25  1  0  0  0  0
 23 22  1  1  0  0  0
 24 26  2  0  0  0  0
 24 27  1  0  0  0  0
 25 24  1  0  0  0  0
M  END
>  <MODEL>
9

>  <REMARK>
 VINA RESULT:      -6.4      2.206      5.244
  Name = 
  3 active torsions:
  status: ('A' for Active; 'I' for Inactive)
    1  A    between atoms: C_10  and  N_11
    2  A    between atoms: C_10  and  N_23
    3  A    between atoms: C_12  and  C_13
                            x       y       z     vdW  Elec       q    Type
                         _______ _______ _______ _____ _____    ______ ____

>  <TORSDO>
F 3

$$$$
