=
 OpenBabel11062421373D

 52 56  0  0  1  0  0  0  0  0999 V2000
  189.8760  175.0140  146.8730 C   0  0  0  0  0  0  0  0  0  0  0  0
  191.1100  172.0680  143.8370 C   0  0  0  0  0  0  0  0  0  0  0  0
  189.8550  172.0080  144.6550 C   0  0  0  0  0  2  0  0  0  0  0  0
  192.7500  173.4780  142.3890 C   0  0  1  0  0  3  0  0  0  0  0  0
  192.7950  175.7790  146.3420 C   0  0  0  0  0  3  0  0  0  0  0  0
  193.6310  174.9970  145.6750 C   0  0  0  0  0  3  0  0  0  0  0  0
  190.2600  173.9590  146.0340 O   0  0  0  0  0  0  0  0  0  0  0  0
  194.8060  174.2910  143.5740 C   0  0  1  0  0  3  0  0  0  0  0  0
  189.3580  173.3760  145.1020 C   0  0  0  0  0  2  0  0  0  0  0  0
  193.8120  173.1470  143.4260 C   0  0  0  0  0  2  0  0  0  0  0  0
  193.0340  172.7540  141.0730 C   0  0  1  0  0  3  0  0  0  0  0  0
  190.7540  175.6190  147.6130 N   0  0  0  0  0  0  0  0  0  0  0  0
  192.1720  175.2830  147.6020 C   0  0  0  0  0  2  0  0  0  0  0  0
  191.7600  172.4170  140.5560 O   0  0  0  0  0  0  0  0  0  0  0  0
  191.2900  173.1350  142.7740 C   0  0  1  0  0  3  0  0  0  0  0  0
  190.7690  172.6290  141.4850 C   0  0  0  0  0  0  0  0  0  0  0  0
  189.5500  172.4230  141.2450 O   0  0  0  0  0  0  0  0  0  0  0  0
  194.2240  175.4560  144.3810 C   0  0  0  0  0  2  0  0  0  0  0  0
  191.9120  171.1550  143.9460 O   0  0  0  0  0  0  0  0  0  0  0  0
  196.3370  173.6890  144.2710 S   0  0  0  0  0  0  0  0  0  0  0  0
  196.9640  174.7790  145.0920 O   0  0  0  0  0  0  0  0  0  0  0  0
  196.0450  172.5160  145.1670 O   0  0  0  0  0  0  0  0  0  0  0  0
  196.8370  173.3030  141.7280 O   0  0  0  0  0  0  0  0  0  0  0  0
  197.8620  174.2450  141.9370 C   0  0  2  0  0  3  0  0  0  0  0  0
  197.4900  173.2260  142.9710 C   0  0  1  0  0  3  0  0  0  0  0  0
  197.2860  175.6260  142.0850 C   0  0  0  0  0  0  0  0  0  0  0  0
  197.7640  176.4080  142.8940 O   0  0  0  0  0  0  0  0  0  0  0  0
  196.1450  177.4770  141.1830 F   0  0  0  0  0  0  0  0  0  0  0  0
  196.5210  175.6740  139.8680 F   0  0  0  0  0  0  0  0  0  0  0  0
  196.2220  176.0950  141.1490 C   0  0  0  0  0  3  0  0  0  0  0  0
  193.7220  173.6420  140.1560 N   0  0  0  0  0  2  0  0  0  0  0  0
  194.3590  172.8330  139.2030 N   0  0  0  0  0  2  0  0  0  0  0  0
  194.3670  174.7500  137.6090 C   0  0  0  0  0  2  0  0  0  0  0  0
  193.9820  173.3250  137.8880 C   0  0  0  0  0  0  0  0  0  0  0  0
  194.0910  172.4550  136.8090 O   0  0  0  0  0  1  0  0  0  0  0  0
  192.9010  174.3740  137.8280 C   0  0  0  0  0  2  0  0  0  0  0  0
  188.4520  175.4740  146.9290 C   0  0  0  0  0  2  0  0  0  0  0  0
  189.6740  177.6930  146.0530 O   0  0  0  0  0  0  0  0  0  0  0  0
  187.5410  177.9780  147.2210 O   0  0  0  0  0  0  0  0  0  0  0  0
  188.3010  177.1200  146.2510 S   0  0  0  0  0  0  0  0  0  0  0  0
  187.4480  177.0570  144.6760 C   0  0  2  0  0  3  0  0  0  0  0  0
  186.0190  176.6030  144.9230 C   0  0  0  0  0  1  0  0  0  0  0  0
  186.7570  176.6130  141.5370 N   0  0  0  0  0  2  0  0  0  0  0  0
  189.0010  178.0940  141.5640 O   0  0  0  0  0  0  0  0  0  0  0  0
  187.1640  174.4600  142.2970 O   0  0  0  0  0  0  0  0  0  0  0  0
  189.5770  176.4880  143.2640 C   0  0  0  0  0  2  0  0  0  0  0  0
  185.6090  178.3570  142.6100 O   0  0  0  0  0  1  0  0  0  0  0  0
  187.8740  178.8140  141.9660 C   0  0  0  0  0  2  0  0  0  0  0  0
  187.3150  175.6920  142.4920 C   0  0  0  0  0  0  0  0  0  0  0  0
  189.7190  177.9170  142.7480 C   0  0  0  0  0  2  0  0  0  0  0  0
  186.5850  178.0600  141.6550 C   0  0  1  0  0  3  0  0  0  0  0  0
  188.1470  176.1140  143.6750 C   0  0  2  0  0  3  0  0  0  0  0  0
  1 37  1  0  0  0  0
  1 12  2  0  0  0  0
  2 19  2  0  0  0  0
  2  3  1  0  0  0  0
  3  9  1  0  0  0  0
  4 15  1  0  0  0  0
  4 10  1  1  0  0  0
  5 13  1  0  0  0  0
  6  5  2  0  0  0  0
  7  1  1  0  0  0  0
  8 20  1  1  0  0  0
  8 18  1  0  0  0  0
  9  7  1  0  0  0  0
 10  8  1  0  0  0  0
 11 31  1  6  0  0  0
 11  4  1  0  0  0  0
 13 12  1  0  0  0  0
 14 11  1  0  0  0  0
 14 16  1  0  0  0  0
 15 16  1  6  0  0  0
 15  2  1  0  0  0  0
 17 16  2  0  0  0  0
 18  6  1  0  0  0  0
 20 21  2  0  0  0  0
 20 22  2  0  0  0  0
 23 24  1  0  0  0  0
 23 25  1  0  0  0  0
 24 26  1  1  0  0  0
 24 25  1  0  0  0  0
 25 20  1  1  0  0  0
 26 27  2  0  0  0  0
 29 30  1  0  0  0  0
 30 28  1  0  0  0  0
 30 26  1  0  0  0  0
 32 31  1  0  0  0  0
 33 36  1  0  0  0  0
 33 34  1  0  0  0  0
 34 32  1  0  0  0  0
 35 34  1  0  0  0  0
 36 34  1  0  0  0  0
 38 40  2  0  0  0  0
 40 37  1  0  0  0  0
 40 39  2  0  0  0  0
 41 42  1  1  0  0  0
 41 40  1  0  0  0  0
 43 51  1  0  0  0  0
 43 49  1  0  0  0  0
 44 48  1  0  0  0  0
 44 50  1  0  0  0  0
 45 49  2  0  0  0  0
 46 52  1  0  0  0  0
 49 52  1  0  0  0  0
 50 46  1  0  0  0  0
 51 48  1  0  0  0  0
 51 47  1  1  0  0  0
 52 41  1  6  0  0  0
M  END
>  <MODEL>
1

>  <REMARK>
 VINA RESULT:      -7.0      0.000      0.000
  Name = 
  11 active torsions:
  status: ('A' for Active; 'I' for Inactive)
    1  A    between atoms: S_1  and  C_23
    2  A    between atoms: S_1  and  C_46
    3  A    between atoms: C_3  and  C_47
    4  A    between atoms: C_6  and  C_49
    5  A    between atoms: C_6  and  S_52
    6  A    between atoms: N_9  and  N_15
    7  A    between atoms: N_9  and  C_24
    8  A    between atoms: N_15  and  C_29
    9  A    between atoms: C_17  and  C_34
   10  A    between atoms: C_17  and  C_41
   11  A    between atoms: C_47  and  S_52
                            x       y       z     vdW  Elec       q    Type
                         _______ _______ _______ _____ _____    ______ ____

>  <TORSDO>
F 11

$$$$
=
 OpenBabel11062421373D

 52 56  0  0  1  0  0  0  0  0999 V2000
  190.3230  175.3040  146.4050 C   0  0  0  0  0  0  0  0  0  0  0  0
  191.3100  172.2720  143.3630 C   0  0  0  0  0  0  0  0  0  0  0  0
  190.3140  172.1070  144.4710 C   0  0  0  0  0  2  0  0  0  0  0  0
  192.2890  173.7530  141.4590 C   0  0  1  0  0  3  0  0  0  0  0  0
  192.8530  176.4500  145.1100 C   0  0  0  0  0  3  0  0  0  0  0  0
  193.6340  175.7380  144.3100 C   0  0  0  0  0  3  0  0  0  0  0  0
  190.6790  174.2360  145.5700 O   0  0  0  0  0  0  0  0  0  0  0  0
  194.3870  174.9990  142.0350 C   0  0  1  0  0  3  0  0  0  0  0  0
  189.7020  173.4220  144.9350 C   0  0  0  0  0  2  0  0  0  0  0  0
  193.6060  173.7050  142.2180 C   0  0  0  0  0  2  0  0  0  0  0  0
  192.3780  172.9420  140.1660 C   0  0  1  0  0  3  0  0  0  0  0  0
  191.2290  176.1150  146.8590 N   0  0  0  0  0  0  0  0  0  0  0  0
  192.6420  176.0030  146.5160 C   0  0  0  0  0  2  0  0  0  0  0  0
  191.0990  172.3580  140.0080 O   0  0  0  0  0  0  0  0  0  0  0  0
  191.0440  173.2320  142.2190 C   0  0  1  0  0  3  0  0  0  0  0  0
  190.3330  172.5140  141.1390 C   0  0  0  0  0  0  0  0  0  0  0  0
  189.1480  172.0960  141.2250 O   0  0  0  0  0  0  0  0  0  0  0  0
  193.8150  176.1400  142.8810 C   0  0  0  0  0  2  0  0  0  0  0  0
  192.2640  171.5110  143.3300 O   0  0  0  0  0  0  0  0  0  0  0  0
  196.1210  174.7210  142.3660 S   0  0  0  0  0  0  0  0  0  0  0  0
  196.9360  175.3490  141.2720 O   0  0  0  0  0  0  0  0  0  0  0  0
  196.4850  175.3700  143.6730 O   0  0  0  0  0  0  0  0  0  0  0  0
  197.5660  172.7360  143.2800 O   0  0  0  0  0  0  0  0  0  0  0  0
  196.3250  172.2160  143.6950 C   0  0  2  0  0  3  0  0  0  0  0  0
  196.4890  172.9610  142.4050 C   0  0  1  0  0  3  0  0  0  0  0  0
  195.8010  172.9840  144.8780 C   0  0  0  0  0  0  0  0  0  0  0  0
  194.5990  173.0360  145.0930 O   0  0  0  0  0  0  0  0  0  0  0  0
  196.1310  174.5820  146.5750 F   0  0  0  0  0  0  0  0  0  0  0  0
  197.1660  172.5760  146.7420 F   0  0  0  0  0  0  0  0  0  0  0  0
  196.7530  173.5650  145.8710 C   0  0  0  0  0  3  0  0  0  0  0  0
  192.6640  173.8210  139.0480 N   0  0  0  0  0  2  0  0  0  0  0  0
  192.3660  173.1050  137.8790 N   0  0  0  0  0  2  0  0  0  0  0  0
  190.1460  174.0370  137.2290 C   0  0  0  0  0  2  0  0  0  0  0  0
  191.6290  173.9960  136.9960 C   0  0  0  0  0  0  0  0  0  0  0  0
  192.2150  175.2110  136.6580 O   0  0  0  0  0  1  0  0  0  0  0  0
  190.7150  173.3600  135.9810 C   0  0  0  0  0  2  0  0  0  0  0  0
  188.8940  175.5410  146.7830 C   0  0  0  0  0  2  0  0  0  0  0  0
  189.5800  178.0110  146.0020 O   0  0  0  0  0  0  0  0  0  0  0  0
  187.5410  177.7880  147.3370 O   0  0  0  0  0  0  0  0  0  0  0  0
  188.3670  177.1630  146.2500 S   0  0  0  0  0  0  0  0  0  0  0  0
  187.4130  177.0300  144.7400 C   0  0  2  0  0  3  0  0  0  0  0  0
  186.0410  176.4770  145.0880 C   0  0  0  0  0  1  0  0  0  0  0  0
  186.5440  176.5320  141.6530 N   0  0  0  0  0  2  0  0  0  0  0  0
  188.6780  178.1620  141.5320 O   0  0  0  0  0  0  0  0  0  0  0  0
  187.1450  174.4140  142.3800 O   0  0  0  0  0  0  0  0  0  0  0  0
  189.4750  176.6030  143.1860 C   0  0  0  0  0  2  0  0  0  0  0  0
  185.3550  178.1970  142.8050 O   0  0  0  0  0  1  0  0  0  0  0  0
  187.5340  178.8060  142.0100 C   0  0  0  0  0  2  0  0  0  0  0  0
  187.2250  175.6540  142.5670 C   0  0  0  0  0  0  0  0  0  0  0  0
  189.4850  178.0370  142.6650 C   0  0  0  0  0  2  0  0  0  0  0  0
  186.2820  177.9640  141.7850 C   0  0  1  0  0  3  0  0  0  0  0  0
  188.1040  176.1350  143.6930 C   0  0  2  0  0  3  0  0  0  0  0  0
  1 37  1  0  0  0  0
  1 12  2  0  0  0  0
  2  3  1  0  0  0  0
  3  9  1  0  0  0  0
  4 10  1  1  0  0  0
  4 15  1  0  0  0  0
  5 13  1  0  0  0  0
  6  5  2  0  0  0  0
  7  1  1  0  0  0  0
  8 10  1  0  0  0  0
  8 20  1  1  0  0  0
  8 18  1  0  0  0  0
  9  7  1  0  0  0  0
 11 31  1  6  0  0  0
 11  4  1  0  0  0  0
 13 12  1  0  0  0  0
 14 11  1  0  0  0  0
 14 16  1  0  0  0  0
 15 16  1  6  0  0  0
 15  2  1  0  0  0  0
 16 17  2  0  0  0  0
 18  6  1  0  0  0  0
 19  2  2  0  0  0  0
 20 22  2  0  0  0  0
 21 20  2  0  0  0  0
 23 24  1  0  0  0  0
 24 26  1  1  0  0  0
 25 20  1  1  0  0  0
 25 23  1  0  0  0  0
 25 24  1  0  0  0  0
 26 27  2  0  0  0  0
 26 30  1  0  0  0  0
 30 28  1  0  0  0  0
 30 29  1  0  0  0  0
 32 31  1  0  0  0  0
 34 33  1  0  0  0  0
 34 32  1  0  0  0  0
 35 34  1  0  0  0  0
 36 34  1  0  0  0  0
 36 33  1  0  0  0  0
 38 40  2  0  0  0  0
 40 37  1  0  0  0  0
 40 39  2  0  0  0  0
 41 42  1  1  0  0  0
 41 40  1  0  0  0  0
 43 51  1  0  0  0  0
 43 49  1  0  0  0  0
 44 48  1  0  0  0  0
 44 50  1  0  0  0  0
 45 49  2  0  0  0  0
 46 52  1  0  0  0  0
 49 52  1  0  0  0  0
 50 46  1  0  0  0  0
 51 48  1  0  0  0  0
 51 47  1  1  0  0  0
 52 41  1  6  0  0  0
M  END
>  <MODEL>
2

>  <REMARK>
 VINA RESULT:      -6.7      1.889      2.353
  Name = 
  11 active torsions:
  status: ('A' for Active; 'I' for Inactive)
    1  A    between atoms: S_1  and  C_23
    2  A    between atoms: S_1  and  C_46
    3  A    between atoms: C_3  and  C_47
    4  A    between atoms: C_6  and  C_49
    5  A    between atoms: C_6  and  S_52
    6  A    between atoms: N_9  and  N_15
    7  A    between atoms: N_9  and  C_24
    8  A    between atoms: N_15  and  C_29
    9  A    between atoms: C_17  and  C_34
   10  A    between atoms: C_17  and  C_41
   11  A    between atoms: C_47  and  S_52
                            x       y       z     vdW  Elec       q    Type
                         _______ _______ _______ _____ _____    ______ ____

>  <TORSDO>
F 11

$$$$
=
 OpenBabel11062421373D

 52 56  0  0  1  0  0  0  0  0999 V2000
  189.7930  172.0130  139.6960 C   0  0  0  0  0  0  0  0  0  0  0  0
  190.7320  171.9810  144.0020 C   0  0  0  0  0  0  0  0  0  0  0  0
  190.7310  170.7850  143.0980 C   0  0  0  0  0  2  0  0  0  0  0  0
  191.4090  174.4630  144.3990 C   0  0  1  0  0  3  0  0  0  0  0  0
  188.8760  174.7920  140.6050 C   0  0  0  0  0  3  0  0  0  0  0  0
  188.7420  175.1210  141.8810 C   0  0  0  0  0  3  0  0  0  0  0  0
  189.9620  171.8880  141.0820 O   0  0  0  0  0  0  0  0  0  0  0  0
  189.5950  176.1490  144.0040 C   0  0  1  0  0  3  0  0  0  0  0  0
  191.0230  171.1250  141.6420 C   0  0  0  0  0  2  0  0  0  0  0  0
  189.9220  174.7570  144.5250 C   0  0  0  0  0  2  0  0  0  0  0  0
  192.1050  174.6000  145.7530 C   0  0  1  0  0  3  0  0  0  0  0  0
  188.9040  172.8250  139.2120 N   0  0  0  0  0  0  0  0  0  0  0  0
  188.0620  173.6740  140.0470 C   0  0  0  0  0  2  0  0  0  0  0  0
  193.1020  173.5960  145.7580 O   0  0  0  0  0  0  0  0  0  0  0  0
  191.7840  173.0630  143.8510 C   0  0  1  0  0  3  0  0  0  0  0  0
  192.9480  172.7300  144.7000 C   0  0  0  0  0  0  0  0  0  0  0  0
  193.7320  171.7690  144.4840 O   0  0  0  0  0  0  0  0  0  0  0  0
  189.5880  176.2030  142.4730 C   0  0  0  0  0  2  0  0  0  0  0  0
  189.9610  171.9870  144.9480 O   0  0  0  0  0  0  0  0  0  0  0  0
  188.0540  176.7210  144.7040 S   0  0  0  0  0  0  0  0  0  0  0  0
  187.9310  178.2010  144.4770 O   0  0  0  0  0  0  0  0  0  0  0  0
  186.9110  176.0300  144.0130 O   0  0  0  0  0  0  0  0  0  0  0  0
  188.0030  177.6470  147.1550 O   0  0  0  0  0  0  0  0  0  0  0  0
  186.8200  176.8910  147.2600 C   0  0  2  0  0  3  0  0  0  0  0  0
  188.0060  176.4150  146.4750 C   0  0  1  0  0  3  0  0  0  0  0  0
  185.7040  177.5500  146.4980 C   0  0  0  0  0  0  0  0  0  0  0  0
  184.7850  176.8800  146.0520 O   0  0  0  0  0  0  0  0  0  0  0  0
  184.5290  179.4160  145.6730 F   0  0  0  0  0  0  0  0  0  0  0  0
  185.5670  179.5740  147.6790 F   0  0  0  0  0  0  0  0  0  0  0  0
  185.6410  179.0390  146.4070 C   0  0  0  0  0  3  0  0  0  0  0  0
  192.7190  175.9090  145.8650 N   0  0  0  0  0  2  0  0  0  0  0  0
  193.2740  176.2080  144.6120 N   0  0  0  0  0  2  0  0  0  0  0  0
  195.5540  176.4160  143.6230 C   0  0  0  0  0  2  0  0  0  0  0  0
  194.6670  176.5690  144.8250 C   0  0  0  0  0  0  0  0  0  0  0  0
  194.9410  177.6670  145.6330 O   0  0  0  0  0  1  0  0  0  0  0  0
  195.6790  175.4530  144.8050 C   0  0  0  0  0  2  0  0  0  0  0  0
  190.6370  171.2230  138.7440 C   0  0  0  0  0  2  0  0  0  0  0  0
  191.2500  173.7280  138.0140 O   0  0  0  0  0  0  0  0  0  0  0  0
  191.5450  171.9700  136.3350 O   0  0  0  0  0  0  0  0  0  0  0  0
  191.6870  172.3090  137.7920 S   0  0  0  0  0  0  0  0  0  0  0  0
  193.3920  172.1220  138.3120 C   0  0  2  0  0  3  0  0  0  0  0  0
  193.8510  170.7190  137.9500 C   0  0  0  0  0  1  0  0  0  0  0  0
  196.1630  172.3890  139.9780 N   0  0  0  0  0  2  0  0  0  0  0  0
  195.2220  174.8980  139.7650 O   0  0  0  0  0  0  0  0  0  0  0  0
  194.8280  171.1090  141.3770 O   0  0  0  0  0  0  0  0  0  0  0  0
  193.1750  173.7650  140.3360 C   0  0  0  0  0  2  0  0  0  0  0  0
  196.3700  172.2820  137.6420 O   0  0  0  0  0  1  0  0  0  0  0  0
  195.7090  174.4000  138.5540 C   0  0  0  0  0  2  0  0  0  0  0  0
  194.8770  171.9090  140.4090 C   0  0  0  0  0  0  0  0  0  0  0  0
  193.8380  174.9140  139.5820 C   0  0  0  0  0  2  0  0  0  0  0  0
  196.5060  173.1150  138.7560 C   0  0  1  0  0  3  0  0  0  0  0  0
  193.5690  172.3740  139.8220 C   0  0  2  0  0  3  0  0  0  0  0  0
  1  7  1  0  0  0  0
  2 19  2  0  0  0  0
  3  2  1  0  0  0  0
  4 10  1  1  0  0  0
  4 11  1  0  0  0  0
  5  6  2  0  0  0  0
  6 18  1  0  0  0  0
  7  9  1  0  0  0  0
  8 10  1  0  0  0  0
  8 20  1  6  0  0  0
  9  3  1  0  0  0  0
 11 14  1  0  0  0  0
 11 31  1  6  0  0  0
 12  1  2  0  0  0  0
 12 13  1  0  0  0  0
 13  5  1  0  0  0  0
 15  2  1  1  0  0  0
 15  4  1  0  0  0  0
 15 16  1  0  0  0  0
 16 14  1  0  0  0  0
 17 16  2  0  0  0  0
 18  8  1  0  0  0  0
 21 20  2  0  0  0  0
 22 20  2  0  0  0  0
 23 24  1  0  0  0  0
 24 26  1  6  0  0  0
 25 20  1  6  0  0  0
 25 23  1  0  0  0  0
 25 24  1  0  0  0  0
 27 26  2  0  0  0  0
 28 30  1  0  0  0  0
 30 26  1  0  0  0  0
 30 29  1  0  0  0  0
 32 34  1  0  0  0  0
 32 31  1  0  0  0  0
 33 36  1  0  0  0  0
 33 34  1  0  0  0  0
 34 35  1  0  0  0  0
 36 34  1  0  0  0  0
 37  1  1  0  0  0  0
 39 40  2  0  0  0  0
 40 38  2  0  0  0  0
 40 41  1  0  0  0  0
 40 37  1  0  0  0  0
 41 42  1  1  0  0  0
 43 49  1  0  0  0  0
 48 51  1  0  0  0  0
 48 44  1  0  0  0  0
 49 45  2  0  0  0  0
 50 44  1  0  0  0  0
 50 46  1  0  0  0  0
 51 47  1  6  0  0  0
 51 43  1  0  0  0  0
 52 41  1  6  0  0  0
 52 46  1  0  0  0  0
 52 49  1  0  0  0  0
M  END
>  <MODEL>
3

>  <REMARK>
 VINA RESULT:      -6.6      3.603      8.685
  Name = 
  11 active torsions:
  status: ('A' for Active; 'I' for Inactive)
    1  A    between atoms: S_1  and  C_23
    2  A    between atoms: S_1  and  C_46
    3  A    between atoms: C_3  and  C_47
    4  A    between atoms: C_6  and  C_49
    5  A    between atoms: C_6  and  S_52
    6  A    between atoms: N_9  and  N_15
    7  A    between atoms: N_9  and  C_24
    8  A    between atoms: N_15  and  C_29
    9  A    between atoms: C_17  and  C_34
   10  A    between atoms: C_17  and  C_41
   11  A    between atoms: C_47  and  S_52
                            x       y       z     vdW  Elec       q    Type
                         _______ _______ _______ _____ _____    ______ ____

>  <TORSDO>
F 11

$$$$
=
 OpenBabel11062421373D

 52 56  0  0  1  0  0  0  0  0999 V2000
  189.9560  171.5470  139.9330 C   0  0  0  0  0  0  0  0  0  0  0  0
  190.4720  172.2350  144.2550 C   0  0  0  0  0  0  0  0  0  0  0  0
  190.5380  170.9040  143.5670 C   0  0  0  0  0  2  0  0  0  0  0  0
  191.1490  174.7480  144.2990 C   0  0  1  0  0  3  0  0  0  0  0  0
  189.0010  174.4390  140.2720 C   0  0  0  0  0  3  0  0  0  0  0  0
  188.7500  174.9770  141.4570 C   0  0  0  0  0  3  0  0  0  0  0  0
  189.9870  171.6560  141.3300 O   0  0  0  0  0  0  0  0  0  0  0  0
  189.4110  176.3450  143.4530 C   0  0  1  0  0  3  0  0  0  0  0  0
  190.9750  170.9970  142.1110 C   0  0  0  0  0  2  0  0  0  0  0  0
  189.6620  175.0590  144.2280 C   0  0  0  0  0  2  0  0  0  0  0  0
  191.7120  175.1090  145.6730 C   0  0  1  0  0  3  0  0  0  0  0  0
  189.1310  172.2680  139.2350 N   0  0  0  0  0  0  0  0  0  0  0  0
  188.2270  173.2450  139.8300 C   0  0  0  0  0  2  0  0  0  0  0  0
  192.6870  174.1190  145.9430 O   0  0  0  0  0  0  0  0  0  0  0  0
  191.5510  173.2760  144.0310 C   0  0  1  0  0  3  0  0  0  0  0  0
  192.6220  173.0890  145.0340 C   0  0  0  0  0  0  0  0  0  0  0  0
  193.4070  172.1040  145.0580 O   0  0  0  0  0  0  0  0  0  0  0  0
  189.5530  176.1430  141.9410 C   0  0  0  0  0  2  0  0  0  0  0  0
  189.6130  172.3990  145.1060 O   0  0  0  0  0  0  0  0  0  0  0  0
  187.8190  177.0270  143.8930 S   0  0  0  0  0  0  0  0  0  0  0  0
  186.8570  175.9020  144.1470 O   0  0  0  0  0  0  0  0  0  0  0  0
  187.9580  177.8370  145.1530 O   0  0  0  0  0  0  0  0  0  0  0  0
  185.8280  177.6780  142.3180 O   0  0  0  0  0  0  0  0  0  0  0  0
  186.0280  178.9690  142.8410 C   0  0  2  0  0  3  0  0  0  0  0  0
  187.1670  178.0370  142.5560 C   0  0  1  0  0  3  0  0  0  0  0  0
  185.5330  179.0460  144.2600 C   0  0  0  0  0  0  0  0  0  0  0  0
  185.9650  179.9040  145.0150 O   0  0  0  0  0  0  0  0  0  0  0  0
  184.8240  177.3960  145.7820 F   0  0  0  0  0  0  0  0  0  0  0  0
  183.3350  178.9470  145.0750 F   0  0  0  0  0  0  0  0  0  0  0  0
  184.4130  178.1660  144.7070 C   0  0  0  0  0  3  0  0  0  0  0  0
  192.3350  176.4180  145.6260 N   0  0  0  0  0  2  0  0  0  0  0  0
  193.5360  176.3260  146.3450 N   0  0  0  0  0  2  0  0  0  0  0  0
  194.4950  176.4220  144.0460 C   0  0  0  0  0  2  0  0  0  0  0  0
  194.5980  176.8260  145.4880 C   0  0  0  0  0  0  0  0  0  0  0  0
  195.0670  178.1160  145.7150 O   0  0  0  0  0  1  0  0  0  0  0  0
  195.5780  175.8190  144.9430 C   0  0  0  0  0  2  0  0  0  0  0  0
  190.8740  170.6090  139.2130 C   0  0  0  0  0  2  0  0  0  0  0  0
  190.7860  171.9630  136.9020 O   0  0  0  0  0  0  0  0  0  0  0  0
  192.7260  170.5180  137.2770 O   0  0  0  0  0  0  0  0  0  0  0  0
  191.7650  171.4720  137.9270 S   0  0  0  0  0  0  0  0  0  0  0  0
  192.6480  172.8660  138.6250 C   0  0  2  0  0  3  0  0  0  0  0  0
  192.0450  174.1430  138.0650 C   0  0  0  0  0  1  0  0  0  0  0  0
  195.0320  174.5640  140.0270 N   0  0  0  0  0  2  0  0  0  0  0  0
  195.2330  172.0860  141.0500 O   0  0  0  0  0  0  0  0  0  0  0  0
  195.6120  174.5950  137.7820 O   0  0  0  0  0  0  0  0  0  0  0  0
  194.8900  171.5220  138.7340 C   0  0  0  0  0  2  0  0  0  0  0  0
  192.9050  174.7770  140.9970 O   0  0  0  0  0  1  0  0  0  0  0  0
  194.1200  172.7800  141.5310 C   0  0  0  0  0  2  0  0  0  0  0  0
  194.9430  174.0400  138.6900 C   0  0  0  0  0  0  0  0  0  0  0  0
  194.6830  171.1300  140.1930 C   0  0  0  0  0  2  0  0  0  0  0  0
  194.1910  174.2630  141.1840 C   0  0  1  0  0  3  0  0  0  0  0  0
  194.1590  172.8070  138.3230 C   0  0  2  0  0  3  0  0  0  0  0  0
  1  7  1  0  0  0  0
  2 19  2  0  0  0  0
  3  2  1  0  0  0  0
  4 10  1  1  0  0  0
  4 11  1  0  0  0  0
  5  6  2  0  0  0  0
  6 18  1  0  0  0  0
  7  9  1  0  0  0  0
  8 20  1  6  0  0  0
  8 10  1  0  0  0  0
  9  3  1  0  0  0  0
 11 31  1  6  0  0  0
 11 14  1  0  0  0  0
 12 13  1  0  0  0  0
 12  1  2  0  0  0  0
 13  5  1  0  0  0  0
 15  2  1  1  0  0  0
 15  4  1  0  0  0  0
 15 16  1  0  0  0  0
 16 17  2  0  0  0  0
 16 14  1  0  0  0  0
 18  8  1  0  0  0  0
 20 21  2  0  0  0  0
 20 22  2  0  0  0  0
 23 25  1  0  0  0  0
 23 24  1  0  0  0  0
 24 26  1  1  0  0  0
 25 24  1  0  0  0  0
 25 20  1  1  0  0  0
 26 30  1  0  0  0  0
 26 27  2  0  0  0  0
 30 29  1  0  0  0  0
 30 28  1  0  0  0  0
 31 32  1  0  0  0  0
 33 36  1  0  0  0  0
 33 34  1  0  0  0  0
 34 35  1  0  0  0  0
 34 32  1  0  0  0  0
 36 34  1  0  0  0  0
 37  1  1  0  0  0  0
 38 40  2  0  0  0  0
 39 40  2  0  0  0  0
 40 41  1  0  0  0  0
 40 37  1  0  0  0  0
 41 42  1  6  0  0  0
 43 51  1  0  0  0  0
 44 48  1  0  0  0  0
 45 49  2  0  0  0  0
 46 50  1  0  0  0  0
 49 43  1  0  0  0  0
 50 44  1  0  0  0  0
 51 47  1  6  0  0  0
 51 48  1  0  0  0  0
 52 41  1  1  0  0  0
 52 49  1  0  0  0  0
 52 46  1  0  0  0  0
M  END
>  <MODEL>
4

>  <REMARK>
 VINA RESULT:      -6.6      3.527      8.706
  Name = 
  11 active torsions:
  status: ('A' for Active; 'I' for Inactive)
    1  A    between atoms: S_1  and  C_23
    2  A    between atoms: S_1  and  C_46
    3  A    between atoms: C_3  and  C_47
    4  A    between atoms: C_6  and  C_49
    5  A    between atoms: C_6  and  S_52
    6  A    between atoms: N_9  and  N_15
    7  A    between atoms: N_9  and  C_24
    8  A    between atoms: N_15  and  C_29
    9  A    between atoms: C_17  and  C_34
   10  A    between atoms: C_17  and  C_41
   11  A    between atoms: C_47  and  S_52
                            x       y       z     vdW  Elec       q    Type
                         _______ _______ _______ _____ _____    ______ ____

>  <TORSDO>
F 11

$$$$
=
 OpenBabel11062421373D

 52 56  0  0  1  0  0  0  0  0999 V2000
  189.4410  172.9390  140.0210 C   0  0  0  0  0  0  0  0  0  0  0  0
  190.4460  172.4580  144.2840 C   0  0  0  0  0  0  0  0  0  0  0  0
  190.3830  171.3550  143.2710 C   0  0  0  0  0  2  0  0  0  0  0  0
  191.2280  174.8630  144.9030 C   0  0  1  0  0  3  0  0  0  0  0  0
  188.6500  175.6510  141.2080 C   0  0  0  0  0  3  0  0  0  0  0  0
  188.5500  175.8610  142.5120 C   0  0  0  0  0  3  0  0  0  0  0  0
  189.6260  172.6760  141.3850 O   0  0  0  0  0  0  0  0  0  0  0  0
  189.4770  176.6480  144.7070 C   0  0  1  0  0  3  0  0  0  0  0  0
  190.6650  171.8230  141.8490 C   0  0  0  0  0  2  0  0  0  0  0  0
  189.7560  175.2000  145.0860 C   0  0  0  0  0  2  0  0  0  0  0  0
  191.9500  174.8430  146.2500 C   0  0  1  0  0  3  0  0  0  0  0  0
  188.5770  173.8280  139.6330 N   0  0  0  0  0  0  0  0  0  0  0  0
  187.7840  174.6240  140.5620 C   0  0  0  0  0  2  0  0  0  0  0  0
  192.9060  173.8050  146.1390 O   0  0  0  0  0  0  0  0  0  0  0  0
  191.5380  173.5090  144.2170 C   0  0  1  0  0  3  0  0  0  0  0  0
  192.7010  173.0520  145.0080 C   0  0  0  0  0  0  0  0  0  0  0  0
  193.4420  172.0860  144.6850 O   0  0  0  0  0  0  0  0  0  0  0  0
  189.4480  176.8490  143.1880 C   0  0  0  0  0  2  0  0  0  0  0  0
  189.6910  172.4030  145.2420 O   0  0  0  0  0  0  0  0  0  0  0  0
  187.9710  177.2090  145.4880 S   0  0  0  0  0  0  0  0  0  0  0  0
  187.0350  176.0440  145.6410 O   0  0  0  0  0  0  0  0  0  0  0  0
  188.2940  177.7510  146.8530 O   0  0  0  0  0  0  0  0  0  0  0  0
  185.8390  178.0490  144.2170 O   0  0  0  0  0  0  0  0  0  0  0  0
  185.9720  179.1820  145.0440 C   0  0  2  0  0  3  0  0  0  0  0  0
  187.1580  178.4580  144.4820 C   0  0  1  0  0  3  0  0  0  0  0  0
  185.5660  178.8550  146.4550 C   0  0  0  0  0  0  0  0  0  0  0  0
  186.2310  179.2630  147.3950 O   0  0  0  0  0  0  0  0  0  0  0  0
  183.2970  178.6390  145.8630 F   0  0  0  0  0  0  0  0  0  0  0  0
  184.4400  176.7970  146.5130 F   0  0  0  0  0  0  0  0  0  0  0  0
  184.2740  178.1530  146.7150 C   0  0  0  0  0  3  0  0  0  0  0  0
  192.6180  176.1100  146.4740 N   0  0  0  0  0  2  0  0  0  0  0  0
  193.0890  176.5500  145.2280 N   0  0  0  0  0  2  0  0  0  0  0  0
  195.3310  176.4190  144.1450 C   0  0  0  0  0  2  0  0  0  0  0  0
  194.5190  176.7780  145.3560 C   0  0  0  0  0  0  0  0  0  0  0  0
  194.9410  177.9120  146.0430 O   0  0  0  0  0  1  0  0  0  0  0  0
  195.4100  175.5640  145.4110 C   0  0  0  0  0  2  0  0  0  0  0  0
  190.2370  172.2130  138.9810 C   0  0  0  0  0  2  0  0  0  0  0  0
  192.1030  174.0620  139.5140 O   0  0  0  0  0  0  0  0  0  0  0  0
  191.0210  174.1660  137.3200 O   0  0  0  0  0  0  0  0  0  0  0  0
  191.5630  173.2450  138.3760 S   0  0  0  0  0  0  0  0  0  0  0  0
  192.8720  172.2260  137.7000 C   0  0  2  0  0  3  0  0  0  0  0  0
  192.8230  170.8690  138.3840 C   0  0  0  0  0  1  0  0  0  0  0  0
  195.6730  171.3490  136.3160 N   0  0  0  0  0  2  0  0  0  0  0  0
  194.9120  173.5790  135.0210 O   0  0  0  0  0  0  0  0  0  0  0  0
  196.2900  171.8180  138.5020 O   0  0  0  0  0  0  0  0  0  0  0  0
  194.4520  174.2690  137.2820 C   0  0  0  0  0  2  0  0  0  0  0  0
  193.7490  170.2550  135.5350 O   0  0  0  0  0  1  0  0  0  0  0  0
  194.1210  172.4730  134.7010 C   0  0  0  0  0  2  0  0  0  0  0  0
  195.4360  171.9710  137.5910 C   0  0  0  0  0  0  0  0  0  0  0  0
  194.0710  174.3690  135.8080 C   0  0  0  0  0  2  0  0  0  0  0  0
  194.7470  171.1730  135.1980 C   0  0  1  0  0  3  0  0  0  0  0  0
  194.2620  172.8690  137.8810 C   0  0  2  0  0  3  0  0  0  0  0  0
  1  7  1  0  0  0  0
  2 19  2  0  0  0  0
  3  2  1  0  0  0  0
  4 10  1  1  0  0  0
  4 11  1  0  0  0  0
  5  6  2  0  0  0  0
  6 18  1  0  0  0  0
  7  9  1  0  0  0  0
  8 10  1  0  0  0  0
  8 20  1  6  0  0  0
  9  3  1  0  0  0  0
 11 31  1  6  0  0  0
 12  1  2  0  0  0  0
 12 13  1  0  0  0  0
 13  5  1  0  0  0  0
 14 11  1  0  0  0  0
 15  2  1  1  0  0  0
 15  4  1  0  0  0  0
 15 16  1  0  0  0  0
 16 14  1  0  0  0  0
 17 16  2  0  0  0  0
 18  8  1  0  0  0  0
 20 21  2  0  0  0  0
 20 22  2  0  0  0  0
 23 25  1  0  0  0  0
 23 24  1  0  0  0  0
 24 26  1  1  0  0  0
 25 24  1  0  0  0  0
 25 20  1  1  0  0  0
 26 30  1  0  0  0  0
 26 27  2  0  0  0  0
 28 30  1  0  0  0  0
 29 30  1  0  0  0  0
 32 34  1  0  0  0  0
 32 31  1  0  0  0  0
 33 34  1  0  0  0  0
 33 36  1  0  0  0  0
 34 36  1  0  0  0  0
 34 35  1  0  0  0  0
 37  1  1  0  0  0  0
 39 40  2  0  0  0  0
 40 37  1  0  0  0  0
 40 38  2  0  0  0  0
 41 40  1  0  0  0  0
 41 42  1  1  0  0  0
 43 49  1  0  0  0  0
 44 50  1  0  0  0  0
 46 52  1  0  0  0  0
 48 44  1  0  0  0  0
 48 51  1  0  0  0  0
 49 52  1  0  0  0  0
 49 45  2  0  0  0  0
 50 46  1  0  0  0  0
 51 47  1  1  0  0  0
 51 43  1  0  0  0  0
 52 41  1  6  0  0  0
M  END
>  <MODEL>
5

>  <REMARK>
 VINA RESULT:      -6.5      3.675      9.049
  Name = 
  11 active torsions:
  status: ('A' for Active; 'I' for Inactive)
    1  A    between atoms: S_1  and  C_23
    2  A    between atoms: S_1  and  C_46
    3  A    between atoms: C_3  and  C_47
    4  A    between atoms: C_6  and  C_49
    5  A    between atoms: C_6  and  S_52
    6  A    between atoms: N_9  and  N_15
    7  A    between atoms: N_9  and  C_24
    8  A    between atoms: N_15  and  C_29
    9  A    between atoms: C_17  and  C_34
   10  A    between atoms: C_17  and  C_41
   11  A    between atoms: C_47  and  S_52
                            x       y       z     vdW  Elec       q    Type
                         _______ _______ _______ _____ _____    ______ ____

>  <TORSDO>
F 11

$$$$
=
 OpenBabel11062421373D

 52 56  0  0  1  0  0  0  0  0999 V2000
  190.0770  171.3320  139.7740 C   0  0  0  0  0  0  0  0  0  0  0  0
  192.4450  171.5420  143.4850 C   0  0  0  0  0  0  0  0  0  0  0  0
  192.1820  170.3020  142.6840 C   0  0  0  0  0  2  0  0  0  0  0  0
  193.1120  174.0580  143.5280 C   0  0  1  0  0  3  0  0  0  0  0  0
  189.4130  174.1280  140.8380 C   0  0  0  0  0  3  0  0  0  0  0  0
  189.7140  174.5170  142.0680 C   0  0  0  0  0  3  0  0  0  0  0  0
  190.7190  171.2820  141.0190 O   0  0  0  0  0  0  0  0  0  0  0  0
  191.2040  175.6740  143.7230 C   0  0  1  0  0  3  0  0  0  0  0  0
  191.9390  170.5770  141.2060 C   0  0  0  0  0  2  0  0  0  0  0  0
  191.7490  174.3180  144.1510 C   0  0  0  0  0  2  0  0  0  0  0  0
  194.2260  174.2810  144.5510 C   0  0  1  0  0  3  0  0  0  0  0  0
  189.0420  172.0950  139.5970 N   0  0  0  0  0  0  0  0  0  0  0  0
  188.5050  172.9620  140.6390 C   0  0  0  0  0  2  0  0  0  0  0  0
  195.2040  173.3050  144.2480 O   0  0  0  0  0  0  0  0  0  0  0  0
  193.3330  172.6430  142.9380 C   0  0  1  0  0  3  0  0  0  0  0  0
  194.7320  172.3840  143.3430 C   0  0  0  0  0  0  0  0  0  0  0  0
  195.4330  171.4340  142.9050 O   0  0  0  0  0  0  0  0  0  0  0  0
  190.6660  175.6500  142.2880 C   0  0  0  0  0  2  0  0  0  0  0  0
  192.0480  171.5750  144.6390 O   0  0  0  0  0  0  0  0  0  0  0  0
  189.9760  176.2390  144.8910 S   0  0  0  0  0  0  0  0  0  0  0  0
  189.2030  175.0570  145.4010 O   0  0  0  0  0  0  0  0  0  0  0  0
  190.6660  176.9020  146.0520 O   0  0  0  0  0  0  0  0  0  0  0  0
  187.5630  176.7530  144.0070 O   0  0  0  0  0  0  0  0  0  0  0  0
  187.6350  177.8530  144.8830 C   0  0  2  0  0  3  0  0  0  0  0  0
  188.8220  177.3720  144.1050 C   0  0  1  0  0  3  0  0  0  0  0  0
  187.5120  177.3980  146.3110 C   0  0  0  0  0  0  0  0  0  0  0  0
  188.1980  177.9140  147.1820 O   0  0  0  0  0  0  0  0  0  0  0  0
  186.0800  176.6210  148.0110 F   0  0  0  0  0  0  0  0  0  0  0  0
  185.3600  176.5760  145.8650 F   0  0  0  0  0  0  0  0  0  0  0  0
  186.4540  176.4170  146.6930 C   0  0  0  0  0  3  0  0  0  0  0  0
  194.7850  175.6100  144.3930 N   0  0  0  0  0  2  0  0  0  0  0  0
  194.8180  175.8790  143.0160 N   0  0  0  0  0  2  0  0  0  0  0  0
  196.4460  176.4210  141.2080 C   0  0  0  0  0  2  0  0  0  0  0  0
  196.1810  176.2540  142.6770 C   0  0  0  0  0  0  0  0  0  0  0  0
  196.8370  177.1550  143.5080 O   0  0  0  0  0  1  0  0  0  0  0  0
  197.0240  175.2250  141.9680 C   0  0  0  0  0  2  0  0  0  0  0  0
  190.5730  170.5180  138.6190 C   0  0  0  0  0  2  0  0  0  0  0  0
  189.5520  172.1900  136.7910 O   0  0  0  0  0  0  0  0  0  0  0  0
  191.3630  170.7130  136.0650 O   0  0  0  0  0  0  0  0  0  0  0  0
  190.8520  171.5590  137.1950 S   0  0  0  0  0  0  0  0  0  0  0  0
  192.0380  172.8420  137.5980 C   0  0  2  0  0  3  0  0  0  0  0  0
  191.3410  174.1880  137.4890 C   0  0  0  0  0  1  0  0  0  0  0  0
  194.8760  174.3610  137.9990 N   0  0  0  0  0  2  0  0  0  0  0  0
  195.3590  171.7890  138.6110 O   0  0  0  0  0  0  0  0  0  0  0  0
  194.4560  174.6200  135.7330 O   0  0  0  0  0  0  0  0  0  0  0  0
  194.0410  171.4710  136.6210 C   0  0  0  0  0  2  0  0  0  0  0  0
  193.3720  174.4930  139.7970 O   0  0  0  0  0  1  0  0  0  0  0  0
  194.5920  172.4390  139.5810 C   0  0  0  0  0  2  0  0  0  0  0  0
  194.2040  173.9800  136.7860 C   0  0  0  0  0  0  0  0  0  0  0  0
  194.4490  170.9320  137.9890 C   0  0  0  0  0  2  0  0  0  0  0  0
  194.5880  173.9500  139.3720 C   0  0  1  0  0  3  0  0  0  0  0  0
  193.2740  172.7990  136.6780 C   0  0  2  0  0  3  0  0  0  0  0  0
  1  7  1  0  0  0  0
  2 19  2  0  0  0  0
  3  2  1  0  0  0  0
  4 10  1  1  0  0  0
  4 11  1  0  0  0  0
  5  6  2  0  0  0  0
  6 18  1  0  0  0  0
  7  9  1  0  0  0  0
  8 10  1  0  0  0  0
  8 20  1  1  0  0  0
  9  3  1  0  0  0  0
 11 31  1  6  0  0  0
 12  1  2  0  0  0  0
 12 13  1  0  0  0  0
 13  5  1  0  0  0  0
 14 11  1  0  0  0  0
 15 16  1  1  0  0  0
 15  2  1  0  0  0  0
 15  4  1  0  0  0  0
 16 14  1  0  0  0  0
 17 16  2  0  0  0  0
 18  8  1  0  0  0  0
 20 21  2  0  0  0  0
 20 22  2  0  0  0  0
 23 25  1  0  0  0  0
 23 24  1  0  0  0  0
 24 26  1  1  0  0  0
 25 24  1  0  0  0  0
 25 20  1  1  0  0  0
 26 30  1  0  0  0  0
 26 27  2  0  0  0  0
 29 30  1  0  0  0  0
 30 28  1  0  0  0  0
 32 31  1  0  0  0  0
 33 36  1  0  0  0  0
 33 34  1  0  0  0  0
 34 32  1  0  0  0  0
 34 35  1  0  0  0  0
 36 34  1  0  0  0  0
 37  1  1  0  0  0  0
 38 40  2  0  0  0  0
 39 40  2  0  0  0  0
 40 41  1  0  0  0  0
 40 37  1  0  0  0  0
 41 42  1  6  0  0  0
 43 51  1  0  0  0  0
 44 48  1  0  0  0  0
 45 49  2  0  0  0  0
 46 52  1  0  0  0  0
 46 50  1  0  0  0  0
 49 43  1  0  0  0  0
 50 44  1  0  0  0  0
 51 48  1  0  0  0  0
 51 47  1  6  0  0  0
 52 49  1  0  0  0  0
 52 41  1  1  0  0  0
M  END
>  <MODEL>
6

>  <REMARK>
 VINA RESULT:      -6.4      3.452      8.143
  Name = 
  11 active torsions:
  status: ('A' for Active; 'I' for Inactive)
    1  A    between atoms: S_1  and  C_23
    2  A    between atoms: S_1  and  C_46
    3  A    between atoms: C_3  and  C_47
    4  A    between atoms: C_6  and  C_49
    5  A    between atoms: C_6  and  S_52
    6  A    between atoms: N_9  and  N_15
    7  A    between atoms: N_9  and  C_24
    8  A    between atoms: N_15  and  C_29
    9  A    between atoms: C_17  and  C_34
   10  A    between atoms: C_17  and  C_41
   11  A    between atoms: C_47  and  S_52
                            x       y       z     vdW  Elec       q    Type
                         _______ _______ _______ _____ _____    ______ ____

>  <TORSDO>
F 11

$$$$
=
 OpenBabel11062421373D

 52 56  0  0  1  0  0  0  0  0999 V2000
  190.3510  174.5260  142.3110 C   0  0  0  0  0  0  0  0  0  0  0  0
  194.3270  175.8910  143.6330 C   0  0  0  0  0  0  0  0  0  0  0  0
  193.0460  176.6560  143.7810 C   0  0  0  0  0  2  0  0  0  0  0  0
  195.6020  173.6310  143.8480 C   0  0  1  0  0  3  0  0  0  0  0  0
  192.2330  172.5220  140.9580 C   0  0  0  0  0  3  0  0  0  0  0  0
  193.5430  172.7070  140.8820 C   0  0  0  0  0  3  0  0  0  0  0  0
  191.5910  175.0980  142.6280 O   0  0  0  0  0  0  0  0  0  0  0  0
  195.8830  172.3470  141.7120 C   0  0  1  0  0  3  0  0  0  0  0  0
  191.8150  175.7630  143.8650 C   0  0  0  0  0  2  0  0  0  0  0  0
  195.8490  173.7290  142.3500 C   0  0  0  0  0  2  0  0  0  0  0  0
  196.9000  173.8400  144.6260 C   0  0  1  0  0  3  0  0  0  0  0  0
  190.2130  173.8060  141.2390 N   0  0  0  0  0  0  0  0  0  0  0  0
  191.3150  173.5130  140.3300 C   0  0  0  0  0  2  0  0  0  0  0  0
  196.5200  174.5400  145.7960 O   0  0  0  0  0  0  0  0  0  0  0  0
  194.5710  174.6270  144.4350 C   0  0  1  0  0  3  0  0  0  0  0  0
  195.2200  174.9830  145.7160 C   0  0  0  0  0  0  0  0  0  0  0  0
  194.6530  175.6110  146.6480 O   0  0  0  0  0  0  0  0  0  0  0  0
  194.4800  171.7530  141.5530 C   0  0  0  0  0  2  0  0  0  0  0  0
  195.2200  176.3890  142.9670 O   0  0  0  0  0  0  0  0  0  0  0  0
  196.7670  172.4080  140.1600 S   0  0  0  0  0  0  0  0  0  0  0  0
  197.6940  171.2290  140.0770 O   0  0  0  0  0  0  0  0  0  0  0  0
  195.7820  172.3290  139.0270 O   0  0  0  0  0  0  0  0  0  0  0  0
  197.9410  174.2320  138.6900 O   0  0  0  0  0  0  0  0  0  0  0  0
  197.1400  175.1290  139.4230 C   0  0  2  0  0  3  0  0  0  0  0  0
  197.7500  173.9090  140.0460 C   0  0  1  0  0  3  0  0  0  0  0  0
  195.7060  175.0370  138.9800 C   0  0  0  0  0  0  0  0  0  0  0  0
  194.8040  175.3350  139.7500 O   0  0  0  0  0  0  0  0  0  0  0  0
  194.0110  174.6270  137.3980 F   0  0  0  0  0  0  0  0  0  0  0  0
  195.8860  175.7120  136.7400 F   0  0  0  0  0  0  0  0  0  0  0  0
  195.3830  174.7180  137.5580 C   0  0  0  0  0  3  0  0  0  0  0  0
  197.4780  172.5580  144.9820 N   0  0  0  0  0  2  0  0  0  0  0  0
  196.8160  172.1180  146.1380 N   0  0  0  0  0  2  0  0  0  0  0  0
  197.1850  169.6520  146.1380 C   0  0  0  0  0  2  0  0  0  0  0  0
  196.2640  170.8040  145.8520 C   0  0  0  0  0  0  0  0  0  0  0  0
  194.9220  170.5810  146.1430 O   0  0  0  0  0  1  0  0  0  0  0  0
  196.8580  170.0420  144.6950 C   0  0  0  0  0  2  0  0  0  0  0  0
  189.1630  174.7230  143.2000 C   0  0  0  0  0  2  0  0  0  0  0  0
  187.1770  175.1300  141.4470 O   0  0  0  0  0  0  0  0  0  0  0  0
  188.7780  176.9540  141.7660 O   0  0  0  0  0  0  0  0  0  0  0  0
  188.0090  175.8650  142.4570 S   0  0  0  0  0  0  0  0  0  0  0  0
  186.9400  176.5600  143.7160 C   0  0  2  0  0  3  0  0  0  0  0  0
  185.5180  176.5810  143.1790 C   0  0  0  0  0  1  0  0  0  0  0  0
  185.8770  178.3220  146.2260 N   0  0  0  0  0  2  0  0  0  0  0  0
  188.3160  177.4550  146.9530 O   0  0  0  0  0  0  0  0  0  0  0  0
  186.0170  179.8770  144.5110 O   0  0  0  0  0  0  0  0  0  0  0  0
  188.8010  178.1200  144.6900 C   0  0  0  0  0  2  0  0  0  0  0  0
  185.1290  176.0990  146.1350 O   0  0  0  0  0  1  0  0  0  0  0  0
  187.3610  176.4350  146.9450 C   0  0  0  0  0  2  0  0  0  0  0  0
  186.3770  178.7550  144.9480 C   0  0  0  0  0  0  0  0  0  0  0  0
  189.1120  177.1700  145.8420 C   0  0  0  0  0  2  0  0  0  0  0  0
  185.9460  176.9930  146.8320 C   0  0  1  0  0  3  0  0  0  0  0  0
  187.3790  177.9780  144.1330 C   0  0  2  0  0  3  0  0  0  0  0  0
  1  7  1  0  0  0  0
  1 37  1  0  0  0  0
  2  3  1  0  0  0  0
  3  9  1  0  0  0  0
  4 10  1  6  0  0  0
  4 15  1  0  0  0  0
  4 11  1  0  0  0  0
  6  5  2  0  0  0  0
  6 18  1  0  0  0  0
  7  9  1  0  0  0  0
  8 20  1  6  0  0  0
  8 10  1  0  0  0  0
 11 31  1  1  0  0  0
 11 14  1  0  0  0  0
 12  1  2  0  0  0  0
 13  5  1  0  0  0  0
 13 12  1  0  0  0  0
 15  2  1  6  0  0  0
 15 16  1  0  0  0  0
 16 14  1  0  0  0  0
 16 17  2  0  0  0  0
 18  8  1  0  0  0  0
 19  2  2  0  0  0  0
 21 20  2  0  0  0  0
 22 20  2  0  0  0  0
 23 24  1  0  0  0  0
 23 25  1  0  0  0  0
 24 26  1  6  0  0  0
 24 25  1  0  0  0  0
 25 20  1  6  0  0  0
 26 27  2  0  0  0  0
 28 30  1  0  0  0  0
 29 30  1  0  0  0  0
 30 26  1  0  0  0  0
 31 32  1  0  0  0  0
 34 32  1  0  0  0  0
 34 33  1  0  0  0  0
 34 35  1  0  0  0  0
 36 34  1  0  0  0  0
 36 33  1  0  0  0  0
 38 40  2  0  0  0  0
 39 40  2  0  0  0  0
 40 37  1  0  0  0  0
 40 41  1  0  0  0  0
 41 42  1  6  0  0  0
 43 51  1  0  0  0  0
 45 49  2  0  0  0  0
 46 50  1  0  0  0  0
 48 44  1  0  0  0  0
 49 43  1  0  0  0  0
 50 44  1  0  0  0  0
 51 47  1  6  0  0  0
 51 48  1  0  0  0  0
 52 41  1  1  0  0  0
 52 46  1  0  0  0  0
 52 49  1  0  0  0  0
M  END
>  <MODEL>
7

>  <REMARK>
 VINA RESULT:      -6.4      2.784      5.426
  Name = 
  11 active torsions:
  status: ('A' for Active; 'I' for Inactive)
    1  A    between atoms: S_1  and  C_23
    2  A    between atoms: S_1  and  C_46
    3  A    between atoms: C_3  and  C_47
    4  A    between atoms: C_6  and  C_49
    5  A    between atoms: C_6  and  S_52
    6  A    between atoms: N_9  and  N_15
    7  A    between atoms: N_9  and  C_24
    8  A    between atoms: N_15  and  C_29
    9  A    between atoms: C_17  and  C_34
   10  A    between atoms: C_17  and  C_41
   11  A    between atoms: C_47  and  S_52
                            x       y       z     vdW  Elec       q    Type
                         _______ _______ _______ _____ _____    ______ ____

>  <TORSDO>
F 11

$$$$
=
 OpenBabel11062421373D

 52 56  0  0  1  0  0  0  0  0999 V2000
  190.1120  176.4140  142.7960 C   0  0  0  0  0  0  0  0  0  0  0  0
  194.1100  174.5640  142.9010 C   0  0  0  0  0  0  0  0  0  0  0  0
  193.8230  176.0330  142.9900 C   0  0  0  0  0  2  0  0  0  0  0  0
  193.5370  172.1400  143.6550 C   0  0  1  0  0  3  0  0  0  0  0  0
  189.5440  173.5350  141.9120 C   0  0  0  0  0  3  0  0  0  0  0  0
  190.5030  172.6910  141.5610 C   0  0  0  0  0  3  0  0  0  0  0  0
  191.4210  175.9240  142.6910 O   0  0  0  0  0  0  0  0  0  0  0  0
  192.1070  170.8280  142.0650 C   0  0  1  0  0  3  0  0  0  0  0  0
  192.4530  176.3470  143.5740 C   0  0  0  0  0  2  0  0  0  0  0  0
  193.2260  171.8530  142.1940 C   0  0  0  0  0  2  0  0  0  0  0  0
  194.8110  171.4170  144.0900 C   0  0  1  0  0  3  0  0  0  0  0  0
  189.1600  175.9090  142.0710 N   0  0  0  0  0  0  0  0  0  0  0  0
  189.3670  174.8020  141.1450 C   0  0  0  0  0  2  0  0  0  0  0  0
  195.4420  172.2990  144.9980 O   0  0  0  0  0  0  0  0  0  0  0  0
  193.7260  173.6300  144.0320 C   0  0  1  0  0  3  0  0  0  0  0  0
  194.8490  173.5390  144.9890 C   0  0  0  0  0  0  0  0  0  0  0  0
  195.2240  174.4830  145.7340 O   0  0  0  0  0  0  0  0  0  0  0  0
  190.7320  171.4410  142.3510 C   0  0  0  0  0  2  0  0  0  0  0  0
  194.7890  174.1670  141.9670 O   0  0  0  0  0  0  0  0  0  0  0  0
  192.1730  170.0440  140.4610 S   0  0  0  0  0  0  0  0  0  0  0  0
  192.7110  171.0230  139.4580 O   0  0  0  0  0  0  0  0  0  0  0  0
  193.0990  168.8610  140.5270 O   0  0  0  0  0  0  0  0  0  0  0  0
  190.0700  170.4290  138.9460 O   0  0  0  0  0  0  0  0  0  0  0  0
  190.3270  169.1150  138.5080 C   0  0  2  0  0  3  0  0  0  0  0  0
  190.5300  169.5370  139.9320 C   0  0  1  0  0  3  0  0  0  0  0  0
  191.5360  169.0850  137.6140 C   0  0  0  0  0  0  0  0  0  0  0  0
  192.3400  168.1690  137.7000 O   0  0  0  0  0  0  0  0  0  0  0  0
  192.5510  169.6180  135.5580 F   0  0  0  0  0  0  0  0  0  0  0  0
  190.4480  170.3490  135.9630 F   0  0  0  0  0  0  0  0  0  0  0  0
  191.6840  170.0960  136.5250 C   0  0  0  0  0  3  0  0  0  0  0  0
  194.4730  170.1750  144.7580 N   0  0  0  0  0  2  0  0  0  0  0  0
  194.5660  170.4140  146.1370 N   0  0  0  0  0  2  0  0  0  0  0  0
  196.5250  169.2910  147.1950 C   0  0  0  0  0  2  0  0  0  0  0  0
  195.0910  169.2080  146.7560 C   0  0  0  0  0  0  0  0  0  0  0  0
  194.2500  168.4870  147.5980 O   0  0  0  0  0  1  0  0  0  0  0  0
  196.1330  168.4350  145.9890 C   0  0  0  0  0  2  0  0  0  0  0  0
  189.7770  177.5180  143.7500 C   0  0  0  0  0  2  0  0  0  0  0  0
  190.2360  177.1720  146.3670 O   0  0  0  0  0  0  0  0  0  0  0  0
  189.0940  175.3590  145.1840 O   0  0  0  0  0  0  0  0  0  0  0  0
  189.2210  176.8500  145.3100 S   0  0  0  0  0  0  0  0  0  0  0  0
  187.6440  177.5740  145.7570 C   0  0  2  0  0  3  0  0  0  0  0  0
  187.6510  177.8490  147.2520 C   0  0  0  0  0  1  0  0  0  0  0  0
  184.4730  178.2300  145.9710 N   0  0  0  0  0  2  0  0  0  0  0  0
  185.0540  178.3920  143.3510 O   0  0  0  0  0  0  0  0  0  0  0  0
  184.6110  176.0420  146.7270 O   0  0  0  0  0  0  0  0  0  0  0  0
  186.2570  176.3770  143.8890 C   0  0  0  0  0  2  0  0  0  0  0  0
  185.9290  180.0230  146.3910 O   0  0  0  0  0  1  0  0  0  0  0  0
  185.5770  179.4580  144.0860 C   0  0  0  0  0  2  0  0  0  0  0  0
  185.1580  176.9690  146.0770 C   0  0  0  0  0  0  0  0  0  0  0  0
  186.1790  177.6320  143.0260 C   0  0  0  0  0  2  0  0  0  0  0  0
  184.9880  179.5120  145.4930 C   0  0  1  0  0  3  0  0  0  0  0  0
  186.4590  176.6610  145.3840 C   0  0  2  0  0  3  0  0  0  0  0  0
  1 37  1  0  0  0  0
  2  3  1  0  0  0  0
  3  9  1  0  0  0  0
  4 10  1  6  0  0  0
  4 15  1  0  0  0  0
  4 11  1  0  0  0  0
  6  5  2  0  0  0  0
  6 18  1  0  0  0  0
  7  1  1  0  0  0  0
  7  9  1  0  0  0  0
  8 20  1  6  0  0  0
  8 10  1  0  0  0  0
  8 18  1  0  0  0  0
 11 31  1  1  0  0  0
 11 14  1  0  0  0  0
 12  1  2  0  0  0  0
 13  5  1  0  0  0  0
 13 12  1  0  0  0  0
 15  2  1  6  0  0  0
 15 16  1  0  0  0  0
 16 14  1  0  0  0  0
 16 17  2  0  0  0  0
 19  2  2  0  0  0  0
 20 22  2  0  0  0  0
 21 20  2  0  0  0  0
 23 25  1  0  0  0  0
 24 26  1  6  0  0  0
 24 23  1  0  0  0  0
 24 25  1  0  0  0  0
 25 20  1  6  0  0  0
 26 27  2  0  0  0  0
 28 30  1  0  0  0  0
 29 30  1  0  0  0  0
 30 26  1  0  0  0  0
 31 32  1  0  0  0  0
 32 34  1  0  0  0  0
 34 33  1  0  0  0  0
 34 35  1  0  0  0  0
 36 34  1  0  0  0  0
 36 33  1  0  0  0  0
 37 40  1  0  0  0  0
 39 40  2  0  0  0  0
 40 41  1  0  0  0  0
 40 38  2  0  0  0  0
 41 42  1  1  0  0  0
 43 49  1  0  0  0  0
 44 48  1  0  0  0  0
 46 52  1  0  0  0  0
 48 51  1  0  0  0  0
 49 45  2  0  0  0  0
 50 44  1  0  0  0  0
 50 46  1  0  0  0  0
 51 43  1  0  0  0  0
 51 47  1  1  0  0  0
 52 41  1  6  0  0  0
 52 49  1  0  0  0  0
M  END
>  <MODEL>
8

>  <REMARK>
 VINA RESULT:      -6.3      3.599      6.379
  Name = 
  11 active torsions:
  status: ('A' for Active; 'I' for Inactive)
    1  A    between atoms: S_1  and  C_23
    2  A    between atoms: S_1  and  C_46
    3  A    between atoms: C_3  and  C_47
    4  A    between atoms: C_6  and  C_49
    5  A    between atoms: C_6  and  S_52
    6  A    between atoms: N_9  and  N_15
    7  A    between atoms: N_9  and  C_24
    8  A    between atoms: N_15  and  C_29
    9  A    between atoms: C_17  and  C_34
   10  A    between atoms: C_17  and  C_41
   11  A    between atoms: C_47  and  S_52
                            x       y       z     vdW  Elec       q    Type
                         _______ _______ _______ _____ _____    ______ ____

>  <TORSDO>
F 11

$$$$
=
 OpenBabel11062421373D

 52 56  0  0  1  0  0  0  0  0999 V2000
  190.0050  176.3900  142.8000 C   0  0  0  0  0  0  0  0  0  0  0  0
  194.0050  174.5490  142.9800 C   0  0  0  0  0  0  0  0  0  0  0  0
  193.7170  176.0200  143.0170 C   0  0  0  0  0  2  0  0  0  0  0  0
  193.4310  172.1520  143.8180 C   0  0  1  0  0  3  0  0  0  0  0  0
  189.4430  173.4820  142.0160 C   0  0  0  0  0  3  0  0  0  0  0  0
  190.4030  172.6260  141.6990 C   0  0  0  0  0  3  0  0  0  0  0  0
  191.3160  175.8980  142.7160 O   0  0  0  0  0  0  0  0  0  0  0  0
  192.0070  170.7840  142.2720 C   0  0  1  0  0  3  0  0  0  0  0  0
  192.3440  176.3530  143.5860 C   0  0  0  0  0  2  0  0  0  0  0  0
  193.1250  171.8130  142.3670 C   0  0  0  0  0  2  0  0  0  0  0  0
  194.7050  171.4460  144.2820 C   0  0  1  0  0  3  0  0  0  0  0  0
  189.0560  175.8590  142.0900 N   0  0  0  0  0  0  0  0  0  0  0  0
  189.2670  174.7200  141.2050 C   0  0  0  0  0  2  0  0  0  0  0  0
  195.3330  172.3600  145.1600 O   0  0  0  0  0  0  0  0  0  0  0  0
  193.6180  173.6550  144.1430 C   0  0  1  0  0  3  0  0  0  0  0  0
  194.7390  173.5990  145.1060 C   0  0  0  0  0  0  0  0  0  0  0  0
  195.1110  174.5680  145.8180 O   0  0  0  0  0  0  0  0  0  0  0  0
  190.6310  171.4050  142.5320 C   0  0  0  0  0  2  0  0  0  0  0  0
  194.6860  174.1190  142.0630 O   0  0  0  0  0  0  0  0  0  0  0  0
  192.0780  169.9430  140.6970 S   0  0  0  0  0  0  0  0  0  0  0  0
  192.8340  168.6560  140.8610 O   0  0  0  0  0  0  0  0  0  0  0  0
  190.6790  169.6270  140.2420 O   0  0  0  0  0  0  0  0  0  0  0  0
  193.9840  170.2010  138.9180 O   0  0  0  0  0  0  0  0  0  0  0  0
  192.9250  170.5100  138.0430 C   0  0  2  0  0  3  0  0  0  0  0  0
  192.9320  170.9490  139.4760 C   0  0  1  0  0  3  0  0  0  0  0  0
  192.1450  169.2710  137.7010 C   0  0  0  0  0  0  0  0  0  0  0  0
  192.5880  168.1680  137.9860 O   0  0  0  0  0  0  0  0  0  0  0  0
  189.9900  168.3290  137.5850 F   0  0  0  0  0  0  0  0  0  0  0  0
  190.2050  170.5820  137.5530 F   0  0  0  0  0  0  0  0  0  0  0  0
  190.7650  169.3880  137.1430 C   0  0  0  0  0  3  0  0  0  0  0  0
  194.3660  170.2280  144.9930 N   0  0  0  0  0  2  0  0  0  0  0  0
  194.6820  170.4410  146.3430 N   0  0  0  0  0  2  0  0  0  0  0  0
  196.7570  169.2120  146.9760 C   0  0  0  0  0  2  0  0  0  0  0  0
  195.2600  169.2100  146.8570 C   0  0  0  0  0  0  0  0  0  0  0  0
  194.5810  168.5440  147.8720 O   0  0  0  0  0  1  0  0  0  0  0  0
  196.0680  168.3740  145.8980 C   0  0  0  0  0  2  0  0  0  0  0  0
  189.6680  177.5270  143.7130 C   0  0  0  0  0  2  0  0  0  0  0  0
  190.2130  177.2820  146.3250 O   0  0  0  0  0  0  0  0  0  0  0  0
  189.0450  175.4200  145.2480 O   0  0  0  0  0  0  0  0  0  0  0  0
  189.1660  176.9150  145.3140 S   0  0  0  0  0  0  0  0  0  0  0  0
  187.6000  177.6470  145.7860 C   0  0  2  0  0  3  0  0  0  0  0  0
  187.6290  177.9160  147.2810 C   0  0  0  0  0  1  0  0  0  0  0  0
  184.4380  178.3530  145.9650 N   0  0  0  0  0  2  0  0  0  0  0  0
  185.0360  178.4500  143.3460 O   0  0  0  0  0  0  0  0  0  0  0  0
  184.5390  176.1800  146.7690 O   0  0  0  0  0  0  0  0  0  0  0  0
  186.2070  176.4300  143.9350 C   0  0  0  0  0  2  0  0  0  0  0  0
  185.9170  180.1340  146.3550 O   0  0  0  0  0  1  0  0  0  0  0  0
  185.5700  179.5240  144.0610 C   0  0  0  0  0  2  0  0  0  0  0  0
  185.1030  177.0850  146.1030 C   0  0  0  0  0  0  0  0  0  0  0  0
  186.1520  177.6670  143.0440 C   0  0  0  0  0  2  0  0  0  0  0  0
  184.9740  179.6170  145.4620 C   0  0  1  0  0  3  0  0  0  0  0  0
  186.4050  176.7430  145.4240 C   0  0  2  0  0  3  0  0  0  0  0  0
  1 37  1  0  0  0  0
  2  3  1  0  0  0  0
  3  9  1  0  0  0  0
  4 10  1  6  0  0  0
  4 15  1  0  0  0  0
  4 11  1  0  0  0  0
  6  5  2  0  0  0  0
  6 18  1  0  0  0  0
  7  1  1  0  0  0  0
  7  9  1  0  0  0  0
  8 20  1  6  0  0  0
  8 10  1  0  0  0  0
  8 18  1  0  0  0  0
 11 31  1  1  0  0  0
 11 14  1  0  0  0  0
 12  1  2  0  0  0  0
 13  5  1  0  0  0  0
 13 12  1  0  0  0  0
 15  2  1  6  0  0  0
 15 16  1  0  0  0  0
 16 14  1  0  0  0  0
 16 17  2  0  0  0  0
 19  2  2  0  0  0  0
 20 21  2  0  0  0  0
 22 20  2  0  0  0  0
 23 25  1  0  0  0  0
 24 26  1  1  0  0  0
 24 23  1  0  0  0  0
 24 25  1  0  0  0  0
 25 20  1  1  0  0  0
 26 27  2  0  0  0  0
 30 29  1  0  0  0  0
 30 28  1  0  0  0  0
 30 26  1  0  0  0  0
 31 32  1  0  0  0  0
 32 34  1  0  0  0  0
 34 33  1  0  0  0  0
 34 35  1  0  0  0  0
 36 34  1  0  0  0  0
 36 33  1  0  0  0  0
 37 40  1  0  0  0  0
 39 40  2  0  0  0  0
 40 41  1  0  0  0  0
 40 38  2  0  0  0  0
 41 42  1  1  0  0  0
 43 49  1  0  0  0  0
 44 48  1  0  0  0  0
 46 52  1  0  0  0  0
 48 51  1  0  0  0  0
 49 45  2  0  0  0  0
 50 44  1  0  0  0  0
 50 46  1  0  0  0  0
 51 43  1  0  0  0  0
 51 47  1  1  0  0  0
 52 41  1  6  0  0  0
 52 49  1  0  0  0  0
M  END
>  <MODEL>
9

>  <REMARK>
 VINA RESULT:      -6.3      3.647      6.291
  Name = 
  11 active torsions:
  status: ('A' for Active; 'I' for Inactive)
    1  A    between atoms: S_1  and  C_23
    2  A    between atoms: S_1  and  C_46
    3  A    between atoms: C_3  and  C_47
    4  A    between atoms: C_6  and  C_49
    5  A    between atoms: C_6  and  S_52
    6  A    between atoms: N_9  and  N_15
    7  A    between atoms: N_9  and  C_24
    8  A    between atoms: N_15  and  C_29
    9  A    between atoms: C_17  and  C_34
   10  A    between atoms: C_17  and  C_41
   11  A    between atoms: C_47  and  S_52
                            x       y       z     vdW  Elec       q    Type
                         _______ _______ _______ _____ _____    ______ ____

>  <TORSDO>
F 11

$$$$
