=
 OpenBabel11062419503D

 30 33  0  0  1  0  0  0  0  0999 V2000
  187.3590  175.5520  141.2150 C   0  0  0  0  0  2  0  0  0  0  0  0
  184.7680  178.5630  144.2100 C   0  0  0  0  0  2  0  0  0  0  0  0
  186.4560  177.2880  142.8000 C   0  0  1  0  0  3  0  0  0  0  0  0
  187.5660  177.4910  143.8450 C   0  0  0  0  0  2  0  0  0  0  0  0
  185.6310  178.0400  145.3690 C   0  0  1  0  0  3  0  0  0  0  0  0
  187.1130  178.2650  145.0900 C   0  0  0  0  0  2  0  0  0  0  0  0
  186.2670  177.5550  140.2560 C   0  0  0  0  0  0  0  0  0  0  0  0
  185.4410  178.4430  142.8360 C   0  0  1  0  0  3  0  0  0  0  0  0
  187.0850  177.0390  141.4120 C   0  0  2  0  0  3  0  0  0  0  0  0
  184.9980  178.1780  140.4650 N   0  0  0  0  0  2  0  0  0  0  0  0
  186.7310  177.4840  139.0870 O   0  0  0  0  0  0  0  0  0  0  0  0
  184.3760  178.2170  141.7790 C   0  0  0  0  0  2  0  0  0  0  0  0
  185.2450  178.7260  146.6680 C   0  0  0  0  0  2  0  0  0  0  0  0
  186.9130  179.1360  148.4760 O   0  0  0  0  0  1  0  0  0  0  0  0
  186.0970  178.2450  147.7920 C   0  0  0  0  0  0  0  0  0  0  0  0
  186.1010  177.0260  148.1040 O   0  0  0  0  0  0  0  0  0  0  0  0
  189.4850  174.5460  142.1460 C   0  0  0  0  0  0  0  0  0  0  0  0
  188.8520  173.9910  143.0850 O   0  0  0  0  0  0  0  0  0  0  0  0
  188.7900  175.3100  141.1590 N   0  0  0  0  0  2  0  0  0  0  0  0
  191.2110  176.8550  142.7450 N   0  0  0  0  0  0  0  0  0  0  0  0
  191.6730  175.0540  144.3420 C   0  0  2  0  0  3  0  0  0  0  0  0
  192.3430  173.3760  144.2660 S   0  0  0  0  0  0  0  0  0  0  0  0
  191.5750  177.7430  143.6250 C   0  0  0  0  0  3  0  0  0  0  0  0
  191.4190  173.0880  142.7010 C   0  0  0  0  0  2  0  0  0  0  0  0
  192.3260  177.3440  144.7910 N   0  0  0  0  0  0  0  0  0  0  0  0
  190.9800  174.4240  142.0930 C   0  0  2  0  0  3  0  0  0  0  0  0
  191.6950  175.4870  142.9020 C   0  0  1  0  0  3  0  0  0  0  0  0
  192.4200  176.0940  145.1560 C   0  0  0  0  0  0  0  0  0  0  0  0
  194.5370  175.8180  146.4250 C   0  0  0  0  0  1  0  0  0  0  0  0
  193.1210  175.7960  146.3300 O   0  0  0  0  0  0  0  0  0  0  0  0
  2  5  1  0  0  0  0
  3  8  1  0  0  0  0
  3  4  1  1  0  0  0
  4  6  1  0  0  0  0
  5 13  1  1  0  0  0
  6  5  1  0  0  0  0
  7 10  1  0  0  0  0
  7  9  1  0  0  0  0
  8 12  1  6  0  0  0
  8  2  1  0  0  0  0
  9  1  1  6  0  0  0
  9  3  1  0  0  0  0
 10 12  1  0  0  0  0
 11  7  2  0  0  0  0
 13 15  1  0  0  0  0
 15 16  2  0  0  0  0
 15 14  1  0  0  0  0
 17 18  2  0  0  0  0
 19  1  1  0  0  0  0
 19 17  1  0  0  0  0
 20 23  2  0  0  0  0
 21 22  1  6  0  0  0
 21 28  1  0  0  0  0
 23 25  1  0  0  0  0
 24 22  1  0  0  0  0
 25 28  2  0  0  0  0
 26 17  1  1  0  0  0
 26 24  1  0  0  0  0
 26 27  1  0  0  0  0
 27 20  1  1  0  0  0
 27 21  1  0  0  0  0
 28 30  1  0  0  0  0
 30 29  1  0  0  0  0
M  END
>  <MODEL>
1

>  <REMARK>
 VINA RESULT:      -7.1      0.000      0.000
  Name = 
  6 active torsions:
  status: ('A' for Active; 'I' for Inactive)
    1  A    between atoms: C_6  and  N_20
    2  A    between atoms: C_6  and  C_26
    3  A    between atoms: C_8  and  C_21
    4  A    between atoms: C_11  and  C_23
    5  A    between atoms: C_14  and  C_23
    6  A    between atoms: O_17  and  C_28
                            x       y       z     vdW  Elec       q    Type
                         _______ _______ _______ _____ _____    ______ ____

>  <TORSDO>
F 6

$$$$
=
 OpenBabel11062419503D

 30 33  0  0  1  0  0  0  0  0999 V2000
  187.5240  176.4380  140.6530 C   0  0  0  0  0  2  0  0  0  0  0  0
  187.7370  177.1320  145.5740 C   0  0  0  0  0  2  0  0  0  0  0  0
  187.9170  177.1410  143.0390 C   0  0  1  0  0  3  0  0  0  0  0  0
  189.3900  177.5780  143.0890 C   0  0  0  0  0  2  0  0  0  0  0  0
  189.2370  176.8060  145.4860 C   0  0  1  0  0  3  0  0  0  0  0  0
  189.9410  177.7430  144.5110 C   0  0  0  0  0  2  0  0  0  0  0  0
  185.8320  177.8810  141.7390 C   0  0  0  0  0  0  0  0  0  0  0  0
  187.1420  177.6590  144.2620 C   0  0  1  0  0  3  0  0  0  0  0  0
  187.3000  177.5410  141.6800 C   0  0  2  0  0  3  0  0  0  0  0  0
  185.0970  177.7860  142.9610 N   0  0  0  0  0  2  0  0  0  0  0  0
  185.2530  178.3070  140.7050 O   0  0  0  0  0  0  0  0  0  0  0  0
  185.6900  177.2260  144.1650 C   0  0  0  0  0  2  0  0  0  0  0  0
  189.8830  176.9130  146.8570 C   0  0  0  0  0  2  0  0  0  0  0  0
  189.2180  174.5510  147.2990 O   0  0  0  0  0  0  0  0  0  0  0  0
  190.1640  175.5600  147.4140 C   0  0  0  0  0  0  0  0  0  0  0  0
  191.2480  175.3370  148.0140 O   0  0  0  0  0  1  0  0  0  0  0  0
  188.7960  174.2570  140.4920 C   0  0  0  0  0  0  0  0  0  0  0  0
  188.7280  174.2700  139.2340 O   0  0  0  0  0  0  0  0  0  0  0  0
  188.2450  175.3300  141.2570 N   0  0  0  0  0  2  0  0  0  0  0  0
  191.7250  173.9720  140.5870 N   0  0  0  0  0  0  0  0  0  0  0  0
  190.8460  174.1350  142.8700 C   0  0  2  0  0  3  0  0  0  0  0  0
  189.7710  173.1410  143.9320 S   0  0  0  0  0  0  0  0  0  0  0  0
  192.8570  174.4860  140.9760 C   0  0  0  0  0  3  0  0  0  0  0  0
  188.6910  172.7790  142.4860 C   0  0  0  0  0  2  0  0  0  0  0  0
  193.1840  174.5450  142.3800 N   0  0  0  0  0  0  0  0  0  0  0  0
  189.4340  173.0870  141.1820 C   0  0  2  0  0  3  0  0  0  0  0  0
  190.8710  173.3440  141.5890 C   0  0  1  0  0  3  0  0  0  0  0  0
  192.2800  174.3640  143.3060 C   0  0  0  0  0  0  0  0  0  0  0  0
  193.2630  175.6660  145.1790 C   0  0  0  0  0  1  0  0  0  0  0  0
  192.6670  174.4930  144.6450 O   0  0  0  0  0  0  0  0  0  0  0  0
  1 19  1  0  0  0  0
  3  4  1  6  0  0  0
  3  8  1  0  0  0  0
  4  6  1  0  0  0  0
  5  2  1  0  0  0  0
  5 13  1  1  0  0  0
  6  5  1  0  0  0  0
  7 10  1  0  0  0  0
  8 12  1  6  0  0  0
  8  2  1  0  0  0  0
  9  1  1  6  0  0  0
  9  7  1  0  0  0  0
  9  3  1  0  0  0  0
 10 12  1  0  0  0  0
 11  7  2  0  0  0  0
 13 15  1  0  0  0  0
 14 15  2  0  0  0  0
 15 16  1  0  0  0  0
 17 19  1  0  0  0  0
 18 17  2  0  0  0  0
 20 23  2  0  0  0  0
 21 28  1  1  0  0  0
 21 22  1  0  0  0  0
 23 25  1  0  0  0  0
 24 22  1  0  0  0  0
 25 28  2  0  0  0  0
 26 17  1  1  0  0  0
 26 27  1  0  0  0  0
 26 24  1  0  0  0  0
 27 20  1  6  0  0  0
 27 21  1  0  0  0  0
 28 30  1  0  0  0  0
 30 29  1  0  0  0  0
M  END
>  <MODEL>
2

>  <REMARK>
 VINA RESULT:      -6.9      2.281      3.095
  Name = 
  6 active torsions:
  status: ('A' for Active; 'I' for Inactive)
    1  A    between atoms: C_6  and  N_20
    2  A    between atoms: C_6  and  C_26
    3  A    between atoms: C_8  and  C_21
    4  A    between atoms: C_11  and  C_23
    5  A    between atoms: C_14  and  C_23
    6  A    between atoms: O_17  and  C_28
                            x       y       z     vdW  Elec       q    Type
                         _______ _______ _______ _____ _____    ______ ____

>  <TORSDO>
F 6

$$$$
=
 OpenBabel11062419503D

 30 33  0  0  1  0  0  0  0  0999 V2000
  190.9480  175.4050  144.3260 C   0  0  0  0  0  2  0  0  0  0  0  0
  186.4510  177.5120  144.5910 C   0  0  0  0  0  2  0  0  0  0  0  0
  188.8370  176.6740  144.8450 C   0  0  1  0  0  3  0  0  0  0  0  0
  188.7260  176.6560  146.3790 C   0  0  0  0  0  2  0  0  0  0  0  0
  186.2480  176.7540  145.9130 C   0  0  1  0  0  3  0  0  0  0  0  0
  187.3530  177.0900  146.9080 C   0  0  0  0  0  2  0  0  0  0  0  0
  190.5500  177.5420  143.1450 C   0  0  0  0  0  0  0  0  0  0  0  0
  187.9240  177.7510  144.2350 C   0  0  1  0  0  3  0  0  0  0  0  0
  190.3200  176.7890  144.4310 C   0  0  2  0  0  3  0  0  0  0  0  0
  189.4570  178.0530  142.3790 N   0  0  0  0  0  2  0  0  0  0  0  0
  191.7280  177.7720  142.7630 O   0  0  0  0  0  0  0  0  0  0  0  0
  188.0780  177.7520  142.7260 C   0  0  0  0  0  2  0  0  0  0  0  0
  184.8960  177.0920  146.5150 C   0  0  0  0  0  2  0  0  0  0  0  0
  185.3750  179.4040  147.3150 O   0  0  0  0  0  1  0  0  0  0  0  0
  184.6550  178.5620  146.4790 C   0  0  0  0  0  0  0  0  0  0  0  0
  183.7780  179.0400  145.7130 O   0  0  0  0  0  0  0  0  0  0  0  0
  192.9610  175.3870  145.8590 C   0  0  0  0  0  0  0  0  0  0  0  0
  192.2370  175.1570  146.8640 O   0  0  0  0  0  0  0  0  0  0  0  0
  192.3800  175.4860  144.5570 N   0  0  0  0  0  2  0  0  0  0  0  0
  194.8220  173.1070  145.7630 N   0  0  0  0  0  0  0  0  0  0  0  0
  195.3870  174.6980  143.9860 C   0  0  2  0  0  3  0  0  0  0  0  0
  195.9850  176.4030  143.8960 S   0  0  0  0  0  0  0  0  0  0  0  0
  195.3090  172.1280  145.0560 C   0  0  0  0  0  3  0  0  0  0  0  0
  194.8900  176.8520  145.3050 C   0  0  0  0  0  2  0  0  0  0  0  0
  196.1650  172.4040  143.9270 N   0  0  0  0  0  0  0  0  0  0  0  0
  194.4360  175.5900  146.0450 C   0  0  2  0  0  3  0  0  0  0  0  0
  195.2710  174.4640  145.4680 C   0  0  1  0  0  3  0  0  0  0  0  0
  196.2540  173.5970  143.4040 C   0  0  0  0  0  0  0  0  0  0  0  0
  196.5540  173.9170  140.9600 C   0  0  0  0  0  1  0  0  0  0  0  0
  197.0640  173.7690  142.2760 O   0  0  0  0  0  0  0  0  0  0  0  0
  1 19  1  0  0  0  0
  2  5  1  0  0  0  0
  3  4  1  1  0  0  0
  4  6  1  0  0  0  0
  5 13  1  1  0  0  0
  5  6  1  0  0  0  0
  7  9  1  0  0  0  0
  8 12  1  6  0  0  0
  8  2  1  0  0  0  0
  8  3  1  0  0  0  0
  9  1  1  6  0  0  0
  9  3  1  0  0  0  0
 10 12  1  0  0  0  0
 10  7  1  0  0  0  0
 11  7  2  0  0  0  0
 15 13  1  0  0  0  0
 15 14  1  0  0  0  0
 16 15  2  0  0  0  0
 17 18  2  0  0  0  0
 19 17  1  0  0  0  0
 21 28  1  1  0  0  0
 21 27  1  0  0  0  0
 22 21  1  0  0  0  0
 22 24  1  0  0  0  0
 23 20  2  0  0  0  0
 24 26  1  0  0  0  0
 25 23  1  0  0  0  0
 26 17  1  6  0  0  0
 27 20  1  6  0  0  0
 27 26  1  0  0  0  0
 28 25  2  0  0  0  0
 29 30  1  0  0  0  0
 30 28  1  0  0  0  0
M  END
>  <MODEL>
3

>  <REMARK>
 VINA RESULT:      -6.6      3.036      4.577
  Name = 
  6 active torsions:
  status: ('A' for Active; 'I' for Inactive)
    1  A    between atoms: C_6  and  N_20
    2  A    between atoms: C_6  and  C_26
    3  A    between atoms: C_8  and  C_21
    4  A    between atoms: C_11  and  C_23
    5  A    between atoms: C_14  and  C_23
    6  A    between atoms: O_17  and  C_28
                            x       y       z     vdW  Elec       q    Type
                         _______ _______ _______ _____ _____    ______ ____

>  <TORSDO>
F 6

$$$$
=
 OpenBabel11062419503D

 30 33  0  0  1  0  0  0  0  0999 V2000
  191.1160  175.6850  144.7370 C   0  0  0  0  0  2  0  0  0  0  0  0
  186.4140  177.3050  144.6640 C   0  0  0  0  0  2  0  0  0  0  0  0
  188.8680  176.7710  145.0580 C   0  0  1  0  0  3  0  0  0  0  0  0
  188.7170  176.9370  146.5790 C   0  0  0  0  0  2  0  0  0  0  0  0
  186.2570  176.7040  146.0700 C   0  0  1  0  0  3  0  0  0  0  0  0
  187.2910  177.2820  147.0280 C   0  0  0  0  0  2  0  0  0  0  0  0
  190.5250  177.5980  143.2830 C   0  0  0  0  0  0  0  0  0  0  0  0
  187.8630  177.6560  144.3010 C   0  0  1  0  0  3  0  0  0  0  0  0
  190.3410  176.9940  144.6520 C   0  0  2  0  0  3  0  0  0  0  0  0
  189.4050  177.8850  142.4420 N   0  0  0  0  0  2  0  0  0  0  0  0
  191.6820  177.9050  142.8910 O   0  0  0  0  0  0  0  0  0  0  0  0
  188.0570  177.4810  142.8060 C   0  0  0  0  0  2  0  0  0  0  0  0
  184.8600  176.9660  146.6050 C   0  0  0  0  0  2  0  0  0  0  0  0
  183.6420  178.9140  145.6360 O   0  0  0  0  0  0  0  0  0  0  0  0
  184.5450  178.4220  146.5670 C   0  0  0  0  0  0  0  0  0  0  0  0
  185.1200  179.2120  147.3610 O   0  0  0  0  0  1  0  0  0  0  0  0
  190.7260  173.6350  143.3070 C   0  0  0  0  0  0  0  0  0  0  0  0
  191.8980  173.6910  142.8470 O   0  0  0  0  0  0  0  0  0  0  0  0
  190.2870  174.5820  144.2830 N   0  0  0  0  0  2  0  0  0  0  0  0
  188.6010  174.3150  141.3860 N   0  0  0  0  0  0  0  0  0  0  0  0
  190.1100  172.6640  140.3840 C   0  0  2  0  0  3  0  0  0  0  0  0
  190.5690  170.9440  140.7060 S   0  0  0  0  0  0  0  0  0  0  0  0
  188.3070  174.7800  140.2060 C   0  0  0  0  0  3  0  0  0  0  0  0
  190.5490  171.2870  142.5140 C   0  0  0  0  0  2  0  0  0  0  0  0
  188.6250  174.0130  139.0250 N   0  0  0  0  0  0  0  0  0  0  0  0
  189.7840  172.5830  142.7980 C   0  0  2  0  0  3  0  0  0  0  0  0
  189.1260  172.9570  141.4840 C   0  0  1  0  0  3  0  0  0  0  0  0
  189.4460  172.9980  139.0610 C   0  0  0  0  0  0  0  0  0  0  0  0
  190.6470  172.8530  136.8920 C   0  0  0  0  0  1  0  0  0  0  0  0
  189.7440  172.3420  137.8620 O   0  0  0  0  0  0  0  0  0  0  0  0
  2  5  1  0  0  0  0
  3  4  1  1  0  0  0
  4  6  1  0  0  0  0
  5 13  1  1  0  0  0
  5  6  1  0  0  0  0
  7  9  1  0  0  0  0
  8 12  1  6  0  0  0
  8  2  1  0  0  0  0
  8  3  1  0  0  0  0
  9  1  1  6  0  0  0
  9  3  1  0  0  0  0
 10 12  1  0  0  0  0
 10  7  1  0  0  0  0
 11  7  2  0  0  0  0
 14 15  2  0  0  0  0
 15 13  1  0  0  0  0
 15 16  1  0  0  0  0
 17 19  1  0  0  0  0
 18 17  2  0  0  0  0
 19  1  1  0  0  0  0
 21 28  1  6  0  0  0
 21 22  1  0  0  0  0
 21 27  1  0  0  0  0
 22 24  1  0  0  0  0
 23 20  2  0  0  0  0
 24 26  1  0  0  0  0
 25 28  2  0  0  0  0
 25 23  1  0  0  0  0
 26 17  1  6  0  0  0
 27 20  1  1  0  0  0
 27 26  1  0  0  0  0
 29 30  1  0  0  0  0
 30 28  1  0  0  0  0
M  END
>  <MODEL>
4

>  <REMARK>
 VINA RESULT:      -6.6      2.678      4.800
  Name = 
  6 active torsions:
  status: ('A' for Active; 'I' for Inactive)
    1  A    between atoms: C_6  and  N_20
    2  A    between atoms: C_6  and  C_26
    3  A    between atoms: C_8  and  C_21
    4  A    between atoms: C_11  and  C_23
    5  A    between atoms: C_14  and  C_23
    6  A    between atoms: O_17  and  C_28
                            x       y       z     vdW  Elec       q    Type
                         _______ _______ _______ _____ _____    ______ ____

>  <TORSDO>
F 6

$$$$
=
 OpenBabel11062419503D

 30 33  0  0  1  0  0  0  0  0999 V2000
  189.8880  174.5530  142.2770 C   0  0  0  0  0  2  0  0  0  0  0  0
  187.4140  177.9770  144.9030 C   0  0  0  0  0  2  0  0  0  0  0  0
  188.2610  176.0290  143.5070 C   0  0  1  0  0  3  0  0  0  0  0  0
  186.9830  176.0140  142.6520 C   0  0  0  0  0  2  0  0  0  0  0  0
  186.6610  178.3260  143.6100 C   0  0  1  0  0  3  0  0  0  0  0  0
  185.9660  177.0960  143.0360 C   0  0  0  0  0  2  0  0  0  0  0  0
  189.6690  174.2650  144.7250 C   0  0  0  0  0  0  0  0  0  0  0  0
  187.9740  176.5480  144.9260 C   0  0  1  0  0  3  0  0  0  0  0  0
  188.9350  174.6400  143.4630 C   0  0  2  0  0  3  0  0  0  0  0  0
  189.7500  175.1650  145.8320 N   0  0  0  0  0  2  0  0  0  0  0  0
  190.1770  173.1170  144.8280 O   0  0  0  0  0  0  0  0  0  0  0  0
  189.2540  176.5280  145.7420 C   0  0  0  0  0  2  0  0  0  0  0  0
  185.6380  179.4170  143.8720 C   0  0  0  0  0  2  0  0  0  0  0  0
  184.0910  178.3630  145.5190 O   0  0  0  0  0  1  0  0  0  0  0  0
  184.3170  178.8270  144.2300 C   0  0  0  0  0  0  0  0  0  0  0  0
  183.4150  178.7210  143.3590 O   0  0  0  0  0  0  0  0  0  0  0  0
  192.3200  175.2310  142.1070 C   0  0  0  0  0  0  0  0  0  0  0  0
  192.6340  174.1110  141.6220 O   0  0  0  0  0  0  0  0  0  0  0  0
  190.9570  175.5260  142.4210 N   0  0  0  0  0  2  0  0  0  0  0  0
  193.0490  175.9470  144.8680 N   0  0  0  0  0  0  0  0  0  0  0  0
  195.0000  174.9990  143.7280 C   0  0  2  0  0  3  0  0  0  0  0  0
  196.0520  175.4590  142.3300 S   0  0  0  0  0  0  0  0  0  0  0  0
  193.5060  175.5350  146.0160 C   0  0  0  0  0  3  0  0  0  0  0  0
  194.5650  176.0400  141.4140 C   0  0  0  0  0  2  0  0  0  0  0  0
  194.8850  175.1300  146.1450 N   0  0  0  0  0  0  0  0  0  0  0  0
  193.3940  176.2420  142.3820 C   0  0  2  0  0  3  0  0  0  0  0  0
  193.9920  176.1150  143.7680 C   0  0  1  0  0  3  0  0  0  0  0  0
  195.6330  174.8890  145.1020 C   0  0  0  0  0  0  0  0  0  0  0  0
  197.3720  173.1170  145.0680 C   0  0  0  0  0  1  0  0  0  0  0  0
  196.9440  174.4480  145.3140 O   0  0  0  0  0  0  0  0  0  0  0  0
  1 19  1  0  0  0  0
  3  4  1  6  0  0  0
  3  8  1  0  0  0  0
  4  6  1  0  0  0  0
  5 13  1  1  0  0  0
  5  2  1  0  0  0  0
  6  5  1  0  0  0  0
  7 11  2  0  0  0  0
  7 10  1  0  0  0  0
  8  2  1  6  0  0  0
  8 12  1  0  0  0  0
  9  1  1  6  0  0  0
  9  3  1  0  0  0  0
  9  7  1  0  0  0  0
 12 10  1  0  0  0  0
 13 15  1  0  0  0  0
 15 14  1  0  0  0  0
 16 15  2  0  0  0  0
 17 19  1  0  0  0  0
 18 17  2  0  0  0  0
 20 23  2  0  0  0  0
 21 22  1  6  0  0  0
 21 27  1  0  0  0  0
 21 28  1  0  0  0  0
 23 25  1  0  0  0  0
 24 22  1  0  0  0  0
 24 26  1  0  0  0  0
 26 17  1  6  0  0  0
 26 27  1  0  0  0  0
 27 20  1  1  0  0  0
 28 30  1  0  0  0  0
 28 25  2  0  0  0  0
 29 30  1  0  0  0  0
M  END
>  <MODEL>
5

>  <REMARK>
 VINA RESULT:      -6.6      2.758      4.209
  Name = 
  6 active torsions:
  status: ('A' for Active; 'I' for Inactive)
    1  A    between atoms: C_6  and  N_20
    2  A    between atoms: C_6  and  C_26
    3  A    between atoms: C_8  and  C_21
    4  A    between atoms: C_11  and  C_23
    5  A    between atoms: C_14  and  C_23
    6  A    between atoms: O_17  and  C_28
                            x       y       z     vdW  Elec       q    Type
                         _______ _______ _______ _____ _____    ______ ____

>  <TORSDO>
F 6

$$$$
=
 OpenBabel11062419503D

 30 33  0  0  1  0  0  0  0  0999 V2000
  191.6070  175.1990  146.0930 C   0  0  0  0  0  2  0  0  0  0  0  0
  187.9800  177.6090  143.6900 C   0  0  0  0  0  2  0  0  0  0  0  0
  189.8020  176.7250  145.2260 C   0  0  1  0  0  3  0  0  0  0  0  0
  189.0670  177.2270  146.4800 C   0  0  0  0  0  2  0  0  0  0  0  0
  187.0900  177.3520  144.9170 C   0  0  1  0  0  3  0  0  0  0  0  0
  187.7290  177.9160  146.1810 C   0  0  0  0  0  2  0  0  0  0  0  0
  192.2080  176.8440  144.3450 C   0  0  0  0  0  0  0  0  0  0  0  0
  189.4820  177.6040  144.0050 C   0  0  1  0  0  3  0  0  0  0  0  0
  191.3100  176.5820  145.5270 C   0  0  2  0  0  3  0  0  0  0  0  0
  191.6690  177.1520  143.0580 N   0  0  0  0  0  2  0  0  0  0  0  0
  193.4580  176.8430  144.5040 O   0  0  0  0  0  0  0  0  0  0  0  0
  190.2410  177.0890  142.7960 C   0  0  0  0  0  2  0  0  0  0  0  0
  185.7180  177.9730  144.7150 C   0  0  0  0  0  2  0  0  0  0  0  0
  184.8350  176.4880  146.5130 O   0  0  0  0  0  1  0  0  0  0  0  0
  184.8520  177.7350  145.9050 C   0  0  0  0  0  0  0  0  0  0  0  0
  184.1120  178.6550  146.3410 O   0  0  0  0  0  0  0  0  0  0  0  0
  190.1950  173.3350  145.1260 C   0  0  0  0  0  0  0  0  0  0  0  0
  189.3160  173.4930  146.0160 O   0  0  0  0  0  0  0  0  0  0  0  0
  191.3460  174.1810  145.0900 N   0  0  0  0  0  2  0  0  0  0  0  0
  188.4410  173.6600  142.7830 N   0  0  0  0  0  0  0  0  0  0  0  0
  190.7420  173.2650  142.0340 C   0  0  2  0  0  3  0  0  0  0  0  0
  191.9370  171.9120  142.1320 S   0  0  0  0  0  0  0  0  0  0  0  0
  188.1900  174.3300  141.6950 C   0  0  0  0  0  3  0  0  0  0  0  0
  191.3920  171.5680  143.8560 C   0  0  0  0  0  2  0  0  0  0  0  0
  189.0760  174.2300  140.5600 N   0  0  0  0  0  0  0  0  0  0  0  0
  190.0370  172.2300  144.1240 C   0  0  2  0  0  3  0  0  0  0  0  0
  189.5520  172.7140  142.7720 C   0  0  1  0  0  3  0  0  0  0  0  0
  190.2730  173.7180  140.6640 C   0  0  0  0  0  0  0  0  0  0  0  0
  190.6150  173.4190  138.2220 C   0  0  0  0  0  1  0  0  0  0  0  0
  191.0910  173.7080  139.5280 O   0  0  0  0  0  0  0  0  0  0  0  0
  2  8  1  0  0  0  0
  2  5  1  0  0  0  0
  3  9  1  0  0  0  0
  3  4  1  1  0  0  0
  5 13  1  6  0  0  0
  5  6  1  0  0  0  0
  6  4  1  0  0  0  0
  7 11  2  0  0  0  0
  7  9  1  0  0  0  0
  8 12  1  6  0  0  0
  8  3  1  0  0  0  0
  9  1  1  6  0  0  0
 10  7  1  0  0  0  0
 12 10  1  0  0  0  0
 13 15  1  0  0  0  0
 15 16  2  0  0  0  0
 15 14  1  0  0  0  0
 17 18  2  0  0  0  0
 19 17  1  0  0  0  0
 19  1  1  0  0  0  0
 21 28  1  6  0  0  0
 21 22  1  0  0  0  0
 21 27  1  0  0  0  0
 22 24  1  0  0  0  0
 23 20  2  0  0  0  0
 24 26  1  0  0  0  0
 25 28  2  0  0  0  0
 25 23  1  0  0  0  0
 26 17  1  1  0  0  0
 27 20  1  1  0  0  0
 27 26  1  0  0  0  0
 29 30  1  0  0  0  0
 30 28  1  0  0  0  0
M  END
>  <MODEL>
6

>  <REMARK>
 VINA RESULT:      -6.5      2.473      4.937
  Name = 
  6 active torsions:
  status: ('A' for Active; 'I' for Inactive)
    1  A    between atoms: C_6  and  N_20
    2  A    between atoms: C_6  and  C_26
    3  A    between atoms: C_8  and  C_21
    4  A    between atoms: C_11  and  C_23
    5  A    between atoms: C_14  and  C_23
    6  A    between atoms: O_17  and  C_28
                            x       y       z     vdW  Elec       q    Type
                         _______ _______ _______ _____ _____    ______ ____

>  <TORSDO>
F 6

$$$$
=
 OpenBabel11062419503D

 30 33  0  0  1  0  0  0  0  0999 V2000
  192.2930  177.0260  144.3020 C   0  0  0  0  0  2  0  0  0  0  0  0
  187.5830  177.5950  145.7980 C   0  0  0  0  0  2  0  0  0  0  0  0
  189.8410  176.9000  144.8590 C   0  0  1  0  0  3  0  0  0  0  0  0
  189.1880  176.2230  143.6420 C   0  0  0  0  0  2  0  0  0  0  0  0
  187.1840  177.6000  144.3140 C   0  0  1  0  0  3  0  0  0  0  0  0
  187.6580  176.3300  143.6180 C   0  0  0  0  0  2  0  0  0  0  0  0
  191.6470  176.2540  146.5620 C   0  0  0  0  0  0  0  0  0  0  0  0
  188.9050  176.8690  146.0800 C   0  0  1  0  0  3  0  0  0  0  0  0
  191.2350  176.2870  145.1120 C   0  0  2  0  0  3  0  0  0  0  0  0
  190.8080  176.7960  147.5840 N   0  0  0  0  0  2  0  0  0  0  0  0
  192.7260  175.6920  146.8870 O   0  0  0  0  0  0  0  0  0  0  0  0
  189.5920  177.5260  147.2630 C   0  0  0  0  0  2  0  0  0  0  0  0
  185.6780  177.7310  144.1710 C   0  0  0  0  0  2  0  0  0  0  0  0
  184.3410  179.0410  145.8190 O   0  0  0  0  0  1  0  0  0  0  0  0
  185.2050  179.0280  144.7340 C   0  0  0  0  0  0  0  0  0  0  0  0
  185.5660  180.1130  144.2080 O   0  0  0  0  0  0  0  0  0  0  0  0
  194.5970  176.0680  143.8890 C   0  0  0  0  0  0  0  0  0  0  0  0
  195.1140  176.8600  144.7220 O   0  0  0  0  0  0  0  0  0  0  0  0
  193.1870  176.0770  143.6610 N   0  0  0  0  0  2  0  0  0  0  0  0
  196.7130  174.5240  145.2350 N   0  0  0  0  0  0  0  0  0  0  0  0
  195.1130  172.9840  144.1980 C   0  0  2  0  0  3  0  0  0  0  0  0
  194.5840  172.5830  142.5160 S   0  0  0  0  0  0  0  0  0  0  0  0
  197.0040  173.6320  146.1380 C   0  0  0  0  0  3  0  0  0  0  0  0
  194.6550  174.3690  142.0770 C   0  0  0  0  0  2  0  0  0  0  0  0
  196.6300  172.2520  145.9410 N   0  0  0  0  0  0  0  0  0  0  0  0
  195.4820  175.1360  143.1140 C   0  0  2  0  0  3  0  0  0  0  0  0
  196.1300  174.0710  143.9770 C   0  0  1  0  0  3  0  0  0  0  0  0
  195.7650  171.8950  145.0290 C   0  0  0  0  0  0  0  0  0  0  0  0
  194.6250  169.8720  145.9100 C   0  0  0  0  0  1  0  0  0  0  0  0
  195.4150  170.5430  144.9390 O   0  0  0  0  0  0  0  0  0  0  0  0
  3  4  1  6  0  0  0
  3  9  1  0  0  0  0
  3  8  1  0  0  0  0
  5 13  1  1  0  0  0
  5  2  1  0  0  0  0
  6  4  1  0  0  0  0
  6  5  1  0  0  0  0
  7 11  2  0  0  0  0
  7 10  1  0  0  0  0
  8  2  1  6  0  0  0
  8 12  1  0  0  0  0
  9  1  1  6  0  0  0
  9  7  1  0  0  0  0
 12 10  1  0  0  0  0
 13 15  1  0  0  0  0
 15 14  1  0  0  0  0
 16 15  2  0  0  0  0
 17 18  2  0  0  0  0
 19 17  1  0  0  0  0
 19  1  1  0  0  0  0
 20 23  2  0  0  0  0
 21 22  1  6  0  0  0
 21 28  1  0  0  0  0
 24 22  1  0  0  0  0
 24 26  1  0  0  0  0
 25 23  1  0  0  0  0
 26 17  1  1  0  0  0
 26 27  1  0  0  0  0
 27 21  1  0  0  0  0
 27 20  1  1  0  0  0
 28 25  2  0  0  0  0
 30 28  1  0  0  0  0
 30 29  1  0  0  0  0
M  END
>  <MODEL>
7

>  <REMARK>
 VINA RESULT:      -6.5      3.291      5.582
  Name = 
  6 active torsions:
  status: ('A' for Active; 'I' for Inactive)
    1  A    between atoms: C_6  and  N_20
    2  A    between atoms: C_6  and  C_26
    3  A    between atoms: C_8  and  C_21
    4  A    between atoms: C_11  and  C_23
    5  A    between atoms: C_14  and  C_23
    6  A    between atoms: O_17  and  C_28
                            x       y       z     vdW  Elec       q    Type
                         _______ _______ _______ _____ _____    ______ ____

>  <TORSDO>
F 6

$$$$
=
 OpenBabel11062419503D

 30 33  0  0  1  0  0  0  0  0999 V2000
  189.2610  176.6150  144.7000 C   0  0  0  0  0  2  0  0  0  0  0  0
  193.7340  174.7800  145.8680 C   0  0  0  0  0  2  0  0  0  0  0  0
  191.6870  176.0870  145.1190 C   0  0  1  0  0  3  0  0  0  0  0  0
  192.4390  176.6870  143.9190 C   0  0  0  0  0  2  0  0  0  0  0  0
  194.0620  174.8060  144.3660 C   0  0  1  0  0  3  0  0  0  0  0  0
  193.8920  176.2100  143.7960 C   0  0  0  0  0  2  0  0  0  0  0  0
  190.1670  177.0060  146.9690 C   0  0  0  0  0  0  0  0  0  0  0  0
  192.6480  175.7820  146.2800 C   0  0  1  0  0  3  0  0  0  0  0  0
  190.5000  176.9990  145.4990 C   0  0  2  0  0  3  0  0  0  0  0  0
  190.8830  176.1870  147.8960 N   0  0  0  0  0  2  0  0  0  0  0  0
  189.2750  177.7850  147.3990 O   0  0  0  0  0  0  0  0  0  0  0  0
  191.8650  175.2130  147.4500 C   0  0  0  0  0  2  0  0  0  0  0  0
  195.4810  174.3230  144.1250 C   0  0  0  0  0  2  0  0  0  0  0  0
  195.3420  172.1550  142.9010 O   0  0  0  0  0  1  0  0  0  0  0  0
  195.5600  173.5250  142.8680 C   0  0  0  0  0  0  0  0  0  0  0  0
  195.8530  174.0880  141.7810 O   0  0  0  0  0  0  0  0  0  0  0  0
  187.0710  177.8820  144.6620 C   0  0  0  0  0  0  0  0  0  0  0  0
  186.4730  176.9330  145.2370 O   0  0  0  0  0  0  0  0  0  0  0  0
  188.4730  177.7980  144.3990 N   0  0  0  0  0  2  0  0  0  0  0  0
  186.6020  178.4270  141.8070 N   0  0  0  0  0  0  0  0  0  0  0  0
  184.4520  178.1320  142.9460 C   0  0  2  0  0  3  0  0  0  0  0  0
  183.5220  178.9980  144.2330 S   0  0  0  0  0  0  0  0  0  0  0  0
  186.0800  178.0090  140.6900 C   0  0  0  0  0  3  0  0  0  0  0  0
  185.0880  179.2960  145.1520 C   0  0  0  0  0  2  0  0  0  0  0  0
  184.6460  177.9460  140.5370 N   0  0  0  0  0  0  0  0  0  0  0  0
  186.2920  179.0880  144.2270 C   0  0  2  0  0  3  0  0  0  0  0  0
  185.7090  178.9510  142.8340 C   0  0  1  0  0  3  0  0  0  0  0  0
  183.8400  178.0220  141.5620 C   0  0  0  0  0  0  0  0  0  0  0  0
  181.6440  178.9660  140.8880 C   0  0  0  0  0  1  0  0  0  0  0  0
  182.4650  177.8970  141.3350 O   0  0  0  0  0  0  0  0  0  0  0  0
  3  4  1  6  0  0  0
  3  9  1  0  0  0  0
  3  8  1  0  0  0  0
  5 13  1  1  0  0  0
  5  2  1  0  0  0  0
  6  4  1  0  0  0  0
  6  5  1  0  0  0  0
  7 11  2  0  0  0  0
  7 10  1  0  0  0  0
  8  2  1  6  0  0  0
  8 12  1  0  0  0  0
  9  1  1  6  0  0  0
  9  7  1  0  0  0  0
 12 10  1  0  0  0  0
 15 14  1  0  0  0  0
 15 13  1  0  0  0  0
 16 15  2  0  0  0  0
 17 18  2  0  0  0  0
 19 17  1  0  0  0  0
 19  1  1  0  0  0  0
 21 28  1  6  0  0  0
 21 22  1  0  0  0  0
 22 24  1  0  0  0  0
 23 20  2  0  0  0  0
 25 23  1  0  0  0  0
 25 28  2  0  0  0  0
 26 17  1  1  0  0  0
 26 24  1  0  0  0  0
 27 20  1  6  0  0  0
 27 21  1  0  0  0  0
 27 26  1  0  0  0  0
 29 30  1  0  0  0  0
 30 28  1  0  0  0  0
M  END
>  <MODEL>
8

>  <REMARK>
 VINA RESULT:      -6.4      3.265      8.735
  Name = 
  6 active torsions:
  status: ('A' for Active; 'I' for Inactive)
    1  A    between atoms: C_6  and  N_20
    2  A    between atoms: C_6  and  C_26
    3  A    between atoms: C_8  and  C_21
    4  A    between atoms: C_11  and  C_23
    5  A    between atoms: C_14  and  C_23
    6  A    between atoms: O_17  and  C_28
                            x       y       z     vdW  Elec       q    Type
                         _______ _______ _______ _____ _____    ______ ____

>  <TORSDO>
F 6

$$$$
=
 OpenBabel11062419503D

 30 33  0  0  1  0  0  0  0  0999 V2000
  187.8620  176.5590  142.0260 C   0  0  0  0  0  2  0  0  0  0  0  0
  190.4690  176.5260  146.2620 C   0  0  0  0  0  2  0  0  0  0  0  0
  189.3610  176.9410  144.0120 C   0  0  1  0  0  3  0  0  0  0  0  0
  190.6460  177.5570  143.4310 C   0  0  0  0  0  2  0  0  0  0  0  0
  191.7370  176.4190  145.4010 C   0  0  1  0  0  3  0  0  0  0  0  0
  191.8240  177.5770  144.4130 C   0  0  0  0  0  2  0  0  0  0  0  0
  186.8790  177.5860  144.0510 C   0  0  0  0  0  0  0  0  0  0  0  0
  189.2780  177.1620  145.5320 C   0  0  1  0  0  3  0  0  0  0  0  0
  188.1350  177.4560  143.2270 C   0  0  2  0  0  3  0  0  0  0  0  0
  186.8540  177.2120  145.4300 N   0  0  0  0  0  2  0  0  0  0  0  0
  185.8450  178.0830  143.5300 O   0  0  0  0  0  0  0  0  0  0  0  0
  187.9900  176.5610  146.0620 C   0  0  0  0  0  2  0  0  0  0  0  0
  192.9750  176.4030  146.2810 C   0  0  0  0  0  2  0  0  0  0  0  0
  194.8640  177.9170  145.6860 O   0  0  0  0  0  1  0  0  0  0  0  0
  194.1930  176.7190  145.4830 C   0  0  0  0  0  0  0  0  0  0  0  0
  194.5990  175.9150  144.6040 O   0  0  0  0  0  0  0  0  0  0  0  0
  188.7300  174.3460  141.1620 C   0  0  0  0  0  0  0  0  0  0  0  0
  188.5210  174.6900  139.9680 O   0  0  0  0  0  0  0  0  0  0  0  0
  188.4550  175.2500  142.2330 N   0  0  0  0  0  2  0  0  0  0  0  0
  191.6010  173.7240  140.9580 N   0  0  0  0  0  0  0  0  0  0  0  0
  190.8390  173.3250  143.2540 C   0  0  2  0  0  3  0  0  0  0  0  0
  189.6900  172.1960  144.0740 S   0  0  0  0  0  0  0  0  0  0  0  0
  192.8030  173.9770  141.3890 C   0  0  0  0  0  3  0  0  0  0  0  0
  188.5170  172.3820  142.6690 C   0  0  0  0  0  2  0  0  0  0  0  0
  193.1900  173.5970  142.7270 N   0  0  0  0  0  0  0  0  0  0  0  0
  189.2410  172.9640  141.4500 C   0  0  2  0  0  3  0  0  0  0  0  0
  190.7140  172.9350  141.8060 C   0  0  1  0  0  3  0  0  0  0  0  0
  192.3080  173.2610  143.6300 C   0  0  0  0  0  0  0  0  0  0  0  0
  194.0660  172.4760  145.1990 C   0  0  0  0  0  1  0  0  0  0  0  0
  192.7600  172.9590  144.9200 O   0  0  0  0  0  0  0  0  0  0  0  0
  1 19  1  0  0  0  0
  3  4  1  6  0  0  0
  3  8  1  0  0  0  0
  4  6  1  0  0  0  0
  5  2  1  0  0  0  0
  5 13  1  1  0  0  0
  6  5  1  0  0  0  0
  7 10  1  0  0  0  0
  8 12  1  1  0  0  0
  8  2  1  0  0  0  0
  9  1  1  6  0  0  0
  9  3  1  0  0  0  0
  9  7  1  0  0  0  0
 10 12  1  0  0  0  0
 11  7  2  0  0  0  0
 15 14  1  0  0  0  0
 15 13  1  0  0  0  0
 16 15  2  0  0  0  0
 17 19  1  0  0  0  0
 18 17  2  0  0  0  0
 20 23  2  0  0  0  0
 21 28  1  1  0  0  0
 21 22  1  0  0  0  0
 23 25  1  0  0  0  0
 24 22  1  0  0  0  0
 25 28  2  0  0  0  0
 26 17  1  1  0  0  0
 26 27  1  0  0  0  0
 26 24  1  0  0  0  0
 27 20  1  6  0  0  0
 27 21  1  0  0  0  0
 28 30  1  0  0  0  0
 30 29  1  0  0  0  0
M  END
>  <MODEL>
9

>  <REMARK>
 VINA RESULT:      -6.3      2.673      4.779
  Name = 
  6 active torsions:
  status: ('A' for Active; 'I' for Inactive)
    1  A    between atoms: C_6  and  N_20
    2  A    between atoms: C_6  and  C_26
    3  A    between atoms: C_8  and  C_21
    4  A    between atoms: C_11  and  C_23
    5  A    between atoms: C_14  and  C_23
    6  A    between atoms: O_17  and  C_28
                            x       y       z     vdW  Elec       q    Type
                         _______ _______ _______ _____ _____    ______ ____

>  <TORSDO>
F 6

$$$$
