=
 OpenBabel11062418233D

 64 70  0  0  1  0  0  0  0  0999 V2000
  189.9770  174.7160  143.2300 C   0  0  0  0  0  0  0  0  0  0  0  0
  189.7620  175.6080  144.2300 C   0  0  0  0  0  0  0  0  0  0  0  0
  188.4620  176.2170  144.6630 C   0  0  0  0  0  0  0  0  0  0  0  0
  187.0160  176.8920  146.6340 C   0  0  0  0  0  3  0  0  0  0  0  0
  190.9580  175.8490  144.9140 O   0  0  0  0  0  0  0  0  0  0  0  0
  188.1210  176.7420  141.8960 S   0  0  0  0  0  0  0  0  0  0  0  0
  188.9840  174.1530  142.2760 C   0  0  0  0  0  0  0  0  0  0  0  0
  187.4400  176.6990  143.6110 C   0  0  2  0  0  3  0  0  0  0  0  0
  192.0170  175.0570  144.4180 C   0  0  1  0  0  3  0  0  0  0  0  0
  186.2770  178.5380  144.9200 C   0  0  0  0  0  0  0  0  0  0  0  0
  191.3920  174.2260  143.3000 C   0  0  0  0  0  2  0  0  0  0  0  0
  186.8630  178.0750  143.8240 C   0  0  0  0  0  3  0  0  0  0  0  0
  185.6090  179.7640  144.8170 O   0  0  0  0  0  1  0  0  0  0  0  0
  186.1540  177.8370  146.2170 C   0  0  0  0  0  0  0  0  0  0  0  0
  188.1080  174.9460  141.6810 C   0  0  0  0  0  3  0  0  0  0  0  0
  188.2040  176.2530  146.0180 C   0  0  0  0  0  0  0  0  0  0  0  0
  184.9710  178.3710  147.3840 Cl  0  0  0  0  0  0  0  0  0  0  0  0
  189.0510  175.4320  147.0260 C   0  0  1  0  0  3  0  0  0  0  0  0
  189.2900  174.1450  146.5070 O   0  0  0  0  0  1  0  0  0  0  0  0
  190.4140  176.0700  147.4420 C   0  0  0  0  0  2  0  0  0  0  0  0
  191.1300  175.1580  148.2240 O   0  0  0  0  0  1  0  0  0  0  0  0
  189.0200  172.6820  141.9000 C   0  0  2  0  0  3  0  0  0  0  0  0
  189.1190  171.9440  143.0600 O   0  0  0  0  0  1  0  0  0  0  0  0
  189.7380  172.6480  139.5900 O   0  0  0  0  0  0  0  0  0  0  0  0
  192.4890  171.6060  140.6990 C   0  0  0  0  0  1  0  0  0  0  0  0
  190.1510  172.3860  140.9090 C   0  0  2  0  0  3  0  0  0  0  0  0
  190.2220  171.5500  138.8540 C   0  0  0  0  0  2  0  0  0  0  0  0
  190.6180  170.4940  139.7090 O   0  0  0  0  0  0  0  0  0  0  0  0
  191.0300  171.1440  140.8670 C   0  0  1  0  0  0  0  0  0  0  0  0
  191.0710  170.2000  142.0940 C   0  0  1  0  0  3  0  0  0  0  0  0
  190.5810  168.9090  141.8000 O   0  0  0  0  0  1  0  0  0  0  0  0
  192.4800  169.0110  143.7020 F   0  0  0  0  0  0  0  0  0  0  0  0
  192.2240  170.2720  143.1610 C   0  0  0  0  0  3  0  0  0  0  0  0
  191.9040  171.1570  144.1770 F   0  0  0  0  0  0  0  0  0  0  0  0
  193.2610  175.8780  143.9150 C   0  0  1  0  0  0  0  0  0  0  0  0
  193.1240  176.2910  142.5810 F   0  0  0  0  0  0  0  0  0  0  0  0
  194.6280  177.3740  145.3000 F   0  0  0  0  0  0  0  0  0  0  0  0
  193.3870  177.1820  144.7130 C   0  0  0  0  0  2  0  0  0  0  0  0
  194.4380  175.0950  144.0800 O   0  0  0  0  0  0  0  0  0  0  0  0
  196.9860  175.7040  141.5980 C   0  0  0  0  0  2  0  0  0  0  0  0
  195.4280  173.5780  142.6140 O   0  0  0  0  0  0  0  0  0  0  0  0
  196.3810  175.2100  139.1490 C   0  0  2  0  0  3  0  0  0  0  0  0
  196.2690  175.8140  142.7240 C   0  0  0  0  0  2  0  0  0  0  0  0
  196.6250  172.3100  141.1210 O   0  0  0  0  0  1  0  0  0  0  0  0
  196.4320  174.7340  140.5920 C   0  0  1  0  0  0  0  0  0  0  0  0
  195.0540  174.9250  142.8360 C   0  0  2  0  0  3  0  0  0  0  0  0
  195.8030  173.4410  141.2520 C   0  0  2  0  0  3  0  0  0  0  0  0
  195.3000  175.3480  140.0160 O   0  0  0  0  0  0  0  0  0  0  0  0
  194.5590  171.9180  134.5160 O   0  0  0  0  0  0  0  0  0  0  0  0
  194.3750  173.2780  136.4090 N   0  0  0  0  0  2  0  0  0  0  0  0
  197.2420  173.9660  137.1980 O   0  0  0  0  0  0  0  0  0  0  0  0
  195.1610  172.5450  135.4520 C   0  0  0  0  0  0  0  0  0  0  0  0
  194.8610  174.4170  137.2320 C   0  0  1  0  0  3  0  0  0  0  0  0
  197.2360  172.6600  136.7180 C   0  0  0  0  0  2  0  0  0  0  0  0
  196.6590  172.7010  135.3190 C   0  0  1  0  0  3  0  0  0  0  0  0
  196.1460  174.0890  138.0640 C   0  0  2  0  0  3  0  0  0  0  0  0
  197.2370  171.7200  134.5140 F   0  0  0  0  0  0  0  0  0  0  0  0
  195.0500  175.6260  136.3100 C   0  0  0  0  0  2  0  0  0  0  0  0
  194.0740  175.5980  135.1450 C   0  0  0  0  0  2  0  0  0  0  0  0
  192.9130  176.4970  135.4930 C   0  0  0  0  0  2  0  0  0  0  0  0
  190.8520  175.0010  135.1800 C   0  0  0  0  0  1  0  0  0  0  0  0
  191.6770  176.1670  134.6440 C   0  0  1  0  0  3  0  0  0  0  0  0
  189.5490  176.8280  134.7610 C   0  0  0  0  0  1  0  0  0  0  0  0
  190.8580  177.3060  134.6330 O   0  0  0  0  0  0  0  0  0  0  0  0
  1 11  1  0  0  0  0
  1  2  2  0  0  0  0
  2  3  1  0  0  0  0
  2  5  1  0  0  0  0
  3 16  2  0  0  0  0
  6  8  1  0  0  0  0
  7  1  1  0  0  0  0
  8 12  1  1  0  0  0
  8  3  1  0  0  0  0
  9 35  1  6  0  0  0
  9  5  1  0  0  0  0
 10 14  1  0  0  0  0
 11  9  1  0  0  0  0
 12 10  2  0  0  0  0
 13 10  1  0  0  0  0
 14  4  2  0  0  0  0
 14 17  1  0  0  0  0
 15  6  1  0  0  0  0
 15  7  2  0  0  0  0
 16  4  1  0  0  0  0
 16 18  1  0  0  0  0
 18 19  1  6  0  0  0
 18 20  1  0  0  0  0
 20 21  1  0  0  0  0
 22  7  1  0  0  0  0
 22 23  1  1  0  0  0
 24 26  1  0  0  0  0
 26 22  1  1  0  0  0
 27 24  1  0  0  0  0
 27 28  1  0  0  0  0
 28 29  1  0  0  0  0
 29 25  1  6  0  0  0
 29 26  1  0  0  0  0
 29 30  1  0  0  0  0
 30 31  1  6  0  0  0
 30 33  1  0  0  0  0
 33 32  1  0  0  0  0
 33 34  1  0  0  0  0
 35 36  1  6  0  0  0
 35 39  1  0  0  0  0
 35 38  1  0  0  0  0
 38 37  1  0  0  0  0
 40 43  1  0  0  0  0
 41 46  1  0  0  0  0
 42 48  1  1  0  0  0
 42 45  1  0  0  0  0
 43 46  1  0  0  0  0
 45 47  1  0  0  0  0
 45 40  1  1  0  0  0
 46 39  1  1  0  0  0
 47 44  1  1  0  0  0
 47 41  1  0  0  0  0
 48 45  1  0  0  0  0
 49 52  2  0  0  0  0
 50 53  1  0  0  0  0
 52 50  1  0  0  0  0
 53 58  1  6  0  0  0
 53 56  1  0  0  0  0
 54 51  1  0  0  0  0
 55 57  1  6  0  0  0
 55 52  1  0  0  0  0
 55 54  1  0  0  0  0
 56 51  1  6  0  0  0
 56 42  1  0  0  0  0
 59 60  1  0  0  0  0
 59 58  1  0  0  0  0
 62 61  1  1  0  0  0
 62 60  1  0  0  0  0
 64 62  1  0  0  0  0
 64 63  1  0  0  0  0
M  END
>  <MODEL>
1

>  <REMARK>
 VINA RESULT:      -7.6      0.000      0.000
  Name = 
  16 active torsions:
  status: ('A' for Active; 'I' for Inactive)
    1  A    between atoms: C_8  and  C_57
    2  A    between atoms: C_8  and  C_58
    3  A    between atoms: C_12  and  C_31
    4  A    between atoms: C_12  and  O_42
    5  A    between atoms: O_16  and  C_38
    6  A    between atoms: O_16  and  C_41
    7  A    between atoms: C_17  and  C_49
    8  A    between atoms: C_19  and  C_24
    9  A    between atoms: C_19  and  C_55
   10  A    between atoms: C_20  and  C_46
   11  A    between atoms: C_26  and  C_38
   12  A    between atoms: C_29  and  C_60
   13  A    between atoms: C_30  and  C_46
   14  A    between atoms: C_31  and  C_54
   15  A    between atoms: C_34  and  C_38
   16  A    between atoms: C_54  and  C_60
                            x       y       z     vdW  Elec       q    Type
                         _______ _______ _______ _____ _____    ______ ____

>  <TORSDO>
F 16

$$$$
=
 OpenBabel11062418233D

 64 70  0  0  1  0  0  0  0  0999 V2000
  195.0250  171.4480  139.4280 C   0  0  0  0  0  0  0  0  0  0  0  0
  194.6460  171.5850  140.7250 C   0  0  0  0  0  0  0  0  0  0  0  0
  195.5120  171.8580  141.9170 C   0  0  0  0  0  0  0  0  0  0  0  0
  195.7570  173.1670  144.0760 C   0  0  0  0  0  3  0  0  0  0  0  0
  193.2520  171.5240  140.8190 O   0  0  0  0  0  0  0  0  0  0  0  0
  197.0960  169.7410  140.8890 S   0  0  0  0  0  0  0  0  0  0  0  0
  196.4030  171.4830  138.8690 C   0  0  0  0  0  0  0  0  0  0  0  0
  196.8650  171.1310  142.0810 C   0  0  2  0  0  3  0  0  0  0  0  0
  192.6440  171.4040  139.5500 C   0  0  1  0  0  3  0  0  0  0  0  0
  197.0730  171.1250  144.6110 C   0  0  0  0  0  0  0  0  0  0  0  0
  193.8060  171.3990  138.5600 C   0  0  0  0  0  2  0  0  0  0  0  0
  197.1350  170.5210  143.4320 C   0  0  0  0  0  3  0  0  0  0  0  0
  197.5900  170.4300  145.7110 O   0  0  0  0  0  1  0  0  0  0  0  0
  196.6200  172.5080  144.8700 C   0  0  0  0  0  0  0  0  0  0  0  0
  197.3800  170.8110  139.4580 C   0  0  0  0  0  3  0  0  0  0  0  0
  195.0800  172.8250  142.8020 C   0  0  0  0  0  0  0  0  0  0  0  0
  197.0380  173.2920  146.3740 Cl  0  0  0  0  0  0  0  0  0  0  0  0
  193.9330  173.8040  142.4350 C   0  0  1  0  0  3  0  0  0  0  0  0
  192.8980  173.7000  143.3840 O   0  0  0  0  0  1  0  0  0  0  0  0
  194.3430  175.3040  142.2980 C   0  0  0  0  0  2  0  0  0  0  0  0
  193.4500  176.0940  143.0310 O   0  0  0  0  0  1  0  0  0  0  0  0
  196.6920  172.2100  137.5670 C   0  0  2  0  0  3  0  0  0  0  0  0
  197.6650  171.5070  136.8900 O   0  0  0  0  0  1  0  0  0  0  0  0
  197.4770  173.8600  139.1520 O   0  0  0  0  0  0  0  0  0  0  0  0
  197.2880  175.9040  136.7710 C   0  0  0  0  0  1  0  0  0  0  0  0
  197.0780  173.6720  137.8170 C   0  0  2  0  0  3  0  0  0  0  0  0
  196.8450  175.0580  139.5340 C   0  0  0  0  0  2  0  0  0  0  0  0
  195.8370  175.4240  138.6090 O   0  0  0  0  0  0  0  0  0  0  0  0
  196.2960  174.9100  137.4020 C   0  0  1  0  0  0  0  0  0  0  0  0
  195.1690  174.7790  136.3470 C   0  0  1  0  0  3  0  0  0  0  0  0
  195.6320  174.2410  135.1260 O   0  0  0  0  0  1  0  0  0  0  0  0
  193.0100  173.8530  135.6640 F   0  0  0  0  0  0  0  0  0  0  0  0
  193.6940  174.4090  136.7470 C   0  0  0  0  0  3  0  0  0  0  0  0
  193.0110  175.5240  137.2040 F   0  0  0  0  0  0  0  0  0  0  0  0
  191.7260  170.1370  139.3860 C   0  0  1  0  0  0  0  0  0  0  0  0
  192.1710  169.2840  138.3650 F   0  0  0  0  0  0  0  0  0  0  0  0
  190.7680  168.3420  140.7590 F   0  0  0  0  0  0  0  0  0  0  0  0
  191.7820  169.2810  140.6580 C   0  0  0  0  0  2  0  0  0  0  0  0
  190.3880  170.5550  139.1440 O   0  0  0  0  0  0  0  0  0  0  0  0
  188.4910  173.4200  140.2500 C   0  0  0  0  0  2  0  0  0  0  0  0
  189.6980  171.0940  141.3050 O   0  0  0  0  0  0  0  0  0  0  0  0
  189.6150  174.9870  141.9500 C   0  0  2  0  0  3  0  0  0  0  0  0
  188.9390  172.4270  139.4710 C   0  0  0  0  0  2  0  0  0  0  0  0
  188.8230  171.8350  143.2930 O   0  0  0  0  0  1  0  0  0  0  0  0
  189.2220  173.5720  141.5550 C   0  0  1  0  0  0  0  0  0  0  0  0
  190.0630  171.5880  140.0300 C   0  0  2  0  0  3  0  0  0  0  0  0
  189.6360  172.1900  142.2030 C   0  0  2  0  0  3  0  0  0  0  0  0
  190.4760  174.1410  141.2540 O   0  0  0  0  0  0  0  0  0  0  0  0
  190.7540  177.0590  147.4300 O   0  0  0  0  0  0  0  0  0  0  0  0
  190.7280  177.0240  145.0920 N   0  0  0  0  0  2  0  0  0  0  0  0
  189.1980  174.4950  144.3330 O   0  0  0  0  0  0  0  0  0  0  0  0
  190.4380  176.4240  146.3670 C   0  0  0  0  0  0  0  0  0  0  0  0
  190.0390  176.7080  143.8140 C   0  0  1  0  0  3  0  0  0  0  0  0
  189.9390  174.2150  145.4770 C   0  0  0  0  0  2  0  0  0  0  0  0
  189.5330  175.2240  146.5300 C   0  0  1  0  0  3  0  0  0  0  0  0
  190.0470  175.1840  143.4540 C   0  0  2  0  0  3  0  0  0  0  0  0
  189.5970  174.6650  147.8050 F   0  0  0  0  0  0  0  0  0  0  0  0
  188.6230  177.2890  143.8780 C   0  0  0  0  0  2  0  0  0  0  0  0
  188.3030  178.1180  142.6430 C   0  0  0  0  0  2  0  0  0  0  0  0
  186.8640  178.5610  142.7440 C   0  0  0  0  0  2  0  0  0  0  0  0
  186.8630  177.3440  140.4860 C   0  0  0  0  0  1  0  0  0  0  0  0
  186.0800  178.2040  141.4730 C   0  0  1  0  0  3  0  0  0  0  0  0
  184.2310  178.3370  142.7150 C   0  0  0  0  0  1  0  0  0  0  0  0
  184.9450  177.4810  141.8690 O   0  0  0  0  0  0  0  0  0  0  0  0
  1  2  2  0  0  0  0
  2  5  1  0  0  0  0
  2  3  1  0  0  0  0
  3  8  1  0  0  0  0
  3 16  2  0  0  0  0
  4 14  2  0  0  0  0
  6  8  1  0  0  0  0
  7  1  1  0  0  0  0
  7 15  2  0  0  0  0
  8 12  1  1  0  0  0
  9 35  1  1  0  0  0
  9  5  1  0  0  0  0
 10 14  1  0  0  0  0
 10 13  1  0  0  0  0
 11  1  1  0  0  0  0
 11  9  1  0  0  0  0
 12 10  2  0  0  0  0
 14 17  1  0  0  0  0
 15  6  1  0  0  0  0
 16  4  1  0  0  0  0
 18 16  1  0  0  0  0
 18 19  1  1  0  0  0
 20 18  1  0  0  0  0
 20 21  1  0  0  0  0
 22 23  1  1  0  0  0
 22  7  1  0  0  0  0
 24 27  1  0  0  0  0
 26 22  1  1  0  0  0
 26 24  1  0  0  0  0
 28 27  1  0  0  0  0
 29 25  1  6  0  0  0
 29 26  1  0  0  0  0
 29 28  1  0  0  0  0
 30 31  1  6  0  0  0
 30 33  1  0  0  0  0
 30 29  1  0  0  0  0
 32 33  1  0  0  0  0
 33 34  1  0  0  0  0
 35 36  1  6  0  0  0
 35 38  1  0  0  0  0
 38 37  1  0  0  0  0
 39 35  1  0  0  0  0
 41 47  1  0  0  0  0
 42 48  1  6  0  0  0
 42 56  1  0  0  0  0
 43 46  1  0  0  0  0
 43 40  1  0  0  0  0
 45 40  1  6  0  0  0
 45 42  1  0  0  0  0
 45 47  1  0  0  0  0
 46 39  1  6  0  0  0
 46 41  1  0  0  0  0
 47 44  1  1  0  0  0
 48 45  1  0  0  0  0
 50 52  1  0  0  0  0
 51 54  1  0  0  0  0
 52 55  1  0  0  0  0
 52 49  2  0  0  0  0
 53 58  1  1  0  0  0
 53 50  1  0  0  0  0
 54 55  1  0  0  0  0
 55 57  1  1  0  0  0
 56 53  1  0  0  0  0
 56 51  1  1  0  0  0
 59 60  1  0  0  0  0
 59 58  1  0  0  0  0
 62 61  1  6  0  0  0
 62 64  1  0  0  0  0
 62 60  1  0  0  0  0
 64 63  1  0  0  0  0
M  END
>  <MODEL>
2

>  <REMARK>
 VINA RESULT:      -7.4      3.541      9.341
  Name = 
  16 active torsions:
  status: ('A' for Active; 'I' for Inactive)
    1  A    between atoms: C_8  and  C_57
    2  A    between atoms: C_8  and  C_58
    3  A    between atoms: C_12  and  C_31
    4  A    between atoms: C_12  and  O_42
    5  A    between atoms: O_16  and  C_38
    6  A    between atoms: O_16  and  C_41
    7  A    between atoms: C_17  and  C_49
    8  A    between atoms: C_19  and  C_24
    9  A    between atoms: C_19  and  C_55
   10  A    between atoms: C_20  and  C_46
   11  A    between atoms: C_26  and  C_38
   12  A    between atoms: C_29  and  C_60
   13  A    between atoms: C_30  and  C_46
   14  A    between atoms: C_31  and  C_54
   15  A    between atoms: C_34  and  C_38
   16  A    between atoms: C_54  and  C_60
                            x       y       z     vdW  Elec       q    Type
                         _______ _______ _______ _____ _____    ______ ____

>  <TORSDO>
F 16

$$$$
=
 OpenBabel11062418233D

 64 70  0  0  1  0  0  0  0  0999 V2000
  193.7100  170.7410  141.4560 C   0  0  0  0  0  0  0  0  0  0  0  0
  194.7600  171.2060  140.7300 C   0  0  0  0  0  0  0  0  0  0  0  0
  195.1660  170.8200  139.3400 C   0  0  0  0  0  0  0  0  0  0  0  0
  195.9940  171.6490  137.0900 C   0  0  0  0  0  3  0  0  0  0  0  0
  195.4160  172.2150  141.4410 O   0  0  0  0  0  0  0  0  0  0  0  0
  194.8860  168.1670  140.3060 S   0  0  0  0  0  0  0  0  0  0  0  0
  192.7250  169.6950  141.0730 C   0  0  0  0  0  0  0  0  0  0  0  0
  195.1360  169.3390  138.9020 C   0  0  2  0  0  3  0  0  0  0  0  0
  194.7710  172.5040  142.6640 C   0  0  1  0  0  3  0  0  0  0  0  0
  196.9530  169.3540  137.1290 C   0  0  0  0  0  0  0  0  0  0  0  0
  193.5690  171.5630  142.7010 C   0  0  0  0  0  2  0  0  0  0  0  0
  196.3640  168.8280  138.1950 C   0  0  0  0  0  3  0  0  0  0  0  0
  197.9400  168.5850  136.5020 O   0  0  0  0  0  1  0  0  0  0  0  0
  196.5950  170.6230  136.4610 C   0  0  0  0  0  0  0  0  0  0  0  0
  193.1350  168.5610  140.5260 C   0  0  0  0  0  3  0  0  0  0  0  0
  195.4880  171.8420  138.4710 C   0  0  0  0  0  0  0  0  0  0  0  0
  197.1410  170.9310  134.8320 Cl  0  0  0  0  0  0  0  0  0  0  0  0
  195.1510  173.3210  138.7990 C   0  0  1  0  0  3  0  0  0  0  0  0
  196.3390  174.0720  138.8820 O   0  0  0  0  0  1  0  0  0  0  0  0
  194.1740  174.0270  137.8060 C   0  0  0  0  0  2  0  0  0  0  0  0
  194.6850  175.2880  137.4780 O   0  0  0  0  0  1  0  0  0  0  0  0
  191.2500  169.8680  141.3890 C   0  0  2  0  0  3  0  0  0  0  0  0
  190.6820  168.6160  141.4890 O   0  0  0  0  0  1  0  0  0  0  0  0
  191.0840  170.5240  139.0670 O   0  0  0  0  0  0  0  0  0  0  0  0
  188.8190  172.4850  140.0190 C   0  0  0  0  0  1  0  0  0  0  0  0
  190.5560  170.7550  140.3500 C   0  0  2  0  0  3  0  0  0  0  0  0
  191.2380  171.8130  138.5220 C   0  0  0  0  0  2  0  0  0  0  0  0
  191.1360  172.8090  139.5230 O   0  0  0  0  0  0  0  0  0  0  0  0
  190.2750  172.2470  140.4600 C   0  0  1  0  0  0  0  0  0  0  0  0
  190.3700  172.9380  141.8420 C   0  0  1  0  0  3  0  0  0  0  0  0
  190.1700  174.3340  141.7640 O   0  0  0  0  0  1  0  0  0  0  0  0
  188.6780  171.5390  142.9210 F   0  0  0  0  0  0  0  0  0  0  0  0
  189.8610  172.2420  143.1570 C   0  0  0  0  0  3  0  0  0  0  0  0
  189.6560  173.1730  144.1620 F   0  0  0  0  0  0  0  0  0  0  0  0
  195.6830  172.3440  143.9350 C   0  0  1  0  0  0  0  0  0  0  0  0
  195.0510  171.6200  144.9570 F   0  0  0  0  0  0  0  0  0  0  0  0
  197.6890  172.0400  142.5540 F   0  0  0  0  0  0  0  0  0  0  0  0
  196.9280  171.5170  143.5860 C   0  0  0  0  0  2  0  0  0  0  0  0
  196.0730  173.6320  144.3980 O   0  0  0  0  0  0  0  0  0  0  0  0
  194.1360  176.4300  145.6000 C   0  0  0  0  0  2  0  0  0  0  0  0
  194.6990  175.0730  143.1870 O   0  0  0  0  0  0  0  0  0  0  0  0
  191.5890  176.3220  145.2720 C   0  0  2  0  0  3  0  0  0  0  0  0
  195.1210  175.5280  145.4960 C   0  0  0  0  0  2  0  0  0  0  0  0
  193.3540  176.6810  142.2520 O   0  0  0  0  0  1  0  0  0  0  0  0
  192.9790  176.2060  144.6670 C   0  0  1  0  0  0  0  0  0  0  0  0
  194.9490  174.4630  144.4400 C   0  0  2  0  0  3  0  0  0  0  0  0
  193.4200  175.6840  143.2400 C   0  0  2  0  0  3  0  0  0  0  0  0
  192.2580  175.1040  145.1710 O   0  0  0  0  0  0  0  0  0  0  0  0
  186.2950  176.8280  142.5640 O   0  0  0  0  0  0  0  0  0  0  0  0
  187.8920  175.9920  144.0530 N   0  0  0  0  0  2  0  0  0  0  0  0
  190.3840  177.7000  143.6160 O   0  0  0  0  0  0  0  0  0  0  0  0
  187.5000  176.8720  142.9830 C   0  0  0  0  0  0  0  0  0  0  0  0
  189.0360  176.2130  144.9750 C   0  0  1  0  0  3  0  0  0  0  0  0
  189.7650  177.5300  142.3820 C   0  0  0  0  0  2  0  0  0  0  0  0
  188.3450  178.0370  142.5200 C   0  0  1  0  0  3  0  0  0  0  0  0
  190.4000  176.4450  144.2420 C   0  0  2  0  0  3  0  0  0  0  0  0
  187.8960  178.5900  141.3210 F   0  0  0  0  0  0  0  0  0  0  0  0
  188.6740  177.3630  145.9210 C   0  0  0  0  0  2  0  0  0  0  0  0
  187.2400  177.2490  146.4140 C   0  0  0  0  0  2  0  0  0  0  0  0
  186.4500  178.3790  145.8000 C   0  0  0  0  0  2  0  0  0  0  0  0
  184.1650  177.9000  146.8640 C   0  0  0  0  0  1  0  0  0  0  0  0
  184.9840  177.9790  145.5800 C   0  0  1  0  0  3  0  0  0  0  0  0
  185.4420  179.8250  144.4120 C   0  0  0  0  0  1  0  0  0  0  0  0
  184.4020  178.9550  144.7570 O   0  0  0  0  0  0  0  0  0  0  0  0
  1 11  1  0  0  0  0
  2  5  1  0  0  0  0
  2  1  2  0  0  0  0
  3  2  1  0  0  0  0
  4 16  1  0  0  0  0
  5  9  1  0  0  0  0
  6 15  1  0  0  0  0
  7 22  1  0  0  0  0
  7  1  1  0  0  0  0
  8 12  1  1  0  0  0
  8  3  1  0  0  0  0
  8  6  1  0  0  0  0
  9 11  1  0  0  0  0
  9 35  1  1  0  0  0
 10 12  2  0  0  0  0
 13 10  1  0  0  0  0
 14  4  2  0  0  0  0
 14 10  1  0  0  0  0
 15  7  2  0  0  0  0
 16 18  1  0  0  0  0
 16  3  2  0  0  0  0
 17 14  1  0  0  0  0
 18 19  1  6  0  0  0
 20 18  1  0  0  0  0
 21 20  1  0  0  0  0
 22 23  1  6  0  0  0
 24 26  1  0  0  0  0
 26 29  1  0  0  0  0
 26 22  1  1  0  0  0
 27 24  1  0  0  0  0
 27 28  1  0  0  0  0
 28 29  1  0  0  0  0
 29 25  1  6  0  0  0
 29 30  1  0  0  0  0
 30 31  1  6  0  0  0
 30 33  1  0  0  0  0
 32 33  1  0  0  0  0
 33 34  1  0  0  0  0
 35 39  1  0  0  0  0
 35 36  1  1  0  0  0
 37 38  1  0  0  0  0
 38 35  1  0  0  0  0
 41 47  1  0  0  0  0
 41 46  1  0  0  0  0
 42 48  1  6  0  0  0
 43 40  1  0  0  0  0
 45 48  1  0  0  0  0
 45 42  1  0  0  0  0
 45 40  1  1  0  0  0
 46 39  1  6  0  0  0
 46 43  1  0  0  0  0
 47 44  1  6  0  0  0
 47 45  1  0  0  0  0
 49 52  2  0  0  0  0
 50 53  1  0  0  0  0
 52 50  1  0  0  0  0
 53 58  1  6  0  0  0
 54 55  1  0  0  0  0
 54 51  1  0  0  0  0
 55 57  1  6  0  0  0
 55 52  1  0  0  0  0
 56 51  1  1  0  0  0
 56 53  1  0  0  0  0
 56 42  1  0  0  0  0
 58 59  1  0  0  0  0
 60 59  1  0  0  0  0
 62 60  1  0  0  0  0
 62 61  1  1  0  0  0
 63 64  1  0  0  0  0
 64 62  1  0  0  0  0
M  END
>  <MODEL>
3

>  <REMARK>
 VINA RESULT:      -7.4      4.046      9.308
  Name = 
  16 active torsions:
  status: ('A' for Active; 'I' for Inactive)
    1  A    between atoms: C_8  and  C_57
    2  A    between atoms: C_8  and  C_58
    3  A    between atoms: C_12  and  C_31
    4  A    between atoms: C_12  and  O_42
    5  A    between atoms: O_16  and  C_38
    6  A    between atoms: O_16  and  C_41
    7  A    between atoms: C_17  and  C_49
    8  A    between atoms: C_19  and  C_24
    9  A    between atoms: C_19  and  C_55
   10  A    between atoms: C_20  and  C_46
   11  A    between atoms: C_26  and  C_38
   12  A    between atoms: C_29  and  C_60
   13  A    between atoms: C_30  and  C_46
   14  A    between atoms: C_31  and  C_54
   15  A    between atoms: C_34  and  C_38
   16  A    between atoms: C_54  and  C_60
                            x       y       z     vdW  Elec       q    Type
                         _______ _______ _______ _____ _____    ______ ____

>  <TORSDO>
F 16

$$$$
=
 OpenBabel11062418233D

 64 70  0  0  1  0  0  0  0  0999 V2000
  193.5700  171.3740  141.5220 C   0  0  0  0  0  0  0  0  0  0  0  0
  193.5980  172.7290  141.5960 C   0  0  0  0  0  0  0  0  0  0  0  0
  193.9090  173.5840  142.7870 C   0  0  0  0  0  0  0  0  0  0  0  0
  195.1290  175.6420  143.6300 C   0  0  0  0  0  3  0  0  0  0  0  0
  193.3720  173.2760  140.3290 O   0  0  0  0  0  0  0  0  0  0  0  0
  192.0430  171.9100  144.1130 S   0  0  0  0  0  0  0  0  0  0  0  0
  193.7910  170.3930  142.6180 C   0  0  0  0  0  0  0  0  0  0  0  0
  193.3360  173.2250  144.1750 C   0  0  2  0  0  3  0  0  0  0  0  0
  193.2460  172.2770  139.3380 C   0  0  1  0  0  3  0  0  0  0  0  0
  193.2280  175.5310  145.2310 C   0  0  0  0  0  0  0  0  0  0  0  0
  193.4240  170.9600  140.0900 C   0  0  0  0  0  2  0  0  0  0  0  0
  192.6950  174.3520  144.9430 C   0  0  0  0  0  3  0  0  0  0  0  0
  192.5430  176.3330  146.1520 O   0  0  0  0  0  1  0  0  0  0  0  0
  194.5350  176.0440  144.7680 C   0  0  0  0  0  0  0  0  0  0  0  0
  193.2080  170.5640  143.7940 C   0  0  0  0  0  3  0  0  0  0  0  0
  194.7750  174.6420  142.5940 C   0  0  0  0  0  0  0  0  0  0  0  0
  195.2860  177.3850  145.5980 Cl  0  0  0  0  0  0  0  0  0  0  0  0
  195.6320  174.7630  141.3060 C   0  0  1  0  0  3  0  0  0  0  0  0
  196.2450  176.0300  141.2610 O   0  0  0  0  0  1  0  0  0  0  0  0
  196.7260  173.6650  141.1180 C   0  0  0  0  0  2  0  0  0  0  0  0
  197.2650  173.7690  139.8300 O   0  0  0  0  0  1  0  0  0  0  0  0
  194.6110  169.1370  142.3790 C   0  0  2  0  0  3  0  0  0  0  0  0
  194.2610  168.2080  143.3360 O   0  0  0  0  0  1  0  0  0  0  0  0
  196.7930  168.5600  141.5090 O   0  0  0  0  0  0  0  0  0  0  0  0
  197.8720  170.9180  143.2860 C   0  0  0  0  0  1  0  0  0  0  0  0
  196.1120  169.4420  142.3670 C   0  0  2  0  0  3  0  0  0  0  0  0
  197.9410  168.1910  142.2350 C   0  0  0  0  0  2  0  0  0  0  0  0
  197.8210  168.5480  143.6000 O   0  0  0  0  0  0  0  0  0  0  0  0
  197.0090  169.6770  143.5750 C   0  0  1  0  0  0  0  0  0  0  0  0
  196.3660  169.9750  144.9520 C   0  0  1  0  0  3  0  0  0  0  0  0
  196.0910  168.8010  145.6860 O   0  0  0  0  0  1  0  0  0  0  0  0
  196.9290  170.9040  147.1440 F   0  0  0  0  0  0  0  0  0  0  0  0
  196.7630  171.2390  145.7990 C   0  0  0  0  0  3  0  0  0  0  0  0
  195.8050  172.2330  145.6840 F   0  0  0  0  0  0  0  0  0  0  0  0
  191.8920  172.3200  138.5400 C   0  0  1  0  0  0  0  0  0  0  0  0
  191.4690  173.6310  138.2770 F   0  0  0  0  0  0  0  0  0  0  0  0
  190.9710  171.0010  136.6860 F   0  0  0  0  0  0  0  0  0  0  0  0
  192.0790  171.6880  137.1540 C   0  0  0  0  0  2  0  0  0  0  0  0
  190.8960  171.6070  139.2650 O   0  0  0  0  0  0  0  0  0  0  0  0
  188.2090  173.7520  140.3630 C   0  0  0  0  0  2  0  0  0  0  0  0
  190.0440  171.8800  141.4170 O   0  0  0  0  0  0  0  0  0  0  0  0
  188.7830  175.5570  142.0990 C   0  0  2  0  0  3  0  0  0  0  0  0
  188.9470  172.9510  139.5820 C   0  0  0  0  0  2  0  0  0  0  0  0
  188.9560  172.2930  143.3950 O   0  0  0  0  0  1  0  0  0  0  0  0
  188.8400  174.0960  141.6830 C   0  0  1  0  0  0  0  0  0  0  0  0
  190.2620  172.4810  140.1540 C   0  0  2  0  0  3  0  0  0  0  0  0
  189.6410  172.8930  142.3250 C   0  0  2  0  0  3  0  0  0  0  0  0
  189.8700  175.0210  141.4120 O   0  0  0  0  0  0  0  0  0  0  0  0
  189.3960  177.9240  147.5440 O   0  0  0  0  0  0  0  0  0  0  0  0
  189.4930  177.8110  145.2110 N   0  0  0  0  0  2  0  0  0  0  0  0
  188.3060  175.0970  144.4770 O   0  0  0  0  0  0  0  0  0  0  0  0
  189.2100  177.2220  146.4930 C   0  0  0  0  0  0  0  0  0  0  0  0
  188.9110  177.3760  143.9140 C   0  0  1  0  0  3  0  0  0  0  0  0
  189.0140  174.9430  145.6650 C   0  0  0  0  0  2  0  0  0  0  0  0
  188.4420  175.9310  146.6590 C   0  0  1  0  0  3  0  0  0  0  0  0
  189.1130  175.8520  143.6140 C   0  0  2  0  0  3  0  0  0  0  0  0
  188.5060  175.4240  147.9560 F   0  0  0  0  0  0  0  0  0  0  0  0
  187.4360  177.7890  143.8900 C   0  0  0  0  0  2  0  0  0  0  0  0
  187.1200  178.6630  142.6860 C   0  0  0  0  0  2  0  0  0  0  0  0
  185.6390  178.5610  142.4170 C   0  0  0  0  0  2  0  0  0  0  0  0
  184.0740  178.2800  140.4040 C   0  0  0  0  0  1  0  0  0  0  0  0
  185.3610  177.8360  141.0930 C   0  0  1  0  0  3  0  0  0  0  0  0
  186.4290  177.0820  139.2850 C   0  0  0  0  0  1  0  0  0  0  0  0
  186.4300  178.1150  140.2290 O   0  0  0  0  0  0  0  0  0  0  0  0
  1  2  2  0  0  0  0
  1  7  1  0  0  0  0
  2  3  1  0  0  0  0
  3  8  1  0  0  0  0
  4 14  2  0  0  0  0
  5  2  1  0  0  0  0
  6  8  1  0  0  0  0
  7 15  2  0  0  0  0
  8 12  1  6  0  0  0
  9 35  1  1  0  0  0
  9 11  1  0  0  0  0
  9  5  1  0  0  0  0
 10 13  1  0  0  0  0
 11  1  1  0  0  0  0
 12 10  2  0  0  0  0
 14 10  1  0  0  0  0
 14 17  1  0  0  0  0
 15  6  1  0  0  0  0
 16  3  2  0  0  0  0
 16  4  1  0  0  0  0
 18 19  1  1  0  0  0
 18 16  1  0  0  0  0
 20 18  1  0  0  0  0
 21 20  1  0  0  0  0
 22  7  1  0  0  0  0
 22 23  1  1  0  0  0
 24 27  1  0  0  0  0
 24 26  1  0  0  0  0
 26 22  1  1  0  0  0
 26 29  1  0  0  0  0
 27 28  1  0  0  0  0
 29 25  1  6  0  0  0
 29 28  1  0  0  0  0
 29 30  1  0  0  0  0
 30 31  1  1  0  0  0
 30 33  1  0  0  0  0
 33 32  1  0  0  0  0
 34 33  1  0  0  0  0
 35 36  1  6  0  0  0
 35 39  1  0  0  0  0
 37 38  1  0  0  0  0
 38 35  1  0  0  0  0
 41 47  1  0  0  0  0
 42 48  1  6  0  0  0
 42 56  1  0  0  0  0
 43 46  1  0  0  0  0
 43 40  1  0  0  0  0
 45 40  1  6  0  0  0
 45 42  1  0  0  0  0
 45 47  1  0  0  0  0
 46 39  1  6  0  0  0
 46 41  1  0  0  0  0
 47 44  1  1  0  0  0
 48 45  1  0  0  0  0
 50 52  1  0  0  0  0
 51 54  1  0  0  0  0
 52 55  1  0  0  0  0
 52 49  2  0  0  0  0
 53 58  1  1  0  0  0
 53 50  1  0  0  0  0
 54 55  1  0  0  0  0
 55 57  1  1  0  0  0
 56 53  1  0  0  0  0
 56 51  1  1  0  0  0
 59 58  1  0  0  0  0
 60 59  1  0  0  0  0
 62 61  1  6  0  0  0
 62 60  1  0  0  0  0
 63 64  1  0  0  0  0
 64 62  1  0  0  0  0
M  END
>  <MODEL>
4

>  <REMARK>
 VINA RESULT:      -7.1      3.728      8.559
  Name = 
  16 active torsions:
  status: ('A' for Active; 'I' for Inactive)
    1  A    between atoms: C_8  and  C_57
    2  A    between atoms: C_8  and  C_58
    3  A    between atoms: C_12  and  C_31
    4  A    between atoms: C_12  and  O_42
    5  A    between atoms: O_16  and  C_38
    6  A    between atoms: O_16  and  C_41
    7  A    between atoms: C_17  and  C_49
    8  A    between atoms: C_19  and  C_24
    9  A    between atoms: C_19  and  C_55
   10  A    between atoms: C_20  and  C_46
   11  A    between atoms: C_26  and  C_38
   12  A    between atoms: C_29  and  C_60
   13  A    between atoms: C_30  and  C_46
   14  A    between atoms: C_31  and  C_54
   15  A    between atoms: C_34  and  C_38
   16  A    between atoms: C_54  and  C_60
                            x       y       z     vdW  Elec       q    Type
                         _______ _______ _______ _____ _____    ______ ____

>  <TORSDO>
F 16

$$$$
=
 OpenBabel11062418233D

 64 70  0  0  1  0  0  0  0  0999 V2000
  193.6880  171.4730  139.9440 C   0  0  0  0  0  0  0  0  0  0  0  0
  193.8010  172.8210  140.0680 C   0  0  0  0  0  0  0  0  0  0  0  0
  194.6380  173.5930  141.0430 C   0  0  0  0  0  0  0  0  0  0  0  0
  196.1870  175.5750  141.3680 C   0  0  0  0  0  3  0  0  0  0  0  0
  193.0640  173.4520  139.0610 O   0  0  0  0  0  0  0  0  0  0  0  0
  193.4770  171.8610  142.9670 S   0  0  0  0  0  0  0  0  0  0  0  0
  194.3280  170.4210  140.7770 C   0  0  0  0  0  0  0  0  0  0  0  0
  194.7190  173.1520  142.5210 C   0  0  2  0  0  3  0  0  0  0  0  0
  192.4750  172.5200  138.1770 C   0  0  1  0  0  3  0  0  0  0  0  0
  195.1790  175.3860  143.6350 C   0  0  0  0  0  0  0  0  0  0  0  0
  192.9110  171.1550  138.7030 C   0  0  0  0  0  2  0  0  0  0  0  0
  194.5270  174.2350  143.5510 C   0  0  0  0  0  3  0  0  0  0  0  0
  195.0020  176.1360  144.8040 O   0  0  0  0  0  1  0  0  0  0  0  0
  196.1700  175.9100  142.6710 C   0  0  0  0  0  0  0  0  0  0  0  0
  194.3280  170.5230  142.0970 C   0  0  0  0  0  3  0  0  0  0  0  0
  195.3730  174.6480  140.5440 C   0  0  0  0  0  0  0  0  0  0  0  0
  197.2630  177.1840  143.1530 Cl  0  0  0  0  0  0  0  0  0  0  0  0
  195.5820  174.8410  139.0180 C   0  0  1  0  0  3  0  0  0  0  0  0
  194.5880  175.6970  138.5080 O   0  0  0  0  0  1  0  0  0  0  0  0
  196.9830  175.3820  138.5910 C   0  0  0  0  0  2  0  0  0  0  0  0
  197.9410  174.3800  138.7790 O   0  0  0  0  0  1  0  0  0  0  0  0
  194.9070  169.1720  140.1360 C   0  0  2  0  0  3  0  0  0  0  0  0
  194.9280  168.1720  141.0860 O   0  0  0  0  0  1  0  0  0  0  0  0
  196.9070  170.5310  140.1680 O   0  0  0  0  0  0  0  0  0  0  0  0
  197.9120  168.7040  137.8150 C   0  0  0  0  0  1  0  0  0  0  0  0
  196.2870  169.4430  139.5290 C   0  0  2  0  0  3  0  0  0  0  0  0
  197.4550  171.2840  139.1120 C   0  0  0  0  0  2  0  0  0  0  0  0
  196.9220  170.8800  137.8640 O   0  0  0  0  0  0  0  0  0  0  0  0
  196.6350  169.5320  138.0490 C   0  0  1  0  0  0  0  0  0  0  0  0
  195.6350  168.9900  136.9990 C   0  0  1  0  0  3  0  0  0  0  0  0
  194.5700  168.2730  137.5870 O   0  0  0  0  0  1  0  0  0  0  0  0
  196.4450  170.0900  134.9700 F   0  0  0  0  0  0  0  0  0  0  0  0
  195.2870  169.7900  135.6900 C   0  0  0  0  0  3  0  0  0  0  0  0
  194.6100  170.9600  135.9900 F   0  0  0  0  0  0  0  0  0  0  0  0
  190.9110  172.6340  138.0610 C   0  0  1  0  0  0  0  0  0  0  0  0
  190.4540  173.9440  138.2660 F   0  0  0  0  0  0  0  0  0  0  0  0
  191.3780  172.6270  135.6520 F   0  0  0  0  0  0  0  0  0  0  0  0
  190.4640  172.2850  136.6350 C   0  0  0  0  0  2  0  0  0  0  0  0
  190.3050  171.7400  138.9880 O   0  0  0  0  0  0  0  0  0  0  0  0
  187.8120  173.2140  141.1430 C   0  0  0  0  0  2  0  0  0  0  0  0
  190.2880  171.8630  141.3160 O   0  0  0  0  0  0  0  0  0  0  0  0
  188.5650  175.1530  142.6540 C   0  0  2  0  0  3  0  0  0  0  0  0
  188.3650  172.5910  140.0940 C   0  0  0  0  0  2  0  0  0  0  0  0
  189.9610  172.0610  143.5790 O   0  0  0  0  0  1  0  0  0  0  0  0
  188.7960  173.7360  142.1530 C   0  0  1  0  0  0  0  0  0  0  0  0
  189.8690  172.4630  140.1040 C   0  0  2  0  0  3  0  0  0  0  0  0
  190.0340  172.7760  142.3720 C   0  0  2  0  0  3  0  0  0  0  0  0
  189.4050  174.8710  141.5790 O   0  0  0  0  0  0  0  0  0  0  0  0
  190.5150  177.6330  147.7200 O   0  0  0  0  0  0  0  0  0  0  0  0
  189.6880  177.5410  145.5350 N   0  0  0  0  0  2  0  0  0  0  0  0
  189.2750  174.5750  144.9460 O   0  0  0  0  0  0  0  0  0  0  0  0
  190.1620  176.9010  146.7340 C   0  0  0  0  0  0  0  0  0  0  0  0
  188.8090  176.9130  144.5130 C   0  0  1  0  0  3  0  0  0  0  0  0
  190.4120  174.6950  145.7390 C   0  0  0  0  0  2  0  0  0  0  0  0
  190.0010  175.4220  147.0020 C   0  0  1  0  0  3  0  0  0  0  0  0
  189.3630  175.5600  143.9520 C   0  0  2  0  0  3  0  0  0  0  0  0
  190.7490  174.9840  148.0930 F   0  0  0  0  0  0  0  0  0  0  0  0
  187.4060  176.7710  145.1110 C   0  0  0  0  0  2  0  0  0  0  0  0
  187.0010  178.0160  145.8860 C   0  0  0  0  0  2  0  0  0  0  0  0
  186.1370  178.8610  144.9820 C   0  0  0  0  0  2  0  0  0  0  0  0
  183.8000  178.6490  146.0180 C   0  0  0  0  0  1  0  0  0  0  0  0
  184.7210  178.2800  144.8600 C   0  0  1  0  0  3  0  0  0  0  0  0
  184.6970  178.0220  142.6430 C   0  0  0  0  0  1  0  0  0  0  0  0
  184.1580  178.7910  143.6810 O   0  0  0  0  0  0  0  0  0  0  0  0
  1  2  2  0  0  0  0
  1  7  1  0  0  0  0
  2  3  1  0  0  0  0
  3  8  1  0  0  0  0
  4 14  2  0  0  0  0
  5  2  1  0  0  0  0
  7 15  2  0  0  0  0
  8  6  1  0  0  0  0
  8 12  1  1  0  0  0
  9 35  1  1  0  0  0
  9 11  1  0  0  0  0
  9  5  1  0  0  0  0
 10 13  1  0  0  0  0
 11  1  1  0  0  0  0
 12 10  2  0  0  0  0
 14 17  1  0  0  0  0
 14 10  1  0  0  0  0
 15  6  1  0  0  0  0
 16  3  2  0  0  0  0
 16  4  1  0  0  0  0
 18 19  1  1  0  0  0
 18 16  1  0  0  0  0
 20 21  1  0  0  0  0
 20 18  1  0  0  0  0
 22  7  1  0  0  0  0
 22 23  1  1  0  0  0
 26 22  1  6  0  0  0
 26 24  1  0  0  0  0
 27 24  1  0  0  0  0
 28 29  1  0  0  0  0
 28 27  1  0  0  0  0
 29 25  1  6  0  0  0
 29 26  1  0  0  0  0
 30 31  1  1  0  0  0
 30 29  1  0  0  0  0
 32 33  1  0  0  0  0
 33 34  1  0  0  0  0
 33 30  1  0  0  0  0
 35 36  1  1  0  0  0
 35 39  1  0  0  0  0
 37 38  1  0  0  0  0
 38 35  1  0  0  0  0
 41 47  1  0  0  0  0
 42 48  1  6  0  0  0
 42 56  1  0  0  0  0
 43 46  1  0  0  0  0
 43 40  1  0  0  0  0
 45 40  1  6  0  0  0
 45 47  1  0  0  0  0
 45 42  1  0  0  0  0
 46 39  1  6  0  0  0
 46 41  1  0  0  0  0
 47 44  1  1  0  0  0
 48 45  1  0  0  0  0
 50 52  1  0  0  0  0
 51 54  1  0  0  0  0
 52 55  1  0  0  0  0
 52 49  2  0  0  0  0
 53 58  1  1  0  0  0
 53 50  1  0  0  0  0
 54 55  1  0  0  0  0
 55 57  1  1  0  0  0
 56 53  1  0  0  0  0
 56 51  1  1  0  0  0
 58 59  1  0  0  0  0
 60 59  1  0  0  0  0
 62 60  1  0  0  0  0
 62 61  1  1  0  0  0
 63 64  1  0  0  0  0
 64 62  1  0  0  0  0
M  END
>  <MODEL>
5

>  <REMARK>
 VINA RESULT:      -7.0      3.544      9.386
  Name = 
  16 active torsions:
  status: ('A' for Active; 'I' for Inactive)
    1  A    between atoms: C_8  and  C_57
    2  A    between atoms: C_8  and  C_58
    3  A    between atoms: C_12  and  C_31
    4  A    between atoms: C_12  and  O_42
    5  A    between atoms: O_16  and  C_38
    6  A    between atoms: O_16  and  C_41
    7  A    between atoms: C_17  and  C_49
    8  A    between atoms: C_19  and  C_24
    9  A    between atoms: C_19  and  C_55
   10  A    between atoms: C_20  and  C_46
   11  A    between atoms: C_26  and  C_38
   12  A    between atoms: C_29  and  C_60
   13  A    between atoms: C_30  and  C_46
   14  A    between atoms: C_31  and  C_54
   15  A    between atoms: C_34  and  C_38
   16  A    between atoms: C_54  and  C_60
                            x       y       z     vdW  Elec       q    Type
                         _______ _______ _______ _____ _____    ______ ____

>  <TORSDO>
F 16

$$$$
=
 OpenBabel11062418233D

 64 70  0  0  1  0  0  0  0  0999 V2000
  190.0500  174.7150  142.9730 C   0  0  0  0  0  0  0  0  0  0  0  0
  189.9560  175.7420  143.8560 C   0  0  0  0  0  0  0  0  0  0  0  0
  188.7260  176.2740  144.5280 C   0  0  0  0  0  0  0  0  0  0  0  0
  187.7240  177.1270  146.6960 C   0  0  0  0  0  3  0  0  0  0  0  0
  191.2330  176.2260  144.1560 O   0  0  0  0  0  0  0  0  0  0  0  0
  187.6420  176.2640  141.9070 S   0  0  0  0  0  0  0  0  0  0  0  0
  188.9490  173.8900  142.4080 C   0  0  0  0  0  0  0  0  0  0  0  0
  187.4170  176.4510  143.7290 C   0  0  2  0  0  3  0  0  0  0  0  0
  192.2440  175.4780  143.5130 C   0  0  1  0  0  3  0  0  0  0  0  0
  186.3500  178.3560  145.0250 C   0  0  0  0  0  0  0  0  0  0  0  0
  191.4950  174.4010  142.7330 C   0  0  0  0  0  2  0  0  0  0  0  0
  186.7110  177.7730  143.8900 C   0  0  0  0  0  3  0  0  0  0  0  0
  185.5020  179.4650  144.9290 O   0  0  0  0  0  1  0  0  0  0  0  0
  186.6540  177.8860  146.3930 C   0  0  0  0  0  0  0  0  0  0  0  0
  187.8450  174.4670  141.9610 C   0  0  0  0  0  3  0  0  0  0  0  0
  188.8060  176.5210  145.8840 C   0  0  0  0  0  0  0  0  0  0  0  0
  185.7270  178.4870  147.7450 Cl  0  0  0  0  0  0  0  0  0  0  0  0
  189.9860  175.9860  146.7360 C   0  0  1  0  0  3  0  0  0  0  0  0
  190.4520  177.0020  147.5930 O   0  0  0  0  0  1  0  0  0  0  0  0
  189.6840  174.7100  147.5850 C   0  0  0  0  0  2  0  0  0  0  0  0
  188.9570  173.8020  146.8080 O   0  0  0  0  0  1  0  0  0  0  0  0
  189.1110  172.3880  142.2490 C   0  0  2  0  0  3  0  0  0  0  0  0
  189.5470  171.8740  143.4520 O   0  0  0  0  0  1  0  0  0  0  0  0
  189.4040  172.2730  139.8510 O   0  0  0  0  0  0  0  0  0  0  0  0
  192.3020  171.2310  140.4850 C   0  0  0  0  0  1  0  0  0  0  0  0
  190.0440  172.0470  141.0830 C   0  0  2  0  0  3  0  0  0  0  0  0
  189.7410  171.1460  139.0770 C   0  0  0  0  0  2  0  0  0  0  0  0
  190.2760  170.1120  139.8820 O   0  0  0  0  0  0  0  0  0  0  0  0
  190.8930  170.7930  140.9260 C   0  0  1  0  0  0  0  0  0  0  0  0
  191.1450  169.8880  142.1570 C   0  0  1  0  0  3  0  0  0  0  0  0
  190.6260  168.5860  141.9870 O   0  0  0  0  0  1  0  0  0  0  0  0
  192.8970  168.7340  143.4180 F   0  0  0  0  0  0  0  0  0  0  0  0
  192.4590  169.9980  143.0150 C   0  0  0  0  0  3  0  0  0  0  0  0
  192.2570  170.7960  144.1290 F   0  0  0  0  0  0  0  0  0  0  0  0
  193.1900  176.3260  142.5860 C   0  0  1  0  0  0  0  0  0  0  0  0
  193.0840  175.9580  141.2360 F   0  0  0  0  0  0  0  0  0  0  0  0
  191.4440  178.0260  142.2940 F   0  0  0  0  0  0  0  0  0  0  0  0
  192.7720  177.8020  142.6190 C   0  0  0  0  0  2  0  0  0  0  0  0
  194.5330  176.1940  143.0380 O   0  0  0  0  0  0  0  0  0  0  0  0
  197.3750  175.4170  140.9530 C   0  0  0  0  0  2  0  0  0  0  0  0
  195.4970  174.1150  142.6140 O   0  0  0  0  0  0  0  0  0  0  0  0
  196.9750  173.8370  138.9650 C   0  0  2  0  0  3  0  0  0  0  0  0
  196.5620  176.0870  141.7800 C   0  0  0  0  0  2  0  0  0  0  0  0
  196.6940  172.2310  142.0800 O   0  0  0  0  0  1  0  0  0  0  0  0
  196.8240  174.1110  140.4530 C   0  0  1  0  0  0  0  0  0  0  0  0
  195.2510  175.4190  142.1220 C   0  0  2  0  0  3  0  0  0  0  0  0
  195.9920  173.3240  141.5460 C   0  0  2  0  0  3  0  0  0  0  0  0
  195.8320  174.4250  139.5020 O   0  0  0  0  0  0  0  0  0  0  0  0
  196.1250  168.7620  135.9430 O   0  0  0  0  0  0  0  0  0  0  0  0
  195.8150  171.0000  136.5420 N   0  0  0  0  0  2  0  0  0  0  0  0
  197.8570  171.5420  138.7450 O   0  0  0  0  0  0  0  0  0  0  0  0
  196.4440  169.7190  136.7260 C   0  0  0  0  0  0  0  0  0  0  0  0
  196.3700  172.3050  136.9900 C   0  0  1  0  0  3  0  0  0  0  0  0
  197.4000  170.2380  138.9030 C   0  0  0  0  0  2  0  0  0  0  0  0
  197.6600  169.5120  137.6000 C   0  0  1  0  0  3  0  0  0  0  0  0
  196.7310  172.3460  138.5130 C   0  0  2  0  0  3  0  0  0  0  0  0
  197.9410  168.1660  137.8280 F   0  0  0  0  0  0  0  0  0  0  0  0
  197.5630  172.6500  136.0930 C   0  0  0  0  0  2  0  0  0  0  0  0
  197.3510  173.9690  135.3660 C   0  0  0  0  0  2  0  0  0  0  0  0
  195.8930  174.3380  135.4940 C   0  0  0  0  0  2  0  0  0  0  0  0
  196.8710  176.7000  135.7060 C   0  0  0  0  0  1  0  0  0  0  0  0
  195.7240  175.7570  136.0560 C   0  0  1  0  0  3  0  0  0  0  0  0
  193.5080  175.8080  136.3150 C   0  0  0  0  0  1  0  0  0  0  0  0
  194.5470  176.2880  135.5090 O   0  0  0  0  0  0  0  0  0  0  0  0
  1  2  2  0  0  0  0
  2  5  1  0  0  0  0
  2  3  1  0  0  0  0
  3 16  2  0  0  0  0
  6 15  1  0  0  0  0
  6  8  1  0  0  0  0
  7  1  1  0  0  0  0
  8 12  1  6  0  0  0
  8  3  1  0  0  0  0
  9 35  1  6  0  0  0
  9  5  1  0  0  0  0
 10 14  1  0  0  0  0
 11  1  1  0  0  0  0
 11  9  1  0  0  0  0
 12 10  2  0  0  0  0
 13 10  1  0  0  0  0
 14  4  2  0  0  0  0
 14 17  1  0  0  0  0
 15  7  2  0  0  0  0
 16  4  1  0  0  0  0
 16 18  1  0  0  0  0
 18 20  1  0  0  0  0
 18 19  1  1  0  0  0
 21 20  1  0  0  0  0
 22  7  1  0  0  0  0
 22 23  1  1  0  0  0
 24 26  1  0  0  0  0
 26 22  1  1  0  0  0
 27 24  1  0  0  0  0
 27 28  1  0  0  0  0
 28 29  1  0  0  0  0
 29 25  1  6  0  0  0
 29 26  1  0  0  0  0
 29 30  1  0  0  0  0
 30 31  1  6  0  0  0
 30 33  1  0  0  0  0
 33 32  1  0  0  0  0
 33 34  1  0  0  0  0
 35 36  1  6  0  0  0
 35 38  1  0  0  0  0
 35 39  1  0  0  0  0
 37 38  1  0  0  0  0
 40 43  1  0  0  0  0
 42 48  1  6  0  0  0
 42 45  1  0  0  0  0
 43 46  1  0  0  0  0
 45 40  1  1  0  0  0
 45 47  1  0  0  0  0
 46 41  1  0  0  0  0
 46 39  1  1  0  0  0
 47 44  1  1  0  0  0
 47 41  1  0  0  0  0
 48 45  1  0  0  0  0
 49 52  2  0  0  0  0
 50 52  1  0  0  0  0
 50 53  1  0  0  0  0
 51 54  1  0  0  0  0
 52 55  1  0  0  0  0
 53 58  1  6  0  0  0
 53 56  1  0  0  0  0
 55 57  1  1  0  0  0
 55 54  1  0  0  0  0
 56 51  1  6  0  0  0
 56 42  1  0  0  0  0
 59 60  1  0  0  0  0
 59 58  1  0  0  0  0
 60 62  1  0  0  0  0
 62 61  1  6  0  0  0
 64 62  1  0  0  0  0
 64 63  1  0  0  0  0
M  END
>  <MODEL>
6

>  <REMARK>
 VINA RESULT:      -7.0      1.638      2.196
  Name = 
  16 active torsions:
  status: ('A' for Active; 'I' for Inactive)
    1  A    between atoms: C_8  and  C_57
    2  A    between atoms: C_8  and  C_58
    3  A    between atoms: C_12  and  C_31
    4  A    between atoms: C_12  and  O_42
    5  A    between atoms: O_16  and  C_38
    6  A    between atoms: O_16  and  C_41
    7  A    between atoms: C_17  and  C_49
    8  A    between atoms: C_19  and  C_24
    9  A    between atoms: C_19  and  C_55
   10  A    between atoms: C_20  and  C_46
   11  A    between atoms: C_26  and  C_38
   12  A    between atoms: C_29  and  C_60
   13  A    between atoms: C_30  and  C_46
   14  A    between atoms: C_31  and  C_54
   15  A    between atoms: C_34  and  C_38
   16  A    between atoms: C_54  and  C_60
                            x       y       z     vdW  Elec       q    Type
                         _______ _______ _______ _____ _____    ______ ____

>  <TORSDO>
F 16

$$$$
=
 OpenBabel11062418233D

 64 70  0  0  1  0  0  0  0  0999 V2000
  193.6900  171.1830  142.0430 C   0  0  0  0  0  0  0  0  0  0  0  0
  193.6990  172.5400  142.0060 C   0  0  0  0  0  0  0  0  0  0  0  0
  193.7690  173.4960  143.1580 C   0  0  0  0  0  0  0  0  0  0  0  0
  194.7940  175.6410  144.0450 C   0  0  0  0  0  3  0  0  0  0  0  0
  193.7220  172.9760  140.6780 O   0  0  0  0  0  0  0  0  0  0  0  0
  191.6860  171.9000  144.2350 S   0  0  0  0  0  0  0  0  0  0  0  0
  193.6980  170.3000  143.2400 C   0  0  0  0  0  0  0  0  0  0  0  0
  192.9380  173.2410  144.4340 C   0  0  2  0  0  3  0  0  0  0  0  0
  193.7940  171.8970  139.7700 C   0  0  1  0  0  3  0  0  0  0  0  0
  192.6180  175.6230  145.2510 C   0  0  0  0  0  0  0  0  0  0  0  0
  193.8280  170.6500  140.6500 C   0  0  0  0  0  2  0  0  0  0  0  0
  192.1550  174.4140  144.9660 C   0  0  0  0  0  3  0  0  0  0  0  0
  191.7640  176.4840  145.9510 O   0  0  0  0  0  1  0  0  0  0  0  0
  193.9880  176.1230  145.0090 C   0  0  0  0  0  0  0  0  0  0  0  0
  192.8960  170.5550  144.2620 C   0  0  0  0  0  3  0  0  0  0  0  0
  194.6520  174.5510  143.0480 C   0  0  0  0  0  0  0  0  0  0  0  0
  194.5580  177.5410  145.8520 Cl  0  0  0  0  0  0  0  0  0  0  0  0
  195.7430  174.5830  141.9460 C   0  0  1  0  0  3  0  0  0  0  0  0
  196.4000  175.8280  141.9640 O   0  0  0  0  0  1  0  0  0  0  0  0
  196.8110  173.4470  142.0190 C   0  0  0  0  0  2  0  0  0  0  0  0
  197.9120  173.8970  142.7560 O   0  0  0  0  0  1  0  0  0  0  0  0
  194.5520  169.0450  143.2710 C   0  0  2  0  0  3  0  0  0  0  0  0
  194.3220  168.3980  144.4670 O   0  0  0  0  0  1  0  0  0  0  0  0
  196.5480  168.6280  141.9700 O   0  0  0  0  0  0  0  0  0  0  0  0
  197.9380  170.7300  143.8500 C   0  0  0  0  0  1  0  0  0  0  0  0
  196.0330  169.3710  143.0470 C   0  0  2  0  0  3  0  0  0  0  0  0
  197.8000  168.1770  142.4320 C   0  0  0  0  0  2  0  0  0  0  0  0
  197.9180  168.3390  143.8340 O   0  0  0  0  0  0  0  0  0  0  0  0
  197.1240  169.4470  144.1050 C   0  0  1  0  0  0  0  0  0  0  0  0
  196.7280  169.5410  145.6000 C   0  0  1  0  0  3  0  0  0  0  0  0
  197.5880  168.7960  146.4350 O   0  0  0  0  0  1  0  0  0  0  0  0
  196.0570  171.8700  145.2620 F   0  0  0  0  0  0  0  0  0  0  0  0
  196.1360  170.8580  146.2220 C   0  0  0  0  0  3  0  0  0  0  0  0
  196.9040  171.2910  147.2890 F   0  0  0  0  0  0  0  0  0  0  0  0
  192.6210  171.8470  138.7240 C   0  0  1  0  0  0  0  0  0  0  0  0
  192.1950  173.1270  138.3400 F   0  0  0  0  0  0  0  0  0  0  0  0
  192.6660  169.8930  137.2390 F   0  0  0  0  0  0  0  0  0  0  0  0
  193.1060  171.1940  137.4220 C   0  0  0  0  0  2  0  0  0  0  0  0
  191.5400  171.0990  139.2660 O   0  0  0  0  0  0  0  0  0  0  0  0
  188.2550  172.5790  139.0510 C   0  0  0  0  0  2  0  0  0  0  0  0
  190.1330  171.7670  141.0000 O   0  0  0  0  0  0  0  0  0  0  0  0
  187.9550  174.9230  140.0620 C   0  0  2  0  0  3  0  0  0  0  0  0
  189.3250  171.8320  138.7500 C   0  0  0  0  0  2  0  0  0  0  0  0
  188.5160  172.4380  142.4850 O   0  0  0  0  0  1  0  0  0  0  0  0
  188.4390  173.4920  140.2310 C   0  0  1  0  0  0  0  0  0  0  0  0
  190.5240  171.9780  139.6550 C   0  0  2  0  0  3  0  0  0  0  0  0
  189.2990  172.8460  141.3920 C   0  0  2  0  0  3  0  0  0  0  0  0
  189.2710  174.5460  139.8040 O   0  0  0  0  0  0  0  0  0  0  0  0
  186.7700  179.0290  144.2290 O   0  0  0  0  0  0  0  0  0  0  0  0
  187.5210  178.1730  142.1870 N   0  0  0  0  0  2  0  0  0  0  0  0
  186.8920  175.1880  142.2740 O   0  0  0  0  0  0  0  0  0  0  0  0
  186.9610  177.9970  143.5010 C   0  0  0  0  0  0  0  0  0  0  0  0
  187.3720  177.2250  141.0520 C   0  0  1  0  0  3  0  0  0  0  0  0
  187.2570  175.5820  143.5580 C   0  0  0  0  0  2  0  0  0  0  0  0
  186.3260  176.7050  143.9620 C   0  0  1  0  0  3  0  0  0  0  0  0
  187.8180  175.7630  141.3910 C   0  0  2  0  0  3  0  0  0  0  0  0
  186.0840  176.6800  145.3350 F   0  0  0  0  0  0  0  0  0  0  0  0
  185.9250  177.2980  140.5540 C   0  0  0  0  0  2  0  0  0  0  0  0
  185.2350  178.5670  141.0290 C   0  0  0  0  0  2  0  0  0  0  0  0
  183.7750  178.4650  140.6610 C   0  0  0  0  0  2  0  0  0  0  0  0
  183.2030  178.7350  143.1470 C   0  0  0  0  0  1  0  0  0  0  0  0
  182.9330  177.9800  141.8490 C   0  0  1  0  0  3  0  0  0  0  0  0
  181.0820  179.0650  142.4630 C   0  0  0  0  0  1  0  0  0  0  0  0
  181.5840  178.1690  141.5130 O   0  0  0  0  0  0  0  0  0  0  0  0
  1  7  1  0  0  0  0
  2  1  2  0  0  0  0
  2  3  1  0  0  0  0
  3  8  1  0  0  0  0
  4 14  2  0  0  0  0
  5  2  1  0  0  0  0
  6 15  1  0  0  0  0
  6  8  1  0  0  0  0
  7 22  1  0  0  0  0
  7 15  2  0  0  0  0
  8 12  1  6  0  0  0
  9 35  1  6  0  0  0
  9 11  1  0  0  0  0
  9  5  1  0  0  0  0
 10 13  1  0  0  0  0
 11  1  1  0  0  0  0
 12 10  2  0  0  0  0
 14 10  1  0  0  0  0
 14 17  1  0  0  0  0
 16  3  2  0  0  0  0
 16  4  1  0  0  0  0
 18 19  1  1  0  0  0
 18 20  1  0  0  0  0
 18 16  1  0  0  0  0
 20 21  1  0  0  0  0
 22 23  1  1  0  0  0
 24 27  1  0  0  0  0
 24 26  1  0  0  0  0
 26 22  1  1  0  0  0
 26 29  1  0  0  0  0
 27 28  1  0  0  0  0
 28 29  1  0  0  0  0
 29 25  1  6  0  0  0
 29 30  1  0  0  0  0
 30 33  1  0  0  0  0
 30 31  1  1  0  0  0
 32 33  1  0  0  0  0
 33 34  1  0  0  0  0
 35 36  1  6  0  0  0
 35 39  1  0  0  0  0
 37 38  1  0  0  0  0
 38 35  1  0  0  0  0
 41 47  1  0  0  0  0
 42 48  1  6  0  0  0
 42 45  1  0  0  0  0
 42 56  1  0  0  0  0
 43 40  1  0  0  0  0
 43 46  1  0  0  0  0
 45 40  1  6  0  0  0
 45 47  1  0  0  0  0
 46 39  1  6  0  0  0
 46 41  1  0  0  0  0
 47 44  1  1  0  0  0
 48 45  1  0  0  0  0
 50 52  1  0  0  0  0
 51 54  1  0  0  0  0
 52 55  1  0  0  0  0
 52 49  2  0  0  0  0
 53 58  1  1  0  0  0
 53 56  1  0  0  0  0
 53 50  1  0  0  0  0
 54 55  1  0  0  0  0
 55 57  1  1  0  0  0
 56 51  1  1  0  0  0
 58 59  1  0  0  0  0
 60 59  1  0  0  0  0
 60 62  1  0  0  0  0
 62 61  1  1  0  0  0
 64 62  1  0  0  0  0
 64 63  1  0  0  0  0
M  END
>  <MODEL>
7

>  <REMARK>
 VINA RESULT:      -6.9      3.795      8.717
  Name = 
  16 active torsions:
  status: ('A' for Active; 'I' for Inactive)
    1  A    between atoms: C_8  and  C_57
    2  A    between atoms: C_8  and  C_58
    3  A    between atoms: C_12  and  C_31
    4  A    between atoms: C_12  and  O_42
    5  A    between atoms: O_16  and  C_38
    6  A    between atoms: O_16  and  C_41
    7  A    between atoms: C_17  and  C_49
    8  A    between atoms: C_19  and  C_24
    9  A    between atoms: C_19  and  C_55
   10  A    between atoms: C_20  and  C_46
   11  A    between atoms: C_26  and  C_38
   12  A    between atoms: C_29  and  C_60
   13  A    between atoms: C_30  and  C_46
   14  A    between atoms: C_31  and  C_54
   15  A    between atoms: C_34  and  C_38
   16  A    between atoms: C_54  and  C_60
                            x       y       z     vdW  Elec       q    Type
                         _______ _______ _______ _____ _____    ______ ____

>  <TORSDO>
F 16

$$$$
=
 OpenBabel11062418233D

 64 70  0  0  1  0  0  0  0  0999 V2000
  194.5890  172.3920  141.3200 C   0  0  0  0  0  0  0  0  0  0  0  0
  194.5110  172.1310  139.9900 C   0  0  0  0  0  0  0  0  0  0  0  0
  195.2660  172.7870  138.8730 C   0  0  0  0  0  0  0  0  0  0  0  0
  196.5240  172.4300  136.7000 C   0  0  0  0  0  3  0  0  0  0  0  0
  193.6510  171.0500  139.7700 O   0  0  0  0  0  0  0  0  0  0  0  0
  194.4450  175.1980  140.1210 S   0  0  0  0  0  0  0  0  0  0  0  0
  195.4070  173.4290  142.0030 C   0  0  0  0  0  0  0  0  0  0  0  0
  195.4680  174.3180  138.8630 C   0  0  2  0  0  3  0  0  0  0  0  0
  193.1680  170.5060  140.9800 C   0  0  1  0  0  3  0  0  0  0  0  0
  195.6450  174.7340  136.3650 C   0  0  0  0  0  0  0  0  0  0  0  0
  193.8170  171.3510  142.0730 C   0  0  0  0  0  2  0  0  0  0  0  0
  195.1630  175.0220  137.5660 C   0  0  0  0  0  3  0  0  0  0  0  0
  195.4080  175.6620  135.3440 O   0  0  0  0  0  1  0  0  0  0  0  0
  196.5110  173.5880  136.0140 C   0  0  0  0  0  0  0  0  0  0  0  0
  195.4440  174.6660  141.5320 C   0  0  0  0  0  3  0  0  0  0  0  0
  195.8210  171.9600  137.9180 C   0  0  0  0  0  0  0  0  0  0  0  0
  197.4270  173.6140  134.5280 Cl  0  0  0  0  0  0  0  0  0  0  0  0
  195.9380  170.4290  138.1400 C   0  0  1  0  0  3  0  0  0  0  0  0
  195.5780  169.7480  136.9610 O   0  0  0  0  0  1  0  0  0  0  0  0
  197.3380  169.9200  138.6090 C   0  0  0  0  0  2  0  0  0  0  0  0
  197.5690  170.3500  139.9200 O   0  0  0  0  0  1  0  0  0  0  0  0
  196.1340  173.1130  143.2980 C   0  0  2  0  0  3  0  0  0  0  0  0
  196.6480  171.8370  143.2010 O   0  0  0  0  0  1  0  0  0  0  0  0
  194.4070  172.1600  144.6980 O   0  0  0  0  0  0  0  0  0  0  0  0
  194.5770  174.8380  146.3370 C   0  0  0  0  0  1  0  0  0  0  0  0
  195.2180  173.2940  144.5130 C   0  0  2  0  0  3  0  0  0  0  0  0
  193.1330  172.6900  144.9770 C   0  0  0  0  0  2  0  0  0  0  0  0
  193.0670  174.0660  144.6500 O   0  0  0  0  0  0  0  0  0  0  0  0
  194.3690  174.5140  144.8460 C   0  0  1  0  0  0  0  0  0  0  0  0
  194.6500  175.8550  144.1240 C   0  0  1  0  0  3  0  0  0  0  0  0
  193.4650  176.5410  143.7790 O   0  0  0  0  0  1  0  0  0  0  0  0
  195.4690  177.9540  145.0780 F   0  0  0  0  0  0  0  0  0  0  0  0
  195.8850  176.7550  144.4930 C   0  0  0  0  0  3  0  0  0  0  0  0
  196.6520  177.0270  143.3730 F   0  0  0  0  0  0  0  0  0  0  0  0
  191.6000  170.4870  141.1050 C   0  0  1  0  0  0  0  0  0  0  0  0
  190.9760  171.2350  140.0960 F   0  0  0  0  0  0  0  0  0  0  0  0
  190.4490  168.5240  142.0230 F   0  0  0  0  0  0  0  0  0  0  0  0
  191.0760  169.0590  140.9090 C   0  0  0  0  0  2  0  0  0  0  0  0
  191.2250  170.9670  142.3910 O   0  0  0  0  0  0  0  0  0  0  0  0
  190.1190  173.9540  140.6930 C   0  0  0  0  0  2  0  0  0  0  0  0
  189.0610  171.8110  142.2000 O   0  0  0  0  0  0  0  0  0  0  0  0
  188.9660  175.7560  142.1180 C   0  0  2  0  0  3  0  0  0  0  0  0
  190.8350  172.8600  140.9860 C   0  0  0  0  0  2  0  0  0  0  0  0
  187.0470  172.8290  141.7800 O   0  0  0  0  0  1  0  0  0  0  0  0
  189.0560  174.2970  141.6990 C   0  0  1  0  0  0  0  0  0  0  0  0
  190.4430  172.1170  142.2410 C   0  0  2  0  0  3  0  0  0  0  0  0
  188.3360  173.0250  142.3050 C   0  0  2  0  0  3  0  0  0  0  0  0
  189.7190  174.8220  142.8270 O   0  0  0  0  0  0  0  0  0  0  0  0
  184.9010  177.7420  146.0100 O   0  0  0  0  0  0  0  0  0  0  0  0
  186.7700  176.5640  145.2470 N   0  0  0  0  0  2  0  0  0  0  0  0
  187.0470  177.2970  142.2970 O   0  0  0  0  0  0  0  0  0  0  0  0
  185.6380  177.4210  145.0170 C   0  0  0  0  0  0  0  0  0  0  0  0
  187.9750  176.4750  144.3800 C   0  0  1  0  0  3  0  0  0  0  0  0
  185.6890  177.2300  142.5920 C   0  0  0  0  0  2  0  0  0  0  0  0
  185.4300  178.1910  143.7330 C   0  0  1  0  0  3  0  0  0  0  0  0
  187.6480  176.1710  142.8790 C   0  0  2  0  0  3  0  0  0  0  0  0
  184.1560  178.7480  143.6340 F   0  0  0  0  0  0  0  0  0  0  0  0
  188.7870  177.7620  144.5560 C   0  0  0  0  0  2  0  0  0  0  0  0
  190.0450  177.5200  145.3760 C   0  0  0  0  0  2  0  0  0  0  0  0
  190.0190  176.0880  145.8500 C   0  0  0  0  0  2  0  0  0  0  0  0
  191.2740  177.1190  147.8350 C   0  0  0  0  0  1  0  0  0  0  0  0
  191.0010  175.8660  147.0090 C   0  0  1  0  0  3  0  0  0  0  0  0
  189.1710  174.6290  147.3290 C   0  0  0  0  0  1  0  0  0  0  0  0
  190.4360  174.9040  147.8600 O   0  0  0  0  0  0  0  0  0  0  0  0
  1  7  1  0  0  0  0
  1 11  1  0  0  0  0
  2  1  2  0  0  0  0
  3  2  1  0  0  0  0
  4 16  1  0  0  0  0
  5  2  1  0  0  0  0
  5  9  1  0  0  0  0
  6 15  1  0  0  0  0
  7 22  1  0  0  0  0
  8 12  1  6  0  0  0
  8  3  1  0  0  0  0
  8  6  1  0  0  0  0
  9 35  1  6  0  0  0
  9 11  1  0  0  0  0
 10 12  2  0  0  0  0
 13 10  1  0  0  0  0
 14 10  1  0  0  0  0
 14  4  2  0  0  0  0
 15  7  2  0  0  0  0
 16 18  1  0  0  0  0
 16  3  2  0  0  0  0
 17 14  1  0  0  0  0
 18 19  1  6  0  0  0
 18 20  1  0  0  0  0
 20 21  1  0  0  0  0
 22 23  1  6  0  0  0
 24 27  1  0  0  0  0
 26 22  1  6  0  0  0
 26 24  1  0  0  0  0
 26 29  1  0  0  0  0
 28 29  1  0  0  0  0
 28 27  1  0  0  0  0
 29 25  1  1  0  0  0
 30 31  1  1  0  0  0
 30 33  1  0  0  0  0
 30 29  1  0  0  0  0
 33 32  1  0  0  0  0
 34 33  1  0  0  0  0
 35 36  1  6  0  0  0
 35 39  1  0  0  0  0
 38 35  1  0  0  0  0
 38 37  1  0  0  0  0
 40 43  1  0  0  0  0
 41 46  1  0  0  0  0
 41 47  1  0  0  0  0
 42 48  1  1  0  0  0
 42 56  1  0  0  0  0
 43 46  1  0  0  0  0
 45 40  1  6  0  0  0
 45 42  1  0  0  0  0
 45 47  1  0  0  0  0
 45 48  1  0  0  0  0
 46 39  1  6  0  0  0
 47 44  1  6  0  0  0
 51 54  1  0  0  0  0
 52 50  1  0  0  0  0
 52 49  2  0  0  0  0
 53 58  1  6  0  0  0
 53 50  1  0  0  0  0
 54 55  1  0  0  0  0
 55 57  1  1  0  0  0
 55 52  1  0  0  0  0
 56 51  1  6  0  0  0
 56 53  1  0  0  0  0
 58 59  1  0  0  0  0
 59 60  1  0  0  0  0
 60 62  1  0  0  0  0
 62 61  1  1  0  0  0
 62 64  1  0  0  0  0
 63 64  1  0  0  0  0
M  END
>  <MODEL>
8

>  <REMARK>
 VINA RESULT:      -6.4      3.833     10.226
  Name = 
  16 active torsions:
  status: ('A' for Active; 'I' for Inactive)
    1  A    between atoms: C_8  and  C_57
    2  A    between atoms: C_8  and  C_58
    3  A    between atoms: C_12  and  C_31
    4  A    between atoms: C_12  and  O_42
    5  A    between atoms: O_16  and  C_38
    6  A    between atoms: O_16  and  C_41
    7  A    between atoms: C_17  and  C_49
    8  A    between atoms: C_19  and  C_24
    9  A    between atoms: C_19  and  C_55
   10  A    between atoms: C_20  and  C_46
   11  A    between atoms: C_26  and  C_38
   12  A    between atoms: C_29  and  C_60
   13  A    between atoms: C_30  and  C_46
   14  A    between atoms: C_31  and  C_54
   15  A    between atoms: C_34  and  C_38
   16  A    between atoms: C_54  and  C_60
                            x       y       z     vdW  Elec       q    Type
                         _______ _______ _______ _____ _____    ______ ____

>  <TORSDO>
F 16

$$$$
=
 OpenBabel11062418233D

 64 70  0  0  1  0  0  0  0  0999 V2000
  193.3930  171.9800  140.0610 C   0  0  0  0  0  0  0  0  0  0  0  0
  193.5020  172.3850  138.7700 C   0  0  0  0  0  0  0  0  0  0  0  0
  194.7220  172.8860  138.0580 C   0  0  0  0  0  0  0  0  0  0  0  0
  196.0760  172.8140  135.9150 C   0  0  0  0  0  3  0  0  0  0  0  0
  192.2850  172.1910  138.1090 O   0  0  0  0  0  0  0  0  0  0  0  0
  195.0070  174.5590  140.3300 S   0  0  0  0  0  0  0  0  0  0  0  0
  194.4460  171.9770  141.1110 C   0  0  0  0  0  0  0  0  0  0  0  0
  195.6840  173.8690  138.7590 C   0  0  2  0  0  3  0  0  0  0  0  0
  191.3240  171.5770  138.9440 C   0  0  1  0  0  3  0  0  0  0  0  0
  196.6250  175.0940  136.7440 C   0  0  0  0  0  0  0  0  0  0  0  0
  192.0440  171.3630  140.2730 C   0  0  0  0  0  2  0  0  0  0  0  0
  196.0990  175.0790  137.9610 C   0  0  0  0  0  3  0  0  0  0  0  0
  197.1480  176.3120  136.2920 O   0  0  0  0  0  1  0  0  0  0  0  0
  196.8250  173.9300  135.8550 C   0  0  0  0  0  0  0  0  0  0  0  0
  195.2270  173.0330  141.2760 C   0  0  0  0  0  3  0  0  0  0  0  0
  194.9710  172.3740  136.8010 C   0  0  0  0  0  0  0  0  0  0  0  0
  197.9370  174.0420  134.5130 Cl  0  0  0  0  0  0  0  0  0  0  0  0
  194.2230  171.1230  136.2720 C   0  0  1  0  0  3  0  0  0  0  0  0
  193.8780  171.3110  134.9190 O   0  0  0  0  0  1  0  0  0  0  0  0
  194.9860  169.7680  136.4140 C   0  0  0  0  0  2  0  0  0  0  0  0
  194.2220  168.7460  135.8410 O   0  0  0  0  0  1  0  0  0  0  0  0
  194.5800  170.8060  142.0700 C   0  0  2  0  0  3  0  0  0  0  0  0
  193.4450  170.7580  142.8510 O   0  0  0  0  0  1  0  0  0  0  0  0
  196.7070  169.8060  142.6420 O   0  0  0  0  0  0  0  0  0  0  0  0
  197.0940  172.2730  144.5520 C   0  0  0  0  0  1  0  0  0  0  0  0
  195.8670  170.9050  142.8960 C   0  0  2  0  0  3  0  0  0  0  0  0
  197.1630  169.4200  143.9170 C   0  0  0  0  0  2  0  0  0  0  0  0
  196.3920  170.0200  144.9410 O   0  0  0  0  0  0  0  0  0  0  0  0
  195.9800  171.2240  144.3800 C   0  0  1  0  0  0  0  0  0  0  0  0
  194.7650  171.8370  145.1200 C   0  0  1  0  0  3  0  0  0  0  0  0
  194.4140  171.1100  146.2780 O   0  0  0  0  0  1  0  0  0  0  0  0
  193.9560  173.7560  146.4040 F   0  0  0  0  0  0  0  0  0  0  0  0
  194.5280  173.3910  145.1840 C   0  0  0  0  0  3  0  0  0  0  0  0
  193.7150  173.8110  144.1450 F   0  0  0  0  0  0  0  0  0  0  0  0
  189.9960  172.3990  139.1200 C   0  0  1  0  0  0  0  0  0  0  0  0
  190.1990  173.7800  138.9740 F   0  0  0  0  0  0  0  0  0  0  0  0
  188.7730  170.6750  137.8720 F   0  0  0  0  0  0  0  0  0  0  0  0
  189.0020  172.0350  138.0090 C   0  0  0  0  0  2  0  0  0  0  0  0
  189.4270  172.1070  140.3910 O   0  0  0  0  0  0  0  0  0  0  0  0
  190.2970  175.2220  141.9920 C   0  0  0  0  0  2  0  0  0  0  0  0
  188.3190  174.1550  140.2800 O   0  0  0  0  0  0  0  0  0  0  0  0
  188.5890  176.2150  143.6360 C   0  0  2  0  0  3  0  0  0  0  0  0
  190.4270  174.0260  141.4030 C   0  0  0  0  0  2  0  0  0  0  0  0
  187.4960  176.2970  140.2950 O   0  0  0  0  0  1  0  0  0  0  0  0
  188.8780  175.6400  142.2580 C   0  0  1  0  0  0  0  0  0  0  0  0
  189.1470  173.3060  141.0540 C   0  0  2  0  0  3  0  0  0  0  0  0
  187.8760  175.2170  141.1090 C   0  0  2  0  0  3  0  0  0  0  0  0
  188.4220  174.8630  143.3430 O   0  0  0  0  0  0  0  0  0  0  0  0
  183.5750  178.7890  145.6010 O   0  0  0  0  0  0  0  0  0  0  0  0
  185.2040  177.1290  145.3600 N   0  0  0  0  0  2  0  0  0  0  0  0
  187.3540  178.3510  143.5720 O   0  0  0  0  0  0  0  0  0  0  0  0
  184.6660  178.4260  145.0430 C   0  0  0  0  0  0  0  0  0  0  0  0
  186.6290  176.7300  145.2200 C   0  0  1  0  0  3  0  0  0  0  0  0
  186.1200  178.8220  143.1330 C   0  0  0  0  0  2  0  0  0  0  0  0
  185.4510  179.4920  144.3140 C   0  0  1  0  0  3  0  0  0  0  0  0
  187.2130  176.9730  143.7880 C   0  0  2  0  0  3  0  0  0  0  0  0
  184.6580  180.5600  143.8960 F   0  0  0  0  0  0  0  0  0  0  0  0
  187.4340  177.4420  146.3120 C   0  0  0  0  0  2  0  0  0  0  0  0
  188.4530  176.5110  146.9510 C   0  0  0  0  0  2  0  0  0  0  0  0
  189.7540  177.2660  147.0760 C   0  0  0  0  0  2  0  0  0  0  0  0
  191.3150  175.2910  146.5870 C   0  0  0  0  0  1  0  0  0  0  0  0
  190.8800  176.3570  147.5870 C   0  0  1  0  0  3  0  0  0  0  0  0
  191.9320  177.4420  149.2290 C   0  0  0  0  0  1  0  0  0  0  0  0
  191.9890  177.1730  147.8570 O   0  0  0  0  0  0  0  0  0  0  0  0
  1 11  1  0  0  0  0
  1  7  1  0  0  0  0
  2  1  2  0  0  0  0
  3  8  1  0  0  0  0
  3  2  1  0  0  0  0
  4 16  1  0  0  0  0
  5  2  1  0  0  0  0
  5  9  1  0  0  0  0
  6 15  1  0  0  0  0
  7 15  2  0  0  0  0
  7 22  1  0  0  0  0
  8 12  1  6  0  0  0
  8  6  1  0  0  0  0
  9 35  1  1  0  0  0
  9 11  1  0  0  0  0
 10 12  2  0  0  0  0
 13 10  1  0  0  0  0
 14  4  2  0  0  0  0
 14 10  1  0  0  0  0
 16  3  2  0  0  0  0
 17 14  1  0  0  0  0
 18 19  1  6  0  0  0
 18 20  1  0  0  0  0
 18 16  1  0  0  0  0
 21 20  1  0  0  0  0
 22 23  1  1  0  0  0
 24 26  1  0  0  0  0
 24 27  1  0  0  0  0
 26 22  1  1  0  0  0
 26 29  1  0  0  0  0
 27 28  1  0  0  0  0
 29 25  1  1  0  0  0
 29 28  1  0  0  0  0
 29 30  1  0  0  0  0
 30 33  1  0  0  0  0
 30 31  1  1  0  0  0
 33 32  1  0  0  0  0
 34 33  1  0  0  0  0
 35 36  1  6  0  0  0
 35 39  1  0  0  0  0
 37 38  1  0  0  0  0
 38 35  1  0  0  0  0
 41 46  1  0  0  0  0
 41 47  1  0  0  0  0
 42 48  1  1  0  0  0
 42 56  1  0  0  0  0
 43 40  1  0  0  0  0
 45 40  1  6  0  0  0
 45 48  1  0  0  0  0
 45 42  1  0  0  0  0
 46 39  1  6  0  0  0
 46 43  1  0  0  0  0
 47 44  1  6  0  0  0
 47 45  1  0  0  0  0
 52 50  1  0  0  0  0
 52 49  2  0  0  0  0
 53 50  1  0  0  0  0
 53 58  1  1  0  0  0
 54 51  1  0  0  0  0
 54 55  1  0  0  0  0
 55 57  1  6  0  0  0
 55 52  1  0  0  0  0
 56 51  1  1  0  0  0
 56 53  1  0  0  0  0
 58 59  1  0  0  0  0
 59 60  1  0  0  0  0
 60 62  1  0  0  0  0
 62 61  1  6  0  0  0
 62 64  1  0  0  0  0
 64 63  1  0  0  0  0
M  END
>  <MODEL>
9

>  <REMARK>
 VINA RESULT:      -6.2      4.150     10.605
  Name = 
  16 active torsions:
  status: ('A' for Active; 'I' for Inactive)
    1  A    between atoms: C_8  and  C_57
    2  A    between atoms: C_8  and  C_58
    3  A    between atoms: C_12  and  C_31
    4  A    between atoms: C_12  and  O_42
    5  A    between atoms: O_16  and  C_38
    6  A    between atoms: O_16  and  C_41
    7  A    between atoms: C_17  and  C_49
    8  A    between atoms: C_19  and  C_24
    9  A    between atoms: C_19  and  C_55
   10  A    between atoms: C_20  and  C_46
   11  A    between atoms: C_26  and  C_38
   12  A    between atoms: C_29  and  C_60
   13  A    between atoms: C_30  and  C_46
   14  A    between atoms: C_31  and  C_54
   15  A    between atoms: C_34  and  C_38
   16  A    between atoms: C_54  and  C_60
                            x       y       z     vdW  Elec       q    Type
                         _______ _______ _______ _____ _____    ______ ____

>  <TORSDO>
F 16

$$$$
