=
 OpenBabel11062421173D

 56 60  0  0  1  0  0  0  0  0999 V2000
  187.7330  176.6010  143.0260 N   0  0  0  0  0  0  0  0  0  0  0  0
  186.3830  176.6580  143.5790 C   0  0  0  0  0  2  0  0  0  0  0  0
  186.4150  176.2670  145.0440 C   0  0  0  0  0  2  0  0  0  0  0  0
  185.1910  176.8340  145.7390 C   0  0  0  0  0  2  0  0  0  0  0  0
  185.5400  177.2760  147.1550 C   0  0  1  0  0  3  0  0  0  0  0  0
  186.8650  176.7900  147.5050 N   0  0  0  0  0  1  0  0  0  0  0  0
  185.4380  179.5200  145.9780 C   0  0  0  0  0  1  0  0  0  0  0  0
  185.4580  178.7980  147.3150 C   0  0  2  0  0  3  0  0  0  0  0  0
  186.5270  179.2570  148.0830 O   0  0  0  0  0  1  0  0  0  0  0  0
  188.6480  177.3070  143.9160 C   0  0  0  0  0  2  0  0  0  0  0  0
  189.6810  178.3620  142.0830 O   0  0  0  0  0  0  0  0  0  0  0  0
  189.8380  177.8070  143.1600 C   0  0  0  0  0  0  0  0  0  0  0  0
  191.2210  177.5950  143.6900 C   0  0  0  0  0  2  0  0  0  0  0  0
  192.5360  174.2900  144.7650 C   0  0  0  0  0  2  0  0  0  0  0  0
  191.2960  176.3240  144.5220 C   0  0  1  0  0  3  0  0  0  0  0  0
  191.8870  175.1800  143.7300 C   0  0  0  0  0  2  0  0  0  0  0  0
  192.9530  175.2030  145.9080 C   0  0  1  0  0  0  0  0  0  0  0  0
  192.2250  176.5220  145.7000 C   0  0  0  0  0  2  0  0  0  0  0  0
  192.5620  174.6440  147.1280 O   0  0  0  0  0  1  0  0  0  0  0  0
  194.4600  175.4640  145.8950 C   0  0  0  0  0  2  0  0  0  0  0  0
  195.1660  174.9040  144.6590 C   0  0  1  0  0  3  0  0  0  0  0  0
  197.2870  175.9710  141.8520 C   0  0  0  0  0  2  0  0  0  0  0  0
  194.9620  176.1150  142.4440 C   0  0  0  0  0  2  0  0  0  0  0  0
  195.9750  176.5940  141.4310 C   0  0  0  0  0  2  0  0  0  0  0  0
  195.7430  175.9870  143.7350 C   0  0  0  0  0  3  0  0  0  0  0  0
  197.1970  175.7630  143.3530 C   0  0  0  0  0  2  0  0  0  0  0  0
  195.6380  172.4360  142.8950 C   0  0  0  0  0  1  0  0  0  0  0  0
  196.8960  173.9430  145.9680 O   0  0  0  0  0  0  0  0  0  0  0  0
  196.1230  173.7850  144.9840 C   0  0  0  0  0  0  0  0  0  0  0  0
  196.1530  172.5440  144.2500 N   0  0  0  0  0  0  0  0  0  0  0  0
  196.8340  171.3820  144.8020 C   0  0  0  0  0  2  0  0  0  0  0  0
  195.1220  169.5500  144.9090 C   0  0  0  0  0  2  0  0  0  0  0  0
  194.2260  168.6900  145.8160 C   0  0  0  0  0  2  0  0  0  0  0  0
  194.5300  168.8500  147.2420 N   0  0  0  0  0  2  0  0  0  0  0  0
  195.9740  168.7320  147.4400 C   0  0  0  0  0  2  0  0  0  0  0  0
  195.9000  170.5960  145.7100 C   0  0  0  0  0  3  0  0  0  0  0  0
  196.7040  169.9370  146.8330 C   0  0  0  0  0  2  0  0  0  0  0  0
  188.1820  175.2100  142.8630 C   0  0  0  0  0  2  0  0  0  0  0  0
  188.5180  174.8100  141.4180 C   0  0  0  0  0  2  0  0  0  0  0  0
  188.1770  172.8620  139.8690 C   0  0  0  0  0  2  0  0  0  0  0  0
  190.5130  172.6440  139.0910 N   0  0  0  0  0  2  0  0  0  0  0  0
  190.2350  171.7590  142.2170 C   0  0  0  0  0  2  0  0  0  0  0  0
  189.2070  173.2350  138.7900 C   0  0  0  0  0  2  0  0  0  0  0  0
  190.0540  172.8600  141.4850 C   0  0  0  0  0  0  0  0  0  0  0  0
  190.9920  173.2190  140.3470 C   0  0  1  0  0  3  0  0  0  0  0  0
  188.6380  173.2980  141.2680 C   0  0  1  0  0  3  0  0  0  0  0  0
  193.2600  173.0030  139.1590 C   0  0  2  0  0  3  0  0  0  0  0  0
  193.2340  174.3320  139.8970 C   0  0  0  0  0  2  0  0  0  0  0  0
  192.5270  173.1260  140.4830 C   0  0  1  0  0  3  0  0  0  0  0  0
  194.5940  172.2980  139.3820 C   0  0  1  0  0  3  0  0  0  0  0  0
  195.2740  170.1840  138.1950 C   0  0  0  0  0  1  0  0  0  0  0  0
  194.4350  170.7750  139.3130 C   0  0  2  0  0  3  0  0  0  0  0  0
  193.0980  170.4060  139.1530 O   0  0  0  0  0  1  0  0  0  0  0  0
  195.7200  172.8500  138.4910 C   0  0  0  0  0  2  0  0  0  0  0  0
  196.9190  173.3770  139.2700 C   0  0  0  0  0  2  0  0  0  0  0  0
  197.5610  172.3250  139.9230 O   0  0  0  0  0  1  0  0  0  0  0  0
  1  2  1  0  0  0  0
  1 10  1  0  0  0  0
  2  3  1  0  0  0  0
  3  4  1  0  0  0  0
  4  5  1  0  0  0  0
  5  8  1  0  0  0  0
  5  6  1  6  0  0  0
  8  7  1  6  0  0  0
  8  9  1  0  0  0  0
 11 12  2  0  0  0  0
 12 13  1  0  0  0  0
 12 10  1  0  0  0  0
 14 17  1  0  0  0  0
 15 13  1  6  0  0  0
 15 18  1  0  0  0  0
 16 15  1  0  0  0  0
 16 14  1  0  0  0  0
 17 19  1  1  0  0  0
 18 17  1  0  0  0  0
 20 17  1  0  0  0  0
 21 29  1  0  0  0  0
 21 20  1  1  0  0  0
 22 26  1  0  0  0  0
 23 25  1  0  0  0  0
 24 22  1  0  0  0  0
 24 23  1  0  0  0  0
 25 21  1  0  0  0  0
 26 25  1  0  0  0  0
 27 30  1  0  0  0  0
 29 28  2  0  0  0  0
 30 31  1  0  0  0  0
 30 29  1  0  0  0  0
 31 36  1  0  0  0  0
 32 36  1  0  0  0  0
 32 33  1  0  0  0  0
 33 34  1  0  0  0  0
 34 35  1  0  0  0  0
 36 37  1  0  0  0  0
 37 35  1  0  0  0  0
 38  1  1  0  0  0  0
 39 38  1  0  0  0  0
 40 46  1  0  0  0  0
 43 41  1  0  0  0  0
 43 40  1  0  0  0  0
 44 42  2  0  0  0  0
 45 41  1  6  0  0  0
 45 49  1  0  0  0  0
 45 44  1  0  0  0  0
 46 39  1  6  0  0  0
 46 44  1  0  0  0  0
 47 50  1  1  0  0  0
 47 48  1  0  0  0  0
 47 49  1  0  0  0  0
 49 48  1  6  0  0  0
 50 54  1  6  0  0  0
 52 51  1  6  0  0  0
 52 50  1  0  0  0  0
 53 52  1  0  0  0  0
 54 55  1  0  0  0  0
 55 56  1  0  0  0  0
M  END
>  <MODEL>
1

>  <REMARK>
 VINA RESULT:      -5.7      0.000      0.000
  Name = 
  23 active torsions:
  status: ('A' for Active; 'I' for Inactive)
    1  A    between atoms: C_2  and  N_3
    2  A    between atoms: C_2  and  C_24
    3  A    between atoms: N_3  and  C_16
    4  A    between atoms: N_3  and  C_53
    5  A    between atoms: C_10  and  C_32
    6  A    between atoms: C_11  and  C_16
    7  A    between atoms: C_11  and  C_32
    8  A    between atoms: C_13  and  C_28
    9  A    between atoms: C_13  and  C_50
   10  A    between atoms: C_15  and  C_27
   11  A    between atoms: C_22  and  C_31
   12  A    between atoms: C_23  and  C_29
   13  A    between atoms: C_23  and  C_46
   14  A    between atoms: C_24  and  C_52
   15  A    between atoms: C_26  and  C_37
   16  A    between atoms: C_27  and  C_31
   17  A    between atoms: C_27  and  C_40
   18  A    between atoms: C_28  and  C_38
   19  A    between atoms: C_28  and  C_47
   20  A    between atoms: C_29  and  C_39
   21  A    between atoms: C_37  and  N_51
   22  A    between atoms: C_43  and  C_54
   23  A    between atoms: C_46  and  C_53
                            x       y       z     vdW  Elec       q    Type
                         _______ _______ _______ _____ _____    ______ ____

>  <TORSDO>
F 23

$$$$
=
 OpenBabel11062421173D

 56 60  0  0  1  0  0  0  0  0999 V2000
  192.8390  171.1760  143.0090 N   0  0  0  0  0  0  0  0  0  0  0  0
  193.4590  170.8800  141.7210 C   0  0  0  0  0  2  0  0  0  0  0  0
  193.6280  172.1630  140.9300 C   0  0  0  0  0  2  0  0  0  0  0  0
  194.9960  172.1680  140.2730 C   0  0  0  0  0  2  0  0  0  0  0  0
  194.9040  172.7290  138.8590 C   0  0  1  0  0  3  0  0  0  0  0  0
  193.8630  172.0320  138.1230 N   0  0  0  0  0  1  0  0  0  0  0  0
  193.3240  174.6060  138.2200 C   0  0  0  0  0  1  0  0  0  0  0  0
  194.6530  174.2400  138.8600 C   0  0  2  0  0  3  0  0  0  0  0  0
  195.6910  174.8980  138.1990 O   0  0  0  0  0  1  0  0  0  0  0  0
  191.4210  170.8370  142.9500 C   0  0  0  0  0  2  0  0  0  0  0  0
  189.3760  171.8310  143.5540 O   0  0  0  0  0  0  0  0  0  0  0  0
  190.5880  171.9590  143.4850 C   0  0  0  0  0  0  0  0  0  0  0  0
  191.2220  173.2500  143.8950 C   0  0  0  0  0  2  0  0  0  0  0  0
  191.0610  175.2960  146.9930 C   0  0  0  0  0  2  0  0  0  0  0  0
  190.9590  173.5440  145.3640 C   0  0  1  0  0  3  0  0  0  0  0  0
  191.8480  174.6570  145.8720 C   0  0  0  0  0  2  0  0  0  0  0  0
  189.5920  175.0940  146.6490 C   0  0  1  0  0  0  0  0  0  0  0  0
  189.5420  174.0400  145.5550 C   0  0  0  0  0  2  0  0  0  0  0  0
  188.9030  174.6310  147.7730 O   0  0  0  0  0  1  0  0  0  0  0  0
  188.9580  176.3820  146.1220 C   0  0  0  0  0  2  0  0  0  0  0  0
  187.9690  176.1510  144.9790 C   0  0  1  0  0  3  0  0  0  0  0  0
  185.6650  178.2360  146.9440 C   0  0  0  0  0  2  0  0  0  0  0  0
  186.7240  178.3480  144.7890 C   0  0  0  0  0  2  0  0  0  0  0  0
  185.6920  179.0300  145.6570 C   0  0  0  0  0  2  0  0  0  0  0  0
  186.6310  176.8840  145.1640 C   0  0  0  0  0  3  0  0  0  0  0  0
  186.0840  176.8230  146.5810 C   0  0  0  0  0  2  0  0  0  0  0  0
  187.1420  174.5960  142.4640 C   0  0  0  0  0  1  0  0  0  0  0  0
  189.4010  177.2800  143.4600 O   0  0  0  0  0  0  0  0  0  0  0  0
  188.5920  176.3250  143.6160 C   0  0  0  0  0  0  0  0  0  0  0  0
  188.3350  175.4260  142.5190 N   0  0  0  0  0  0  0  0  0  0  0  0
  189.2050  175.4250  141.3510 C   0  0  0  0  0  2  0  0  0  0  0  0
  188.3230  174.4450  139.2160 C   0  0  0  0  0  2  0  0  0  0  0  0
  188.1900  173.1820  138.3490 C   0  0  0  0  0  2  0  0  0  0  0  0
  189.0030  172.0620  138.8370 N   0  0  0  0  0  2  0  0  0  0  0  0
  190.3590  172.5370  139.1050 C   0  0  0  0  0  2  0  0  0  0  0  0
  189.0180  174.1480  140.5470 C   0  0  0  0  0  3  0  0  0  0  0  0
  190.3750  173.4780  140.3160 C   0  0  0  0  0  2  0  0  0  0  0  0
  193.4810  170.4190  144.0950 C   0  0  0  0  0  2  0  0  0  0  0  0
  194.5540  169.4210  143.6350 C   0  0  0  0  0  2  0  0  0  0  0  0
  197.0540  169.2300  143.5040 C   0  0  0  0  0  2  0  0  0  0  0  0
  197.5440  171.6020  143.0120 N   0  0  0  0  0  2  0  0  0  0  0  0
  196.4670  171.2410  146.0680 C   0  0  0  0  0  2  0  0  0  0  0  0
  197.3160  170.2830  142.4150 C   0  0  0  0  0  2  0  0  0  0  0  0
  196.0080  171.0390  144.8320 C   0  0  0  0  0  0  0  0  0  0  0  0
  196.3200  172.0050  143.7020 C   0  0  1  0  0  3  0  0  0  0  0  0
  195.8620  169.6150  144.3920 C   0  0  1  0  0  3  0  0  0  0  0  0
  194.9130  174.1340  143.4060 C   0  0  2  0  0  3  0  0  0  0  0  0
  195.1750  173.9390  144.8910 C   0  0  0  0  0  2  0  0  0  0  0  0
  196.2260  173.5360  143.8760 C   0  0  1  0  0  3  0  0  0  0  0  0
  195.1300  175.5910  143.0160 C   0  0  1  0  0  3  0  0  0  0  0  0
  197.1200  177.1170  143.2510 C   0  0  0  0  0  1  0  0  0  0  0  0
  196.5870  175.8460  142.6140 C   0  0  2  0  0  3  0  0  0  0  0  0
  196.7330  175.9100  141.2270 O   0  0  0  0  0  1  0  0  0  0  0  0
  194.1010  176.0970  141.9900 C   0  0  0  0  0  2  0  0  0  0  0  0
  192.6920  176.2460  142.5530 C   0  0  0  0  0  2  0  0  0  0  0  0
  192.7290  176.9840  143.7360 O   0  0  0  0  0  1  0  0  0  0  0  0
  1 38  1  0  0  0  0
  2  1  1  0  0  0  0
  3  2  1  0  0  0  0
  4  3  1  0  0  0  0
  5  6  1  6  0  0  0
  5  8  1  0  0  0  0
  5  4  1  0  0  0  0
  8  7  1  6  0  0  0
  9  8  1  0  0  0  0
 10  1  1  0  0  0  0
 10 12  1  0  0  0  0
 12 11  2  0  0  0  0
 12 13  1  0  0  0  0
 15 13  1  6  0  0  0
 15 18  1  0  0  0  0
 15 16  1  0  0  0  0
 16 14  1  0  0  0  0
 17 14  1  0  0  0  0
 17 19  1  1  0  0  0
 18 17  1  0  0  0  0
 20 17  1  0  0  0  0
 21 25  1  0  0  0  0
 21 20  1  1  0  0  0
 23 25  1  0  0  0  0
 23 24  1  0  0  0  0
 24 22  1  0  0  0  0
 25 26  1  0  0  0  0
 26 22  1  0  0  0  0
 27 30  1  0  0  0  0
 28 29  2  0  0  0  0
 29 21  1  0  0  0  0
 30 29  1  0  0  0  0
 31 30  1  0  0  0  0
 32 36  1  0  0  0  0
 33 34  1  0  0  0  0
 33 32  1  0  0  0  0
 34 35  1  0  0  0  0
 35 37  1  0  0  0  0
 36 31  1  0  0  0  0
 37 36  1  0  0  0  0
 39 38  1  0  0  0  0
 40 46  1  0  0  0  0
 43 41  1  0  0  0  0
 43 40  1  0  0  0  0
 44 42  2  0  0  0  0
 45 41  1  1  0  0  0
 45 49  1  0  0  0  0
 45 44  1  0  0  0  0
 46 39  1  6  0  0  0
 46 44  1  0  0  0  0
 47 50  1  1  0  0  0
 47 49  1  0  0  0  0
 47 48  1  0  0  0  0
 49 48  1  1  0  0  0
 50 54  1  6  0  0  0
 52 50  1  0  0  0  0
 52 51  1  1  0  0  0
 53 52  1  0  0  0  0
 54 55  1  0  0  0  0
 55 56  1  0  0  0  0
M  END
>  <MODEL>
2

>  <REMARK>
 VINA RESULT:      -5.7      2.215      8.572
  Name = 
  23 active torsions:
  status: ('A' for Active; 'I' for Inactive)
    1  A    between atoms: C_2  and  N_3
    2  A    between atoms: C_2  and  C_24
    3  A    between atoms: N_3  and  C_16
    4  A    between atoms: N_3  and  C_53
    5  A    between atoms: C_10  and  C_32
    6  A    between atoms: C_11  and  C_16
    7  A    between atoms: C_11  and  C_32
    8  A    between atoms: C_13  and  C_28
    9  A    between atoms: C_13  and  C_50
   10  A    between atoms: C_15  and  C_27
   11  A    between atoms: C_22  and  C_31
   12  A    between atoms: C_23  and  C_29
   13  A    between atoms: C_23  and  C_46
   14  A    between atoms: C_24  and  C_52
   15  A    between atoms: C_26  and  C_37
   16  A    between atoms: C_27  and  C_31
   17  A    between atoms: C_27  and  C_40
   18  A    between atoms: C_28  and  C_38
   19  A    between atoms: C_28  and  C_47
   20  A    between atoms: C_29  and  C_39
   21  A    between atoms: C_37  and  N_51
   22  A    between atoms: C_43  and  C_54
   23  A    between atoms: C_46  and  C_53
                            x       y       z     vdW  Elec       q    Type
                         _______ _______ _______ _____ _____    ______ ____

>  <TORSDO>
F 23

$$$$
=
 OpenBabel11062421173D

 56 60  0  0  1  0  0  0  0  0999 V2000
  185.5870  177.7690  142.7230 N   0  0  0  0  0  0  0  0  0  0  0  0
  184.1450  177.7410  142.4980 C   0  0  0  0  0  2  0  0  0  0  0  0
  183.8060  178.5500  141.2620 C   0  0  0  0  0  2  0  0  0  0  0  0
  182.6260  177.9100  140.5530 C   0  0  0  0  0  2  0  0  0  0  0  0
  181.3380  178.1690  141.3250 C   0  0  1  0  0  3  0  0  0  0  0  0
  181.5320  179.2810  142.2400 N   0  0  0  0  0  1  0  0  0  0  0  0
  179.7990  179.9090  140.3090 C   0  0  0  0  0  1  0  0  0  0  0  0
  180.1550  178.4340  140.3890 C   0  0  2  0  0  3  0  0  0  0  0  0
  179.0420  177.7030  140.8060 O   0  0  0  0  0  1  0  0  0  0  0  0
  186.2530  178.2450  141.5160 C   0  0  0  0  0  2  0  0  0  0  0  0
  188.6000  178.2100  141.6830 O   0  0  0  0  0  0  0  0  0  0  0  0
  187.5940  177.5980  141.3620 C   0  0  0  0  0  0  0  0  0  0  0  0
  187.7140  176.2260  140.7790 C   0  0  0  0  0  2  0  0  0  0  0  0
  189.0440  173.0280  142.1280 C   0  0  0  0  0  2  0  0  0  0  0  0
  188.1060  175.2130  141.8450 C   0  0  1  0  0  3  0  0  0  0  0  0
  188.0260  173.7980  141.3180 C   0  0  0  0  0  2  0  0  0  0  0  0
  190.1240  174.0280  142.5120 C   0  0  1  0  0  0  0  0  0  0  0  0
  189.5500  175.4110  142.2510 C   0  0  0  0  0  2  0  0  0  0  0  0
  190.4260  173.9000  143.8710 O   0  0  0  0  0  1  0  0  0  0  0  0
  191.3820  173.8480  141.6630 C   0  0  0  0  0  2  0  0  0  0  0  0
  191.6110  172.4040  141.2090 C   0  0  1  0  0  3  0  0  0  0  0  0
  189.2730  171.8260  138.4320 C   0  0  0  0  0  2  0  0  0  0  0  0
  190.9470  173.4540  139.0020 C   0  0  0  0  0  2  0  0  0  0  0  0
  190.0270  173.0180  137.8860 C   0  0  0  0  0  2  0  0  0  0  0  0
  191.3100  172.1710  139.7210 C   0  0  0  0  0  3  0  0  0  0  0  0
  190.1810  171.1860  139.4660 C   0  0  0  0  0  2  0  0  0  0  0  0
  192.0880  171.0850  143.9400 C   0  0  0  0  0  1  0  0  0  0  0  0
  193.8670  171.7700  140.8310 O   0  0  0  0  0  0  0  0  0  0  0  0
  192.9310  171.8430  141.6740 C   0  0  0  0  0  0  0  0  0  0  0  0
  193.1720  171.4380  143.0370 N   0  0  0  0  0  0  0  0  0  0  0  0
  194.5330  171.2340  143.5130 C   0  0  0  0  0  2  0  0  0  0  0  0
  196.2600  172.0100  145.1600 C   0  0  0  0  0  2  0  0  0  0  0  0
  196.7290  173.1530  146.0760 C   0  0  0  0  0  2  0  0  0  0  0  0
  195.9870  174.4010  145.8630 N   0  0  0  0  0  2  0  0  0  0  0  0
  195.9320  174.6860  144.4310 C   0  0  0  0  0  2  0  0  0  0  0  0
  194.9360  172.3450  144.4700 C   0  0  0  0  0  3  0  0  0  0  0  0
  195.0360  173.6710  143.7100 C   0  0  0  0  0  2  0  0  0  0  0  0
  185.9320  178.6440  143.8530 C   0  0  0  0  0  2  0  0  0  0  0  0
  184.7260  179.2290  144.6030 C   0  0  0  0  0  2  0  0  0  0  0  0
  184.2520  177.5660  146.4240 C   0  0  0  0  0  2  0  0  0  0  0  0
  186.5270  176.6190  146.6100 N   0  0  0  0  0  2  0  0  0  0  0  0
  186.4430  179.6810  147.7250 C   0  0  0  0  0  2  0  0  0  0  0  0
  185.2130  176.4510  145.9830 C   0  0  0  0  0  2  0  0  0  0  0  0
  186.2310  179.0470  146.5700 C   0  0  0  0  0  0  0  0  0  0  0  0
  187.0980  177.8780  146.1360 C   0  0  1  0  0  3  0  0  0  0  0  0
  184.8120  178.9590  146.1000 C   0  0  1  0  0  3  0  0  0  0  0  0
  189.3250  176.6900  145.6580 C   0  0  2  0  0  3  0  0  0  0  0  0
  189.3210  178.0130  144.9090 C   0  0  0  0  0  2  0  0  0  0  0  0
  188.6360  177.9030  146.2570 C   0  0  1  0  0  3  0  0  0  0  0  0
  190.6670  176.4760  146.3500 C   0  0  1  0  0  3  0  0  0  0  0  0
  191.8030  175.1050  148.1300 C   0  0  0  0  0  1  0  0  0  0  0  0
  190.4950  175.7240  147.6740 C   0  0  2  0  0  3  0  0  0  0  0  0
  189.5080  174.7410  147.5800 O   0  0  0  0  0  1  0  0  0  0  0  0
  191.7310  175.8680  145.4190 C   0  0  0  0  0  2  0  0  0  0  0  0
  192.7630  176.8740  144.9230 C   0  0  0  0  0  2  0  0  0  0  0  0
  193.7740  177.0240  145.8710 O   0  0  0  0  0  1  0  0  0  0  0  0
  1 38  1  0  0  0  0
  2  1  1  0  0  0  0
  3  2  1  0  0  0  0
  4  3  1  0  0  0  0
  4  5  1  0  0  0  0
  5  6  1  1  0  0  0
  8  7  1  1  0  0  0
  8  9  1  0  0  0  0
  8  5  1  0  0  0  0
 10  1  1  0  0  0  0
 12 10  1  0  0  0  0
 12 11  2  0  0  0  0
 13 12  1  0  0  0  0
 14 17  1  0  0  0  0
 15 13  1  6  0  0  0
 15 18  1  0  0  0  0
 16 15  1  0  0  0  0
 16 14  1  0  0  0  0
 17 19  1  1  0  0  0
 18 17  1  0  0  0  0
 20 17  1  0  0  0  0
 21 20  1  6  0  0  0
 21 29  1  0  0  0  0
 22 26  1  0  0  0  0
 23 25  1  0  0  0  0
 24 22  1  0  0  0  0
 24 23  1  0  0  0  0
 25 21  1  0  0  0  0
 26 25  1  0  0  0  0
 28 29  2  0  0  0  0
 29 30  1  0  0  0  0
 30 31  1  0  0  0  0
 30 27  1  0  0  0  0
 31 36  1  0  0  0  0
 32 33  1  0  0  0  0
 34 33  1  0  0  0  0
 35 34  1  0  0  0  0
 36 32  1  0  0  0  0
 37 35  1  0  0  0  0
 37 36  1  0  0  0  0
 38 39  1  0  0  0  0
 43 40  1  0  0  0  0
 43 41  1  0  0  0  0
 44 42  2  0  0  0  0
 45 49  1  0  0  0  0
 45 44  1  1  0  0  0
 45 41  1  0  0  0  0
 46 39  1  6  0  0  0
 46 40  1  0  0  0  0
 46 44  1  0  0  0  0
 47 49  1  0  0  0  0
 47 50  1  1  0  0  0
 48 47  1  0  0  0  0
 49 48  1  6  0  0  0
 50 54  1  6  0  0  0
 50 52  1  0  0  0  0
 52 51  1  6  0  0  0
 53 52  1  0  0  0  0
 55 54  1  0  0  0  0
 55 56  1  0  0  0  0
M  END
>  <MODEL>
3

>  <REMARK>
 VINA RESULT:      -5.5      3.073      6.945
  Name = 
  23 active torsions:
  status: ('A' for Active; 'I' for Inactive)
    1  A    between atoms: C_2  and  N_3
    2  A    between atoms: C_2  and  C_24
    3  A    between atoms: N_3  and  C_16
    4  A    between atoms: N_3  and  C_53
    5  A    between atoms: C_10  and  C_32
    6  A    between atoms: C_11  and  C_16
    7  A    between atoms: C_11  and  C_32
    8  A    between atoms: C_13  and  C_28
    9  A    between atoms: C_13  and  C_50
   10  A    between atoms: C_15  and  C_27
   11  A    between atoms: C_22  and  C_31
   12  A    between atoms: C_23  and  C_29
   13  A    between atoms: C_23  and  C_46
   14  A    between atoms: C_24  and  C_52
   15  A    between atoms: C_26  and  C_37
   16  A    between atoms: C_27  and  C_31
   17  A    between atoms: C_27  and  C_40
   18  A    between atoms: C_28  and  C_38
   19  A    between atoms: C_28  and  C_47
   20  A    between atoms: C_29  and  C_39
   21  A    between atoms: C_37  and  N_51
   22  A    between atoms: C_43  and  C_54
   23  A    between atoms: C_46  and  C_53
                            x       y       z     vdW  Elec       q    Type
                         _______ _______ _______ _____ _____    ______ ____

>  <TORSDO>
F 23

$$$$
=
 OpenBabel11062421173D

 56 60  0  0  1  0  0  0  0  0999 V2000
  192.2410  174.5740  145.5400 N   0  0  0  0  0  0  0  0  0  0  0  0
  193.6550  174.8710  145.7420 C   0  0  0  0  0  2  0  0  0  0  0  0
  194.1510  175.7720  144.6270 C   0  0  0  0  0  2  0  0  0  0  0  0
  195.4010  175.1680  144.0140 C   0  0  0  0  0  2  0  0  0  0  0  0
  195.2570  175.0690  142.5010 C   0  0  1  0  0  3  0  0  0  0  0  0
  193.9730  175.6160  142.0950 N   0  0  0  0  0  1  0  0  0  0  0  0
  197.6630  175.8620  142.6190 C   0  0  0  0  0  1  0  0  0  0  0  0
  196.4050  175.7730  141.7700 C   0  0  2  0  0  3  0  0  0  0  0  0
  196.0100  177.0510  141.3770 O   0  0  0  0  0  1  0  0  0  0  0  0
  191.5860  175.7310  144.9410 C   0  0  0  0  0  2  0  0  0  0  0  0
  191.0220  176.6100  147.0490 O   0  0  0  0  0  0  0  0  0  0  0  0
  190.6440  176.3680  145.9140 C   0  0  0  0  0  0  0  0  0  0  0  0
  189.2330  176.6700  145.5210 C   0  0  0  0  0  2  0  0  0  0  0  0
  187.3860  176.3460  142.3120 C   0  0  0  0  0  2  0  0  0  0  0  0
  189.0560  176.5780  144.0120 C   0  0  1  0  0  3  0  0  0  0  0  0
  187.8190  175.7890  143.6490 C   0  0  0  0  0  2  0  0  0  0  0  0
  187.8440  177.7970  142.2890 C   0  0  1  0  0  0  0  0  0  0  0  0
  188.8420  177.9560  143.4250 C   0  0  0  0  0  2  0  0  0  0  0  0
  188.4760  178.0740  141.0740 O   0  0  0  0  0  1  0  0  0  0  0  0
  186.6760  178.7560  142.5200 C   0  0  0  0  0  2  0  0  0  0  0  0
  185.3630  178.0490  142.8580 C   0  0  1  0  0  3  0  0  0  0  0  0
  185.6490  177.7420  146.5110 C   0  0  0  0  0  2  0  0  0  0  0  0
  185.5470  179.5280  144.9060 C   0  0  0  0  0  2  0  0  0  0  0  0
  185.5370  179.2450  146.3900 C   0  0  0  0  0  2  0  0  0  0  0  0
  184.8610  178.3300  144.2830 C   0  0  0  0  0  3  0  0  0  0  0  0
  185.0440  177.1660  145.2430 C   0  0  0  0  0  2  0  0  0  0  0  0
  182.4480  178.8690  143.3650 C   0  0  0  0  0  1  0  0  0  0  0  0
  184.6940  178.1500  140.5830 O   0  0  0  0  0  0  0  0  0  0  0  0
  184.3150  178.2080  141.7850 C   0  0  0  0  0  0  0  0  0  0  0  0
  182.9130  178.3730  142.0800 N   0  0  0  0  0  0  0  0  0  0  0  0
  181.9160  178.1760  141.0370 C   0  0  0  0  0  2  0  0  0  0  0  0
  180.1720  179.8360  140.3280 C   0  0  0  0  0  2  0  0  0  0  0  0
  178.8110  180.4760  140.6510 C   0  0  0  0  0  2  0  0  0  0  0  0
  178.1040  179.8000  141.7450 N   0  0  0  0  0  2  0  0  0  0  0  0
  178.1120  178.3590  141.5010 C   0  0  0  0  0  2  0  0  0  0  0  0
  180.6070  178.8510  141.4170 C   0  0  0  0  0  3  0  0  0  0  0  0
  179.5290  177.7910  141.6560 C   0  0  0  0  0  2  0  0  0  0  0  0
  192.0620  173.4020  144.6700 C   0  0  0  0  0  2  0  0  0  0  0  0
  190.9450  173.5420  143.6260 C   0  0  0  0  0  2  0  0  0  0  0  0
  188.9390  172.2920  142.7750 C   0  0  0  0  0  2  0  0  0  0  0  0
  189.5320  172.3090  140.3750 N   0  0  0  0  0  2  0  0  0  0  0  0
  191.5350  170.3660  142.0600 C   0  0  0  0  0  2  0  0  0  0  0  0
  188.7750  173.0020  141.4210 C   0  0  0  0  0  2  0  0  0  0  0  0
  191.2150  171.6600  142.0290 C   0  0  0  0  0  0  0  0  0  0  0  0
  190.9500  172.3810  140.7180 C   0  0  1  0  0  3  0  0  0  0  0  0
  190.4160  172.1840  143.1830 C   0  0  1  0  0  3  0  0  0  0  0  0
  191.7980  173.3600  138.4990 C   0  0  2  0  0  3  0  0  0  0  0  0
  192.9820  173.2220  139.4420 C   0  0  0  0  0  2  0  0  0  0  0  0
  191.8590  172.2060  139.4830 C   0  0  1  0  0  3  0  0  0  0  0  0
  192.1670  172.8590  137.1070 C   0  0  1  0  0  3  0  0  0  0  0  0
  189.7190  172.4140  136.7180 C   0  0  0  0  0  1  0  0  0  0  0  0
  191.1270  171.8630  136.5820 C   0  0  2  0  0  3  0  0  0  0  0  0
  191.2230  170.6320  137.2330 O   0  0  0  0  0  1  0  0  0  0  0  0
  192.4910  174.0000  136.1260 C   0  0  0  0  0  2  0  0  0  0  0  0
  193.8460  174.6530  136.3670 C   0  0  0  0  0  2  0  0  0  0  0  0
  194.8330  173.6740  136.4750 O   0  0  0  0  0  1  0  0  0  0  0  0
  1  2  1  0  0  0  0
  3  2  1  0  0  0  0
  4  3  1  0  0  0  0
  5  6  1  6  0  0  0
  5  4  1  0  0  0  0
  8  5  1  0  0  0  0
  8  7  1  1  0  0  0
  9  8  1  0  0  0  0
 10  1  1  0  0  0  0
 10 12  1  0  0  0  0
 12 11  2  0  0  0  0
 13 12  1  0  0  0  0
 14 16  1  0  0  0  0
 15 13  1  1  0  0  0
 16 15  1  0  0  0  0
 17 19  1  6  0  0  0
 17 14  1  0  0  0  0
 17 20  1  0  0  0  0
 17 18  1  0  0  0  0
 18 15  1  0  0  0  0
 21 20  1  6  0  0  0
 21 25  1  0  0  0  0
 23 24  1  0  0  0  0
 24 22  1  0  0  0  0
 25 23  1  0  0  0  0
 25 26  1  0  0  0  0
 26 22  1  0  0  0  0
 28 29  2  0  0  0  0
 29 30  1  0  0  0  0
 29 21  1  0  0  0  0
 30 27  1  0  0  0  0
 31 36  1  0  0  0  0
 31 30  1  0  0  0  0
 32 33  1  0  0  0  0
 32 36  1  0  0  0  0
 33 34  1  0  0  0  0
 35 37  1  0  0  0  0
 35 34  1  0  0  0  0
 36 37  1  0  0  0  0
 38  1  1  0  0  0  0
 39 38  1  0  0  0  0
 40 46  1  0  0  0  0
 41 43  1  0  0  0  0
 43 40  1  0  0  0  0
 44 42  2  0  0  0  0
 44 46  1  0  0  0  0
 45 41  1  6  0  0  0
 45 44  1  0  0  0  0
 46 39  1  6  0  0  0
 47 50  1  6  0  0  0
 47 48  1  0  0  0  0
 47 49  1  0  0  0  0
 49 48  1  1  0  0  0
 49 45  1  0  0  0  0
 50 54  1  6  0  0  0
 52 51  1  1  0  0  0
 52 50  1  0  0  0  0
 52 53  1  0  0  0  0
 54 55  1  0  0  0  0
 55 56  1  0  0  0  0
M  END
>  <MODEL>
4

>  <REMARK>
 VINA RESULT:      -5.4      3.569     10.066
  Name = 
  23 active torsions:
  status: ('A' for Active; 'I' for Inactive)
    1  A    between atoms: C_2  and  N_3
    2  A    between atoms: C_2  and  C_24
    3  A    between atoms: N_3  and  C_16
    4  A    between atoms: N_3  and  C_53
    5  A    between atoms: C_10  and  C_32
    6  A    between atoms: C_11  and  C_16
    7  A    between atoms: C_11  and  C_32
    8  A    between atoms: C_13  and  C_28
    9  A    between atoms: C_13  and  C_50
   10  A    between atoms: C_15  and  C_27
   11  A    between atoms: C_22  and  C_31
   12  A    between atoms: C_23  and  C_29
   13  A    between atoms: C_23  and  C_46
   14  A    between atoms: C_24  and  C_52
   15  A    between atoms: C_26  and  C_37
   16  A    between atoms: C_27  and  C_31
   17  A    between atoms: C_27  and  C_40
   18  A    between atoms: C_28  and  C_38
   19  A    between atoms: C_28  and  C_47
   20  A    between atoms: C_29  and  C_39
   21  A    between atoms: C_37  and  N_51
   22  A    between atoms: C_43  and  C_54
   23  A    between atoms: C_46  and  C_53
                            x       y       z     vdW  Elec       q    Type
                         _______ _______ _______ _____ _____    ______ ____

>  <TORSDO>
F 23

$$$$
=
 OpenBabel11062421173D

 56 60  0  0  1  0  0  0  0  0999 V2000
  186.9040  177.4220  143.5720 N   0  0  0  0  0  0  0  0  0  0  0  0
  186.3190  178.6710  143.0940 C   0  0  0  0  0  2  0  0  0  0  0  0
  186.0520  179.5920  144.2690 C   0  0  0  0  0  2  0  0  0  0  0  0
  185.1880  178.8680  145.2840 C   0  0  0  0  0  2  0  0  0  0  0  0
  185.9980  178.5340  146.5300 C   0  0  1  0  0  3  0  0  0  0  0  0
  185.8020  179.5690  147.5330 N   0  0  0  0  0  1  0  0  0  0  0  0
  186.8680  176.3530  147.4880 C   0  0  0  0  0  1  0  0  0  0  0  0
  185.6390  177.1550  147.0940 C   0  0  2  0  0  3  0  0  0  0  0  0
  184.8870  176.4390  146.1630 O   0  0  0  0  0  1  0  0  0  0  0  0
  186.5530  176.3440  142.6540 C   0  0  0  0  0  2  0  0  0  0  0  0
  187.7420  177.3830  140.9100 O   0  0  0  0  0  0  0  0  0  0  0  0
  187.4720  176.3350  141.4730 C   0  0  0  0  0  0  0  0  0  0  0  0
  188.0280  175.0470  140.9510 C   0  0  0  0  0  2  0  0  0  0  0  0
  190.2490  172.8590  142.9740 C   0  0  0  0  0  2  0  0  0  0  0  0
  189.2860  174.6500  141.7090 C   0  0  1  0  0  3  0  0  0  0  0  0
  188.9780  173.6600  142.8100 C   0  0  0  0  0  2  0  0  0  0  0  0
  190.9260  172.8540  141.6110 C   0  0  1  0  0  0  0  0  0  0  0  0
  190.2520  173.9390  140.7860 C   0  0  0  0  0  2  0  0  0  0  0  0
  192.2830  173.1570  141.7560 O   0  0  0  0  0  1  0  0  0  0  0  0
  190.7470  171.5120  140.9020 C   0  0  0  0  0  2  0  0  0  0  0  0
  192.0350  170.9780  140.2720 C   0  0  1  0  0  3  0  0  0  0  0  0
  193.9540  169.7150  143.1420 C   0  0  0  0  0  2  0  0  0  0  0  0
  191.7850  169.3310  142.1790 C   0  0  0  0  0  2  0  0  0  0  0  0
  192.7370  168.8230  143.2370 C   0  0  0  0  0  2  0  0  0  0  0  0
  192.6830  169.8360  141.0680 C   0  0  0  0  0  3  0  0  0  0  0  0
  194.0130  170.2030  141.7060 C   0  0  0  0  0  2  0  0  0  0  0  0
  193.3710  172.6400  138.0630 C   0  0  0  0  0  1  0  0  0  0  0  0
  191.3270  169.6430  138.4410 O   0  0  0  0  0  0  0  0  0  0  0  0
  191.9010  170.7110  138.7930 C   0  0  0  0  0  0  0  0  0  0  0  0
  192.3550  171.6380  137.7870 N   0  0  0  0  0  0  0  0  0  0  0  0
  191.9020  171.5050  136.4090 C   0  0  0  0  0  2  0  0  0  0  0  0
  190.0120  172.8420  137.3790 C   0  0  0  0  0  2  0  0  0  0  0  0
  188.9420  173.9150  137.1200 C   0  0  0  0  0  2  0  0  0  0  0  0
  189.1060  174.5890  135.8270 N   0  0  0  0  0  2  0  0  0  0  0  0
  190.5000  175.0000  135.6750 C   0  0  0  0  0  2  0  0  0  0  0  0
  190.8010  172.5120  136.1100 C   0  0  0  0  0  3  0  0  0  0  0  0
  191.4090  173.7770  135.5000 C   0  0  0  0  0  2  0  0  0  0  0  0
  188.3680  177.5240  143.6730 C   0  0  0  0  0  2  0  0  0  0  0  0
  188.9940  176.6820  144.7940 C   0  0  0  0  0  2  0  0  0  0  0  0
  190.2370  177.2010  146.9130 C   0  0  0  0  0  2  0  0  0  0  0  0
  191.9000  175.3770  146.7790 N   0  0  0  0  0  2  0  0  0  0  0  0
  192.4440  177.6260  144.4820 C   0  0  0  0  0  2  0  0  0  0  0  0
  190.6000  175.7670  147.3320 C   0  0  0  0  0  2  0  0  0  0  0  0
  191.4750  176.7700  144.8120 C   0  0  0  0  0  0  0  0  0  0  0  0
  191.7890  175.3740  145.3210 C   0  0  1  0  0  3  0  0  0  0  0  0
  190.2230  177.3600  145.3850 C   0  0  1  0  0  3  0  0  0  0  0  0
  194.1690  174.4100  145.4130 C   0  0  2  0  0  3  0  0  0  0  0  0
  193.1830  173.2550  145.4950 C   0  0  0  0  0  2  0  0  0  0  0  0
  192.8530  174.4740  144.6580 C   0  0  1  0  0  3  0  0  0  0  0  0
  195.2950  174.0780  144.4400 C   0  0  1  0  0  3  0  0  0  0  0  0
  195.8560  174.2900  141.9940 C   0  0  0  0  0  1  0  0  0  0  0  0
  195.2410  174.9770  143.2000 C   0  0  2  0  0  3  0  0  0  0  0  0
  195.8730  176.2010  143.4270 O   0  0  0  0  0  1  0  0  0  0  0  0
  196.6760  174.0290  145.1170 C   0  0  0  0  0  2  0  0  0  0  0  0
  197.2900  172.6340  145.1650 C   0  0  0  0  0  2  0  0  0  0  0  0
  196.8040  171.9390  146.2710 O   0  0  0  0  0  1  0  0  0  0  0  0
  1 38  1  0  0  0  0
  2  1  1  0  0  0  0
  2  3  1  0  0  0  0
  3  4  1  0  0  0  0
  4  5  1  0  0  0  0
  5  8  1  0  0  0  0
  5  6  1  1  0  0  0
  8  7  1  6  0  0  0
  9  8  1  0  0  0  0
 10  1  1  0  0  0  0
 11 12  2  0  0  0  0
 12 10  1  0  0  0  0
 13 12  1  0  0  0  0
 15 13  1  6  0  0  0
 15 16  1  0  0  0  0
 16 14  1  0  0  0  0
 17 19  1  1  0  0  0
 17 14  1  0  0  0  0
 18 17  1  0  0  0  0
 18 15  1  0  0  0  0
 20 17  1  0  0  0  0
 21 20  1  1  0  0  0
 21 25  1  0  0  0  0
 22 24  1  0  0  0  0
 23 24  1  0  0  0  0
 25 26  1  0  0  0  0
 25 23  1  0  0  0  0
 26 22  1  0  0  0  0
 28 29  2  0  0  0  0
 29 21  1  0  0  0  0
 30 27  1  0  0  0  0
 30 29  1  0  0  0  0
 31 30  1  0  0  0  0
 33 32  1  0  0  0  0
 34 33  1  0  0  0  0
 35 34  1  0  0  0  0
 36 31  1  0  0  0  0
 36 32  1  0  0  0  0
 37 35  1  0  0  0  0
 37 36  1  0  0  0  0
 38 39  1  0  0  0  0
 40 43  1  0  0  0  0
 41 43  1  0  0  0  0
 42 44  2  0  0  0  0
 44 46  1  0  0  0  0
 45 44  1  6  0  0  0
 45 41  1  0  0  0  0
 46 39  1  6  0  0  0
 46 40  1  0  0  0  0
 47 50  1  6  0  0  0
 47 48  1  0  0  0  0
 49 45  1  0  0  0  0
 49 47  1  0  0  0  0
 49 48  1  1  0  0  0
 50 54  1  1  0  0  0
 52 51  1  6  0  0  0
 52 53  1  0  0  0  0
 52 50  1  0  0  0  0
 54 55  1  0  0  0  0
 55 56  1  0  0  0  0
M  END
>  <MODEL>
5

>  <REMARK>
 VINA RESULT:      -5.3      2.494      6.872
  Name = 
  23 active torsions:
  status: ('A' for Active; 'I' for Inactive)
    1  A    between atoms: C_2  and  N_3
    2  A    between atoms: C_2  and  C_24
    3  A    between atoms: N_3  and  C_16
    4  A    between atoms: N_3  and  C_53
    5  A    between atoms: C_10  and  C_32
    6  A    between atoms: C_11  and  C_16
    7  A    between atoms: C_11  and  C_32
    8  A    between atoms: C_13  and  C_28
    9  A    between atoms: C_13  and  C_50
   10  A    between atoms: C_15  and  C_27
   11  A    between atoms: C_22  and  C_31
   12  A    between atoms: C_23  and  C_29
   13  A    between atoms: C_23  and  C_46
   14  A    between atoms: C_24  and  C_52
   15  A    between atoms: C_26  and  C_37
   16  A    between atoms: C_27  and  C_31
   17  A    between atoms: C_27  and  C_40
   18  A    between atoms: C_28  and  C_38
   19  A    between atoms: C_28  and  C_47
   20  A    between atoms: C_29  and  C_39
   21  A    between atoms: C_37  and  N_51
   22  A    between atoms: C_43  and  C_54
   23  A    between atoms: C_46  and  C_53
                            x       y       z     vdW  Elec       q    Type
                         _______ _______ _______ _____ _____    ______ ____

>  <TORSDO>
F 23

$$$$
=
 OpenBabel11062421173D

 56 60  0  0  1  0  0  0  0  0999 V2000
  191.6460  170.6270  137.5680 N   0  0  0  0  0  0  0  0  0  0  0  0
  190.6950  170.4900  136.4690 C   0  0  0  0  0  2  0  0  0  0  0  0
  189.6010  171.5300  136.6100 C   0  0  0  0  0  2  0  0  0  0  0  0
  189.8580  172.3610  137.8530 C   0  0  0  0  0  2  0  0  0  0  0  0
  189.7480  173.8460  137.5320 C   0  0  1  0  0  3  0  0  0  0  0  0
  190.4550  174.1320  136.2950 N   0  0  0  0  0  1  0  0  0  0  0  0
  188.0840  175.3820  136.3920 C   0  0  0  0  0  1  0  0  0  0  0  0
  188.2890  174.3060  137.4450 C   0  0  2  0  0  3  0  0  0  0  0  0
  187.8600  174.7740  138.6870 O   0  0  0  0  0  1  0  0  0  0  0  0
  191.5720  169.4440  138.4190 C   0  0  0  0  0  2  0  0  0  0  0  0
  193.1930  168.6330  139.9200 O   0  0  0  0  0  0  0  0  0  0  0  0
  192.4940  169.5780  139.5900 C   0  0  0  0  0  0  0  0  0  0  0  0
  192.5350  170.8440  140.3860 C   0  0  0  0  0  2  0  0  0  0  0  0
  191.0740  171.6490  143.7070 C   0  0  0  0  0  2  0  0  0  0  0  0
  191.5010  170.8180  141.5030 C   0  0  1  0  0  3  0  0  0  0  0  0
  192.1460  171.0080  142.8570 C   0  0  0  0  0  2  0  0  0  0  0  0
  190.1980  172.4490  142.7550 C   0  0  1  0  0  0  0  0  0  0  0  0
  190.5350  171.9740  141.3500 C   0  0  0  0  0  2  0  0  0  0  0  0
  188.8500  172.1900  143.0210 O   0  0  0  0  0  1  0  0  0  0  0  0
  190.4870  173.9470  142.8520 C   0  0  0  0  0  2  0  0  0  0  0  0
  190.7270  174.4310  144.2830 C   0  0  1  0  0  3  0  0  0  0  0  0
  193.2770  176.7270  145.6010 C   0  0  0  0  0  2  0  0  0  0  0  0
  192.6090  174.4500  145.9780 C   0  0  0  0  0  2  0  0  0  0  0  0
  193.6730  175.4620  146.3290 C   0  0  0  0  0  2  0  0  0  0  0  0
  192.1880  174.8100  144.5680 C   0  0  0  0  0  3  0  0  0  0  0  0
  192.4920  176.2880  144.3800 C   0  0  0  0  0  2  0  0  0  0  0  0
  189.4170  176.5230  142.4580 C   0  0  0  0  0  1  0  0  0  0  0  0
  189.2620  175.3500  145.9080 O   0  0  0  0  0  0  0  0  0  0  0  0
  189.7170  175.4550  144.7360 C   0  0  0  0  0  0  0  0  0  0  0  0
  189.2950  176.5560  143.9070 N   0  0  0  0  0  0  0  0  0  0  0  0
  188.5990  177.6920  144.4950 C   0  0  0  0  0  2  0  0  0  0  0  0
  186.2970  177.9800  145.4530 C   0  0  0  0  0  2  0  0  0  0  0  0
  184.7860  177.9790  145.1700 C   0  0  0  0  0  2  0  0  0  0  0  0
  184.4700  177.9240  143.7380 N   0  0  0  0  0  2  0  0  0  0  0  0
  185.2720  178.9220  143.0320 C   0  0  0  0  0  2  0  0  0  0  0  0
  187.1070  177.6100  144.2090 C   0  0  0  0  0  3  0  0  0  0  0  0
  186.7540  178.5270  143.0350 C   0  0  0  0  0  2  0  0  0  0  0  0
  193.0200  170.7870  137.0660 C   0  0  0  0  0  2  0  0  0  0  0  0
  193.4570  172.2430  136.8460 C   0  0  0  0  0  2  0  0  0  0  0  0
  195.4480  173.7590  136.6400 C   0  0  0  0  0  2  0  0  0  0  0  0
  195.1580  174.9780  138.7710 N   0  0  0  0  0  2  0  0  0  0  0  0
  196.0480  171.8880  139.3060 C   0  0  0  0  0  2  0  0  0  0  0  0
  194.8700  175.0030  137.3340 C   0  0  0  0  0  2  0  0  0  0  0  0
  195.0220  172.5350  138.7510 C   0  0  0  0  0  0  0  0  0  0  0  0
  194.4780  173.8210  139.3490 C   0  0  1  0  0  3  0  0  0  0  0  0
  194.9060  172.4620  137.2590 C   0  0  1  0  0  3  0  0  0  0  0  0
  195.3490  174.7030  141.5990 C   0  0  2  0  0  3  0  0  0  0  0  0
  194.0610  175.4370  141.2670 C   0  0  0  0  0  2  0  0  0  0  0  0
  194.2310  173.9860  140.8640 C   0  0  1  0  0  3  0  0  0  0  0  0
  195.3520  174.2710  143.0610 C   0  0  1  0  0  3  0  0  0  0  0  0
  195.3990  172.3030  144.6320 C   0  0  0  0  0  1  0  0  0  0  0  0
  195.5560  172.7570  143.1920 C   0  0  2  0  0  3  0  0  0  0  0  0
  196.8020  172.3630  142.7000 O   0  0  0  0  0  1  0  0  0  0  0  0
  196.3060  175.1080  143.9320 C   0  0  0  0  0  2  0  0  0  0  0  0
  197.4460  175.7510  143.1520 C   0  0  0  0  0  2  0  0  0  0  0  0
  197.3580  177.1400  143.2400 O   0  0  0  0  0  1  0  0  0  0  0  0
  1 10  1  0  0  0  0
  2  3  1  0  0  0  0
  2  1  1  0  0  0  0
  3  4  1  0  0  0  0
  5  6  1  6  0  0  0
  5  4  1  0  0  0  0
  8  7  1  6  0  0  0
  8  5  1  0  0  0  0
  8  9  1  0  0  0  0
 10 12  1  0  0  0  0
 12 11  2  0  0  0  0
 12 13  1  0  0  0  0
 15 13  1  6  0  0  0
 15 16  1  0  0  0  0
 16 14  1  0  0  0  0
 17 20  1  0  0  0  0
 17 19  1  1  0  0  0
 17 14  1  0  0  0  0
 18 15  1  0  0  0  0
 18 17  1  0  0  0  0
 21 20  1  6  0  0  0
 21 25  1  0  0  0  0
 21 29  1  0  0  0  0
 22 24  1  0  0  0  0
 23 24  1  0  0  0  0
 25 23  1  0  0  0  0
 26 25  1  0  0  0  0
 26 22  1  0  0  0  0
 27 30  1  0  0  0  0
 29 28  2  0  0  0  0
 30 31  1  0  0  0  0
 30 29  1  0  0  0  0
 33 32  1  0  0  0  0
 34 33  1  0  0  0  0
 35 37  1  0  0  0  0
 35 34  1  0  0  0  0
 36 31  1  0  0  0  0
 36 32  1  0  0  0  0
 37 36  1  0  0  0  0
 38  1  1  0  0  0  0
 39 38  1  0  0  0  0
 40 46  1  0  0  0  0
 40 43  1  0  0  0  0
 41 45  1  0  0  0  0
 43 41  1  0  0  0  0
 44 42  2  0  0  0  0
 45 44  1  1  0  0  0
 45 49  1  0  0  0  0
 46 39  1  1  0  0  0
 46 44  1  0  0  0  0
 47 50  1  1  0  0  0
 48 47  1  0  0  0  0
 49 48  1  6  0  0  0
 49 47  1  0  0  0  0
 50 52  1  0  0  0  0
 50 54  1  1  0  0  0
 52 51  1  1  0  0  0
 53 52  1  0  0  0  0
 55 56  1  0  0  0  0
 55 54  1  0  0  0  0
M  END
>  <MODEL>
6

>  <REMARK>
 VINA RESULT:      -5.3      2.711      8.178
  Name = 
  23 active torsions:
  status: ('A' for Active; 'I' for Inactive)
    1  A    between atoms: C_2  and  N_3
    2  A    between atoms: C_2  and  C_24
    3  A    between atoms: N_3  and  C_16
    4  A    between atoms: N_3  and  C_53
    5  A    between atoms: C_10  and  C_32
    6  A    between atoms: C_11  and  C_16
    7  A    between atoms: C_11  and  C_32
    8  A    between atoms: C_13  and  C_28
    9  A    between atoms: C_13  and  C_50
   10  A    between atoms: C_15  and  C_27
   11  A    between atoms: C_22  and  C_31
   12  A    between atoms: C_23  and  C_29
   13  A    between atoms: C_23  and  C_46
   14  A    between atoms: C_24  and  C_52
   15  A    between atoms: C_26  and  C_37
   16  A    between atoms: C_27  and  C_31
   17  A    between atoms: C_27  and  C_40
   18  A    between atoms: C_28  and  C_38
   19  A    between atoms: C_28  and  C_47
   20  A    between atoms: C_29  and  C_39
   21  A    between atoms: C_37  and  N_51
   22  A    between atoms: C_43  and  C_54
   23  A    between atoms: C_46  and  C_53
                            x       y       z     vdW  Elec       q    Type
                         _______ _______ _______ _____ _____    ______ ____

>  <TORSDO>
F 23

$$$$
=
 OpenBabel11062421173D

 56 60  0  0  1  0  0  0  0  0999 V2000
  194.1390  172.6180  144.5880 N   0  0  0  0  0  0  0  0  0  0  0  0
  195.5510  172.8790  144.3210 C   0  0  0  0  0  2  0  0  0  0  0  0
  195.8370  172.6710  142.8460 C   0  0  0  0  0  2  0  0  0  0  0  0
  196.8430  173.7070  142.3810 C   0  0  0  0  0  2  0  0  0  0  0  0
  196.3160  175.1130  142.6400 C   0  0  1  0  0  3  0  0  0  0  0  0
  197.2770  175.8550  143.4400 N   0  0  0  0  0  1  0  0  0  0  0  0
  194.5600  176.3230  141.2680 C   0  0  0  0  0  1  0  0  0  0  0  0
  196.0040  175.8550  141.3370 C   0  0  2  0  0  3  0  0  0  0  0  0
  196.2870  175.0400  140.2410 O   0  0  0  0  0  1  0  0  0  0  0  0
  193.9570  171.1980  144.8650 C   0  0  0  0  0  2  0  0  0  0  0  0
  191.7830  171.4470  143.9970 O   0  0  0  0  0  0  0  0  0  0  0  0
  192.7160  170.6860  144.2010 C   0  0  0  0  0  0  0  0  0  0  0  0
  192.5940  169.2440  143.8260 C   0  0  0  0  0  2  0  0  0  0  0  0
  191.1820  169.7630  140.4270 C   0  0  0  0  0  2  0  0  0  0  0  0
  192.4850  169.0810  142.3160 C   0  0  1  0  0  3  0  0  0  0  0  0
  191.0590  169.2510  141.8440 C   0  0  0  0  0  2  0  0  0  0  0  0
  192.4890  170.5390  140.3680 C   0  0  1  0  0  0  0  0  0  0  0  0
  193.2750  170.1640  141.6140 C   0  0  0  0  0  2  0  0  0  0  0  0
  193.2110  170.1630  139.2320 O   0  0  0  0  0  1  0  0  0  0  0  0
  192.2450  172.0480  140.3750 C   0  0  0  0  0  2  0  0  0  0  0  0
  190.9840  172.4660  139.6150 C   0  0  1  0  0  3  0  0  0  0  0  0
  188.7520  173.7560  142.2360 C   0  0  0  0  0  2  0  0  0  0  0  0
  190.9750  174.2150  141.4470 C   0  0  0  0  0  2  0  0  0  0  0  0
  189.9080  174.7200  142.3890 C   0  0  0  0  0  2  0  0  0  0  0  0
  190.2080  173.6070  140.2900 C   0  0  0  0  0  3  0  0  0  0  0  0
  188.8480  173.1960  140.8290 C   0  0  0  0  0  2  0  0  0  0  0  0
  193.1120  174.3270  138.4170 C   0  0  0  0  0  1  0  0  0  0  0  0
  190.6140  171.8970  137.3410 O   0  0  0  0  0  0  0  0  0  0  0  0
  191.2230  172.6610  138.1390 C   0  0  0  0  0  0  0  0  0  0  0  0
  192.0710  173.7030  137.6160 N   0  0  0  0  0  0  0  0  0  0  0  0
  192.0000  174.0690  136.2080 C   0  0  0  0  0  2  0  0  0  0  0  0
  193.8020  175.5070  135.2170 C   0  0  0  0  0  2  0  0  0  0  0  0
  194.2790  176.9410  134.9290 C   0  0  0  0  0  2  0  0  0  0  0  0
  193.2500  177.9520  135.1930 N   0  0  0  0  0  2  0  0  0  0  0  0
  191.9980  177.5360  134.5650 C   0  0  0  0  0  2  0  0  0  0  0  0
  192.4890  175.4950  136.0020 C   0  0  0  0  0  3  0  0  0  0  0  0
  191.4140  176.3110  135.2800 C   0  0  0  0  0  2  0  0  0  0  0  0
  193.6600  173.4080  145.7330 C   0  0  0  0  0  2  0  0  0  0  0  0
  192.5340  174.3990  145.4030 C   0  0  0  0  0  2  0  0  0  0  0  0
  193.3350  176.7280  144.9140 C   0  0  0  0  0  2  0  0  0  0  0  0
  191.1200  177.7980  144.6740 N   0  0  0  0  0  2  0  0  0  0  0  0
  191.6820  176.9570  147.7730 C   0  0  0  0  0  2  0  0  0  0  0  0
  192.2220  177.1630  143.9470 C   0  0  0  0  0  2  0  0  0  0  0  0
  191.5570  176.3460  146.5950 C   0  0  0  0  0  0  0  0  0  0  0  0
  190.5340  176.8010  145.5690 C   0  0  1  0  0  3  0  0  0  0  0  0
  192.8060  175.7750  145.9960 C   0  0  1  0  0  3  0  0  0  0  0  0
  188.0660  176.8610  144.8590 C   0  0  2  0  0  3  0  0  0  0  0  0
  188.1980  175.9150  146.0410 C   0  0  0  0  0  2  0  0  0  0  0  0
  189.0790  177.1450  145.9530 C   0  0  1  0  0  3  0  0  0  0  0  0
  186.8560  177.7710  145.0400 C   0  0  1  0  0  3  0  0  0  0  0  0
  185.3680  179.4820  143.9430 C   0  0  0  0  0  1  0  0  0  0  0  0
  186.5280  178.5230  143.7450 C   0  0  2  0  0  3  0  0  0  0  0  0
  186.2460  177.6420  142.6990 O   0  0  0  0  0  1  0  0  0  0  0  0
  185.6500  177.0490  145.6660 C   0  0  0  0  0  2  0  0  0  0  0  0
  185.1140  177.7210  146.9240 C   0  0  0  0  0  2  0  0  0  0  0  0
  185.9560  177.4510  148.0030 O   0  0  0  0  0  1  0  0  0  0  0  0
  1 10  1  0  0  0  0
  1 38  1  0  0  0  0
  2  1  1  0  0  0  0
  3  2  1  0  0  0  0
  4  5  1  0  0  0  0
  4  3  1  0  0  0  0
  5  6  1  6  0  0  0
  8  7  1  1  0  0  0
  8  5  1  0  0  0  0
  9  8  1  0  0  0  0
 11 12  2  0  0  0  0
 12 10  1  0  0  0  0
 13 12  1  0  0  0  0
 14 16  1  0  0  0  0
 15 13  1  1  0  0  0
 16 15  1  0  0  0  0
 17 19  1  6  0  0  0
 17 20  1  0  0  0  0
 17 14  1  0  0  0  0
 17 18  1  0  0  0  0
 18 15  1  0  0  0  0
 21 25  1  0  0  0  0
 21 20  1  1  0  0  0
 22 24  1  0  0  0  0
 23 24  1  0  0  0  0
 25 26  1  0  0  0  0
 25 23  1  0  0  0  0
 26 22  1  0  0  0  0
 28 29  2  0  0  0  0
 29 21  1  0  0  0  0
 30 29  1  0  0  0  0
 30 27  1  0  0  0  0
 31 30  1  0  0  0  0
 32 36  1  0  0  0  0
 33 34  1  0  0  0  0
 33 32  1  0  0  0  0
 35 34  1  0  0  0  0
 35 37  1  0  0  0  0
 36 31  1  0  0  0  0
 37 36  1  0  0  0  0
 39 38  1  0  0  0  0
 40 46  1  0  0  0  0
 43 41  1  0  0  0  0
 43 40  1  0  0  0  0
 44 42  2  0  0  0  0
 45 41  1  1  0  0  0
 45 49  1  0  0  0  0
 45 44  1  0  0  0  0
 46 39  1  6  0  0  0
 46 44  1  0  0  0  0
 47 50  1  1  0  0  0
 47 49  1  0  0  0  0
 47 48  1  0  0  0  0
 49 48  1  1  0  0  0
 50 54  1  6  0  0  0
 52 51  1  1  0  0  0
 52 50  1  0  0  0  0
 53 52  1  0  0  0  0
 54 55  1  0  0  0  0
 55 56  1  0  0  0  0
M  END
>  <MODEL>
7

>  <REMARK>
 VINA RESULT:      -5.0      2.720      9.869
  Name = 
  23 active torsions:
  status: ('A' for Active; 'I' for Inactive)
    1  A    between atoms: C_2  and  N_3
    2  A    between atoms: C_2  and  C_24
    3  A    between atoms: N_3  and  C_16
    4  A    between atoms: N_3  and  C_53
    5  A    between atoms: C_10  and  C_32
    6  A    between atoms: C_11  and  C_16
    7  A    between atoms: C_11  and  C_32
    8  A    between atoms: C_13  and  C_28
    9  A    between atoms: C_13  and  C_50
   10  A    between atoms: C_15  and  C_27
   11  A    between atoms: C_22  and  C_31
   12  A    between atoms: C_23  and  C_29
   13  A    between atoms: C_23  and  C_46
   14  A    between atoms: C_24  and  C_52
   15  A    between atoms: C_26  and  C_37
   16  A    between atoms: C_27  and  C_31
   17  A    between atoms: C_27  and  C_40
   18  A    between atoms: C_28  and  C_38
   19  A    between atoms: C_28  and  C_47
   20  A    between atoms: C_29  and  C_39
   21  A    between atoms: C_37  and  N_51
   22  A    between atoms: C_43  and  C_54
   23  A    between atoms: C_46  and  C_53
                            x       y       z     vdW  Elec       q    Type
                         _______ _______ _______ _____ _____    ______ ____

>  <TORSDO>
F 23

$$$$
=
 OpenBabel11062421173D

 56 60  0  0  1  0  0  0  0  0999 V2000
  193.2450  172.9690  144.3800 N   0  0  0  0  0  0  0  0  0  0  0  0
  193.9010  171.9630  145.2100 C   0  0  0  0  0  2  0  0  0  0  0  0
  193.7470  170.5960  144.5720 C   0  0  0  0  0  2  0  0  0  0  0  0
  195.0860  169.8820  144.5900 C   0  0  0  0  0  2  0  0  0  0  0  0
  195.8020  170.1270  145.9130 C   0  0  1  0  0  3  0  0  0  0  0  0
  195.4970  169.0500  146.8400 N   0  0  0  0  0  1  0  0  0  0  0  0
  197.6780  171.4830  144.8780 C   0  0  0  0  0  1  0  0  0  0  0  0
  197.3150  170.2740  145.7250 C   0  0  2  0  0  3  0  0  0  0  0  0
  197.8400  169.1190  145.1480 O   0  0  0  0  0  1  0  0  0  0  0  0
  194.2490  173.8870  143.8530 C   0  0  0  0  0  2  0  0  0  0  0  0
  195.3080  175.5650  145.1170 O   0  0  0  0  0  0  0  0  0  0  0  0
  194.2610  175.1620  144.6350 C   0  0  0  0  0  0  0  0  0  0  0  0
  192.9950  175.9240  144.8690 C   0  0  0  0  0  2  0  0  0  0  0  0
  191.0820  175.8680  148.0550 C   0  0  0  0  0  2  0  0  0  0  0  0
  192.1940  175.3110  146.0090 C   0  0  1  0  0  3  0  0  0  0  0  0
  192.3640  176.0980  147.2890 C   0  0  0  0  0  2  0  0  0  0  0  0
  190.0000  175.6340  147.0120 C   0  0  1  0  0  0  0  0  0  0  0  0
  190.7140  175.3630  145.6970 C   0  0  0  0  0  2  0  0  0  0  0  0
  189.2360  174.5180  147.3640 O   0  0  0  0  0  1  0  0  0  0  0  0
  189.1080  176.8640  146.8450 C   0  0  0  0  0  2  0  0  0  0  0  0
  187.8210  176.5850  146.0660 C   0  0  1  0  0  3  0  0  0  0  0  0
  185.3960  179.0340  147.3440 C   0  0  0  0  0  2  0  0  0  0  0  0
  185.3450  177.0970  145.9220 C   0  0  0  0  0  2  0  0  0  0  0  0
  184.4550  178.0980  146.6210 C   0  0  0  0  0  2  0  0  0  0  0  0
  186.5430  176.9470  146.8370 C   0  0  0  0  0  3  0  0  0  0  0  0
  186.6500  178.2320  147.6420 C   0  0  0  0  0  2  0  0  0  0  0  0
  186.8870  175.0170  143.5970 C   0  0  0  0  0  1  0  0  0  0  0  0
  188.1600  178.3180  144.4800 O   0  0  0  0  0  0  0  0  0  0  0  0
  187.8640  177.1030  144.6500 C   0  0  0  0  0  0  0  0  0  0  0  0
  187.6300  176.2630  143.5030 N   0  0  0  0  0  0  0  0  0  0  0  0
  188.0160  176.7130  142.1730 C   0  0  0  0  0  2  0  0  0  0  0  0
  186.0900  178.1430  141.4340 C   0  0  0  0  0  2  0  0  0  0  0  0
  184.9000  178.2840  140.4700 C   0  0  0  0  0  2  0  0  0  0  0  0
  184.8870  177.2610  139.4190 N   0  0  0  0  0  2  0  0  0  0  0  0
  186.2160  177.1770  138.8160 C   0  0  0  0  0  2  0  0  0  0  0  0
  186.7990  176.7970  141.2640 C   0  0  0  0  0  3  0  0  0  0  0  0
  187.2250  176.5840  139.8090 C   0  0  0  0  0  2  0  0  0  0  0  0
  192.5140  172.3460  143.2670 C   0  0  0  0  0  2  0  0  0  0  0  0
  191.0470  172.7830  143.1380 C   0  0  0  0  0  2  0  0  0  0  0  0
  188.7800  172.2420  142.2030 C   0  0  0  0  0  2  0  0  0  0  0  0
  189.2850  172.6890  139.8250 N   0  0  0  0  0  2  0  0  0  0  0  0
  190.8290  170.0120  140.8650 C   0  0  0  0  0  2  0  0  0  0  0  0
  188.7450  173.2670  141.0580 C   0  0  0  0  0  2  0  0  0  0  0  0
  190.8200  171.3160  141.1480 C   0  0  0  0  0  0  0  0  0  0  0  0
  190.6910  172.3640  140.0560 C   0  0  1  0  0  3  0  0  0  0  0  0
  190.2020  171.7170  142.4520 C   0  0  1  0  0  3  0  0  0  0  0  0
  190.6380  172.3070  137.4880 C   0  0  2  0  0  3  0  0  0  0  0  0
  191.3870  173.5570  137.9210 C   0  0  0  0  0  2  0  0  0  0  0  0
  191.4950  172.2870  138.7400 C   0  0  1  0  0  3  0  0  0  0  0  0
  191.3810  171.6090  136.3530 C   0  0  1  0  0  3  0  0  0  0  0  0
  191.3540  169.2560  137.2490 C   0  0  0  0  0  1  0  0  0  0  0  0
  190.8650  170.1810  136.1490 C   0  0  2  0  0  3  0  0  0  0  0  0
  191.2340  169.6760  134.9010 O   0  0  0  0  0  1  0  0  0  0  0  0
  191.4290  172.4470  135.0640 C   0  0  0  0  0  2  0  0  0  0  0  0
  192.8390  172.8390  134.6360 C   0  0  0  0  0  2  0  0  0  0  0  0
  193.7760  172.2020  135.4500 O   0  0  0  0  0  1  0  0  0  0  0  0
  1  2  1  0  0  0  0
  3  4  1  0  0  0  0
  3  2  1  0  0  0  0
  4  5  1  0  0  0  0
  5  6  1  1  0  0  0
  8  7  1  6  0  0  0
  8  5  1  0  0  0  0
  9  8  1  0  0  0  0
 10  1  1  0  0  0  0
 10 12  1  0  0  0  0
 12 13  1  0  0  0  0
 12 11  2  0  0  0  0
 15 13  1  6  0  0  0
 15 16  1  0  0  0  0
 16 14  1  0  0  0  0
 17 19  1  1  0  0  0
 17 14  1  0  0  0  0
 18 15  1  0  0  0  0
 18 17  1  0  0  0  0
 20 17  1  0  0  0  0
 21 25  1  0  0  0  0
 21 20  1  1  0  0  0
 22 26  1  0  0  0  0
 23 24  1  0  0  0  0
 23 25  1  0  0  0  0
 24 22  1  0  0  0  0
 25 26  1  0  0  0  0
 28 29  2  0  0  0  0
 29 21  1  0  0  0  0
 30 27  1  0  0  0  0
 30 29  1  0  0  0  0
 31 30  1  0  0  0  0
 33 32  1  0  0  0  0
 34 33  1  0  0  0  0
 35 34  1  0  0  0  0
 35 37  1  0  0  0  0
 36 32  1  0  0  0  0
 36 31  1  0  0  0  0
 37 36  1  0  0  0  0
 38  1  1  0  0  0  0
 39 38  1  0  0  0  0
 40 46  1  0  0  0  0
 41 43  1  0  0  0  0
 42 44  2  0  0  0  0
 43 40  1  0  0  0  0
 44 46  1  0  0  0  0
 45 41  1  6  0  0  0
 45 44  1  0  0  0  0
 46 39  1  6  0  0  0
 47 50  1  6  0  0  0
 47 48  1  0  0  0  0
 47 49  1  0  0  0  0
 49 48  1  6  0  0  0
 49 45  1  0  0  0  0
 50 54  1  6  0  0  0
 52 50  1  0  0  0  0
 52 51  1  1  0  0  0
 53 52  1  0  0  0  0
 55 54  1  0  0  0  0
 55 56  1  0  0  0  0
M  END
>  <MODEL>
8

>  <REMARK>
 VINA RESULT:      -4.9      2.526      8.643
  Name = 
  23 active torsions:
  status: ('A' for Active; 'I' for Inactive)
    1  A    between atoms: C_2  and  N_3
    2  A    between atoms: C_2  and  C_24
    3  A    between atoms: N_3  and  C_16
    4  A    between atoms: N_3  and  C_53
    5  A    between atoms: C_10  and  C_32
    6  A    between atoms: C_11  and  C_16
    7  A    between atoms: C_11  and  C_32
    8  A    between atoms: C_13  and  C_28
    9  A    between atoms: C_13  and  C_50
   10  A    between atoms: C_15  and  C_27
   11  A    between atoms: C_22  and  C_31
   12  A    between atoms: C_23  and  C_29
   13  A    between atoms: C_23  and  C_46
   14  A    between atoms: C_24  and  C_52
   15  A    between atoms: C_26  and  C_37
   16  A    between atoms: C_27  and  C_31
   17  A    between atoms: C_27  and  C_40
   18  A    between atoms: C_28  and  C_38
   19  A    between atoms: C_28  and  C_47
   20  A    between atoms: C_29  and  C_39
   21  A    between atoms: C_37  and  N_51
   22  A    between atoms: C_43  and  C_54
   23  A    between atoms: C_46  and  C_53
                            x       y       z     vdW  Elec       q    Type
                         _______ _______ _______ _____ _____    ______ ____

>  <TORSDO>
F 23

$$$$
=
 OpenBabel11062421173D

 56 60  0  0  1  0  0  0  0  0999 V2000
  185.8700  178.2830  142.9890 N   0  0  0  0  0  0  0  0  0  0  0  0
  184.6390  178.9500  142.5750 C   0  0  0  0  0  2  0  0  0  0  0  0
  183.6800  177.9320  141.9880 C   0  0  0  0  0  2  0  0  0  0  0  0
  182.6540  178.6480  141.1300 C   0  0  0  0  0  2  0  0  0  0  0  0
  181.2490  178.3980  141.6620 C   0  0  1  0  0  3  0  0  0  0  0  0
  180.9190  179.4010  142.6610 N   0  0  0  0  0  1  0  0  0  0  0  0
  178.8220  178.0080  141.0400 C   0  0  0  0  0  1  0  0  0  0  0  0
  180.2070  178.3840  140.5390 C   0  0  2  0  0  3  0  0  0  0  0  0
  180.5990  177.5020  139.5330 O   0  0  0  0  0  1  0  0  0  0  0  0
  186.9110  178.5380  142.0000 C   0  0  0  0  0  2  0  0  0  0  0  0
  189.0650  177.6170  142.2250 O   0  0  0  0  0  0  0  0  0  0  0  0
  187.8910  177.4080  141.9620 C   0  0  0  0  0  0  0  0  0  0  0  0
  187.4530  176.0340  141.5640 C   0  0  0  0  0  2  0  0  0  0  0  0
  188.9110  172.6440  142.0060 C   0  0  0  0  0  2  0  0  0  0  0  0
  188.3890  174.9770  142.1320 C   0  0  1  0  0  3  0  0  0  0  0  0
  187.7510  173.6070  142.1140 C   0  0  0  0  0  2  0  0  0  0  0  0
  190.0100  173.3850  141.2590 C   0  0  1  0  0  0  0  0  0  0  0  0
  189.6290  174.8570  141.2720 C   0  0  0  0  0  2  0  0  0  0  0  0
  191.2290  173.2160  141.9220 O   0  0  0  0  0  1  0  0  0  0  0  0
  190.1160  172.9160  139.8080 C   0  0  0  0  0  2  0  0  0  0  0  0
  191.5080  172.4040  139.4320 C   0  0  1  0  0  3  0  0  0  0  0  0
  190.5690  168.8530  139.2820 C   0  0  0  0  0  2  0  0  0  0  0  0
  190.2230  170.8150  137.9370 C   0  0  0  0  0  2  0  0  0  0  0  0
  190.0220  169.3180  137.9510 C   0  0  0  0  0  2  0  0  0  0  0  0
  191.4940  171.0380  138.7320 C   0  0  0  0  0  3  0  0  0  0  0  0
  191.6370  169.8560  139.6770 C   0  0  0  0  0  2  0  0  0  0  0  0
  194.4880  172.8860  139.9940 C   0  0  0  0  0  1  0  0  0  0  0  0
  191.8480  174.0640  137.7700 O   0  0  0  0  0  0  0  0  0  0  0  0
  192.3550  173.4480  138.7480 C   0  0  0  0  0  0  0  0  0  0  0  0
  193.6810  173.7930  139.1940 N   0  0  0  0  0  0  0  0  0  0  0  0
  194.3140  175.0220  138.7320 C   0  0  0  0  0  2  0  0  0  0  0  0
  194.8490  175.4050  136.3110 C   0  0  0  0  0  2  0  0  0  0  0  0
  195.8650  175.1860  135.1760 C   0  0  0  0  0  2  0  0  0  0  0  0
  197.1460  174.6500  135.6490 N   0  0  0  0  0  2  0  0  0  0  0  0
  197.6000  175.4350  136.7950 C   0  0  0  0  0  2  0  0  0  0  0  0
  195.2950  174.7260  137.6080 C   0  0  0  0  0  3  0  0  0  0  0  0
  196.6980  175.1880  138.0110 C   0  0  0  0  0  2  0  0  0  0  0  0
  186.3150  178.7600  144.3080 C   0  0  0  0  0  2  0  0  0  0  0  0
  185.2330  179.4730  145.1310 C   0  0  0  0  0  2  0  0  0  0  0  0
  184.4330  177.7520  146.7770 C   0  0  0  0  0  2  0  0  0  0  0  0
  186.4760  176.3610  146.8210 N   0  0  0  0  0  2  0  0  0  0  0  0
  186.9940  179.2450  148.2520 C   0  0  0  0  0  2  0  0  0  0  0  0
  185.1570  176.5230  146.2040 C   0  0  0  0  0  2  0  0  0  0  0  0
  186.6660  178.7910  147.0410 C   0  0  0  0  0  0  0  0  0  0  0  0
  187.2860  177.5270  146.4720 C   0  0  1  0  0  3  0  0  0  0  0  0
  185.2580  179.0340  146.5900 C   0  0  1  0  0  3  0  0  0  0  0  0
  189.3510  176.4340  145.4030 C   0  0  2  0  0  3  0  0  0  0  0  0
  189.5920  177.9330  145.4810 C   0  0  0  0  0  2  0  0  0  0  0  0
  188.7990  177.2360  146.5680 C   0  0  1  0  0  3  0  0  0  0  0  0
  190.5920  175.6730  145.8540 C   0  0  1  0  0  3  0  0  0  0  0  0
  189.6920  173.3550  145.4550 C   0  0  0  0  0  1  0  0  0  0  0  0
  190.2180  174.3310  146.4930 C   0  0  2  0  0  3  0  0  0  0  0  0
  189.2800  174.4930  147.5140 O   0  0  0  0  0  1  0  0  0  0  0  0
  191.6630  175.5660  144.7540 C   0  0  0  0  0  2  0  0  0  0  0  0
  192.9900  174.9970  145.2410 C   0  0  0  0  0  2  0  0  0  0  0  0
  193.4820  174.0780  144.3140 O   0  0  0  0  0  1  0  0  0  0  0  0
  1 38  1  0  0  0  0
  2  1  1  0  0  0  0
  3  2  1  0  0  0  0
  4  5  1  0  0  0  0
  4  3  1  0  0  0  0
  5  6  1  1  0  0  0
  8  7  1  1  0  0  0
  8  5  1  0  0  0  0
  9  8  1  0  0  0  0
 10  1  1  0  0  0  0
 12 10  1  0  0  0  0
 12 11  2  0  0  0  0
 13 12  1  0  0  0  0
 14 16  1  0  0  0  0
 15 13  1  6  0  0  0
 16 15  1  0  0  0  0
 17 18  1  0  0  0  0
 17 19  1  1  0  0  0
 17 14  1  0  0  0  0
 18 15  1  0  0  0  0
 20 17  1  0  0  0  0
 21 20  1  6  0  0  0
 22 26  1  0  0  0  0
 23 24  1  0  0  0  0
 23 25  1  0  0  0  0
 24 22  1  0  0  0  0
 25 21  1  0  0  0  0
 25 26  1  0  0  0  0
 28 29  2  0  0  0  0
 29 30  1  0  0  0  0
 29 21  1  0  0  0  0
 30 27  1  0  0  0  0
 31 30  1  0  0  0  0
 32 36  1  0  0  0  0
 33 34  1  0  0  0  0
 33 32  1  0  0  0  0
 34 35  1  0  0  0  0
 35 37  1  0  0  0  0
 36 37  1  0  0  0  0
 36 31  1  0  0  0  0
 38 39  1  0  0  0  0
 43 40  1  0  0  0  0
 43 41  1  0  0  0  0
 44 42  2  0  0  0  0
 45 49  1  0  0  0  0
 45 41  1  1  0  0  0
 45 44  1  0  0  0  0
 46 39  1  6  0  0  0
 46 40  1  0  0  0  0
 46 44  1  0  0  0  0
 47 48  1  0  0  0  0
 47 50  1  1  0  0  0
 47 49  1  0  0  0  0
 49 48  1  6  0  0  0
 50 54  1  6  0  0  0
 50 52  1  0  0  0  0
 52 51  1  6  0  0  0
 52 53  1  0  0  0  0
 54 55  1  0  0  0  0
 56 55  1  0  0  0  0
M  END
>  <MODEL>
9

>  <REMARK>
 VINA RESULT:      -4.9      3.427      7.942
  Name = 
  23 active torsions:
  status: ('A' for Active; 'I' for Inactive)
    1  A    between atoms: C_2  and  N_3
    2  A    between atoms: C_2  and  C_24
    3  A    between atoms: N_3  and  C_16
    4  A    between atoms: N_3  and  C_53
    5  A    between atoms: C_10  and  C_32
    6  A    between atoms: C_11  and  C_16
    7  A    between atoms: C_11  and  C_32
    8  A    between atoms: C_13  and  C_28
    9  A    between atoms: C_13  and  C_50
   10  A    between atoms: C_15  and  C_27
   11  A    between atoms: C_22  and  C_31
   12  A    between atoms: C_23  and  C_29
   13  A    between atoms: C_23  and  C_46
   14  A    between atoms: C_24  and  C_52
   15  A    between atoms: C_26  and  C_37
   16  A    between atoms: C_27  and  C_31
   17  A    between atoms: C_27  and  C_40
   18  A    between atoms: C_28  and  C_38
   19  A    between atoms: C_28  and  C_47
   20  A    between atoms: C_29  and  C_39
   21  A    between atoms: C_37  and  N_51
   22  A    between atoms: C_43  and  C_54
   23  A    between atoms: C_46  and  C_53
                            x       y       z     vdW  Elec       q    Type
                         _______ _______ _______ _____ _____    ______ ____

>  <TORSDO>
F 23

$$$$
