=
 OpenBabel11072408343D

 26 30  0  0  1  0  0  0  0  0999 V2000
  184.4690  178.2950  146.8790 C   0  0  0  0  0  3  0  0  0  0  0  0
  189.5810  174.9290  144.3540 C   0  0  0  0  0  2  0  0  0  0  0  0
  186.6850  178.6040  147.7990 C   0  0  0  0  0  3  0  0  0  0  0  0
  190.6570  176.6190  145.7450 C   0  0  0  0  0  0  0  0  0  0  0  0
  185.4530  179.0130  147.6560 N   0  0  0  0  0  0  0  0  0  0  0  0
  190.0740  177.3400  147.2900 S   0  0  0  0  0  0  0  0  0  0  0  0
  188.4500  177.3110  146.5660 C   0  0  0  0  0  0  0  0  0  0  0  0
  188.3580  176.8210  145.3550 C   0  0  0  0  0  0  0  0  0  0  0  0
  193.8220  175.7530  144.4270 O   0  0  0  0  0  0  0  0  0  0  0  0
  186.9570  176.5830  145.0260 C   0  0  1  0  0  3  0  0  0  0  0  0
  190.5930  174.6410  143.3020 C   0  0  0  0  0  3  0  0  0  0  0  0
  189.6170  176.4040  144.6860 C   0  0  2  0  0  3  0  0  0  0  0  0
  191.9100  176.3090  145.6030 N   0  0  0  0  0  0  0  0  0  0  0  0
  192.5670  175.6960  144.4780 C   0  0  0  0  0  0  0  0  0  0  0  0
  184.8250  177.2770  146.0910 C   0  0  0  0  0  3  0  0  0  0  0  0
  187.1240  177.2750  147.2470 C   0  0  2  0  0  3  0  0  0  0  0  0
  191.8820  174.9760  143.3800 C   0  0  0  0  0  3  0  0  0  0  0  0
  186.2390  176.8960  146.0970 C   0  0  2  0  0  3  0  0  0  0  0  0
  186.4090  176.3640  143.7220 N   0  0  0  0  0  2  0  0  0  0  0  0
  186.7630  176.6120  140.3650 O   0  0  0  0  0  0  0  0  0  0  0  0
  185.0310  177.5750  142.1020 C   0  0  0  0  0  2  0  0  0  0  0  0
  187.4260  176.9220  141.5680 C   0  0  0  0  0  2  0  0  0  0  0  0
  186.2340  177.8240  139.8840 C   0  0  0  0  0  2  0  0  0  0  0  0
  185.0730  178.3130  140.7630 C   0  0  1  0  0  3  0  0  0  0  0  0
  186.4410  177.3620  142.6640 C   0  0  2  0  0  3  0  0  0  0  0  0
  183.8650  178.1260  140.0930 O   0  0  0  0  0  1  0  0  0  0  0  0
  1  5  1  0  0  0  0
  4  6  1  0  0  0  0
  5  3  2  0  0  0  0
  7 16  1  0  0  0  0
  7  6  1  0  0  0  0
  8  7  2  0  0  0  0
  9 14  2  0  0  0  0
 10 19  1  6  0  0  0
 10  8  1  0  0  0  0
 10 18  1  0  0  0  0
 11 17  2  0  0  0  0
 11  2  1  0  0  0  0
 12  2  1  1  0  0  0
 12  8  1  0  0  0  0
 12  4  1  0  0  0  0
 13  4  2  0  0  0  0
 14 13  1  0  0  0  0
 15  1  2  0  0  0  0
 16  3  1  6  0  0  0
 17 14  1  0  0  0  0
 18 15  1  6  0  0  0
 18 16  1  0  0  0  0
 20 22  1  0  0  0  0
 21 25  1  0  0  0  0
 22 25  1  0  0  0  0
 23 20  1  0  0  0  0
 23 24  1  0  0  0  0
 24 26  1  6  0  0  0
 24 21  1  0  0  0  0
 25 19  1  1  0  0  0
M  END
>  <MODEL>
1

>  <REMARK>
 VINA RESULT:      -8.0      0.000      0.000
  Name = 
  2 active torsions:
  status: ('A' for Active; 'I' for Inactive)
    1  A    between atoms: N_6  and  C_16
    2  A    between atoms: N_6  and  C_17
                            x       y       z     vdW  Elec       q    Type
                         _______ _______ _______ _____ _____    ______ ____

>  <TORSDO>
F 2

$$$$
=
 OpenBabel11072408343D

 26 30  0  0  1  0  0  0  0  0999 V2000
  190.1310  175.2670  146.3880 C   0  0  0  0  0  3  0  0  0  0  0  0
  186.5280  178.0680  141.5910 C   0  0  0  0  0  2  0  0  0  0  0  0
  187.8940  176.0520  146.8670 C   0  0  0  0  0  3  0  0  0  0  0  0
  184.8930  177.6640  143.3540 C   0  0  0  0  0  0  0  0  0  0  0  0
  188.9300  175.3260  147.1880 N   0  0  0  0  0  0  0  0  0  0  0  0
  185.1330  177.7060  145.1390 S   0  0  0  0  0  0  0  0  0  0  0  0
  186.7100  176.9430  144.8380 C   0  0  0  0  0  0  0  0  0  0  0  0
  187.0170  176.7070  143.5870 C   0  0  0  0  0  0  0  0  0  0  0  0
  182.2520  178.5210  141.1640 O   0  0  0  0  0  0  0  0  0  0  0  0
  188.4330  176.3740  143.4820 C   0  0  1  0  0  3  0  0  0  0  0  0
  185.7180  178.0300  140.3430 C   0  0  0  0  0  3  0  0  0  0  0  0
  185.9960  177.0340  142.5580 C   0  0  2  0  0  3  0  0  0  0  0  0
  183.8180  178.1690  142.8290 N   0  0  0  0  0  0  0  0  0  0  0  0
  183.4530  178.2700  141.4410 C   0  0  0  0  0  0  0  0  0  0  0  0
  190.1660  175.7950  145.1610 C   0  0  0  0  0  3  0  0  0  0  0  0
  187.9410  176.9770  145.6810 C   0  0  2  0  0  3  0  0  0  0  0  0
  184.3880  178.1270  140.3010 C   0  0  0  0  0  3  0  0  0  0  0  0
  188.9560  176.4760  144.6970 C   0  0  2  0  0  3  0  0  0  0  0  0
  189.0850  175.7490  142.3710 N   0  0  0  0  0  2  0  0  0  0  0  0
  189.2660  174.0060  139.4760 O   0  0  0  0  0  0  0  0  0  0  0  0
  189.6840  173.4050  142.0070 C   0  0  0  0  0  2  0  0  0  0  0  0
  188.3500  174.7080  140.2840 C   0  0  0  0  0  2  0  0  0  0  0  0
  189.0090  172.6390  139.6850 C   0  0  0  0  0  2  0  0  0  0  0  0
  189.4380  172.2020  141.0950 C   0  0  1  0  0  3  0  0  0  0  0  0
  188.6350  174.4990  141.7810 C   0  0  2  0  0  3  0  0  0  0  0  0
  190.5980  171.4350  141.0160 O   0  0  0  0  0  1  0  0  0  0  0  0
  1  5  1  0  0  0  0
  3  5  2  0  0  0  0
  4  6  1  0  0  0  0
  7  6  1  0  0  0  0
  7 16  1  0  0  0  0
  8  7  2  0  0  0  0
  9 14  2  0  0  0  0
 10 19  1  1  0  0  0
 10  8  1  0  0  0  0
 10 18  1  0  0  0  0
 11  2  1  0  0  0  0
 12  2  1  6  0  0  0
 12  4  1  0  0  0  0
 12  8  1  0  0  0  0
 13  4  2  0  0  0  0
 14 13  1  0  0  0  0
 15  1  2  0  0  0  0
 16  3  1  1  0  0  0
 17 11  2  0  0  0  0
 17 14  1  0  0  0  0
 18 15  1  1  0  0  0
 18 16  1  0  0  0  0
 20 23  1  0  0  0  0
 20 22  1  0  0  0  0
 22 25  1  0  0  0  0
 23 24  1  0  0  0  0
 24 26  1  6  0  0  0
 24 21  1  0  0  0  0
 25 21  1  0  0  0  0
 25 19  1  6  0  0  0
M  END
>  <MODEL>
2

>  <REMARK>
 VINA RESULT:      -7.6      2.714      6.086
  Name = 
  2 active torsions:
  status: ('A' for Active; 'I' for Inactive)
    1  A    between atoms: N_6  and  C_16
    2  A    between atoms: N_6  and  C_17
                            x       y       z     vdW  Elec       q    Type
                         _______ _______ _______ _____ _____    ______ ____

>  <TORSDO>
F 2

$$$$
=
 OpenBabel11072408343D

 26 30  0  0  1  0  0  0  0  0999 V2000
  184.8880  178.9350  146.9470 C   0  0  0  0  0  3  0  0  0  0  0  0
  189.2070  175.7650  143.0550 C   0  0  0  0  0  2  0  0  0  0  0  0
  184.5270  178.8660  144.5560 C   0  0  0  0  0  3  0  0  0  0  0  0
  187.3020  176.1470  141.5820 C   0  0  0  0  0  0  0  0  0  0  0  0
  184.0720  179.0710  145.7620 N   0  0  0  0  0  0  0  0  0  0  0  0
  186.1520  177.5340  141.5680 S   0  0  0  0  0  0  0  0  0  0  0  0
  186.2400  177.4860  143.3430 C   0  0  0  0  0  0  0  0  0  0  0  0
  187.0250  176.5770  143.8650 C   0  0  0  0  0  0  0  0  0  0  0  0
  188.7400  174.0660  139.1100 O   0  0  0  0  0  0  0  0  0  0  0  0
  187.2270  176.8570  145.2820 C   0  0  1  0  0  3  0  0  0  0  0  0
  189.8440  174.5420  142.4980 C   0  0  0  0  0  3  0  0  0  0  0  0
  187.7050  175.6400  142.9340 C   0  0  2  0  0  3  0  0  0  0  0  0
  187.7380  175.6520  140.4620 N   0  0  0  0  0  0  0  0  0  0  0  0
  188.6780  174.5820  140.2550 C   0  0  0  0  0  0  0  0  0  0  0  0
  186.1050  178.3850  146.8840 C   0  0  0  0  0  3  0  0  0  0  0  0
  185.9860  178.5830  144.3210 C   0  0  2  0  0  3  0  0  0  0  0  0
  189.6060  174.0520  141.2800 C   0  0  0  0  0  3  0  0  0  0  0  0
  186.5840  177.9840  145.5600 C   0  0  2  0  0  3  0  0  0  0  0  0
  187.7390  175.9550  146.2690 N   0  0  0  0  0  2  0  0  0  0  0  0
  190.6970  174.3390  145.9690 O   0  0  0  0  0  0  0  0  0  0  0  0
  189.9680  176.8670  145.8380 C   0  0  0  0  0  2  0  0  0  0  0  0
  189.6620  174.5780  146.8930 C   0  0  0  0  0  2  0  0  0  0  0  0
  191.7700  175.1600  146.3590 C   0  0  0  0  0  2  0  0  0  0  0  0
  191.4590  176.6430  146.1000 C   0  0  1  0  0  3  0  0  0  0  0  0
  189.1040  176.0060  146.7660 C   0  0  2  0  0  3  0  0  0  0  0  0
  192.1940  177.0940  145.0060 O   0  0  0  0  0  1  0  0  0  0  0  0
  3  5  2  0  0  0  0
  4 12  1  0  0  0  0
  5  1  1  0  0  0  0
  6  4  1  0  0  0  0
  6  7  1  0  0  0  0
  7  8  2  0  0  0  0
  7 16  1  0  0  0  0
  8 10  1  0  0  0  0
  9 14  2  0  0  0  0
 10 18  1  0  0  0  0
 10 19  1  1  0  0  0
 11  2  1  0  0  0  0
 12  2  1  6  0  0  0
 12  8  1  0  0  0  0
 13  4  2  0  0  0  0
 14 13  1  0  0  0  0
 14 17  1  0  0  0  0
 15  1  2  0  0  0  0
 16  3  1  1  0  0  0
 16 18  1  0  0  0  0
 17 11  2  0  0  0  0
 18 15  1  1  0  0  0
 20 23  1  0  0  0  0
 20 22  1  0  0  0  0
 21 24  1  0  0  0  0
 21 25  1  0  0  0  0
 24 26  1  6  0  0  0
 24 23  1  0  0  0  0
 25 19  1  6  0  0  0
 25 22  1  0  0  0  0
M  END
>  <MODEL>
3

>  <REMARK>
 VINA RESULT:      -7.5      2.676      5.195
  Name = 
  2 active torsions:
  status: ('A' for Active; 'I' for Inactive)
    1  A    between atoms: N_6  and  C_16
    2  A    between atoms: N_6  and  C_17
                            x       y       z     vdW  Elec       q    Type
                         _______ _______ _______ _____ _____    ______ ____

>  <TORSDO>
F 2

$$$$
=
 OpenBabel11072408343D

 26 30  0  0  1  0  0  0  0  0999 V2000
  184.9820  179.4040  145.3170 C   0  0  0  0  0  3  0  0  0  0  0  0
  189.4910  175.1390  143.0110 C   0  0  0  0  0  2  0  0  0  0  0  0
  185.0920  178.9340  142.9470 C   0  0  0  0  0  3  0  0  0  0  0  0
  187.9860  175.4390  141.1170 C   0  0  0  0  0  0  0  0  0  0  0  0
  184.4420  179.4050  143.9770 N   0  0  0  0  0  0  0  0  0  0  0  0
  187.0680  176.9120  140.6330 S   0  0  0  0  0  0  0  0  0  0  0  0
  186.7980  177.1830  142.3700 C   0  0  0  0  0  0  0  0  0  0  0  0
  187.3290  176.3090  143.1880 C   0  0  0  0  0  0  0  0  0  0  0  0
  189.5740  172.8010  139.3780 O   0  0  0  0  0  0  0  0  0  0  0  0
  187.2860  176.8240  144.5520 C   0  0  1  0  0  3  0  0  0  0  0  0
  190.0470  173.7750  142.8070 C   0  0  0  0  0  3  0  0  0  0  0  0
  188.0400  175.1510  142.5870 C   0  0  2  0  0  3  0  0  0  0  0  0
  188.5590  174.7040  140.2120 N   0  0  0  0  0  0  0  0  0  0  0  0
  189.3620  173.5220  140.3860 C   0  0  0  0  0  0  0  0  0  0  0  0
  186.0980  178.7290  145.6080 C   0  0  0  0  0  3  0  0  0  0  0  0
  186.5130  178.4620  143.0830 C   0  0  2  0  0  3  0  0  0  0  0  0
  189.9860  173.0960  141.6600 C   0  0  0  0  0  3  0  0  0  0  0  0
  186.7670  178.0430  144.5010 C   0  0  2  0  0  3  0  0  0  0  0  0
  187.4620  176.0700  145.7560 N   0  0  0  0  0  2  0  0  0  0  0  0
  190.1950  174.4380  146.9070 O   0  0  0  0  0  0  0  0  0  0  0  0
  189.7830  176.8340  145.8920 C   0  0  0  0  0  2  0  0  0  0  0  0
  188.9400  174.9180  147.3290 C   0  0  0  0  0  2  0  0  0  0  0  0
  191.1510  175.3360  147.4140 C   0  0  0  0  0  2  0  0  0  0  0  0
  191.0780  176.6920  146.6940 C   0  0  1  0  0  3  0  0  0  0  0  0
  188.5880  176.2570  146.6580 C   0  0  2  0  0  3  0  0  0  0  0  0
  192.1690  176.8300  145.8390 O   0  0  0  0  0  1  0  0  0  0  0  0
  1 15  2  0  0  0  0
  3  5  2  0  0  0  0
  4 12  1  0  0  0  0
  5  1  1  0  0  0  0
  6  4  1  0  0  0  0
  6  7  1  0  0  0  0
  7 16  1  0  0  0  0
  7  8  2  0  0  0  0
  8 10  1  0  0  0  0
  9 14  2  0  0  0  0
 10 19  1  1  0  0  0
 11  2  1  0  0  0  0
 12  2  1  1  0  0  0
 12  8  1  0  0  0  0
 13 14  1  0  0  0  0
 13  4  2  0  0  0  0
 14 17  1  0  0  0  0
 16  3  1  1  0  0  0
 16 18  1  0  0  0  0
 17 11  2  0  0  0  0
 18 10  1  0  0  0  0
 18 15  1  1  0  0  0
 20 22  1  0  0  0  0
 20 23  1  0  0  0  0
 21 25  1  0  0  0  0
 21 24  1  0  0  0  0
 24 26  1  6  0  0  0
 24 23  1  0  0  0  0
 25 19  1  6  0  0  0
 25 22  1  0  0  0  0
M  END
>  <MODEL>
4

>  <REMARK>
 VINA RESULT:      -7.3      3.054      5.402
  Name = 
  2 active torsions:
  status: ('A' for Active; 'I' for Inactive)
    1  A    between atoms: N_6  and  C_16
    2  A    between atoms: N_6  and  C_17
                            x       y       z     vdW  Elec       q    Type
                         _______ _______ _______ _____ _____    ______ ____

>  <TORSDO>
F 2

$$$$
=
 OpenBabel11072408343D

 26 30  0  0  1  0  0  0  0  0999 V2000
  190.9770  172.7340  142.0980 C   0  0  0  0  0  3  0  0  0  0  0  0
  186.8480  176.7360  145.3810 C   0  0  0  0  0  2  0  0  0  0  0  0
  189.5680  174.2740  140.8760 C   0  0  0  0  0  3  0  0  0  0  0  0
  186.8480  177.6620  143.1260 C   0  0  0  0  0  0  0  0  0  0  0  0
  190.6040  173.4800  140.9190 N   0  0  0  0  0  0  0  0  0  0  0  0
  187.0130  176.7940  141.5550 S   0  0  0  0  0  0  0  0  0  0  0  0
  188.2070  175.7620  142.3730 C   0  0  0  0  0  0  0  0  0  0  0  0
  188.4350  176.0190  143.6370 C   0  0  0  0  0  0  0  0  0  0  0  0
  185.0510  180.4960  144.2410 O   0  0  0  0  0  0  0  0  0  0  0  0
  189.1860  174.9210  144.2340 C   0  0  1  0  0  3  0  0  0  0  0  0
  186.5400  177.9080  146.2440 C   0  0  0  0  0  3  0  0  0  0  0  0
  187.7320  177.1810  144.2380 C   0  0  2  0  0  3  0  0  0  0  0  0
  185.9950  178.6340  143.2460 N   0  0  0  0  0  0  0  0  0  0  0  0
  185.6840  179.4230  144.4090 C   0  0  0  0  0  0  0  0  0  0  0  0
  190.3980  172.9780  143.2780 C   0  0  0  0  0  3  0  0  0  0  0  0
  188.6210  174.3680  142.0400 C   0  0  2  0  0  3  0  0  0  0  0  0
  186.0290  179.0590  145.8030 C   0  0  0  0  0  3  0  0  0  0  0  0
  189.3410  173.9910  143.3010 C   0  0  2  0  0  3  0  0  0  0  0  0
  189.9000  174.9480  145.4750 N   0  0  0  0  0  2  0  0  0  0  0  0
  192.9370  175.2290  146.9430 O   0  0  0  0  0  0  0  0  0  0  0  0
  191.9240  176.0510  144.6530 C   0  0  0  0  0  2  0  0  0  0  0  0
  191.5870  175.5870  147.1270 C   0  0  0  0  0  2  0  0  0  0  0  0
  193.6010  176.3960  146.5250 C   0  0  0  0  0  2  0  0  0  0  0  0
  193.1860  176.7920  145.0990 C   0  0  1  0  0  3  0  0  0  0  0  0
  190.9070  175.9470  145.7950 C   0  0  2  0  0  3  0  0  0  0  0  0
  194.2240  176.5130  144.2130 O   0  0  0  0  0  1  0  0  0  0  0  0
  1 15  2  0  0  0  0
  2 11  1  0  0  0  0
  3  5  2  0  0  0  0
  4 13  2  0  0  0  0
  4 12  1  0  0  0  0
  5  1  1  0  0  0  0
  6  7  1  0  0  0  0
  6  4  1  0  0  0  0
  7  8  2  0  0  0  0
  8 10  1  0  0  0  0
  8 12  1  0  0  0  0
  9 14  2  0  0  0  0
 10 19  1  6  0  0  0
 12  2  1  1  0  0  0
 13 14  1  0  0  0  0
 14 17  1  0  0  0  0
 16  3  1  6  0  0  0
 16  7  1  0  0  0  0
 16 18  1  0  0  0  0
 17 11  2  0  0  0  0
 18 15  1  6  0  0  0
 18 10  1  0  0  0  0
 20 22  1  0  0  0  0
 21 24  1  0  0  0  0
 21 25  1  0  0  0  0
 23 20  1  0  0  0  0
 24 26  1  6  0  0  0
 24 23  1  0  0  0  0
 25 19  1  6  0  0  0
 25 22  1  0  0  0  0
M  END
>  <MODEL>
5

>  <REMARK>
 VINA RESULT:      -7.2      2.683      7.233
  Name = 
  2 active torsions:
  status: ('A' for Active; 'I' for Inactive)
    1  A    between atoms: N_6  and  C_16
    2  A    between atoms: N_6  and  C_17
                            x       y       z     vdW  Elec       q    Type
                         _______ _______ _______ _____ _____    ______ ____

>  <TORSDO>
F 2

$$$$
=
 OpenBabel11072408343D

 26 30  0  0  1  0  0  0  0  0999 V2000
  192.2410  175.1630  146.4190 C   0  0  0  0  0  3  0  0  0  0  0  0
  187.4450  178.2870  143.0900 C   0  0  0  0  0  2  0  0  0  0  0  0
  190.3550  176.0920  147.6150 C   0  0  0  0  0  3  0  0  0  0  0  0
  186.4720  177.9660  145.3020 C   0  0  0  0  0  0  0  0  0  0  0  0
  191.3840  175.2910  147.5750 N   0  0  0  0  0  0  0  0  0  0  0  0
  187.2980  177.9610  146.9030 S   0  0  0  0  0  0  0  0  0  0  0  0
  188.6250  177.0970  146.0960 C   0  0  0  0  0  0  0  0  0  0  0  0
  188.4770  176.8620  144.8160 C   0  0  0  0  0  0  0  0  0  0  0  0
  183.3170  179.0410  144.1190 O   0  0  0  0  0  0  0  0  0  0  0  0
  189.7490  176.4340  144.2440 C   0  0  1  0  0  3  0  0  0  0  0  0
  186.2630  178.3270  142.1870 C   0  0  0  0  0  3  0  0  0  0  0  0
  187.1970  177.2760  144.1860 C   0  0  2  0  0  3  0  0  0  0  0  0
  185.3210  178.5530  145.1650 N   0  0  0  0  0  0  0  0  0  0  0  0
  184.5200  178.7030  143.9790 C   0  0  0  0  0  0  0  0  0  0  0  0
  191.8990  175.7090  145.2470 C   0  0  0  0  0  3  0  0  0  0  0  0
  190.0660  177.0310  146.4760 C   0  0  2  0  0  3  0  0  0  0  0  0
  185.0070  178.5150  142.5930 C   0  0  0  0  0  3  0  0  0  0  0  0
  190.6550  176.4790  145.2120 C   0  0  2  0  0  3  0  0  0  0  0  0
  189.9450  175.7850  142.9830 N   0  0  0  0  0  2  0  0  0  0  0  0
  188.6510  174.4180  140.1700 O   0  0  0  0  0  0  0  0  0  0  0  0
  190.1010  173.4850  142.1620 C   0  0  0  0  0  2  0  0  0  0  0  0
  188.2620  175.0460  141.3700 C   0  0  0  0  0  2  0  0  0  0  0  0
  188.3910  173.0470  140.3420 C   0  0  0  0  0  2  0  0  0  0  0  0
  189.3640  172.4180  141.3520 C   0  0  1  0  0  3  0  0  0  0  0  0
  189.1660  174.6380  142.5450 C   0  0  2  0  0  3  0  0  0  0  0  0
  190.2910  171.6240  140.6800 O   0  0  0  0  0  1  0  0  0  0  0  0
  1  5  1  0  0  0  0
  4  6  1  0  0  0  0
  5  3  2  0  0  0  0
  7 16  1  0  0  0  0
  7  6  1  0  0  0  0
  8  7  2  0  0  0  0
 10 19  1  1  0  0  0
 10  8  1  0  0  0  0
 10 18  1  0  0  0  0
 11 17  2  0  0  0  0
 11  2  1  0  0  0  0
 12  2  1  6  0  0  0
 12  8  1  0  0  0  0
 12  4  1  0  0  0  0
 13  4  2  0  0  0  0
 14  9  2  0  0  0  0
 14 13  1  0  0  0  0
 15  1  2  0  0  0  0
 16  3  1  1  0  0  0
 17 14  1  0  0  0  0
 18 15  1  1  0  0  0
 18 16  1  0  0  0  0
 20 23  1  0  0  0  0
 20 22  1  0  0  0  0
 21 25  1  0  0  0  0
 22 25  1  0  0  0  0
 23 24  1  0  0  0  0
 24 26  1  6  0  0  0
 24 21  1  0  0  0  0
 25 19  1  6  0  0  0
M  END
>  <MODEL>
6

>  <REMARK>
 VINA RESULT:      -7.1      2.433      5.784
  Name = 
  2 active torsions:
  status: ('A' for Active; 'I' for Inactive)
    1  A    between atoms: N_6  and  C_16
    2  A    between atoms: N_6  and  C_17
                            x       y       z     vdW  Elec       q    Type
                         _______ _______ _______ _____ _____    ______ ____

>  <TORSDO>
F 2

$$$$
=
 OpenBabel11072408343D

 26 30  0  0  1  0  0  0  0  0999 V2000
  188.9830  172.6350  139.4580 C   0  0  0  0  0  3  0  0  0  0  0  0
  189.5110  176.9330  144.4670 C   0  0  0  0  0  2  0  0  0  0  0  0
  190.7290  172.3510  141.1080 C   0  0  0  0  0  3  0  0  0  0  0  0
  190.9630  175.0970  145.1500 C   0  0  0  0  0  0  0  0  0  0  0  0
  189.9970  171.8660  140.1420 N   0  0  0  0  0  0  0  0  0  0  0  0
  191.9640  174.0120  144.1170 S   0  0  0  0  0  0  0  0  0  0  0  0
  190.6110  174.0390  142.9640 C   0  0  0  0  0  0  0  0  0  0  0  0
  189.5730  174.7640  143.2970 C   0  0  0  0  0  0  0  0  0  0  0  0
  191.3250  176.5220  148.3670 O   0  0  0  0  0  0  0  0  0  0  0  0
  188.6990  174.9320  142.1410 C   0  0  1  0  0  3  0  0  0  0  0  0
  189.0710  177.5330  145.7550 C   0  0  0  0  0  3  0  0  0  0  0  0
  189.6000  175.4320  144.6240 C   0  0  2  0  0  3  0  0  0  0  0  0
  191.4380  175.5480  146.2720 N   0  0  0  0  0  0  0  0  0  0  0  0
  190.8240  176.4460  147.2150 C   0  0  0  0  0  0  0  0  0  0  0  0
  188.5950  173.8270  139.9210 C   0  0  0  0  0  3  0  0  0  0  0  0
  190.6330  173.8020  141.4910 C   0  0  2  0  0  3  0  0  0  0  0  0
  189.6590  177.3140  146.9320 C   0  0  0  0  0  3  0  0  0  0  0  0
  189.2820  174.3310  141.1120 C   0  0  2  0  0  3  0  0  0  0  0  0
  187.3360  175.3690  142.1550 N   0  0  0  0  0  2  0  0  0  0  0  0
  185.5460  177.4390  140.1640 O   0  0  0  0  0  0  0  0  0  0  0  0
  185.6060  176.9910  142.7600 C   0  0  0  0  0  2  0  0  0  0  0  0
  186.8680  177.1670  140.5630 C   0  0  0  0  0  2  0  0  0  0  0  0
  185.1580  178.6020  140.8530 C   0  0  0  0  0  2  0  0  0  0  0  0
  184.9790  178.3260  142.3540 C   0  0  1  0  0  3  0  0  0  0  0  0
  186.9440  176.7660  142.0460 C   0  0  2  0  0  3  0  0  0  0  0  0
  183.6230  178.3160  142.6720 O   0  0  0  0  0  1  0  0  0  0  0  0
  1 15  2  0  0  0  0
  1  5  1  0  0  0  0
  2 11  1  0  0  0  0
  4 13  2  0  0  0  0
  5  3  2  0  0  0  0
  6  4  1  0  0  0  0
  7  8  2  0  0  0  0
  7  6  1  0  0  0  0
  8 12  1  0  0  0  0
 10 19  1  1  0  0  0
 10  8  1  0  0  0  0
 11 17  2  0  0  0  0
 12  2  1  6  0  0  0
 12  4  1  0  0  0  0
 13 14  1  0  0  0  0
 14  9  2  0  0  0  0
 16  3  1  1  0  0  0
 16  7  1  0  0  0  0
 17 14  1  0  0  0  0
 18 15  1  1  0  0  0
 18 16  1  0  0  0  0
 18 10  1  0  0  0  0
 20 22  1  0  0  0  0
 20 23  1  0  0  0  0
 22 25  1  0  0  0  0
 23 24  1  0  0  0  0
 24 26  1  6  0  0  0
 24 21  1  0  0  0  0
 25 19  1  6  0  0  0
 25 21  1  0  0  0  0
M  END
>  <MODEL>
7

>  <REMARK>
 VINA RESULT:      -7.0      2.657      5.112
  Name = 
  2 active torsions:
  status: ('A' for Active; 'I' for Inactive)
    1  A    between atoms: N_6  and  C_16
    2  A    between atoms: N_6  and  C_17
                            x       y       z     vdW  Elec       q    Type
                         _______ _______ _______ _____ _____    ______ ____

>  <TORSDO>
F 2

$$$$
=
 OpenBabel11072408343D

 26 30  0  0  1  0  0  0  0  0999 V2000
  194.7680  175.0040  143.9530 C   0  0  0  0  0  3  0  0  0  0  0  0
  188.7770  177.7920  144.3820 C   0  0  0  0  0  2  0  0  0  0  0  0
  193.7920  175.4320  146.1250 C   0  0  0  0  0  3  0  0  0  0  0  0
  189.1850  176.9920  146.6480 C   0  0  0  0  0  0  0  0  0  0  0  0
  194.6740  174.8190  145.3830 N   0  0  0  0  0  0  0  0  0  0  0  0
  190.7490  176.8780  147.5350 S   0  0  0  0  0  0  0  0  0  0  0  0
  191.4650  176.3660  145.9900 C   0  0  0  0  0  0  0  0  0  0  0  0
  190.6560  176.3050  144.9620 C   0  0  0  0  0  0  0  0  0  0  0  0
  185.8440  177.7180  147.5530 O   0  0  0  0  0  0  0  0  0  0  0  0
  191.4310  176.1760  143.7340 C   0  0  1  0  0  3  0  0  0  0  0  0
  187.2940  177.7790  144.2640 C   0  0  0  0  0  3  0  0  0  0  0  0
  189.2190  176.6010  145.2010 C   0  0  2  0  0  3  0  0  0  0  0  0
  188.1170  177.4030  147.2630 N   0  0  0  0  0  0  0  0  0  0  0  0
  186.7920  177.6000  146.7350 C   0  0  0  0  0  0  0  0  0  0  0  0
  193.8150  175.6580  143.2810 C   0  0  0  0  0  3  0  0  0  0  0  0
  192.8810  176.4740  145.5360 C   0  0  2  0  0  3  0  0  0  0  0  0
  186.4540  177.7030  145.2970 C   0  0  0  0  0  3  0  0  0  0  0  0
  192.7140  176.2180  144.0670 C   0  0  2  0  0  3  0  0  0  0  0  0
  190.9420  175.7640  142.4530 N   0  0  0  0  0  2  0  0  0  0  0  0
  188.5670  174.5410  140.3750 O   0  0  0  0  0  0  0  0  0  0  0  0
  190.8380  173.5970  141.3200 C   0  0  0  0  0  2  0  0  0  0  0  0
  188.7480  174.9880  141.6980 C   0  0  0  0  0  2  0  0  0  0  0  0
  188.5050  173.1370  140.4400 C   0  0  0  0  0  2  0  0  0  0  0  0
  189.8750  172.5350  140.7870 C   0  0  1  0  0  3  0  0  0  0  0  0
  190.1220  174.5790  142.2540 C   0  0  2  0  0  3  0  0  0  0  0  0
  190.4260  171.9360  139.6560 O   0  0  0  0  0  1  0  0  0  0  0  0
  1  5  1  0  0  0  0
  4 13  2  0  0  0  0
  4  6  1  0  0  0  0
  5  3  2  0  0  0  0
  7  6  1  0  0  0  0
  8 12  1  0  0  0  0
  8  7  2  0  0  0  0
 10 19  1  1  0  0  0
 10 18  1  0  0  0  0
 10  8  1  0  0  0  0
 11  2  1  0  0  0  0
 11 17  2  0  0  0  0
 12  2  1  6  0  0  0
 12  4  1  0  0  0  0
 14 13  1  0  0  0  0
 14  9  2  0  0  0  0
 15  1  2  0  0  0  0
 16  7  1  0  0  0  0
 16  3  1  1  0  0  0
 17 14  1  0  0  0  0
 18 15  1  1  0  0  0
 18 16  1  0  0  0  0
 20 23  1  0  0  0  0
 20 22  1  0  0  0  0
 21 25  1  0  0  0  0
 22 25  1  0  0  0  0
 23 24  1  0  0  0  0
 24 26  1  6  0  0  0
 24 21  1  0  0  0  0
 25 19  1  6  0  0  0
M  END
>  <MODEL>
8

>  <REMARK>
 VINA RESULT:      -6.8      2.797      6.185
  Name = 
  2 active torsions:
  status: ('A' for Active; 'I' for Inactive)
    1  A    between atoms: N_6  and  C_16
    2  A    between atoms: N_6  and  C_17
                            x       y       z     vdW  Elec       q    Type
                         _______ _______ _______ _____ _____    ______ ____

>  <TORSDO>
F 2

$$$$
=
 OpenBabel11072408343D

 26 30  0  0  1  0  0  0  0  0999 V2000
  189.6830  177.1970  146.8990 C   0  0  0  0  0  3  0  0  0  0  0  0
  188.3940  173.6460  141.4610 C   0  0  0  0  0  2  0  0  0  0  0  0
  190.6220  174.9800  146.6580 C   0  0  0  0  0  3  0  0  0  0  0  0
  190.2220  172.4190  142.5090 C   0  0  0  0  0  0  0  0  0  0  0  0
  190.6170  176.1490  147.2410 N   0  0  0  0  0  0  0  0  0  0  0  0
  190.5820  172.2220  144.2640 S   0  0  0  0  0  0  0  0  0  0  0  0
  190.0840  173.9190  144.4460 C   0  0  0  0  0  0  0  0  0  0  0  0
  189.6920  174.5340  143.3590 C   0  0  0  0  0  0  0  0  0  0  0  0
  190.5510  170.3710  139.6450 O   0  0  0  0  0  0  0  0  0  0  0  0
  189.0380  175.7890  143.7120 C   0  0  1  0  0  3  0  0  0  0  0  0
  188.5410  173.3300  140.0140 C   0  0  0  0  0  3  0  0  0  0  0  0
  189.7670  173.7810  142.0800 C   0  0  2  0  0  3  0  0  0  0  0  0
  190.3520  171.4100  141.7010 N   0  0  0  0  0  0  0  0  0  0  0  0
  190.0830  171.3450  140.2890 C   0  0  0  0  0  0  0  0  0  0  0  0
  188.9060  177.0980  145.8160 C   0  0  0  0  0  3  0  0  0  0  0  0
  189.5600  174.6140  145.6580 C   0  0  2  0  0  3  0  0  0  0  0  0
  189.2720  172.3240  139.5300 C   0  0  0  0  0  3  0  0  0  0  0  0
  189.0090  175.8630  145.0360 C   0  0  2  0  0  3  0  0  0  0  0  0
  188.7610  176.8860  142.8350 N   0  0  0  0  0  2  0  0  0  0  0  0
  185.6010  176.8320  144.0470 O   0  0  0  0  0  0  0  0  0  0  0  0
  187.1450  178.7130  143.0360 C   0  0  0  0  0  2  0  0  0  0  0  0
  186.3960  176.2870  143.0210 C   0  0  0  0  0  2  0  0  0  0  0  0
  184.8060  177.8230  143.4440 C   0  0  0  0  0  2  0  0  0  0  0  0
  185.6500  179.0370  143.0260 C   0  0  1  0  0  3  0  0  0  0  0  0
  187.4140  177.3080  142.4850 C   0  0  2  0  0  3  0  0  0  0  0  0
  185.4020  180.1020  143.8890 O   0  0  0  0  0  1  0  0  0  0  0  0
  1  5  1  0  0  0  0
  3  5  2  0  0  0  0
  4  6  1  0  0  0  0
  6  7  1  0  0  0  0
  7 16  1  0  0  0  0
  8 10  1  0  0  0  0
  8  7  2  0  0  0  0
  9 14  2  0  0  0  0
 10 19  1  6  0  0  0
 10 18  1  0  0  0  0
 11  2  1  0  0  0  0
 12  2  1  1  0  0  0
 12  4  1  0  0  0  0
 12  8  1  0  0  0  0
 13  4  2  0  0  0  0
 14 13  1  0  0  0  0
 15  1  2  0  0  0  0
 16  3  1  1  0  0  0
 17 11  2  0  0  0  0
 17 14  1  0  0  0  0
 18 16  1  0  0  0  0
 18 15  1  6  0  0  0
 22 20  1  0  0  0  0
 23 20  1  0  0  0  0
 24 21  1  0  0  0  0
 24 23  1  0  0  0  0
 24 26  1  1  0  0  0
 25 19  1  1  0  0  0
 25 22  1  0  0  0  0
 25 21  1  0  0  0  0
M  END
>  <MODEL>
9

>  <REMARK>
 VINA RESULT:      -6.8      3.255      4.503
  Name = 
  2 active torsions:
  status: ('A' for Active; 'I' for Inactive)
    1  A    between atoms: N_6  and  C_16
    2  A    between atoms: N_6  and  C_17
                            x       y       z     vdW  Elec       q    Type
                         _______ _______ _______ _____ _____    ______ ____

>  <TORSDO>
F 2

$$$$
