=
 OpenBabel11072408303D

 56 60  0  0  1  0  0  0  0  0999 V2000
  195.3060  176.2190  142.5540 O   0  0  0  0  0  0  0  0  0  0  0  0
  195.7540  174.2710  145.6720 C   0  0  0  0  0  0  0  0  0  0  0  0
  194.5410  173.5580  145.6180 C   0  0  0  0  0  3  0  0  0  0  0  0
  194.2160  176.0420  141.6480 C   0  0  2  0  0  3  0  0  0  0  0  0
  193.9370  174.7790  143.6290 C   0  0  0  0  0  0  0  0  0  0  0  0
  196.0740  175.2010  144.6710 C   0  0  0  0  0  3  0  0  0  0  0  0
  193.1620  175.2150  142.4200 C   0  0  1  0  0  3  0  0  0  0  0  0
  193.6270  173.8000  144.5800 C   0  0  0  0  0  0  0  0  0  0  0  0
  195.1410  175.4180  143.6570 C   0  0  0  0  0  0  0  0  0  0  0  0
  196.6330  174.0270  146.6730 F   0  0  0  0  0  0  0  0  0  0  0  0
  192.4490  173.0680  144.5080 O   0  0  0  0  0  1  0  0  0  0  0  0
  194.7070  175.2740  140.4270 C   0  0  0  0  0  2  0  0  0  0  0  0
  193.5720  174.5580  139.6800 C   0  0  0  0  0  2  0  0  0  0  0  0
  193.6180  172.4610  141.0930 C   0  0  0  0  0  2  0  0  0  0  0  0
  193.6370  173.0170  139.6610 C   0  0  1  0  0  0  0  0  0  0  0  0
  193.5220  170.9400  141.0360 C   0  0  2  0  0  3  0  0  0  0  0  0
  192.4370  172.4870  138.9160 C   0  0  0  0  0  3  0  0  0  0  0  0
  191.9090  171.2820  139.1860 C   0  0  0  0  0  0  0  0  0  0  0  0
  192.3900  170.5300  140.2720 O   0  0  0  0  0  0  0  0  0  0  0  0
  193.5390  170.3230  142.3980 C   0  0  0  0  0  0  0  0  0  0  0  0
  192.7700  169.3950  144.2600 N   0  0  0  0  0  0  0  0  0  0  0  0
  194.6010  170.0630  143.2580 C   0  0  0  0  0  0  0  0  0  0  0  0
  192.4030  169.8770  143.0560 C   0  0  0  0  0  3  0  0  0  0  0  0
  194.0850  169.5160  144.3730 N   0  0  0  0  0  0  0  0  0  0  0  0
  194.7900  169.1460  145.5290 C   0  0  0  0  0  0  0  0  0  0  0  0
  195.3930  168.8370  146.5290 C   0  0  0  0  0  3  0  0  0  0  0  0
  196.7290  171.2680  143.6250 C   0  0  0  0  0  2  0  0  0  0  0  0
  196.0480  170.2800  143.0600 C   0  0  0  0  0  3  0  0  0  0  0  0
  195.0270  173.0480  137.5110 C   0  0  0  0  0  1  0  0  0  0  0  0
  194.9150  172.5450  138.9450 C   0  0  0  0  0  2  0  0  0  0  0  0
  190.7450  170.7550  138.3890 C   0  0  1  0  0  3  0  0  0  0  0  0
  190.2180  169.5950  138.9690 O   0  0  0  0  0  1  0  0  0  0  0  0
  189.2650  172.1840  137.1550 O   0  0  0  0  0  0  0  0  0  0  0  0
  189.6640  171.7850  138.2820 C   0  0  0  0  0  0  0  0  0  0  0  0
  189.0860  172.3010  139.4350 O   0  0  0  0  0  1  0  0  0  0  0  0
  192.0380  176.2000  142.7710 C   0  0  0  0  0  2  0  0  0  0  0  0
  190.4970  174.5360  141.8780 C   0  0  0  0  0  2  0  0  0  0  0  0
  190.6490  175.6870  142.5310 C   0  0  0  0  0  0  0  0  0  0  0  0
  189.4560  176.2380  143.2600 C   0  0  2  0  0  3  0  0  0  0  0  0
  187.2960  176.5180  141.9740 C   0  0  0  0  0  0  0  0  0  0  0  0
  188.6060  176.9610  142.3240 N   0  0  0  0  0  2  0  0  0  0  0  0
  186.7410  175.5840  142.6130 O   0  0  0  0  0  0  0  0  0  0  0  0
  186.5990  177.1500  140.8140 C   0  0  0  0  0  2  0  0  0  0  0  0
  184.5160  177.8240  141.8060 O   0  0  0  0  0  0  0  0  0  0  0  0
  184.4550  178.3250  140.4940 C   0  0  0  0  0  2  0  0  0  0  0  0
  185.7210  178.3150  141.2610 C   0  0  2  0  0  3  0  0  0  0  0  0
  189.8080  177.0990  144.3960 N   0  0  0  0  0  2  0  0  0  0  0  0
  189.0370  176.7910  145.6120 C   0  0  1  0  0  3  0  0  0  0  0  0
  189.9080  177.0240  146.8380 C   0  0  0  0  0  2  0  0  0  0  0  0
  190.8460  175.8540  147.0810 C   0  0  0  0  0  2  0  0  0  0  0  0
  192.2780  176.3210  146.9360 C   0  0  0  0  0  1  0  0  0  0  0  0
  187.7560  177.6280  145.7400 C   0  0  0  0  0  2  0  0  0  0  0  0
  186.5310  176.7540  145.9980 C   0  0  0  0  0  2  0  0  0  0  0  0
  185.9530  177.5190  148.1770 O   0  0  0  0  0  1  0  0  0  0  0  0
  184.3100  177.7550  146.5960 O   0  0  0  0  0  0  0  0  0  0  0  0
  185.5830  177.3550  146.9850 C   0  0  0  0  0  0  0  0  0  0  0  0
  1  9  1  0  0  0  0
  2 10  1  0  0  0  0
  3  2  1  0  0  0  0
  4 12  1  6  0  0  0
  4  7  1  0  0  0  0
  4  1  1  0  0  0  0
  5  9  2  0  0  0  0
  5  8  1  0  0  0  0
  6  2  2  0  0  0  0
  7 36  1  1  0  0  0
  7  5  1  0  0  0  0
  8  3  2  0  0  0  0
  9  6  1  0  0  0  0
 11  8  1  0  0  0  0
 13 12  1  0  0  0  0
 15 30  1  6  0  0  0
 15 13  1  0  0  0  0
 15 14  1  0  0  0  0
 16 14  1  0  0  0  0
 16 20  1  1  0  0  0
 17 18  2  0  0  0  0
 17 15  1  0  0  0  0
 18 19  1  0  0  0  0
 19 16  1  0  0  0  0
 20 23  1  0  0  0  0
 20 22  2  0  0  0  0
 21 24  1  0  0  0  0
 22 24  1  0  0  0  0
 23 21  2  0  0  0  0
 24 25  1  0  0  0  0
 25 26  3  0  0  0  0
 28 22  1  0  0  0  0
 28 27  2  0  0  0  0
 29 30  1  0  0  0  0
 31 32  1  1  0  0  0
 31 18  1  0  0  0  0
 33 34  2  0  0  0  0
 34 31  1  0  0  0  0
 34 35  1  0  0  0  0
 37 38  2  0  0  0  0
 38 36  1  0  0  0  0
 38 39  1  0  0  0  0
 39 41  1  6  0  0  0
 39 47  1  0  0  0  0
 40 41  1  0  0  0  0
 40 42  2  0  0  0  0
 43 40  1  0  0  0  0
 45 46  1  0  0  0  0
 45 44  1  0  0  0  0
 46 43  1  6  0  0  0
 46 44  1  0  0  0  0
 47 48  1  0  0  0  0
 48 52  1  1  0  0  0
 48 49  1  0  0  0  0
 49 50  1  0  0  0  0
 51 50  1  0  0  0  0
 52 53  1  0  0  0  0
 53 56  1  0  0  0  0
 55 56  2  0  0  0  0
 56 54  1  0  0  0  0
M  END
>  <MODEL>
1

>  <REMARK>
 VINA RESULT:      -5.9      0.000      0.000
  Name = 
  22 active torsions:
  status: ('A' for Active; 'I' for Inactive)
    1  A    between atoms: C_1  and  C_15
    2  A    between atoms: C_1  and  C_18
    3  A    between atoms: C_2  and  C_31
    4  A    between atoms: C_2  and  C_47
    5  A    between atoms: C_8  and  C_32
    6  A    between atoms: C_8  and  C_54
    7  A    between atoms: C_11  and  C_14
    8  A    between atoms: C_11  and  N_27
    9  A    between atoms: C_11  and  C_41
   10  A    between atoms: C_12  and  C_36
   11  A    between atoms: C_14  and  C_50
   12  A    between atoms: C_15  and  C_20
   13  A    between atoms: C_16  and  C_22
   14  A    between atoms: C_17  and  C_41
   15  A    between atoms: C_20  and  C_40
   16  A    between atoms: C_21  and  N_27
   17  A    between atoms: C_21  and  N_42
   18  A    between atoms: C_21  and  C_54
   19  A    between atoms: C_23  and  C_46
   20  A    between atoms: C_25  and  N_48
   21  A    between atoms: C_43  and  C_46
   22  A    between atoms: C_50  and  C_52
                            x       y       z     vdW  Elec       q    Type
                         _______ _______ _______ _____ _____    ______ ____

>  <TORSDO>
F 22

$$$$
=
 OpenBabel11072408303D

 56 60  0  0  1  0  0  0  0  0999 V2000
  190.6370  174.7640  144.0800 O   0  0  0  0  0  0  0  0  0  0  0  0
  193.5140  176.5720  145.5550 C   0  0  0  0  0  0  0  0  0  0  0  0
  193.1060  176.4970  146.9000 C   0  0  0  0  0  3  0  0  0  0  0  0
  189.6050  174.1420  144.8450 C   0  0  2  0  0  3  0  0  0  0  0  0
  191.0730  175.4070  146.2020 C   0  0  0  0  0  0  0  0  0  0  0  0
  192.7170  176.0160  144.5420 C   0  0  0  0  0  3  0  0  0  0  0  0
  189.7470  174.7070  146.2780 C   0  0  1  0  0  3  0  0  0  0  0  0
  191.8820  175.8970  147.2340 C   0  0  0  0  0  0  0  0  0  0  0  0
  191.5060  175.4300  144.9090 C   0  0  0  0  0  0  0  0  0  0  0  0
  194.6990  177.1480  145.2430 F   0  0  0  0  0  0  0  0  0  0  0  0
  191.5000  175.7900  148.5650 O   0  0  0  0  0  1  0  0  0  0  0  0
  189.8260  172.6340  144.8420 C   0  0  0  0  0  2  0  0  0  0  0  0
  190.0880  172.0750  143.4360 C   0  0  0  0  0  2  0  0  0  0  0  0
  192.1470  172.8050  142.1630 C   0  0  0  0  0  2  0  0  0  0  0  0
  191.5550  171.7410  143.1000 C   0  0  1  0  0  0  0  0  0  0  0  0
  193.6370  172.5340  141.9790 C   0  0  2  0  0  3  0  0  0  0  0  0
  192.3560  171.7180  144.3790 C   0  0  0  0  0  3  0  0  0  0  0  0
  193.6660  172.0120  144.4010 C   0  0  0  0  0  0  0  0  0  0  0  0
  194.3030  172.4810  143.2380 O   0  0  0  0  0  0  0  0  0  0  0  0
  194.2740  173.5110  141.0420 C   0  0  0  0  0  0  0  0  0  0  0  0
  195.2910  175.3580  140.3550 N   0  0  0  0  0  0  0  0  0  0  0  0
  194.4690  173.4460  139.6670 C   0  0  0  0  0  0  0  0  0  0  0  0
  194.8160  174.7220  141.4440 C   0  0  0  0  0  3  0  0  0  0  0  0
  195.0740  174.5900  139.2980 N   0  0  0  0  0  0  0  0  0  0  0  0
  195.4110  174.9760  137.9900 C   0  0  0  0  0  0  0  0  0  0  0  0
  195.7110  175.3090  136.8690 C   0  0  0  0  0  3  0  0  0  0  0  0
  194.6850  171.1540  138.7660 C   0  0  0  0  0  2  0  0  0  0  0  0
  194.1420  172.3630  138.7190 C   0  0  0  0  0  3  0  0  0  0  0  0
  190.7620  170.2210  141.1990 C   0  0  0  0  0  1  0  0  0  0  0  0
  191.6490  170.3580  142.4300 C   0  0  0  0  0  2  0  0  0  0  0  0
  194.4520  171.9290  145.6830 C   0  0  1  0  0  3  0  0  0  0  0  0
  194.7300  170.5990  146.0210 O   0  0  0  0  0  1  0  0  0  0  0  0
  195.7660  173.9360  145.7190 O   0  0  0  0  0  1  0  0  0  0  0  0
  195.7390  172.6850  145.5680 C   0  0  0  0  0  0  0  0  0  0  0  0
  196.9190  172.0010  145.3000 O   0  0  0  0  0  0  0  0  0  0  0  0
  188.5800  175.6870  146.4550 C   0  0  0  0  0  2  0  0  0  0  0  0
  189.5590  177.6990  145.4900 C   0  0  0  0  0  2  0  0  0  0  0  0
  188.5540  176.8250  145.4790 C   0  0  0  0  0  0  0  0  0  0  0  0
  187.6270  176.8450  144.2960 C   0  0  2  0  0  3  0  0  0  0  0  0
  188.0240  175.5260  142.1750 C   0  0  0  0  0  0  0  0  0  0  0  0
  188.3820  176.5660  143.0830 N   0  0  0  0  0  2  0  0  0  0  0  0
  186.9190  174.9290  142.2850 O   0  0  0  0  0  0  0  0  0  0  0  0
  188.9910  175.1230  141.1090 C   0  0  0  0  0  2  0  0  0  0  0  0
  188.5680  172.9040  140.2860 O   0  0  0  0  0  0  0  0  0  0  0  0
  189.3300  173.5130  139.2740 C   0  0  0  0  0  2  0  0  0  0  0  0
  188.3140  174.2710  140.0400 C   0  0  2  0  0  3  0  0  0  0  0  0
  186.8830  178.1020  144.1540 N   0  0  0  0  0  2  0  0  0  0  0  0
  185.5580  178.0620  144.7930 C   0  0  1  0  0  3  0  0  0  0  0  0
  185.5010  179.0930  145.9110 C   0  0  0  0  0  2  0  0  0  0  0  0
  185.3910  178.4270  147.2720 C   0  0  0  0  0  2  0  0  0  0  0  0
  186.6370  178.7270  148.0780 C   0  0  0  0  0  1  0  0  0  0  0  0
  184.4080  178.3250  143.8090 C   0  0  0  0  0  2  0  0  0  0  0  0
  184.7280  177.8040  142.4100 C   0  0  0  0  0  2  0  0  0  0  0  0
  184.1220  178.6290  140.2600 O   0  0  0  0  0  0  0  0  0  0  0  0
  182.3620  178.1630  141.6550 O   0  0  0  0  0  1  0  0  0  0  0  0
  183.7250  178.2290  141.3860 C   0  0  0  0  0  0  0  0  0  0  0  0
  1  4  1  0  0  0  0
  1  9  1  0  0  0  0
  2  3  1  0  0  0  0
  3  8  2  0  0  0  0
  4 12  1  1  0  0  0
  4  7  1  0  0  0  0
  5  7  1  0  0  0  0
  5  8  1  0  0  0  0
  6  9  1  0  0  0  0
  6  2  2  0  0  0  0
  7 36  1  6  0  0  0
  8 11  1  0  0  0  0
  9  5  2  0  0  0  0
 10  2  1  0  0  0  0
 13 12  1  0  0  0  0
 14 15  1  0  0  0  0
 15 30  1  6  0  0  0
 15 13  1  0  0  0  0
 15 17  1  0  0  0  0
 16 20  1  6  0  0  0
 16 14  1  0  0  0  0
 16 19  1  0  0  0  0
 17 18  2  0  0  0  0
 18 31  1  0  0  0  0
 19 18  1  0  0  0  0
 20 23  1  0  0  0  0
 21 23  2  0  0  0  0
 22 20  2  0  0  0  0
 24 22  1  0  0  0  0
 24 21  1  0  0  0  0
 25 24  1  0  0  0  0
 26 25  3  0  0  0  0
 28 27  2  0  0  0  0
 28 22  1  0  0  0  0
 29 30  1  0  0  0  0
 31 32  1  6  0  0  0
 34 31  1  0  0  0  0
 34 33  1  0  0  0  0
 35 34  2  0  0  0  0
 38 37  2  0  0  0  0
 38 36  1  0  0  0  0
 39 41  1  6  0  0  0
 39 38  1  0  0  0  0
 40 42  2  0  0  0  0
 40 41  1  0  0  0  0
 43 40  1  0  0  0  0
 45 46  1  0  0  0  0
 45 44  1  0  0  0  0
 46 44  1  0  0  0  0
 46 43  1  1  0  0  0
 47 39  1  0  0  0  0
 47 48  1  0  0  0  0
 48 52  1  6  0  0  0
 48 49  1  0  0  0  0
 49 50  1  0  0  0  0
 50 51  1  0  0  0  0
 53 52  1  0  0  0  0
 54 56  2  0  0  0  0
 56 55  1  0  0  0  0
 56 53  1  0  0  0  0
M  END
>  <MODEL>
2

>  <REMARK>
 VINA RESULT:      -5.8      2.703      5.747
  Name = 
  22 active torsions:
  status: ('A' for Active; 'I' for Inactive)
    1  A    between atoms: C_1  and  C_15
    2  A    between atoms: C_1  and  C_18
    3  A    between atoms: C_2  and  C_31
    4  A    between atoms: C_2  and  C_47
    5  A    between atoms: C_8  and  C_32
    6  A    between atoms: C_8  and  C_54
    7  A    between atoms: C_11  and  C_14
    8  A    between atoms: C_11  and  N_27
    9  A    between atoms: C_11  and  C_41
   10  A    between atoms: C_12  and  C_36
   11  A    between atoms: C_14  and  C_50
   12  A    between atoms: C_15  and  C_20
   13  A    between atoms: C_16  and  C_22
   14  A    between atoms: C_17  and  C_41
   15  A    between atoms: C_20  and  C_40
   16  A    between atoms: C_21  and  N_27
   17  A    between atoms: C_21  and  N_42
   18  A    between atoms: C_21  and  C_54
   19  A    between atoms: C_23  and  C_46
   20  A    between atoms: C_25  and  N_48
   21  A    between atoms: C_43  and  C_46
   22  A    between atoms: C_50  and  C_52
                            x       y       z     vdW  Elec       q    Type
                         _______ _______ _______ _____ _____    ______ ____

>  <TORSDO>
F 22

$$$$
=
 OpenBabel11072408303D

 56 60  0  0  1  0  0  0  0  0999 V2000
  192.5130  175.7330  142.1280 O   0  0  0  0  0  0  0  0  0  0  0  0
  195.8120  176.3950  143.6780 C   0  0  0  0  0  0  0  0  0  0  0  0
  195.3440  176.7510  144.9570 C   0  0  0  0  0  3  0  0  0  0  0  0
  191.2750  175.7600  142.8370 C   0  0  2  0  0  3  0  0  0  0  0  0
  193.0770  176.5140  144.1720 C   0  0  0  0  0  0  0  0  0  0  0  0
  194.9050  176.0490  142.6630 C   0  0  0  0  0  3  0  0  0  0  0  0
  191.5770  176.4670  144.1790 C   0  0  1  0  0  3  0  0  0  0  0  0
  193.9640  176.7980  145.2160 C   0  0  0  0  0  0  0  0  0  0  0  0
  193.5430  176.1100  142.9540 C   0  0  0  0  0  0  0  0  0  0  0  0
  197.1430  176.3460  143.4390 F   0  0  0  0  0  0  0  0  0  0  0  0
  193.5070  177.1120  146.4890 O   0  0  0  0  0  1  0  0  0  0  0  0
  190.8120  174.3280  143.0810 C   0  0  0  0  0  2  0  0  0  0  0  0
  190.3800  173.6150  141.7920 C   0  0  0  0  0  2  0  0  0  0  0  0
  192.2120  173.5220  140.0500 C   0  0  0  0  0  2  0  0  0  0  0  0
  191.4450  172.7260  141.1180 C   0  0  1  0  0  0  0  0  0  0  0  0
  193.3570  172.6670  139.5180 C   0  0  2  0  0  3  0  0  0  0  0  0
  192.4210  172.2520  142.1670 C   0  0  0  0  0  3  0  0  0  0  0  0
  193.6980  171.9640  141.8700 C   0  0  0  0  0  0  0  0  0  0  0  0
  194.1980  172.2240  140.5810 O   0  0  0  0  0  0  0  0  0  0  0  0
  194.1270  173.3650  138.4420 C   0  0  0  0  0  0  0  0  0  0  0  0
  194.5310  174.3810  136.5120 N   0  0  0  0  0  0  0  0  0  0  0  0
  195.4730  173.7070  138.3720 C   0  0  0  0  0  0  0  0  0  0  0  0
  193.5610  173.8170  137.2590 C   0  0  0  0  0  3  0  0  0  0  0  0
  195.6700  174.3050  137.1840 N   0  0  0  0  0  0  0  0  0  0  0  0
  196.8930  174.7640  136.6690 C   0  0  0  0  0  0  0  0  0  0  0  0
  197.9410  175.1700  136.2260 C   0  0  0  0  0  3  0  0  0  0  0  0
  196.9930  174.4880  140.1590 C   0  0  0  0  0  2  0  0  0  0  0  0
  196.5450  173.5200  139.3710 C   0  0  0  0  0  3  0  0  0  0  0  0
  190.5710  170.3400  141.4300 C   0  0  0  0  0  1  0  0  0  0  0  0
  190.7830  171.4990  140.4640 C   0  0  0  0  0  2  0  0  0  0  0  0
  194.6350  171.4410  142.9260 C   0  0  1  0  0  3  0  0  0  0  0  0
  195.7280  170.7790  142.3510 O   0  0  0  0  0  1  0  0  0  0  0  0
  196.2960  173.0210  143.6340 O   0  0  0  0  0  0  0  0  0  0  0  0
  195.1360  172.5540  143.7920 C   0  0  0  0  0  0  0  0  0  0  0  0
  194.3110  173.0860  144.7760 O   0  0  0  0  0  1  0  0  0  0  0  0
  190.9490  177.8630  144.0620 C   0  0  0  0  0  2  0  0  0  0  0  0
  189.4600  178.1720  142.1570 C   0  0  0  0  0  2  0  0  0  0  0  0
  189.5780  177.8920  143.4540 C   0  0  0  0  0  0  0  0  0  0  0  0
  188.3800  177.3150  144.1540 C   0  0  2  0  0  3  0  0  0  0  0  0
  186.0910  177.3300  143.0790 C   0  0  0  0  0  0  0  0  0  0  0  0
  187.1780  178.0060  143.7090 N   0  0  0  0  0  2  0  0  0  0  0  0
  186.0410  176.0710  143.0590 O   0  0  0  0  0  0  0  0  0  0  0  0
  185.0240  178.1330  142.4080 C   0  0  0  0  0  2  0  0  0  0  0  0
  184.4840  178.9630  140.2170 O   0  0  0  0  0  0  0  0  0  0  0  0
  183.5620  177.9240  140.4340 C   0  0  0  0  0  2  0  0  0  0  0  0
  184.9600  177.8310  140.9130 C   0  0  2  0  0  3  0  0  0  0  0  0
  188.4780  177.3590  145.6190 N   0  0  0  0  0  2  0  0  0  0  0  0
  187.7590  176.2570  146.2770 C   0  0  1  0  0  3  0  0  0  0  0  0
  188.6380  175.6530  147.3640 C   0  0  0  0  0  2  0  0  0  0  0  0
  189.5520  174.5780  146.8020 C   0  0  0  0  0  2  0  0  0  0  0  0
  190.9920  174.9520  147.0770 C   0  0  0  0  0  1  0  0  0  0  0  0
  186.4240  176.6950  146.8970 C   0  0  0  0  0  2  0  0  0  0  0  0
  186.3820  178.2020  147.1460 C   0  0  0  0  0  2  0  0  0  0  0  0
  184.0510  178.4850  146.7510 O   0  0  0  0  0  1  0  0  0  0  0  0
  185.4140  179.9240  145.5990 O   0  0  0  0  0  0  0  0  0  0  0  0
  185.2200  178.8690  146.4850 C   0  0  0  0  0  0  0  0  0  0  0  0
  1  4  1  0  0  0  0
  1  9  1  0  0  0  0
  2  3  1  0  0  0  0
  3  8  2  0  0  0  0
  4 12  1  1  0  0  0
  4  7  1  0  0  0  0
  5  7  1  0  0  0  0
  5  8  1  0  0  0  0
  6  9  1  0  0  0  0
  6  2  2  0  0  0  0
  7 36  1  6  0  0  0
  8 11  1  0  0  0  0
  9  5  2  0  0  0  0
 10  2  1  0  0  0  0
 13 12  1  0  0  0  0
 14 15  1  0  0  0  0
 15 30  1  6  0  0  0
 15 13  1  0  0  0  0
 15 17  1  0  0  0  0
 16 20  1  6  0  0  0
 16 14  1  0  0  0  0
 16 19  1  0  0  0  0
 18 17  2  0  0  0  0
 18 31  1  0  0  0  0
 19 18  1  0  0  0  0
 21 24  1  0  0  0  0
 21 23  2  0  0  0  0
 22 20  2  0  0  0  0
 22 28  1  0  0  0  0
 23 20  1  0  0  0  0
 24 22  1  0  0  0  0
 25 24  1  0  0  0  0
 26 25  3  0  0  0  0
 28 27  2  0  0  0  0
 30 29  1  0  0  0  0
 31 32  1  6  0  0  0
 31 34  1  0  0  0  0
 33 34  2  0  0  0  0
 34 35  1  0  0  0  0
 37 38  2  0  0  0  0
 38 36  1  0  0  0  0
 39 38  1  6  0  0  0
 39 47  1  0  0  0  0
 40 41  1  0  0  0  0
 41 39  1  0  0  0  0
 42 40  2  0  0  0  0
 43 40  1  0  0  0  0
 44 45  1  0  0  0  0
 44 46  1  0  0  0  0
 45 46  1  0  0  0  0
 46 43  1  1  0  0  0
 47 48  1  0  0  0  0
 48 52  1  1  0  0  0
 48 49  1  0  0  0  0
 50 51  1  0  0  0  0
 50 49  1  0  0  0  0
 52 53  1  0  0  0  0
 55 56  2  0  0  0  0
 56 54  1  0  0  0  0
 56 53  1  0  0  0  0
M  END
>  <MODEL>
3

>  <REMARK>
 VINA RESULT:      -5.5      2.791      4.676
  Name = 
  22 active torsions:
  status: ('A' for Active; 'I' for Inactive)
    1  A    between atoms: C_1  and  C_15
    2  A    between atoms: C_1  and  C_18
    3  A    between atoms: C_2  and  C_31
    4  A    between atoms: C_2  and  C_47
    5  A    between atoms: C_8  and  C_32
    6  A    between atoms: C_8  and  C_54
    7  A    between atoms: C_11  and  C_14
    8  A    between atoms: C_11  and  N_27
    9  A    between atoms: C_11  and  C_41
   10  A    between atoms: C_12  and  C_36
   11  A    between atoms: C_14  and  C_50
   12  A    between atoms: C_15  and  C_20
   13  A    between atoms: C_16  and  C_22
   14  A    between atoms: C_17  and  C_41
   15  A    between atoms: C_20  and  C_40
   16  A    between atoms: C_21  and  N_27
   17  A    between atoms: C_21  and  N_42
   18  A    between atoms: C_21  and  C_54
   19  A    between atoms: C_23  and  C_46
   20  A    between atoms: C_25  and  N_48
   21  A    between atoms: C_43  and  C_46
   22  A    between atoms: C_50  and  C_52
                            x       y       z     vdW  Elec       q    Type
                         _______ _______ _______ _____ _____    ______ ____

>  <TORSDO>
F 22

$$$$
=
 OpenBabel11072408303D

 56 60  0  0  1  0  0  0  0  0999 V2000
  191.0780  172.9300  139.6320 O   0  0  0  0  0  0  0  0  0  0  0  0
  189.9440  170.7100  136.8910 C   0  0  0  0  0  0  0  0  0  0  0  0
  189.8980  169.5140  137.6320 C   0  0  0  0  0  3  0  0  0  0  0  0
  191.2280  172.5140  140.9890 C   0  0  2  0  0  3  0  0  0  0  0  0
  190.7520  170.6950  139.5520 C   0  0  0  0  0  0  0  0  0  0  0  0
  190.3490  171.9070  137.5030 C   0  0  0  0  0  3  0  0  0  0  0  0
  191.2040  170.9680  140.9580 C   0  0  1  0  0  3  0  0  0  0  0  0
  190.2910  169.5040  138.9810 C   0  0  0  0  0  0  0  0  0  0  0  0
  190.7350  171.8590  138.8420 C   0  0  0  0  0  0  0  0  0  0  0  0
  189.5590  170.7110  135.5930 F   0  0  0  0  0  0  0  0  0  0  0  0
  190.2070  168.3320  139.7200 O   0  0  0  0  0  1  0  0  0  0  0  0
  190.0570  173.0490  141.8040 C   0  0  0  0  0  2  0  0  0  0  0  0
  190.4390  173.3620  143.2580 C   0  0  0  0  0  2  0  0  0  0  0  0
  189.1350  175.3640  144.0880 C   0  0  0  0  0  2  0  0  0  0  0  0
  190.5130  174.8550  143.6360 C   0  0  1  0  0  0  0  0  0  0  0  0
  189.2760  176.7930  144.6040 C   0  0  2  0  0  3  0  0  0  0  0  0
  191.4920  175.0230  144.7720 C   0  0  0  0  0  3  0  0  0  0  0  0
  191.3780  176.0200  145.6650 C   0  0  0  0  0  0  0  0  0  0  0  0
  190.2550  176.8660  145.6380 O   0  0  0  0  0  0  0  0  0  0  0  0
  187.9630  177.3700  145.0260 C   0  0  0  0  0  0  0  0  0  0  0  0
  186.3210  178.0140  146.3710 N   0  0  0  0  0  0  0  0  0  0  0  0
  186.9310  177.9150  144.2680 C   0  0  0  0  0  0  0  0  0  0  0  0
  187.5500  177.4610  146.3460 C   0  0  0  0  0  3  0  0  0  0  0  0
  185.9580  178.2760  145.1240 N   0  0  0  0  0  0  0  0  0  0  0  0
  184.7080  178.8190  144.7890 C   0  0  0  0  0  0  0  0  0  0  0  0
  183.6340  179.2960  144.5090 C   0  0  0  0  0  3  0  0  0  0  0  0
  186.5600  177.1670  141.9410 C   0  0  0  0  0  2  0  0  0  0  0  0
  186.8450  178.1280  142.8100 C   0  0  0  0  0  3  0  0  0  0  0  0
  192.5080  175.8800  142.4030 C   0  0  0  0  0  1  0  0  0  0  0  0
  190.9980  175.6870  142.4350 C   0  0  0  0  0  2  0  0  0  0  0  0
  192.4010  176.1960  146.7570 C   0  0  1  0  0  3  0  0  0  0  0  0
  192.3950  175.1080  147.6370 O   0  0  0  0  0  1  0  0  0  0  0  0
  194.0410  177.3150  145.4110 O   0  0  0  0  0  0  0  0  0  0  0  0
  193.7730  176.3540  146.1800 C   0  0  0  0  0  0  0  0  0  0  0  0
  194.7660  175.4370  146.5030 O   0  0  0  0  0  1  0  0  0  0  0  0
  192.6530  170.5260  141.2010 C   0  0  0  0  0  2  0  0  0  0  0  0
  192.8950  170.5370  143.6260 C   0  0  0  0  0  2  0  0  0  0  0  0
  193.2750  171.0560  142.4590 C   0  0  0  0  0  0  0  0  0  0  0  0
  194.5150  171.9030  142.4440 C   0  0  2  0  0  3  0  0  0  0  0  0
  194.9900  173.0210  140.2250 C   0  0  0  0  0  0  0  0  0  0  0  0
  195.0880  171.9020  141.1050 N   0  0  0  0  0  2  0  0  0  0  0  0
  194.5730  174.1340  140.6450 O   0  0  0  0  0  0  0  0  0  0  0  0
  195.3550  172.8510  138.7860 C   0  0  0  0  0  2  0  0  0  0  0  0
  197.7370  173.0820  138.5560 O   0  0  0  0  0  0  0  0  0  0  0  0
  197.3240  172.5000  137.3450 C   0  0  0  0  0  2  0  0  0  0  0  0
  196.6940  172.1350  138.6340 C   0  0  2  0  0  3  0  0  0  0  0  0
  195.5230  171.4870  143.4270 N   0  0  0  0  0  2  0  0  0  0  0  0
  196.0200  172.6030  144.2490 C   0  0  1  0  0  3  0  0  0  0  0  0
  196.3710  172.0930  145.6400 C   0  0  0  0  0  2  0  0  0  0  0  0
  195.6760  170.7750  145.9370 C   0  0  0  0  0  2  0  0  0  0  0  0
  196.6180  169.8750  146.7070 C   0  0  0  0  0  1  0  0  0  0  0  0
  197.2500  173.2940  143.6430 C   0  0  0  0  0  2  0  0  0  0  0  0
  197.4030  174.7270  144.1500 C   0  0  0  0  0  2  0  0  0  0  0  0
  197.3490  175.4350  141.8770 O   0  0  0  0  0  0  0  0  0  0  0  0
  196.7600  177.0360  143.4090 O   0  0  0  0  0  1  0  0  0  0  0  0
  197.1780  175.7500  143.0850 C   0  0  0  0  0  0  0  0  0  0  0  0
  1  4  1  0  0  0  0
  2  6  2  0  0  0  0
  2  3  1  0  0  0  0
  3  8  2  0  0  0  0
  4 12  1  1  0  0  0
  5  7  1  0  0  0  0
  6  9  1  0  0  0  0
  7  4  1  0  0  0  0
  7 36  1  6  0  0  0
  8  5  1  0  0  0  0
  8 11  1  0  0  0  0
  9  5  2  0  0  0  0
  9  1  1  0  0  0  0
 10  2  1  0  0  0  0
 12 13  1  0  0  0  0
 13 15  1  0  0  0  0
 14 16  1  0  0  0  0
 15 30  1  6  0  0  0
 15 14  1  0  0  0  0
 15 17  1  0  0  0  0
 16 20  1  1  0  0  0
 16 19  1  0  0  0  0
 17 18  2  0  0  0  0
 18 31  1  0  0  0  0
 19 18  1  0  0  0  0
 20 23  1  0  0  0  0
 22 20  2  0  0  0  0
 22 24  1  0  0  0  0
 23 21  2  0  0  0  0
 24 21  1  0  0  0  0
 25 24  1  0  0  0  0
 26 25  3  0  0  0  0
 27 28  2  0  0  0  0
 28 22  1  0  0  0  0
 29 30  1  0  0  0  0
 31 32  1  1  0  0  0
 33 34  2  0  0  0  0
 34 35  1  0  0  0  0
 34 31  1  0  0  0  0
 36 38  1  0  0  0  0
 38 37  2  0  0  0  0
 39 41  1  6  0  0  0
 39 38  1  0  0  0  0
 39 47  1  0  0  0  0
 40 42  2  0  0  0  0
 40 41  1  0  0  0  0
 43 40  1  0  0  0  0
 44 46  1  0  0  0  0
 45 44  1  0  0  0  0
 45 46  1  0  0  0  0
 46 43  1  6  0  0  0
 47 48  1  0  0  0  0
 48 52  1  6  0  0  0
 48 49  1  0  0  0  0
 49 50  1  0  0  0  0
 50 51  1  0  0  0  0
 52 53  1  0  0  0  0
 54 56  2  0  0  0  0
 56 55  1  0  0  0  0
 56 53  1  0  0  0  0
M  END
>  <MODEL>
4

>  <REMARK>
 VINA RESULT:      -5.4      3.048      9.568
  Name = 
  22 active torsions:
  status: ('A' for Active; 'I' for Inactive)
    1  A    between atoms: C_1  and  C_15
    2  A    between atoms: C_1  and  C_18
    3  A    between atoms: C_2  and  C_31
    4  A    between atoms: C_2  and  C_47
    5  A    between atoms: C_8  and  C_32
    6  A    between atoms: C_8  and  C_54
    7  A    between atoms: C_11  and  C_14
    8  A    between atoms: C_11  and  N_27
    9  A    between atoms: C_11  and  C_41
   10  A    between atoms: C_12  and  C_36
   11  A    between atoms: C_14  and  C_50
   12  A    between atoms: C_15  and  C_20
   13  A    between atoms: C_16  and  C_22
   14  A    between atoms: C_17  and  C_41
   15  A    between atoms: C_20  and  C_40
   16  A    between atoms: C_21  and  N_27
   17  A    between atoms: C_21  and  N_42
   18  A    between atoms: C_21  and  C_54
   19  A    between atoms: C_23  and  C_46
   20  A    between atoms: C_25  and  N_48
   21  A    between atoms: C_43  and  C_46
   22  A    between atoms: C_50  and  C_52
                            x       y       z     vdW  Elec       q    Type
                         _______ _______ _______ _____ _____    ______ ____

>  <TORSDO>
F 22

$$$$
=
 OpenBabel11072408303D

 56 60  0  0  1  0  0  0  0  0999 V2000
  193.3110  169.6030  144.2410 O   0  0  0  0  0  0  0  0  0  0  0  0
  196.3750  169.8450  146.3100 C   0  0  0  0  0  0  0  0  0  0  0  0
  197.0470  170.8040  145.5290 C   0  0  0  0  0  3  0  0  0  0  0  0
  193.0440  170.4270  143.1070 C   0  0  2  0  0  3  0  0  0  0  0  0
  195.2340  170.7520  143.9410 C   0  0  0  0  0  0  0  0  0  0  0  0
  195.1070  169.3820  145.9250 C   0  0  0  0  0  3  0  0  0  0  0  0
  194.3920  171.0920  142.7460 C   0  0  1  0  0  3  0  0  0  0  0  0
  196.4690  171.2770  144.3390 C   0  0  0  0  0  0  0  0  0  0  0  0
  194.5640  169.8700  144.7370 C   0  0  0  0  0  0  0  0  0  0  0  0
  196.9370  169.4000  147.4580 F   0  0  0  0  0  0  0  0  0  0  0  0
  197.1160  172.2510  143.5910 O   0  0  0  0  0  1  0  0  0  0  0  0
  192.0150  171.4830  143.4940 C   0  0  0  0  0  2  0  0  0  0  0  0
  191.7860  172.5240  142.3870 C   0  0  0  0  0  2  0  0  0  0  0  0
  190.5880  174.5260  143.3630 C   0  0  0  0  0  2  0  0  0  0  0  0
  191.9210  174.0020  142.8060 C   0  0  1  0  0  0  0  0  0  0  0  0
  190.7970  175.9330  143.9130 C   0  0  2  0  0  3  0  0  0  0  0  0
  192.9750  174.1100  143.8800 C   0  0  0  0  0  3  0  0  0  0  0  0
  192.9440  175.0790  144.8090 C   0  0  0  0  0  0  0  0  0  0  0  0
  191.8430  175.9510  144.8830 O   0  0  0  0  0  0  0  0  0  0  0  0
  189.5290  176.5260  144.4380 C   0  0  0  0  0  0  0  0  0  0  0  0
  187.7810  177.8840  144.5780 N   0  0  0  0  0  0  0  0  0  0  0  0
  188.7590  176.1770  145.5430 C   0  0  0  0  0  0  0  0  0  0  0  0
  188.8760  177.5970  143.8470 C   0  0  0  0  0  3  0  0  0  0  0  0
  187.7240  177.0340  145.5930 N   0  0  0  0  0  0  0  0  0  0  0  0
  186.7240  177.0840  146.5780 C   0  0  0  0  0  0  0  0  0  0  0  0
  185.8600  177.1180  147.4210 C   0  0  0  0  0  3  0  0  0  0  0  0
  189.8800  175.0720  147.4510 C   0  0  0  0  0  2  0  0  0  0  0  0
  188.9440  175.0770  146.5100 C   0  0  0  0  0  3  0  0  0  0  0  0
  193.8560  174.9250  141.4080 C   0  0  0  0  0  1  0  0  0  0  0  0
  192.3470  174.8620  141.6020 C   0  0  0  0  0  2  0  0  0  0  0  0
  194.0390  175.1970  145.8360 C   0  0  1  0  0  3  0  0  0  0  0  0
  195.0920  174.3170  145.5580 O   0  0  0  0  0  1  0  0  0  0  0  0
  195.2610  177.0600  144.9460 O   0  0  0  0  0  0  0  0  0  0  0  0
  194.5690  176.5960  145.8920 C   0  0  0  0  0  0  0  0  0  0  0  0
  194.2900  177.3960  146.9930 O   0  0  0  0  0  1  0  0  0  0  0  0
  194.8750  170.3850  141.4720 C   0  0  0  0  0  2  0  0  0  0  0  0
  196.3360  171.8560  140.1900 C   0  0  0  0  0  2  0  0  0  0  0  0
  195.1350  171.2910  140.3050 C   0  0  0  0  0  0  0  0  0  0  0  0
  194.2270  171.3350  139.1090 C   0  0  2  0  0  3  0  0  0  0  0  0
  194.4790  173.3830  137.6460 C   0  0  0  0  0  0  0  0  0  0  0  0
  193.9230  172.7210  138.7810 N   0  0  0  0  0  2  0  0  0  0  0  0
  195.1050  172.7330  136.7650 O   0  0  0  0  0  0  0  0  0  0  0  0
  194.3430  174.8660  137.5280 C   0  0  0  0  0  2  0  0  0  0  0  0
  192.9760  175.1440  135.5700 O   0  0  0  0  0  0  0  0  0  0  0  0
  193.0970  176.4420  136.0980 C   0  0  0  0  0  2  0  0  0  0  0  0
  192.9750  175.2560  136.9770 C   0  0  2  0  0  3  0  0  0  0  0  0
  192.9850  170.5720  139.2850 N   0  0  0  0  0  2  0  0  0  0  0  0
  191.9130  170.9960  138.3710 C   0  0  1  0  0  3  0  0  0  0  0  0
  191.5890  169.8630  137.4070 C   0  0  0  0  0  2  0  0  0  0  0  0
  192.5310  169.8630  136.2160 C   0  0  0  0  0  2  0  0  0  0  0  0
  192.3160  171.1250  135.4080 C   0  0  0  0  0  1  0  0  0  0  0  0
  190.6300  171.4160  139.1020 C   0  0  0  0  0  2  0  0  0  0  0  0
  190.4290  172.9300  139.0740 C   0  0  0  0  0  2  0  0  0  0  0  0
  188.9480  174.4290  140.1830 O   0  0  0  0  0  1  0  0  0  0  0  0
  187.9550  172.5700  139.2790 O   0  0  0  0  0  0  0  0  0  0  0  0
  189.0760  173.3480  139.5490 C   0  0  0  0  0  0  0  0  0  0  0  0
  1  9  1  0  0  0  0
  2 10  1  0  0  0  0
  3  2  2  0  0  0  0
  4 12  1  1  0  0  0
  4  1  1  0  0  0  0
  5  8  2  0  0  0  0
  5  9  1  0  0  0  0
  6  2  1  0  0  0  0
  7 36  1  6  0  0  0
  7  4  1  0  0  0  0
  7  5  1  0  0  0  0
  8  3  1  0  0  0  0
  9  6  2  0  0  0  0
 11  8  1  0  0  0  0
 13 15  1  0  0  0  0
 13 12  1  0  0  0  0
 14 16  1  0  0  0  0
 15 30  1  6  0  0  0
 15 14  1  0  0  0  0
 15 17  1  0  0  0  0
 16 20  1  1  0  0  0
 16 19  1  0  0  0  0
 17 18  2  0  0  0  0
 18 19  1  0  0  0  0
 18 31  1  0  0  0  0
 20 22  2  0  0  0  0
 21 24  1  0  0  0  0
 22 24  1  0  0  0  0
 22 28  1  0  0  0  0
 23 20  1  0  0  0  0
 23 21  2  0  0  0  0
 24 25  1  0  0  0  0
 25 26  3  0  0  0  0
 28 27  2  0  0  0  0
 29 30  1  0  0  0  0
 31 32  1  6  0  0  0
 31 34  1  0  0  0  0
 33 34  2  0  0  0  0
 34 35  1  0  0  0  0
 37 38  2  0  0  0  0
 38 36  1  0  0  0  0
 39 41  1  1  0  0  0
 39 47  1  0  0  0  0
 39 38  1  0  0  0  0
 40 41  1  0  0  0  0
 42 40  2  0  0  0  0
 43 40  1  0  0  0  0
 44 45  1  0  0  0  0
 44 46  1  0  0  0  0
 45 46  1  0  0  0  0
 46 43  1  1  0  0  0
 48 49  1  6  0  0  0
 48 52  1  0  0  0  0
 48 47  1  0  0  0  0
 50 49  1  0  0  0  0
 51 50  1  0  0  0  0
 53 52  1  0  0  0  0
 53 56  1  0  0  0  0
 55 56  2  0  0  0  0
 56 54  1  0  0  0  0
M  END
>  <MODEL>
5

>  <REMARK>
 VINA RESULT:      -5.3      2.822      8.253
  Name = 
  22 active torsions:
  status: ('A' for Active; 'I' for Inactive)
    1  A    between atoms: C_1  and  C_15
    2  A    between atoms: C_1  and  C_18
    3  A    between atoms: C_2  and  C_31
    4  A    between atoms: C_2  and  C_47
    5  A    between atoms: C_8  and  C_32
    6  A    between atoms: C_8  and  C_54
    7  A    between atoms: C_11  and  C_14
    8  A    between atoms: C_11  and  N_27
    9  A    between atoms: C_11  and  C_41
   10  A    between atoms: C_12  and  C_36
   11  A    between atoms: C_14  and  C_50
   12  A    between atoms: C_15  and  C_20
   13  A    between atoms: C_16  and  C_22
   14  A    between atoms: C_17  and  C_41
   15  A    between atoms: C_20  and  C_40
   16  A    between atoms: C_21  and  N_27
   17  A    between atoms: C_21  and  N_42
   18  A    between atoms: C_21  and  C_54
   19  A    between atoms: C_23  and  C_46
   20  A    between atoms: C_25  and  N_48
   21  A    between atoms: C_43  and  C_46
   22  A    between atoms: C_50  and  C_52
                            x       y       z     vdW  Elec       q    Type
                         _______ _______ _______ _____ _____    ______ ____

>  <TORSDO>
F 22

$$$$
=
 OpenBabel11072408303D

 56 60  0  0  1  0  0  0  0  0999 V2000
  190.0010  174.1950  146.2540 O   0  0  0  0  0  0  0  0  0  0  0  0
  191.6650  176.8340  148.2500 C   0  0  0  0  0  0  0  0  0  0  0  0
  192.7360  177.0810  147.3700 C   0  0  0  0  0  3  0  0  0  0  0  0
  190.4150  173.7980  144.9470 C   0  0  2  0  0  3  0  0  0  0  0  0
  191.9380  175.3140  145.9370 C   0  0  0  0  0  0  0  0  0  0  0  0
  190.7050  175.8580  147.9410 C   0  0  0  0  0  3  0  0  0  0  0  0
  191.8320  174.3880  144.7610 C   0  0  1  0  0  3  0  0  0  0  0  0
  192.8690  176.3270  146.1930 C   0  0  0  0  0  0  0  0  0  0  0  0
  190.8710  175.1250  146.7660 C   0  0  0  0  0  0  0  0  0  0  0  0
  191.5410  177.5700  149.3800 F   0  0  0  0  0  0  0  0  0  0  0  0
  193.9040  176.5990  145.3070 O   0  0  0  0  0  1  0  0  0  0  0  0
  189.4530  174.3860  143.9220 C   0  0  0  0  0  2  0  0  0  0  0  0
  189.8880  175.7730  143.4260 C   0  0  0  0  0  2  0  0  0  0  0  0
  187.7560  176.9030  142.6690 C   0  0  0  0  0  2  0  0  0  0  0  0
  188.9030  176.9300  143.6910 C   0  0  1  0  0  0  0  0  0  0  0  0
  186.7210  177.9550  143.0540 C   0  0  2  0  0  3  0  0  0  0  0  0
  188.3260  176.7710  145.0760 C   0  0  0  0  0  3  0  0  0  0  0  0
  187.1040  177.2280  145.3930 C   0  0  0  0  0  0  0  0  0  0  0  0
  186.2690  177.7580  144.3920 O   0  0  0  0  0  0  0  0  0  0  0  0
  185.5900  178.0150  142.0780 C   0  0  0  0  0  0  0  0  0  0  0  0
  184.5220  177.9040  140.1370 N   0  0  0  0  0  0  0  0  0  0  0  0
  184.2470  178.3210  142.2710 C   0  0  0  0  0  0  0  0  0  0  0  0
  185.7250  177.7450  140.7250 C   0  0  0  0  0  3  0  0  0  0  0  0
  183.6470  178.2550  141.0690 N   0  0  0  0  0  0  0  0  0  0  0  0
  182.3030  178.5420  140.7860 C   0  0  0  0  0  0  0  0  0  0  0  0
  181.1480  178.7870  140.5310 C   0  0  0  0  0  3  0  0  0  0  0  0
  183.9840  179.4630  144.4490 C   0  0  0  0  0  2  0  0  0  0  0  0
  183.5230  178.6370  143.5180 C   0  0  0  0  0  3  0  0  0  0  0  0
  191.1460  178.1490  143.5070 C   0  0  0  0  0  1  0  0  0  0  0  0
  189.6320  178.2830  143.6080 C   0  0  0  0  0  2  0  0  0  0  0  0
  186.5740  177.1050  146.7970 C   0  0  1  0  0  3  0  0  0  0  0  0
  187.2720  176.1280  147.5180 O   0  0  0  0  0  1  0  0  0  0  0  0
  187.6810  178.6820  148.2270 O   0  0  0  0  0  1  0  0  0  0  0  0
  186.6730  178.4120  147.5200 C   0  0  0  0  0  0  0  0  0  0  0  0
  185.6480  179.3430  147.4040 O   0  0  0  0  0  0  0  0  0  0  0  0
  192.7950  173.1970  144.8680 C   0  0  0  0  0  2  0  0  0  0  0  0
  195.1850  173.6110  145.1070 C   0  0  0  0  0  2  0  0  0  0  0  0
  194.1560  173.4280  144.2810 C   0  0  0  0  0  0  0  0  0  0  0  0
  194.4630  173.1490  142.8370 C   0  0  2  0  0  3  0  0  0  0  0  0
  192.6290  173.6790  141.1780 C   0  0  0  0  0  0  0  0  0  0  0  0
  193.2320  172.8100  142.1350 N   0  0  0  0  0  2  0  0  0  0  0  0
  193.2440  174.6940  140.7530 O   0  0  0  0  0  0  0  0  0  0  0  0
  191.2400  173.3930  140.7080 C   0  0  0  0  0  2  0  0  0  0  0  0
  189.9000  171.9780  139.3000 O   0  0  0  0  0  0  0  0  0  0  0  0
  190.5990  171.0840  140.1300 C   0  0  0  0  0  2  0  0  0  0  0  0
  191.2310  172.3230  139.6210 C   0  0  2  0  0  3  0  0  0  0  0  0
  195.4640  172.0930  142.6440 N   0  0  0  0  0  2  0  0  0  0  0  0
  194.8790  170.8200  142.1930 C   0  0  1  0  0  3  0  0  0  0  0  0
  195.5430  170.3870  140.8930 C   0  0  0  0  0  2  0  0  0  0  0  0
  194.6290  170.6150  139.7020 C   0  0  0  0  0  2  0  0  0  0  0  0
  195.0130  171.9080  139.0170 C   0  0  0  0  0  1  0  0  0  0  0  0
  195.0190  169.6940  143.2270 C   0  0  0  0  0  2  0  0  0  0  0  0
  195.9830  170.0710  144.3500 C   0  0  0  0  0  2  0  0  0  0  0  0
  196.2600  168.2670  145.8800 O   0  0  0  0  0  1  0  0  0  0  0  0
  197.9220  168.4800  144.3150 O   0  0  0  0  0  0  0  0  0  0  0  0
  196.7300  168.8970  144.8960 C   0  0  0  0  0  0  0  0  0  0  0  0
  1  9  1  0  0  0  0
  2 10  1  0  0  0  0
  3  2  2  0  0  0  0
  4 12  1  6  0  0  0
  4  1  1  0  0  0  0
  5  8  2  0  0  0  0
  5  9  1  0  0  0  0
  6  2  1  0  0  0  0
  7 36  1  1  0  0  0
  7  4  1  0  0  0  0
  7  5  1  0  0  0  0
  8  3  1  0  0  0  0
  9  6  2  0  0  0  0
 11  8  1  0  0  0  0
 13 12  1  0  0  0  0
 14 16  1  0  0  0  0
 14 15  1  0  0  0  0
 15 13  1  6  0  0  0
 15 17  1  0  0  0  0
 16 20  1  6  0  0  0
 16 19  1  0  0  0  0
 17 18  2  0  0  0  0
 18 31  1  0  0  0  0
 19 18  1  0  0  0  0
 20 22  2  0  0  0  0
 21 23  2  0  0  0  0
 21 24  1  0  0  0  0
 22 28  1  0  0  0  0
 23 20  1  0  0  0  0
 24 22  1  0  0  0  0
 25 24  1  0  0  0  0
 26 25  3  0  0  0  0
 28 27  2  0  0  0  0
 29 30  1  0  0  0  0
 30 15  1  0  0  0  0
 31 32  1  1  0  0  0
 31 34  1  0  0  0  0
 34 33  1  0  0  0  0
 35 34  2  0  0  0  0
 38 36  1  0  0  0  0
 38 37  2  0  0  0  0
 39 41  1  6  0  0  0
 39 38  1  0  0  0  0
 40 41  1  0  0  0  0
 42 40  2  0  0  0  0
 43 40  1  0  0  0  0
 44 46  1  0  0  0  0
 44 45  1  0  0  0  0
 46 45  1  0  0  0  0
 46 43  1  1  0  0  0
 47 39  1  0  0  0  0
 48 49  1  6  0  0  0
 48 47  1  0  0  0  0
 48 52  1  0  0  0  0
 50 49  1  0  0  0  0
 51 50  1  0  0  0  0
 52 53  1  0  0  0  0
 53 56  1  0  0  0  0
 55 56  2  0  0  0  0
 56 54  1  0  0  0  0
M  END
>  <MODEL>
6

>  <REMARK>
 VINA RESULT:      -5.2      2.625      9.790
  Name = 
  22 active torsions:
  status: ('A' for Active; 'I' for Inactive)
    1  A    between atoms: C_1  and  C_15
    2  A    between atoms: C_1  and  C_18
    3  A    between atoms: C_2  and  C_31
    4  A    between atoms: C_2  and  C_47
    5  A    between atoms: C_8  and  C_32
    6  A    between atoms: C_8  and  C_54
    7  A    between atoms: C_11  and  C_14
    8  A    between atoms: C_11  and  N_27
    9  A    between atoms: C_11  and  C_41
   10  A    between atoms: C_12  and  C_36
   11  A    between atoms: C_14  and  C_50
   12  A    between atoms: C_15  and  C_20
   13  A    between atoms: C_16  and  C_22
   14  A    between atoms: C_17  and  C_41
   15  A    between atoms: C_20  and  C_40
   16  A    between atoms: C_21  and  N_27
   17  A    between atoms: C_21  and  N_42
   18  A    between atoms: C_21  and  C_54
   19  A    between atoms: C_23  and  C_46
   20  A    between atoms: C_25  and  N_48
   21  A    between atoms: C_43  and  C_46
   22  A    between atoms: C_50  and  C_52
                            x       y       z     vdW  Elec       q    Type
                         _______ _______ _______ _____ _____    ______ ____

>  <TORSDO>
F 22

$$$$
=
 OpenBabel11072408303D

 56 60  0  0  1  0  0  0  0  0999 V2000
  192.3470  175.7650  141.9420 O   0  0  0  0  0  0  0  0  0  0  0  0
  195.6820  176.3830  143.4310 C   0  0  0  0  0  0  0  0  0  0  0  0
  195.2500  176.6340  144.7480 C   0  0  0  0  0  3  0  0  0  0  0  0
  191.1320  175.7120  142.6910 C   0  0  2  0  0  3  0  0  0  0  0  0
  192.9630  176.4050  144.0200 C   0  0  0  0  0  0  0  0  0  0  0  0
  194.7480  176.0940  142.4240 C   0  0  0  0  0  3  0  0  0  0  0  0
  191.4650  176.3250  144.0720 C   0  0  1  0  0  3  0  0  0  0  0  0
  193.8790  176.6310  145.0540 C   0  0  0  0  0  0  0  0  0  0  0  0
  193.3960  176.1030  142.7620 C   0  0  0  0  0  0  0  0  0  0  0  0
  197.0050  176.3820  143.1470 F   0  0  0  0  0  0  0  0  0  0  0  0
  193.4590  176.8400  146.3600 O   0  0  0  0  0  1  0  0  0  0  0  0
  190.7070  174.2560  142.8430 C   0  0  0  0  0  2  0  0  0  0  0  0
  191.0560  173.4040  141.6140 C   0  0  0  0  0  2  0  0  0  0  0  0
  193.4260  173.1680  140.7620 C   0  0  0  0  0  2  0  0  0  0  0  0
  192.3600  172.5850  141.7040 C   0  0  1  0  0  0  0  0  0  0  0  0
  194.7460  172.4390  140.9910 C   0  0  2  0  0  3  0  0  0  0  0  0
  192.8770  172.6440  143.1200 C   0  0  0  0  0  3  0  0  0  0  0  0
  194.1860  172.5400  143.4030 C   0  0  0  0  0  0  0  0  0  0  0  0
  195.1310  172.5030  142.3620 O   0  0  0  0  0  0  0  0  0  0  0  0
  195.8240  172.9270  140.0770 C   0  0  0  0  0  0  0  0  0  0  0  0
  197.7530  173.8200  139.4420 N   0  0  0  0  0  0  0  0  0  0  0  0
  195.8900  172.9460  138.6880 C   0  0  0  0  0  0  0  0  0  0  0  0
  197.0200  173.4730  140.5190 C   0  0  0  0  0  3  0  0  0  0  0  0
  197.0660  173.5060  138.3530 N   0  0  0  0  0  0  0  0  0  0  0  0
  197.5270  173.7760  137.0550 C   0  0  0  0  0  0  0  0  0  0  0  0
  197.9150  174.0150  135.9360 C   0  0  0  0  0  3  0  0  0  0  0  0
  195.1990  171.4870  136.8140 C   0  0  0  0  0  2  0  0  0  0  0  0
  194.9230  172.4420  137.6930 C   0  0  0  0  0  3  0  0  0  0  0  0
  191.9410  170.8900  139.8330 C   0  0  0  0  0  1  0  0  0  0  0  0
  192.0960  171.1150  141.3310 C   0  0  0  0  0  2  0  0  0  0  0  0
  194.6680  172.5470  144.8290 C   0  0  1  0  0  3  0  0  0  0  0  0
  193.7050  173.0900  145.6880 O   0  0  0  0  0  1  0  0  0  0  0  0
  194.5700  170.7190  146.3810 O   0  0  0  0  0  1  0  0  0  0  0  0
  195.0060  171.1610  145.2840 C   0  0  0  0  0  0  0  0  0  0  0  0
  195.8020  170.3490  144.4860 O   0  0  0  0  0  0  0  0  0  0  0  0
  190.8070  177.7110  144.0800 C   0  0  0  0  0  2  0  0  0  0  0  0
  189.3130  177.8870  142.1620 C   0  0  0  0  0  2  0  0  0  0  0  0
  189.4320  177.7620  143.4830 C   0  0  0  0  0  0  0  0  0  0  0  0
  188.2080  177.3640  144.2580 C   0  0  2  0  0  3  0  0  0  0  0  0
  188.4500  176.2580  146.5200 C   0  0  0  0  0  0  0  0  0  0  0  0
  188.5160  176.2130  145.0960 N   0  0  0  0  0  2  0  0  0  0  0  0
  187.9300  177.2440  147.1090 O   0  0  0  0  0  0  0  0  0  0  0  0
  189.0400  175.1380  147.3130 C   0  0  0  0  0  2  0  0  0  0  0  0
  191.1100  174.9050  148.5130 O   0  0  0  0  0  0  0  0  0  0  0  0
  191.1140  176.2370  148.0650 C   0  0  0  0  0  2  0  0  0  0  0  0
  190.5630  175.1430  147.2340 C   0  0  2  0  0  3  0  0  0  0  0  0
  187.0440  177.0770  143.4100 N   0  0  0  0  0  2  0  0  0  0  0  0
  186.1510  178.2360  143.2470 C   0  0  1  0  0  3  0  0  0  0  0  0
  184.7920  177.7650  142.7470 C   0  0  0  0  0  2  0  0  0  0  0  0
  184.5050  178.2900  141.3510 C   0  0  0  0  0  2  0  0  0  0  0  0
  185.6610  177.9430  140.4380 C   0  0  0  0  0  1  0  0  0  0  0  0
  185.9590  179.0340  144.5450 C   0  0  0  0  0  2  0  0  0  0  0  0
  184.5790  178.8010  145.1550 C   0  0  0  0  0  2  0  0  0  0  0  0
  184.8040  176.7780  146.3900 O   0  0  0  0  0  0  0  0  0  0  0  0
  184.5100  178.6640  147.6600 O   0  0  0  0  0  1  0  0  0  0  0  0
  184.6290  178.0240  146.4310 C   0  0  0  0  0  0  0  0  0  0  0  0
  1  4  1  0  0  0  0
  1  9  1  0  0  0  0
  2  3  1  0  0  0  0
  3  8  2  0  0  0  0
  4 12  1  1  0  0  0
  4  7  1  0  0  0  0
  5  7  1  0  0  0  0
  5  8  1  0  0  0  0
  6  9  1  0  0  0  0
  6  2  2  0  0  0  0
  7 36  1  6  0  0  0
  8 11  1  0  0  0  0
  9  5  2  0  0  0  0
 10  2  1  0  0  0  0
 13 15  1  0  0  0  0
 13 12  1  0  0  0  0
 14 16  1  0  0  0  0
 14 15  1  0  0  0  0
 15 30  1  6  0  0  0
 15 17  1  0  0  0  0
 16 20  1  6  0  0  0
 16 19  1  0  0  0  0
 17 18  2  0  0  0  0
 18 31  1  0  0  0  0
 19 18  1  0  0  0  0
 20 23  1  0  0  0  0
 21 23  2  0  0  0  0
 22 20  2  0  0  0  0
 24 22  1  0  0  0  0
 24 21  1  0  0  0  0
 25 24  1  0  0  0  0
 26 25  3  0  0  0  0
 27 28  2  0  0  0  0
 28 22  1  0  0  0  0
 29 30  1  0  0  0  0
 31 34  1  0  0  0  0
 31 32  1  1  0  0  0
 34 33  1  0  0  0  0
 35 34  2  0  0  0  0
 37 38  2  0  0  0  0
 38 36  1  0  0  0  0
 38 39  1  0  0  0  0
 39 47  1  6  0  0  0
 39 41  1  0  0  0  0
 40 42  2  0  0  0  0
 40 43  1  0  0  0  0
 41 40  1  0  0  0  0
 45 44  1  0  0  0  0
 46 43  1  1  0  0  0
 46 45  1  0  0  0  0
 46 44  1  0  0  0  0
 48 49  1  1  0  0  0
 48 47  1  0  0  0  0
 48 52  1  0  0  0  0
 50 49  1  0  0  0  0
 51 50  1  0  0  0  0
 52 53  1  0  0  0  0
 53 56  1  0  0  0  0
 54 56  2  0  0  0  0
 56 55  1  0  0  0  0
M  END
>  <MODEL>
7

>  <REMARK>
 VINA RESULT:      -5.1      2.848      5.760
  Name = 
  22 active torsions:
  status: ('A' for Active; 'I' for Inactive)
    1  A    between atoms: C_1  and  C_15
    2  A    between atoms: C_1  and  C_18
    3  A    between atoms: C_2  and  C_31
    4  A    between atoms: C_2  and  C_47
    5  A    between atoms: C_8  and  C_32
    6  A    between atoms: C_8  and  C_54
    7  A    between atoms: C_11  and  C_14
    8  A    between atoms: C_11  and  N_27
    9  A    between atoms: C_11  and  C_41
   10  A    between atoms: C_12  and  C_36
   11  A    between atoms: C_14  and  C_50
   12  A    between atoms: C_15  and  C_20
   13  A    between atoms: C_16  and  C_22
   14  A    between atoms: C_17  and  C_41
   15  A    between atoms: C_20  and  C_40
   16  A    between atoms: C_21  and  N_27
   17  A    between atoms: C_21  and  N_42
   18  A    between atoms: C_21  and  C_54
   19  A    between atoms: C_23  and  C_46
   20  A    between atoms: C_25  and  N_48
   21  A    between atoms: C_43  and  C_46
   22  A    between atoms: C_50  and  C_52
                            x       y       z     vdW  Elec       q    Type
                         _______ _______ _______ _____ _____    ______ ____

>  <TORSDO>
F 22

$$$$
=
 OpenBabel11072408303D

 56 60  0  0  1  0  0  0  0  0999 V2000
  193.4110  171.8910  144.9200 O   0  0  0  0  0  0  0  0  0  0  0  0
  196.2180  174.0080  143.7540 C   0  0  0  0  0  0  0  0  0  0  0  0
  195.8500  174.0680  142.3960 C   0  0  0  0  0  3  0  0  0  0  0  0
  192.3190  171.4840  144.0950 C   0  0  2  0  0  3  0  0  0  0  0  0
  194.0020  172.5880  142.8530 C   0  0  0  0  0  0  0  0  0  0  0  0
  195.4420  173.2750  144.6660 C   0  0  0  0  0  3  0  0  0  0  0  0
  192.7630  171.7690  142.6420 C   0  0  1  0  0  3  0  0  0  0  0  0
  194.7230  173.3650  141.9390 C   0  0  0  0  0  0  0  0  0  0  0  0
  194.3330  172.5870  144.1770 C   0  0  0  0  0  0  0  0  0  0  0  0
  197.3020  174.6930  144.1860 F   0  0  0  0  0  0  0  0  0  0  0  0
  194.3390  173.4580  140.6080 O   0  0  0  0  0  1  0  0  0  0  0  0
  191.0920  172.3160  144.4520 C   0  0  0  0  0  2  0  0  0  0  0  0
  190.6410  173.2310  143.3030 C   0  0  0  0  0  2  0  0  0  0  0  0
  189.2510  175.2460  143.9370 C   0  0  0  0  0  2  0  0  0  0  0  0
  190.6630  174.7460  143.5930 C   0  0  1  0  0  0  0  0  0  0  0  0
  189.3320  176.7060  144.3720 C   0  0  2  0  0  3  0  0  0  0  0  0
  191.5720  175.0050  144.7690 C   0  0  0  0  0  3  0  0  0  0  0  0
  191.3870  176.0490  145.5920 C   0  0  0  0  0  0  0  0  0  0  0  0
  190.2500  176.8650  145.4520 O   0  0  0  0  0  0  0  0  0  0  0  0
  187.9850  177.2750  144.6850 C   0  0  0  0  0  0  0  0  0  0  0  0
  186.2570  177.9580  145.8970 N   0  0  0  0  0  0  0  0  0  0  0  0
  186.9860  177.7480  143.8400 C   0  0  0  0  0  0  0  0  0  0  0  0
  187.4970  177.4350  145.9730 C   0  0  0  0  0  3  0  0  0  0  0  0
  185.9590  178.1350  144.6180 N   0  0  0  0  0  0  0  0  0  0  0  0
  184.7180  178.6260  144.1830 C   0  0  0  0  0  0  0  0  0  0  0  0
  183.6480  179.0380  143.8040 C   0  0  0  0  0  3  0  0  0  0  0  0
  188.0740  178.0050  141.6350 C   0  0  0  0  0  2  0  0  0  0  0  0
  186.9780  177.8700  142.3690 C   0  0  0  0  0  3  0  0  0  0  0  0
  192.5870  176.0990  142.5850 C   0  0  0  0  0  1  0  0  0  0  0  0
  191.1960  175.5160  142.3720 C   0  0  0  0  0  2  0  0  0  0  0  0
  192.3420  176.3160  146.7250 C   0  0  1  0  0  3  0  0  0  0  0  0
  192.3500  175.2570  147.6410 O   0  0  0  0  0  1  0  0  0  0  0  0
  194.6590  175.7290  146.5090 O   0  0  0  0  0  1  0  0  0  0  0  0
  193.7320  176.5300  146.2110 C   0  0  0  0  0  0  0  0  0  0  0  0
  194.0030  177.6180  145.3900 O   0  0  0  0  0  0  0  0  0  0  0  0
  193.0690  170.3970  142.0250 C   0  0  0  0  0  2  0  0  0  0  0  0
  190.7630  169.6760  141.6990 C   0  0  0  0  0  2  0  0  0  0  0  0
  191.9760  169.8300  141.1690 C   0  0  0  0  0  0  0  0  0  0  0  0
  192.1000  169.7290  139.6750 C   0  0  2  0  0  3  0  0  0  0  0  0
  194.3470  170.2180  138.6190 C   0  0  0  0  0  0  0  0  0  0  0  0
  193.1230  170.6550  139.2090 N   0  0  0  0  0  2  0  0  0  0  0  0
  194.5090  169.0100  138.2960 O   0  0  0  0  0  0  0  0  0  0  0  0
  195.4530  171.2020  138.4210 C   0  0  0  0  0  2  0  0  0  0  0  0
  196.4960  172.6970  136.8540 O   0  0  0  0  0  0  0  0  0  0  0  0
  195.1990  173.2130  137.0180 C   0  0  0  0  0  2  0  0  0  0  0  0
  195.4560  171.7550  136.9990 C   0  0  2  0  0  3  0  0  0  0  0  0
  190.8380  169.9670  138.9630 N   0  0  0  0  0  2  0  0  0  0  0  0
  190.7560  171.3120  138.3720 C   0  0  1  0  0  3  0  0  0  0  0  0
  189.9430  171.2540  137.0860 C   0  0  0  0  0  2  0  0  0  0  0  0
  190.6680  170.4630  136.0100 C   0  0  0  0  0  2  0  0  0  0  0  0
  191.9570  171.1690  135.6530 C   0  0  0  0  0  1  0  0  0  0  0  0
  190.1260  172.3460  139.3170 C   0  0  0  0  0  2  0  0  0  0  0  0
  188.6680  172.6280  138.9580 C   0  0  0  0  0  2  0  0  0  0  0  0
  188.1200  174.7300  137.9830 O   0  0  0  0  0  0  0  0  0  0  0  0
  188.1820  174.7070  140.2750 O   0  0  0  0  0  1  0  0  0  0  0  0
  188.3170  174.0780  139.0420 C   0  0  0  0  0  0  0  0  0  0  0  0
  2 10  1  0  0  0  0
  2  6  1  0  0  0  0
  3  2  2  0  0  0  0
  4 12  1  1  0  0  0
  4  1  1  0  0  0  0
  5  9  1  0  0  0  0
  7 36  1  1  0  0  0
  7  5  1  0  0  0  0
  7  4  1  0  0  0  0
  8  3  1  0  0  0  0
  8  5  2  0  0  0  0
  9  6  2  0  0  0  0
  9  1  1  0  0  0  0
 11  8  1  0  0  0  0
 13 15  1  0  0  0  0
 13 12  1  0  0  0  0
 14 16  1  0  0  0  0
 15 30  1  6  0  0  0
 15 14  1  0  0  0  0
 15 17  1  0  0  0  0
 16 20  1  1  0  0  0
 16 19  1  0  0  0  0
 17 18  2  0  0  0  0
 18 31  1  0  0  0  0
 19 18  1  0  0  0  0
 20 23  1  0  0  0  0
 21 23  2  0  0  0  0
 22 24  1  0  0  0  0
 22 20  2  0  0  0  0
 24 21  1  0  0  0  0
 25 24  1  0  0  0  0
 26 25  3  0  0  0  0
 27 28  2  0  0  0  0
 28 22  1  0  0  0  0
 30 29  1  0  0  0  0
 31 32  1  1  0  0  0
 34 33  1  0  0  0  0
 34 31  1  0  0  0  0
 35 34  2  0  0  0  0
 38 37  2  0  0  0  0
 38 36  1  0  0  0  0
 39 47  1  6  0  0  0
 39 38  1  0  0  0  0
 40 41  1  0  0  0  0
 41 39  1  0  0  0  0
 42 40  2  0  0  0  0
 43 40  1  0  0  0  0
 44 46  1  0  0  0  0
 44 45  1  0  0  0  0
 46 45  1  0  0  0  0
 46 43  1  1  0  0  0
 48 49  1  6  0  0  0
 48 47  1  0  0  0  0
 48 52  1  0  0  0  0
 50 49  1  0  0  0  0
 51 50  1  0  0  0  0
 53 56  1  0  0  0  0
 53 52  1  0  0  0  0
 54 56  2  0  0  0  0
 56 55  1  0  0  0  0
M  END
>  <MODEL>
8

>  <REMARK>
 VINA RESULT:      -5.1      2.673      8.917
  Name = 
  22 active torsions:
  status: ('A' for Active; 'I' for Inactive)
    1  A    between atoms: C_1  and  C_15
    2  A    between atoms: C_1  and  C_18
    3  A    between atoms: C_2  and  C_31
    4  A    between atoms: C_2  and  C_47
    5  A    between atoms: C_8  and  C_32
    6  A    between atoms: C_8  and  C_54
    7  A    between atoms: C_11  and  C_14
    8  A    between atoms: C_11  and  N_27
    9  A    between atoms: C_11  and  C_41
   10  A    between atoms: C_12  and  C_36
   11  A    between atoms: C_14  and  C_50
   12  A    between atoms: C_15  and  C_20
   13  A    between atoms: C_16  and  C_22
   14  A    between atoms: C_17  and  C_41
   15  A    between atoms: C_20  and  C_40
   16  A    between atoms: C_21  and  N_27
   17  A    between atoms: C_21  and  N_42
   18  A    between atoms: C_21  and  C_54
   19  A    between atoms: C_23  and  C_46
   20  A    between atoms: C_25  and  N_48
   21  A    between atoms: C_43  and  C_46
   22  A    between atoms: C_50  and  C_52
                            x       y       z     vdW  Elec       q    Type
                         _______ _______ _______ _____ _____    ______ ____

>  <TORSDO>
F 22

$$$$
=
 OpenBabel11072408303D

 56 60  0  0  1  0  0  0  0  0999 V2000
  191.9150  173.8690  145.3310 O   0  0  0  0  0  0  0  0  0  0  0  0
  194.1010  176.7080  146.2680 C   0  0  0  0  0  0  0  0  0  0  0  0
  194.6920  176.9070  145.0060 C   0  0  0  0  0  3  0  0  0  0  0  0
  191.7710  173.3740  143.9990 C   0  0  2  0  0  3  0  0  0  0  0  0
  193.4760  175.0060  144.1590 C   0  0  0  0  0  0  0  0  0  0  0  0
  193.1580  175.6850  146.4540 C   0  0  0  0  0  3  0  0  0  0  0  0
  192.9460  173.9820  143.1980 C   0  0  1  0  0  3  0  0  0  0  0  0
  194.3690  176.0600  143.9340 C   0  0  0  0  0  0  0  0  0  0  0  0
  192.8630  174.8610  145.3690 C   0  0  0  0  0  0  0  0  0  0  0  0
  194.4150  177.5330  147.2950 F   0  0  0  0  0  0  0  0  0  0  0  0
  194.9240  176.2830  142.6800 O   0  0  0  0  0  1  0  0  0  0  0  0
  190.4370  173.8490  143.4350 C   0  0  0  0  0  2  0  0  0  0  0  0
  190.5710  175.1210  142.5850 C   0  0  0  0  0  2  0  0  0  0  0  0
  188.4590  176.4150  142.0740 C   0  0  0  0  0  2  0  0  0  0  0  0
  189.6830  176.3120  142.9980 C   0  0  1  0  0  0  0  0  0  0  0  0
  187.5230  177.4960  142.6050 C   0  0  2  0  0  3  0  0  0  0  0  0
  189.2070  176.0970  144.4140 C   0  0  0  0  0  3  0  0  0  0  0  0
  188.0440  176.6000  144.8560 C   0  0  0  0  0  0  0  0  0  0  0  0
  187.1670  177.2390  143.9610 O   0  0  0  0  0  0  0  0  0  0  0  0
  186.3250  177.6810  141.7300 C   0  0  0  0  0  0  0  0  0  0  0  0
  185.1270  177.8780  139.8730 N   0  0  0  0  0  0  0  0  0  0  0  0
  184.9890  177.8850  142.0610 C   0  0  0  0  0  0  0  0  0  0  0  0
  186.3730  177.6700  140.3440 C   0  0  0  0  0  3  0  0  0  0  0  0
  184.3090  178.0120  140.9070 N   0  0  0  0  0  0  0  0  0  0  0  0
  182.9390  178.2850  140.7670 C   0  0  0  0  0  0  0  0  0  0  0  0
  181.7580  178.5080  140.6450 C   0  0  0  0  0  3  0  0  0  0  0  0
  183.9160  179.0530  143.9570 C   0  0  0  0  0  2  0  0  0  0  0  0
  184.3450  177.9350  143.3880 C   0  0  0  0  0  3  0  0  0  0  0  0
  191.1950  177.9610  144.2410 C   0  0  0  0  0  1  0  0  0  0  0  0
  190.4840  177.6250  142.9360 C   0  0  0  0  0  2  0  0  0  0  0  0
  187.6200  176.4170  146.2900 C   0  0  1  0  0  3  0  0  0  0  0  0
  188.7280  176.2510  147.1290 O   0  0  0  0  0  1  0  0  0  0  0  0
  186.7130  178.6260  146.0510 O   0  0  0  0  0  0  0  0  0  0  0  0
  186.8180  177.5900  146.7620 C   0  0  0  0  0  0  0  0  0  0  0  0
  186.1730  177.5340  147.9910 O   0  0  0  0  0  1  0  0  0  0  0  0
  193.9330  172.8290  142.9710 C   0  0  0  0  0  2  0  0  0  0  0  0
  196.3140  173.2540  142.6640 C   0  0  0  0  0  2  0  0  0  0  0  0
  195.1090  173.1650  142.1020 C   0  0  0  0  0  0  0  0  0  0  0  0
  195.0440  173.0910  140.6030 C   0  0  2  0  0  3  0  0  0  0  0  0
  192.7990  173.4250  139.4860 C   0  0  0  0  0  0  0  0  0  0  0  0
  193.7300  172.6110  140.1970 N   0  0  0  0  0  2  0  0  0  0  0  0
  193.1520  174.5360  139.0050 O   0  0  0  0  0  0  0  0  0  0  0  0
  191.3850  172.9640  139.3470 C   0  0  0  0  0  2  0  0  0  0  0  0
  190.0160  171.1890  138.4780 O   0  0  0  0  0  0  0  0  0  0  0  0
  190.3520  170.7670  139.7760 C   0  0  0  0  0  2  0  0  0  0  0  0
  191.3180  171.4990  138.9260 C   0  0  2  0  0  3  0  0  0  0  0  0
  196.0950  172.2560  140.0100 N   0  0  0  0  0  2  0  0  0  0  0  0
  195.5690  171.2360  139.0890 C   0  0  1  0  0  3  0  0  0  0  0  0
  196.1760  171.4360  137.7070 C   0  0  0  0  0  2  0  0  0  0  0  0
  195.5960  172.6610  137.0210 C   0  0  0  0  0  2  0  0  0  0  0  0
  196.7240  173.5080  136.4720 C   0  0  0  0  0  1  0  0  0  0  0  0
  195.8500  169.8000  139.5560 C   0  0  0  0  0  2  0  0  0  0  0  0
  196.2130  169.7470  141.0390 C   0  0  0  0  0  2  0  0  0  0  0  0
  193.8890  169.4110  141.4350 O   0  0  0  0  0  0  0  0  0  0  0  0
  195.2540  168.9800  143.2270 O   0  0  0  0  0  1  0  0  0  0  0  0
  195.0560  169.3790  141.9100 C   0  0  0  0  0  0  0  0  0  0  0  0
  1  9  1  0  0  0  0
  2  6  1  0  0  0  0
  2 10  1  0  0  0  0
  3  2  2  0  0  0  0
  4 12  1  6  0  0  0
  4  1  1  0  0  0  0
  5  9  1  0  0  0  0
  7 36  1  1  0  0  0
  7  4  1  0  0  0  0
  7  5  1  0  0  0  0
  8  5  2  0  0  0  0
  8  3  1  0  0  0  0
  9  6  2  0  0  0  0
 11  8  1  0  0  0  0
 13 12  1  0  0  0  0
 14 16  1  0  0  0  0
 14 15  1  0  0  0  0
 15 13  1  6  0  0  0
 15 17  1  0  0  0  0
 16 20  1  6  0  0  0
 16 19  1  0  0  0  0
 17 18  2  0  0  0  0
 18 31  1  0  0  0  0
 19 18  1  0  0  0  0
 20 22  2  0  0  0  0
 21 23  2  0  0  0  0
 21 24  1  0  0  0  0
 22 28  1  0  0  0  0
 23 20  1  0  0  0  0
 24 22  1  0  0  0  0
 25 24  1  0  0  0  0
 26 25  3  0  0  0  0
 28 27  2  0  0  0  0
 30 15  1  0  0  0  0
 30 29  1  0  0  0  0
 31 34  1  0  0  0  0
 31 32  1  1  0  0  0
 33 34  2  0  0  0  0
 34 35  1  0  0  0  0
 38 37  2  0  0  0  0
 38 36  1  0  0  0  0
 39 47  1  1  0  0  0
 39 38  1  0  0  0  0
 40 41  1  0  0  0  0
 41 39  1  0  0  0  0
 42 40  2  0  0  0  0
 43 40  1  0  0  0  0
 44 46  1  0  0  0  0
 44 45  1  0  0  0  0
 46 43  1  1  0  0  0
 46 45  1  0  0  0  0
 48 49  1  6  0  0  0
 48 52  1  0  0  0  0
 48 47  1  0  0  0  0
 50 49  1  0  0  0  0
 51 50  1  0  0  0  0
 52 53  1  0  0  0  0
 53 56  1  0  0  0  0
 54 56  2  0  0  0  0
 56 55  1  0  0  0  0
M  END
>  <MODEL>
9

>  <REMARK>
 VINA RESULT:      -5.1      2.361      9.489
  Name = 
  22 active torsions:
  status: ('A' for Active; 'I' for Inactive)
    1  A    between atoms: C_1  and  C_15
    2  A    between atoms: C_1  and  C_18
    3  A    between atoms: C_2  and  C_31
    4  A    between atoms: C_2  and  C_47
    5  A    between atoms: C_8  and  C_32
    6  A    between atoms: C_8  and  C_54
    7  A    between atoms: C_11  and  C_14
    8  A    between atoms: C_11  and  N_27
    9  A    between atoms: C_11  and  C_41
   10  A    between atoms: C_12  and  C_36
   11  A    between atoms: C_14  and  C_50
   12  A    between atoms: C_15  and  C_20
   13  A    between atoms: C_16  and  C_22
   14  A    between atoms: C_17  and  C_41
   15  A    between atoms: C_20  and  C_40
   16  A    between atoms: C_21  and  N_27
   17  A    between atoms: C_21  and  N_42
   18  A    between atoms: C_21  and  C_54
   19  A    between atoms: C_23  and  C_46
   20  A    between atoms: C_25  and  N_48
   21  A    between atoms: C_43  and  C_46
   22  A    between atoms: C_50  and  C_52
                            x       y       z     vdW  Elec       q    Type
                         _______ _______ _______ _____ _____    ______ ____

>  <TORSDO>
F 22

$$$$
