=
 OpenBabel11062419583D

 28 30  0  0  1  0  0  0  0  0999 V2000
  185.2200  179.6680  145.5730 N   0  0  0  0  0  0  0  0  0  0  0  0
  185.6970  178.6290  146.2810 C   0  0  0  0  0  0  0  0  0  0  0  0
  186.2000  178.1820  147.9560 S   0  0  0  0  0  0  0  0  0  0  0  0
  186.5070  176.7890  146.9770 C   0  0  1  0  0  3  0  0  0  0  0  0
  186.0160  177.3850  145.7080 C   0  0  0  0  0  0  0  0  0  0  0  0
  185.8800  177.1190  144.3970 N   0  0  0  0  0  0  0  0  0  0  0  0
  185.3910  178.1550  143.6290 C   0  0  0  0  0  0  0  0  0  0  0  0
  185.0620  179.4280  144.2260 C   0  0  0  0  0  3  0  0  0  0  0  0
  182.7840  178.3930  141.8490 N   0  0  0  0  0  1  0  0  0  0  0  0
  186.2430  177.6240  141.3490 N   0  0  0  0  0  0  0  0  0  0  0  0
  185.7110  177.5450  140.1380 N   0  0  0  0  0  0  0  0  0  0  0  0
  186.4720  177.2140  138.9480 C   0  0  0  0  0  1  0  0  0  0  0  0
  184.0950  178.0590  141.4050 C   0  0  0  0  0  0  0  0  0  0  0  0
  184.4110  177.8010  140.1270 N   0  0  0  0  0  0  0  0  0  0  0  0
  185.2330  177.9500  142.1790 C   0  0  0  0  0  0  0  0  0  0  0  0
  188.4260  175.4130  147.0970 C   0  0  0  0  0  3  0  0  0  0  0  0
  187.9260  176.5730  146.8750 N   0  0  0  0  0  0  0  0  0  0  0  0
  189.8860  175.1810  146.8820 C   0  0  0  0  0  2  0  0  0  0  0  0
  190.6050  176.5100  146.6840 C   0  0  0  0  0  2  0  0  0  0  0  0
  191.1250  176.6550  145.2570 C   0  0  2  0  0  3  0  0  0  0  0  0
  193.3240  176.4210  146.4200 C   0  0  0  0  0  3  0  0  0  0  0  0
  194.5760  176.5410  146.4200 O   0  0  0  0  0  0  0  0  0  0  0  0
  192.5750  176.7680  145.2610 N   0  0  0  0  0  2  0  0  0  0  0  0
  190.4670  177.8280  144.5240 C   0  0  0  0  0  2  0  0  0  0  0  0
  189.4290  178.2670  142.4160 O   0  0  0  0  0  1  0  0  0  0  0  0
  189.4320  177.3840  143.4970 C   0  0  1  0  0  3  0  0  0  0  0  0
  189.7770  175.9870  143.0160 C   0  0  0  0  0  2  0  0  0  0  0  0
  188.5790  175.0700  143.1670 C   0  0  0  0  0  1  0  0  0  0  0  0
  1  2  1  0  0  0  0
  2  3  1  0  0  0  0
  4 17  1  6  0  0  0
  4  3  1  0  0  0  0
  5  2  2  0  0  0  0
  5  4  1  0  0  0  0
  6  5  1  0  0  0  0
  7  8  1  0  0  0  0
  7  6  2  0  0  0  0
  8  1  2  0  0  0  0
 10 15  2  0  0  0  0
 11 10  1  0  0  0  0
 12 11  1  0  0  0  0
 13  9  1  0  0  0  0
 13 15  1  0  0  0  0
 14 11  1  0  0  0  0
 14 13  2  0  0  0  0
 15  7  1  0  0  0  0
 17 16  2  0  0  0  0
 18 16  1  0  0  0  0
 19 18  1  0  0  0  0
 20 24  1  1  0  0  0
 20 23  1  0  0  0  0
 20 19  1  0  0  0  0
 21 22  2  0  0  0  0
 23 21  1  0  0  0  0
 26 25  1  6  0  0  0
 26 24  1  0  0  0  0
 27 28  1  0  0  0  0
 27 26  1  0  0  0  0
M  END
>  <MODEL>
1

>  <REMARK>
 VINA RESULT:      -6.3      0.000      0.000
  Name = 
  9 active torsions:
  status: ('A' for Active; 'I' for Inactive)
    1  A    between atoms: C_1  and  C_28
    2  A    between atoms: C_6  and  C_7
    3  A    between atoms: C_6  and  C_14
    4  A    between atoms: C_10  and  N_27
    5  A    between atoms: C_14  and  C_26
    6  A    between atoms: C_19  and  C_24
    7  A    between atoms: N_22  and  C_26
    8  A    between atoms: C_25  and  C_26
    9  A    between atoms: C_25  and  C_28
                            x       y       z     vdW  Elec       q    Type
                         _______ _______ _______ _____ _____    ______ ____

>  <TORSDO>
F 9

$$$$
=
 OpenBabel11062419583D

 28 30  0  0  1  0  0  0  0  0999 V2000
  185.5420  179.7500  145.4110 N   0  0  0  0  0  0  0  0  0  0  0  0
  185.9270  178.6920  146.1450 C   0  0  0  0  0  0  0  0  0  0  0  0
  186.3940  178.2460  147.8310 S   0  0  0  0  0  0  0  0  0  0  0  0
  186.5740  176.8060  146.8890 C   0  0  1  0  0  3  0  0  0  0  0  0
  186.1330  177.4100  145.6040 C   0  0  0  0  0  0  0  0  0  0  0  0
  185.9710  177.1230  144.3010 N   0  0  0  0  0  0  0  0  0  0  0  0
  185.5730  178.1780  143.5070 C   0  0  0  0  0  0  0  0  0  0  0  0
  185.3590  179.4900  144.0710 C   0  0  0  0  0  3  0  0  0  0  0  0
  182.9320  178.3520  141.7690 N   0  0  0  0  0  1  0  0  0  0  0  0
  186.3940  177.6280  141.2200 N   0  0  0  0  0  0  0  0  0  0  0  0
  185.8420  177.5240  140.0190 N   0  0  0  0  0  0  0  0  0  0  0  0
  186.5870  177.1870  138.8210 C   0  0  0  0  0  1  0  0  0  0  0  0
  184.2400  178.0310  141.3080 C   0  0  0  0  0  0  0  0  0  0  0  0
  184.5380  177.7600  140.0280 N   0  0  0  0  0  0  0  0  0  0  0  0
  185.3940  177.9500  142.0630 C   0  0  0  0  0  0  0  0  0  0  0  0
  188.3940  175.3380  147.2370 C   0  0  0  0  0  3  0  0  0  0  0  0
  187.9670  176.4620  146.7910 N   0  0  0  0  0  0  0  0  0  0  0  0
  189.8220  174.9520  147.0320 C   0  0  0  0  0  2  0  0  0  0  0  0
  190.0250  174.4280  145.6150 C   0  0  0  0  0  2  0  0  0  0  0  0
  190.9270  175.3520  144.8030 C   0  0  2  0  0  3  0  0  0  0  0  0
  189.8840  177.4120  143.8510 C   0  0  0  0  0  3  0  0  0  0  0  0
  189.2010  177.9760  142.9580 O   0  0  0  0  0  0  0  0  0  0  0  0
  190.1570  176.0180  143.7650 N   0  0  0  0  0  2  0  0  0  0  0  0
  192.1350  174.6090  144.2240 C   0  0  0  0  0  2  0  0  0  0  0  0
  193.5290  176.5470  144.1250 O   0  0  0  0  0  1  0  0  0  0  0  0
  193.4670  175.2410  144.6110 C   0  0  1  0  0  3  0  0  0  0  0  0
  193.5900  175.2520  146.1230 C   0  0  0  0  0  2  0  0  0  0  0  0
  194.0050  176.6280  146.6050 C   0  0  0  0  0  1  0  0  0  0  0  0
  1  2  1  0  0  0  0
  2  3  1  0  0  0  0
  4 17  1  6  0  0  0
  4  3  1  0  0  0  0
  5  2  2  0  0  0  0
  5  4  1  0  0  0  0
  6  5  1  0  0  0  0
  7  8  1  0  0  0  0
  7  6  2  0  0  0  0
  8  1  2  0  0  0  0
 10 15  2  0  0  0  0
 11 14  1  0  0  0  0
 11 10  1  0  0  0  0
 12 11  1  0  0  0  0
 13  9  1  0  0  0  0
 13 15  1  0  0  0  0
 14 13  2  0  0  0  0
 15  7  1  0  0  0  0
 17 16  2  0  0  0  0
 18 16  1  0  0  0  0
 19 18  1  0  0  0  0
 20 24  1  6  0  0  0
 20 19  1  0  0  0  0
 22 21  2  0  0  0  0
 23 21  1  0  0  0  0
 23 20  1  0  0  0  0
 24 26  1  0  0  0  0
 26 25  1  1  0  0  0
 26 27  1  0  0  0  0
 27 28  1  0  0  0  0
M  END
>  <MODEL>
2

>  <REMARK>
 VINA RESULT:      -6.1      1.098      2.713
  Name = 
  9 active torsions:
  status: ('A' for Active; 'I' for Inactive)
    1  A    between atoms: C_1  and  C_28
    2  A    between atoms: C_6  and  C_7
    3  A    between atoms: C_6  and  C_14
    4  A    between atoms: C_10  and  N_27
    5  A    between atoms: C_14  and  C_26
    6  A    between atoms: C_19  and  C_24
    7  A    between atoms: N_22  and  C_26
    8  A    between atoms: C_25  and  C_26
    9  A    between atoms: C_25  and  C_28
                            x       y       z     vdW  Elec       q    Type
                         _______ _______ _______ _____ _____    ______ ____

>  <TORSDO>
F 9

$$$$
=
 OpenBabel11062419583D

 28 30  0  0  1  0  0  0  0  0999 V2000
  185.6220  179.2720  145.6680 N   0  0  0  0  0  0  0  0  0  0  0  0
  186.4180  178.2060  145.8640 C   0  0  0  0  0  0  0  0  0  0  0  0
  187.6390  177.5570  147.0230 S   0  0  0  0  0  0  0  0  0  0  0  0
  187.5460  176.4070  145.7340 C   0  0  1  0  0  3  0  0  0  0  0  0
  186.5090  177.1350  144.9580 C   0  0  0  0  0  0  0  0  0  0  0  0
  185.8150  177.0780  143.8080 N   0  0  0  0  0  0  0  0  0  0  0  0
  184.9820  178.1490  143.5640 C   0  0  0  0  0  0  0  0  0  0  0  0
  184.8910  179.2440  144.5020 C   0  0  0  0  0  3  0  0  0  0  0  0
  186.0000  177.9850  140.5710 N   0  0  0  0  0  1  0  0  0  0  0  0
  182.8590  178.2610  142.2650 N   0  0  0  0  0  0  0  0  0  0  0  0
  182.5380  178.2380  140.9800 N   0  0  0  0  0  0  0  0  0  0  0  0
  181.1730  178.3110  140.4940 C   0  0  0  0  0  1  0  0  0  0  0  0
  184.6500  178.0970  141.0110 C   0  0  0  0  0  0  0  0  0  0  0  0
  183.5930  178.1400  140.1850 N   0  0  0  0  0  0  0  0  0  0  0  0
  184.2030  178.1730  142.3150 C   0  0  0  0  0  0  0  0  0  0  0  0
  189.2340  175.3300  144.4770 C   0  0  0  0  0  3  0  0  0  0  0  0
  188.7780  176.4120  144.9910 N   0  0  0  0  0  0  0  0  0  0  0  0
  190.4560  175.3720  143.6190 C   0  0  0  0  0  2  0  0  0  0  0  0
  191.2130  176.6760  143.8490 C   0  0  0  0  0  2  0  0  0  0  0  0
  192.6590  176.4160  144.2600 C   0  0  2  0  0  3  0  0  0  0  0  0
  194.8880  176.1080  143.1770 C   0  0  0  0  0  3  0  0  0  0  0  0
  195.5800  175.8700  142.1540 O   0  0  0  0  0  0  0  0  0  0  0  0
  193.4680  176.1200  143.0890 N   0  0  0  0  0  2  0  0  0  0  0  0
  192.7630  175.3100  145.3150 C   0  0  0  0  0  2  0  0  0  0  0  0
  194.1240  176.7980  146.5980 O   0  0  0  0  0  1  0  0  0  0  0  0
  193.1160  175.8390  146.7000 C   0  0  1  0  0  3  0  0  0  0  0  0
  191.8810  176.4600  147.3240 C   0  0  0  0  0  2  0  0  0  0  0  0
  190.9370  175.3770  147.8090 C   0  0  0  0  0  1  0  0  0  0  0  0
  1  2  1  0  0  0  0
  2  3  1  0  0  0  0
  4 17  1  6  0  0  0
  4  3  1  0  0  0  0
  5  4  1  0  0  0  0
  5  2  2  0  0  0  0
  6  5  1  0  0  0  0
  7  6  2  0  0  0  0
  7  8  1  0  0  0  0
  8  1  2  0  0  0  0
  9 13  1  0  0  0  0
 10 15  2  0  0  0  0
 11 10  1  0  0  0  0
 12 11  1  0  0  0  0
 13 15  1  0  0  0  0
 14 11  1  0  0  0  0
 14 13  2  0  0  0  0
 15  7  1  0  0  0  0
 16 17  2  0  0  0  0
 18 19  1  0  0  0  0
 18 16  1  0  0  0  0
 20 19  1  6  0  0  0
 20 24  1  0  0  0  0
 22 21  2  0  0  0  0
 23 21  1  0  0  0  0
 23 20  1  0  0  0  0
 24 26  1  0  0  0  0
 26 25  1  6  0  0  0
 26 27  1  0  0  0  0
 27 28  1  0  0  0  0
M  END
>  <MODEL>
3

>  <REMARK>
 VINA RESULT:      -6.0      1.822      3.179
  Name = 
  9 active torsions:
  status: ('A' for Active; 'I' for Inactive)
    1  A    between atoms: C_1  and  C_28
    2  A    between atoms: C_6  and  C_7
    3  A    between atoms: C_6  and  C_14
    4  A    between atoms: C_10  and  N_27
    5  A    between atoms: C_14  and  C_26
    6  A    between atoms: C_19  and  C_24
    7  A    between atoms: N_22  and  C_26
    8  A    between atoms: C_25  and  C_26
    9  A    between atoms: C_25  and  C_28
                            x       y       z     vdW  Elec       q    Type
                         _______ _______ _______ _____ _____    ______ ____

>  <TORSDO>
F 9

$$$$
=
 OpenBabel11062419583D

 28 30  0  0  1  0  0  0  0  0999 V2000
  185.6220  179.9520  145.4580 N   0  0  0  0  0  0  0  0  0  0  0  0
  185.9120  178.8240  146.1290 C   0  0  0  0  0  0  0  0  0  0  0  0
  186.6750  178.2560  147.6630 S   0  0  0  0  0  0  0  0  0  0  0  0
  186.2450  176.8280  146.7880 C   0  0  1  0  0  3  0  0  0  0  0  0
  185.6490  177.5370  145.6250 C   0  0  0  0  0  0  0  0  0  0  0  0
  185.0900  177.3150  144.4230 N   0  0  0  0  0  0  0  0  0  0  0  0
  184.7720  178.4440  143.6990 C   0  0  0  0  0  0  0  0  0  0  0  0
  185.0410  179.7610  144.2250 C   0  0  0  0  0  3  0  0  0  0  0  0
  186.2030  178.0030  140.9090 N   0  0  0  0  0  1  0  0  0  0  0  0
  182.8480  178.2910  142.1230 N   0  0  0  0  0  0  0  0  0  0  0  0
  182.7100  178.1060  140.8180 N   0  0  0  0  0  0  0  0  0  0  0  0
  181.4250  178.0490  140.1480 C   0  0  0  0  0  1  0  0  0  0  0  0
  184.8020  178.0880  141.1480 C   0  0  0  0  0  0  0  0  0  0  0  0
  183.8690  177.9790  140.1880 N   0  0  0  0  0  0  0  0  0  0  0  0
  184.1740  178.2840  142.3630 C   0  0  0  0  0  0  0  0  0  0  0  0
  188.1920  175.5560  147.2110 C   0  0  0  0  0  3  0  0  0  0  0  0
  187.4360  176.1450  146.3590 N   0  0  0  0  0  0  0  0  0  0  0  0
  189.3660  174.7620  146.7390 C   0  0  0  0  0  2  0  0  0  0  0  0
  190.6500  175.3150  147.3460 C   0  0  0  0  0  2  0  0  0  0  0  0
  191.7140  175.5520  146.2790 C   0  0  2  0  0  3  0  0  0  0  0  0
  193.9700  176.6240  146.2700 C   0  0  0  0  0  3  0  0  0  0  0  0
  194.7440  177.5390  146.6500 O   0  0  0  0  0  0  0  0  0  0  0  0
  192.6120  176.6170  146.6950 N   0  0  0  0  0  2  0  0  0  0  0  0
  191.0940  175.8370  144.9070 C   0  0  0  0  0  2  0  0  0  0  0  0
  191.8810  177.5450  143.4310 O   0  0  0  0  0  1  0  0  0  0  0  0
  191.0840  177.3200  144.5540 C   0  0  1  0  0  3  0  0  0  0  0  0
  189.6580  177.7510  144.2630 C   0  0  0  0  0  2  0  0  0  0  0  0
  189.4380  177.8560  142.7660 C   0  0  0  0  0  1  0  0  0  0  0  0
  1  2  1  0  0  0  0
  2  3  1  0  0  0  0
  4 17  1  6  0  0  0
  4  3  1  0  0  0  0
  5  2  2  0  0  0  0
  5  4  1  0  0  0  0
  6  5  1  0  0  0  0
  7  8  1  0  0  0  0
  7  6  2  0  0  0  0
  8  1  2  0  0  0  0
  9 13  1  0  0  0  0
 10 15  2  0  0  0  0
 11 10  1  0  0  0  0
 12 11  1  0  0  0  0
 13 15  1  0  0  0  0
 14 11  1  0  0  0  0
 14 13  2  0  0  0  0
 15  7  1  0  0  0  0
 17 16  2  0  0  0  0
 18 16  1  0  0  0  0
 18 19  1  0  0  0  0
 20 24  1  6  0  0  0
 20 23  1  0  0  0  0
 20 19  1  0  0  0  0
 21 22  2  0  0  0  0
 21 23  1  0  0  0  0
 26 25  1  6  0  0  0
 26 24  1  0  0  0  0
 27 26  1  0  0  0  0
 28 27  1  0  0  0  0
M  END
>  <MODEL>
4

>  <REMARK>
 VINA RESULT:      -6.0      1.240      1.943
  Name = 
  9 active torsions:
  status: ('A' for Active; 'I' for Inactive)
    1  A    between atoms: C_1  and  C_28
    2  A    between atoms: C_6  and  C_7
    3  A    between atoms: C_6  and  C_14
    4  A    between atoms: C_10  and  N_27
    5  A    between atoms: C_14  and  C_26
    6  A    between atoms: C_19  and  C_24
    7  A    between atoms: N_22  and  C_26
    8  A    between atoms: C_25  and  C_26
    9  A    between atoms: C_25  and  C_28
                            x       y       z     vdW  Elec       q    Type
                         _______ _______ _______ _____ _____    ______ ____

>  <TORSDO>
F 9

$$$$
=
 OpenBabel11062419583D

 28 30  0  0  1  0  0  0  0  0999 V2000
  185.4560  179.7890  145.6780 N   0  0  0  0  0  0  0  0  0  0  0  0
  185.9480  178.6570  146.2110 C   0  0  0  0  0  0  0  0  0  0  0  0
  186.8420  178.0580  147.6610 S   0  0  0  0  0  0  0  0  0  0  0  0
  186.6250  176.6840  146.6330 C   0  0  1  0  0  3  0  0  0  0  0  0
  185.8850  177.4090  145.5670 C   0  0  0  0  0  0  0  0  0  0  0  0
  185.3320  177.2300  144.3550 N   0  0  0  0  0  0  0  0  0  0  0  0
  184.8100  178.3640  143.7680 C   0  0  0  0  0  0  0  0  0  0  0  0
  184.8750  179.6410  144.4380 C   0  0  0  0  0  3  0  0  0  0  0  0
  186.2270  178.0730  140.9520 N   0  0  0  0  0  1  0  0  0  0  0  0
  182.8780  178.2520  142.2000 N   0  0  0  0  0  0  0  0  0  0  0  0
  182.7330  178.1250  140.8880 N   0  0  0  0  0  0  0  0  0  0  0  0
  181.4440  178.0770  140.2260 C   0  0  0  0  0  1  0  0  0  0  0  0
  184.8270  178.1250  141.2040 C   0  0  0  0  0  0  0  0  0  0  0  0
  183.8890  178.0450  140.2460 N   0  0  0  0  0  0  0  0  0  0  0  0
  184.2050  178.2560  142.4300 C   0  0  0  0  0  0  0  0  0  0  0  0
  188.5740  175.3480  146.7090 C   0  0  0  0  0  3  0  0  0  0  0  0
  187.8990  176.2620  146.1140 N   0  0  0  0  0  0  0  0  0  0  0  0
  189.8420  174.8470  146.0990 C   0  0  0  0  0  2  0  0  0  0  0  0
  189.6420  174.5880  144.6100 C   0  0  0  0  0  2  0  0  0  0  0  0
  190.4880  175.5330  143.7620 C   0  0  2  0  0  3  0  0  0  0  0  0
  188.6440  175.2960  142.0930 C   0  0  0  0  0  3  0  0  0  0  0  0
  188.2500  175.2760  140.8990 O   0  0  0  0  0  0  0  0  0  0  0  0
  190.0170  175.5290  142.3870 N   0  0  0  0  0  2  0  0  0  0  0  0
  191.9800  175.2010  143.8510 C   0  0  0  0  0  2  0  0  0  0  0  0
  192.0680  177.5490  144.2900 O   0  0  0  0  0  1  0  0  0  0  0  0
  192.8280  176.3790  144.3180 C   0  0  1  0  0  3  0  0  0  0  0  0
  193.3060  176.1150  145.7330 C   0  0  0  0  0  2  0  0  0  0  0  0
  193.5900  174.6380  145.9240 C   0  0  0  0  0  1  0  0  0  0  0  0
  1  2  1  0  0  0  0
  2  3  1  0  0  0  0
  4 17  1  6  0  0  0
  4  3  1  0  0  0  0
  5  2  2  0  0  0  0
  5  4  1  0  0  0  0
  6  5  1  0  0  0  0
  7  6  2  0  0  0  0
  7  8  1  0  0  0  0
  8  1  2  0  0  0  0
  9 13  1  0  0  0  0
 10 15  2  0  0  0  0
 11 10  1  0  0  0  0
 12 11  1  0  0  0  0
 13 15  1  0  0  0  0
 14 11  1  0  0  0  0
 14 13  2  0  0  0  0
 15  7  1  0  0  0  0
 17 16  2  0  0  0  0
 18 16  1  0  0  0  0
 19 18  1  0  0  0  0
 20 24  1  6  0  0  0
 20 19  1  0  0  0  0
 21 23  1  0  0  0  0
 22 21  2  0  0  0  0
 23 20  1  0  0  0  0
 24 26  1  0  0  0  0
 26 25  1  1  0  0  0
 26 27  1  0  0  0  0
 27 28  1  0  0  0  0
M  END
>  <MODEL>
5

>  <REMARK>
 VINA RESULT:      -5.9      1.646      3.261
  Name = 
  9 active torsions:
  status: ('A' for Active; 'I' for Inactive)
    1  A    between atoms: C_1  and  C_28
    2  A    between atoms: C_6  and  C_7
    3  A    between atoms: C_6  and  C_14
    4  A    between atoms: C_10  and  N_27
    5  A    between atoms: C_14  and  C_26
    6  A    between atoms: C_19  and  C_24
    7  A    between atoms: N_22  and  C_26
    8  A    between atoms: C_25  and  C_26
    9  A    between atoms: C_25  and  C_28
                            x       y       z     vdW  Elec       q    Type
                         _______ _______ _______ _____ _____    ______ ____

>  <TORSDO>
F 9

$$$$
=
 OpenBabel11062419583D

 28 30  0  0  1  0  0  0  0  0999 V2000
  193.7420  174.4560  146.0910 N   0  0  0  0  0  0  0  0  0  0  0  0
  192.6920  175.2790  146.2570 C   0  0  0  0  0  0  0  0  0  0  0  0
  191.3400  175.6200  147.4030 S   0  0  0  0  0  0  0  0  0  0  0  0
  191.1260  176.7090  146.0750 C   0  0  1  0  0  3  0  0  0  0  0  0
  192.3200  176.2560  145.3150 C   0  0  0  0  0  0  0  0  0  0  0  0
  192.9760  176.4540  144.1590 N   0  0  0  0  0  0  0  0  0  0  0  0
  194.0640  175.6350  143.9450 C   0  0  0  0  0  0  0  0  0  0  0  0
  194.4420  174.6370  144.9190 C   0  0  0  0  0  3  0  0  0  0  0  0
  196.8250  177.0990  143.4350 N   0  0  0  0  0  1  0  0  0  0  0  0
  194.4340  175.2570  141.5110 N   0  0  0  0  0  0  0  0  0  0  0  0
  195.3780  175.5810  140.6390 N   0  0  0  0  0  0  0  0  0  0  0  0
  195.3360  175.2070  139.2380 C   0  0  0  0  0  1  0  0  0  0  0  0
  196.0300  176.4120  142.4740 C   0  0  0  0  0  0  0  0  0  0  0  0
  196.3630  176.2820  141.1800 N   0  0  0  0  0  0  0  0  0  0  0  0
  194.8240  175.7760  142.6920 C   0  0  0  0  0  0  0  0  0  0  0  0
  188.8910  177.0830  145.4030 C   0  0  0  0  0  3  0  0  0  0  0  0
  189.9410  176.3510  145.3420 N   0  0  0  0  0  0  0  0  0  0  0  0
  187.7070  176.7560  144.5530 C   0  0  0  0  0  2  0  0  0  0  0  0
  187.3640  177.9380  143.6540 C   0  0  0  0  0  2  0  0  0  0  0  0
  185.9270  178.4020  143.8670 C   0  0  2  0  0  3  0  0  0  0  0  0
  184.7200  177.9560  141.7260 C   0  0  0  0  0  3  0  0  0  0  0  0
  184.2490  178.3650  140.6340 O   0  0  0  0  0  0  0  0  0  0  0  0
  185.3590  178.8680  142.6120 N   0  0  0  0  0  2  0  0  0  0  0  0
  185.8260  179.4660  144.9640 C   0  0  0  0  0  2  0  0  0  0  0  0
  184.3880  177.7970  145.8920 O   0  0  0  0  0  1  0  0  0  0  0  0
  185.0430  178.9940  146.1840 C   0  0  1  0  0  3  0  0  0  0  0  0
  186.0050  178.7810  147.3380 C   0  0  0  0  0  2  0  0  0  0  0  0
  185.9930  177.3270  147.7690 C   0  0  0  0  0  1  0  0  0  0  0  0
  1  2  1  0  0  0  0
  2  3  1  0  0  0  0
  4 17  1  6  0  0  0
  4  3  1  0  0  0  0
  5  4  1  0  0  0  0
  5  2  2  0  0  0  0
  6  5  1  0  0  0  0
  7  6  2  0  0  0  0
  7  8  1  0  0  0  0
  8  1  2  0  0  0  0
 10 15  2  0  0  0  0
 11 14  1  0  0  0  0
 11 10  1  0  0  0  0
 12 11  1  0  0  0  0
 13 15  1  0  0  0  0
 13  9  1  0  0  0  0
 14 13  2  0  0  0  0
 15  7  1  0  0  0  0
 17 16  2  0  0  0  0
 18 16  1  0  0  0  0
 19 18  1  0  0  0  0
 20 19  1  6  0  0  0
 20 24  1  0  0  0  0
 21 23  1  0  0  0  0
 22 21  2  0  0  0  0
 23 20  1  0  0  0  0
 24 26  1  0  0  0  0
 26 25  1  6  0  0  0
 26 27  1  0  0  0  0
 27 28  1  0  0  0  0
M  END
>  <MODEL>
6

>  <REMARK>
 VINA RESULT:      -5.8      3.505      8.224
  Name = 
  9 active torsions:
  status: ('A' for Active; 'I' for Inactive)
    1  A    between atoms: C_1  and  C_28
    2  A    between atoms: C_6  and  C_7
    3  A    between atoms: C_6  and  C_14
    4  A    between atoms: C_10  and  N_27
    5  A    between atoms: C_14  and  C_26
    6  A    between atoms: C_19  and  C_24
    7  A    between atoms: N_22  and  C_26
    8  A    between atoms: C_25  and  C_26
    9  A    between atoms: C_25  and  C_28
                            x       y       z     vdW  Elec       q    Type
                         _______ _______ _______ _____ _____    ______ ____

>  <TORSDO>
F 9

$$$$
=
 OpenBabel11062419583D

 28 30  0  0  1  0  0  0  0  0999 V2000
  187.8280  174.4610  141.7020 N   0  0  0  0  0  0  0  0  0  0  0  0
  189.1720  174.4820  141.7230 C   0  0  0  0  0  0  0  0  0  0  0  0
  190.6030  173.6420  141.0130 S   0  0  0  0  0  0  0  0  0  0  0  0
  191.2370  174.8150  142.1160 C   0  0  1  0  0  3  0  0  0  0  0  0
  189.9170  175.3560  142.5350 C   0  0  0  0  0  0  0  0  0  0  0  0
  189.3570  176.2470  143.3710 N   0  0  0  0  0  0  0  0  0  0  0  0
  187.9780  176.2640  143.3820 C   0  0  0  0  0  0  0  0  0  0  0  0
  187.2200  175.3660  142.5420 C   0  0  0  0  0  3  0  0  0  0  0  0
  186.3610  178.8950  142.6850 N   0  0  0  0  0  1  0  0  0  0  0  0
  187.2300  177.0480  145.6250 N   0  0  0  0  0  0  0  0  0  0  0  0
  186.5170  178.0690  146.0780 N   0  0  0  0  0  0  0  0  0  0  0  0
  186.2190  178.2790  147.4820 C   0  0  0  0  0  1  0  0  0  0  0  0
  186.5790  178.3420  143.9790 C   0  0  0  0  0  0  0  0  0  0  0  0
  186.1030  178.8790  145.1140 N   0  0  0  0  0  0  0  0  0  0  0  0
  187.2870  177.1970  144.2870 C   0  0  0  0  0  0  0  0  0  0  0  0
  193.1220  174.1290  143.3670 C   0  0  0  0  0  3  0  0  0  0  0  0
  191.8470  174.1480  143.2350 N   0  0  0  0  0  0  0  0  0  0  0  0
  193.7330  173.5250  144.5880 C   0  0  0  0  0  2  0  0  0  0  0  0
  194.8040  174.4520  145.1520 C   0  0  0  0  0  2  0  0  0  0  0  0
  194.3220  175.8990  145.1930 C   0  0  2  0  0  3  0  0  0  0  0  0
  196.3060  176.2790  143.7230 C   0  0  0  0  0  3  0  0  0  0  0  0
  197.1880  177.0460  143.2590 O   0  0  0  0  0  0  0  0  0  0  0  0
  195.3340  176.7810  144.6340 N   0  0  0  0  0  2  0  0  0  0  0  0
  193.9180  176.3270  146.6080 C   0  0  0  0  0  2  0  0  0  0  0  0
  191.8460  176.8220  145.5230 O   0  0  0  0  0  1  0  0  0  0  0  0
  192.4150  176.5300  146.7630 C   0  0  1  0  0  3  0  0  0  0  0  0
  191.7990  175.2610  147.3220 C   0  0  0  0  0  2  0  0  0  0  0  0
  190.5360  174.9110  146.5590 C   0  0  0  0  0  1  0  0  0  0  0  0
  1  2  2  0  0  0  0
  1  8  1  0  0  0  0
  2  5  1  0  0  0  0
  3  2  1  0  0  0  0
  3  4  1  0  0  0  0
  4  5  1  0  0  0  0
  4 17  1  1  0  0  0
  5  6  2  0  0  0  0
  6  7  1  0  0  0  0
  7 15  1  0  0  0  0
  8  7  2  0  0  0  0
  9 13  1  0  0  0  0
 10 11  1  0  0  0  0
 11 12  1  0  0  0  0
 13 15  1  0  0  0  0
 13 14  2  0  0  0  0
 14 11  1  0  0  0  0
 15 10  2  0  0  0  0
 16 18  1  0  0  0  0
 17 16  2  0  0  0  0
 18 19  1  0  0  0  0
 20 19  1  1  0  0  0
 20 24  1  0  0  0  0
 21 23  1  0  0  0  0
 22 21  2  0  0  0  0
 23 20  1  0  0  0  0
 24 26  1  0  0  0  0
 26 25  1  6  0  0  0
 26 27  1  0  0  0  0
 28 27  1  0  0  0  0
M  END
>  <MODEL>
7

>  <REMARK>
 VINA RESULT:      -5.8      2.975      5.262
  Name = 
  9 active torsions:
  status: ('A' for Active; 'I' for Inactive)
    1  A    between atoms: C_1  and  C_28
    2  A    between atoms: C_6  and  C_7
    3  A    between atoms: C_6  and  C_14
    4  A    between atoms: C_10  and  N_27
    5  A    between atoms: C_14  and  C_26
    6  A    between atoms: C_19  and  C_24
    7  A    between atoms: N_22  and  C_26
    8  A    between atoms: C_25  and  C_26
    9  A    between atoms: C_25  and  C_28
                            x       y       z     vdW  Elec       q    Type
                         _______ _______ _______ _____ _____    ______ ____

>  <TORSDO>
F 9

$$$$
=
 OpenBabel11062419583D

 28 30  0  0  1  0  0  0  0  0999 V2000
  185.4680  179.8190  145.8760 N   0  0  0  0  0  0  0  0  0  0  0  0
  185.9670  178.7170  146.4620 C   0  0  0  0  0  0  0  0  0  0  0  0
  186.7790  178.1760  147.9810 S   0  0  0  0  0  0  0  0  0  0  0  0
  186.6930  176.7800  146.9630 C   0  0  1  0  0  3  0  0  0  0  0  0
  186.0020  177.4580  145.8350 C   0  0  0  0  0  0  0  0  0  0  0  0
  185.5450  177.2390  144.5900 N   0  0  0  0  0  0  0  0  0  0  0  0
  185.0200  178.3410  143.9490 C   0  0  0  0  0  0  0  0  0  0  0  0
  184.9840  179.6300  144.6010 C   0  0  0  0  0  3  0  0  0  0  0  0
  186.6450  177.9820  141.2560 N   0  0  0  0  0  1  0  0  0  0  0  0
  183.2100  178.1670  142.2450 N   0  0  0  0  0  0  0  0  0  0  0  0
  183.1650  178.0010  140.9310 N   0  0  0  0  0  0  0  0  0  0  0  0
  181.9290  177.9230  140.1760 C   0  0  0  0  0  1  0  0  0  0  0  0
  185.2290  178.0290  141.4010 C   0  0  0  0  0  0  0  0  0  0  0  0
  184.3670  177.9130  140.3790 N   0  0  0  0  0  0  0  0  0  0  0  0
  184.5170  178.1890  142.5730 C   0  0  0  0  0  0  0  0  0  0  0  0
  188.5200  175.2810  146.8990 C   0  0  0  0  0  3  0  0  0  0  0  0
  188.0170  176.4050  146.5430 N   0  0  0  0  0  0  0  0  0  0  0  0
  189.8510  174.8610  146.3680 C   0  0  0  0  0  2  0  0  0  0  0  0
  189.7610  174.6050  144.8680 C   0  0  0  0  0  2  0  0  0  0  0  0
  191.1440  174.4660  144.2420 C   0  0  2  0  0  3  0  0  0  0  0  0
  193.3620  173.5050  144.8700 C   0  0  0  0  0  3  0  0  0  0  0  0
  194.1880  173.1520  145.7510 O   0  0  0  0  0  0  0  0  0  0  0  0
  192.1150  174.0750  145.2500 N   0  0  0  0  0  2  0  0  0  0  0  0
  191.5710  175.7420  143.5100 C   0  0  0  0  0  2  0  0  0  0  0  0
  193.1500  177.1380  144.6390 O   0  0  0  0  0  1  0  0  0  0  0  0
  191.7840  176.9250  144.4480 C   0  0  1  0  0  3  0  0  0  0  0  0
  191.1560  178.1630  143.8350 C   0  0  0  0  0  2  0  0  0  0  0  0
  190.0860  177.7680  142.8360 C   0  0  0  0  0  1  0  0  0  0  0  0
  1  2  1  0  0  0  0
  2  3  1  0  0  0  0
  4 17  1  6  0  0  0
  4  3  1  0  0  0  0
  5  2  2  0  0  0  0
  5  4  1  0  0  0  0
  6  5  1  0  0  0  0
  7  6  2  0  0  0  0
  7  8  1  0  0  0  0
  8  1  2  0  0  0  0
  9 13  1  0  0  0  0
 10 15  2  0  0  0  0
 11 10  1  0  0  0  0
 12 11  1  0  0  0  0
 13 15  1  0  0  0  0
 14 11  1  0  0  0  0
 14 13  2  0  0  0  0
 15  7  1  0  0  0  0
 17 16  2  0  0  0  0
 18 16  1  0  0  0  0
 19 18  1  0  0  0  0
 20 24  1  1  0  0  0
 20 19  1  0  0  0  0
 20 23  1  0  0  0  0
 21 23  1  0  0  0  0
 21 22  2  0  0  0  0
 24 26  1  0  0  0  0
 26 25  1  6  0  0  0
 27 26  1  0  0  0  0
 28 27  1  0  0  0  0
M  END
>  <MODEL>
8

>  <REMARK>
 VINA RESULT:      -5.7      1.568      2.344
  Name = 
  9 active torsions:
  status: ('A' for Active; 'I' for Inactive)
    1  A    between atoms: C_1  and  C_28
    2  A    between atoms: C_6  and  C_7
    3  A    between atoms: C_6  and  C_14
    4  A    between atoms: C_10  and  N_27
    5  A    between atoms: C_14  and  C_26
    6  A    between atoms: C_19  and  C_24
    7  A    between atoms: N_22  and  C_26
    8  A    between atoms: C_25  and  C_26
    9  A    between atoms: C_25  and  C_28
                            x       y       z     vdW  Elec       q    Type
                         _______ _______ _______ _____ _____    ______ ____

>  <TORSDO>
F 9

$$$$
=
 OpenBabel11062419583D

 28 30  0  0  1  0  0  0  0  0999 V2000
  184.6680  179.0140  146.2000 N   0  0  0  0  0  0  0  0  0  0  0  0
  185.8130  178.3170  146.2920 C   0  0  0  0  0  0  0  0  0  0  0  0
  187.1320  177.9260  147.4600 S   0  0  0  0  0  0  0  0  0  0  0  0
  187.5750  177.1670  145.9690 C   0  0  1  0  0  3  0  0  0  0  0  0
  186.3730  177.6070  145.2140 C   0  0  0  0  0  0  0  0  0  0  0  0
  185.8190  177.5650  143.9900 N   0  0  0  0  0  0  0  0  0  0  0  0
  184.6390  178.2650  143.8480 C   0  0  0  0  0  0  0  0  0  0  0  0
  184.0680  178.9870  144.9610 C   0  0  0  0  0  3  0  0  0  0  0  0
  185.9410  178.2750  140.9620 N   0  0  0  0  0  1  0  0  0  0  0  0
  182.6440  178.2900  142.3560 N   0  0  0  0  0  0  0  0  0  0  0  0
  182.4470  178.2940  141.0460 N   0  0  0  0  0  0  0  0  0  0  0  0
  181.1310  178.2990  140.4340 C   0  0  0  0  0  1  0  0  0  0  0  0
  184.5520  178.2850  141.2740 C   0  0  0  0  0  0  0  0  0  0  0  0
  183.5760  178.2920  140.3520 N   0  0  0  0  0  0  0  0  0  0  0  0
  183.9800  178.2850  142.5310 C   0  0  0  0  0  0  0  0  0  0  0  0
  189.6520  177.1320  144.8420 C   0  0  0  0  0  3  0  0  0  0  0  0
  188.7360  177.8150  145.4220 N   0  0  0  0  0  0  0  0  0  0  0  0
  190.7980  177.8300  144.1860 C   0  0  0  0  0  2  0  0  0  0  0  0
  191.3940  176.9480  143.0940 C   0  0  0  0  0  2  0  0  0  0  0  0
  191.3870  175.4780  143.5000 C   0  0  2  0  0  3  0  0  0  0  0  0
  192.6220  174.0310  145.1190 C   0  0  0  0  0  3  0  0  0  0  0  0
  193.6610  173.7740  145.7790 O   0  0  0  0  0  0  0  0  0  0  0  0
  192.5900  175.1580  144.2510 N   0  0  0  0  0  2  0  0  0  0  0  0
  191.2110  174.5520  142.2920 C   0  0  0  0  0  2  0  0  0  0  0  0
  189.3160  173.8430  143.5650 O   0  0  0  0  0  1  0  0  0  0  0  0
  189.8680  173.8300  142.2840 C   0  0  1  0  0  3  0  0  0  0  0  0
  188.9340  174.5330  141.3170 C   0  0  0  0  0  2  0  0  0  0  0  0
  187.9180  175.3630  142.0790 C   0  0  0  0  0  1  0  0  0  0  0  0
  1  2  1  0  0  0  0
  2  3  1  0  0  0  0
  4 17  1  6  0  0  0
  4  3  1  0  0  0  0
  5  4  1  0  0  0  0
  5  2  2  0  0  0  0
  6  5  1  0  0  0  0
  7  6  2  0  0  0  0
  7  8  1  0  0  0  0
  8  1  2  0  0  0  0
  9 13  1  0  0  0  0
 10 15  2  0  0  0  0
 11 10  1  0  0  0  0
 12 11  1  0  0  0  0
 13 15  1  0  0  0  0
 14 11  1  0  0  0  0
 14 13  2  0  0  0  0
 15  7  1  0  0  0  0
 16 17  2  0  0  0  0
 18 16  1  0  0  0  0
 19 20  1  0  0  0  0
 19 18  1  0  0  0  0
 20 24  1  6  0  0  0
 20 23  1  0  0  0  0
 21 22  2  0  0  0  0
 23 21  1  0  0  0  0
 26 24  1  0  0  0  0
 26 25  1  1  0  0  0
 27 28  1  0  0  0  0
 27 26  1  0  0  0  0
M  END
>  <MODEL>
9

>  <REMARK>
 VINA RESULT:      -5.6      1.850      2.716
  Name = 
  9 active torsions:
  status: ('A' for Active; 'I' for Inactive)
    1  A    between atoms: C_1  and  C_28
    2  A    between atoms: C_6  and  C_7
    3  A    between atoms: C_6  and  C_14
    4  A    between atoms: C_10  and  N_27
    5  A    between atoms: C_14  and  C_26
    6  A    between atoms: C_19  and  C_24
    7  A    between atoms: N_22  and  C_26
    8  A    between atoms: C_25  and  C_26
    9  A    between atoms: C_25  and  C_28
                            x       y       z     vdW  Elec       q    Type
                         _______ _______ _______ _____ _____    ______ ____

>  <TORSDO>
F 9

$$$$
