=
 OpenBabel11062418473D

 43 49  0  0  1  0  0  0  0  0999 V2000
  190.5080  174.5150  142.4320 C   0  0  0  0  0  2  0  0  0  0  0  0
  190.2450  173.2500  144.5090 C   0  0  0  0  0  2  0  0  0  0  0  0
  192.3420  174.5580  144.9660 C   0  0  0  0  0  0  0  0  0  0  0  0
  188.5720  174.5280  143.6170 O   0  0  0  0  0  1  0  0  0  0  0  0
  194.6750  174.0930  144.0520 C   0  0  2  0  0  3  0  0  0  0  0  0
  191.6090  173.7440  142.0470 O   0  0  0  0  0  0  0  0  0  0  0  0
  191.8720  175.7670  146.8480 C   0  0  0  0  0  3  0  0  0  0  0  0
  194.1900  176.1040  146.0050 C   0  0  0  0  0  2  0  0  0  0  0  0
  192.8280  175.4910  145.9760 C   0  0  0  0  0  0  0  0  0  0  0  0
  189.6070  173.7270  143.2700 N   0  0  0  0  0  0  0  0  0  0  0  0
  190.6330  175.0050  146.4760 C   0  0  2  0  0  3  0  0  0  0  0  0
  192.7260  174.4500  142.5050 C   0  0  0  0  0  2  0  0  0  0  0  0
  195.0470  173.8080  145.4350 N   0  0  0  0  0  2  0  0  0  0  0  0
  191.0680  174.2910  145.2290 C   0  0  0  0  0  0  0  0  0  0  0  0
  195.3090  175.0600  146.1500 C   0  0  0  0  0  2  0  0  0  0  0  0
  193.1620  173.9150  143.8660 C   0  0  2  0  0  3  0  0  0  0  0  0
  187.2830  177.5960  145.7950 C   0  0  0  0  0  0  0  0  0  0  0  0
  187.2150  176.5470  146.6610 N   0  0  0  0  0  0  0  0  0  0  0  0
  188.2740  175.7240  146.8860 C   0  0  0  0  0  3  0  0  0  0  0  0
  189.5820  177.0040  145.3210 C   0  0  0  0  0  3  0  0  0  0  0  0
  188.4840  177.8350  145.1030 C   0  0  0  0  0  3  0  0  0  0  0  0
  189.4830  175.9360  146.2210 C   0  0  0  0  0  0  0  0  0  0  0  0
  184.7990  177.6560  146.0200 C   0  0  1  0  0  3  0  0  0  0  0  0
  185.4710  176.8250  143.7930 O   0  0  0  0  0  1  0  0  0  0  0  0
  185.3120  178.7940  146.8830 C   0  0  0  0  0  2  0  0  0  0  0  0
  185.0740  177.9260  144.5600 C   0  0  2  0  0  0  0  0  0  0  0  0
  186.0470  178.4480  145.6010 C   0  0  1  0  0  0  0  0  0  0  0  0
  183.8960  178.3610  142.7990 O   0  0  0  0  0  1  0  0  0  0  0  0
  184.2730  178.8950  143.9430 O   0  0  0  0  0  0  0  0  0  0  0  0
  195.4300  173.1520  143.1210 C   0  0  0  0  0  2  0  0  0  0  0  0
  196.1540  172.0670  143.9110 C   0  0  2  0  0  3  0  0  0  0  0  0
  197.5030  171.7240  143.2950 C   0  0  0  0  0  1  0  0  0  0  0  0
  195.2910  170.8430  144.1090 C   0  0  0  0  0  0  0  0  0  0  0  0
  195.3860  170.0650  145.2020 C   0  0  0  0  0  3  0  0  0  0  0  0
  191.5200  169.4660  139.9810 C   0  0  0  0  0  1  0  0  0  0  0  0
  192.0150  170.2150  142.3090 C   0  0  0  0  0  3  0  0  0  0  0  0
  194.7310  170.0910  141.7700 C   0  0  0  0  0  3  0  0  0  0  0  0
  192.4830  169.8240  141.0540 C   0  0  0  0  0  0  0  0  0  0  0  0
  193.8200  169.7700  140.8120 N   0  0  0  0  0  0  0  0  0  0  0  0
  194.3120  170.4900  143.0490 C   0  0  0  0  0  0  0  0  0  0  0  0
  192.9340  170.5460  143.3050 C   0  0  0  0  0  3  0  0  0  0  0  0
  196.6560  169.3100  147.1130 C   0  0  0  0  0  2  0  0  0  0  0  0
  196.3170  170.3030  146.3070 C   0  0  0  0  0  3  0  0  0  0  0  0
  1 10  1  0  0  0  0
  2 14  1  0  0  0  0
  3 14  2  0  0  0  0
  3  9  1  0  0  0  0
  5 30  1  6  0  0  0
  5 13  1  0  0  0  0
  6  1  1  0  0  0  0
  6 12  1  0  0  0  0
  8 15  1  0  0  0  0
  9  8  1  0  0  0  0
  9  7  2  0  0  0  0
 10  4  1  0  0  0  0
 10  2  1  0  0  0  0
 11 22  1  6  0  0  0
 11  7  1  0  0  0  0
 13 15  1  0  0  0  0
 14 11  1  0  0  0  0
 16 12  1  6  0  0  0
 16  5  1  0  0  0  0
 16  3  1  0  0  0  0
 17 18  1  0  0  0  0
 18 19  2  0  0  0  0
 20 22  2  0  0  0  0
 21 20  1  0  0  0  0
 21 17  2  0  0  0  0
 22 19  1  0  0  0  0
 23 25  1  1  0  0  0
 26 24  1  6  0  0  0
 26 27  1  0  0  0  0
 26 23  1  0  0  0  0
 27 17  1  1  0  0  0
 27 23  1  0  0  0  0
 27 25  1  0  0  0  0
 28 29  1  0  0  0  0
 29 26  1  0  0  0  0
 30 31  1  0  0  0  0
 31 32  1  6  0  0  0
 31 33  1  0  0  0  0
 33 34  2  0  0  0  0
 34 43  1  0  0  0  0
 35 38  1  0  0  0  0
 36 41  1  0  0  0  0
 37 40  1  0  0  0  0
 38 36  2  0  0  0  0
 39 38  1  0  0  0  0
 39 37  2  0  0  0  0
 40 41  2  0  0  0  0
 40 33  1  0  0  0  0
 43 42  2  0  0  0  0
M  END
>  <MODEL>
1

>  <REMARK>
 VINA RESULT:      -8.0      0.000      0.000
  Name = 
  8 active torsions:
  status: ('A' for Active; 'I' for Inactive)
    1  A    between atoms: C_9  and  C_11
    2  A    between atoms: C_9  and  C_16
    3  A    between atoms: C_16  and  C_18
    4  A    between atoms: C_18  and  C_35
    5  A    between atoms: C_22  and  C_40
    6  A    between atoms: C_24  and  C_26
    7  A    between atoms: C_25  and  O_43
    8  A    between atoms: C_27  and  C_39
                            x       y       z     vdW  Elec       q    Type
                         _______ _______ _______ _____ _____    ______ ____

>  <TORSDO>
F 8

$$$$
=
 OpenBabel11062418473D

 43 49  0  0  1  0  0  0  0  0999 V2000
  193.3740  174.5060  141.9820 C   0  0  0  0  0  2  0  0  0  0  0  0
  194.5140  176.1780  143.3560 C   0  0  0  0  0  2  0  0  0  0  0  0
  192.3460  175.8860  144.5940 C   0  0  0  0  0  0  0  0  0  0  0  0
  195.4800  174.1920  142.7670 O   0  0  0  0  0  1  0  0  0  0  0  0
  190.0660  176.8220  143.9460 C   0  0  2  0  0  3  0  0  0  0  0  0
  192.4580  175.4510  141.5090 O   0  0  0  0  0  0  0  0  0  0  0  0
  192.9640  175.2350  146.6970 C   0  0  0  0  0  3  0  0  0  0  0  0
  190.5020  175.4770  146.4140 C   0  0  0  0  0  2  0  0  0  0  0  0
  191.9180  175.5400  145.9450 C   0  0  0  0  0  0  0  0  0  0  0  0
  194.6450  175.1520  142.3080 N   0  0  0  0  0  0  0  0  0  0  0  0
  194.2130  175.3660  145.8760 C   0  0  2  0  0  3  0  0  0  0  0  0
  191.3590  175.3530  142.3670 C   0  0  0  0  0  2  0  0  0  0  0  0
  190.1700  177.6310  145.1580 N   0  0  0  0  0  2  0  0  0  0  0  0
  193.6670  175.7640  144.5350 C   0  0  0  0  0  0  0  0  0  0  0  0
  189.7840  176.8330  146.3250 C   0  0  0  0  0  2  0  0  0  0  0  0
  191.4640  176.3990  143.4740 C   0  0  2  0  0  3  0  0  0  0  0  0
  196.4370  171.7020  145.7090 C   0  0  0  0  0  0  0  0  0  0  0  0
  197.0330  172.8910  146.0040 N   0  0  0  0  0  0  0  0  0  0  0  0
  196.3350  174.0560  146.0640 C   0  0  0  0  0  3  0  0  0  0  0  0
  194.3200  172.8580  145.5070 C   0  0  0  0  0  3  0  0  0  0  0  0
  195.0560  171.6760  145.4490 C   0  0  0  0  0  3  0  0  0  0  0  0
  194.9600  174.0650  145.8180 C   0  0  0  0  0  0  0  0  0  0  0  0
  196.5440  169.3310  144.9410 C   0  0  1  0  0  3  0  0  0  0  0  0
  195.6300  169.4850  147.2300 O   0  0  0  0  0  1  0  0  0  0  0  0
  197.7020  170.0320  144.2540 C   0  0  0  0  0  2  0  0  0  0  0  0
  196.7610  169.2770  146.4340 C   0  0  2  0  0  0  0  0  0  0  0  0
  197.3020  170.4610  145.6530 C   0  0  1  0  0  0  0  0  0  0  0  0
  197.4350  168.1660  148.1630 O   0  0  0  0  0  1  0  0  0  0  0  0
  197.7220  168.3670  146.8930 O   0  0  0  0  0  0  0  0  0  0  0  0
  189.3700  177.6290  142.8570 C   0  0  0  0  0  2  0  0  0  0  0  0
  188.4880  176.7340  141.9920 C   0  0  2  0  0  3  0  0  0  0  0  0
  187.7840  177.5220  140.8970 C   0  0  0  0  0  1  0  0  0  0  0  0
  187.5190  175.9260  142.8240 C   0  0  0  0  0  0  0  0  0  0  0  0
  187.4940  174.5810  142.7950 C   0  0  0  0  0  3  0  0  0  0  0  0
  183.7770  178.7450  146.1700 C   0  0  0  0  0  1  0  0  0  0  0  0
  185.7970  177.3060  145.9050 C   0  0  0  0  0  3  0  0  0  0  0  0
  185.4860  177.3780  143.1520 C   0  0  0  0  0  3  0  0  0  0  0  0
  184.7490  178.0140  145.3180 C   0  0  0  0  0  0  0  0  0  0  0  0
  184.6150  178.0350  143.9640 N   0  0  0  0  0  0  0  0  0  0  0  0
  186.5580  176.6510  143.6940 C   0  0  0  0  0  0  0  0  0  0  0  0
  186.7000  176.6240  145.0890 C   0  0  0  0  0  3  0  0  0  0  0  0
  188.6780  172.5230  142.3490 C   0  0  0  0  0  2  0  0  0  0  0  0
  188.3820  173.7570  141.9720 C   0  0  0  0  0  3  0  0  0  0  0  0
  1 10  1  0  0  0  0
  2 14  1  0  0  0  0
  3  9  1  0  0  0  0
  5 30  1  6  0  0  0
  5 13  1  0  0  0  0
  6  1  1  0  0  0  0
  6 12  1  0  0  0  0
  9  8  1  0  0  0  0
  9  7  2  0  0  0  0
 10  4  1  0  0  0  0
 10  2  1  0  0  0  0
 11 22  1  6  0  0  0
 11  7  1  0  0  0  0
 13 15  1  0  0  0  0
 14  3  2  0  0  0  0
 14 11  1  0  0  0  0
 15  8  1  0  0  0  0
 16 12  1  6  0  0  0
 16  5  1  0  0  0  0
 16  3  1  0  0  0  0
 17 18  1  0  0  0  0
 18 19  2  0  0  0  0
 20 22  2  0  0  0  0
 21 20  1  0  0  0  0
 21 17  2  0  0  0  0
 22 19  1  0  0  0  0
 23 25  1  6  0  0  0
 23 27  1  0  0  0  0
 23 26  1  0  0  0  0
 25 27  1  0  0  0  0
 26 29  1  0  0  0  0
 26 24  1  1  0  0  0
 27 17  1  1  0  0  0
 27 26  1  0  0  0  0
 29 28  1  0  0  0  0
 31 32  1  6  0  0  0
 31 33  1  0  0  0  0
 31 30  1  0  0  0  0
 33 40  1  0  0  0  0
 34 33  2  0  0  0  0
 37 40  2  0  0  0  0
 37 39  1  0  0  0  0
 38 36  1  0  0  0  0
 38 35  1  0  0  0  0
 39 38  2  0  0  0  0
 40 41  1  0  0  0  0
 41 36  2  0  0  0  0
 43 42  2  0  0  0  0
 43 34  1  0  0  0  0
M  END
>  <MODEL>
2

>  <REMARK>
 VINA RESULT:      -7.8      3.323      9.539
  Name = 
  8 active torsions:
  status: ('A' for Active; 'I' for Inactive)
    1  A    between atoms: C_9  and  C_11
    2  A    between atoms: C_9  and  C_16
    3  A    between atoms: C_16  and  C_18
    4  A    between atoms: C_18  and  C_35
    5  A    between atoms: C_22  and  C_40
    6  A    between atoms: C_24  and  C_26
    7  A    between atoms: C_25  and  O_43
    8  A    between atoms: C_27  and  C_39
                            x       y       z     vdW  Elec       q    Type
                         _______ _______ _______ _____ _____    ______ ____

>  <TORSDO>
F 8

$$$$
=
 OpenBabel11062418473D

 43 49  0  0  1  0  0  0  0  0999 V2000
  190.5160  175.0380  142.3460 C   0  0  0  0  0  2  0  0  0  0  0  0
  190.2880  173.5260  144.2550 C   0  0  0  0  0  2  0  0  0  0  0  0
  192.3390  174.8360  144.8810 C   0  0  0  0  0  0  0  0  0  0  0  0
  188.5770  174.8460  143.5100 O   0  0  0  0  0  1  0  0  0  0  0  0
  194.6900  174.5590  143.9350 C   0  0  2  0  0  3  0  0  0  0  0  0
  191.6440  174.3540  141.8800 O   0  0  0  0  0  0  0  0  0  0  0  0
  191.8230  175.7950  146.8910 C   0  0  0  0  0  3  0  0  0  0  0  0
  194.1320  176.3050  146.1100 C   0  0  0  0  0  2  0  0  0  0  0  0
  192.7910  175.6570  145.9990 C   0  0  0  0  0  0  0  0  0  0  0  0
  189.6380  174.1260  143.0780 N   0  0  0  0  0  0  0  0  0  0  0  0
  190.6110  175.0440  146.4210 C   0  0  2  0  0  3  0  0  0  0  0  0
  192.7350  175.0360  142.4270 C   0  0  0  0  0  2  0  0  0  0  0  0
  195.0660  174.1230  145.2770 N   0  0  0  0  0  2  0  0  0  0  0  0
  191.0740  174.4990  145.1010 C   0  0  0  0  0  0  0  0  0  0  0  0
  195.2840  175.2880  146.1380 C   0  0  0  0  0  2  0  0  0  0  0  0
  193.1840  174.3560  143.7180 C   0  0  2  0  0  3  0  0  0  0  0  0
  187.1820  177.5910  146.0340 C   0  0  0  0  0  0  0  0  0  0  0  0
  187.1630  176.4760  146.8170 N   0  0  0  0  0  0  0  0  0  0  0  0
  188.2480  175.6670  146.9480 C   0  0  0  0  0  3  0  0  0  0  0  0
  189.4790  177.0990  145.4540 C   0  0  0  0  0  3  0  0  0  0  0  0
  188.3560  177.9140  145.3310 C   0  0  0  0  0  3  0  0  0  0  0  0
  189.4320  175.9610  146.2700 C   0  0  0  0  0  0  0  0  0  0  0  0
  184.6970  177.5480  146.2570 C   0  0  1  0  0  3  0  0  0  0  0  0
  185.3930  177.0150  143.9480 O   0  0  0  0  0  1  0  0  0  0  0  0
  185.1750  178.5880  147.2530 C   0  0  0  0  0  2  0  0  0  0  0  0
  184.9630  178.0020  144.8410 C   0  0  2  0  0  0  0  0  0  0  0  0
  185.9200  178.4220  145.9410 C   0  0  1  0  0  0  0  0  0  0  0  0
  183.7980  178.6260  143.1290 O   0  0  0  0  0  1  0  0  0  0  0  0
  184.1330  179.0140  144.3430 O   0  0  0  0  0  0  0  0  0  0  0  0
  195.4770  173.7610  142.9040 C   0  0  0  0  0  2  0  0  0  0  0  0
  195.2340  172.2650  143.0690 C   0  0  2  0  0  3  0  0  0  0  0  0
  196.5340  171.4980  143.2650 C   0  0  0  0  0  1  0  0  0  0  0  0
  194.4060  171.7010  141.9380 C   0  0  0  0  0  0  0  0  0  0  0  0
  193.3140  170.9450  142.1530 C   0  0  0  0  0  3  0  0  0  0  0  0
  196.0580  172.7980  136.5330 C   0  0  0  0  0  1  0  0  0  0  0  0
  194.4330  173.0730  138.4050 C   0  0  0  0  0  3  0  0  0  0  0  0
  196.0130  171.4600  140.0120 C   0  0  0  0  0  3  0  0  0  0  0  0
  195.6220  172.5230  137.9260 C   0  0  0  0  0  0  0  0  0  0  0  0
  196.3810  171.7330  138.7320 N   0  0  0  0  0  0  0  0  0  0  0  0
  194.8250  171.9890  140.5430 C   0  0  0  0  0  0  0  0  0  0  0  0
  194.0380  172.8020  139.7160 C   0  0  0  0  0  3  0  0  0  0  0  0
  193.0670  169.3890  143.9850 C   0  0  0  0  0  2  0  0  0  0  0  0
  192.8080  170.5850  143.4800 C   0  0  0  0  0  3  0  0  0  0  0  0
  1 10  1  0  0  0  0
  2 14  1  0  0  0  0
  3 14  2  0  0  0  0
  3  9  1  0  0  0  0
  5 30  1  6  0  0  0
  5 13  1  0  0  0  0
  6  1  1  0  0  0  0
  6 12  1  0  0  0  0
  8 15  1  0  0  0  0
  9  8  1  0  0  0  0
  9  7  2  0  0  0  0
 10  4  1  0  0  0  0
 10  2  1  0  0  0  0
 11 22  1  6  0  0  0
 11  7  1  0  0  0  0
 13 15  1  0  0  0  0
 14 11  1  0  0  0  0
 16 12  1  6  0  0  0
 16  5  1  0  0  0  0
 16  3  1  0  0  0  0
 17 18  1  0  0  0  0
 18 19  2  0  0  0  0
 20 22  2  0  0  0  0
 21 20  1  0  0  0  0
 21 17  2  0  0  0  0
 22 19  1  0  0  0  0
 23 25  1  1  0  0  0
 26 24  1  6  0  0  0
 26 27  1  0  0  0  0
 26 23  1  0  0  0  0
 27 17  1  1  0  0  0
 27 23  1  0  0  0  0
 27 25  1  0  0  0  0
 28 29  1  0  0  0  0
 29 26  1  0  0  0  0
 30 31  1  0  0  0  0
 31 32  1  6  0  0  0
 33 34  2  0  0  0  0
 33 31  1  0  0  0  0
 34 43  1  0  0  0  0
 35 38  1  0  0  0  0
 36 41  1  0  0  0  0
 37 40  1  0  0  0  0
 38 36  2  0  0  0  0
 38 39  1  0  0  0  0
 39 37  2  0  0  0  0
 40 33  1  0  0  0  0
 41 40  2  0  0  0  0
 43 42  2  0  0  0  0
M  END
>  <MODEL>
3

>  <REMARK>
 VINA RESULT:      -7.6      1.730      2.258
  Name = 
  8 active torsions:
  status: ('A' for Active; 'I' for Inactive)
    1  A    between atoms: C_9  and  C_11
    2  A    between atoms: C_9  and  C_16
    3  A    between atoms: C_16  and  C_18
    4  A    between atoms: C_18  and  C_35
    5  A    between atoms: C_22  and  C_40
    6  A    between atoms: C_24  and  C_26
    7  A    between atoms: C_25  and  O_43
    8  A    between atoms: C_27  and  C_39
                            x       y       z     vdW  Elec       q    Type
                         _______ _______ _______ _____ _____    ______ ____

>  <TORSDO>
F 8

$$$$
=
 OpenBabel11062418473D

 43 49  0  0  1  0  0  0  0  0999 V2000
  190.7030  175.1300  145.3570 C   0  0  0  0  0  2  0  0  0  0  0  0
  191.3580  176.2850  143.3020 C   0  0  0  0  0  2  0  0  0  0  0  0
  190.7290  174.0120  142.4350 C   0  0  0  0  0  0  0  0  0  0  0  0
  189.8250  177.1380  144.7680 O   0  0  0  0  0  1  0  0  0  0  0  0
  192.0980  171.8680  142.6030 C   0  0  2  0  0  3  0  0  0  0  0  0
  191.8500  174.3290  145.3270 O   0  0  0  0  0  0  0  0  0  0  0  0
  189.0720  174.4120  140.9120 C   0  0  0  0  0  3  0  0  0  0  0  0
  189.6800  172.0050  141.1100 C   0  0  0  0  0  2  0  0  0  0  0  0
  189.8140  173.4550  141.4450 C   0  0  0  0  0  0  0  0  0  0  0  0
  190.9690  176.4170  144.7170 N   0  0  0  0  0  0  0  0  0  0  0  0
  189.4550  175.7280  141.5230 C   0  0  2  0  0  3  0  0  0  0  0  0
  191.4620  173.1620  144.6620 C   0  0  0  0  0  2  0  0  0  0  0  0
  192.1940  171.9400  141.1470 N   0  0  0  0  0  2  0  0  0  0  0  0
  190.5120  175.3200  142.5080 C   0  0  0  0  0  0  0  0  0  0  0  0
  190.9730  171.4040  140.5390 C   0  0  0  0  0  2  0  0  0  0  0  0
  191.8150  173.2610  143.1800 C   0  0  2  0  0  3  0  0  0  0  0  0
  186.0550  177.4780  143.4670 C   0  0  0  0  0  0  0  0  0  0  0  0
  186.3680  176.1610  143.6160 N   0  0  0  0  0  0  0  0  0  0  0  0
  187.4460  175.5990  143.0070 C   0  0  0  0  0  3  0  0  0  0  0  0
  187.9790  177.7310  142.0200 C   0  0  0  0  0  3  0  0  0  0  0  0
  186.8670  178.2860  142.6520 C   0  0  0  0  0  3  0  0  0  0  0  0
  188.2780  176.3740  142.1960 C   0  0  0  0  0  0  0  0  0  0  0  0
  184.9430  179.5290  144.3500 C   0  0  1  0  0  3  0  0  0  0  0  0
  186.3860  178.4890  146.0650 O   0  0  0  0  0  1  0  0  0  0  0  0
  183.9720  178.9440  143.3420 C   0  0  0  0  0  2  0  0  0  0  0  0
  185.0940  178.6130  145.5410 C   0  0  2  0  0  0  0  0  0  0  0  0
  184.8260  178.0070  144.1750 C   0  0  1  0  0  0  0  0  0  0  0  0
  184.5680  178.4980  147.6350 O   0  0  0  0  0  1  0  0  0  0  0  0
  184.0210  178.5740  146.4390 O   0  0  0  0  0  0  0  0  0  0  0  0
  193.4020  171.3230  143.1700 C   0  0  0  0  0  2  0  0  0  0  0  0
  194.5200  172.3550  143.0600 C   0  0  2  0  0  3  0  0  0  0  0  0
  195.5420  171.9700  142.0000 C   0  0  0  0  0  1  0  0  0  0  0  0
  195.1630  172.6330  144.3980 C   0  0  0  0  0  0  0  0  0  0  0  0
  195.3620  173.8820  144.8550 C   0  0  0  0  0  3  0  0  0  0  0  0
  196.8750  168.1670  147.6040 C   0  0  0  0  0  1  0  0  0  0  0  0
  195.0670  169.6480  146.7320 C   0  0  0  0  0  3  0  0  0  0  0  0
  196.9480  171.1050  145.3100 C   0  0  0  0  0  3  0  0  0  0  0  0
  196.4210  169.3170  146.7800 C   0  0  0  0  0  0  0  0  0  0  0  0
  197.3270  170.0460  146.0750 N   0  0  0  0  0  0  0  0  0  0  0  0
  195.5970  171.4800  145.2270 C   0  0  0  0  0  0  0  0  0  0  0  0
  194.6590  170.7320  145.9530 C   0  0  0  0  0  3  0  0  0  0  0  0
  194.7650  176.2220  144.7860 C   0  0  0  0  0  2  0  0  0  0  0  0
  194.9890  175.0970  144.1270 C   0  0  0  0  0  3  0  0  0  0  0  0
  2 10  1  0  0  0  0
  3 14  2  0  0  0  0
  3 16  1  0  0  0  0
  5 30  1  1  0  0  0
  5 16  1  0  0  0  0
  6  1  1  0  0  0  0
  7  9  2  0  0  0  0
  7 11  1  0  0  0  0
  8  9  1  0  0  0  0
  9  3  1  0  0  0  0
 10  4  1  0  0  0  0
 10  1  1  0  0  0  0
 11 22  1  1  0  0  0
 11 14  1  0  0  0  0
 12  6  1  0  0  0  0
 13  5  1  0  0  0  0
 14  2  1  0  0  0  0
 15  8  1  0  0  0  0
 15 13  1  0  0  0  0
 16 12  1  1  0  0  0
 17 18  1  0  0  0  0
 19 18  2  0  0  0  0
 20 22  2  0  0  0  0
 20 21  1  0  0  0  0
 21 17  2  0  0  0  0
 22 19  1  0  0  0  0
 23 25  1  1  0  0  0
 23 26  1  0  0  0  0
 25 27  1  0  0  0  0
 26 24  1  1  0  0  0
 26 29  1  0  0  0  0
 27 17  1  6  0  0  0
 27 23  1  0  0  0  0
 27 26  1  0  0  0  0
 29 28  1  0  0  0  0
 31 32  1  6  0  0  0
 31 30  1  0  0  0  0
 31 33  1  0  0  0  0
 33 34  2  0  0  0  0
 33 40  1  0  0  0  0
 36 38  1  0  0  0  0
 37 39  1  0  0  0  0
 38 35  1  0  0  0  0
 39 38  2  0  0  0  0
 40 37  2  0  0  0  0
 40 41  1  0  0  0  0
 41 36  2  0  0  0  0
 43 42  2  0  0  0  0
 43 34  1  0  0  0  0
M  END
>  <MODEL>
4

>  <REMARK>
 VINA RESULT:      -7.5      2.161      4.463
  Name = 
  8 active torsions:
  status: ('A' for Active; 'I' for Inactive)
    1  A    between atoms: C_9  and  C_11
    2  A    between atoms: C_9  and  C_16
    3  A    between atoms: C_16  and  C_18
    4  A    between atoms: C_18  and  C_35
    5  A    between atoms: C_22  and  C_40
    6  A    between atoms: C_24  and  C_26
    7  A    between atoms: C_25  and  O_43
    8  A    between atoms: C_27  and  C_39
                            x       y       z     vdW  Elec       q    Type
                         _______ _______ _______ _____ _____    ______ ____

>  <TORSDO>
F 8

$$$$
=
 OpenBabel11062418473D

 43 49  0  0  1  0  0  0  0  0999 V2000
  190.5800  174.8720  142.3110 C   0  0  0  0  0  2  0  0  0  0  0  0
  190.4940  173.3470  144.2210 C   0  0  0  0  0  2  0  0  0  0  0  0
  192.5630  174.6820  144.7240 C   0  0  0  0  0  0  0  0  0  0  0  0
  188.7220  174.6470  143.5940 O   0  0  0  0  0  1  0  0  0  0  0  0
  194.8520  174.4430  143.6280 C   0  0  2  0  0  3  0  0  0  0  0  0
  191.6850  174.2060  141.7700 O   0  0  0  0  0  0  0  0  0  0  0  0
  192.1620  175.6240  146.7680 C   0  0  0  0  0  3  0  0  0  0  0  0
  194.4090  176.1700  145.8460 C   0  0  0  0  0  2  0  0  0  0  0  0
  193.0730  175.5030  145.8150 C   0  0  0  0  0  0  0  0  0  0  0  0
  189.7630  173.9440  143.0910 N   0  0  0  0  0  0  0  0  0  0  0  0
  190.9340  174.8590  146.3710 C   0  0  2  0  0  3  0  0  0  0  0  0
  192.7990  174.9000  142.2510 C   0  0  0  0  0  2  0  0  0  0  0  0
  195.3180  174.0050  144.9420 N   0  0  0  0  0  2  0  0  0  0  0  0
  191.3190  174.3260  145.0210 C   0  0  0  0  0  0  0  0  0  0  0  0
  195.5750  175.1690  145.7940 C   0  0  0  0  0  2  0  0  0  0  0  0
  193.3380  174.2200  143.5060 C   0  0  2  0  0  3  0  0  0  0  0  0
  187.4510  177.3580  146.2150 C   0  0  0  0  0  0  0  0  0  0  0  0
  187.4850  176.2200  146.9630 N   0  0  0  0  0  0  0  0  0  0  0  0
  188.5870  175.4250  147.0220 C   0  0  0  0  0  3  0  0  0  0  0  0
  189.7280  176.9220  145.5190 C   0  0  0  0  0  3  0  0  0  0  0  0
  188.5870  177.7220  145.4710 C   0  0  0  0  0  3  0  0  0  0  0  0
  189.7350  175.7600  146.3010 C   0  0  0  0  0  0  0  0  0  0  0  0
  184.9730  177.2560  146.4850 C   0  0  1  0  0  3  0  0  0  0  0  0
  185.6280  176.8880  144.1320 O   0  0  0  0  0  1  0  0  0  0  0  0
  185.4550  178.2360  147.5390 C   0  0  0  0  0  2  0  0  0  0  0  0
  185.2000  177.8060  145.0980 C   0  0  2  0  0  0  0  0  0  0  0  0
  186.1740  178.1710  146.2040 C   0  0  1  0  0  0  0  0  0  0  0  0
  184.8240  179.2490  143.5320 O   0  0  0  0  0  1  0  0  0  0  0  0
  184.3430  178.8330  144.6860 O   0  0  0  0  0  0  0  0  0  0  0  0
  195.5840  173.6610  142.5450 C   0  0  0  0  0  2  0  0  0  0  0  0
  196.4380  172.5540  143.1530 C   0  0  2  0  0  3  0  0  0  0  0  0
  197.7470  172.3700  142.3970 C   0  0  0  0  0  1  0  0  0  0  0  0
  195.6710  171.2590  143.2860 C   0  0  0  0  0  0  0  0  0  0  0  0
  194.8600  170.8000  142.3160 C   0  0  0  0  0  3  0  0  0  0  0  0
  196.2650  168.2330  148.1490 C   0  0  0  0  0  1  0  0  0  0  0  0
  194.8210  169.2560  146.3890 C   0  0  0  0  0  3  0  0  0  0  0  0
  197.0790  170.2060  145.0910 C   0  0  0  0  0  3  0  0  0  0  0  0
  196.0990  169.0130  146.8950 C   0  0  0  0  0  0  0  0  0  0  0  0
  197.1920  169.4890  146.2410 N   0  0  0  0  0  0  0  0  0  0  0  0
  195.8160  170.4780  144.5410 C   0  0  0  0  0  0  0  0  0  0  0  0
  194.6850  169.9900  145.2110 C   0  0  0  0  0  3  0  0  0  0  0  0
  194.9220  170.8800  139.9020 C   0  0  0  0  0  2  0  0  0  0  0  0
  194.6270  171.4840  141.0420 C   0  0  0  0  0  3  0  0  0  0  0  0
  1 10  1  0  0  0  0
  2 14  1  0  0  0  0
  3 14  2  0  0  0  0
  3  9  1  0  0  0  0
  5 30  1  6  0  0  0
  5 13  1  0  0  0  0
  6 12  1  0  0  0  0
  6  1  1  0  0  0  0
  9  8  1  0  0  0  0
  9  7  2  0  0  0  0
 10  4  1  0  0  0  0
 10  2  1  0  0  0  0
 11 22  1  6  0  0  0
 11  7  1  0  0  0  0
 13 15  1  0  0  0  0
 14 11  1  0  0  0  0
 15  8  1  0  0  0  0
 16 12  1  6  0  0  0
 16  5  1  0  0  0  0
 16  3  1  0  0  0  0
 17 18  1  0  0  0  0
 18 19  2  0  0  0  0
 20 22  2  0  0  0  0
 21 20  1  0  0  0  0
 21 17  2  0  0  0  0
 22 19  1  0  0  0  0
 23 25  1  1  0  0  0
 26 24  1  6  0  0  0
 26 27  1  0  0  0  0
 26 23  1  0  0  0  0
 27 17  1  6  0  0  0
 27 23  1  0  0  0  0
 27 25  1  0  0  0  0
 28 29  1  0  0  0  0
 29 26  1  0  0  0  0
 30 31  1  0  0  0  0
 31 32  1  6  0  0  0
 31 33  1  0  0  0  0
 33 40  1  0  0  0  0
 34 33  2  0  0  0  0
 36 38  1  0  0  0  0
 37 39  1  0  0  0  0
 38 35  1  0  0  0  0
 39 38  2  0  0  0  0
 40 37  2  0  0  0  0
 40 41  1  0  0  0  0
 41 36  2  0  0  0  0
 42 43  2  0  0  0  0
 43 34  1  0  0  0  0
M  END
>  <MODEL>
5

>  <REMARK>
 VINA RESULT:      -7.5      1.432      2.829
  Name = 
  8 active torsions:
  status: ('A' for Active; 'I' for Inactive)
    1  A    between atoms: C_9  and  C_11
    2  A    between atoms: C_9  and  C_16
    3  A    between atoms: C_16  and  C_18
    4  A    between atoms: C_18  and  C_35
    5  A    between atoms: C_22  and  C_40
    6  A    between atoms: C_24  and  C_26
    7  A    between atoms: C_25  and  O_43
    8  A    between atoms: C_27  and  C_39
                            x       y       z     vdW  Elec       q    Type
                         _______ _______ _______ _____ _____    ______ ____

>  <TORSDO>
F 8

$$$$
=
 OpenBabel11062418473D

 43 49  0  0  1  0  0  0  0  0999 V2000
  191.9260  174.2950  142.4800 C   0  0  0  0  0  2  0  0  0  0  0  0
  193.5240  175.9850  143.2400 C   0  0  0  0  0  2  0  0  0  0  0  0
  191.8640  175.9630  145.1270 C   0  0  0  0  0  0  0  0  0  0  0  0
  194.1570  173.8890  142.5820 O   0  0  0  0  0  1  0  0  0  0  0  0
  189.5410  177.0120  145.1450 C   0  0  2  0  0  3  0  0  0  0  0  0
  190.9500  175.2650  142.2290 O   0  0  0  0  0  0  0  0  0  0  0  0
  193.1000  175.4430  146.9780 C   0  0  0  0  0  3  0  0  0  0  0  0
  190.6930  175.8480  147.4720 C   0  0  0  0  0  2  0  0  0  0  0  0
  191.8820  175.7640  146.5710 C   0  0  0  0  0  0  0  0  0  0  0  0
  193.2610  174.8680  142.3160 N   0  0  0  0  0  0  0  0  0  0  0  0
  194.0210  175.4100  145.7940 C   0  0  2  0  0  3  0  0  0  0  0  0
  190.1850  175.3230  143.3970 C   0  0  0  0  0  2  0  0  0  0  0  0
  190.0690  177.9090  146.1710 N   0  0  0  0  0  2  0  0  0  0  0  0
  193.0880  175.7350  144.6630 C   0  0  0  0  0  0  0  0  0  0  0  0
  190.0480  177.2430  147.4750 C   0  0  0  0  0  2  0  0  0  0  0  0
  190.6900  176.4460  144.2990 C   0  0  2  0  0  3  0  0  0  0  0  0
  195.7190  171.4960  145.3560 C   0  0  0  0  0  0  0  0  0  0  0  0
  194.3730  171.7020  145.3240 N   0  0  0  0  0  0  0  0  0  0  0  0
  193.8270  172.9400  145.4570 C   0  0  0  0  0  3  0  0  0  0  0  0
  196.0360  173.8740  145.6760 C   0  0  0  0  0  3  0  0  0  0  0  0
  196.5760  172.5960  145.5400 C   0  0  0  0  0  3  0  0  0  0  0  0
  194.6480  174.0560  145.6350 C   0  0  0  0  0  0  0  0  0  0  0  0
  197.7270  170.1000  144.8650 C   0  0  1  0  0  3  0  0  0  0  0  0
  196.4960  170.6490  142.7950 O   0  0  0  0  0  1  0  0  0  0  0  0
  197.2650  169.6730  146.2450 C   0  0  0  0  0  2  0  0  0  0  0  0
  196.7100  169.7170  143.8170 C   0  0  2  0  0  0  0  0  0  0  0  0
  196.2310  170.0790  145.2110 C   0  0  1  0  0  0  0  0  0  0  0  0
  195.9740  168.3120  142.3470 O   0  0  0  0  0  1  0  0  0  0  0  0
  196.6340  168.3590  143.4870 O   0  0  0  0  0  0  0  0  0  0  0  0
  188.5670  177.7760  144.2580 C   0  0  0  0  0  2  0  0  0  0  0  0
  187.1500  177.7080  144.8160 C   0  0  2  0  0  3  0  0  0  0  0  0
  186.8140  176.3200  145.3410 C   0  0  0  0  0  1  0  0  0  0  0  0
  186.1280  178.2020  143.8180 C   0  0  0  0  0  0  0  0  0  0  0  0
  185.0890  178.9780  144.1770 C   0  0  0  0  0  3  0  0  0  0  0  0
  186.6860  176.6730  138.2950 C   0  0  0  0  0  1  0  0  0  0  0  0
  187.4200  176.5240  140.6750 C   0  0  0  0  0  3  0  0  0  0  0  0
  185.4300  178.3120  141.4000 C   0  0  0  0  0  3  0  0  0  0  0  0
  186.5520  177.0600  139.7230 C   0  0  0  0  0  0  0  0  0  0  0  0
  185.5840  177.9360  140.1020 N   0  0  0  0  0  0  0  0  0  0  0  0
  186.2780  177.8020  142.3960 C   0  0  0  0  0  0  0  0  0  0  0  0
  187.2800  176.8990  142.0120 C   0  0  0  0  0  3  0  0  0  0  0  0
  184.1460  178.6570  146.3770 C   0  0  0  0  0  2  0  0  0  0  0  0
  184.8290  179.4280  145.5460 C   0  0  0  0  0  3  0  0  0  0  0  0
  2 14  1  0  0  0  0
  3  9  1  0  0  0  0
  5 30  1  6  0  0  0
  5 13  1  0  0  0  0
  6  1  1  0  0  0  0
  6 12  1  0  0  0  0
  8 15  1  0  0  0  0
  9  7  2  0  0  0  0
  9  8  1  0  0  0  0
 10  1  1  0  0  0  0
 10  4  1  0  0  0  0
 10  2  1  0  0  0  0
 11 22  1  6  0  0  0
 11  7  1  0  0  0  0
 13 15  1  0  0  0  0
 14  3  2  0  0  0  0
 14 11  1  0  0  0  0
 16 12  1  1  0  0  0
 16  3  1  0  0  0  0
 16  5  1  0  0  0  0
 17 21  1  0  0  0  0
 18 17  2  0  0  0  0
 18 19  1  0  0  0  0
 19 22  2  0  0  0  0
 21 20  2  0  0  0  0
 22 20  1  0  0  0  0
 23 27  1  0  0  0  0
 23 25  1  1  0  0  0
 26 24  1  6  0  0  0
 26 23  1  0  0  0  0
 26 27  1  0  0  0  0
 27 17  1  1  0  0  0
 27 25  1  0  0  0  0
 28 29  1  0  0  0  0
 29 26  1  0  0  0  0
 30 31  1  0  0  0  0
 31 32  1  6  0  0  0
 33 34  2  0  0  0  0
 33 31  1  0  0  0  0
 34 43  1  0  0  0  0
 35 38  1  0  0  0  0
 36 41  1  0  0  0  0
 37 40  1  0  0  0  0
 38 39  1  0  0  0  0
 38 36  2  0  0  0  0
 39 37  2  0  0  0  0
 40 33  1  0  0  0  0
 41 40  2  0  0  0  0
 43 42  2  0  0  0  0
M  END
>  <MODEL>
6

>  <REMARK>
 VINA RESULT:      -7.4      2.980      9.605
  Name = 
  8 active torsions:
  status: ('A' for Active; 'I' for Inactive)
    1  A    between atoms: C_9  and  C_11
    2  A    between atoms: C_9  and  C_16
    3  A    between atoms: C_16  and  C_18
    4  A    between atoms: C_18  and  C_35
    5  A    between atoms: C_22  and  C_40
    6  A    between atoms: C_24  and  C_26
    7  A    between atoms: C_25  and  O_43
    8  A    between atoms: C_27  and  C_39
                            x       y       z     vdW  Elec       q    Type
                         _______ _______ _______ _____ _____    ______ ____

>  <TORSDO>
F 8

$$$$
=
 OpenBabel11062418473D

 43 49  0  0  1  0  0  0  0  0999 V2000
  189.8530  174.3890  142.0950 C   0  0  0  0  0  2  0  0  0  0  0  0
  190.2470  173.2370  144.2170 C   0  0  0  0  0  2  0  0  0  0  0  0
  192.2340  174.7710  144.0890 C   0  0  0  0  0  0  0  0  0  0  0  0
  188.2760  174.2860  143.7250 O   0  0  0  0  0  1  0  0  0  0  0  0
  194.3100  174.4810  142.6380 C   0  0  2  0  0  3  0  0  0  0  0  0
  190.9050  173.7070  141.4760 O   0  0  0  0  0  0  0  0  0  0  0  0
  192.1060  176.0430  145.9830 C   0  0  0  0  0  3  0  0  0  0  0  0
  194.0960  176.5530  144.5760 C   0  0  0  0  0  2  0  0  0  0  0  0
  192.8450  175.8080  144.9110 C   0  0  0  0  0  0  0  0  0  0  0  0
  189.2770  173.5700  143.1610 N   0  0  0  0  0  0  0  0  0  0  0  0
  190.9070  175.1420  145.9600 C   0  0  2  0  0  3  0  0  0  0  0  0
  192.0140  174.5470  141.6150 C   0  0  0  0  0  2  0  0  0  0  0  0
  195.0370  174.3210  143.8950 N   0  0  0  0  0  2  0  0  0  0  0  0
  191.1000  174.3970  144.6710 C   0  0  0  0  0  0  0  0  0  0  0  0
  195.3250  175.6360  144.4760 C   0  0  0  0  0  2  0  0  0  0  0  0
  192.8270  174.1440  142.8430 C   0  0  2  0  0  3  0  0  0  0  0  0
  187.3160  177.4870  145.9170 C   0  0  0  0  0  0  0  0  0  0  0  0
  188.3450  177.7350  145.0600 N   0  0  0  0  0  0  0  0  0  0  0  0
  189.4850  176.9930  145.0640 C   0  0  0  0  0  3  0  0  0  0  0  0
  188.5930  175.6610  146.8610 C   0  0  0  0  0  3  0  0  0  0  0  0
  187.4340  176.4350  146.8420 C   0  0  0  0  0  3  0  0  0  0  0  0
  189.6330  175.9370  145.9660 C   0  0  0  0  0  0  0  0  0  0  0  0
  184.8390  177.5660  146.2050 C   0  0  1  0  0  3  0  0  0  0  0  0
  185.4470  176.9660  143.8880 O   0  0  0  0  0  1  0  0  0  0  0  0
  185.3920  178.5960  147.1720 C   0  0  0  0  0  2  0  0  0  0  0  0
  185.0870  177.9850  144.7760 C   0  0  2  0  0  0  0  0  0  0  0  0
  186.0930  178.3760  145.8440 C   0  0  1  0  0  0  0  0  0  0  0  0
  183.8640  178.6160  143.1090 O   0  0  0  0  0  1  0  0  0  0  0  0
  184.2930  179.0280  144.2840 O   0  0  0  0  0  0  0  0  0  0  0  0
  194.9130  173.5620  141.5840 C   0  0  0  0  0  2  0  0  0  0  0  0
  195.5580  174.3670  140.4610 C   0  0  2  0  0  3  0  0  0  0  0  0
  195.2050  175.8450  140.5480 C   0  0  0  0  0  1  0  0  0  0  0  0
  195.2450  173.7870  139.1010 C   0  0  0  0  0  0  0  0  0  0  0  0
  196.1720  173.6850  138.1310 C   0  0  0  0  0  3  0  0  0  0  0  0
  189.8680  172.0190  138.0460 C   0  0  0  0  0  1  0  0  0  0  0  0
  192.1630  171.5880  138.9240 C   0  0  0  0  0  3  0  0  0  0  0  0
  192.9110  174.1650  138.2300 C   0  0  0  0  0  3  0  0  0  0  0  0
  191.2580  172.4630  138.3230 C   0  0  0  0  0  0  0  0  0  0  0  0
  191.6470  173.7230  137.9900 N   0  0  0  0  0  0  0  0  0  0  0  0
  193.8600  173.3240  138.8320 C   0  0  0  0  0  0  0  0  0  0  0  0
  193.4640  172.0230  139.1770 C   0  0  0  0  0  3  0  0  0  0  0  0
  197.9410  175.3000  137.8150 C   0  0  0  0  0  2  0  0  0  0  0  0
  197.5640  174.1160  138.2720 C   0  0  0  0  0  3  0  0  0  0  0  0
  1 10  1  0  0  0  0
  2 14  1  0  0  0  0
  3 14  2  0  0  0  0
  3  9  1  0  0  0  0
  5 30  1  6  0  0  0
  5 16  1  0  0  0  0
  5 13  1  0  0  0  0
  6 12  1  0  0  0  0
  6  1  1  0  0  0  0
  8  9  1  0  0  0  0
  9  7  2  0  0  0  0
 10  4  1  0  0  0  0
 10  2  1  0  0  0  0
 11 22  1  6  0  0  0
 11  7  1  0  0  0  0
 13 15  1  0  0  0  0
 14 11  1  0  0  0  0
 15  8  1  0  0  0  0
 16 12  1  6  0  0  0
 16  3  1  0  0  0  0
 17 21  1  0  0  0  0
 18 19  1  0  0  0  0
 18 17  2  0  0  0  0
 19 22  2  0  0  0  0
 21 20  2  0  0  0  0
 22 20  1  0  0  0  0
 23 25  1  1  0  0  0
 26 24  1  6  0  0  0
 26 27  1  0  0  0  0
 26 23  1  0  0  0  0
 27 17  1  1  0  0  0
 27 23  1  0  0  0  0
 27 25  1  0  0  0  0
 28 29  1  0  0  0  0
 29 26  1  0  0  0  0
 31 32  1  6  0  0  0
 31 30  1  0  0  0  0
 33 31  1  0  0  0  0
 34 43  1  0  0  0  0
 34 33  2  0  0  0  0
 35 38  1  0  0  0  0
 36 41  1  0  0  0  0
 37 40  1  0  0  0  0
 38 36  2  0  0  0  0
 39 37  2  0  0  0  0
 39 38  1  0  0  0  0
 40 33  1  0  0  0  0
 40 41  2  0  0  0  0
 42 43  2  0  0  0  0
M  END
>  <MODEL>
7

>  <REMARK>
 VINA RESULT:      -7.4      2.474      3.552
  Name = 
  8 active torsions:
  status: ('A' for Active; 'I' for Inactive)
    1  A    between atoms: C_9  and  C_11
    2  A    between atoms: C_9  and  C_16
    3  A    between atoms: C_16  and  C_18
    4  A    between atoms: C_18  and  C_35
    5  A    between atoms: C_22  and  C_40
    6  A    between atoms: C_24  and  C_26
    7  A    between atoms: C_25  and  O_43
    8  A    between atoms: C_27  and  C_39
                            x       y       z     vdW  Elec       q    Type
                         _______ _______ _______ _____ _____    ______ ____

>  <TORSDO>
F 8

$$$$
=
 OpenBabel11062418473D

 43 49  0  0  1  0  0  0  0  0999 V2000
  190.1920  174.6940  142.1170 C   0  0  0  0  0  2  0  0  0  0  0  0
  190.1500  173.3100  144.1340 C   0  0  0  0  0  2  0  0  0  0  0  0
  192.2820  174.6050  144.4430 C   0  0  0  0  0  0  0  0  0  0  0  0
  188.3920  174.6250  143.4970 O   0  0  0  0  0  1  0  0  0  0  0  0
  194.5070  174.2100  143.2630 C   0  0  2  0  0  3  0  0  0  0  0  0
  191.2470  173.9530  141.5750 O   0  0  0  0  0  0  0  0  0  0  0  0
  192.0110  175.7000  146.4310 C   0  0  0  0  0  3  0  0  0  0  0  0
  194.2270  176.1020  145.3690 C   0  0  0  0  0  2  0  0  0  0  0  0
  192.8710  175.4820  145.4490 C   0  0  0  0  0  0  0  0  0  0  0  0
  189.3850  173.8520  142.9990 N   0  0  0  0  0  0  0  0  0  0  0  0
  190.7410  174.9530  146.1470 C   0  0  2  0  0  3  0  0  0  0  0  0
  192.4050  174.6400  141.9530 C   0  0  0  0  0  2  0  0  0  0  0  0
  195.0230  173.8490  144.5820 N   0  0  0  0  0  2  0  0  0  0  0  0
  191.0430  174.3140  144.8220 C   0  0  0  0  0  0  0  0  0  0  0  0
  195.3560  175.0600  145.3360 C   0  0  0  0  0  2  0  0  0  0  0  0
  192.9830  174.0310  143.2280 C   0  0  2  0  0  3  0  0  0  0  0  0
  187.3360  177.5540  145.9720 C   0  0  0  0  0  0  0  0  0  0  0  0
  187.3670  176.4680  146.7920 N   0  0  0  0  0  0  0  0  0  0  0  0
  188.4440  175.6400  146.8570 C   0  0  0  0  0  3  0  0  0  0  0  0
  189.5650  176.9970  145.2120 C   0  0  0  0  0  3  0  0  0  0  0  0
  188.4490  177.8310  145.1590 C   0  0  0  0  0  3  0  0  0  0  0  0
  189.5700  175.8880  146.0680 C   0  0  0  0  0  0  0  0  0  0  0  0
  184.8510  177.5260  146.1980 C   0  0  1  0  0  3  0  0  0  0  0  0
  185.5360  177.1980  143.8470 O   0  0  0  0  0  1  0  0  0  0  0  0
  185.3460  178.4620  147.2850 C   0  0  0  0  0  2  0  0  0  0  0  0
  185.1210  178.1050  144.8300 C   0  0  2  0  0  0  0  0  0  0  0  0
  186.0860  178.4080  145.9610 C   0  0  1  0  0  0  0  0  0  0  0  0
  183.7120  178.7620  143.3260 O   0  0  0  0  0  1  0  0  0  0  0  0
  184.3040  179.1690  144.4300 O   0  0  0  0  0  0  0  0  0  0  0  0
  195.1600  173.3290  142.2070 C   0  0  0  0  0  2  0  0  0  0  0  0
  196.1270  174.1330  141.3440 C   0  0  2  0  0  3  0  0  0  0  0  0
  195.8140  175.6220  141.3820 C   0  0  0  0  0  1  0  0  0  0  0  0
  196.1970  173.6020  139.9310 C   0  0  0  0  0  0  0  0  0  0  0  0
  197.0190  172.5970  139.5800 C   0  0  0  0  0  3  0  0  0  0  0  0
  192.8630  176.0290  135.9130 C   0  0  0  0  0  1  0  0  0  0  0  0
  193.1300  174.5980  137.9390 C   0  0  0  0  0  3  0  0  0  0  0  0
  195.8660  175.0370  137.8870 C   0  0  0  0  0  3  0  0  0  0  0  0
  193.7120  175.3970  136.9550 C   0  0  0  0  0  0  0  0  0  0  0  0
  195.0570  175.5980  136.9480 N   0  0  0  0  0  0  0  0  0  0  0  0
  195.3300  174.2250  138.8980 C   0  0  0  0  0  0  0  0  0  0  0  0
  193.9440  174.0130  138.9100 C   0  0  0  0  0  3  0  0  0  0  0  0
  197.6330  170.6980  140.9420 C   0  0  0  0  0  2  0  0  0  0  0  0
  197.9260  171.9120  140.5040 C   0  0  0  0  0  3  0  0  0  0  0  0
  1 10  1  0  0  0  0
  2 14  1  0  0  0  0
  3 14  2  0  0  0  0
  3  9  1  0  0  0  0
  5 30  1  6  0  0  0
  5 13  1  0  0  0  0
  6 12  1  0  0  0  0
  6  1  1  0  0  0  0
  8  9  1  0  0  0  0
  9  7  2  0  0  0  0
 10  4  1  0  0  0  0
 10  2  1  0  0  0  0
 11 22  1  6  0  0  0
 11  7  1  0  0  0  0
 13 15  1  0  0  0  0
 14 11  1  0  0  0  0
 15  8  1  0  0  0  0
 16 12  1  6  0  0  0
 16  5  1  0  0  0  0
 16  3  1  0  0  0  0
 17 18  1  0  0  0  0
 18 19  2  0  0  0  0
 20 22  2  0  0  0  0
 21 20  1  0  0  0  0
 21 17  2  0  0  0  0
 22 19  1  0  0  0  0
 23 25  1  1  0  0  0
 26 24  1  6  0  0  0
 26 27  1  0  0  0  0
 26 23  1  0  0  0  0
 27 17  1  6  0  0  0
 27 23  1  0  0  0  0
 27 25  1  0  0  0  0
 28 29  1  0  0  0  0
 29 26  1  0  0  0  0
 31 32  1  6  0  0  0
 31 30  1  0  0  0  0
 33 31  1  0  0  0  0
 34 33  2  0  0  0  0
 34 43  1  0  0  0  0
 35 38  1  0  0  0  0
 36 41  1  0  0  0  0
 37 40  1  0  0  0  0
 38 36  2  0  0  0  0
 39 38  1  0  0  0  0
 39 37  2  0  0  0  0
 40 41  2  0  0  0  0
 40 33  1  0  0  0  0
 43 42  2  0  0  0  0
M  END
>  <MODEL>
8

>  <REMARK>
 VINA RESULT:      -7.3      2.538      3.387
  Name = 
  8 active torsions:
  status: ('A' for Active; 'I' for Inactive)
    1  A    between atoms: C_9  and  C_11
    2  A    between atoms: C_9  and  C_16
    3  A    between atoms: C_16  and  C_18
    4  A    between atoms: C_18  and  C_35
    5  A    between atoms: C_22  and  C_40
    6  A    between atoms: C_24  and  C_26
    7  A    between atoms: C_25  and  O_43
    8  A    between atoms: C_27  and  C_39
                            x       y       z     vdW  Elec       q    Type
                         _______ _______ _______ _____ _____    ______ ____

>  <TORSDO>
F 8

$$$$
=
 OpenBabel11062418473D

 43 49  0  0  1  0  0  0  0  0999 V2000
  191.3490  176.3900  145.6820 C   0  0  0  0  0  2  0  0  0  0  0  0
  191.7060  176.7140  143.2840 C   0  0  0  0  0  2  0  0  0  0  0  0
  191.2320  174.2490  143.4040 C   0  0  0  0  0  0  0  0  0  0  0  0
  190.2290  177.9680  144.4970 O   0  0  0  0  0  1  0  0  0  0  0  0
  192.8160  172.4140  144.1950 C   0  0  2  0  0  3  0  0  0  0  0  0
  192.5630  175.7070  145.8180 O   0  0  0  0  0  0  0  0  0  0  0  0
  189.4180  173.9420  142.0490 C   0  0  0  0  0  3  0  0  0  0  0  0
  190.2760  171.8310  143.0540 C   0  0  0  0  0  2  0  0  0  0  0  0
  190.2950  173.3050  142.8080 C   0  0  0  0  0  0  0  0  0  0  0  0
  191.4300  177.3510  144.5830 N   0  0  0  0  0  0  0  0  0  0  0  0
  189.7200  175.4110  142.0770 C   0  0  2  0  0  3  0  0  0  0  0  0
  192.2360  174.3550  145.6850 C   0  0  0  0  0  2  0  0  0  0  0  0
  192.7780  171.9330  142.8160 N   0  0  0  0  0  2  0  0  0  0  0  0
  190.8940  175.4710  143.0110 C   0  0  0  0  0  0  0  0  0  0  0  0
  191.5680  171.1360  142.5980 C   0  0  0  0  0  2  0  0  0  0  0  0
  192.4470  173.9040  144.2420 C   0  0  2  0  0  3  0  0  0  0  0  0
  186.3440  177.5640  143.6150 C   0  0  0  0  0  0  0  0  0  0  0  0
  186.7890  176.4160  144.1970 N   0  0  0  0  0  0  0  0  0  0  0  0
  187.8610  175.7300  143.7190 C   0  0  0  0  0  3  0  0  0  0  0  0
  188.1110  177.3700  141.9730 C   0  0  0  0  0  3  0  0  0  0  0  0
  187.0080  178.0570  142.4780 C   0  0  0  0  0  3  0  0  0  0  0  0
  188.5480  176.1940  142.5940 C   0  0  0  0  0  0  0  0  0  0  0  0
  185.4400  179.7370  144.4440 C   0  0  1  0  0  3  0  0  0  0  0  0
  186.5450  178.4820  146.2610 O   0  0  0  0  0  1  0  0  0  0  0  0
  184.5050  179.3090  143.3280 C   0  0  0  0  0  2  0  0  0  0  0  0
  185.3420  178.7910  145.6170 C   0  0  2  0  0  0  0  0  0  0  0  0
  185.1350  178.2500  144.2140 C   0  0  1  0  0  0  0  0  0  0  0  0
  184.5860  178.6620  147.6380 O   0  0  0  0  0  1  0  0  0  0  0  0
  184.1880  178.8900  146.4030 O   0  0  0  0  0  0  0  0  0  0  0  0
  194.2120  172.2040  144.7660 C   0  0  0  0  0  2  0  0  0  0  0  0
  195.2620  172.2110  143.6600 C   0  0  2  0  0  3  0  0  0  0  0  0
  196.4030  171.2480  143.9560 C   0  0  0  0  0  1  0  0  0  0  0  0
  195.7580  173.6070  143.3640 C   0  0  0  0  0  0  0  0  0  0  0  0
  196.1240  174.4630  144.3360 C   0  0  0  0  0  3  0  0  0  0  0  0
  196.0750  175.2910  137.8670 C   0  0  0  0  0  1  0  0  0  0  0  0
  194.8640  175.2060  140.0460 C   0  0  0  0  0  3  0  0  0  0  0  0
  196.9360  173.7260  141.1400 C   0  0  0  0  0  3  0  0  0  0  0  0
  195.9820  174.8620  139.2860 C   0  0  0  0  0  0  0  0  0  0  0  0
  196.9870  174.1350  139.8440 N   0  0  0  0  0  0  0  0  0  0  0  0
  195.8330  174.0450  141.9470 C   0  0  0  0  0  0  0  0  0  0  0  0
  194.7930  174.7940  141.3770 C   0  0  0  0  0  3  0  0  0  0  0  0
  197.1910  173.7910  146.3970 C   0  0  0  0  0  2  0  0  0  0  0  0
  196.0840  174.1520  145.7670 C   0  0  0  0  0  3  0  0  0  0  0  0
  1  6  1  0  0  0  0
  2 10  1  0  0  0  0
  3 16  1  0  0  0  0
  4 10  1  0  0  0  0
  5 16  1  0  0  0  0
  5 30  1  6  0  0  0
  7 11  1  0  0  0  0
  7  9  2  0  0  0  0
  9  8  1  0  0  0  0
  9  3  1  0  0  0  0
 10  1  1  0  0  0  0
 11 22  1  1  0  0  0
 11 14  1  0  0  0  0
 12  6  1  0  0  0  0
 13  5  1  0  0  0  0
 14  2  1  0  0  0  0
 14  3  2  0  0  0  0
 15 13  1  0  0  0  0
 15  8  1  0  0  0  0
 16 12  1  1  0  0  0
 17 18  1  0  0  0  0
 19 18  2  0  0  0  0
 20 21  1  0  0  0  0
 20 22  2  0  0  0  0
 21 17  2  0  0  0  0
 22 19  1  0  0  0  0
 23 25  1  1  0  0  0
 23 26  1  0  0  0  0
 25 27  1  0  0  0  0
 26 24  1  1  0  0  0
 26 29  1  0  0  0  0
 27 17  1  6  0  0  0
 27 23  1  0  0  0  0
 27 26  1  0  0  0  0
 29 28  1  0  0  0  0
 31 32  1  1  0  0  0
 31 30  1  0  0  0  0
 33 31  1  0  0  0  0
 33 34  2  0  0  0  0
 34 43  1  0  0  0  0
 35 38  1  0  0  0  0
 36 41  1  0  0  0  0
 37 40  1  0  0  0  0
 38 39  1  0  0  0  0
 38 36  2  0  0  0  0
 39 37  2  0  0  0  0
 40 33  1  0  0  0  0
 41 40  2  0  0  0  0
 43 42  2  0  0  0  0
M  END
>  <MODEL>
9

>  <REMARK>
 VINA RESULT:      -7.3      2.584      4.062
  Name = 
  8 active torsions:
  status: ('A' for Active; 'I' for Inactive)
    1  A    between atoms: C_9  and  C_11
    2  A    between atoms: C_9  and  C_16
    3  A    between atoms: C_16  and  C_18
    4  A    between atoms: C_18  and  C_35
    5  A    between atoms: C_22  and  C_40
    6  A    between atoms: C_24  and  C_26
    7  A    between atoms: C_25  and  O_43
    8  A    between atoms: C_27  and  C_39
                            x       y       z     vdW  Elec       q    Type
                         _______ _______ _______ _____ _____    ______ ____

>  <TORSDO>
F 8

$$$$
