=
 OpenBabel11072409363D

 63 66  0  0  1  0  0  0  0  0999 V2000
  189.8570  171.9910  138.6470 F   0  0  0  0  0  0  0  0  0  0  0  0
  193.2850  171.0100  139.7180 C   0  0  1  0  0  3  0  0  0  0  0  0
  194.8710  173.0230  139.8010 C   0  0  2  0  0  3  0  0  0  0  0  0
  193.8560  174.8180  141.2400 C   0  0  1  0  0  3  0  0  0  0  0  0
  191.8590  175.0680  142.1760 C   0  0  0  0  0  2  0  0  0  0  0  0
  190.9470  172.1090  141.9830 C   0  0  0  0  0  2  0  0  0  0  0  0
  196.0690  171.4950  141.2520 O   0  0  0  0  0  0  0  0  0  0  0  0
  193.7540  169.7330  140.0580 O   0  0  0  0  0  1  0  0  0  0  0  0
  194.3400  171.8430  138.9790 C   0  0  1  0  0  3  0  0  0  0  0  0
  190.9110  171.8400  139.5230 C   0  0  1  0  0  3  0  0  0  0  0  0
  195.2730  174.9330  141.8320 C   0  0  1  0  0  0  0  0  0  0  0  0
  195.5870  172.6450  141.0830 C   0  0  0  0  0  0  0  0  0  0  0  0
  190.4090  171.2660  140.8410 C   0  0  0  0  0  2  0  0  0  0  0  0
  193.8190  174.0510  139.9750 N   0  0  0  0  0  0  0  0  0  0  0  0
  190.7180  174.4400  142.9760 C   0  0  1  0  0  3  0  0  0  0  0  0
  191.9930  170.9710  138.8920 C   0  0  2  0  0  3  0  0  0  0  0  0
  195.7740  173.6210  142.0580 O   0  0  0  0  0  0  0  0  0  0  0  0
  192.9870  174.2330  142.1690 O   0  0  0  0  0  0  0  0  0  0  0  0
  193.9860  175.0120  138.9010 C   0  0  0  0  0  1  0  0  0  0  0  0
  191.5010  169.5720  138.5210 C   0  0  0  0  0  1  0  0  0  0  0  0
  196.1030  175.5990  140.9200 O   0  0  0  0  0  1  0  0  0  0  0  0
  190.0430  173.3090  142.1930 C   0  0  0  0  0  2  0  0  0  0  0  0
  191.3710  175.4180  145.2890 C   0  0  2  0  0  3  0  0  0  0  0  0
  190.0500  173.4830  145.2340 C   0  0  0  0  0  0  0  0  0  0  0  0
  190.7760  175.6830  147.6350 N   0  0  0  0  0  1  0  0  0  0  0  0
  189.6820  172.2900  145.0770 O   0  0  0  0  0  0  0  0  0  0  0  0
  191.1250  174.1380  144.4430 C   0  0  1  0  0  3  0  0  0  0  0  0
  190.2200  175.5170  146.3070 C   0  0  2  0  0  3  0  0  0  0  0  0
  189.5460  174.2800  146.2380 O   0  0  0  0  0  0  0  0  0  0  0  0
  191.5510  176.7180  144.4880 C   0  0  0  0  0  2  0  0  0  0  0  0
  190.5040  177.6470  144.7620 O   0  0  0  0  0  0  0  0  0  0  0  0
  189.0350  177.0720  142.8830 N   0  0  0  0  0  2  0  0  0  0  0  0
  188.2290  177.8530  144.9330 O   0  0  0  0  0  0  0  0  0  0  0  0
  189.2230  177.5230  144.2280 C   0  0  0  0  0  0  0  0  0  0  0  0
  187.4580  176.9350  142.1750 S   0  0  0  0  0  0  0  0  0  0  0  0
  187.5590  176.1690  140.8840 O   0  0  0  0  0  0  0  0  0  0  0  0
  186.5610  176.1930  143.1250 O   0  0  0  0  0  0  0  0  0  0  0  0
  186.7600  178.5530  141.8870 C   0  0  0  0  0  2  0  0  0  0  0  0
  186.0350  178.9840  143.0710 N   0  0  0  0  0  2  0  0  0  0  0  0
  184.6400  178.7310  143.2320 C   0  0  0  0  0  0  0  0  0  0  0  0
  183.9590  178.2750  142.2790 O   0  0  0  0  0  0  0  0  0  0  0  0
  183.9850  179.0050  144.5410 C   0  0  0  0  0  2  0  0  0  0  0  0
  185.7000  176.5730  146.8930 C   0  0  0  0  0  3  0  0  0  0  0  0
  186.2040  178.8340  147.6100 C   0  0  0  0  0  3  0  0  0  0  0  0
  184.8120  178.4630  145.6570 C   0  0  0  0  0  0  0  0  0  0  0  0
  185.4410  179.3400  146.5510 C   0  0  0  0  0  3  0  0  0  0  0  0
  184.9370  177.0790  145.8340 C   0  0  0  0  0  3  0  0  0  0  0  0
  186.3340  177.4510  147.7800 C   0  0  0  0  0  3  0  0  0  0  0  0
  195.2460  175.7190  143.1420 C   0  0  0  0  0  2  0  0  0  0  0  0
  196.0230  174.9870  144.2270 C   0  0  0  0  0  2  0  0  0  0  0  0
  195.1340  174.6480  145.3720 C   0  0  0  0  0  0  0  0  0  0  0  0
  194.9930  175.4700  146.3160 O   0  0  0  0  0  1  0  0  0  0  0  0
  194.4320  173.4490  145.3850 O   0  0  0  0  0  0  0  0  0  0  0  0
  195.4560  171.0320  138.3220 C   0  0  0  0  0  2  0  0  0  0  0  0
  194.8830  170.3110  136.7560 S   0  0  0  0  0  0  0  0  0  0  0  0
  192.9170  172.1140  135.9660 N   0  0  0  0  0  2  0  0  0  0  0  0
  195.1600  172.7700  135.8280 O   0  0  0  0  0  0  0  0  0  0  0  0
  193.0170  174.4340  135.6690 O   0  0  0  0  0  0  0  0  0  0  0  0
  192.3320  173.3720  135.6180 C   0  0  0  0  0  0  0  0  0  0  0  0
  194.3170  171.8850  136.1310 C   0  0  0  0  0  0  0  0  0  0  0  0
  190.8890  173.4170  135.2270 C   0  0  0  0  0  3  0  0  0  0  0  0
  190.2700  172.0310  135.2680 C   0  0  0  0  0  1  0  0  0  0  0  0
  190.0940  174.3700  136.1100 C   0  0  0  0  0  1  0  0  0  0  0  0
  2  8  1  6  0  0  0
  3 14  1  0  0  0  0
  3 12  1  1  0  0  0
  4 11  1  0  0  0  0
  4 18  1  1  0  0  0
  6 22  1  0  0  0  0
  9 54  1  1  0  0  0
  9  2  1  0  0  0  0
  9  3  1  0  0  0  0
 10  1  1  6  0  0  0
 10 13  1  0  0  0  0
 11 21  1  6  0  0  0
 11 17  1  0  0  0  0
 11 49  1  0  0  0  0
 12  7  2  0  0  0  0
 12 17  1  0  0  0  0
 13  6  1  0  0  0  0
 14  4  1  0  0  0  0
 15  5  1  6  0  0  0
 15 27  1  0  0  0  0
 16 20  1  1  0  0  0
 16 10  1  0  0  0  0
 16  2  1  0  0  0  0
 18  5  1  0  0  0  0
 19 14  1  0  0  0  0
 22 15  1  0  0  0  0
 23 30  1  6  0  0  0
 23 28  1  0  0  0  0
 24 29  1  0  0  0  0
 26 24  2  0  0  0  0
 27 24  1  1  0  0  0
 27 23  1  0  0  0  0
 28 25  1  1  0  0  0
 29 28  1  0  0  0  0
 30 31  1  0  0  0  0
 32 34  1  0  0  0  0
 34 31  1  0  0  0  0
 34 33  2  0  0  0  0
 35 32  1  0  0  0  0
 35 37  2  0  0  0  0
 36 35  2  0  0  0  0
 38 35  1  0  0  0  0
 38 39  1  0  0  0  0
 39 40  1  0  0  0  0
 40 42  1  0  0  0  0
 41 40  2  0  0  0  0
 42 45  1  0  0  0  0
 43 48  1  0  0  0  0
 44 48  2  0  0  0  0
 45 47  1  0  0  0  0
 45 46  2  0  0  0  0
 46 44  1  0  0  0  0
 47 43  2  0  0  0  0
 49 50  1  0  0  0  0
 50 51  1  0  0  0  0
 51 53  2  0  0  0  0
 51 52  1  0  0  0  0
 55 54  1  0  0  0  0
 56 60  1  0  0  0  0
 57 60  2  0  0  0  0
 59 58  2  0  0  0  0
 59 56  1  0  0  0  0
 60 55  1  0  0  0  0
 61 62  1  0  0  0  0
 61 59  1  0  0  0  0
 61 63  1  0  0  0  0
M  END
>  <MODEL>
1

>  <REMARK>
 VINA RESULT:      -7.6      0.000      0.000
  Name = 
  16 active torsions:
  status: ('A' for Active; 'I' for Inactive)
    1  A    between atoms: N_8  and  C_30
    2  A    between atoms: C_9  and  C_15
    3  A    between atoms: C_10  and  C_28
    4  A    between atoms: C_14  and  C_17
    5  A    between atoms: C_14  and  S_48
    6  A    between atoms: C_15  and  O_40
    7  A    between atoms: C_22  and  C_23
    8  A    between atoms: C_22  and  C_28
    9  A    between atoms: C_24  and  C_25
   10  A    between atoms: C_24  and  C_31
   11  A    between atoms: C_30  and  S_35
   12  A    between atoms: C_34  and  C_44
   13  A    between atoms: S_35  and  N_38
   14  A    between atoms: C_36  and  C_39
   15  A    between atoms: O_40  and  C_60
   16  A    between atoms: C_43  and  S_48
                            x       y       z     vdW  Elec       q    Type
                         _______ _______ _______ _____ _____    ______ ____

>  <TORSDO>
F 16

$$$$
=
 OpenBabel11072409363D

 63 66  0  0  1  0  0  0  0  0999 V2000
  191.0720  173.7740  138.0480 F   0  0  0  0  0  0  0  0  0  0  0  0
  193.8000  171.6750  139.4670 C   0  0  1  0  0  3  0  0  0  0  0  0
  195.7860  173.0940  140.2520 C   0  0  2  0  0  3  0  0  0  0  0  0
  194.9640  174.8620  141.8400 C   0  0  1  0  0  3  0  0  0  0  0  0
  192.9400  175.5400  142.4450 C   0  0  0  0  0  2  0  0  0  0  0  0
  191.3700  173.0470  141.4710 C   0  0  0  0  0  2  0  0  0  0  0  0
  196.1920  171.0750  141.5300 O   0  0  0  0  0  0  0  0  0  0  0  0
  193.8370  170.2800  139.6040 O   0  0  0  0  0  1  0  0  0  0  0  0
  195.1710  172.2660  139.1180 C   0  0  1  0  0  3  0  0  0  0  0  0
  191.8250  173.1860  139.0430 C   0  0  1  0  0  3  0  0  0  0  0  0
  196.1910  174.4620  142.6810 C   0  0  1  0  0  0  0  0  0  0  0  0
  196.0710  172.3280  141.5290 C   0  0  0  0  0  0  0  0  0  0  0  0
  190.9070  172.5880  140.1000 C   0  0  0  0  0  2  0  0  0  0  0  0
  195.0210  174.3460  140.4540 N   0  0  0  0  0  0  0  0  0  0  0  0
  191.5250  175.1580  142.8820 C   0  0  1  0  0  3  0  0  0  0  0  0
  192.7630  172.1470  138.4400 C   0  0  2  0  0  3  0  0  0  0  0  0
  196.2750  173.0420  142.7060 O   0  0  0  0  0  0  0  0  0  0  0  0
  193.7870  174.4220  142.4570 O   0  0  0  0  0  0  0  0  0  0  0  0
  195.6670  175.3700  139.6550 C   0  0  0  0  0  1  0  0  0  0  0  0
  192.0270  171.0300  137.7000 C   0  0  0  0  0  1  0  0  0  0  0  0
  197.3490  174.9870  142.0900 O   0  0  0  0  0  1  0  0  0  0  0  0
  190.7790  174.4120  141.7700 C   0  0  0  0  0  2  0  0  0  0  0  0
  190.9290  175.4790  145.3870 C   0  0  2  0  0  3  0  0  0  0  0  0
  190.5610  173.3780  144.4170 C   0  0  0  0  0  0  0  0  0  0  0  0
  189.5260  174.7950  147.2550 N   0  0  0  0  0  1  0  0  0  0  0  0
  190.7580  172.2460  143.9020 O   0  0  0  0  0  0  0  0  0  0  0  0
  191.4970  174.5260  144.2980 C   0  0  1  0  0  3  0  0  0  0  0  0
  189.5590  174.9170  145.8120 C   0  0  2  0  0  3  0  0  0  0  0  0
  189.4820  173.6320  145.2360 O   0  0  0  0  0  0  0  0  0  0  0  0
  190.8510  176.9630  144.9930 C   0  0  0  0  0  2  0  0  0  0  0  0
  190.2230  177.1320  143.7240 O   0  0  0  0  0  0  0  0  0  0  0  0
  188.2130  177.1370  142.3170 N   0  0  0  0  0  2  0  0  0  0  0  0
  188.1930  177.7810  144.5640 O   0  0  0  0  0  0  0  0  0  0  0  0
  188.8540  177.3510  143.5790 C   0  0  0  0  0  0  0  0  0  0  0  0
  186.5190  177.4280  142.0910 S   0  0  0  0  0  0  0  0  0  0  0  0
  186.1490  177.1190  140.6650 O   0  0  0  0  0  0  0  0  0  0  0  0
  185.7430  176.5290  143.0110 O   0  0  0  0  0  0  0  0  0  0  0  0
  186.1190  179.1230  142.4850 C   0  0  0  0  0  2  0  0  0  0  0  0
  185.5900  179.1920  143.8380 N   0  0  0  0  0  2  0  0  0  0  0  0
  184.2130  178.9460  144.1210 C   0  0  0  0  0  0  0  0  0  0  0  0
  183.3800  178.8270  143.1880 O   0  0  0  0  0  0  0  0  0  0  0  0
  183.7590  178.8250  145.5340 C   0  0  0  0  0  2  0  0  0  0  0  0
  186.6500  178.7010  147.9860 C   0  0  0  0  0  3  0  0  0  0  0  0
  186.2400  176.4610  147.1540 C   0  0  0  0  0  3  0  0  0  0  0  0
  184.8650  178.3090  146.3900 C   0  0  0  0  0  0  0  0  0  0  0  0
  185.1910  176.9460  146.3650 C   0  0  0  0  0  3  0  0  0  0  0  0
  185.6010  179.1860  147.1960 C   0  0  0  0  0  3  0  0  0  0  0  0
  186.9690  177.3390  147.9650 C   0  0  0  0  0  3  0  0  0  0  0  0
  196.0690  175.0070  144.1030 C   0  0  0  0  0  2  0  0  0  0  0  0
  195.8150  176.5080  144.0850 C   0  0  0  0  0  2  0  0  0  0  0  0
  195.0120  176.9180  145.2690 C   0  0  0  0  0  0  0  0  0  0  0  0
  195.0080  178.1250  145.6320 O   0  0  0  0  0  0  0  0  0  0  0  0
  194.2410  175.9850  145.9510 O   0  0  0  0  0  1  0  0  0  0  0  0
  196.1620  171.2740  138.5080 C   0  0  0  0  0  2  0  0  0  0  0  0
  196.0200  171.2640  136.6970 S   0  0  0  0  0  0  0  0  0  0  0  0
  196.0360  173.9000  135.8060 N   0  0  0  0  0  2  0  0  0  0  0  0
  197.8570  173.1290  137.0600 O   0  0  0  0  0  0  0  0  0  0  0  0
  197.3030  175.7340  136.5200 O   0  0  0  0  0  0  0  0  0  0  0  0
  196.4270  175.2730  135.7330 C   0  0  0  0  0  0  0  0  0  0  0  0
  196.7360  172.8920  136.5390 C   0  0  0  0  0  0  0  0  0  0  0  0
  195.7610  176.1630  134.7330 C   0  0  0  0  0  3  0  0  0  0  0  0
  194.2520  175.9910  134.7690 C   0  0  0  0  0  1  0  0  0  0  0  0
  196.1240  177.6270  134.9490 C   0  0  0  0  0  1  0  0  0  0  0  0
  2  8  1  6  0  0  0
  3 14  1  0  0  0  0
  3 12  1  1  0  0  0
  4 18  1  1  0  0  0
  4 11  1  0  0  0  0
  5 18  1  0  0  0  0
  5 15  1  0  0  0  0
  6 22  1  0  0  0  0
  9 54  1  1  0  0  0
  9  2  1  0  0  0  0
  9  3  1  0  0  0  0
 10  1  1  6  0  0  0
 10 13  1  0  0  0  0
 11 21  1  6  0  0  0
 11 17  1  0  0  0  0
 11 49  1  0  0  0  0
 12  7  2  0  0  0  0
 12 17  1  0  0  0  0
 13  6  1  0  0  0  0
 14  4  1  0  0  0  0
 15 22  1  6  0  0  0
 15 27  1  0  0  0  0
 16 20  1  1  0  0  0
 16 10  1  0  0  0  0
 16  2  1  0  0  0  0
 19 14  1  0  0  0  0
 23 30  1  6  0  0  0
 23 28  1  0  0  0  0
 24 29  1  0  0  0  0
 26 24  2  0  0  0  0
 27 24  1  6  0  0  0
 27 23  1  0  0  0  0
 28 25  1  1  0  0  0
 29 28  1  0  0  0  0
 31 30  1  0  0  0  0
 32 34  1  0  0  0  0
 34 31  1  0  0  0  0
 34 33  2  0  0  0  0
 35 32  1  0  0  0  0
 35 38  1  0  0  0  0
 35 37  2  0  0  0  0
 36 35  2  0  0  0  0
 38 39  1  0  0  0  0
 39 40  1  0  0  0  0
 40 42  1  0  0  0  0
 41 40  2  0  0  0  0
 42 45  1  0  0  0  0
 44 48  2  0  0  0  0
 45 47  1  0  0  0  0
 46 45  2  0  0  0  0
 46 44  1  0  0  0  0
 47 43  2  0  0  0  0
 48 43  1  0  0  0  0
 50 49  1  0  0  0  0
 50 51  1  0  0  0  0
 51 52  2  0  0  0  0
 51 53  1  0  0  0  0
 55 54  1  0  0  0  0
 56 60  1  0  0  0  0
 59 56  1  0  0  0  0
 59 58  2  0  0  0  0
 60 55  1  0  0  0  0
 60 57  2  0  0  0  0
 61 62  1  0  0  0  0
 61 63  1  0  0  0  0
 61 59  1  0  0  0  0
M  END
>  <MODEL>
2

>  <REMARK>
 VINA RESULT:      -6.8      1.754      2.172
  Name = 
  16 active torsions:
  status: ('A' for Active; 'I' for Inactive)
    1  A    between atoms: N_8  and  C_30
    2  A    between atoms: C_9  and  C_15
    3  A    between atoms: C_10  and  C_28
    4  A    between atoms: C_14  and  C_17
    5  A    between atoms: C_14  and  S_48
    6  A    between atoms: C_15  and  O_40
    7  A    between atoms: C_22  and  C_23
    8  A    between atoms: C_22  and  C_28
    9  A    between atoms: C_24  and  C_25
   10  A    between atoms: C_24  and  C_31
   11  A    between atoms: C_30  and  S_35
   12  A    between atoms: C_34  and  C_44
   13  A    between atoms: S_35  and  N_38
   14  A    between atoms: C_36  and  C_39
   15  A    between atoms: O_40  and  C_60
   16  A    between atoms: C_43  and  S_48
                            x       y       z     vdW  Elec       q    Type
                         _______ _______ _______ _____ _____    ______ ____

>  <TORSDO>
F 16

$$$$
=
 OpenBabel11072409363D

 63 66  0  0  1  0  0  0  0  0999 V2000
  194.0290  177.7770  145.5390 F   0  0  0  0  0  0  0  0  0  0  0  0
  191.3890  175.2890  146.3800 C   0  0  1  0  0  3  0  0  0  0  0  0
  189.9680  174.6780  144.3350 C   0  0  2  0  0  3  0  0  0  0  0  0
  191.4800  173.9310  142.4700 C   0  0  1  0  0  3  0  0  0  0  0  0
  193.6830  173.9490  142.1980 C   0  0  0  0  0  2  0  0  0  0  0  0
  194.4560  174.3100  145.1810 C   0  0  0  0  0  2  0  0  0  0  0  0
  189.5150  172.7570  145.7400 O   0  0  0  0  0  0  0  0  0  0  0  0
  191.1210  174.6970  147.6220 O   0  0  0  0  0  1  0  0  0  0  0  0
  190.1120  175.5660  145.5760 C   0  0  1  0  0  3  0  0  0  0  0  0
  193.4480  176.5280  145.6110 C   0  0  1  0  0  3  0  0  0  0  0  0
  190.4470  172.8030  142.2880 C   0  0  1  0  0  0  0  0  0  0  0  0
  189.8680  173.1910  144.6140 C   0  0  0  0  0  0  0  0  0  0  0  0
  194.4680  175.5120  146.1070 C   0  0  0  0  0  2  0  0  0  0  0  0
  190.9840  175.0370  143.3190 N   0  0  0  0  0  0  0  0  0  0  0  0
  195.0620  173.6680  142.7950 C   0  0  1  0  0  3  0  0  0  0  0  0
  192.2090  176.5800  146.4980 C   0  0  2  0  0  3  0  0  0  0  0  0
  190.1030  172.2970  143.5720 O   0  0  0  0  0  0  0  0  0  0  0  0
  192.6670  173.4210  143.0090 O   0  0  0  0  0  0  0  0  0  0  0  0
  190.3680  176.0000  142.4270 C   0  0  0  0  0  1  0  0  0  0  0  0
  192.5110  177.0290  147.9270 C   0  0  0  0  0  1  0  0  0  0  0  0
  189.3020  173.3200  141.6670 O   0  0  0  0  0  1  0  0  0  0  0  0
  195.3520  174.5850  143.9880 C   0  0  0  0  0  2  0  0  0  0  0  0
  195.3850  171.3590  141.6560 C   0  0  2  0  0  3  0  0  0  0  0  0
  196.6570  171.8450  143.5640 C   0  0  0  0  0  0  0  0  0  0  0  0
  196.8910  169.5000  141.2010 N   0  0  0  0  0  1  0  0  0  0  0  0
  196.9840  172.0680  144.7580 O   0  0  0  0  0  0  0  0  0  0  0  0
  195.3190  172.1500  142.9920 C   0  0  1  0  0  3  0  0  0  0  0  0
  196.8500  170.9250  141.4580 C   0  0  2  0  0  3  0  0  0  0  0  0
  197.4940  171.1950  142.6840 O   0  0  0  0  0  0  0  0  0  0  0  0
  194.8240  172.0880  140.4250 C   0  0  0  0  0  2  0  0  0  0  0  0
  195.0470  171.3410  139.2310 O   0  0  0  0  0  0  0  0  0  0  0  0
  192.7210  170.8970  138.5890 N   0  0  0  0  0  2  0  0  0  0  0  0
  194.4390  169.3390  138.3000 O   0  0  0  0  0  0  0  0  0  0  0  0
  194.0910  170.4900  138.6800 C   0  0  0  0  0  0  0  0  0  0  0  0
  191.4980  169.8540  137.9370 S   0  0  0  0  0  0  0  0  0  0  0  0
  191.8530  169.4990  136.5190 O   0  0  0  0  0  0  0  0  0  0  0  0
  191.4370  168.6010  138.7640 O   0  0  0  0  0  0  0  0  0  0  0  0
  189.9020  170.6510  137.9990 C   0  0  0  0  0  2  0  0  0  0  0  0
  189.7770  171.5700  136.8790 N   0  0  0  0  0  2  0  0  0  0  0  0
  189.6040  172.9730  137.0720 C   0  0  0  0  0  0  0  0  0  0  0  0
  189.3850  173.4380  138.2180 O   0  0  0  0  0  0  0  0  0  0  0  0
  189.6870  173.8950  135.9060 C   0  0  0  0  0  2  0  0  0  0  0  0
  193.0770  175.2040  136.9920 C   0  0  0  0  0  3  0  0  0  0  0  0
  192.1630  176.7070  135.3240 C   0  0  0  0  0  3  0  0  0  0  0  0
  190.9110  174.7410  136.0020 C   0  0  0  0  0  0  0  0  0  0  0  0
  191.0230  175.9010  135.2230 C   0  0  0  0  0  3  0  0  0  0  0  0
  191.9370  174.3980  136.8910 C   0  0  0  0  0  3  0  0  0  0  0  0
  193.1900  176.3580  136.2080 C   0  0  0  0  0  3  0  0  0  0  0  0
  191.0200  171.6840  141.4190 C   0  0  0  0  0  2  0  0  0  0  0  0
  190.8270  170.3300  142.0850 C   0  0  0  0  0  2  0  0  0  0  0  0
  192.1370  169.7630  142.5100 C   0  0  0  0  0  0  0  0  0  0  0  0
  192.5660  169.9910  143.6730 O   0  0  0  0  0  1  0  0  0  0  0  0
  192.8670  168.9570  141.6450 O   0  0  0  0  0  0  0  0  0  0  0  0
  188.8310  175.6310  146.4070 C   0  0  0  0  0  2  0  0  0  0  0  0
  188.3340  177.3570  146.6770 S   0  0  0  0  0  0  0  0  0  0  0  0
  187.1640  177.7430  144.1820 N   0  0  0  0  0  2  0  0  0  0  0  0
  185.8880  176.7540  145.8780 O   0  0  0  0  0  0  0  0  0  0  0  0
  185.2580  176.7710  143.2350 O   0  0  0  0  0  0  0  0  0  0  0  0
  186.2210  177.5820  143.1200 C   0  0  0  0  0  0  0  0  0  0  0  0
  186.9860  177.2490  145.5110 C   0  0  0  0  0  0  0  0  0  0  0  0
  186.4100  178.3630  141.8580 C   0  0  0  0  0  3  0  0  0  0  0  0
  187.6200  177.8650  141.0860 C   0  0  0  0  0  1  0  0  0  0  0  0
  185.1710  178.3150  140.9730 C   0  0  0  0  0  1  0  0  0  0  0  0
  2 16  1  0  0  0  0
  2  8  1  1  0  0  0
  3 12  1  1  0  0  0
  3  9  1  0  0  0  0
  4 18  1  1  0  0  0
  4 14  1  0  0  0  0
  5 18  1  0  0  0  0
  6 13  1  0  0  0  0
  9  2  1  0  0  0  0
  9 54  1  1  0  0  0
 10  1  1  1  0  0  0
 10 13  1  0  0  0  0
 10 16  1  0  0  0  0
 11 21  1  6  0  0  0
 11  4  1  0  0  0  0
 11 17  1  0  0  0  0
 12  7  2  0  0  0  0
 14  3  1  0  0  0  0
 15  5  1  1  0  0  0
 15 27  1  0  0  0  0
 15 22  1  0  0  0  0
 16 20  1  1  0  0  0
 17 12  1  0  0  0  0
 19 14  1  0  0  0  0
 22  6  1  0  0  0  0
 23 30  1  6  0  0  0
 23 27  1  0  0  0  0
 24 26  2  0  0  0  0
 27 24  1  6  0  0  0
 28 25  1  1  0  0  0
 28 23  1  0  0  0  0
 28 29  1  0  0  0  0
 29 24  1  0  0  0  0
 31 30  1  0  0  0  0
 32 34  1  0  0  0  0
 33 34  2  0  0  0  0
 34 31  1  0  0  0  0
 35 38  1  0  0  0  0
 35 32  1  0  0  0  0
 35 37  2  0  0  0  0
 36 35  2  0  0  0  0
 39 40  1  0  0  0  0
 39 38  1  0  0  0  0
 40 41  2  0  0  0  0
 42 45  1  0  0  0  0
 42 40  1  0  0  0  0
 44 48  1  0  0  0  0
 45 47  2  0  0  0  0
 46 44  2  0  0  0  0
 46 45  1  0  0  0  0
 47 43  1  0  0  0  0
 48 43  2  0  0  0  0
 49 50  1  0  0  0  0
 49 11  1  0  0  0  0
 50 51  1  0  0  0  0
 51 52  1  0  0  0  0
 53 51  2  0  0  0  0
 54 55  1  0  0  0  0
 56 60  1  0  0  0  0
 59 58  2  0  0  0  0
 59 56  1  0  0  0  0
 60 57  2  0  0  0  0
 60 55  1  0  0  0  0
 61 59  1  0  0  0  0
 62 61  1  0  0  0  0
 63 61  1  0  0  0  0
M  END
>  <MODEL>
3

>  <REMARK>
 VINA RESULT:      -6.6      2.667      9.150
  Name = 
  16 active torsions:
  status: ('A' for Active; 'I' for Inactive)
    1  A    between atoms: N_8  and  C_30
    2  A    between atoms: C_9  and  C_15
    3  A    between atoms: C_10  and  C_28
    4  A    between atoms: C_14  and  C_17
    5  A    between atoms: C_14  and  S_48
    6  A    between atoms: C_15  and  O_40
    7  A    between atoms: C_22  and  C_23
    8  A    between atoms: C_22  and  C_28
    9  A    between atoms: C_24  and  C_25
   10  A    between atoms: C_24  and  C_31
   11  A    between atoms: C_30  and  S_35
   12  A    between atoms: C_34  and  C_44
   13  A    between atoms: S_35  and  N_38
   14  A    between atoms: C_36  and  C_39
   15  A    between atoms: O_40  and  C_60
   16  A    between atoms: C_43  and  S_48
                            x       y       z     vdW  Elec       q    Type
                         _______ _______ _______ _____ _____    ______ ____

>  <TORSDO>
F 16

$$$$
=
 OpenBabel11072409363D

 63 66  0  0  1  0  0  0  0  0999 V2000
  189.3010  171.1340  141.5900 F   0  0  0  0  0  0  0  0  0  0  0  0
  192.9860  170.7010  141.2790 C   0  0  1  0  0  3  0  0  0  0  0  0
  194.0270  172.4630  139.7340 C   0  0  2  0  0  3  0  0  0  0  0  0
  193.3590  174.7550  140.5250 C   0  0  1  0  0  3  0  0  0  0  0  0
  191.9210  175.4770  142.0530 C   0  0  0  0  0  2  0  0  0  0  0  0
  191.6230  172.8150  143.6190 C   0  0  0  0  0  2  0  0  0  0  0  0
  195.9950  171.7910  140.9770 O   0  0  0  0  0  0  0  0  0  0  0  0
  193.7980  169.7340  141.8870 O   0  0  0  0  0  1  0  0  0  0  0  0
  193.4510  171.0480  139.8590 C   0  0  1  0  0  3  0  0  0  0  0  0
  190.6300  171.3970  141.8510 C   0  0  1  0  0  3  0  0  0  0  0  0
  194.8400  175.1040  140.2830 C   0  0  1  0  0  0  0  0  0  0  0  0
  195.2670  172.7300  140.5640 C   0  0  0  0  0  0  0  0  0  0  0  0
  190.8420  171.5410  143.3520 C   0  0  0  0  0  2  0  0  0  0  0  0
  192.9580  173.4750  139.8990 N   0  0  0  0  0  0  0  0  0  0  0  0
  191.3630  175.3410  143.4700 C   0  0  1  0  0  3  0  0  0  0  0  0
  191.5050  170.3040  141.2480 C   0  0  2  0  0  3  0  0  0  0  0  0
  195.6410  174.0500  140.8040 O   0  0  0  0  0  0  0  0  0  0  0  0
  193.0870  174.7130  141.8970 O   0  0  0  0  0  0  0  0  0  0  0  0
  192.4710  173.7960  138.5710 C   0  0  0  0  0  1  0  0  0  0  0  0
  191.1940  168.9120  141.8000 C   0  0  0  0  0  1  0  0  0  0  0  0
  195.0670  175.2270  138.9050 O   0  0  0  0  0  1  0  0  0  0  0  0
  190.6660  173.9910  143.6690 C   0  0  0  0  0  2  0  0  0  0  0  0
  191.7550  176.5760  145.7180 C   0  0  2  0  0  3  0  0  0  0  0  0
  192.9860  174.6290  145.2910 C   0  0  0  0  0  0  0  0  0  0  0  0
  192.4040  176.3990  148.0580 N   0  0  0  0  0  1  0  0  0  0  0  0
  193.8200  173.8250  144.7990 O   0  0  0  0  0  0  0  0  0  0  0  0
  192.3900  175.7720  144.5500 C   0  0  1  0  0  3  0  0  0  0  0  0
  191.7920  175.6720  146.9650 C   0  0  2  0  0  3  0  0  0  0  0  0
  192.6140  174.5800  146.6160 O   0  0  0  0  0  0  0  0  0  0  0  0
  190.3480  177.1360  145.4500 C   0  0  0  0  0  2  0  0  0  0  0  0
  189.3920  176.6040  146.3650 O   0  0  0  0  0  0  0  0  0  0  0  0
  186.9610  176.9270  146.3370 N   0  0  0  0  0  2  0  0  0  0  0  0
  188.4140  178.3230  147.5200 O   0  0  0  0  0  0  0  0  0  0  0  0
  188.2660  177.3120  146.7800 C   0  0  0  0  0  0  0  0  0  0  0  0
  185.5390  177.8000  146.8080 S   0  0  0  0  0  0  0  0  0  0  0  0
  184.3390  176.9030  146.6730 O   0  0  0  0  0  0  0  0  0  0  0  0
  185.6830  178.2280  148.2410 O   0  0  0  0  0  0  0  0  0  0  0  0
  185.3420  179.2610  145.7990 C   0  0  0  0  0  2  0  0  0  0  0  0
  185.8090  178.9820  144.4510 N   0  0  0  0  0  2  0  0  0  0  0  0
  184.9070  178.6670  143.3920 C   0  0  0  0  0  0  0  0  0  0  0  0
  183.6910  178.4560  143.6290 O   0  0  0  0  0  0  0  0  0  0  0  0
  185.4080  178.5920  141.9910 C   0  0  0  0  0  2  0  0  0  0  0  0
  187.8750  176.1280  140.4980 C   0  0  0  0  0  3  0  0  0  0  0  0
  187.1010  175.2600  142.6260 C   0  0  0  0  0  3  0  0  0  0  0  0
  186.2830  177.3970  141.8180 C   0  0  0  0  0  0  0  0  0  0  0  0
  186.2940  176.3920  142.7940 C   0  0  0  0  0  3  0  0  0  0  0  0
  187.0690  177.2600  140.6670 C   0  0  0  0  0  3  0  0  0  0  0  0
  187.8920  175.1290  141.4780 C   0  0  0  0  0  3  0  0  0  0  0  0
  195.1980  176.4240  140.9640 C   0  0  0  0  0  2  0  0  0  0  0  0
  196.6620  176.4350  141.3820 C   0  0  0  0  0  2  0  0  0  0  0  0
  196.7880  176.6730  142.8460 C   0  0  0  0  0  0  0  0  0  0  0  0
  197.8670  177.1260  143.3130 O   0  0  0  0  0  0  0  0  0  0  0  0
  195.7120  176.4320  143.6910 O   0  0  0  0  0  1  0  0  0  0  0  0
  194.3340  169.9920  139.1950 C   0  0  0  0  0  2  0  0  0  0  0  0
  193.3180  168.7890  138.2890 S   0  0  0  0  0  0  0  0  0  0  0  0
  191.9140  170.6690  136.7940 N   0  0  0  0  0  2  0  0  0  0  0  0
  193.9930  169.9360  136.0060 O   0  0  0  0  0  0  0  0  0  0  0  0
  192.6450  172.1170  135.1070 O   0  0  0  0  0  0  0  0  0  0  0  0
  191.6890  171.6840  135.8120 C   0  0  0  0  0  0  0  0  0  0  0  0
  193.1030  169.8830  136.8940 C   0  0  0  0  0  0  0  0  0  0  0  0
  190.3130  172.2500  135.6560 C   0  0  0  0  0  3  0  0  0  0  0  0
  189.5740  171.5760  134.5130 C   0  0  0  0  0  1  0  0  0  0  0  0
  189.5050  172.1300  136.9420 C   0  0  0  0  0  1  0  0  0  0  0  0
  2  8  1  6  0  0  0
  3  9  1  0  0  0  0
  3 14  1  0  0  0  0
  3 12  1  1  0  0  0
  4 18  1  1  0  0  0
  6 22  1  0  0  0  0
  9 54  1  1  0  0  0
  9  2  1  0  0  0  0
 10  1  1  1  0  0  0
 10 13  1  0  0  0  0
 11 21  1  6  0  0  0
 11  4  1  0  0  0  0
 11 17  1  0  0  0  0
 11 49  1  0  0  0  0
 12 17  1  0  0  0  0
 12  7  2  0  0  0  0
 13  6  1  0  0  0  0
 14  4  1  0  0  0  0
 15  5  1  6  0  0  0
 15 22  1  0  0  0  0
 15 27  1  0  0  0  0
 16  2  1  0  0  0  0
 16 20  1  1  0  0  0
 16 10  1  0  0  0  0
 18  5  1  0  0  0  0
 19 14  1  0  0  0  0
 23 30  1  6  0  0  0
 23 28  1  0  0  0  0
 24 29  1  0  0  0  0
 26 24  2  0  0  0  0
 27 24  1  1  0  0  0
 27 23  1  0  0  0  0
 28 25  1  1  0  0  0
 29 28  1  0  0  0  0
 30 31  1  0  0  0  0
 31 34  1  0  0  0  0
 32 34  1  0  0  0  0
 32 35  1  0  0  0  0
 34 33  2  0  0  0  0
 35 37  2  0  0  0  0
 36 35  2  0  0  0  0
 38 35  1  0  0  0  0
 39 38  1  0  0  0  0
 40 41  2  0  0  0  0
 40 39  1  0  0  0  0
 42 40  1  0  0  0  0
 43 47  2  0  0  0  0
 43 48  1  0  0  0  0
 44 46  1  0  0  0  0
 45 42  1  0  0  0  0
 45 46  2  0  0  0  0
 47 45  1  0  0  0  0
 48 44  2  0  0  0  0
 49 50  1  0  0  0  0
 50 51  1  0  0  0  0
 51 52  2  0  0  0  0
 51 53  1  0  0  0  0
 55 54  1  0  0  0  0
 56 60  1  0  0  0  0
 57 60  2  0  0  0  0
 58 59  2  0  0  0  0
 59 56  1  0  0  0  0
 60 55  1  0  0  0  0
 61 59  1  0  0  0  0
 61 63  1  0  0  0  0
 62 61  1  0  0  0  0
M  END
>  <MODEL>
4

>  <REMARK>
 VINA RESULT:      -6.4      2.119      3.110
  Name = 
  16 active torsions:
  status: ('A' for Active; 'I' for Inactive)
    1  A    between atoms: N_8  and  C_30
    2  A    between atoms: C_9  and  C_15
    3  A    between atoms: C_10  and  C_28
    4  A    between atoms: C_14  and  C_17
    5  A    between atoms: C_14  and  S_48
    6  A    between atoms: C_15  and  O_40
    7  A    between atoms: C_22  and  C_23
    8  A    between atoms: C_22  and  C_28
    9  A    between atoms: C_24  and  C_25
   10  A    between atoms: C_24  and  C_31
   11  A    between atoms: C_30  and  S_35
   12  A    between atoms: C_34  and  C_44
   13  A    between atoms: S_35  and  N_38
   14  A    between atoms: C_36  and  C_39
   15  A    between atoms: O_40  and  C_60
   16  A    between atoms: C_43  and  S_48
                            x       y       z     vdW  Elec       q    Type
                         _______ _______ _______ _____ _____    ______ ____

>  <TORSDO>
F 16

$$$$
=
 OpenBabel11072409363D

 63 66  0  0  1  0  0  0  0  0999 V2000
  189.3720  171.5380  140.7110 F   0  0  0  0  0  0  0  0  0  0  0  0
  192.8840  170.7440  141.6590 C   0  0  1  0  0  3  0  0  0  0  0  0
  194.5530  172.3640  140.5790 C   0  0  2  0  0  3  0  0  0  0  0  0
  193.8860  174.7260  141.1260 C   0  0  1  0  0  3  0  0  0  0  0  0
  192.0940  175.6170  142.0880 C   0  0  0  0  0  2  0  0  0  0  0  0
  191.0260  173.0300  143.4260 C   0  0  0  0  0  2  0  0  0  0  0  0
  195.9100  171.5320  142.4060 O   0  0  0  0  0  0  0  0  0  0  0  0
  193.3440  169.7160  142.4930 O   0  0  0  0  0  1  0  0  0  0  0  0
  193.8330  171.0140  140.4840 C   0  0  1  0  0  3  0  0  0  0  0  0
  190.5530  171.6770  141.4090 C   0  0  1  0  0  3  0  0  0  0  0  0
  195.3880  174.9250  141.4040 C   0  0  1  0  0  0  0  0  0  0  0  0
  195.4600  172.5280  141.7830 C   0  0  0  0  0  0  0  0  0  0  0  0
  190.2590  171.8320  142.8950 C   0  0  0  0  0  2  0  0  0  0  0  0
  193.5960  173.4780  140.3860 N   0  0  0  0  0  0  0  0  0  0  0  0
  191.0800  175.5660  143.2310 C   0  0  1  0  0  3  0  0  0  0  0  0
  191.4690  170.4910  141.1240 C   0  0  2  0  0  3  0  0  0  0  0  0
  195.8580  173.8100  142.1520 O   0  0  0  0  0  0  0  0  0  0  0  0
  193.1640  174.7400  142.3250 O   0  0  0  0  0  0  0  0  0  0  0  0
  193.6200  173.8160  138.9760 C   0  0  0  0  0  1  0  0  0  0  0  0
  190.8550  169.1490  141.5210 C   0  0  0  0  0  1  0  0  0  0  0  0
  196.0780  174.9960  140.1860 O   0  0  0  0  0  1  0  0  0  0  0  0
  190.2280  174.2940  143.1660 C   0  0  0  0  0  2  0  0  0  0  0  0
  190.8360  176.8560  145.4690 C   0  0  2  0  0  3  0  0  0  0  0  0
  191.8600  174.7490  145.5070 C   0  0  0  0  0  0  0  0  0  0  0  0
  190.6050  176.7190  147.8890 N   0  0  0  0  0  1  0  0  0  0  0  0
  192.6940  173.8200  145.3420 O   0  0  0  0  0  0  0  0  0  0  0  0
  191.7190  175.9180  144.6000 C   0  0  1  0  0  3  0  0  0  0  0  0
  190.3160  176.0200  146.6530 C   0  0  2  0  0  3  0  0  0  0  0  0
  191.0500  174.8160  146.6190 O   0  0  0  0  0  0  0  0  0  0  0  0
  189.7000  177.5750  144.7230 C   0  0  0  0  0  2  0  0  0  0  0  0
  188.4430  176.9400  144.9520 O   0  0  0  0  0  0  0  0  0  0  0  0
  186.3930  177.7550  143.8800 N   0  0  0  0  0  2  0  0  0  0  0  0
  186.9310  178.2150  146.1070 O   0  0  0  0  0  0  0  0  0  0  0  0
  187.2420  177.6430  145.0260 C   0  0  0  0  0  0  0  0  0  0  0  0
  184.9060  178.6460  143.9250 S   0  0  0  0  0  0  0  0  0  0  0  0
  184.1540  178.2920  145.1790 O   0  0  0  0  0  0  0  0  0  0  0  0
  185.2190  180.1150  143.9300 O   0  0  0  0  0  0  0  0  0  0  0  0
  183.9170  178.2830  142.4830 C   0  0  0  0  0  2  0  0  0  0  0  0
  182.5760  178.8110  142.6720 N   0  0  0  0  0  2  0  0  0  0  0  0
  181.5470  178.6160  141.7040 C   0  0  0  0  0  0  0  0  0  0  0  0
  181.8130  178.1240  140.5790 O   0  0  0  0  0  0  0  0  0  0  0  0
  180.1430  178.9940  142.0300 C   0  0  0  0  0  2  0  0  0  0  0  0
  177.9390  179.3070  138.9600 C   0  0  0  0  0  3  0  0  0  0  0  0
  179.1420  181.3890  139.2670 C   0  0  0  0  0  3  0  0  0  0  0  0
  179.4660  179.5590  140.8280 C   0  0  0  0  0  0  0  0  0  0  0  0
  179.7630  180.8620  140.4060 C   0  0  0  0  0  3  0  0  0  0  0  0
  178.5590  178.7800  140.0990 C   0  0  0  0  0  3  0  0  0  0  0  0
  178.2300  180.6110  138.5450 C   0  0  0  0  0  3  0  0  0  0  0  0
  195.6230  176.2180  142.1830 C   0  0  0  0  0  2  0  0  0  0  0  0
  196.5060  175.9640  143.3960 C   0  0  0  0  0  2  0  0  0  0  0  0
  195.6980  175.9870  144.6470 C   0  0  0  0  0  0  0  0  0  0  0  0
  194.9050  176.9420  144.8590 O   0  0  0  0  0  0  0  0  0  0  0  0
  195.7900  174.9430  145.5600 O   0  0  0  0  0  1  0  0  0  0  0  0
  194.7800  169.8640  140.1450 C   0  0  0  0  0  2  0  0  0  0  0  0
  194.0580  168.8020  138.8600 S   0  0  0  0  0  0  0  0  0  0  0  0
  195.9050  170.4530  137.5940 N   0  0  0  0  0  2  0  0  0  0  0  0
  193.8190  170.1220  136.5830 O   0  0  0  0  0  0  0  0  0  0  0  0
  196.0040  171.1970  135.3770 O   0  0  0  0  0  0  0  0  0  0  0  0
  196.5080  171.2030  136.5360 C   0  0  0  0  0  0  0  0  0  0  0  0
  194.5990  169.8740  137.5390 C   0  0  0  0  0  0  0  0  0  0  0  0
  197.7640  171.9660  136.8140 C   0  0  0  0  0  3  0  0  0  0  0  0
  197.9370  173.1080  135.8280 C   0  0  0  0  0  1  0  0  0  0  0  0
  197.7960  172.5000  138.2400 C   0  0  0  0  0  1  0  0  0  0  0  0
  2  8  1  6  0  0  0
  3 12  1  1  0  0  0
  4 11  1  0  0  0  0
  4 18  1  1  0  0  0
  5 18  1  0  0  0  0
  9 54  1  1  0  0  0
  9  3  1  0  0  0  0
  9  2  1  0  0  0  0
 10  1  1  6  0  0  0
 10 13  1  0  0  0  0
 11 21  1  6  0  0  0
 11 17  1  0  0  0  0
 11 49  1  0  0  0  0
 12 17  1  0  0  0  0
 12  7  2  0  0  0  0
 13  6  1  0  0  0  0
 14  3  1  0  0  0  0
 14  4  1  0  0  0  0
 15  5  1  6  0  0  0
 15 27  1  0  0  0  0
 16 10  1  0  0  0  0
 16 20  1  1  0  0  0
 16  2  1  0  0  0  0
 19 14  1  0  0  0  0
 22 15  1  0  0  0  0
 22  6  1  0  0  0  0
 23 30  1  6  0  0  0
 23 28  1  0  0  0  0
 24 29  1  0  0  0  0
 26 24  2  0  0  0  0
 27 23  1  0  0  0  0
 27 24  1  1  0  0  0
 28 25  1  1  0  0  0
 29 28  1  0  0  0  0
 30 31  1  0  0  0  0
 31 34  1  0  0  0  0
 32 35  1  0  0  0  0
 32 34  1  0  0  0  0
 34 33  2  0  0  0  0
 35 37  2  0  0  0  0
 35 36  2  0  0  0  0
 38 39  1  0  0  0  0
 38 35  1  0  0  0  0
 40 42  1  0  0  0  0
 40 39  1  0  0  0  0
 41 40  2  0  0  0  0
 43 47  1  0  0  0  0
 44 46  2  0  0  0  0
 45 42  1  0  0  0  0
 46 45  1  0  0  0  0
 47 45  2  0  0  0  0
 48 43  2  0  0  0  0
 48 44  1  0  0  0  0
 49 50  1  0  0  0  0
 50 51  1  0  0  0  0
 51 52  2  0  0  0  0
 51 53  1  0  0  0  0
 55 54  1  0  0  0  0
 57 60  2  0  0  0  0
 58 59  2  0  0  0  0
 59 61  1  0  0  0  0
 59 56  1  0  0  0  0
 60 56  1  0  0  0  0
 60 55  1  0  0  0  0
 61 63  1  0  0  0  0
 62 61  1  0  0  0  0
M  END
>  <MODEL>
5

>  <REMARK>
 VINA RESULT:      -6.2      2.888      4.236
  Name = 
  16 active torsions:
  status: ('A' for Active; 'I' for Inactive)
    1  A    between atoms: N_8  and  C_30
    2  A    between atoms: C_9  and  C_15
    3  A    between atoms: C_10  and  C_28
    4  A    between atoms: C_14  and  C_17
    5  A    between atoms: C_14  and  S_48
    6  A    between atoms: C_15  and  O_40
    7  A    between atoms: C_22  and  C_23
    8  A    between atoms: C_22  and  C_28
    9  A    between atoms: C_24  and  C_25
   10  A    between atoms: C_24  and  C_31
   11  A    between atoms: C_30  and  S_35
   12  A    between atoms: C_34  and  C_44
   13  A    between atoms: S_35  and  N_38
   14  A    between atoms: C_36  and  C_39
   15  A    between atoms: O_40  and  C_60
   16  A    between atoms: C_43  and  S_48
                            x       y       z     vdW  Elec       q    Type
                         _______ _______ _______ _____ _____    ______ ____

>  <TORSDO>
F 16

$$$$
=
 OpenBabel11072409363D

 63 66  0  0  1  0  0  0  0  0999 V2000
  194.0980  177.6590  145.4780 F   0  0  0  0  0  0  0  0  0  0  0  0
  191.3920  175.2460  146.3270 C   0  0  1  0  0  3  0  0  0  0  0  0
  190.1180  174.4690  144.2420 C   0  0  2  0  0  3  0  0  0  0  0  0
  191.7560  173.5740  142.5570 C   0  0  1  0  0  3  0  0  0  0  0  0
  193.9720  173.5710  142.4430 C   0  0  0  0  0  2  0  0  0  0  0  0
  194.5320  174.1740  145.4350 C   0  0  0  0  0  2  0  0  0  0  0  0
  189.5550  172.6690  145.7630 O   0  0  0  0  0  0  0  0  0  0  0  0
  191.0330  174.7570  147.5910 O   0  0  0  0  0  1  0  0  0  0  0  0
  190.1780  175.4560  145.4140 C   0  0  1  0  0  3  0  0  0  0  0  0
  193.5070  176.4200  145.6090 C   0  0  1  0  0  3  0  0  0  0  0  0
  190.7330  172.4340  142.3940 C   0  0  1  0  0  0  0  0  0  0  0  0
  189.9900  173.0100  144.6330 C   0  0  0  0  0  0  0  0  0  0  0  0
  194.4830  175.4480  146.2590 C   0  0  0  0  0  2  0  0  0  0  0  0
  191.2060  174.7450  143.2750 N   0  0  0  0  0  0  0  0  0  0  0  0
  195.3040  173.3400  143.1590 C   0  0  1  0  0  3  0  0  0  0  0  0
  192.2080  176.5430  146.3980 C   0  0  2  0  0  3  0  0  0  0  0  0
  190.2950  172.0340  143.6870 O   0  0  0  0  0  0  0  0  0  0  0  0
  192.8980  173.1100  143.2200 O   0  0  0  0  0  0  0  0  0  0  0  0
  190.6600  175.6320  142.2660 C   0  0  0  0  0  1  0  0  0  0  0  0
  192.4090  177.1070  147.8040 C   0  0  0  0  0  1  0  0  0  0  0  0
  189.6370  172.8980  141.6520 O   0  0  0  0  0  1  0  0  0  0  0  0
  195.5120  174.3520  144.2910 C   0  0  0  0  0  2  0  0  0  0  0  0
  196.1670  171.0400  142.3250 C   0  0  2  0  0  3  0  0  0  0  0  0
  196.5530  171.6280  144.5600 C   0  0  0  0  0  0  0  0  0  0  0  0
  197.8220  169.2700  142.5690 N   0  0  0  0  0  1  0  0  0  0  0  0
  196.3700  171.8880  145.7780 O   0  0  0  0  0  0  0  0  0  0  0  0
  195.5380  171.8440  143.4970 C   0  0  1  0  0  3  0  0  0  0  0  0
  197.6110  170.6940  142.7370 C   0  0  2  0  0  3  0  0  0  0  0  0
  197.7020  171.0180  144.1060 O   0  0  0  0  0  0  0  0  0  0  0  0
  196.1030  171.7170  140.9470 C   0  0  0  0  0  2  0  0  0  0  0  0
  195.4850  170.8710  139.9790 O   0  0  0  0  0  0  0  0  0  0  0  0
  194.1860  170.8250  137.8990 N   0  0  0  0  0  2  0  0  0  0  0  0
  196.2600  171.8860  138.0770 O   0  0  0  0  0  0  0  0  0  0  0  0
  195.3400  171.2310  138.6410 C   0  0  0  0  0  0  0  0  0  0  0  0
  193.9850  171.2280  136.2240 S   0  0  0  0  0  0  0  0  0  0  0  0
  195.1110  172.1260  135.7920 O   0  0  0  0  0  0  0  0  0  0  0  0
  194.0150  169.9650  135.4130 O   0  0  0  0  0  0  0  0  0  0  0  0
  192.4120  172.0310  135.9610 C   0  0  0  0  0  2  0  0  0  0  0  0
  192.6320  173.4390  135.6700 N   0  0  0  0  0  2  0  0  0  0  0  0
  192.4710  174.4470  136.6670 C   0  0  0  0  0  0  0  0  0  0  0  0
  191.9720  174.1660  137.7860 O   0  0  0  0  0  0  0  0  0  0  0  0
  192.9030  175.8430  136.3830 C   0  0  0  0  0  2  0  0  0  0  0  0
  196.3760  176.6380  135.0800 C   0  0  0  0  0  3  0  0  0  0  0  0
  196.5880  175.3160  137.1020 C   0  0  0  0  0  3  0  0  0  0  0  0
  194.3880  175.9120  136.2670 C   0  0  0  0  0  0  0  0  0  0  0  0
  195.1940  175.2690  137.2170 C   0  0  0  0  0  3  0  0  0  0  0  0
  194.9810  176.5910  135.1960 C   0  0  0  0  0  3  0  0  0  0  0  0
  197.1790  176.0020  136.0340 C   0  0  0  0  0  3  0  0  0  0  0  0
  191.3610  171.2490  141.6620 C   0  0  0  0  0  2  0  0  0  0  0  0
  191.5690  171.5730  140.1900 C   0  0  0  0  0  2  0  0  0  0  0  0
  190.7820  170.6450  139.3310 C   0  0  0  0  0  0  0  0  0  0  0  0
  190.0450  171.1120  138.4220 O   0  0  0  0  0  0  0  0  0  0  0  0
  190.8850  169.2710  139.5050 O   0  0  0  0  0  1  0  0  0  0  0  0
  188.8410  175.5880  146.1420 C   0  0  0  0  0  2  0  0  0  0  0  0
  188.6030  177.2880  146.7350 S   0  0  0  0  0  0  0  0  0  0  0  0
  187.4120  177.7840  144.2700 N   0  0  0  0  0  2  0  0  0  0  0  0
  186.0410  177.5780  146.1570 O   0  0  0  0  0  0  0  0  0  0  0  0
  185.1940  177.5100  143.5750 O   0  0  0  0  0  0  0  0  0  0  0  0
  186.3730  177.8680  143.2920 C   0  0  0  0  0  0  0  0  0  0  0  0
  187.2000  177.5640  145.6660 C   0  0  0  0  0  0  0  0  0  0  0  0
  186.7090  178.3540  141.9180 C   0  0  0  0  0  3  0  0  0  0  0  0
  188.1930  178.2010  141.6340 C   0  0  0  0  0  1  0  0  0  0  0  0
  185.8970  177.6340  140.8490 C   0  0  0  0  0  1  0  0  0  0  0  0
  2 16  1  0  0  0  0
  2  8  1  1  0  0  0
  3 12  1  1  0  0  0
  3  9  1  0  0  0  0
  4 18  1  1  0  0  0
  4 14  1  0  0  0  0
  5 18  1  0  0  0  0
  6 13  1  0  0  0  0
  9 54  1  1  0  0  0
  9  2  1  0  0  0  0
 10  1  1  1  0  0  0
 10 13  1  0  0  0  0
 10 16  1  0  0  0  0
 11 21  1  6  0  0  0
 11  4  1  0  0  0  0
 11 17  1  0  0  0  0
 12  7  2  0  0  0  0
 14  3  1  0  0  0  0
 15  5  1  1  0  0  0
 15 27  1  0  0  0  0
 15 22  1  0  0  0  0
 16 20  1  1  0  0  0
 17 12  1  0  0  0  0
 19 14  1  0  0  0  0
 22  6  1  0  0  0  0
 23 30  1  6  0  0  0
 23 28  1  0  0  0  0
 23 27  1  0  0  0  0
 24 26  2  0  0  0  0
 27 24  1  1  0  0  0
 28 25  1  1  0  0  0
 28 29  1  0  0  0  0
 29 24  1  0  0  0  0
 31 30  1  0  0  0  0
 32 34  1  0  0  0  0
 33 34  2  0  0  0  0
 34 31  1  0  0  0  0
 35 32  1  0  0  0  0
 36 35  2  0  0  0  0
 37 35  2  0  0  0  0
 38 35  1  0  0  0  0
 39 38  1  0  0  0  0
 39 40  1  0  0  0  0
 40 41  2  0  0  0  0
 42 40  1  0  0  0  0
 43 47  2  0  0  0  0
 43 48  1  0  0  0  0
 44 46  1  0  0  0  0
 45 42  1  0  0  0  0
 45 46  2  0  0  0  0
 47 45  1  0  0  0  0
 48 44  2  0  0  0  0
 49 11  1  0  0  0  0
 50 49  1  0  0  0  0
 51 53  1  0  0  0  0
 51 50  1  0  0  0  0
 52 51  2  0  0  0  0
 54 55  1  0  0  0  0
 56 60  1  0  0  0  0
 59 58  2  0  0  0  0
 59 56  1  0  0  0  0
 60 57  2  0  0  0  0
 60 55  1  0  0  0  0
 61 59  1  0  0  0  0
 62 61  1  0  0  0  0
 63 61  1  0  0  0  0
M  END
>  <MODEL>
6

>  <REMARK>
 VINA RESULT:      -6.1      2.741      9.756
  Name = 
  16 active torsions:
  status: ('A' for Active; 'I' for Inactive)
    1  A    between atoms: N_8  and  C_30
    2  A    between atoms: C_9  and  C_15
    3  A    between atoms: C_10  and  C_28
    4  A    between atoms: C_14  and  C_17
    5  A    between atoms: C_14  and  S_48
    6  A    between atoms: C_15  and  O_40
    7  A    between atoms: C_22  and  C_23
    8  A    between atoms: C_22  and  C_28
    9  A    between atoms: C_24  and  C_25
   10  A    between atoms: C_24  and  C_31
   11  A    between atoms: C_30  and  S_35
   12  A    between atoms: C_34  and  C_44
   13  A    between atoms: S_35  and  N_38
   14  A    between atoms: C_36  and  C_39
   15  A    between atoms: O_40  and  C_60
   16  A    between atoms: C_43  and  S_48
                            x       y       z     vdW  Elec       q    Type
                         _______ _______ _______ _____ _____    ______ ____

>  <TORSDO>
F 16

$$$$
=
 OpenBabel11072409363D

 63 66  0  0  1  0  0  0  0  0999 V2000
  193.9960  177.9160  146.3650 F   0  0  0  0  0  0  0  0  0  0  0  0
  191.1690  175.4970  146.2390 C   0  0  1  0  0  3  0  0  0  0  0  0
  190.0950  175.4050  143.9120 C   0  0  2  0  0  3  0  0  0  0  0  0
  191.8740  174.9440  142.1970 C   0  0  1  0  0  3  0  0  0  0  0  0
  194.0910  174.8650  142.2880 C   0  0  0  0  0  2  0  0  0  0  0  0
  194.3590  174.5700  145.3650 C   0  0  0  0  0  2  0  0  0  0  0  0
  189.3440  173.2770  144.7970 O   0  0  0  0  0  0  0  0  0  0  0  0
  190.6740  174.6880  147.2720 O   0  0  0  0  0  1  0  0  0  0  0  0
  190.0570  176.0150  145.3180 C   0  0  1  0  0  3  0  0  0  0  0  0
  193.3690  176.7210  146.0820 C   0  0  1  0  0  3  0  0  0  0  0  0
  190.8490  173.9480  141.6220 C   0  0  1  0  0  0  0  0  0  0  0  0
  189.8980  173.9030  143.8560 C   0  0  0  0  0  0  0  0  0  0  0  0
  194.2550  175.5590  146.5110 C   0  0  0  0  0  2  0  0  0  0  0  0
  191.2800  175.8900  143.1680 N   0  0  0  0  0  0  0  0  0  0  0  0
  195.3380  174.3770  143.0250 C   0  0  1  0  0  3  0  0  0  0  0  0
  192.0000  176.6800  146.7520 C   0  0  2  0  0  3  0  0  0  0  0  0
  190.2750  173.2210  142.7020 O   0  0  0  0  0  0  0  0  0  0  0  0
  192.9350  174.2570  142.7990 O   0  0  0  0  0  0  0  0  0  0  0  0
  190.8570  177.0520  142.4100 C   0  0  0  0  0  1  0  0  0  0  0  0
  192.0710  176.8120  148.2730 C   0  0  0  0  0  1  0  0  0  0  0  0
  189.8440  174.6560  140.9490 O   0  0  0  0  0  1  0  0  0  0  0  0
  195.4530  175.0160  144.4130 C   0  0  0  0  0  2  0  0  0  0  0  0
  195.9060  172.3390  141.5230 C   0  0  2  0  0  3  0  0  0  0  0  0
  196.6410  172.3190  143.7470 C   0  0  0  0  0  0  0  0  0  0  0  0
  197.4430  170.5080  141.0620 N   0  0  0  0  0  1  0  0  0  0  0  0
  196.6480  172.2630  145.0050 O   0  0  0  0  0  0  0  0  0  0  0  0
  195.5060  172.8370  142.9390 C   0  0  1  0  0  3  0  0  0  0  0  0
  197.3630  171.8470  141.6090 C   0  0  2  0  0  3  0  0  0  0  0  0
  197.6670  171.8050  142.9850 O   0  0  0  0  0  0  0  0  0  0  0  0
  195.7010  173.3500  140.3820 C   0  0  0  0  0  2  0  0  0  0  0  0
  195.7090  172.7070  139.1090 O   0  0  0  0  0  0  0  0  0  0  0  0
  195.0430  174.4430  137.5100 N   0  0  0  0  0  2  0  0  0  0  0  0
  194.0390  172.3340  137.5860 O   0  0  0  0  0  0  0  0  0  0  0  0
  194.9110  173.1230  138.0460 C   0  0  0  0  0  0  0  0  0  0  0  0
  194.0460  175.0070  136.2070 S   0  0  0  0  0  0  0  0  0  0  0  0
  192.7050  175.4160  136.7510 O   0  0  0  0  0  0  0  0  0  0  0  0
  194.7070  176.1940  135.5670 O   0  0  0  0  0  0  0  0  0  0  0  0
  193.8550  173.7310  134.9720 C   0  0  0  0  0  2  0  0  0  0  0  0
  192.4410  173.5260  134.7050 N   0  0  0  0  0  2  0  0  0  0  0  0
  191.8800  172.2200  134.5800 C   0  0  0  0  0  0  0  0  0  0  0  0
  192.6230  171.2080  134.5310 O   0  0  0  0  0  0  0  0  0  0  0  0
  190.4020  172.0530  134.5130 C   0  0  0  0  0  2  0  0  0  0  0  0
  188.9320  172.7330  137.9430 C   0  0  0  0  0  3  0  0  0  0  0  0
  188.6670  174.7190  136.5770 C   0  0  0  0  0  3  0  0  0  0  0  0
  189.7500  172.7500  135.6590 C   0  0  0  0  0  0  0  0  0  0  0  0
  189.2960  174.0680  135.5090 C   0  0  0  0  0  3  0  0  0  0  0  0
  189.5600  172.0820  136.8740 C   0  0  0  0  0  3  0  0  0  0  0  0
  188.4860  174.0510  137.7940 C   0  0  0  0  0  3  0  0  0  0  0  0
  191.5230  172.9890  140.6410 C   0  0  0  0  0  2  0  0  0  0  0  0
  191.2580  171.5430  141.0330 C   0  0  0  0  0  2  0  0  0  0  0  0
  191.7790  170.6140  139.9920 C   0  0  0  0  0  0  0  0  0  0  0  0
  190.9790  170.0720  139.1840 O   0  0  0  0  0  0  0  0  0  0  0  0
  193.1430  170.3730  139.8870 O   0  0  0  0  0  1  0  0  0  0  0  0
  188.6560  176.0010  145.9300 C   0  0  0  0  0  2  0  0  0  0  0  0
  188.5050  177.2840  147.2060 S   0  0  0  0  0  0  0  0  0  0  0  0
  186.8390  177.9810  145.0900 N   0  0  0  0  0  2  0  0  0  0  0  0
  186.0860  178.3470  147.2760 O   0  0  0  0  0  0  0  0  0  0  0  0
  184.5350  178.3930  145.0460 O   0  0  0  0  0  0  0  0  0  0  0  0
  185.6290  178.3340  144.4140 C   0  0  0  0  0  0  0  0  0  0  0  0
  186.9930  177.9290  146.5090 C   0  0  0  0  0  0  0  0  0  0  0  0
  185.6720  178.5980  142.9420 C   0  0  0  0  0  3  0  0  0  0  0  0
  187.1030  178.6250  142.4350 C   0  0  0  0  0  1  0  0  0  0  0  0
  184.8610  177.5730  142.1610 C   0  0  0  0  0  1  0  0  0  0  0  0
  2 16  1  0  0  0  0
  2  8  1  1  0  0  0
  3 12  1  1  0  0  0
  3  9  1  0  0  0  0
  4 18  1  1  0  0  0
  4 14  1  0  0  0  0
  5 18  1  0  0  0  0
  6 13  1  0  0  0  0
  9 54  1  1  0  0  0
  9  2  1  0  0  0  0
 10  1  1  1  0  0  0
 10 13  1  0  0  0  0
 10 16  1  0  0  0  0
 11 21  1  6  0  0  0
 11  4  1  0  0  0  0
 11 17  1  0  0  0  0
 12  7  2  0  0  0  0
 14  3  1  0  0  0  0
 15  5  1  1  0  0  0
 15 22  1  0  0  0  0
 16 20  1  1  0  0  0
 17 12  1  0  0  0  0
 19 14  1  0  0  0  0
 22  6  1  0  0  0  0
 23 30  1  6  0  0  0
 23 28  1  0  0  0  0
 23 27  1  0  0  0  0
 24 26  2  0  0  0  0
 27 15  1  0  0  0  0
 27 24  1  1  0  0  0
 28 25  1  1  0  0  0
 28 29  1  0  0  0  0
 29 24  1  0  0  0  0
 31 30  1  0  0  0  0
 32 34  1  0  0  0  0
 33 34  2  0  0  0  0
 34 31  1  0  0  0  0
 35 36  2  0  0  0  0
 35 32  1  0  0  0  0
 37 35  2  0  0  0  0
 38 35  1  0  0  0  0
 39 38  1  0  0  0  0
 40 39  1  0  0  0  0
 41 40  2  0  0  0  0
 42 40  1  0  0  0  0
 42 45  1  0  0  0  0
 44 48  2  0  0  0  0
 45 47  1  0  0  0  0
 46 45  2  0  0  0  0
 46 44  1  0  0  0  0
 47 43  2  0  0  0  0
 48 43  1  0  0  0  0
 49 50  1  0  0  0  0
 49 11  1  0  0  0  0
 51 50  1  0  0  0  0
 52 51  2  0  0  0  0
 53 51  1  0  0  0  0
 54 55  1  0  0  0  0
 56 60  1  0  0  0  0
 59 58  2  0  0  0  0
 59 56  1  0  0  0  0
 60 55  1  0  0  0  0
 60 57  2  0  0  0  0
 61 59  1  0  0  0  0
 62 61  1  0  0  0  0
 63 61  1  0  0  0  0
M  END
>  <MODEL>
7

>  <REMARK>
 VINA RESULT:      -5.8      2.521      9.460
  Name = 
  16 active torsions:
  status: ('A' for Active; 'I' for Inactive)
    1  A    between atoms: N_8  and  C_30
    2  A    between atoms: C_9  and  C_15
    3  A    between atoms: C_10  and  C_28
    4  A    between atoms: C_14  and  C_17
    5  A    between atoms: C_14  and  S_48
    6  A    between atoms: C_15  and  O_40
    7  A    between atoms: C_22  and  C_23
    8  A    between atoms: C_22  and  C_28
    9  A    between atoms: C_24  and  C_25
   10  A    between atoms: C_24  and  C_31
   11  A    between atoms: C_30  and  S_35
   12  A    between atoms: C_34  and  C_44
   13  A    between atoms: S_35  and  N_38
   14  A    between atoms: C_36  and  C_39
   15  A    between atoms: O_40  and  C_60
   16  A    between atoms: C_43  and  S_48
                            x       y       z     vdW  Elec       q    Type
                         _______ _______ _______ _____ _____    ______ ____

>  <TORSDO>
F 16

$$$$
=
 OpenBabel11072409363D

 63 66  0  0  1  0  0  0  0  0999 V2000
  195.5470  174.8240  142.3160 F   0  0  0  0  0  0  0  0  0  0  0  0
  196.1280  171.3660  141.0630 C   0  0  1  0  0  3  0  0  0  0  0  0
  194.1810  169.8020  141.6430 C   0  0  2  0  0  3  0  0  0  0  0  0
  192.0320  170.8120  140.8130 C   0  0  1  0  0  3  0  0  0  0  0  0
  191.5140  172.7940  139.9600 C   0  0  0  0  0  2  0  0  0  0  0  0
  194.3910  173.6760  139.2050 C   0  0  0  0  0  2  0  0  0  0  0  0
  195.1750  168.5620  139.8140 O   0  0  0  0  0  0  0  0  0  0  0  0
  197.2330  170.8770  140.3530 O   0  0  0  0  0  1  0  0  0  0  0  0
  195.5600  170.3350  142.0460 C   0  0  1  0  0  3  0  0  0  0  0  0
  195.4120  173.7530  141.4580 C   0  0  1  0  0  3  0  0  0  0  0  0
  191.7310  169.3860  140.3150 C   0  0  1  0  0  0  0  0  0  0  0  0
  194.1370  169.0600  140.3210 C   0  0  0  0  0  0  0  0  0  0  0  0
  195.5500  174.2250  140.0170 C   0  0  0  0  0  2  0  0  0  0  0  0
  193.1550  170.8620  141.7760 N   0  0  0  0  0  0  0  0  0  0  0  0
  191.8680  173.9140  138.9810 C   0  0  1  0  0  3  0  0  0  0  0  0
  196.4280  172.6720  141.8100 C   0  0  2  0  0  3  0  0  0  0  0  0
  192.9050  168.8660  139.7020 O   0  0  0  0  0  0  0  0  0  0  0  0
  192.3030  171.6580  139.7310 O   0  0  0  0  0  0  0  0  0  0  0  0
  192.5750  170.7250  143.0980 C   0  0  0  0  0  1  0  0  0  0  0  0
  197.8750  173.1550  141.7170 C   0  0  0  0  0  1  0  0  0  0  0  0
  191.3780  168.5800  141.4060 O   0  0  0  0  0  1  0  0  0  0  0  0
  193.1900  174.5900  139.3600 C   0  0  0  0  0  2  0  0  0  0  0  0
  190.2130  173.4320  137.0420 C   0  0  2  0  0  3  0  0  0  0  0  0
  192.2610  174.4480  136.5280 C   0  0  0  0  0  0  0  0  0  0  0  0
  189.4090  174.0790  134.8370 N   0  0  0  0  0  1  0  0  0  0  0  0
  193.4920  174.6320  136.3440 O   0  0  0  0  0  0  0  0  0  0  0  0
  191.6960  173.4770  137.5020 C   0  0  1  0  0  3  0  0  0  0  0  0
  190.0100  174.5940  136.0500 C   0  0  2  0  0  3  0  0  0  0  0  0
  191.3040  175.0730  135.7600 O   0  0  0  0  0  0  0  0  0  0  0  0
  189.1680  173.4440  138.1700 C   0  0  0  0  0  2  0  0  0  0  0  0
  188.0410  174.2480  137.8280 O   0  0  0  0  0  0  0  0  0  0  0  0
  187.9440  175.3190  140.0320 N   0  0  0  0  0  2  0  0  0  0  0  0
  186.7010  176.0680  138.2000 O   0  0  0  0  0  0  0  0  0  0  0  0
  187.5430  175.2480  138.6600 C   0  0  0  0  0  0  0  0  0  0  0  0
  187.3220  176.5310  141.1050 S   0  0  0  0  0  0  0  0  0  0  0  0
  186.3080  177.3680  140.3750 O   0  0  0  0  0  0  0  0  0  0  0  0
  186.6620  175.8550  142.2730 O   0  0  0  0  0  0  0  0  0  0  0  0
  188.6480  177.5570  141.7220 C   0  0  0  0  0  2  0  0  0  0  0  0
  189.6250  176.7250  142.4050 N   0  0  0  0  0  2  0  0  0  0  0  0
  190.6330  177.2840  143.2450 C   0  0  0  0  0  0  0  0  0  0  0  0
  190.8130  178.5260  143.2880 O   0  0  0  0  0  0  0  0  0  0  0  0
  191.4780  176.3870  144.0830 C   0  0  0  0  0  2  0  0  0  0  0  0
  189.3680  175.9530  147.2050 C   0  0  0  0  0  3  0  0  0  0  0  0
  189.6950  173.7800  146.1790 C   0  0  0  0  0  3  0  0  0  0  0  0
  190.6580  175.7600  145.1590 C   0  0  0  0  0  0  0  0  0  0  0  0
  190.4490  174.3750  145.1610 C   0  0  0  0  0  3  0  0  0  0  0  0
  190.1230  176.5470  146.1860 C   0  0  0  0  0  3  0  0  0  0  0  0
  189.1540  174.5700  147.2010 C   0  0  0  0  0  3  0  0  0  0  0  0
  190.5770  169.3990  139.3140 C   0  0  0  0  0  2  0  0  0  0  0  0
  190.9740  168.6980  138.0230 C   0  0  0  0  0  2  0  0  0  0  0  0
  191.3530  169.6920  136.9810 C   0  0  0  0  0  0  0  0  0  0  0  0
  192.5180  170.1730  136.9730 O   0  0  0  0  0  1  0  0  0  0  0  0
  190.4410  170.0640  136.0010 O   0  0  0  0  0  0  0  0  0  0  0  0
  196.5300  169.2220  142.4410 C   0  0  0  0  0  2  0  0  0  0  0  0
  196.1790  168.6390  144.1250 S   0  0  0  0  0  0  0  0  0  0  0  0
  195.7950  171.2270  145.0710 N   0  0  0  0  0  2  0  0  0  0  0  0
  197.9410  170.2970  145.1900 O   0  0  0  0  0  0  0  0  0  0  0  0
  197.1150  172.5320  146.4970 O   0  0  0  0  0  0  0  0  0  0  0  0
  196.0750  172.4340  145.7850 C   0  0  0  0  0  0  0  0  0  0  0  0
  196.7310  170.1660  144.8680 C   0  0  0  0  0  0  0  0  0  0  0  0
  195.1000  173.5650  145.7040 C   0  0  0  0  0  3  0  0  0  0  0  0
  195.7900  174.8490  145.2760 C   0  0  0  0  0  1  0  0  0  0  0  0
  193.9480  173.2530  144.7590 C   0  0  0  0  0  1  0  0  0  0  0  0
  2  8  1  1  0  0  0
  2 16  1  0  0  0  0
  2  9  1  0  0  0  0
  3 12  1  6  0  0  0
  3 14  1  0  0  0  0
  3  9  1  0  0  0  0
  4 18  1  6  0  0  0
  4 14  1  0  0  0  0
  6 22  1  0  0  0  0
  6 13  1  0  0  0  0
  7 12  2  0  0  0  0
  9 54  1  6  0  0  0
 10 16  1  0  0  0  0
 10  1  1  1  0  0  0
 11  4  1  0  0  0  0
 11 21  1  1  0  0  0
 13 10  1  0  0  0  0
 14 19  1  0  0  0  0
 15 22  1  6  0  0  0
 15  5  1  0  0  0  0
 16 20  1  6  0  0  0
 17 11  1  0  0  0  0
 17 12  1  0  0  0  0
 18  5  1  0  0  0  0
 23 27  1  0  0  0  0
 23 30  1  1  0  0  0
 26 24  2  0  0  0  0
 27 24  1  6  0  0  0
 27 15  1  0  0  0  0
 28 25  1  6  0  0  0
 28 23  1  0  0  0  0
 29 28  1  0  0  0  0
 29 24  1  0  0  0  0
 31 30  1  0  0  0  0
 31 34  1  0  0  0  0
 32 35  1  0  0  0  0
 33 34  2  0  0  0  0
 34 32  1  0  0  0  0
 35 38  1  0  0  0  0
 35 37  2  0  0  0  0
 36 35  2  0  0  0  0
 38 39  1  0  0  0  0
 39 40  1  0  0  0  0
 40 41  2  0  0  0  0
 40 42  1  0  0  0  0
 42 45  1  0  0  0  0
 44 48  2  0  0  0  0
 45 46  2  0  0  0  0
 45 47  1  0  0  0  0
 46 44  1  0  0  0  0
 47 43  2  0  0  0  0
 48 43  1  0  0  0  0
 49 11  1  0  0  0  0
 50 49  1  0  0  0  0
 51 50  1  0  0  0  0
 52 51  1  0  0  0  0
 53 51  2  0  0  0  0
 54 55  1  0  0  0  0
 55 60  1  0  0  0  0
 56 59  1  0  0  0  0
 59 58  2  0  0  0  0
 60 56  1  0  0  0  0
 60 57  2  0  0  0  0
 61 59  1  0  0  0  0
 62 61  1  0  0  0  0
 63 61  1  0  0  0  0
M  END
>  <MODEL>
8

>  <REMARK>
 VINA RESULT:      -5.7      3.161      7.321
  Name = 
  16 active torsions:
  status: ('A' for Active; 'I' for Inactive)
    1  A    between atoms: N_8  and  C_30
    2  A    between atoms: C_9  and  C_15
    3  A    between atoms: C_10  and  C_28
    4  A    between atoms: C_14  and  C_17
    5  A    between atoms: C_14  and  S_48
    6  A    between atoms: C_15  and  O_40
    7  A    between atoms: C_22  and  C_23
    8  A    between atoms: C_22  and  C_28
    9  A    between atoms: C_24  and  C_25
   10  A    between atoms: C_24  and  C_31
   11  A    between atoms: C_30  and  S_35
   12  A    between atoms: C_34  and  C_44
   13  A    between atoms: S_35  and  N_38
   14  A    between atoms: C_36  and  C_39
   15  A    between atoms: O_40  and  C_60
   16  A    between atoms: C_43  and  S_48
                            x       y       z     vdW  Elec       q    Type
                         _______ _______ _______ _____ _____    ______ ____

>  <TORSDO>
F 16

$$$$
=
 OpenBabel11072409363D

 63 66  0  0  1  0  0  0  0  0999 V2000
  194.0140  175.5170  143.7820 F   0  0  0  0  0  0  0  0  0  0  0  0
  195.3960  173.1080  141.3020 C   0  0  1  0  0  3  0  0  0  0  0  0
  194.8300  170.6820  141.9110 C   0  0  2  0  0  3  0  0  0  0  0  0
  192.3450  170.4670  142.2280 C   0  0  1  0  0  3  0  0  0  0  0  0
  190.6900  171.9430  142.3270 C   0  0  0  0  0  2  0  0  0  0  0  0
  192.1950  174.3240  141.0260 C   0  0  0  0  0  2  0  0  0  0  0  0
  195.3050  170.4140  139.5500 O   0  0  0  0  0  0  0  0  0  0  0  0
  196.1410  173.3850  140.1480 O   0  0  0  0  0  1  0  0  0  0  0  0
  195.8530  171.8200  141.9990 C   0  0  1  0  0  3  0  0  0  0  0  0
  193.9830  174.6590  142.7030 C   0  0  1  0  0  3  0  0  0  0  0  0
  192.5030  169.1790  141.3980 C   0  0  1  0  0  0  0  0  0  0  0  0
  194.5150  170.2050  140.5060 C   0  0  0  0  0  0  0  0  0  0  0  0
  193.2260  175.3060  141.5510 C   0  0  0  0  0  2  0  0  0  0  0  0
  193.6340  170.9950  142.7270 N   0  0  0  0  0  0  0  0  0  0  0  0
  190.0310  173.1890  141.7330 C   0  0  1  0  0  3  0  0  0  0  0  0
  195.4020  174.2640  142.3100 C   0  0  2  0  0  3  0  0  0  0  0  0
  193.3600  169.4560  140.2970 O   0  0  0  0  0  0  0  0  0  0  0  0
  191.6930  171.4520  141.4770 O   0  0  0  0  0  0  0  0  0  0  0  0
  193.8470  170.4030  144.0340 C   0  0  0  0  0  1  0  0  0  0  0  0
  196.2730  175.4590  141.9210 C   0  0  0  0  0  1  0  0  0  0  0  0
  193.0780  168.1810  142.1980 O   0  0  0  0  0  1  0  0  0  0  0  0
  190.9360  174.4180  141.8670 C   0  0  0  0  0  2  0  0  0  0  0  0
  188.1330  173.7540  140.0570 C   0  0  2  0  0  3  0  0  0  0  0  0
  190.2790  173.3480  139.2100 C   0  0  0  0  0  0  0  0  0  0  0  0
  187.5320  174.7180  137.9040 N   0  0  0  0  0  1  0  0  0  0  0  0
  191.3400  172.7630  138.8670 O   0  0  0  0  0  0  0  0  0  0  0  0
  189.4120  172.9170  140.3370 C   0  0  1  0  0  3  0  0  0  0  0  0
  188.4980  174.7940  138.9810 C   0  0  2  0  0  3  0  0  0  0  0  0
  189.7640  174.4080  138.4960 O   0  0  0  0  0  0  0  0  0  0  0  0
  187.4810  174.4000  141.2900 C   0  0  0  0  0  2  0  0  0  0  0  0
  187.8170  175.7820  141.3930 O   0  0  0  0  0  0  0  0  0  0  0  0
  186.4780  176.9940  143.0530 N   0  0  0  0  0  2  0  0  0  0  0  0
  186.3630  177.4360  140.7610 O   0  0  0  0  0  0  0  0  0  0  0  0
  186.8820  176.7690  141.6990 C   0  0  0  0  0  0  0  0  0  0  0  0
  185.2950  178.1920  143.4690 S   0  0  0  0  0  0  0  0  0  0  0  0
  185.8460  179.5580  143.1680 O   0  0  0  0  0  0  0  0  0  0  0  0
  184.0590  177.9610  142.6460 O   0  0  0  0  0  0  0  0  0  0  0  0
  184.8570  178.0630  145.1950 C   0  0  0  0  0  2  0  0  0  0  0  0
  185.9950  178.4530  146.0120 N   0  0  0  0  0  2  0  0  0  0  0  0
  186.8310  177.4860  146.6480 C   0  0  0  0  0  0  0  0  0  0  0  0
  186.5100  176.2720  146.6580 O   0  0  0  0  0  0  0  0  0  0  0  0
  188.0970  177.9200  147.3000 C   0  0  0  0  0  2  0  0  0  0  0  0
  190.4420  176.9210  144.4910 C   0  0  0  0  0  3  0  0  0  0  0  0
  191.3880  176.1740  146.5950 C   0  0  0  0  0  3  0  0  0  0  0  0
  189.2730  177.3630  146.5700 C   0  0  0  0  0  0  0  0  0  0  0  0
  190.2920  176.7130  147.2790 C   0  0  0  0  0  3  0  0  0  0  0  0
  189.3460  177.4600  145.1750 C   0  0  0  0  0  3  0  0  0  0  0  0
  191.4620  176.2780  145.2010 C   0  0  0  0  0  3  0  0  0  0  0  0
  191.1440  168.6910  140.8980 C   0  0  0  0  0  2  0  0  0  0  0  0
  190.4770  169.7500  140.0320 C   0  0  0  0  0  2  0  0  0  0  0  0
  190.4940  169.3430  138.5990 C   0  0  0  0  0  0  0  0  0  0  0  0
  189.6940  169.8830  137.7890 O   0  0  0  0  0  0  0  0  0  0  0  0
  191.4100  168.4010  138.1490 O   0  0  0  0  0  1  0  0  0  0  0  0
  197.2700  171.3680  141.6480 C   0  0  0  0  0  2  0  0  0  0  0  0
  197.5610  169.6730  142.2340 S   0  0  0  0  0  0  0  0  0  0  0  0
  197.2920  171.5190  144.2980 N   0  0  0  0  0  2  0  0  0  0  0  0
  197.3580  169.2410  144.8330 O   0  0  0  0  0  0  0  0  0  0  0  0
  196.5650  171.2310  146.5040 O   0  0  0  0  0  0  0  0  0  0  0  0
  197.0010  172.0110  145.6090 C   0  0  0  0  0  0  0  0  0  0  0  0
  197.3840  170.1370  143.9490 C   0  0  0  0  0  0  0  0  0  0  0  0
  197.1870  173.4670  145.8940 C   0  0  0  0  0  3  0  0  0  0  0  0
  197.9400  174.1510  144.7660 C   0  0  0  0  0  1  0  0  0  0  0  0
  195.8570  174.1700  146.1350 C   0  0  0  0  0  1  0  0  0  0  0  0
  2  8  1  6  0  0  0
  2  9  1  0  0  0  0
  2 16  1  0  0  0  0
  3 12  1  6  0  0  0
  3  9  1  0  0  0  0
  3 14  1  0  0  0  0
  4 18  1  6  0  0  0
  4 14  1  0  0  0  0
  6 13  1  0  0  0  0
  6 22  1  0  0  0  0
  7 12  2  0  0  0  0
  9 54  1  6  0  0  0
 10  1  1  1  0  0  0
 11 21  1  1  0  0  0
 11  4  1  0  0  0  0
 13 10  1  0  0  0  0
 14 19  1  0  0  0  0
 15 22  1  6  0  0  0
 15  5  1  0  0  0  0
 16 20  1  6  0  0  0
 16 10  1  0  0  0  0
 17 12  1  0  0  0  0
 17 11  1  0  0  0  0
 18  5  1  0  0  0  0
 23 27  1  0  0  0  0
 23 30  1  1  0  0  0
 26 24  2  0  0  0  0
 27 24  1  6  0  0  0
 27 15  1  0  0  0  0
 28 25  1  6  0  0  0
 28 23  1  0  0  0  0
 29 28  1  0  0  0  0
 29 24  1  0  0  0  0
 30 31  1  0  0  0  0
 31 34  1  0  0  0  0
 32 35  1  0  0  0  0
 33 34  2  0  0  0  0
 34 32  1  0  0  0  0
 35 38  1  0  0  0  0
 36 35  2  0  0  0  0
 37 35  2  0  0  0  0
 38 39  1  0  0  0  0
 39 40  1  0  0  0  0
 40 41  2  0  0  0  0
 40 42  1  0  0  0  0
 43 47  2  0  0  0  0
 43 48  1  0  0  0  0
 44 46  1  0  0  0  0
 45 46  2  0  0  0  0
 45 42  1  0  0  0  0
 47 45  1  0  0  0  0
 48 44  2  0  0  0  0
 49 11  1  0  0  0  0
 50 49  1  0  0  0  0
 51 50  1  0  0  0  0
 52 51  2  0  0  0  0
 53 51  1  0  0  0  0
 54 55  1  0  0  0  0
 55 60  1  0  0  0  0
 56 59  1  0  0  0  0
 59 61  1  0  0  0  0
 59 58  2  0  0  0  0
 60 56  1  0  0  0  0
 60 57  2  0  0  0  0
 61 63  1  0  0  0  0
 62 61  1  0  0  0  0
M  END
>  <MODEL>
9

>  <REMARK>
 VINA RESULT:      -5.3      2.908      6.632
  Name = 
  16 active torsions:
  status: ('A' for Active; 'I' for Inactive)
    1  A    between atoms: N_8  and  C_30
    2  A    between atoms: C_9  and  C_15
    3  A    between atoms: C_10  and  C_28
    4  A    between atoms: C_14  and  C_17
    5  A    between atoms: C_14  and  S_48
    6  A    between atoms: C_15  and  O_40
    7  A    between atoms: C_22  and  C_23
    8  A    between atoms: C_22  and  C_28
    9  A    between atoms: C_24  and  C_25
   10  A    between atoms: C_24  and  C_31
   11  A    between atoms: C_30  and  S_35
   12  A    between atoms: C_34  and  C_44
   13  A    between atoms: S_35  and  N_38
   14  A    between atoms: C_36  and  C_39
   15  A    between atoms: O_40  and  C_60
   16  A    between atoms: C_43  and  S_48
                            x       y       z     vdW  Elec       q    Type
                         _______ _______ _______ _____ _____    ______ ____

>  <TORSDO>
F 16

$$$$
