=
 OpenBabel11062423083D

 57 62  0  0  1  0  0  0  0  0999 V2000
  186.2540  176.7510  144.0510 C   0  0  0  0  0  0  0  0  0  0  0  0
  186.3730  175.5040  143.9050 O   0  0  0  0  0  0  0  0  0  0  0  0
  186.5020  177.6190  142.9300 N   0  0  0  0  0  0  0  0  0  0  0  0
  186.6430  178.2040  147.5500 C   0  0  0  0  0  3  0  0  0  0  0  0
  185.9710  177.3080  145.3910 C   0  0  0  0  0  0  0  0  0  0  0  0
  185.3410  178.6540  147.7780 C   0  0  0  0  0  3  0  0  0  0  0  0
  186.9760  177.5210  146.3700 C   0  0  0  0  0  0  0  0  0  0  0  0
  184.6660  177.7560  145.6420 C   0  0  0  0  0  3  0  0  0  0  0  0
  184.3500  178.4190  146.8290 C   0  0  0  0  0  3  0  0  0  0  0  0
  188.3520  176.9830  146.2590 C   0  0  0  0  0  0  0  0  0  0  0  0
  189.3080  177.7630  146.0040 O   0  0  0  0  0  0  0  0  0  0  0  0
  188.6580  175.5500  146.5390 C   0  0  0  0  0  2  0  0  0  0  0  0
  190.0300  175.4290  147.1800 C   0  0  0  0  0  2  0  0  0  0  0  0
  191.0230  174.8420  146.2000 C   0  0  0  0  0  2  0  0  0  0  0  0
  192.4400  174.9750  146.7340 C   0  0  0  0  0  2  0  0  0  0  0  0
  195.7210  176.7420  143.8650 O   0  0  0  0  0  1  0  0  0  0  0  0
  194.5780  176.1960  146.4600 C   0  0  0  0  0  2  0  0  0  0  0  0
  196.5490  173.9190  144.0240 C   0  0  1  0  0  3  0  0  0  0  0  0
  194.9280  175.5910  143.8940 C   0  0  2  0  0  3  0  0  0  0  0  0
  194.5410  175.1920  145.3260 C   0  0  1  0  0  0  0  0  0  0  0  0
  196.8340  173.6360  146.4440 O   0  0  0  0  0  1  0  0  0  0  0  0
  194.6620  173.8320  145.6670 O   0  0  0  0  0  0  0  0  0  0  0  0
  195.9750  173.3940  145.3690 C   0  0  1  0  0  3  0  0  0  0  0  0
  195.5540  174.5220  143.2090 O   0  0  0  0  0  0  0  0  0  0  0  0
  193.2510  175.8560  145.7980 C   0  0  1  0  0  3  0  0  0  0  0  0
  197.6230  174.7960  144.2230 O   0  0  0  0  0  1  0  0  0  0  0  0
  187.4010  177.2660  141.9390 O   0  0  0  0  0  0  0  0  0  0  0  0
  190.9560  177.5370  142.9080 C   0  0  0  0  0  3  0  0  0  0  0  0
  191.3820  176.2130  142.7600 C   0  0  0  0  0  3  0  0  0  0  0  0
  189.1560  175.5790  142.0780 C   0  0  0  0  0  3  0  0  0  0  0  0
  190.4780  175.2300  142.3480 C   0  0  0  0  0  0  0  0  0  0  0  0
  189.6290  177.8800  142.6390 C   0  0  0  0  0  3  0  0  0  0  0  0
  188.7260  176.9060  142.2090 C   0  0  0  0  0  0  0  0  0  0  0  0
  192.4620  173.4450  142.4970 O   0  0  0  0  0  0  0  0  0  0  0  0
  190.2380  172.7090  143.1710 O   0  0  0  0  0  0  0  0  0  0  0  0
  190.9940  173.5590  142.1890 S   0  0  0  0  0  0  0  0  0  0  0  0
  189.6270  171.9990  140.3950 C   0  0  0  0  0  2  0  0  0  0  0  0
  191.2840  172.9250  138.0670 C   0  0  2  0  0  0  0  0  0  0  0  0
  191.9630  170.9500  135.5370 C   0  0  0  0  0  0  0  0  0  0  0  0
  190.7230  170.5730  135.8720 C   0  0  0  0  0  3  0  0  0  0  0  0
  191.5400  173.3910  139.4870 C   0  0  0  0  0  0  0  0  0  0  0  0
  193.3650  171.4090  138.1300 C   0  0  0  0  0  1  0  0  0  0  0  0
  192.6280  172.5330  137.4090 C   0  0  1  0  0  3  0  0  0  0  0  0
  190.7350  174.0050  137.3660 O   0  0  0  0  0  1  0  0  0  0  0  0
  190.2910  171.7370  138.0380 C   0  0  2  0  0  3  0  0  0  0  0  0
  192.4790  174.2050  139.7030 O   0  0  0  0  0  0  0  0  0  0  0  0
  189.7700  171.4420  136.6330 C   0  0  0  0  0  2  0  0  0  0  0  0
  189.1150  171.9850  138.9650 C   0  0  0  0  0  2  0  0  0  0  0  0
  190.6780  172.9980  140.5750 N   0  0  0  0  0  0  0  0  0  0  0  0
  192.9720  169.8330  134.6380 Cl  0  0  0  0  0  0  0  0  0  0  0  0
  192.5290  172.2960  135.8980 C   0  0  0  0  0  2  0  0  0  0  0  0
  185.5950  178.7310  142.6720 C   0  0  0  0  0  2  0  0  0  0  0  0
  184.2720  178.2330  142.1010 C   0  0  1  0  0  3  0  0  0  0  0  0
  183.2220  178.7720  142.8260 F   0  0  0  0  0  0  0  0  0  0  0  0
  185.3640  178.6180  140.0170 F   0  0  0  0  0  0  0  0  0  0  0  0
  184.1250  178.6010  140.6310 C   0  0  0  0  0  3  0  0  0  0  0  0
  183.2950  177.7020  139.9840 F   0  0  0  0  0  0  0  0  0  0  0  0
  1  5  1  0  0  0  0
  2  1  2  0  0  0  0
  3  1  1  0  0  0  0
  4  6  1  0  0  0  0
  5  8  2  0  0  0  0
  5  7  1  0  0  0  0
  7  4  2  0  0  0  0
  8  9  1  0  0  0  0
  9  6  2  0  0  0  0
 10  7  1  0  0  0  0
 10 12  1  0  0  0  0
 11 10  2  0  0  0  0
 12 13  1  0  0  0  0
 14 15  1  0  0  0  0
 14 13  1  0  0  0  0
 18 26  1  1  0  0  0
 18 23  1  0  0  0  0
 19 16  1  1  0  0  0
 19 20  1  0  0  0  0
 20 22  1  0  0  0  0
 20 25  1  0  0  0  0
 20 17  1  1  0  0  0
 23 22  1  0  0  0  0
 23 21  1  1  0  0  0
 24 19  1  0  0  0  0
 24 18  1  0  0  0  0
 25 17  1  0  0  0  0
 25 15  1  1  0  0  0
 27 33  1  0  0  0  0
 27  3  1  0  0  0  0
 29 28  1  0  0  0  0
 30 33  2  0  0  0  0
 30 31  1  0  0  0  0
 31 29  2  0  0  0  0
 32 28  2  0  0  0  0
 33 32  1  0  0  0  0
 36 31  1  0  0  0  0
 36 34  2  0  0  0  0
 36 35  2  0  0  0  0
 37 49  1  0  0  0  0
 38 44  1  6  0  0  0
 38 41  1  0  0  0  0
 39 40  2  0  0  0  0
 39 51  1  0  0  0  0
 40 47  1  0  0  0  0
 41 46  2  0  0  0  0
 41 49  1  0  0  0  0
 43 38  1  0  0  0  0
 43 42  1  1  0  0  0
 45 47  1  6  0  0  0
 45 38  1  0  0  0  0
 45 48  1  0  0  0  0
 48 37  1  0  0  0  0
 49 36  1  0  0  0  0
 50 39  1  0  0  0  0
 51 43  1  0  0  0  0
 52  3  1  0  0  0  0
 53 52  1  0  0  0  0
 53 54  1  1  0  0  0
 55 56  1  0  0  0  0
 56 53  1  0  0  0  0
 57 56  1  0  0  0  0
M  END
>  <MODEL>
1

>  <REMARK>
 VINA RESULT:      -8.9      0.000      0.000
  Name = 
  14 active torsions:
  status: ('A' for Active; 'I' for Inactive)
    1  A    between atoms: C_6  and  C_21
    2  A    between atoms: C_8  and  C_32
    3  A    between atoms: C_8  and  C_45
    4  A    between atoms: C_11  and  C_14
    5  A    between atoms: C_14  and  C_57
    6  A    between atoms: O_31  and  C_50
    7  A    between atoms: O_31  and  N_56
    8  A    between atoms: C_40  and  S_42
    9  A    between atoms: S_42  and  N_48
   10  A    between atoms: C_44  and  C_45
   11  A    between atoms: C_44  and  C_46
   12  A    between atoms: C_46  and  C_54
   13  A    between atoms: C_52  and  C_54
   14  A    between atoms: N_56  and  C_57
                            x       y       z     vdW  Elec       q    Type
                         _______ _______ _______ _____ _____    ______ ____

>  <TORSDO>
F 14

$$$$
=
 OpenBabel11062423083D

 57 62  0  0  1  0  0  0  0  0999 V2000
  192.8380  173.3470  144.7210 C   0  0  0  0  0  0  0  0  0  0  0  0
  193.0820  172.1550  145.0530 O   0  0  0  0  0  0  0  0  0  0  0  0
  193.6450  173.9770  143.7110 N   0  0  0  0  0  0  0  0  0  0  0  0
  189.5180  174.5180  146.1770 C   0  0  0  0  0  3  0  0  0  0  0  0
  191.8040  174.1130  145.4490 C   0  0  0  0  0  0  0  0  0  0  0  0
  189.9730  175.4420  147.1200 C   0  0  0  0  0  3  0  0  0  0  0  0
  190.4150  173.8520  145.3260 C   0  0  0  0  0  0  0  0  0  0  0  0
  192.2420  175.0540  146.3930 C   0  0  0  0  0  3  0  0  0  0  0  0
  191.3340  175.7180  147.2200 C   0  0  0  0  0  3  0  0  0  0  0  0
  189.8380  172.9730  144.2830 C   0  0  0  0  0  0  0  0  0  0  0  0
  189.3850  171.8410  144.6020 O   0  0  0  0  0  0  0  0  0  0  0  0
  189.6860  173.4280  142.8700 C   0  0  0  0  0  2  0  0  0  0  0  0
  188.2460  173.8360  142.6100 C   0  0  0  0  0  2  0  0  0  0  0  0
  188.1920  175.0280  141.6780 C   0  0  0  0  0  2  0  0  0  0  0  0
  187.2920  176.1110  142.2500 C   0  0  0  0  0  2  0  0  0  0  0  0
  187.0800  177.2440  146.8100 O   0  0  0  0  0  1  0  0  0  0  0  0
  187.8970  177.6750  144.0740 C   0  0  0  0  0  2  0  0  0  0  0  0
  184.4990  178.2790  145.8340 C   0  0  1  0  0  3  0  0  0  0  0  0
  186.2040  176.6880  145.8720 C   0  0  2  0  0  3  0  0  0  0  0  0
  186.5270  177.1410  144.4410 C   0  0  1  0  0  0  0  0  0  0  0  0
  185.2330  179.8080  144.0610 O   0  0  0  0  0  1  0  0  0  0  0  0
  185.4440  177.5420  143.6360 O   0  0  0  0  0  0  0  0  0  0  0  0
  184.7040  178.5400  144.3160 C   0  0  1  0  0  3  0  0  0  0  0  0
  184.8560  176.9570  146.2100 O   0  0  0  0  0  0  0  0  0  0  0  0
  187.5380  176.2340  143.7450 C   0  0  1  0  0  3  0  0  0  0  0  0
  185.1810  179.2170  146.6200 O   0  0  0  0  0  1  0  0  0  0  0  0
  194.9690  173.6160  143.5260 O   0  0  0  0  0  0  0  0  0  0  0  0
  196.9930  173.4060  140.4420 C   0  0  0  0  0  3  0  0  0  0  0  0
  196.4800  172.2450  139.8560 C   0  0  0  0  0  3  0  0  0  0  0  0
  194.9670  171.9810  141.7170 C   0  0  0  0  0  3  0  0  0  0  0  0
  195.4660  171.5280  140.4970 C   0  0  0  0  0  0  0  0  0  0  0  0
  196.4900  173.8550  141.6660 C   0  0  0  0  0  3  0  0  0  0  0  0
  195.4650  173.1520  142.3030 C   0  0  0  0  0  0  0  0  0  0  0  0
  195.8690  169.4360  138.8820 O   0  0  0  0  0  0  0  0  0  0  0  0
  194.5200  169.0680  140.8770 O   0  0  0  0  0  0  0  0  0  0  0  0
  194.8360  170.0500  139.7850 S   0  0  0  0  0  0  0  0  0  0  0  0
  193.5120  170.5570  137.4380 C   0  0  0  0  0  2  0  0  0  0  0  0
  190.8800  170.9920  138.8180 C   0  0  2  0  0  0  0  0  0  0  0  0
  188.6640  173.1270  137.6800 C   0  0  0  0  0  0  0  0  0  0  0  0
  189.2030  172.6430  136.5540 C   0  0  0  0  0  3  0  0  0  0  0  0
  192.1580  170.6900  139.5760 C   0  0  0  0  0  0  0  0  0  0  0  0
  190.9540  173.4570  139.5620 C   0  0  0  0  0  1  0  0  0  0  0  0
  190.1440  172.1660  139.5080 C   0  0  1  0  0  3  0  0  0  0  0  0
  190.0730  169.8500  138.8880 O   0  0  0  0  0  1  0  0  0  0  0  0
  191.1730  171.3230  137.3340 C   0  0  2  0  0  3  0  0  0  0  0  0
  192.1180  170.6100  140.8350 O   0  0  0  0  0  0  0  0  0  0  0  0
  189.9110  171.3260  136.4740 C   0  0  0  0  0  2  0  0  0  0  0  0
  192.1760  170.3480  136.7460 C   0  0  0  0  0  2  0  0  0  0  0  0
  193.3910  170.4030  138.8860 N   0  0  0  0  0  0  0  0  0  0  0  0
  187.8570  174.6830  137.6300 Cl  0  0  0  0  0  0  0  0  0  0  0  0
  188.7180  172.3890  138.9900 C   0  0  0  0  0  2  0  0  0  0  0  0
  193.0010  174.7820  142.6790 C   0  0  0  0  0  2  0  0  0  0  0  0
  193.3470  176.2570  142.8440 C   0  0  1  0  0  3  0  0  0  0  0  0
  193.9830  176.7150  141.7010 F   0  0  0  0  0  0  0  0  0  0  0  0
  190.9700  176.3110  143.0140 F   0  0  0  0  0  0  0  0  0  0  0  0
  192.1060  177.0950  143.1140 C   0  0  0  0  0  3  0  0  0  0  0  0
  192.1680  177.6690  144.3720 F   0  0  0  0  0  0  0  0  0  0  0  0
  1  2  2  0  0  0  0
  1  5  1  0  0  0  0
  3  1  1  0  0  0  0
  4  6  1  0  0  0  0
  5  8  2  0  0  0  0
  6  9  2  0  0  0  0
  7  5  1  0  0  0  0
  7  4  2  0  0  0  0
  8  9  1  0  0  0  0
 10 11  2  0  0  0  0
 10  7  1  0  0  0  0
 12 10  1  0  0  0  0
 13 12  1  0  0  0  0
 14 15  1  0  0  0  0
 14 13  1  0  0  0  0
 18 24  1  0  0  0  0
 18 26  1  1  0  0  0
 19 24  1  0  0  0  0
 19 16  1  1  0  0  0
 20 17  1  1  0  0  0
 20 19  1  0  0  0  0
 22 23  1  0  0  0  0
 22 20  1  0  0  0  0
 23 21  1  1  0  0  0
 23 18  1  0  0  0  0
 25 15  1  6  0  0  0
 25 17  1  0  0  0  0
 25 20  1  0  0  0  0
 27  3  1  0  0  0  0
 28 32  1  0  0  0  0
 29 28  2  0  0  0  0
 29 31  1  0  0  0  0
 30 33  1  0  0  0  0
 31 30  2  0  0  0  0
 32 33  2  0  0  0  0
 33 27  1  0  0  0  0
 34 36  2  0  0  0  0
 36 31  1  0  0  0  0
 36 35  2  0  0  0  0
 37 49  1  0  0  0  0
 38 44  1  1  0  0  0
 38 43  1  0  0  0  0
 38 41  1  0  0  0  0
 39 51  1  0  0  0  0
 40 39  2  0  0  0  0
 41 46  2  0  0  0  0
 43 42  1  6  0  0  0
 45 47  1  6  0  0  0
 45 38  1  0  0  0  0
 47 40  1  0  0  0  0
 48 45  1  0  0  0  0
 48 37  1  0  0  0  0
 49 41  1  0  0  0  0
 49 36  1  0  0  0  0
 50 39  1  0  0  0  0
 51 43  1  0  0  0  0
 52 53  1  0  0  0  0
 52  3  1  0  0  0  0
 53 54  1  6  0  0  0
 53 56  1  0  0  0  0
 55 56  1  0  0  0  0
 56 57  1  0  0  0  0
M  END
>  <MODEL>
2

>  <REMARK>
 VINA RESULT:      -8.8      3.269      7.356
  Name = 
  14 active torsions:
  status: ('A' for Active; 'I' for Inactive)
    1  A    between atoms: C_6  and  C_21
    2  A    between atoms: C_8  and  C_32
    3  A    between atoms: C_8  and  C_45
    4  A    between atoms: C_11  and  C_14
    5  A    between atoms: C_14  and  C_57
    6  A    between atoms: O_31  and  C_50
    7  A    between atoms: O_31  and  N_56
    8  A    between atoms: C_40  and  S_42
    9  A    between atoms: S_42  and  N_48
   10  A    between atoms: C_44  and  C_45
   11  A    between atoms: C_44  and  C_46
   12  A    between atoms: C_46  and  C_54
   13  A    between atoms: C_52  and  C_54
   14  A    between atoms: N_56  and  C_57
                            x       y       z     vdW  Elec       q    Type
                         _______ _______ _______ _____ _____    ______ ____

>  <TORSDO>
F 14

$$$$
=
 OpenBabel11062423083D

 57 62  0  0  1  0  0  0  0  0999 V2000
  188.1290  175.8400  143.6260 C   0  0  0  0  0  0  0  0  0  0  0  0
  188.2140  174.6170  143.3270 O   0  0  0  0  0  0  0  0  0  0  0  0
  188.8700  176.8070  142.8600 N   0  0  0  0  0  0  0  0  0  0  0  0
  187.1630  176.8150  147.1800 C   0  0  0  0  0  3  0  0  0  0  0  0
  187.3620  176.2500  144.8210 C   0  0  0  0  0  0  0  0  0  0  0  0
  185.8890  177.3400  146.9550 C   0  0  0  0  0  3  0  0  0  0  0  0
  187.9100  176.2560  146.1300 C   0  0  0  0  0  0  0  0  0  0  0  0
  186.0750  176.7700  144.6170 C   0  0  0  0  0  3  0  0  0  0  0  0
  185.3410  177.3070  145.6760 C   0  0  0  0  0  3  0  0  0  0  0  0
  189.2040  175.6230  146.4770 C   0  0  0  0  0  0  0  0  0  0  0  0
  190.1240  176.3200  146.9840 O   0  0  0  0  0  0  0  0  0  0  0  0
  189.4200  174.1540  146.3360 C   0  0  0  0  0  2  0  0  0  0  0  0
  190.7400  173.8900  145.6320 C   0  0  0  0  0  2  0  0  0  0  0  0
  190.6020  172.7370  144.6600 C   0  0  0  0  0  2  0  0  0  0  0  0
  191.5840  172.8900  143.5100 C   0  0  0  0  0  2  0  0  0  0  0  0
  190.6320  170.0350  139.8950 O   0  0  0  0  0  1  0  0  0  0  0  0
  189.9820  171.3890  142.3620 C   0  0  0  0  0  2  0  0  0  0  0  0
  190.0810  172.6760  138.7100 C   0  0  1  0  0  3  0  0  0  0  0  0
  191.3190  171.2410  140.0690 C   0  0  2  0  0  3  0  0  0  0  0  0
  190.7760  172.0510  141.2540 C   0  0  1  0  0  0  0  0  0  0  0  0
  188.3950  173.5570  140.2590 O   0  0  0  0  0  1  0  0  0  0  0  0
  190.5680  173.4270  141.0490 O   0  0  0  0  0  0  0  0  0  0  0  0
  189.7460  173.6070  139.9090 C   0  0  1  0  0  3  0  0  0  0  0  0
  191.3200  172.0040  138.8760 O   0  0  0  0  0  0  0  0  0  0  0  0
  191.4550  171.6990  142.5740 C   0  0  1  0  0  3  0  0  0  0  0  0
  189.0510  171.7600  138.4600 O   0  0  0  0  0  1  0  0  0  0  0  0
  190.0700  176.4720  142.2570 O   0  0  0  0  0  0  0  0  0  0  0  0
  192.5750  177.1990  144.8730 C   0  0  0  0  0  3  0  0  0  0  0  0
  193.7530  176.7670  144.2530 C   0  0  0  0  0  3  0  0  0  0  0  0
  192.4820  176.1230  142.3050 C   0  0  0  0  0  3  0  0  0  0  0  0
  193.7050  176.2230  142.9660 C   0  0  0  0  0  0  0  0  0  0  0  0
  191.3530  177.0930  144.2060 C   0  0  0  0  0  3  0  0  0  0  0  0
  191.3020  176.5670  142.9130 C   0  0  0  0  0  0  0  0  0  0  0  0
  195.0940  175.8860  140.7070 O   0  0  0  0  0  0  0  0  0  0  0  0
  196.3510  176.4110  142.7280 O   0  0  0  0  0  0  0  0  0  0  0  0
  195.1730  175.6490  142.1900 S   0  0  0  0  0  0  0  0  0  0  0  0
  194.8260  173.0050  141.5510 C   0  0  0  0  0  2  0  0  0  0  0  0
  196.1460  172.0460  144.0730 C   0  0  2  0  0  0  0  0  0  0  0  0
  195.2130  169.2790  145.5670 C   0  0  0  0  0  0  0  0  0  0  0  0
  195.0540  168.9750  144.2720 C   0  0  0  0  0  3  0  0  0  0  0  0
  195.9430  173.5180  143.7680 C   0  0  0  0  0  0  0  0  0  0  0  0
  194.2630  172.0940  145.8310 C   0  0  0  0  0  1  0  0  0  0  0  0
  195.7240  171.7670  145.5350 C   0  0  1  0  0  3  0  0  0  0  0  0
  197.5130  171.7770  143.9380 O   0  0  0  0  0  1  0  0  0  0  0  0
  195.3480  171.1540  143.0910 C   0  0  2  0  0  3  0  0  0  0  0  0
  196.3490  174.3760  144.5980 O   0  0  0  0  0  0  0  0  0  0  0  0
  195.7630  169.6860  143.1610 C   0  0  0  0  0  2  0  0  0  0  0  0
  195.4960  171.6470  141.6630 C   0  0  0  0  0  2  0  0  0  0  0  0
  195.3830  173.9540  142.5130 N   0  0  0  0  0  0  0  0  0  0  0  0
  194.3230  168.3580  146.7660 Cl  0  0  0  0  0  0  0  0  0  0  0  0
  196.1270  170.3760  146.0380 C   0  0  0  0  0  2  0  0  0  0  0  0
  188.2230  178.0520  142.4620 C   0  0  0  0  0  2  0  0  0  0  0  0
  187.4730  177.8780  141.1470 C   0  0  1  0  0  3  0  0  0  0  0  0
  187.6480  176.5860  140.6790 F   0  0  0  0  0  0  0  0  0  0  0  0
  185.7870  179.0680  142.3410 F   0  0  0  0  0  0  0  0  0  0  0  0
  185.9870  178.1690  141.3090 C   0  0  0  0  0  3  0  0  0  0  0  0
  185.4590  178.6800  140.1360 F   0  0  0  0  0  0  0  0  0  0  0  0
  1  5  1  0  0  0  0
  2  1  2  0  0  0  0
  3  1  1  0  0  0  0
  5  7  1  0  0  0  0
  6  4  1  0  0  0  0
  7 10  1  0  0  0  0
  7  4  2  0  0  0  0
  8  5  2  0  0  0  0
  8  9  1  0  0  0  0
  9  6  2  0  0  0  0
 10 11  2  0  0  0  0
 12 10  1  0  0  0  0
 13 12  1  0  0  0  0
 14 13  1  0  0  0  0
 15 14  1  0  0  0  0
 17 25  1  0  0  0  0
 18 26  1  1  0  0  0
 18 24  1  0  0  0  0
 18 23  1  0  0  0  0
 19 16  1  6  0  0  0
 19 20  1  0  0  0  0
 20 17  1  1  0  0  0
 20 25  1  0  0  0  0
 22 20  1  0  0  0  0
 23 21  1  1  0  0  0
 23 22  1  0  0  0  0
 24 19  1  0  0  0  0
 25 15  1  1  0  0  0
 27  3  1  0  0  0  0
 27 33  1  0  0  0  0
 29 28  1  0  0  0  0
 30 33  2  0  0  0  0
 30 31  1  0  0  0  0
 31 29  2  0  0  0  0
 32 28  2  0  0  0  0
 33 32  1  0  0  0  0
 34 36  2  0  0  0  0
 36 49  1  0  0  0  0
 36 35  2  0  0  0  0
 36 31  1  0  0  0  0
 37 48  1  0  0  0  0
 37 49  1  0  0  0  0
 38 44  1  6  0  0  0
 38 43  1  0  0  0  0
 39 51  1  0  0  0  0
 39 50  1  0  0  0  0
 40 39  2  0  0  0  0
 41 38  1  0  0  0  0
 41 46  2  0  0  0  0
 43 42  1  6  0  0  0
 43 51  1  0  0  0  0
 45 48  1  6  0  0  0
 45 47  1  0  0  0  0
 45 38  1  0  0  0  0
 47 40  1  0  0  0  0
 49 41  1  0  0  0  0
 52  3  1  0  0  0  0
 53 54  1  1  0  0  0
 53 56  1  0  0  0  0
 53 52  1  0  0  0  0
 56 55  1  0  0  0  0
 57 56  1  0  0  0  0
M  END
>  <MODEL>
3

>  <REMARK>
 VINA RESULT:      -8.5      2.940      6.036
  Name = 
  14 active torsions:
  status: ('A' for Active; 'I' for Inactive)
    1  A    between atoms: C_6  and  C_21
    2  A    between atoms: C_8  and  C_32
    3  A    between atoms: C_8  and  C_45
    4  A    between atoms: C_11  and  C_14
    5  A    between atoms: C_14  and  C_57
    6  A    between atoms: O_31  and  C_50
    7  A    between atoms: O_31  and  N_56
    8  A    between atoms: C_40  and  S_42
    9  A    between atoms: S_42  and  N_48
   10  A    between atoms: C_44  and  C_45
   11  A    between atoms: C_44  and  C_46
   12  A    between atoms: C_46  and  C_54
   13  A    between atoms: C_52  and  C_54
   14  A    between atoms: N_56  and  C_57
                            x       y       z     vdW  Elec       q    Type
                         _______ _______ _______ _____ _____    ______ ____

>  <TORSDO>
F 14

$$$$
=
 OpenBabel11062423083D

 57 62  0  0  1  0  0  0  0  0999 V2000
  192.9670  173.8650  145.0820 C   0  0  0  0  0  0  0  0  0  0  0  0
  193.1960  172.6260  145.0390 O   0  0  0  0  0  0  0  0  0  0  0  0
  193.9540  174.7820  144.5740 N   0  0  0  0  0  0  0  0  0  0  0  0
  189.3340  174.5960  145.9590 C   0  0  0  0  0  3  0  0  0  0  0  0
  191.7460  174.3630  145.7490 C   0  0  0  0  0  0  0  0  0  0  0  0
  189.4850  175.0770  147.2610 C   0  0  0  0  0  3  0  0  0  0  0  0
  190.4500  174.2440  145.1840 C   0  0  0  0  0  0  0  0  0  0  0  0
  191.8800  174.8610  147.0540 C   0  0  0  0  0  3  0  0  0  0  0  0
  190.7590  175.2200  147.8040 C   0  0  0  0  0  3  0  0  0  0  0  0
  190.2050  173.8480  143.7770 C   0  0  0  0  0  0  0  0  0  0  0  0
  189.9230  172.6500  143.5070 O   0  0  0  0  0  0  0  0  0  0  0  0
  190.1850  174.8510  142.6730 C   0  0  0  0  0  2  0  0  0  0  0  0
  188.8920  174.7280  141.8860 C   0  0  0  0  0  2  0  0  0  0  0  0
  188.2610  176.0900  141.6870 C   0  0  0  0  0  2  0  0  0  0  0  0
  186.9110  176.1580  142.3820 C   0  0  0  0  0  2  0  0  0  0  0  0
  186.7310  177.1090  146.9850 O   0  0  0  0  0  1  0  0  0  0  0  0
  187.7160  177.5050  144.2990 C   0  0  0  0  0  2  0  0  0  0  0  0
  184.4180  178.6360  145.9850 C   0  0  1  0  0  3  0  0  0  0  0  0
  185.8070  176.7630  145.9940 C   0  0  2  0  0  3  0  0  0  0  0  0
  186.2600  177.2130  144.5980 C   0  0  1  0  0  0  0  0  0  0  0  0
  185.4810  180.0830  144.3140 O   0  0  0  0  0  1  0  0  0  0  0  0
  185.2980  177.8370  143.7820 O   0  0  0  0  0  0  0  0  0  0  0  0
  184.7240  178.9220  144.4890 C   0  0  1  0  0  3  0  0  0  0  0  0
  184.5170  177.2560  146.3050 O   0  0  0  0  0  0  0  0  0  0  0  0
  187.1180  176.1690  143.8880 C   0  0  1  0  0  3  0  0  0  0  0  0
  185.2260  179.4000  146.8370 O   0  0  0  0  0  1  0  0  0  0  0  0
  195.3020  174.4710  144.6080 O   0  0  0  0  0  0  0  0  0  0  0  0
  197.9340  175.6090  142.2780 C   0  0  0  0  0  3  0  0  0  0  0  0
  197.7880  174.6930  141.2300 C   0  0  0  0  0  3  0  0  0  0  0  0
  195.9940  173.6150  142.4320 C   0  0  0  0  0  3  0  0  0  0  0  0
  196.8180  173.6900  141.3100 C   0  0  0  0  0  0  0  0  0  0  0  0
  197.1080  175.5270  143.4010 C   0  0  0  0  0  3  0  0  0  0  0  0
  196.1250  174.5370  143.4780 C   0  0  0  0  0  0  0  0  0  0  0  0
  197.1690  173.0920  138.7280 O   0  0  0  0  0  0  0  0  0  0  0  0
  197.4510  171.2910  140.3450 O   0  0  0  0  0  0  0  0  0  0  0  0
  196.6460  172.5160  140.0150 S   0  0  0  0  0  0  0  0  0  0  0  0
  194.5930  170.7030  140.1490 C   0  0  0  0  0  2  0  0  0  0  0  0
  192.5730  172.6560  139.0860 C   0  0  2  0  0  0  0  0  0  0  0  0
  190.0480  171.6890  137.2280 C   0  0  0  0  0  0  0  0  0  0  0  0
  190.1860  170.6660  138.0810 C   0  0  0  0  0  3  0  0  0  0  0  0
  194.0400  173.0050  139.2460 C   0  0  0  0  0  0  0  0  0  0  0  0
  192.8300  172.5030  136.5270 C   0  0  0  0  0  1  0  0  0  0  0  0
  192.0840  173.1340  137.6980 C   0  0  1  0  0  3  0  0  0  0  0  0
  191.8680  173.3480  140.0770 O   0  0  0  0  0  1  0  0  0  0  0  0
  192.3370  171.1350  139.2570 C   0  0  2  0  0  3  0  0  0  0  0  0
  194.4300  174.1630  138.9290 O   0  0  0  0  0  0  0  0  0  0  0  0
  190.8590  170.7830  139.4130 C   0  0  0  0  0  2  0  0  0  0  0  0
  193.1070  170.5940  140.4480 C   0  0  0  0  0  2  0  0  0  0  0  0
  194.9730  172.0790  139.8370 N   0  0  0  0  0  0  0  0  0  0  0  0
  189.2310  171.4120  135.7010 Cl  0  0  0  0  0  0  0  0  0  0  0  0
  190.5610  173.0710  137.5260 C   0  0  0  0  0  2  0  0  0  0  0  0
  193.5280  175.9080  143.7510 C   0  0  0  0  0  2  0  0  0  0  0  0
  193.4660  177.1900  144.5730 C   0  0  1  0  0  3  0  0  0  0  0  0
  192.2150  177.3080  145.1550 F   0  0  0  0  0  0  0  0  0  0  0  0
  195.2870  178.3740  145.5550 F   0  0  0  0  0  0  0  0  0  0  0  0
  194.5400  177.2140  145.6520 C   0  0  0  0  0  3  0  0  0  0  0  0
  193.9690  177.1300  146.9090 F   0  0  0  0  0  0  0  0  0  0  0  0
  1  5  1  0  0  0  0
  2  1  2  0  0  0  0
  3 27  1  0  0  0  0
  3  1  1  0  0  0  0
  4  6  1  0  0  0  0
  5  8  2  0  0  0  0
  6  9  2  0  0  0  0
  7  5  1  0  0  0  0
  7  4  2  0  0  0  0
  8  9  1  0  0  0  0
 10  7  1  0  0  0  0
 11 10  2  0  0  0  0
 12 10  1  0  0  0  0
 13 12  1  0  0  0  0
 14 13  1  0  0  0  0
 14 15  1  0  0  0  0
 18 24  1  0  0  0  0
 18 26  1  1  0  0  0
 19 24  1  0  0  0  0
 19 16  1  1  0  0  0
 20 17  1  1  0  0  0
 20 19  1  0  0  0  0
 22 23  1  0  0  0  0
 22 20  1  0  0  0  0
 23 21  1  1  0  0  0
 23 18  1  0  0  0  0
 25 15  1  6  0  0  0
 25 17  1  0  0  0  0
 25 20  1  0  0  0  0
 28 32  1  0  0  0  0
 29 31  1  0  0  0  0
 29 28  2  0  0  0  0
 30 33  1  0  0  0  0
 31 30  2  0  0  0  0
 32 33  2  0  0  0  0
 33 27  1  0  0  0  0
 34 36  2  0  0  0  0
 36 35  2  0  0  0  0
 36 31  1  0  0  0  0
 37 48  1  0  0  0  0
 38 41  1  0  0  0  0
 38 45  1  0  0  0  0
 38 44  1  1  0  0  0
 39 51  1  0  0  0  0
 39 40  2  0  0  0  0
 40 47  1  0  0  0  0
 41 49  1  0  0  0  0
 43 42  1  6  0  0  0
 43 38  1  0  0  0  0
 45 47  1  1  0  0  0
 45 48  1  0  0  0  0
 46 41  2  0  0  0  0
 49 36  1  0  0  0  0
 49 37  1  0  0  0  0
 50 39  1  0  0  0  0
 51 43  1  0  0  0  0
 52 53  1  0  0  0  0
 52  3  1  0  0  0  0
 53 54  1  1  0  0  0
 53 56  1  0  0  0  0
 55 56  1  0  0  0  0
 56 57  1  0  0  0  0
M  END
>  <MODEL>
4

>  <REMARK>
 VINA RESULT:      -8.4      3.381      7.526
  Name = 
  14 active torsions:
  status: ('A' for Active; 'I' for Inactive)
    1  A    between atoms: C_6  and  C_21
    2  A    between atoms: C_8  and  C_32
    3  A    between atoms: C_8  and  C_45
    4  A    between atoms: C_11  and  C_14
    5  A    between atoms: C_14  and  C_57
    6  A    between atoms: O_31  and  C_50
    7  A    between atoms: O_31  and  N_56
    8  A    between atoms: C_40  and  S_42
    9  A    between atoms: S_42  and  N_48
   10  A    between atoms: C_44  and  C_45
   11  A    between atoms: C_44  and  C_46
   12  A    between atoms: C_46  and  C_54
   13  A    between atoms: C_52  and  C_54
   14  A    between atoms: N_56  and  C_57
                            x       y       z     vdW  Elec       q    Type
                         _______ _______ _______ _____ _____    ______ ____

>  <TORSDO>
F 14

$$$$
=
 OpenBabel11062423083D

 57 62  0  0  1  0  0  0  0  0999 V2000
  191.5070  175.6630  143.5380 C   0  0  0  0  0  0  0  0  0  0  0  0
  190.9240  176.4970  142.7930 O   0  0  0  0  0  0  0  0  0  0  0  0
  191.3340  174.2550  143.2930 N   0  0  0  0  0  0  0  0  0  0  0  0
  192.6390  176.3550  147.1090 C   0  0  0  0  0  3  0  0  0  0  0  0
  192.2670  176.1370  144.7150 C   0  0  0  0  0  0  0  0  0  0  0  0
  193.9400  176.8010  146.8740 C   0  0  0  0  0  3  0  0  0  0  0  0
  191.7830  176.0290  146.0440 C   0  0  0  0  0  0  0  0  0  0  0  0
  193.5730  176.6000  144.4970 C   0  0  0  0  0  3  0  0  0  0  0  0
  194.4030  176.9340  145.5680 C   0  0  0  0  0  3  0  0  0  0  0  0
  190.3850  175.6700  146.3790 C   0  0  0  0  0  0  0  0  0  0  0  0
  190.0690  174.4580  146.5200 O   0  0  0  0  0  0  0  0  0  0  0  0
  189.3530  176.7120  146.6540 C   0  0  0  0  0  2  0  0  0  0  0  0
  188.0080  176.0540  146.9070 C   0  0  0  0  0  2  0  0  0  0  0  0
  186.9910  177.0820  147.3560 C   0  0  0  0  0  2  0  0  0  0  0  0
  185.6060  176.7190  146.8470 C   0  0  0  0  0  2  0  0  0  0  0  0
  184.3530  179.7900  143.5120 O   0  0  0  0  0  1  0  0  0  0  0  0
  186.1650  178.7130  145.4870 C   0  0  0  0  0  2  0  0  0  0  0  0
  185.3450  177.5420  141.8870 C   0  0  1  0  0  3  0  0  0  0  0  0
  184.2000  178.4160  143.7200 C   0  0  2  0  0  3  0  0  0  0  0  0
  185.3280  177.8320  144.5810 C   0  0  1  0  0  0  0  0  0  0  0  0
  187.6280  177.2920  142.7510 O   0  0  0  0  0  1  0  0  0  0  0  0
  185.9060  176.6240  144.1480 O   0  0  0  0  0  0  0  0  0  0  0  0
  186.3330  176.7700  142.8050 C   0  0  1  0  0  3  0  0  0  0  0  0
  184.0740  177.7250  142.4910 O   0  0  0  0  0  0  0  0  0  0  0  0
  185.0270  177.8940  146.0760 C   0  0  1  0  0  3  0  0  0  0  0  0
  185.8750  178.7690  141.4680 O   0  0  0  0  0  1  0  0  0  0  0  0
  190.1670  173.7670  142.7310 O   0  0  0  0  0  0  0  0  0  0  0  0
  188.5650  174.1690  139.4260 C   0  0  0  0  0  3  0  0  0  0  0  0
  189.5200  173.5880  138.5860 C   0  0  0  0  0  3  0  0  0  0  0  0
  190.9190  173.1350  140.4990 C   0  0  0  0  0  3  0  0  0  0  0  0
  190.7030  173.0740  139.1230 C   0  0  0  0  0  0  0  0  0  0  0  0
  188.7880  174.2300  140.8040 C   0  0  0  0  0  3  0  0  0  0  0  0
  189.9600  173.7020  141.3490 C   0  0  0  0  0  0  0  0  0  0  0  0
  191.6730  170.8960  137.9140 O   0  0  0  0  0  0  0  0  0  0  0  0
  191.8430  173.0120  136.7180 O   0  0  0  0  0  0  0  0  0  0  0  0
  191.9230  172.3700  138.0740 S   0  0  0  0  0  0  0  0  0  0  0  0
  194.1270  171.5330  139.4740 C   0  0  0  0  0  2  0  0  0  0  0  0
  195.4680  174.2150  139.3000 C   0  0  2  0  0  0  0  0  0  0  0  0
  197.4050  175.3370  141.6980 C   0  0  0  0  0  0  0  0  0  0  0  0
  197.6610  174.0230  141.7120 C   0  0  0  0  0  3  0  0  0  0  0  0
  194.0890  173.9540  138.7270 C   0  0  0  0  0  0  0  0  0  0  0  0
  194.4630  175.5540  141.2580 C   0  0  0  0  0  1  0  0  0  0  0  0
  195.4470  175.5440  140.0920 C   0  0  1  0  0  3  0  0  0  0  0  0
  196.3510  174.3460  138.2210 O   0  0  0  0  0  1  0  0  0  0  0  0
  195.9310  173.0450  140.2020 C   0  0  2  0  0  3  0  0  0  0  0  0
  193.4800  174.8950  138.1460 O   0  0  0  0  0  0  0  0  0  0  0  0
  197.4180  173.1190  140.5430 C   0  0  0  0  0  2  0  0  0  0  0  0
  195.6350  171.7050  139.5520 C   0  0  0  0  0  2  0  0  0  0  0  0
  193.5020  172.6370  138.7490 N   0  0  0  0  0  0  0  0  0  0  0  0
  197.7450  176.2800  143.1380 Cl  0  0  0  0  0  0  0  0  0  0  0  0
  196.8400  176.0430  140.4960 C   0  0  0  0  0  2  0  0  0  0  0  0
  192.4910  173.3710  143.3540 C   0  0  0  0  0  2  0  0  0  0  0  0
  192.5410  172.6310  144.6860 C   0  0  1  0  0  3  0  0  0  0  0  0
  191.9560  171.3830  144.5450 F   0  0  0  0  0  0  0  0  0  0  0  0
  194.3790  173.6300  145.8290 F   0  0  0  0  0  0  0  0  0  0  0  0
  193.9700  172.4750  145.1860 C   0  0  0  0  0  3  0  0  0  0  0  0
  194.0710  171.3990  146.0500 F   0  0  0  0  0  0  0  0  0  0  0  0
  1  5  1  0  0  0  0
  2  1  2  0  0  0  0
  3 52  1  0  0  0  0
  3  1  1  0  0  0  0
  5  7  1  0  0  0  0
  6  4  1  0  0  0  0
  7 10  1  0  0  0  0
  7  4  2  0  0  0  0
  8  5  2  0  0  0  0
  8  9  1  0  0  0  0
  9  6  2  0  0  0  0
 10 11  2  0  0  0  0
 10 12  1  0  0  0  0
 12 13  1  0  0  0  0
 13 14  1  0  0  0  0
 15 14  1  0  0  0  0
 17 25  1  0  0  0  0
 18 26  1  1  0  0  0
 18 24  1  0  0  0  0
 18 23  1  0  0  0  0
 19 16  1  6  0  0  0
 19 20  1  0  0  0  0
 20 17  1  6  0  0  0
 20 25  1  0  0  0  0
 22 20  1  0  0  0  0
 23 21  1  1  0  0  0
 23 22  1  0  0  0  0
 24 19  1  0  0  0  0
 25 15  1  1  0  0  0
 27  3  1  0  0  0  0
 28 32  1  0  0  0  0
 29 31  1  0  0  0  0
 29 28  2  0  0  0  0
 30 33  1  0  0  0  0
 31 30  2  0  0  0  0
 32 33  2  0  0  0  0
 33 27  1  0  0  0  0
 34 36  2  0  0  0  0
 35 36  2  0  0  0  0
 36 49  1  0  0  0  0
 36 31  1  0  0  0  0
 37 48  1  0  0  0  0
 38 44  1  6  0  0  0
 38 43  1  0  0  0  0
 38 45  1  0  0  0  0
 39 40  2  0  0  0  0
 39 50  1  0  0  0  0
 41 49  1  0  0  0  0
 41 38  1  0  0  0  0
 43 51  1  0  0  0  0
 43 42  1  1  0  0  0
 45 48  1  6  0  0  0
 45 47  1  0  0  0  0
 46 41  2  0  0  0  0
 47 40  1  0  0  0  0
 49 37  1  0  0  0  0
 51 39  1  0  0  0  0
 52 53  1  0  0  0  0
 53 54  1  6  0  0  0
 53 56  1  0  0  0  0
 56 55  1  0  0  0  0
 56 57  1  0  0  0  0
M  END
>  <MODEL>
5

>  <REMARK>
 VINA RESULT:      -8.4      4.015      7.863
  Name = 
  14 active torsions:
  status: ('A' for Active; 'I' for Inactive)
    1  A    between atoms: C_6  and  C_21
    2  A    between atoms: C_8  and  C_32
    3  A    between atoms: C_8  and  C_45
    4  A    between atoms: C_11  and  C_14
    5  A    between atoms: C_14  and  C_57
    6  A    between atoms: O_31  and  C_50
    7  A    between atoms: O_31  and  N_56
    8  A    between atoms: C_40  and  S_42
    9  A    between atoms: S_42  and  N_48
   10  A    between atoms: C_44  and  C_45
   11  A    between atoms: C_44  and  C_46
   12  A    between atoms: C_46  and  C_54
   13  A    between atoms: C_52  and  C_54
   14  A    between atoms: N_56  and  C_57
                            x       y       z     vdW  Elec       q    Type
                         _______ _______ _______ _____ _____    ______ ____

>  <TORSDO>
F 14

$$$$
=
 OpenBabel11062423083D

 57 62  0  0  1  0  0  0  0  0999 V2000
  194.0260  175.6820  142.5910 C   0  0  0  0  0  0  0  0  0  0  0  0
  193.4480  176.3770  141.7110 O   0  0  0  0  0  0  0  0  0  0  0  0
  195.4500  175.8030  142.7620 N   0  0  0  0  0  0  0  0  0  0  0  0
  191.6230  174.0120  145.0280 C   0  0  0  0  0  3  0  0  0  0  0  0
  193.2560  174.6760  143.3520 C   0  0  0  0  0  0  0  0  0  0  0  0
  191.6120  172.7130  144.5160 C   0  0  0  0  0  3  0  0  0  0  0  0
  192.4440  175.0030  144.4690 C   0  0  0  0  0  0  0  0  0  0  0  0
  193.2430  173.3630  142.8590 C   0  0  0  0  0  3  0  0  0  0  0  0
  192.4310  172.3860  143.4380 C   0  0  0  0  0  3  0  0  0  0  0  0
  192.4750  176.3220  145.1430 C   0  0  0  0  0  0  0  0  0  0  0  0
  193.0400  176.4370  146.2640 O   0  0  0  0  0  0  0  0  0  0  0  0
  191.9400  177.5510  144.4870 C   0  0  0  0  0  2  0  0  0  0  0  0
  190.4230  177.5660  144.5770 C   0  0  0  0  0  2  0  0  0  0  0  0
  189.8090  177.2480  143.2300 C   0  0  0  0  0  2  0  0  0  0  0  0
  188.5650  176.3920  143.4010 C   0  0  0  0  0  2  0  0  0  0  0  0
  184.5590  178.7960  142.8540 O   0  0  0  0  0  1  0  0  0  0  0  0
  186.0950  176.3760  143.2090 C   0  0  0  0  0  2  0  0  0  0  0  0
  185.0290  179.1010  145.7470 C   0  0  1  0  0  3  0  0  0  0  0  0
  185.7640  178.9940  143.5370 C   0  0  2  0  0  3  0  0  0  0  0  0
  186.4330  177.6680  143.9250 C   0  0  1  0  0  0  0  0  0  0  0  0
  185.1500  176.7580  146.4650 O   0  0  0  0  0  1  0  0  0  0  0  0
  186.9380  177.5640  145.2340 O   0  0  0  0  0  0  0  0  0  0  0  0
  185.9110  177.8880  146.1550 C   0  0  1  0  0  3  0  0  0  0  0  0
  185.5810  179.8320  144.6630 O   0  0  0  0  0  0  0  0  0  0  0  0
  187.3620  177.1320  142.8390 C   0  0  1  0  0  3  0  0  0  0  0  0
  183.7130  178.7150  145.4640 O   0  0  0  0  0  1  0  0  0  0  0  0
  196.2710  176.1390  141.7000 O   0  0  0  0  0  0  0  0  0  0  0  0
  197.7970  173.1770  140.1020 C   0  0  0  0  0  3  0  0  0  0  0  0
  197.4240  173.3640  138.7670 C   0  0  0  0  0  3  0  0  0  0  0  0
  196.2690  175.3920  139.3790 C   0  0  0  0  0  3  0  0  0  0  0  0
  196.6550  174.4730  138.4050 C   0  0  0  0  0  0  0  0  0  0  0  0
  197.4060  174.1010  141.0740 C   0  0  0  0  0  3  0  0  0  0  0  0
  196.6510  175.2200  140.7150 C   0  0  0  0  0  0  0  0  0  0  0  0
  196.6000  176.0510  136.2480 O   0  0  0  0  0  0  0  0  0  0  0  0
  196.8010  173.6510  135.8760 O   0  0  0  0  0  0  0  0  0  0  0  0
  196.1550  174.7010  136.7360 S   0  0  0  0  0  0  0  0  0  0  0  0
  193.6600  175.7900  136.4110 C   0  0  0  0  0  2  0  0  0  0  0  0
  192.2730  173.1510  136.7730 C   0  0  2  0  0  0  0  0  0  0  0  0
  189.3150  172.9320  138.1740 C   0  0  0  0  0  0  0  0  0  0  0  0
  189.2320  174.0890  137.5070 C   0  0  0  0  0  3  0  0  0  0  0  0
  193.7780  173.3020  136.8780 C   0  0  0  0  0  0  0  0  0  0  0  0
  192.0650  172.8900  139.3280 C   0  0  0  0  0  1  0  0  0  0  0  0
  191.7640  172.2930  137.9570 C   0  0  1  0  0  3  0  0  0  0  0  0
  192.0040  172.4760  135.5770 O   0  0  0  0  0  1  0  0  0  0  0  0
  191.5710  174.5310  136.7530 C   0  0  2  0  0  3  0  0  0  0  0  0
  194.4800  172.2820  137.1190 O   0  0  0  0  0  0  0  0  0  0  0  0
  190.1040  174.4360  136.3390 C   0  0  0  0  0  2  0  0  0  0  0  0
  192.2890  175.4950  135.8270 C   0  0  0  0  0  2  0  0  0  0  0  0
  194.4270  174.5640  136.6170 N   0  0  0  0  0  0  0  0  0  0  0  0
  188.2260  172.6530  139.5210 Cl  0  0  0  0  0  0  0  0  0  0  0  0
  190.3010  171.8550  137.8160 C   0  0  0  0  0  2  0  0  0  0  0  0
  196.0050  175.8710  144.1090 C   0  0  0  0  0  2  0  0  0  0  0  0
  196.5570  174.5160  144.5390 C   0  0  1  0  0  3  0  0  0  0  0  0
  197.9400  174.5390  144.4770 F   0  0  0  0  0  0  0  0  0  0  0  0
  195.0880  173.2220  145.8990 F   0  0  0  0  0  0  0  0  0  0  0  0
  196.1100  174.1530  145.9480 C   0  0  0  0  0  3  0  0  0  0  0  0
  197.1690  173.6450  146.6790 F   0  0  0  0  0  0  0  0  0  0  0  0
  1  3  1  0  0  0  0
  1  5  1  0  0  0  0
  2  1  2  0  0  0  0
  3 52  1  0  0  0  0
  5  7  1  0  0  0  0
  6  4  1  0  0  0  0
  7  4  2  0  0  0  0
  7 10  1  0  0  0  0
  8  5  2  0  0  0  0
  8  9  1  0  0  0  0
  9  6  2  0  0  0  0
 10 11  2  0  0  0  0
 12 13  1  0  0  0  0
 12 10  1  0  0  0  0
 14 15  1  0  0  0  0
 14 13  1  0  0  0  0
 18 26  1  6  0  0  0
 18 23  1  0  0  0  0
 19 16  1  1  0  0  0
 19 20  1  0  0  0  0
 19 24  1  0  0  0  0
 20 17  1  6  0  0  0
 20 22  1  0  0  0  0
 22 23  1  0  0  0  0
 23 21  1  6  0  0  0
 24 18  1  0  0  0  0
 25 17  1  0  0  0  0
 25 15  1  1  0  0  0
 25 20  1  0  0  0  0
 27  3  1  0  0  0  0
 28 32  1  0  0  0  0
 29 28  2  0  0  0  0
 30 33  1  0  0  0  0
 31 29  1  0  0  0  0
 31 30  2  0  0  0  0
 33 32  2  0  0  0  0
 33 27  1  0  0  0  0
 34 36  2  0  0  0  0
 35 36  2  0  0  0  0
 36 31  1  0  0  0  0
 37 49  1  0  0  0  0
 38 44  1  6  0  0  0
 38 41  1  0  0  0  0
 38 43  1  0  0  0  0
 39 50  1  0  0  0  0
 40 39  2  0  0  0  0
 41 46  2  0  0  0  0
 43 42  1  1  0  0  0
 45 48  1  6  0  0  0
 45 38  1  0  0  0  0
 47 45  1  0  0  0  0
 47 40  1  0  0  0  0
 48 37  1  0  0  0  0
 49 36  1  0  0  0  0
 49 41  1  0  0  0  0
 51 43  1  0  0  0  0
 51 39  1  0  0  0  0
 52 53  1  0  0  0  0
 53 54  1  1  0  0  0
 53 56  1  0  0  0  0
 55 56  1  0  0  0  0
 56 57  1  0  0  0  0
M  END
>  <MODEL>
6

>  <REMARK>
 VINA RESULT:      -8.0      4.450      8.509
  Name = 
  14 active torsions:
  status: ('A' for Active; 'I' for Inactive)
    1  A    between atoms: C_6  and  C_21
    2  A    between atoms: C_8  and  C_32
    3  A    between atoms: C_8  and  C_45
    4  A    between atoms: C_11  and  C_14
    5  A    between atoms: C_14  and  C_57
    6  A    between atoms: O_31  and  C_50
    7  A    between atoms: O_31  and  N_56
    8  A    between atoms: C_40  and  S_42
    9  A    between atoms: S_42  and  N_48
   10  A    between atoms: C_44  and  C_45
   11  A    between atoms: C_44  and  C_46
   12  A    between atoms: C_46  and  C_54
   13  A    between atoms: C_52  and  C_54
   14  A    between atoms: N_56  and  C_57
                            x       y       z     vdW  Elec       q    Type
                         _______ _______ _______ _____ _____    ______ ____

>  <TORSDO>
F 14

$$$$
=
 OpenBabel11062423083D

 57 62  0  0  1  0  0  0  0  0999 V2000
  194.0460  171.7070  144.2460 C   0  0  0  0  0  0  0  0  0  0  0  0
  194.4400  171.0860  145.2710 O   0  0  0  0  0  0  0  0  0  0  0  0
  194.4740  173.0650  144.0370 N   0  0  0  0  0  0  0  0  0  0  0  0
  192.3510  169.3240  141.8050 C   0  0  0  0  0  3  0  0  0  0  0  0
  193.0690  171.0740  143.3360 C   0  0  0  0  0  0  0  0  0  0  0  0
  191.0350  169.7830  141.8840 C   0  0  0  0  0  3  0  0  0  0  0  0
  193.3830  169.9610  142.5140 C   0  0  0  0  0  0  0  0  0  0  0  0
  191.7440  171.5300  143.3920 C   0  0  0  0  0  3  0  0  0  0  0  0
  190.7340  170.8940  142.6680 C   0  0  0  0  0  3  0  0  0  0  0  0
  194.7640  169.4760  142.2870 C   0  0  0  0  0  0  0  0  0  0  0  0
  195.1760  168.4540  142.9000 O   0  0  0  0  0  0  0  0  0  0  0  0
  195.6600  170.1060  141.2740 C   0  0  0  0  0  2  0  0  0  0  0  0
  194.9670  170.1440  139.9230 C   0  0  0  0  0  2  0  0  0  0  0  0
  194.6460  171.5710  139.5310 C   0  0  0  0  0  2  0  0  0  0  0  0
  193.2880  171.6450  138.8540 C   0  0  0  0  0  2  0  0  0  0  0  0
  189.6400  174.0950  140.5330 O   0  0  0  0  0  1  0  0  0  0  0  0
  192.1520  173.8300  139.1330 C   0  0  0  0  0  2  0  0  0  0  0  0
  188.5270  173.0490  138.0140 C   0  0  1  0  0  3  0  0  0  0  0  0
  189.8210  172.8400  139.9430 C   0  0  2  0  0  3  0  0  0  0  0  0
  191.0370  172.8110  139.0070 C   0  0  1  0  0  0  0  0  0  0  0  0
  190.1390  173.9130  136.3790 O   0  0  0  0  0  1  0  0  0  0  0  0
  190.8660  172.1970  137.7520 O   0  0  0  0  0  0  0  0  0  0  0  0
  189.7530  172.7790  137.0980 C   0  0  1  0  0  3  0  0  0  0  0  0
  188.6450  172.4150  139.2780 O   0  0  0  0  0  0  0  0  0  0  0  0
  192.3310  172.4410  139.7270 C   0  0  1  0  0  3  0  0  0  0  0  0
  188.2850  174.4200  138.1690 O   0  0  0  0  0  1  0  0  0  0  0  0
  194.7590  173.8960  145.1070 O   0  0  0  0  0  0  0  0  0  0  0  0
  193.2060  176.6380  147.0360 C   0  0  0  0  0  3  0  0  0  0  0  0
  191.8610  176.2510  147.0270 C   0  0  0  0  0  3  0  0  0  0  0  0
  192.4360  174.3020  145.7270 C   0  0  0  0  0  3  0  0  0  0  0  0
  191.4750  175.0820  146.3670 C   0  0  0  0  0  0  0  0  0  0  0  0
  194.1640  175.8530  146.3910 C   0  0  0  0  0  3  0  0  0  0  0  0
  193.7870  174.6740  145.7450 C   0  0  0  0  0  0  0  0  0  0  0  0
  189.6370  173.3150  145.5630 O   0  0  0  0  0  0  0  0  0  0  0  0
  189.2940  174.3830  147.7260 O   0  0  0  0  0  0  0  0  0  0  0  0
  189.7850  174.6040  146.3230 S   0  0  0  0  0  0  0  0  0  0  0  0
  187.7370  176.4270  146.3350 C   0  0  0  0  0  2  0  0  0  0  0  0
  188.2480  177.2750  143.4990 C   0  0  2  0  0  0  0  0  0  0  0  0
  185.8130  178.2210  141.5140 C   0  0  0  0  0  0  0  0  0  0  0  0
  185.4120  178.6870  142.7040 C   0  0  0  0  0  3  0  0  0  0  0  0
  189.0500  176.1830  144.1810 C   0  0  0  0  0  0  0  0  0  0  0  0
  186.9820  175.5360  142.0810 C   0  0  0  0  0  1  0  0  0  0  0  0
  187.8390  176.7980  142.0850 C   0  0  1  0  0  3  0  0  0  0  0  0
  189.0820  178.3920  143.3760 O   0  0  0  0  0  1  0  0  0  0  0  0
  186.9990  177.6570  144.3320 C   0  0  2  0  0  3  0  0  0  0  0  0
  189.9730  175.6120  143.5390 O   0  0  0  0  0  0  0  0  0  0  0  0
  186.3430  178.9480  143.8470 C   0  0  0  0  0  2  0  0  0  0  0  0
  187.3470  177.7950  145.8030 C   0  0  0  0  0  2  0  0  0  0  0  0
  188.8410  175.8530  145.5690 N   0  0  0  0  0  0  0  0  0  0  0  0
  184.6150  177.9660  140.2590 Cl  0  0  0  0  0  0  0  0  0  0  0  0
  187.2520  177.9090  141.2060 C   0  0  0  0  0  2  0  0  0  0  0  0
  194.8980  173.4860  142.7070 C   0  0  0  0  0  2  0  0  0  0  0  0
  195.6610  174.8040  142.7700 C   0  0  1  0  0  3  0  0  0  0  0  0
  196.7620  174.7420  141.9330 F   0  0  0  0  0  0  0  0  0  0  0  0
  195.5120  176.9050  141.6540 F   0  0  0  0  0  0  0  0  0  0  0  0
  194.7780  175.9790  142.3750 C   0  0  0  0  0  3  0  0  0  0  0  0
  193.7010  175.5490  141.6200 F   0  0  0  0  0  0  0  0  0  0  0  0
  1  2  2  0  0  0  0
  3  1  1  0  0  0  0
  3 27  1  0  0  0  0
  4  6  2  0  0  0  0
  4  7  1  0  0  0  0
  5  8  1  0  0  0  0
  5  1  1  0  0  0  0
  6  9  1  0  0  0  0
  7  5  2  0  0  0  0
  9  8  2  0  0  0  0
 10  7  1  0  0  0  0
 10 11  2  0  0  0  0
 12 10  1  0  0  0  0
 13 12  1  0  0  0  0
 14 13  1  0  0  0  0
 15 14  1  0  0  0  0
 17 25  1  0  0  0  0
 18 26  1  1  0  0  0
 18 24  1  0  0  0  0
 19 16  1  6  0  0  0
 20 17  1  6  0  0  0
 20 25  1  0  0  0  0
 20 19  1  0  0  0  0
 22 20  1  0  0  0  0
 23 21  1  1  0  0  0
 23 22  1  0  0  0  0
 23 18  1  0  0  0  0
 24 19  1  0  0  0  0
 25 15  1  6  0  0  0
 27 33  1  0  0  0  0
 29 28  1  0  0  0  0
 30 33  2  0  0  0  0
 30 31  1  0  0  0  0
 31 29  2  0  0  0  0
 32 28  2  0  0  0  0
 33 32  1  0  0  0  0
 34 36  2  0  0  0  0
 36 31  1  0  0  0  0
 36 35  2  0  0  0  0
 38 44  1  6  0  0  0
 38 41  1  0  0  0  0
 38 45  1  0  0  0  0
 39 40  2  0  0  0  0
 40 47  1  0  0  0  0
 41 49  1  0  0  0  0
 43 42  1  1  0  0  0
 43 38  1  0  0  0  0
 45 47  1  6  0  0  0
 45 48  1  0  0  0  0
 46 41  2  0  0  0  0
 48 37  1  0  0  0  0
 49 36  1  0  0  0  0
 49 37  1  0  0  0  0
 50 39  1  0  0  0  0
 51 39  1  0  0  0  0
 51 43  1  0  0  0  0
 52 53  1  0  0  0  0
 52  3  1  0  0  0  0
 53 54  1  6  0  0  0
 55 56  1  0  0  0  0
 56 53  1  0  0  0  0
 57 56  1  0  0  0  0
M  END
>  <MODEL>
7

>  <REMARK>
 VINA RESULT:      -8.0      3.903      9.166
  Name = 
  14 active torsions:
  status: ('A' for Active; 'I' for Inactive)
    1  A    between atoms: C_6  and  C_21
    2  A    between atoms: C_8  and  C_32
    3  A    between atoms: C_8  and  C_45
    4  A    between atoms: C_11  and  C_14
    5  A    between atoms: C_14  and  C_57
    6  A    between atoms: O_31  and  C_50
    7  A    between atoms: O_31  and  N_56
    8  A    between atoms: C_40  and  S_42
    9  A    between atoms: S_42  and  N_48
   10  A    between atoms: C_44  and  C_45
   11  A    between atoms: C_44  and  C_46
   12  A    between atoms: C_46  and  C_54
   13  A    between atoms: C_52  and  C_54
   14  A    between atoms: N_56  and  C_57
                            x       y       z     vdW  Elec       q    Type
                         _______ _______ _______ _____ _____    ______ ____

>  <TORSDO>
F 14

$$$$
=
 OpenBabel11062423083D

 57 62  0  0  1  0  0  0  0  0999 V2000
  187.7800  177.5210  144.4220 C   0  0  0  0  0  0  0  0  0  0  0  0
  188.9070  177.9610  144.0650 O   0  0  0  0  0  0  0  0  0  0  0  0
  187.7130  176.3860  145.3040 N   0  0  0  0  0  0  0  0  0  0  0  0
  184.7340  178.1620  142.2270 C   0  0  0  0  0  3  0  0  0  0  0  0
  186.5500  178.1040  143.8450 C   0  0  0  0  0  0  0  0  0  0  0  0
  184.0480  179.0860  143.0180 C   0  0  0  0  0  3  0  0  0  0  0  0
  185.9890  177.6670  142.6160 C   0  0  0  0  0  0  0  0  0  0  0  0
  185.8530  179.0420  144.6200 C   0  0  0  0  0  3  0  0  0  0  0  0
  184.6140  179.5350  144.2080 C   0  0  0  0  0  3  0  0  0  0  0  0
  186.6940  176.7760  141.6660 C   0  0  0  0  0  0  0  0  0  0  0  0
  187.0680  177.2250  140.5500 O   0  0  0  0  0  0  0  0  0  0  0  0
  187.0650  175.3780  142.0310 C   0  0  0  0  0  2  0  0  0  0  0  0
  188.2660  174.9310  141.2160 C   0  0  0  0  0  2  0  0  0  0  0  0
  189.5420  175.1080  142.0130 C   0  0  0  0  0  2  0  0  0  0  0  0
  190.0560  173.7630  142.4980 C   0  0  0  0  0  2  0  0  0  0  0  0
  193.8280  171.9210  140.3750 O   0  0  0  0  0  1  0  0  0  0  0  0
  192.0700  172.3240  142.6300 C   0  0  0  0  0  2  0  0  0  0  0  0
  191.7080  170.0710  139.5010 C   0  0  1  0  0  3  0  0  0  0  0  0
  192.5070  172.2010  140.0100 C   0  0  2  0  0  3  0  0  0  0  0  0
  191.5550  172.1650  141.2140 C   0  0  1  0  0  0  0  0  0  0  0  0
  190.8200  169.3020  141.6550 O   0  0  0  0  0  1  0  0  0  0  0  0
  190.3350  171.4830  141.0460 O   0  0  0  0  0  0  0  0  0  0  0  0
  190.5980  170.1700  140.5830 C   0  0  1  0  0  3  0  0  0  0  0  0
  192.0690  171.3390  138.9760 O   0  0  0  0  0  0  0  0  0  0  0  0
  191.4400  173.5130  141.9200 C   0  0  1  0  0  3  0  0  0  0  0  0
  192.8380  169.3920  139.9760 O   0  0  0  0  0  1  0  0  0  0  0  0
  188.7030  175.4190  145.3010 O   0  0  0  0  0  0  0  0  0  0  0  0
  191.2060  175.3430  148.0170 C   0  0  0  0  0  3  0  0  0  0  0  0
  192.3300  175.8640  147.3690 C   0  0  0  0  0  3  0  0  0  0  0  0
  191.0500  176.0790  145.3350 C   0  0  0  0  0  3  0  0  0  0  0  0
  192.2530  176.2300  146.0220 C   0  0  0  0  0  0  0  0  0  0  0  0
  190.0040  175.1920  147.3230 C   0  0  0  0  0  3  0  0  0  0  0  0
  189.9160  175.5720  145.9810 C   0  0  0  0  0  0  0  0  0  0  0  0
  193.2450  177.8400  144.1330 O   0  0  0  0  0  0  0  0  0  0  0  0
  194.5490  177.5700  146.1740 O   0  0  0  0  0  0  0  0  0  0  0  0
  193.6670  176.8560  145.1890 S   0  0  0  0  0  0  0  0  0  0  0  0
  194.3160  175.2680  143.0500 C   0  0  0  0  0  2  0  0  0  0  0  0
  196.1430  173.5270  144.6780 C   0  0  2  0  0  0  0  0  0  0  0  0
  196.5100  170.3310  144.0350 C   0  0  0  0  0  0  0  0  0  0  0  0
  196.3570  170.8550  142.8120 C   0  0  0  0  0  3  0  0  0  0  0  0
  195.3550  174.6730  145.2830 C   0  0  0  0  0  0  0  0  0  0  0  0
  194.5710  171.7980  145.7620 C   0  0  0  0  0  1  0  0  0  0  0  0
  196.0070  172.2810  145.5840 C   0  0  1  0  0  3  0  0  0  0  0  0
  197.4870  173.9170  144.6440 O   0  0  0  0  0  1  0  0  0  0  0  0
  195.6640  173.2150  143.2390 C   0  0  2  0  0  3  0  0  0  0  0  0
  195.4740  174.9120  146.5160 O   0  0  0  0  0  0  0  0  0  0  0  0
  196.6220  172.2930  142.4880 C   0  0  0  0  0  2  0  0  0  0  0  0
  195.4690  174.4910  142.4400 C   0  0  0  0  0  2  0  0  0  0  0  0
  194.5500  175.5460  144.4650 N   0  0  0  0  0  0  0  0  0  0  0  0
  196.1700  168.6270  144.2730 Cl  0  0  0  0  0  0  0  0  0  0  0  0
  196.9670  171.1430  145.2160 C   0  0  0  0  0  2  0  0  0  0  0  0
  186.7660  176.3970  146.4130 C   0  0  0  0  0  2  0  0  0  0  0  0
  187.2210  177.3540  147.5080 C   0  0  1  0  0  3  0  0  0  0  0  0
  188.2330  178.1670  147.0220 F   0  0  0  0  0  0  0  0  0  0  0  0
  186.3410  179.5510  147.7950 F   0  0  0  0  0  0  0  0  0  0  0  0
  186.0700  178.2120  148.0150 C   0  0  0  0  0  3  0  0  0  0  0  0
  184.8890  177.8650  147.3840 F   0  0  0  0  0  0  0  0  0  0  0  0
  1  3  1  0  0  0  0
  2  1  2  0  0  0  0
  3 52  1  0  0  0  0
  4  7  2  0  0  0  0
  4  6  1  0  0  0  0
  5  1  1  0  0  0  0
  5  8  2  0  0  0  0
  6  9  2  0  0  0  0
  7  5  1  0  0  0  0
  9  8  1  0  0  0  0
 10 12  1  0  0  0  0
 10  7  1  0  0  0  0
 11 10  2  0  0  0  0
 13 14  1  0  0  0  0
 13 12  1  0  0  0  0
 14 15  1  0  0  0  0
 18 26  1  1  0  0  0
 18 23  1  0  0  0  0
 19 16  1  1  0  0  0
 19 20  1  0  0  0  0
 20 25  1  0  0  0  0
 20 17  1  1  0  0  0
 22 20  1  0  0  0  0
 23 22  1  0  0  0  0
 23 21  1  1  0  0  0
 24 18  1  0  0  0  0
 24 19  1  0  0  0  0
 25 15  1  1  0  0  0
 25 17  1  0  0  0  0
 27  3  1  0  0  0  0
 27 33  1  0  0  0  0
 29 28  1  0  0  0  0
 30 33  2  0  0  0  0
 30 31  1  0  0  0  0
 31 29  2  0  0  0  0
 32 28  2  0  0  0  0
 33 32  1  0  0  0  0
 34 36  2  0  0  0  0
 36 31  1  0  0  0  0
 36 35  2  0  0  0  0
 37 49  1  0  0  0  0
 38 44  1  6  0  0  0
 38 41  1  0  0  0  0
 38 43  1  0  0  0  0
 39 50  1  0  0  0  0
 39 51  1  0  0  0  0
 40 39  2  0  0  0  0
 41 46  2  0  0  0  0
 43 42  1  6  0  0  0
 45 48  1  6  0  0  0
 45 38  1  0  0  0  0
 47 40  1  0  0  0  0
 47 45  1  0  0  0  0
 48 37  1  0  0  0  0
 49 36  1  0  0  0  0
 49 41  1  0  0  0  0
 51 43  1  0  0  0  0
 52 53  1  0  0  0  0
 53 54  1  6  0  0  0
 53 56  1  0  0  0  0
 55 56  1  0  0  0  0
 57 56  1  0  0  0  0
M  END
>  <MODEL>
8

>  <REMARK>
 VINA RESULT:      -7.9      3.091      6.487
  Name = 
  14 active torsions:
  status: ('A' for Active; 'I' for Inactive)
    1  A    between atoms: C_6  and  C_21
    2  A    between atoms: C_8  and  C_32
    3  A    between atoms: C_8  and  C_45
    4  A    between atoms: C_11  and  C_14
    5  A    between atoms: C_14  and  C_57
    6  A    between atoms: O_31  and  C_50
    7  A    between atoms: O_31  and  N_56
    8  A    between atoms: C_40  and  S_42
    9  A    between atoms: S_42  and  N_48
   10  A    between atoms: C_44  and  C_45
   11  A    between atoms: C_44  and  C_46
   12  A    between atoms: C_46  and  C_54
   13  A    between atoms: C_52  and  C_54
   14  A    between atoms: N_56  and  C_57
                            x       y       z     vdW  Elec       q    Type
                         _______ _______ _______ _____ _____    ______ ____

>  <TORSDO>
F 14

$$$$
=
 OpenBabel11062423083D

 57 62  0  0  1  0  0  0  0  0999 V2000
  193.7070  171.8660  143.4980 C   0  0  0  0  0  0  0  0  0  0  0  0
  192.7130  171.3800  144.1020 O   0  0  0  0  0  0  0  0  0  0  0  0
  194.8380  172.3300  144.2590 N   0  0  0  0  0  0  0  0  0  0  0  0
  193.7200  173.4220  140.0210 C   0  0  0  0  0  3  0  0  0  0  0  0
  193.6540  172.0560  142.0330 C   0  0  0  0  0  0  0  0  0  0  0  0
  193.8620  172.2760  139.2370 C   0  0  0  0  0  3  0  0  0  0  0  0
  193.6040  173.3340  141.4180 C   0  0  0  0  0  0  0  0  0  0  0  0
  193.7830  170.9140  141.2280 C   0  0  0  0  0  3  0  0  0  0  0  0
  193.8820  171.0220  139.8400 C   0  0  0  0  0  3  0  0  0  0  0  0
  193.3460  174.5890  142.1610 C   0  0  0  0  0  0  0  0  0  0  0  0
  194.3140  175.2460  142.6310 O   0  0  0  0  0  0  0  0  0  0  0  0
  191.9730  175.1570  142.2880 C   0  0  0  0  0  2  0  0  0  0  0  0
  191.2370  174.4830  143.4330 C   0  0  0  0  0  2  0  0  0  0  0  0
  190.2020  173.5150  142.9010 C   0  0  0  0  0  2  0  0  0  0  0  0
  189.9490  173.7650  141.4230 C   0  0  0  0  0  2  0  0  0  0  0  0
  189.3160  170.3430  138.2580 O   0  0  0  0  0  1  0  0  0  0  0  0
  188.4360  172.5800  139.8590 C   0  0  0  0  0  2  0  0  0  0  0  0
  190.5170  172.4580  136.5950 C   0  0  1  0  0  3  0  0  0  0  0  0
  190.3410  171.2400  138.5760 C   0  0  2  0  0  3  0  0  0  0  0  0
  189.8030  172.5320  139.2080 C   0  0  1  0  0  0  0  0  0  0  0  0
  188.9510  174.3090  136.9630 O   0  0  0  0  0  1  0  0  0  0  0  0
  190.3320  173.7460  138.7330 O   0  0  0  0  0  0  0  0  0  0  0  0
  190.1970  173.7920  137.3240 C   0  0  1  0  0  3  0  0  0  0  0  0
  191.1480  171.5130  137.4460 O   0  0  0  0  0  0  0  0  0  0  0  0
  189.6770  172.4410  140.7260 C   0  0  1  0  0  3  0  0  0  0  0  0
  189.3760  171.9030  136.0000 O   0  0  0  0  0  1  0  0  0  0  0  0
  194.6810  172.8230  145.5420 O   0  0  0  0  0  0  0  0  0  0  0  0
  194.9410  176.5020  145.7680 C   0  0  0  0  0  3  0  0  0  0  0  0
  193.7010  176.8300  146.3250 C   0  0  0  0  0  3  0  0  0  0  0  0
  193.1000  174.4930  146.3510 C   0  0  0  0  0  3  0  0  0  0  0  0
  192.7760  175.8230  146.6140 C   0  0  0  0  0  0  0  0  0  0  0  0
  195.2590  175.1670  145.5050 C   0  0  0  0  0  3  0  0  0  0  0  0
  194.3450  174.1550  145.8080 C   0  0  0  0  0  0  0  0  0  0  0  0
  190.6280  175.0340  147.9960 O   0  0  0  0  0  0  0  0  0  0  0  0
  191.3590  177.3420  148.2810 O   0  0  0  0  0  0  0  0  0  0  0  0
  191.2030  176.2280  147.2850 S   0  0  0  0  0  0  0  0  0  0  0  0
  190.5730  177.8340  145.1530 C   0  0  0  0  0  2  0  0  0  0  0  0
  187.8520  176.6090  144.8160 C   0  0  2  0  0  0  0  0  0  0  0  0
  185.2880  178.3610  143.7560 C   0  0  0  0  0  0  0  0  0  0  0  0
  186.3050  178.8910  143.0640 C   0  0  0  0  0  3  0  0  0  0  0  0
  188.8020  176.1920  145.9210 C   0  0  0  0  0  0  0  0  0  0  0  0
  186.3710  177.8850  146.4940 C   0  0  0  0  0  1  0  0  0  0  0  0
  186.4380  176.8130  145.4110 C   0  0  1  0  0  3  0  0  0  0  0  0
  187.8050  175.5620  143.8880 O   0  0  0  0  0  1  0  0  0  0  0  0
  188.3420  177.8980  144.1110 C   0  0  2  0  0  3  0  0  0  0  0  0
  188.4440  175.2910  146.7280 O   0  0  0  0  0  0  0  0  0  0  0  0
  187.5950  178.1750  142.8080 C   0  0  0  0  0  2  0  0  0  0  0  0
  189.8320  177.8310  143.8280 C   0  0  0  0  0  2  0  0  0  0  0  0
  190.1350  176.7350  146.0110 N   0  0  0  0  0  0  0  0  0  0  0  0
  183.8300  179.3110  143.9760 Cl  0  0  0  0  0  0  0  0  0  0  0  0
  185.3420  176.9810  144.3510 C   0  0  0  0  0  2  0  0  0  0  0  0
  196.1860  172.0070  143.8060 C   0  0  0  0  0  2  0  0  0  0  0  0
  196.6040  170.6220  144.2850 C   0  0  1  0  0  3  0  0  0  0  0  0
  195.6620  170.1360  145.1770 F   0  0  0  0  0  0  0  0  0  0  0  0
  195.6570  168.8230  143.0410 F   0  0  0  0  0  0  0  0  0  0  0  0
  196.7610  169.6520  143.1230 C   0  0  0  0  0  3  0  0  0  0  0  0
  196.9180  170.3390  141.9320 F   0  0  0  0  0  0  0  0  0  0  0  0
  1  2  2  0  0  0  0
  1  3  1  0  0  0  0
  3 27  1  0  0  0  0
  4  7  1  0  0  0  0
  5  1  1  0  0  0  0
  6  9  1  0  0  0  0
  6  4  2  0  0  0  0
  7  5  2  0  0  0  0
  7 10  1  0  0  0  0
  8  5  1  0  0  0  0
  9  8  2  0  0  0  0
 10 12  1  0  0  0  0
 10 11  2  0  0  0  0
 12 13  1  0  0  0  0
 14 13  1  0  0  0  0
 15 14  1  0  0  0  0
 17 25  1  0  0  0  0
 18 26  1  1  0  0  0
 18 23  1  0  0  0  0
 18 24  1  0  0  0  0
 19 16  1  6  0  0  0
 19 20  1  0  0  0  0
 20 17  1  6  0  0  0
 20 25  1  0  0  0  0
 22 20  1  0  0  0  0
 23 21  1  1  0  0  0
 23 22  1  0  0  0  0
 24 19  1  0  0  0  0
 25 15  1  1  0  0  0
 27 33  1  0  0  0  0
 28 29  1  0  0  0  0
 29 31  2  0  0  0  0
 30 31  1  0  0  0  0
 31 36  1  0  0  0  0
 32 28  2  0  0  0  0
 32 33  1  0  0  0  0
 33 30  2  0  0  0  0
 36 34  2  0  0  0  0
 36 35  2  0  0  0  0
 37 49  1  0  0  0  0
 38 44  1  6  0  0  0
 38 43  1  0  0  0  0
 38 41  1  0  0  0  0
 39 50  1  0  0  0  0
 39 51  1  0  0  0  0
 40 39  2  0  0  0  0
 41 49  1  0  0  0  0
 41 46  2  0  0  0  0
 43 42  1  1  0  0  0
 45 47  1  6  0  0  0
 45 38  1  0  0  0  0
 47 40  1  0  0  0  0
 48 45  1  0  0  0  0
 48 37  1  0  0  0  0
 49 36  1  0  0  0  0
 51 43  1  0  0  0  0
 52  3  1  0  0  0  0
 52 53  1  0  0  0  0
 53 54  1  1  0  0  0
 55 56  1  0  0  0  0
 56 53  1  0  0  0  0
 57 56  1  0  0  0  0
M  END
>  <MODEL>
9

>  <REMARK>
 VINA RESULT:      -7.9      4.572      9.875
  Name = 
  14 active torsions:
  status: ('A' for Active; 'I' for Inactive)
    1  A    between atoms: C_6  and  C_21
    2  A    between atoms: C_8  and  C_32
    3  A    between atoms: C_8  and  C_45
    4  A    between atoms: C_11  and  C_14
    5  A    between atoms: C_14  and  C_57
    6  A    between atoms: O_31  and  C_50
    7  A    between atoms: O_31  and  N_56
    8  A    between atoms: C_40  and  S_42
    9  A    between atoms: S_42  and  N_48
   10  A    between atoms: C_44  and  C_45
   11  A    between atoms: C_44  and  C_46
   12  A    between atoms: C_46  and  C_54
   13  A    between atoms: C_52  and  C_54
   14  A    between atoms: N_56  and  C_57
                            x       y       z     vdW  Elec       q    Type
                         _______ _______ _______ _____ _____    ______ ____

>  <TORSDO>
F 14

$$$$
