=
 OpenBabel11072408253D

 34 37  0  0  1  0  0  0  0  0999 V2000
  189.7660  173.9390  141.1940 C   0  0  0  0  0  0  0  0  0  0  0  0
  188.1030  174.4160  139.5030 C   0  0  0  0  0  3  0  0  0  0  0  0
  190.2380  174.6030  142.3250 C   0  0  0  0  0  0  0  0  0  0  0  0
  189.4500  172.3840  139.3900 C   0  0  0  0  0  3  0  0  0  0  0  0
  190.0460  172.6880  140.6210 C   0  0  0  0  0  0  0  0  0  0  0  0
  188.7210  174.6930  140.7240 C   0  0  0  0  0  0  0  0  0  0  0  0
  190.7090  171.7040  141.3370 O   0  0  0  0  0  1  0  0  0  0  0  0
  189.3950  175.5770  142.6240 O   0  0  0  0  0  0  0  0  0  0  0  0
  188.4890  175.6770  141.6560 C   0  0  0  0  0  0  0  0  0  0  0  0
  188.5310  173.2770  138.8100 C   0  0  0  0  0  3  0  0  0  0  0  0
  194.6360  176.2550  143.7530 O   0  0  0  0  0  0  0  0  0  0  0  0
  191.0960  172.9670  144.8730 O   0  0  0  0  0  0  0  0  0  0  0  0
  192.3680  175.8030  142.9960 C   0  0  0  0  0  2  0  0  0  0  0  0
  192.1050  175.8300  146.2020 C   0  0  0  0  0  3  0  0  0  0  0  0
  191.5530  174.4530  143.0790 C   0  0  1  0  0  3  0  0  0  0  0  0
  190.9030  175.2480  145.5380 C   0  0  1  0  0  3  0  0  0  0  0  0
  193.1870  176.2160  145.5390 C   0  0  0  0  0  3  0  0  0  0  0  0
  193.4390  176.0820  144.0880 C   0  0  0  0  0  0  0  0  0  0  0  0
  191.2140  174.1350  144.5470 C   0  0  0  0  0  0  0  0  0  0  0  0
  189.1200  174.6160  147.4470 C   0  0  0  0  0  3  0  0  0  0  0  0
  189.9150  174.8600  146.5870 C   0  0  0  0  0  0  0  0  0  0  0  0
  187.3440  176.6690  141.6900 C   0  0  1  0  0  3  0  0  0  0  0  0
  185.1920  180.4320  144.1240 F   0  0  0  0  0  0  0  0  0  0  0  0
  186.3550  178.6630  142.8970 C   0  0  0  0  0  2  0  0  0  0  0  0
  185.1620  178.2600  145.1600 C   0  0  2  0  0  3  0  0  0  0  0  0
  186.9870  177.2650  143.0630 C   0  0  1  0  0  3  0  0  0  0  0  0
  186.0180  176.3370  143.8480 C   0  0  0  0  0  2  0  0  0  0  0  0
  185.7980  176.8630  145.2520 C   0  0  0  0  0  2  0  0  0  0  0  0
  185.9470  179.2650  144.2720 C   0  0  2  0  0  3  0  0  0  0  0  0
  184.8510  178.8100  146.4860 N   0  0  0  0  0  0  0  0  0  0  0  0
  185.8540  179.4460  147.1860 O   0  0  0  0  0  0  0  0  0  0  0  0
  183.8870  178.3660  147.1530 O   0  0  0  0  0  0  0  0  0  0  0  0
  186.2950  177.4560  139.5990 C   0  0  0  0  0  1  0  0  0  0  0  0
  187.4500  177.6940  140.5660 C   0  0  0  0  0  2  0  0  0  0  0  0
  1  3  2  0  0  0  0
  2  6  1  0  0  0  0
  3  8  1  0  0  0  0
  4  5  2  0  0  0  0
  5  1  1  0  0  0  0
  5  7  1  0  0  0  0
  6  1  1  0  0  0  0
  6  9  2  0  0  0  0
  9 22  1  0  0  0  0
  9  8  1  0  0  0  0
 10  4  1  0  0  0  0
 10  2  2  0  0  0  0
 11 18  2  0  0  0  0
 13 15  1  0  0  0  0
 13 18  1  0  0  0  0
 15  3  1  6  0  0  0
 15 19  1  0  0  0  0
 16 14  1  0  0  0  0
 16 21  1  1  0  0  0
 17 14  2  0  0  0  0
 18 17  1  0  0  0  0
 19 12  2  0  0  0  0
 19 16  1  0  0  0  0
 21 20  3  0  0  0  0
 22 34  1  6  0  0  0
 24 26  1  0  0  0  0
 24 29  1  0  0  0  0
 25 28  1  0  0  0  0
 25 30  1  1  0  0  0
 26 22  1  6  0  0  0
 26 27  1  0  0  0  0
 27 28  1  0  0  0  0
 29 23  1  6  0  0  0
 29 25  1  0  0  0  0
 30 32  2  0  0  0  0
 30 31  2  0  0  0  0
 33 34  1  0  0  0  0
M  END
>  <MODEL>
1

>  <REMARK>
 VINA RESULT:      -8.2      0.000      0.000
  Name = 
  6 active torsions:
  status: ('A' for Active; 'I' for Inactive)
    1  A    between atoms: N_6  and  C_9
    2  A    between atoms: C_11  and  C_19
    3  A    between atoms: C_12  and  C_32
    4  A    between atoms: C_20  and  C_28
    5  A    between atoms: C_22  and  C_32
    6  A    between atoms: C_31  and  C_32
                            x       y       z     vdW  Elec       q    Type
                         _______ _______ _______ _____ _____    ______ ____

>  <TORSDO>
F 6

$$$$
=
 OpenBabel11072408253D

 34 37  0  0  1  0  0  0  0  0999 V2000
  189.4110  173.4150  142.2960 C   0  0  0  0  0  0  0  0  0  0  0  0
  188.5560  174.3020  140.2120 C   0  0  0  0  0  3  0  0  0  0  0  0
  189.4790  173.8790  143.6080 C   0  0  0  0  0  0  0  0  0  0  0  0
  189.6600  172.1260  140.2830 C   0  0  0  0  0  3  0  0  0  0  0  0
  189.7730  172.2070  141.6770 C   0  0  0  0  0  0  0  0  0  0  0  0
  188.6910  174.3540  141.6010 C   0  0  0  0  0  0  0  0  0  0  0  0
  190.0270  171.0680  142.4240 O   0  0  0  0  0  1  0  0  0  0  0  0
  188.6760  174.9230  143.7270 O   0  0  0  0  0  0  0  0  0  0  0  0
  188.2140  175.2530  142.5260 C   0  0  0  0  0  0  0  0  0  0  0  0
  189.1100  173.1960  139.5540 C   0  0  0  0  0  3  0  0  0  0  0  0
  193.8880  172.7440  145.4470 O   0  0  0  0  0  0  0  0  0  0  0  0
  189.3390  174.2450  146.7300 O   0  0  0  0  0  0  0  0  0  0  0  0
  191.8960  173.4920  144.2660 C   0  0  0  0  0  2  0  0  0  0  0  0
  192.3020  175.7190  146.5520 C   0  0  0  0  0  3  0  0  0  0  0  0
  190.3940  173.4650  144.7520 C   0  0  1  0  0  3  0  0  0  0  0  0
  190.9550  175.7960  145.9150 C   0  0  1  0  0  3  0  0  0  0  0  0
  193.1940  174.7830  146.2560 C   0  0  0  0  0  3  0  0  0  0  0  0
  193.0140  173.6370  145.3380 C   0  0  0  0  0  0  0  0  0  0  0  0
  190.1960  174.4760  145.8960 C   0  0  0  0  0  0  0  0  0  0  0  0
  189.6310  177.8200  147.0870 C   0  0  0  0  0  3  0  0  0  0  0  0
  190.1940  176.9190  146.5370 C   0  0  0  0  0  0  0  0  0  0  0  0
  187.2340  176.3860  142.2950 C   0  0  1  0  0  3  0  0  0  0  0  0
  186.8360  176.2310  147.2490 F   0  0  0  0  0  0  0  0  0  0  0  0
  186.9700  176.1850  144.8060 C   0  0  0  0  0  2  0  0  0  0  0  0
  186.3100  178.3020  146.1440 C   0  0  2  0  0  3  0  0  0  0  0  0
  186.5040  176.9290  143.5370 C   0  0  1  0  0  3  0  0  0  0  0  0
  186.7350  178.4570  143.7040 C   0  0  0  0  0  2  0  0  0  0  0  0
  185.8910  179.0020  144.8390 C   0  0  0  0  0  2  0  0  0  0  0  0
  186.2760  176.7500  146.0780 C   0  0  2  0  0  3  0  0  0  0  0  0
  185.5830  178.8280  147.3060 N   0  0  0  0  0  0  0  0  0  0  0  0
  184.2330  178.5650  147.4130 O   0  0  0  0  0  0  0  0  0  0  0  0
  186.0190  179.8180  147.9400 O   0  0  0  0  0  0  0  0  0  0  0  0
  186.9000  177.6010  140.1750 C   0  0  0  0  0  1  0  0  0  0  0  0
  187.8160  177.4610  141.3850 C   0  0  0  0  0  2  0  0  0  0  0  0
  1  3  2  0  0  0  0
  2  6  1  0  0  0  0
  3  8  1  0  0  0  0
  4  5  2  0  0  0  0
  5  1  1  0  0  0  0
  5  7  1  0  0  0  0
  6  1  1  0  0  0  0
  6  9  2  0  0  0  0
  9  8  1  0  0  0  0
 10  2  2  0  0  0  0
 10  4  1  0  0  0  0
 13 15  1  0  0  0  0
 13 18  1  0  0  0  0
 15  3  1  6  0  0  0
 15 19  1  0  0  0  0
 16 21  1  1  0  0  0
 16 14  1  0  0  0  0
 17 14  2  0  0  0  0
 18 11  2  0  0  0  0
 18 17  1  0  0  0  0
 19 16  1  0  0  0  0
 19 12  2  0  0  0  0
 21 20  3  0  0  0  0
 22 34  1  1  0  0  0
 22  9  1  0  0  0  0
 24 29  1  0  0  0  0
 25 30  1  1  0  0  0
 26 22  1  6  0  0  0
 26 27  1  0  0  0  0
 26 24  1  0  0  0  0
 27 28  1  0  0  0  0
 28 25  1  0  0  0  0
 29 25  1  0  0  0  0
 29 23  1  1  0  0  0
 30 31  2  0  0  0  0
 30 32  2  0  0  0  0
 33 34  1  0  0  0  0
M  END
>  <MODEL>
2

>  <REMARK>
 VINA RESULT:      -7.8      1.704      2.143
  Name = 
  6 active torsions:
  status: ('A' for Active; 'I' for Inactive)
    1  A    between atoms: N_6  and  C_9
    2  A    between atoms: C_11  and  C_19
    3  A    between atoms: C_12  and  C_32
    4  A    between atoms: C_20  and  C_28
    5  A    between atoms: C_22  and  C_32
    6  A    between atoms: C_31  and  C_32
                            x       y       z     vdW  Elec       q    Type
                         _______ _______ _______ _____ _____    ______ ____

>  <TORSDO>
F 6

$$$$
=
 OpenBabel11072408253D

 34 37  0  0  1  0  0  0  0  0999 V2000
  190.4620  173.9410  141.9650 C   0  0  0  0  0  0  0  0  0  0  0  0
  188.4800  174.1830  140.5970 C   0  0  0  0  0  3  0  0  0  0  0  0
  191.1580  174.7690  142.8440 C   0  0  0  0  0  0  0  0  0  0  0  0
  189.7800  172.1170  140.5580 C   0  0  0  0  0  3  0  0  0  0  0  0
  190.6190  172.6030  141.5690 C   0  0  0  0  0  0  0  0  0  0  0  0
  189.3400  174.6400  141.5980 C   0  0  0  0  0  0  0  0  0  0  0  0
  191.4200  171.7310  142.2900 O   0  0  0  0  0  1  0  0  0  0  0  0
  190.3930  175.8070  143.1390 O   0  0  0  0  0  0  0  0  0  0  0  0
  189.3050  175.7730  142.3770 C   0  0  0  0  0  0  0  0  0  0  0  0
  188.7570  172.9300  140.0360 C   0  0  0  0  0  3  0  0  0  0  0  0
  195.7190  176.5630  143.1420 O   0  0  0  0  0  0  0  0  0  0  0  0
  192.5510  173.4380  145.3320 O   0  0  0  0  0  0  0  0  0  0  0  0
  193.3540  176.0320  142.9230 C   0  0  0  0  0  2  0  0  0  0  0  0
  193.7500  176.4330  146.0900 C   0  0  0  0  0  3  0  0  0  0  0  0
  192.6010  174.7040  143.3240 C   0  0  1  0  0  3  0  0  0  0  0  0
  192.4490  175.7810  145.7570 C   0  0  1  0  0  3  0  0  0  0  0  0
  194.6650  176.7360  145.1800 C   0  0  0  0  0  3  0  0  0  0  0  0
  194.6190  176.4340  143.7330 C   0  0  0  0  0  0  0  0  0  0  0  0
  192.5760  174.5590  144.8570 C   0  0  0  0  0  0  0  0  0  0  0  0
  191.0840  175.3780  148.0360 C   0  0  0  0  0  3  0  0  0  0  0  0
  191.7050  175.5210  147.0230 C   0  0  0  0  0  0  0  0  0  0  0  0
  188.1890  176.7940  142.4760 C   0  0  1  0  0  3  0  0  0  0  0  0
  185.0860  179.4840  145.2780 F   0  0  0  0  0  0  0  0  0  0  0  0
  186.6540  178.2760  143.8390 C   0  0  0  0  0  2  0  0  0  0  0  0
  186.3470  177.7400  146.3540 C   0  0  2  0  0  3  0  0  0  0  0  0
  187.9050  177.3720  143.8740 C   0  0  1  0  0  3  0  0  0  0  0  0
  187.7130  176.2420  144.9240 C   0  0  0  0  0  2  0  0  0  0  0  0
  187.5840  176.8270  146.3160 C   0  0  0  0  0  2  0  0  0  0  0  0
  186.3240  178.8350  145.2520 C   0  0  2  0  0  3  0  0  0  0  0  0
  186.1130  178.2910  147.6960 N   0  0  0  0  0  0  0  0  0  0  0  0
  184.8140  178.5270  148.0930 O   0  0  0  0  0  0  0  0  0  0  0  0
  187.0130  178.9290  148.2920 O   0  0  0  0  0  0  0  0  0  0  0  0
  187.1240  177.5980  140.4010 C   0  0  0  0  0  1  0  0  0  0  0  0
  188.2770  177.8380  141.3680 C   0  0  0  0  0  2  0  0  0  0  0  0
  1  3  2  0  0  0  0
  2  6  1  0  0  0  0
  3  8  1  0  0  0  0
  4  5  2  0  0  0  0
  5  1  1  0  0  0  0
  5  7  1  0  0  0  0
  6  1  1  0  0  0  0
  6  9  2  0  0  0  0
  9 22  1  0  0  0  0
  9  8  1  0  0  0  0
 10  4  1  0  0  0  0
 10  2  2  0  0  0  0
 11 18  2  0  0  0  0
 13 15  1  0  0  0  0
 13 18  1  0  0  0  0
 15  3  1  1  0  0  0
 15 19  1  0  0  0  0
 16 14  1  0  0  0  0
 16 21  1  1  0  0  0
 17 14  2  0  0  0  0
 18 17  1  0  0  0  0
 19 12  2  0  0  0  0
 19 16  1  0  0  0  0
 21 20  3  0  0  0  0
 22 34  1  6  0  0  0
 24 26  1  0  0  0  0
 24 29  1  0  0  0  0
 25 30  1  1  0  0  0
 26 22  1  6  0  0  0
 26 27  1  0  0  0  0
 27 28  1  0  0  0  0
 28 25  1  0  0  0  0
 29 23  1  6  0  0  0
 29 25  1  0  0  0  0
 30 31  2  0  0  0  0
 30 32  2  0  0  0  0
 33 34  1  0  0  0  0
M  END
>  <MODEL>
3

>  <REMARK>
 VINA RESULT:      -7.8      1.289      1.529
  Name = 
  6 active torsions:
  status: ('A' for Active; 'I' for Inactive)
    1  A    between atoms: N_6  and  C_9
    2  A    between atoms: C_11  and  C_19
    3  A    between atoms: C_12  and  C_32
    4  A    between atoms: C_20  and  C_28
    5  A    between atoms: C_22  and  C_32
    6  A    between atoms: C_31  and  C_32
                            x       y       z     vdW  Elec       q    Type
                         _______ _______ _______ _____ _____    ______ ____

>  <TORSDO>
F 6

$$$$
=
 OpenBabel11072408253D

 34 37  0  0  1  0  0  0  0  0999 V2000
  189.8650  173.8510  143.6380 C   0  0  0  0  0  0  0  0  0  0  0  0
  188.7030  174.9730  141.8350 C   0  0  0  0  0  3  0  0  0  0  0  0
  190.7030  174.2610  144.6730 C   0  0  0  0  0  0  0  0  0  0  0  0
  188.5880  172.5470  142.0750 C   0  0  0  0  0  3  0  0  0  0  0  0
  189.3210  172.6110  143.2680 C   0  0  0  0  0  0  0  0  0  0  0  0
  189.4370  175.0010  143.0220 C   0  0  0  0  0  0  0  0  0  0  0  0
  189.3190  171.5380  144.1450 O   0  0  0  0  0  1  0  0  0  0  0  0
  190.6140  175.5750  144.7920 O   0  0  0  0  0  0  0  0  0  0  0  0
  189.8840  176.0520  143.7890 C   0  0  0  0  0  0  0  0  0  0  0  0
  188.3370  173.7170  141.3360 C   0  0  0  0  0  3  0  0  0  0  0  0
  194.1570  170.8000  145.1240 O   0  0  0  0  0  0  0  0  0  0  0  0
  192.3820  174.9130  147.2540 O   0  0  0  0  0  0  0  0  0  0  0  0
  192.5360  172.5160  144.5310 C   0  0  0  0  0  2  0  0  0  0  0  0
  195.1010  174.2000  145.4980 C   0  0  0  0  0  3  0  0  0  0  0  0
  191.7200  173.4720  145.4870 C   0  0  1  0  0  3  0  0  0  0  0  0
  193.8720  175.0410  145.3980 C   0  0  1  0  0  3  0  0  0  0  0  0
  195.1050  172.8910  145.2860 C   0  0  0  0  0  3  0  0  0  0  0  0
  193.9370  172.0300  144.9990 C   0  0  0  0  0  0  0  0  0  0  0  0
  192.6710  174.4840  146.1510 C   0  0  0  0  0  0  0  0  0  0  0  0
  194.5640  177.5500  146.0690 C   0  0  0  0  0  3  0  0  0  0  0  0
  194.2190  176.4430  145.7710 C   0  0  0  0  0  0  0  0  0  0  0  0
  189.5460  177.5210  143.6330 C   0  0  1  0  0  3  0  0  0  0  0  0
  184.5880  177.8810  143.4980 F   0  0  0  0  0  0  0  0  0  0  0  0
  187.0340  177.8010  143.4700 C   0  0  0  0  0  2  0  0  0  0  0  0
  185.6460  177.7200  145.6540 C   0  0  2  0  0  3  0  0  0  0  0  0
  188.2800  178.0180  144.3550 C   0  0  1  0  0  3  0  0  0  0  0  0
  188.0900  177.3000  145.7210 C   0  0  0  0  0  2  0  0  0  0  0  0
  186.9280  177.9050  146.4820 C   0  0  0  0  0  2  0  0  0  0  0  0
  185.7390  178.2570  144.1990 C   0  0  2  0  0  3  0  0  0  0  0  0
  184.4590  178.2200  146.3600 N   0  0  0  0  0  0  0  0  0  0  0  0
  183.5820  179.0360  145.6770 O   0  0  0  0  0  0  0  0  0  0  0  0
  184.4410  178.2900  147.6120 O   0  0  0  0  0  0  0  0  0  0  0  0
  191.9490  177.7450  143.1220 C   0  0  0  0  0  1  0  0  0  0  0  0
  190.7710  178.4070  143.8270 C   0  0  0  0  0  2  0  0  0  0  0  0
  1  3  2  0  0  0  0
  2  6  1  0  0  0  0
  3  8  1  0  0  0  0
  4  5  2  0  0  0  0
  5  1  1  0  0  0  0
  5  7  1  0  0  0  0
  6  1  1  0  0  0  0
  6  9  2  0  0  0  0
  9  8  1  0  0  0  0
 10  2  2  0  0  0  0
 10  4  1  0  0  0  0
 13 18  1  0  0  0  0
 13 15  1  0  0  0  0
 15  3  1  6  0  0  0
 15 19  1  0  0  0  0
 16 14  1  0  0  0  0
 16 21  1  1  0  0  0
 16 19  1  0  0  0  0
 17 14  2  0  0  0  0
 18 11  2  0  0  0  0
 18 17  1  0  0  0  0
 19 12  2  0  0  0  0
 21 20  3  0  0  0  0
 22  9  1  0  0  0  0
 22 34  1  1  0  0  0
 24 29  1  0  0  0  0
 24 26  1  0  0  0  0
 25 30  1  1  0  0  0
 25 28  1  0  0  0  0
 26 22  1  6  0  0  0
 26 27  1  0  0  0  0
 27 28  1  0  0  0  0
 29 23  1  6  0  0  0
 29 25  1  0  0  0  0
 30 32  2  0  0  0  0
 31 30  2  0  0  0  0
 33 34  1  0  0  0  0
M  END
>  <MODEL>
4

>  <REMARK>
 VINA RESULT:      -7.6      2.130      3.269
  Name = 
  6 active torsions:
  status: ('A' for Active; 'I' for Inactive)
    1  A    between atoms: N_6  and  C_9
    2  A    between atoms: C_11  and  C_19
    3  A    between atoms: C_12  and  C_32
    4  A    between atoms: C_20  and  C_28
    5  A    between atoms: C_22  and  C_32
    6  A    between atoms: C_31  and  C_32
                            x       y       z     vdW  Elec       q    Type
                         _______ _______ _______ _____ _____    ______ ____

>  <TORSDO>
F 6

$$$$
=
 OpenBabel11072408253D

 34 37  0  0  1  0  0  0  0  0999 V2000
  191.9500  175.3570  145.6110 C   0  0  0  0  0  0  0  0  0  0  0  0
  189.6450  174.6200  145.6470 C   0  0  0  0  0  3  0  0  0  0  0  0
  192.9710  175.3500  144.6620 C   0  0  0  0  0  0  0  0  0  0  0  0
  190.6790  175.5810  147.6380 C   0  0  0  0  0  3  0  0  0  0  0  0
  191.8520  175.8530  146.9210 C   0  0  0  0  0  0  0  0  0  0  0  0
  190.8310  174.8980  144.9640 C   0  0  0  0  0  0  0  0  0  0  0  0
  192.7780  176.7580  147.4170 O   0  0  0  0  0  1  0  0  0  0  0  0
  192.4420  175.0990  143.4770 O   0  0  0  0  0  0  0  0  0  0  0  0
  191.1580  174.7890  143.6320 C   0  0  0  0  0  0  0  0  0  0  0  0
  189.6090  174.9120  147.0160 C   0  0  0  0  0  3  0  0  0  0  0  0
  197.2030  173.7840  146.5990 O   0  0  0  0  0  0  0  0  0  0  0  0
  195.3090  176.4150  142.8450 O   0  0  0  0  0  0  0  0  0  0  0  0
  194.9780  174.2090  145.7090 C   0  0  0  0  0  2  0  0  0  0  0  0
  196.6940  173.4160  143.1070 C   0  0  0  0  0  3  0  0  0  0  0  0
  194.4810  175.4300  144.8400 C   0  0  1  0  0  3  0  0  0  0  0  0
  195.3820  174.0350  142.7560 C   0  0  1  0  0  3  0  0  0  0  0  0
  197.1270  173.2860  144.3540 C   0  0  0  0  0  3  0  0  0  0  0  0
  196.4650  173.7740  145.5830 C   0  0  0  0  0  0  0  0  0  0  0  0
  195.1180  175.3700  143.4400 C   0  0  0  0  0  0  0  0  0  0  0  0
  195.0870  174.1250  140.0870 C   0  0  0  0  0  3  0  0  0  0  0  0
  195.2570  174.0840  141.2710 C   0  0  0  0  0  0  0  0  0  0  0  0
  190.2320  174.4790  142.4740 C   0  0  1  0  0  3  0  0  0  0  0  0
  185.5670  176.0360  143.2090 F   0  0  0  0  0  0  0  0  0  0  0  0
  187.8140  175.1690  142.7690 C   0  0  0  0  0  2  0  0  0  0  0  0
  187.2470  177.6960  142.7480 C   0  0  2  0  0  3  0  0  0  0  0  0
  189.1710  175.5420  142.1360 C   0  0  1  0  0  3  0  0  0  0  0  0
  189.6100  176.9530  142.6180 C   0  0  0  0  0  2  0  0  0  0  0  0
  188.6280  178.0060  142.1460 C   0  0  0  0  0  2  0  0  0  0  0  0
  186.7380  176.2530  142.4760 C   0  0  2  0  0  3  0  0  0  0  0  0
  186.2520  178.7160  142.3920 N   0  0  0  0  0  0  0  0  0  0  0  0
  185.6630  179.4430  143.4060 O   0  0  0  0  0  0  0  0  0  0  0  0
  185.6310  178.6540  141.3050 O   0  0  0  0  0  0  0  0  0  0  0  0
  191.2410  172.4560  141.4870 C   0  0  0  0  0  1  0  0  0  0  0  0
  190.9940  173.9440  141.2670 C   0  0  0  0  0  2  0  0  0  0  0  0
  1  5  1  0  0  0  0
  2 10  2  0  0  0  0
  3  1  2  0  0  0  0
  5  7  1  0  0  0  0
  5  4  2  0  0  0  0
  6  1  1  0  0  0  0
  6  2  1  0  0  0  0
  8  9  1  0  0  0  0
  8  3  1  0  0  0  0
  9  6  2  0  0  0  0
 10  4  1  0  0  0  0
 12 19  2  0  0  0  0
 14 17  2  0  0  0  0
 15  3  1  6  0  0  0
 15 13  1  0  0  0  0
 16 21  1  6  0  0  0
 16 14  1  0  0  0  0
 16 19  1  0  0  0  0
 17 18  1  0  0  0  0
 18 13  1  0  0  0  0
 18 11  2  0  0  0  0
 19 15  1  0  0  0  0
 20 21  3  0  0  0  0
 22 34  1  6  0  0  0
 22  9  1  0  0  0  0
 25 30  1  6  0  0  0
 26 22  1  1  0  0  0
 26 27  1  0  0  0  0
 26 24  1  0  0  0  0
 28 27  1  0  0  0  0
 28 25  1  0  0  0  0
 29 25  1  0  0  0  0
 29 24  1  0  0  0  0
 29 23  1  1  0  0  0
 30 31  2  0  0  0  0
 32 30  2  0  0  0  0
 34 33  1  0  0  0  0
M  END
>  <MODEL>
5

>  <REMARK>
 VINA RESULT:      -7.6      2.760      5.469
  Name = 
  6 active torsions:
  status: ('A' for Active; 'I' for Inactive)
    1  A    between atoms: N_6  and  C_9
    2  A    between atoms: C_11  and  C_19
    3  A    between atoms: C_12  and  C_32
    4  A    between atoms: C_20  and  C_28
    5  A    between atoms: C_22  and  C_32
    6  A    between atoms: C_31  and  C_32
                            x       y       z     vdW  Elec       q    Type
                         _______ _______ _______ _____ _____    ______ ____

>  <TORSDO>
F 6

$$$$
=
 OpenBabel11072408253D

 34 37  0  0  1  0  0  0  0  0999 V2000
  191.1640  174.4830  142.3400 C   0  0  0  0  0  0  0  0  0  0  0  0
  188.7960  174.9790  142.4160 C   0  0  0  0  0  3  0  0  0  0  0  0
  192.2550  174.7720  143.1560 C   0  0  0  0  0  0  0  0  0  0  0  0
  189.7540  173.7510  140.5370 C   0  0  0  0  0  3  0  0  0  0  0  0
  191.0080  173.7350  141.1620 C   0  0  0  0  0  0  0  0  0  0  0  0
  190.0600  174.9520  143.0080 C   0  0  0  0  0  0  0  0  0  0  0  0
  191.9840  172.8430  140.7460 O   0  0  0  0  0  1  0  0  0  0  0  0
  191.8070  175.1970  144.3250 O   0  0  0  0  0  0  0  0  0  0  0  0
  190.4880  175.3480  144.2530 C   0  0  0  0  0  0  0  0  0  0  0  0
  188.6740  174.4230  141.1360 C   0  0  0  0  0  3  0  0  0  0  0  0
  196.6940  176.8640  143.3390 O   0  0  0  0  0  0  0  0  0  0  0  0
  194.3950  172.5290  142.6090 O   0  0  0  0  0  0  0  0  0  0  0  0
  194.4170  176.0340  143.5580 C   0  0  0  0  0  2  0  0  0  0  0  0
  196.1780  173.8200  145.0870 C   0  0  0  0  0  3  0  0  0  0  0  0
  193.7440  174.8010  142.8360 C   0  0  1  0  0  3  0  0  0  0  0  0
  194.7880  173.3510  144.8120 C   0  0  1  0  0  3  0  0  0  0  0  0
  196.6470  174.9890  144.6730 C   0  0  0  0  0  3  0  0  0  0  0  0
  195.9470  175.9820  143.8290 C   0  0  0  0  0  0  0  0  0  0  0  0
  194.3590  173.4900  143.3580 C   0  0  0  0  0  0  0  0  0  0  0  0
  194.5660  170.8470  145.7640 C   0  0  0  0  0  3  0  0  0  0  0  0
  194.6310  171.9710  145.3570 C   0  0  0  0  0  0  0  0  0  0  0  0
  189.6370  175.7890  145.4270 C   0  0  1  0  0  3  0  0  0  0  0  0
  185.1470  176.9790  147.2010 F   0  0  0  0  0  0  0  0  0  0  0  0
  187.3230  176.2620  146.3390 C   0  0  0  0  0  2  0  0  0  0  0  0
  185.9760  178.2210  145.3140 C   0  0  2  0  0  3  0  0  0  0  0  0
  188.2360  176.3340  145.0970 C   0  0  1  0  0  3  0  0  0  0  0  0
  188.3060  177.7970  144.5770 C   0  0  0  0  0  2  0  0  0  0  0  0
  186.9400  178.2640  144.1170 C   0  0  0  0  0  2  0  0  0  0  0  0
  185.9140  176.8490  146.0390 C   0  0  2  0  0  3  0  0  0  0  0  0
  184.6430  178.7290  144.9640 N   0  0  0  0  0  0  0  0  0  0  0  0
  183.7680  179.0410  145.9830 O   0  0  0  0  0  0  0  0  0  0  0  0
  184.1420  178.4900  143.8400 O   0  0  0  0  0  0  0  0  0  0  0  0
  190.6140  175.2890  147.6370 C   0  0  0  0  0  1  0  0  0  0  0  0
  189.6660  174.7710  146.5610 C   0  0  0  0  0  2  0  0  0  0  0  0
  1  6  1  0  0  0  0
  1  3  2  0  0  0  0
  2  6  1  0  0  0  0
  3  8  1  0  0  0  0
  4 10  1  0  0  0  0
  4  5  2  0  0  0  0
  5  1  1  0  0  0  0
  6  9  2  0  0  0  0
  7  5  1  0  0  0  0
  9  8  1  0  0  0  0
  9 22  1  0  0  0  0
 10  2  2  0  0  0  0
 11 18  2  0  0  0  0
 12 19  2  0  0  0  0
 13 18  1  0  0  0  0
 15  3  1  1  0  0  0
 15 19  1  0  0  0  0
 15 13  1  0  0  0  0
 16 14  1  0  0  0  0
 16 21  1  6  0  0  0
 17 14  2  0  0  0  0
 18 17  1  0  0  0  0
 19 16  1  0  0  0  0
 21 20  3  0  0  0  0
 22 34  1  1  0  0  0
 25 30  1  6  0  0  0
 25 29  1  0  0  0  0
 26 22  1  1  0  0  0
 26 24  1  0  0  0  0
 27 26  1  0  0  0  0
 28 27  1  0  0  0  0
 28 25  1  0  0  0  0
 29 24  1  0  0  0  0
 29 23  1  1  0  0  0
 30 31  2  0  0  0  0
 32 30  2  0  0  0  0
 34 33  1  0  0  0  0
M  END
>  <MODEL>
6

>  <REMARK>
 VINA RESULT:      -7.5      2.357      3.789
  Name = 
  6 active torsions:
  status: ('A' for Active; 'I' for Inactive)
    1  A    between atoms: N_6  and  C_9
    2  A    between atoms: C_11  and  C_19
    3  A    between atoms: C_12  and  C_32
    4  A    between atoms: C_20  and  C_28
    5  A    between atoms: C_22  and  C_32
    6  A    between atoms: C_31  and  C_32
                            x       y       z     vdW  Elec       q    Type
                         _______ _______ _______ _____ _____    ______ ____

>  <TORSDO>
F 6

$$$$
=
 OpenBabel11072408253D

 34 37  0  0  1  0  0  0  0  0999 V2000
  192.9390  175.6330  144.3470 C   0  0  0  0  0  0  0  0  0  0  0  0
  192.7990  176.6690  146.5290 C   0  0  0  0  0  3  0  0  0  0  0  0
  192.0340  174.9970  143.4990 C   0  0  0  0  0  0  0  0  0  0  0  0
  194.9320  176.5200  145.3540 C   0  0  0  0  0  3  0  0  0  0  0  0
  194.2980  175.9670  144.2330 C   0  0  0  0  0  0  0  0  0  0  0  0
  192.1990  176.1100  145.3990 C   0  0  0  0  0  0  0  0  0  0  0  0
  194.9390  175.9560  143.0040 O   0  0  0  0  0  1  0  0  0  0  0  0
  190.8080  175.2600  143.9200 O   0  0  0  0  0  0  0  0  0  0  0  0
  190.8770  175.9010  145.0820 C   0  0  0  0  0  0  0  0  0  0  0  0
  194.1920  176.8090  146.5140 C   0  0  0  0  0  3  0  0  0  0  0  0
  193.9620  170.8680  141.6710 O   0  0  0  0  0  0  0  0  0  0  0  0
  190.4130  174.2480  140.9070 O   0  0  0  0  0  0  0  0  0  0  0  0
  193.0370  172.7440  142.9150 C   0  0  0  0  0  2  0  0  0  0  0  0
  190.4350  171.1080  141.9680 C   0  0  0  0  0  3  0  0  0  0  0  0
  192.2730  174.0110  142.3640 C   0  0  1  0  0  3  0  0  0  0  0  0
  190.0980  172.4740  142.4670 C   0  0  1  0  0  3  0  0  0  0  0  0
  191.6780  170.6600  141.8570 C   0  0  0  0  0  3  0  0  0  0  0  0
  192.9240  171.4130  142.1190 C   0  0  0  0  0  0  0  0  0  0  0  0
  190.8970  173.5930  141.8130 C   0  0  0  0  0  0  0  0  0  0  0  0
  187.4410  172.8180  142.2540 C   0  0  0  0  0  3  0  0  0  0  0  0
  188.6210  172.6630  142.3870 C   0  0  0  0  0  0  0  0  0  0  0  0
  189.6570  176.3910  145.8350 C   0  0  1  0  0  3  0  0  0  0  0  0
  184.7640  177.2690  145.9750 F   0  0  0  0  0  0  0  0  0  0  0  0
  187.1470  176.7110  145.9520 C   0  0  0  0  0  2  0  0  0  0  0  0
  185.9860  178.0210  144.0440 C   0  0  2  0  0  3  0  0  0  0  0  0
  188.3660  176.5670  145.0150 C   0  0  1  0  0  3  0  0  0  0  0  0
  188.4570  177.8020  144.0740 C   0  0  0  0  0  2  0  0  0  0  0  0
  187.2430  177.8720  143.1700 C   0  0  0  0  0  2  0  0  0  0  0  0
  185.8380  176.9340  145.1440 C   0  0  2  0  0  3  0  0  0  0  0  0
  184.7700  178.1680  143.2340 N   0  0  0  0  0  0  0  0  0  0  0  0
  184.8420  177.9000  141.8830 O   0  0  0  0  0  0  0  0  0  0  0  0
  183.8320  178.9070  143.6160 O   0  0  0  0  0  0  0  0  0  0  0  0
  189.3160  174.1650  146.8430 C   0  0  0  0  0  1  0  0  0  0  0  0
  189.4690  175.6500  147.1540 C   0  0  0  0  0  2  0  0  0  0  0  0
  1  6  1  0  0  0  0
  3  8  1  0  0  0  0
  3  1  2  0  0  0  0
  4 10  1  0  0  0  0
  5  1  1  0  0  0  0
  5  4  2  0  0  0  0
  6  2  1  0  0  0  0
  7  5  1  0  0  0  0
  8  9  1  0  0  0  0
  9  6  2  0  0  0  0
  9 22  1  0  0  0  0
 10  2  2  0  0  0  0
 11 18  2  0  0  0  0
 12 19  2  0  0  0  0
 14 16  1  0  0  0  0
 15 13  1  0  0  0  0
 15  3  1  1  0  0  0
 16 21  1  6  0  0  0
 17 14  2  0  0  0  0
 17 18  1  0  0  0  0
 18 13  1  0  0  0  0
 19 15  1  0  0  0  0
 19 16  1  0  0  0  0
 20 21  3  0  0  0  0
 22 34  1  1  0  0  0
 25 30  1  6  0  0  0
 25 29  1  0  0  0  0
 26 22  1  1  0  0  0
 26 24  1  0  0  0  0
 27 26  1  0  0  0  0
 28 25  1  0  0  0  0
 28 27  1  0  0  0  0
 29 24  1  0  0  0  0
 29 23  1  1  0  0  0
 30 32  2  0  0  0  0
 31 30  2  0  0  0  0
 33 34  1  0  0  0  0
M  END
>  <MODEL>
7

>  <REMARK>
 VINA RESULT:      -7.5      2.220      5.283
  Name = 
  6 active torsions:
  status: ('A' for Active; 'I' for Inactive)
    1  A    between atoms: N_6  and  C_9
    2  A    between atoms: C_11  and  C_19
    3  A    between atoms: C_12  and  C_32
    4  A    between atoms: C_20  and  C_28
    5  A    between atoms: C_22  and  C_32
    6  A    between atoms: C_31  and  C_32
                            x       y       z     vdW  Elec       q    Type
                         _______ _______ _______ _____ _____    ______ ____

>  <TORSDO>
F 6

$$$$
=
 OpenBabel11072408253D

 34 37  0  0  1  0  0  0  0  0999 V2000
  188.8210  174.7500  142.7270 C   0  0  0  0  0  0  0  0  0  0  0  0
  189.5890  172.5960  143.5190 C   0  0  0  0  0  3  0  0  0  0  0  0
  188.8150  176.0430  143.2450 C   0  0  0  0  0  0  0  0  0  0  0  0
  188.4710  172.8050  141.3590 C   0  0  0  0  0  3  0  0  0  0  0  0
  188.4210  174.1980  141.4980 C   0  0  0  0  0  0  0  0  0  0  0  0
  189.5160  173.9850  143.6300 C   0  0  0  0  0  0  0  0  0  0  0  0
  188.1910  175.0020  140.3930 O   0  0  0  0  0  1  0  0  0  0  0  0
  189.6310  176.0840  144.2840 O   0  0  0  0  0  0  0  0  0  0  0  0
  190.0420  174.8510  144.5610 C   0  0  0  0  0  0  0  0  0  0  0  0
  188.9970  172.0090  142.3930 C   0  0  0  0  0  3  0  0  0  0  0  0
  185.1740  178.1730  140.7310 O   0  0  0  0  0  0  0  0  0  0  0  0
  187.9560  178.6340  144.8110 O   0  0  0  0  0  0  0  0  0  0  0  0
  186.7970  176.7910  141.9060 C   0  0  0  0  0  2  0  0  0  0  0  0
  184.8080  177.7710  144.2360 C   0  0  0  0  0  3  0  0  0  0  0  0
  187.9480  177.2430  142.8870 C   0  0  1  0  0  3  0  0  0  0  0  0
  186.0690  177.1800  144.7750 C   0  0  1  0  0  3  0  0  0  0  0  0
  184.5800  177.9410  142.9410 C   0  0  0  0  0  3  0  0  0  0  0  0
  185.5130  177.6650  141.8270 C   0  0  0  0  0  0  0  0  0  0  0  0
  187.3400  177.7840  144.1940 C   0  0  0  0  0  0  0  0  0  0  0  0
  185.9410  177.1710  147.4590 C   0  0  0  0  0  3  0  0  0  0  0  0
  186.0140  177.2100  146.2650 C   0  0  0  0  0  0  0  0  0  0  0  0
  191.0200  174.5300  145.6730 C   0  0  1  0  0  3  0  0  0  0  0  0
  194.4360  174.7710  142.0680 F   0  0  0  0  0  0  0  0  0  0  0  0
  192.7430  174.5190  143.8170 C   0  0  0  0  0  2  0  0  0  0  0  0
  194.8820  175.9470  144.1190 C   0  0  2  0  0  3  0  0  0  0  0  0
  192.5160  174.6670  145.3370 C   0  0  1  0  0  3  0  0  0  0  0  0
  193.0830  176.0300  145.8250 C   0  0  0  0  0  2  0  0  0  0  0  0
  194.5840  176.0850  145.6220 C   0  0  0  0  0  2  0  0  0  0  0  0
  194.2440  174.6980  143.4510 C   0  0  2  0  0  3  0  0  0  0  0  0
  196.3180  176.0620  143.8320 N   0  0  0  0  0  0  0  0  0  0  0  0
  197.1730  175.1170  144.3600 O   0  0  0  0  0  0  0  0  0  0  0  0
  196.8200  177.1660  143.5130 O   0  0  0  0  0  0  0  0  0  0  0  0
  189.1550  174.8100  147.2630 C   0  0  0  0  0  1  0  0  0  0  0  0
  190.6090  175.1760  146.9920 C   0  0  0  0  0  2  0  0  0  0  0  0
  1  3  2  0  0  0  0
  1  6  1  0  0  0  0
  2  6  1  0  0  0  0
  3  8  1  0  0  0  0
  4  5  2  0  0  0  0
  4 10  1  0  0  0  0
  5  1  1  0  0  0  0
  6  9  2  0  0  0  0
  7  5  1  0  0  0  0
  8  9  1  0  0  0  0
  9 22  1  0  0  0  0
 10  2  2  0  0  0  0
 11 18  2  0  0  0  0
 13 15  1  0  0  0  0
 14 16  1  0  0  0  0
 15  3  1  1  0  0  0
 15 19  1  0  0  0  0
 16 21  1  1  0  0  0
 17 14  2  0  0  0  0
 18 13  1  0  0  0  0
 18 17  1  0  0  0  0
 19 16  1  0  0  0  0
 19 12  2  0  0  0  0
 21 20  3  0  0  0  0
 22 34  1  1  0  0  0
 24 26  1  0  0  0  0
 25 30  1  1  0  0  0
 25 28  1  0  0  0  0
 26 22  1  6  0  0  0
 26 27  1  0  0  0  0
 28 27  1  0  0  0  0
 29 23  1  6  0  0  0
 29 24  1  0  0  0  0
 29 25  1  0  0  0  0
 30 31  2  0  0  0  0
 32 30  2  0  0  0  0
 34 33  1  0  0  0  0
M  END
>  <MODEL>
8

>  <REMARK>
 VINA RESULT:      -7.5      3.413      7.276
  Name = 
  6 active torsions:
  status: ('A' for Active; 'I' for Inactive)
    1  A    between atoms: N_6  and  C_9
    2  A    between atoms: C_11  and  C_19
    3  A    between atoms: C_12  and  C_32
    4  A    between atoms: C_20  and  C_28
    5  A    between atoms: C_22  and  C_32
    6  A    between atoms: C_31  and  C_32
                            x       y       z     vdW  Elec       q    Type
                         _______ _______ _______ _____ _____    ______ ____

>  <TORSDO>
F 6

$$$$
=
 OpenBabel11072408253D

 34 37  0  0  1  0  0  0  0  0999 V2000
  190.9750  173.4060  142.7640 C   0  0  0  0  0  0  0  0  0  0  0  0
  188.6280  173.9940  142.7150 C   0  0  0  0  0  3  0  0  0  0  0  0
  192.0880  173.8570  143.4720 C   0  0  0  0  0  0  0  0  0  0  0  0
  189.5160  172.2790  141.2230 C   0  0  0  0  0  3  0  0  0  0  0  0
  190.7770  172.3800  141.8260 C   0  0  0  0  0  0  0  0  0  0  0  0
  189.8980  174.0760  143.2890 C   0  0  0  0  0  0  0  0  0  0  0  0
  191.7140  171.3740  141.6560 O   0  0  0  0  0  1  0  0  0  0  0  0
  191.6700  174.5920  144.4890 O   0  0  0  0  0  0  0  0  0  0  0  0
  190.3570  174.7690  144.3850 C   0  0  0  0  0  0  0  0  0  0  0  0
  188.4690  173.1270  141.6270 C   0  0  0  0  0  3  0  0  0  0  0  0
  195.9290  174.3930  140.4610 O   0  0  0  0  0  0  0  0  0  0  0  0
  194.6930  173.8910  145.2380 O   0  0  0  0  0  0  0  0  0  0  0  0
  193.8590  174.3950  141.7400 C   0  0  0  0  0  2  0  0  0  0  0  0
  195.7590  176.4140  143.3720 C   0  0  0  0  0  3  0  0  0  0  0  0
  193.5720  173.7440  143.1500 C   0  0  1  0  0  3  0  0  0  0  0  0
  194.5540  176.0090  144.1540 C   0  0  1  0  0  3  0  0  0  0  0  0
  196.0440  175.9270  142.1720 C   0  0  0  0  0  3  0  0  0  0  0  0
  195.3050  174.8790  141.4350 C   0  0  0  0  0  0  0  0  0  0  0  0
  194.3450  174.5030  144.2440 C   0  0  0  0  0  0  0  0  0  0  0  0
  194.5640  177.2030  146.5610 C   0  0  0  0  0  3  0  0  0  0  0  0
  194.5910  176.6920  145.4800 C   0  0  0  0  0  0  0  0  0  0  0  0
  189.5380  175.5350  145.4040 C   0  0  1  0  0  3  0  0  0  0  0  0
  185.1640  177.5210  146.6860 F   0  0  0  0  0  0  0  0  0  0  0  0
  187.2680  176.4210  146.0890 C   0  0  0  0  0  2  0  0  0  0  0  0
  186.1890  178.2820  144.6470 C   0  0  2  0  0  3  0  0  0  0  0  0
  188.2210  176.1550  144.9050 C   0  0  1  0  0  3  0  0  0  0  0  0
  188.4770  177.4750  144.1250 C   0  0  0  0  0  2  0  0  0  0  0  0
  187.1890  177.9900  143.5150 C   0  0  0  0  0  2  0  0  0  0  0  0
  185.9470  177.0880  145.6110 C   0  0  2  0  0  3  0  0  0  0  0  0
  184.9360  178.8540  144.1380 N   0  0  0  0  0  0  0  0  0  0  0  0
  184.2660  178.1850  143.1360 O   0  0  0  0  0  0  0  0  0  0  0  0
  184.6940  180.0780  144.2630 O   0  0  0  0  0  0  0  0  0  0  0  0
  190.5020  175.2910  147.6620 C   0  0  0  0  0  1  0  0  0  0  0  0
  189.4190  174.7760  146.7200 C   0  0  0  0  0  2  0  0  0  0  0  0
  1  6  1  0  0  0  0
  1  3  2  0  0  0  0
  2  6  1  0  0  0  0
  3  8  1  0  0  0  0
  4 10  1  0  0  0  0
  4  5  2  0  0  0  0
  5  1  1  0  0  0  0
  6  9  2  0  0  0  0
  7  5  1  0  0  0  0
  9  8  1  0  0  0  0
  9 22  1  0  0  0  0
 10  2  2  0  0  0  0
 11 18  2  0  0  0  0
 13 15  1  0  0  0  0
 14 16  1  0  0  0  0
 15  3  1  1  0  0  0
 15 19  1  0  0  0  0
 16 19  1  0  0  0  0
 16 21  1  1  0  0  0
 17 14  2  0  0  0  0
 18 13  1  0  0  0  0
 18 17  1  0  0  0  0
 19 12  2  0  0  0  0
 21 20  3  0  0  0  0
 22 34  1  1  0  0  0
 25 30  1  6  0  0  0
 25 29  1  0  0  0  0
 26 22  1  1  0  0  0
 26 24  1  0  0  0  0
 27 26  1  0  0  0  0
 28 27  1  0  0  0  0
 28 25  1  0  0  0  0
 29 24  1  0  0  0  0
 29 23  1  1  0  0  0
 30 32  2  0  0  0  0
 31 30  2  0  0  0  0
 34 33  1  0  0  0  0
M  END
>  <MODEL>
9

>  <REMARK>
 VINA RESULT:      -7.3      2.146      3.842
  Name = 
  6 active torsions:
  status: ('A' for Active; 'I' for Inactive)
    1  A    between atoms: N_6  and  C_9
    2  A    between atoms: C_11  and  C_19
    3  A    between atoms: C_12  and  C_32
    4  A    between atoms: C_20  and  C_28
    5  A    between atoms: C_22  and  C_32
    6  A    between atoms: C_31  and  C_32
                            x       y       z     vdW  Elec       q    Type
                         _______ _______ _______ _____ _____    ______ ____

>  <TORSDO>
F 6

$$$$
