=
 OpenBabel11062420363D

 32 34  0  0  1  0  0  0  0  0999 V2000
  191.1680  174.1970  141.8140 C   0  0  0  0  0  0  0  0  0  0  0  0
  189.9890  173.6440  141.2200 N   0  0  0  0  0  2  0  0  0  0  0  0
  188.4730  174.4770  141.2510 S   0  0  0  0  0  0  0  0  0  0  0  0
  193.5260  174.5230  141.6710 N   0  0  0  0  0  0  0  0  0  0  0  0
  191.1100  175.0990  142.8990 C   0  0  0  0  0  0  0  0  0  0  0  0
  189.5440  175.3580  143.7670 S   0  0  0  0  0  0  0  0  0  0  0  0
  188.0970  174.8840  139.8550 O   0  0  0  0  0  0  0  0  0  0  0  0
  187.4160  173.5770  141.8260 O   0  0  0  0  0  0  0  0  0  0  0  0
  188.6710  175.9220  142.2800 C   0  0  2  0  0  3  0  0  0  0  0  0
  193.5050  175.4390  142.6730 C   0  0  0  0  0  0  0  0  0  0  0  0
  194.7340  176.0280  143.0910 N   0  0  0  0  0  1  0  0  0  0  0  0
  192.2920  175.7520  143.3220 C   0  0  0  0  0  0  0  0  0  0  0  0
  192.3990  173.9120  141.2300 C   0  0  0  0  0  3  0  0  0  0  0  0
  192.2820  176.7260  144.4380 C   0  0  0  0  0  0  0  0  0  0  0  0
  192.9130  175.3570  146.7330 O   0  0  0  0  0  0  0  0  0  0  0  0
  192.4550  176.2810  145.7800 N   0  0  0  0  0  0  0  0  0  0  0  0
  192.1090  177.9530  144.2140 O   0  0  0  0  0  0  0  0  0  0  0  0
  192.8320  176.5850  147.1600 C   0  0  1  0  0  3  0  0  0  0  0  0
  191.8950  177.6600  149.0540 F   0  0  0  0  0  0  0  0  0  0  0  0
  191.5860  176.7980  148.0200 C   0  0  0  0  0  0  0  0  0  0  0  0
  190.5310  177.3270  147.2910 F   0  0  0  0  0  0  0  0  0  0  0  0
  191.1960  175.5830  148.5520 F   0  0  0  0  0  0  0  0  0  0  0  0
  187.3180  176.5490  142.6590 C   0  0  2  0  0  3  0  0  0  0  0  0
  186.6660  177.3190  141.5450 C   0  0  0  0  0  0  0  0  0  0  0  0
  185.4120  177.3750  141.4490 O   0  0  0  0  0  1  0  0  0  0  0  0
  187.4580  177.9500  140.5960 O   0  0  0  0  0  0  0  0  0  0  0  0
  187.3850  177.3410  143.8950 N   0  0  0  0  0  2  0  0  0  0  0  0
  186.3390  176.9380  144.8400 C   0  0  0  0  0  3  0  0  0  0  0  0
  185.9860  176.9860  147.3570 C   0  0  0  0  0  1  0  0  0  0  0  0
  186.9160  176.6010  146.2160 C   0  0  0  0  0  2  0  0  0  0  0  0
  185.1940  177.9500  144.8930 C   0  0  0  0  0  2  0  0  0  0  0  0
  185.6440  179.3700  144.5930 C   0  0  0  0  0  1  0  0  0  0  0  0
  1  5  1  0  0  0  0
  2  3  1  0  0  0  0
  2  1  1  0  0  0  0
  3  8  2  0  0  0  0
  3  9  1  0  0  0  0
  4 10  2  0  0  0  0
  5 12  2  0  0  0  0
  5  6  1  0  0  0  0
  7  3  2  0  0  0  0
  9 23  1  1  0  0  0
  9  6  1  0  0  0  0
 10 11  1  0  0  0  0
 10 12  1  0  0  0  0
 12 14  1  0  0  0  0
 13  4  1  0  0  0  0
 13  1  2  0  0  0  0
 14 16  1  0  0  0  0
 15 18  1  0  0  0  0
 16 15  1  0  0  0  0
 16 18  1  0  0  0  0
 17 14  2  0  0  0  0
 18 20  1  1  0  0  0
 20 22  1  0  0  0  0
 20 19  1  0  0  0  0
 21 20  1  0  0  0  0
 23 24  1  6  0  0  0
 23 27  1  0  0  0  0
 25 24  1  0  0  0  0
 26 24  2  0  0  0  0
 27 28  1  0  0  0  0
 28 31  1  0  0  0  0
 28 30  1  0  0  0  0
 30 29  1  0  0  0  0
 32 31  1  0  0  0  0
M  END
>  <MODEL>
1

>  <REMARK>
 VINA RESULT:      -6.7      0.000      0.000
  Name = 
  8 active torsions:
  status: ('A' for Active; 'I' for Inactive)
    1  A    between atoms: C_2  and  N_8
    2  A    between atoms: C_2  and  C_26
    3  A    between atoms: C_2  and  C_27
    4  A    between atoms: C_4  and  C_29
    5  A    between atoms: N_8  and  CA_19
    6  A    between atoms: C_9  and  C_32
    7  A    between atoms: C_11  and  CA_19
    8  A    between atoms: CA_19  and  C_22
                            x       y       z     vdW  Elec       q    Type
                         _______ _______ _______ _____ _____    ______ ____

>  <TORSDO>
F 8

$$$$
=
 OpenBabel11062420363D

 32 34  0  0  1  0  0  0  0  0999 V2000
  191.3010  173.4240  141.8490 C   0  0  0  0  0  0  0  0  0  0  0  0
  190.1710  172.8750  141.1640 N   0  0  0  0  0  2  0  0  0  0  0  0
  188.7260  173.7910  140.9030 S   0  0  0  0  0  0  0  0  0  0  0  0
  193.6750  173.5960  141.9900 N   0  0  0  0  0  0  0  0  0  0  0  0
  191.1690  174.4450  142.8150 C   0  0  0  0  0  0  0  0  0  0  0  0
  189.5290  174.8910  143.4330 S   0  0  0  0  0  0  0  0  0  0  0  0
  188.5600  174.0570  139.4340 O   0  0  0  0  0  0  0  0  0  0  0  0
  187.5430  173.0240  141.4230 O   0  0  0  0  0  0  0  0  0  0  0  0
  188.8950  175.3300  141.7910 C   0  0  2  0  0  3  0  0  0  0  0  0
  193.5920  174.6200  142.8770 C   0  0  0  0  0  0  0  0  0  0  0  0
  194.7970  175.1820  143.3920 N   0  0  0  0  0  1  0  0  0  0  0  0
  192.3320  175.0740  143.3210 C   0  0  0  0  0  0  0  0  0  0  0  0
  192.5730  173.0040  141.4690 C   0  0  0  0  0  3  0  0  0  0  0  0
  192.2510  176.1680  144.3160 C   0  0  0  0  0  0  0  0  0  0  0  0
  192.7320  175.0730  146.7880 O   0  0  0  0  0  0  0  0  0  0  0  0
  192.3360  175.8790  145.7090 N   0  0  0  0  0  0  0  0  0  0  0  0
  192.0920  177.3610  143.9440 O   0  0  0  0  0  0  0  0  0  0  0  0
  192.6230  176.3400  147.0670 C   0  0  1  0  0  3  0  0  0  0  0  0
  191.6160  177.3830  148.9430 F   0  0  0  0  0  0  0  0  0  0  0  0
  191.3230  176.6400  147.8150 C   0  0  0  0  0  0  0  0  0  0  0  0
  190.4200  177.3430  147.0330 F   0  0  0  0  0  0  0  0  0  0  0  0
  190.7450  175.4460  148.2040 F   0  0  0  0  0  0  0  0  0  0  0  0
  187.5520  176.0730  141.9170 C   0  0  2  0  0  3  0  0  0  0  0  0
  187.5770  177.4770  141.3810 C   0  0  0  0  0  0  0  0  0  0  0  0
  186.6070  177.9300  140.7180 O   0  0  0  0  0  0  0  0  0  0  0  0
  188.6950  178.2710  141.5960 O   0  0  0  0  0  1  0  0  0  0  0  0
  187.0020  176.0250  143.2770 N   0  0  0  0  0  2  0  0  0  0  0  0
  186.7700  177.3730  143.8040 C   0  0  0  0  0  3  0  0  0  0  0  0
  184.9580  179.1480  143.9630 C   0  0  0  0  0  1  0  0  0  0  0  0
  185.2800  177.6620  143.9920 C   0  0  0  0  0  2  0  0  0  0  0  0
  187.6040  177.6510  145.0550 C   0  0  0  0  0  2  0  0  0  0  0  0
  187.1840  176.8050  146.2460 C   0  0  0  0  0  1  0  0  0  0  0  0
  1  5  1  0  0  0  0
  2  1  1  0  0  0  0
  3  2  1  0  0  0  0
  3  8  2  0  0  0  0
  3  9  1  0  0  0  0
  4 10  2  0  0  0  0
  5 12  2  0  0  0  0
  5  6  1  0  0  0  0
  7  3  2  0  0  0  0
  9 23  1  1  0  0  0
  9  6  1  0  0  0  0
 10 12  1  0  0  0  0
 10 11  1  0  0  0  0
 12 14  1  0  0  0  0
 13  1  2  0  0  0  0
 13  4  1  0  0  0  0
 14 16  1  0  0  0  0
 15 18  1  0  0  0  0
 16 15  1  0  0  0  0
 16 18  1  0  0  0  0
 17 14  2  0  0  0  0
 18 20  1  1  0  0  0
 20 22  1  0  0  0  0
 20 19  1  0  0  0  0
 21 20  1  0  0  0  0
 23 24  1  1  0  0  0
 23 27  1  0  0  0  0
 24 26  1  0  0  0  0
 25 24  2  0  0  0  0
 27 28  1  0  0  0  0
 28 30  1  0  0  0  0
 28 31  1  0  0  0  0
 29 30  1  0  0  0  0
 31 32  1  0  0  0  0
M  END
>  <MODEL>
2

>  <REMARK>
 VINA RESULT:      -6.4      0.861      1.421
  Name = 
  8 active torsions:
  status: ('A' for Active; 'I' for Inactive)
    1  A    between atoms: C_2  and  N_8
    2  A    between atoms: C_2  and  C_26
    3  A    between atoms: C_2  and  C_27
    4  A    between atoms: C_4  and  C_29
    5  A    between atoms: N_8  and  CA_19
    6  A    between atoms: C_9  and  C_32
    7  A    between atoms: C_11  and  CA_19
    8  A    between atoms: CA_19  and  C_22
                            x       y       z     vdW  Elec       q    Type
                         _______ _______ _______ _____ _____    ______ ____

>  <TORSDO>
F 8

$$$$
=
 OpenBabel11062420363D

 32 34  0  0  1  0  0  0  0  0999 V2000
  189.7060  174.3640  141.6410 C   0  0  0  0  0  0  0  0  0  0  0  0
  188.3830  174.8450  141.3810 N   0  0  0  0  0  2  0  0  0  0  0  0
  187.6860  176.1410  142.2910 S   0  0  0  0  0  0  0  0  0  0  0  0
  191.7580  173.5440  140.7450 N   0  0  0  0  0  0  0  0  0  0  0  0
  190.3030  174.4640  142.9170 C   0  0  0  0  0  0  0  0  0  0  0  0
  189.2990  174.9420  144.3430 S   0  0  0  0  0  0  0  0  0  0  0  0
  187.5040  177.3370  141.3990 O   0  0  0  0  0  0  0  0  0  0  0  0
  186.3590  175.7090  142.8480 O   0  0  0  0  0  0  0  0  0  0  0  0
  188.8100  176.5320  143.6220 C   0  0  2  0  0  3  0  0  0  0  0  0
  192.3860  173.6800  141.9410 C   0  0  0  0  0  0  0  0  0  0  0  0
  193.7540  173.2920  142.0470 N   0  0  0  0  0  1  0  0  0  0  0  0
  191.6740  174.1420  143.0680 C   0  0  0  0  0  0  0  0  0  0  0  0
  190.4560  173.8790  140.5730 C   0  0  0  0  0  3  0  0  0  0  0  0
  192.3560  174.2530  144.3770 C   0  0  0  0  0  0  0  0  0  0  0  0
  192.4820  176.9200  145.0180 O   0  0  0  0  0  0  0  0  0  0  0  0
  192.6770  175.5340  144.9120 N   0  0  0  0  0  0  0  0  0  0  0  0
  192.6710  173.2190  145.0240 O   0  0  0  0  0  0  0  0  0  0  0  0
  192.9900  176.3600  146.0780 C   0  0  1  0  0  3  0  0  0  0  0  0
  194.7290  177.6540  147.0380 F   0  0  0  0  0  0  0  0  0  0  0  0
  194.4970  176.6020  146.1720 C   0  0  0  0  0  0  0  0  0  0  0  0
  195.1790  175.4840  146.6270 F   0  0  0  0  0  0  0  0  0  0  0  0
  194.9760  176.9390  144.9200 F   0  0  0  0  0  0  0  0  0  0  0  0
  188.1500  177.4240  144.6890 C   0  0  2  0  0  3  0  0  0  0  0  0
  188.6240  177.1560  146.0900 C   0  0  0  0  0  0  0  0  0  0  0  0
  189.7040  177.6490  146.5100 O   0  0  0  0  0  0  0  0  0  0  0  0
  187.8760  176.3310  146.9180 O   0  0  0  0  0  1  0  0  0  0  0  0
  186.6840  177.4210  144.6060 N   0  0  0  0  0  2  0  0  0  0  0  0
  186.1380  178.7670  144.8040 C   0  0  0  0  0  3  0  0  0  0  0  0
  184.3930  178.5500  142.9700 C   0  0  0  0  0  1  0  0  0  0  0  0
  185.5720  179.3470  143.5070 C   0  0  0  0  0  2  0  0  0  0  0  0
  185.1540  178.8190  145.9740 C   0  0  0  0  0  2  0  0  0  0  0  0
  184.6960  177.4420  146.4250 C   0  0  0  0  0  1  0  0  0  0  0  0
  1  5  1  0  0  0  0
  2  1  1  0  0  0  0
  2  3  1  0  0  0  0
  3  8  2  0  0  0  0
  3  9  1  0  0  0  0
  4 10  2  0  0  0  0
  5 12  2  0  0  0  0
  5  6  1  0  0  0  0
  7  3  2  0  0  0  0
  9  6  1  0  0  0  0
  9 23  1  1  0  0  0
 10 11  1  0  0  0  0
 10 12  1  0  0  0  0
 12 14  1  0  0  0  0
 13  4  1  0  0  0  0
 13  1  2  0  0  0  0
 14 16  1  0  0  0  0
 14 17  2  0  0  0  0
 15 18  1  0  0  0  0
 16 15  1  0  0  0  0
 16 18  1  0  0  0  0
 18 20  1  6  0  0  0
 20 21  1  0  0  0  0
 20 19  1  0  0  0  0
 22 20  1  0  0  0  0
 23 27  1  1  0  0  0
 23 24  1  0  0  0  0
 24 25  2  0  0  0  0
 24 26  1  0  0  0  0
 27 28  1  0  0  0  0
 28 31  1  0  0  0  0
 29 30  1  0  0  0  0
 30 28  1  0  0  0  0
 31 32  1  0  0  0  0
M  END
>  <MODEL>
3

>  <REMARK>
 VINA RESULT:      -6.3      2.257      3.285
  Name = 
  8 active torsions:
  status: ('A' for Active; 'I' for Inactive)
    1  A    between atoms: C_2  and  N_8
    2  A    between atoms: C_2  and  C_26
    3  A    between atoms: C_2  and  C_27
    4  A    between atoms: C_4  and  C_29
    5  A    between atoms: N_8  and  CA_19
    6  A    between atoms: C_9  and  C_32
    7  A    between atoms: C_11  and  CA_19
    8  A    between atoms: CA_19  and  C_22
                            x       y       z     vdW  Elec       q    Type
                         _______ _______ _______ _____ _____    ______ ____

>  <TORSDO>
F 8

$$$$
=
 OpenBabel11062420363D

 32 34  0  0  1  0  0  0  0  0999 V2000
  189.6980  174.0590  141.6270 C   0  0  0  0  0  0  0  0  0  0  0  0
  190.5360  173.1310  142.3230 N   0  0  0  0  0  2  0  0  0  0  0  0
  190.7170  173.1770  144.0440 S   0  0  0  0  0  0  0  0  0  0  0  0
  188.1400  174.4220  139.8580 N   0  0  0  0  0  0  0  0  0  0  0  0
  189.4290  175.3510  142.1290 C   0  0  0  0  0  0  0  0  0  0  0  0
  190.3760  175.9830  143.5330 S   0  0  0  0  0  0  0  0  0  0  0  0
  190.1030  171.9440  144.6440 O   0  0  0  0  0  0  0  0  0  0  0  0
  192.1760  173.2470  144.3950 O   0  0  0  0  0  0  0  0  0  0  0  0
  189.8750  174.6340  144.6370 C   0  0  2  0  0  3  0  0  0  0  0  0
  187.8110  175.6480  140.3410 C   0  0  0  0  0  0  0  0  0  0  0  0
  186.8550  176.4320  139.6300 N   0  0  0  0  0  1  0  0  0  0  0  0
  188.4500  176.1520  141.4920 C   0  0  0  0  0  0  0  0  0  0  0  0
  189.0500  173.6280  140.4720 C   0  0  0  0  0  3  0  0  0  0  0  0
  188.1110  177.5040  141.9920 C   0  0  0  0  0  0  0  0  0  0  0  0
  186.5500  177.1890  144.2290 O   0  0  0  0  0  0  0  0  0  0  0  0
  187.2040  177.6600  143.0790 N   0  0  0  0  0  0  0  0  0  0  0  0
  188.6110  178.5290  141.4550 O   0  0  0  0  0  0  0  0  0  0  0  0
  186.6980  178.4820  144.1780 C   0  0  1  0  0  3  0  0  0  0  0  0
  185.4770  180.5140  144.1190 F   0  0  0  0  0  0  0  0  0  0  0  0
  185.3990  179.1790  143.7710 C   0  0  0  0  0  0  0  0  0  0  0  0
  185.1590  179.0820  142.4080 F   0  0  0  0  0  0  0  0  0  0  0  0
  184.3460  178.6000  144.4530 F   0  0  0  0  0  0  0  0  0  0  0  0
  190.2510  174.9650  146.0930 C   0  0  2  0  0  3  0  0  0  0  0  0
  189.0790  175.0200  147.0310 C   0  0  0  0  0  0  0  0  0  0  0  0
  188.9430  174.1620  147.9430 O   0  0  0  0  0  1  0  0  0  0  0  0
  188.1220  176.0130  146.8720 O   0  0  0  0  0  0  0  0  0  0  0  0
  191.0890  176.1660  146.2040 N   0  0  0  0  0  2  0  0  0  0  0  0
  192.2020  175.9530  147.1340 C   0  0  0  0  0  3  0  0  0  0  0  0
  194.4710  176.6260  146.2080 C   0  0  0  0  0  1  0  0  0  0  0  0
  193.4690  175.4990  146.4090 C   0  0  0  0  0  2  0  0  0  0  0  0
  192.4240  177.1590  148.0480 C   0  0  0  0  0  2  0  0  0  0  0  0
  191.1860  177.5350  148.8450 C   0  0  0  0  0  1  0  0  0  0  0  0
  1  5  1  0  0  0  0
  1  2  1  0  0  0  0
  2  3  1  0  0  0  0
  3  8  2  0  0  0  0
  3  9  1  0  0  0  0
  3  7  2  0  0  0  0
  4 10  2  0  0  0  0
  4 13  1  0  0  0  0
  5  6  1  0  0  0  0
  6  9  1  0  0  0  0
  9 23  1  1  0  0  0
 10 12  1  0  0  0  0
 11 10  1  0  0  0  0
 12 14  1  0  0  0  0
 12  5  2  0  0  0  0
 13  1  2  0  0  0  0
 14 16  1  0  0  0  0
 16 18  1  0  0  0  0
 16 15  1  0  0  0  0
 17 14  2  0  0  0  0
 18 20  1  6  0  0  0
 18 15  1  0  0  0  0
 20 19  1  0  0  0  0
 20 22  1  0  0  0  0
 21 20  1  0  0  0  0
 23 27  1  6  0  0  0
 23 24  1  0  0  0  0
 24 25  1  0  0  0  0
 26 24  2  0  0  0  0
 27 28  1  0  0  0  0
 28 31  1  0  0  0  0
 29 30  1  0  0  0  0
 30 28  1  0  0  0  0
 31 32  1  0  0  0  0
M  END
>  <MODEL>
4

>  <REMARK>
 VINA RESULT:      -6.2      3.518      6.081
  Name = 
  8 active torsions:
  status: ('A' for Active; 'I' for Inactive)
    1  A    between atoms: C_2  and  N_8
    2  A    between atoms: C_2  and  C_26
    3  A    between atoms: C_2  and  C_27
    4  A    between atoms: C_4  and  C_29
    5  A    between atoms: N_8  and  CA_19
    6  A    between atoms: C_9  and  C_32
    7  A    between atoms: C_11  and  CA_19
    8  A    between atoms: CA_19  and  C_22
                            x       y       z     vdW  Elec       q    Type
                         _______ _______ _______ _____ _____    ______ ____

>  <TORSDO>
F 8

$$$$
=
 OpenBabel11062420363D

 32 34  0  0  1  0  0  0  0  0999 V2000
  190.9890  172.9670  141.3510 C   0  0  0  0  0  0  0  0  0  0  0  0
  189.6520  173.0370  140.8460 N   0  0  0  0  0  2  0  0  0  0  0  0
  188.5020  174.1760  141.4590 S   0  0  0  0  0  0  0  0  0  0  0  0
  193.3040  172.6580  140.8690 N   0  0  0  0  0  0  0  0  0  0  0  0
  191.3150  173.3550  142.6690 C   0  0  0  0  0  0  0  0  0  0  0  0
  189.9950  173.6790  143.8620 S   0  0  0  0  0  0  0  0  0  0  0  0
  188.1740  175.1790  140.3900 O   0  0  0  0  0  0  0  0  0  0  0  0
  187.2550  173.4530  141.8850 O   0  0  0  0  0  0  0  0  0  0  0  0
  189.2450  174.9920  142.8620 C   0  0  2  0  0  3  0  0  0  0  0  0
  193.6640  173.0810  142.1090 C   0  0  0  0  0  0  0  0  0  0  0  0
  195.0470  173.0980  142.4550 N   0  0  0  0  0  1  0  0  0  0  0  0
  192.6760  173.4390  143.0500 C   0  0  0  0  0  0  0  0  0  0  0  0
  192.0090  172.6030  140.4760 C   0  0  0  0  0  3  0  0  0  0  0  0
  193.0750  173.8650  144.4110 C   0  0  0  0  0  0  0  0  0  0  0  0
  192.8530  176.6000  144.5190 O   0  0  0  0  0  0  0  0  0  0  0  0
  193.1770  175.2500  144.7290 N   0  0  0  0  0  0  0  0  0  0  0  0
  193.3380  173.0090  145.2980 O   0  0  0  0  0  0  0  0  0  0  0  0
  193.1850  176.3040  145.7430 C   0  0  1  0  0  3  0  0  0  0  0  0
  195.3360  175.6360  146.4830 F   0  0  0  0  0  0  0  0  0  0  0  0
  194.6190  176.7360  146.0550 C   0  0  0  0  0  0  0  0  0  0  0  0
  195.2510  177.2850  144.9490 F   0  0  0  0  0  0  0  0  0  0  0  0
  194.5930  177.6750  147.0680 F   0  0  0  0  0  0  0  0  0  0  0  0
  188.2070  175.7710  143.6910 C   0  0  2  0  0  3  0  0  0  0  0  0
  187.5110  176.8640  142.9310 C   0  0  0  0  0  0  0  0  0  0  0  0
  188.1450  177.8790  142.5370 O   0  0  0  0  0  0  0  0  0  0  0  0
  186.1490  176.7660  142.6860 O   0  0  0  0  0  1  0  0  0  0  0  0
  188.7500  176.2610  144.9650 N   0  0  0  0  0  2  0  0  0  0  0  0
  187.8620  175.9280  146.0820 C   0  0  0  0  0  3  0  0  0  0  0  0
  190.0980  175.4930  147.2090 C   0  0  0  0  0  1  0  0  0  0  0  0
  188.6060  175.1970  147.2010 C   0  0  0  0  0  2  0  0  0  0  0  0
  187.0750  177.1450  146.5710 C   0  0  0  0  0  2  0  0  0  0  0  0
  185.5700  176.9540  146.4750 C   0  0  0  0  0  1  0  0  0  0  0  0
  1  5  1  0  0  0  0
  2  1  1  0  0  0  0
  2  3  1  0  0  0  0
  3  8  2  0  0  0  0
  3  9  1  0  0  0  0
  4 10  2  0  0  0  0
  5 12  2  0  0  0  0
  5  6  1  0  0  0  0
  7  3  2  0  0  0  0
  9 23  1  1  0  0  0
  9  6  1  0  0  0  0
 10 11  1  0  0  0  0
 10 12  1  0  0  0  0
 12 14  1  0  0  0  0
 13  4  1  0  0  0  0
 13  1  2  0  0  0  0
 14 16  1  0  0  0  0
 14 17  2  0  0  0  0
 15 16  1  0  0  0  0
 15 18  1  0  0  0  0
 16 18  1  0  0  0  0
 18 20  1  6  0  0  0
 20 19  1  0  0  0  0
 20 22  1  0  0  0  0
 21 20  1  0  0  0  0
 23 24  1  6  0  0  0
 23 27  1  0  0  0  0
 25 24  2  0  0  0  0
 26 24  1  0  0  0  0
 27 28  1  0  0  0  0
 28 31  1  0  0  0  0
 28 30  1  0  0  0  0
 30 29  1  0  0  0  0
 32 31  1  0  0  0  0
M  END
>  <MODEL>
5

>  <REMARK>
 VINA RESULT:      -6.1      2.084      2.731
  Name = 
  8 active torsions:
  status: ('A' for Active; 'I' for Inactive)
    1  A    between atoms: C_2  and  N_8
    2  A    between atoms: C_2  and  C_26
    3  A    between atoms: C_2  and  C_27
    4  A    between atoms: C_4  and  C_29
    5  A    between atoms: N_8  and  CA_19
    6  A    between atoms: C_9  and  C_32
    7  A    between atoms: C_11  and  CA_19
    8  A    between atoms: CA_19  and  C_22
                            x       y       z     vdW  Elec       q    Type
                         _______ _______ _______ _____ _____    ______ ____

>  <TORSDO>
F 8

$$$$
=
 OpenBabel11062420363D

 32 34  0  0  1  0  0  0  0  0999 V2000
  191.7350  173.8590  140.3660 C   0  0  0  0  0  0  0  0  0  0  0  0
  190.3840  173.4170  140.2040 N   0  0  0  0  0  2  0  0  0  0  0  0
  189.0910  174.0590  141.1580 S   0  0  0  0  0  0  0  0  0  0  0  0
  193.8030  174.4230  139.3210 N   0  0  0  0  0  0  0  0  0  0  0  0
  192.2170  174.3670  141.5930 C   0  0  0  0  0  0  0  0  0  0  0  0
  191.2140  174.2010  143.0880 S   0  0  0  0  0  0  0  0  0  0  0  0
  188.1630  174.8470  140.2780 O   0  0  0  0  0  0  0  0  0  0  0  0
  188.3430  172.9340  141.8150 O   0  0  0  0  0  0  0  0  0  0  0  0
  189.8110  175.1210  142.3990 C   0  0  2  0  0  3  0  0  0  0  0  0
  194.2820  174.9730  140.4660 C   0  0  0  0  0  0  0  0  0  0  0  0
  195.6030  175.5090  140.4700 N   0  0  0  0  0  1  0  0  0  0  0  0
  193.5020  174.9580  141.6410 C   0  0  0  0  0  0  0  0  0  0  0  0
  192.5630  173.8820  139.2470 C   0  0  0  0  0  3  0  0  0  0  0  0
  194.0450  175.5290  142.8950 C   0  0  0  0  0  0  0  0  0  0  0  0
  196.1670  173.9640  143.6630 O   0  0  0  0  0  0  0  0  0  0  0  0
  195.0820  174.8540  143.6000 N   0  0  0  0  0  0  0  0  0  0  0  0
  193.5890  176.6080  143.3570 O   0  0  0  0  0  0  0  0  0  0  0  0
  196.1870  174.9110  144.5570 C   0  0  1  0  0  3  0  0  0  0  0  0
  195.1420  175.4340  146.6200 F   0  0  0  0  0  0  0  0  0  0  0  0
  195.7370  174.3980  145.9260 C   0  0  0  0  0  0  0  0  0  0  0  0
  194.8360  173.3490  145.8200 F   0  0  0  0  0  0  0  0  0  0  0  0
  196.8450  173.9670  146.6300 F   0  0  0  0  0  0  0  0  0  0  0  0
  188.8050  175.4750  143.5090 C   0  0  2  0  0  3  0  0  0  0  0  0
  187.6980  176.3890  143.0640 C   0  0  0  0  0  0  0  0  0  0  0  0
  186.5050  175.9860  143.0300 O   0  0  0  0  0  1  0  0  0  0  0  0
  188.0010  177.6810  142.6570 O   0  0  0  0  0  0  0  0  0  0  0  0
  189.4560  175.9710  144.7280 N   0  0  0  0  0  2  0  0  0  0  0  0
  188.7080  175.5760  145.9260 C   0  0  0  0  0  3  0  0  0  0  0  0
  190.6210  175.3540  147.5850 C   0  0  0  0  0  1  0  0  0  0  0  0
  189.5210  174.6360  146.8180 C   0  0  0  0  0  2  0  0  0  0  0  0
  188.1430  176.7840  146.6740 C   0  0  0  0  0  2  0  0  0  0  0  0
  186.6230  176.8150  146.6870 C   0  0  0  0  0  1  0  0  0  0  0  0
  1  5  1  0  0  0  0
  2  1  1  0  0  0  0
  2  3  1  0  0  0  0
  3  8  2  0  0  0  0
  3  9  1  0  0  0  0
  4 10  2  0  0  0  0
  5 12  2  0  0  0  0
  5  6  1  0  0  0  0
  7  3  2  0  0  0  0
  9  6  1  0  0  0  0
  9 23  1  1  0  0  0
 10 11  1  0  0  0  0
 10 12  1  0  0  0  0
 12 14  1  0  0  0  0
 13  4  1  0  0  0  0
 13  1  2  0  0  0  0
 14 17  2  0  0  0  0
 14 16  1  0  0  0  0
 15 18  1  0  0  0  0
 16 15  1  0  0  0  0
 16 18  1  0  0  0  0
 18 20  1  1  0  0  0
 20 19  1  0  0  0  0
 20 22  1  0  0  0  0
 21 20  1  0  0  0  0
 23 24  1  6  0  0  0
 23 27  1  0  0  0  0
 25 24  1  0  0  0  0
 26 24  2  0  0  0  0
 27 28  1  0  0  0  0
 28 31  1  0  0  0  0
 28 30  1  0  0  0  0
 30 29  1  0  0  0  0
 31 32  1  0  0  0  0
M  END
>  <MODEL>
6

>  <REMARK>
 VINA RESULT:      -6.0      2.569      3.211
  Name = 
  8 active torsions:
  status: ('A' for Active; 'I' for Inactive)
    1  A    between atoms: C_2  and  N_8
    2  A    between atoms: C_2  and  C_26
    3  A    between atoms: C_2  and  C_27
    4  A    between atoms: C_4  and  C_29
    5  A    between atoms: N_8  and  CA_19
    6  A    between atoms: C_9  and  C_32
    7  A    between atoms: C_11  and  CA_19
    8  A    between atoms: CA_19  and  C_22
                            x       y       z     vdW  Elec       q    Type
                         _______ _______ _______ _____ _____    ______ ____

>  <TORSDO>
F 8

$$$$
=
 OpenBabel11062420363D

 32 34  0  0  1  0  0  0  0  0999 V2000
  186.4440  178.5440  144.3280 C   0  0  0  0  0  0  0  0  0  0  0  0
  186.4150  178.8110  142.9220 N   0  0  0  0  0  2  0  0  0  0  0  0
  187.0850  177.7090  141.7680 S   0  0  0  0  0  0  0  0  0  0  0  0
  185.3040  178.6640  146.4190 N   0  0  0  0  0  0  0  0  0  0  0  0
  187.4420  177.7390  144.9190 C   0  0  0  0  0  0  0  0  0  0  0  0
  188.8940  177.2570  143.9540 S   0  0  0  0  0  0  0  0  0  0  0  0
  185.9800  177.1260  140.9340 O   0  0  0  0  0  0  0  0  0  0  0  0
  188.0640  178.4350  140.8890 O   0  0  0  0  0  0  0  0  0  0  0  0
  187.9180  176.4180  142.6750 C   0  0  2  0  0  3  0  0  0  0  0  0
  186.2110  177.8450  147.0110 C   0  0  0  0  0  0  0  0  0  0  0  0
  186.0590  177.5370  148.3950 N   0  0  0  0  0  1  0  0  0  0  0  0
  187.3140  177.3600  146.2770 C   0  0  0  0  0  0  0  0  0  0  0  0
  185.3920  179.0100  145.1120 C   0  0  0  0  0  3  0  0  0  0  0  0
  188.3180  176.4960  146.9380 C   0  0  0  0  0  0  0  0  0  0  0  0
  190.4880  178.0670  147.5420 O   0  0  0  0  0  0  0  0  0  0  0  0
  189.6070  177.0110  147.2590 N   0  0  0  0  0  0  0  0  0  0  0  0
  188.0490  175.2960  147.2130 O   0  0  0  0  0  0  0  0  0  0  0  0
  190.8250  176.9230  148.0640 C   0  0  1  0  0  3  0  0  0  0  0  0
  192.0010  174.9150  147.6120 F   0  0  0  0  0  0  0  0  0  0  0  0
  191.9450  176.2520  147.2690 C   0  0  0  0  0  0  0  0  0  0  0  0
  191.7510  176.3590  145.9000 F   0  0  0  0  0  0  0  0  0  0  0  0
  193.1480  176.8480  147.5980 F   0  0  0  0  0  0  0  0  0  0  0  0
  188.8340  175.5760  141.7680 C   0  0  2  0  0  3  0  0  0  0  0  0
  188.2030  174.3070  141.2690 C   0  0  0  0  0  0  0  0  0  0  0  0
  187.4400  173.6320  142.0100 O   0  0  0  0  0  1  0  0  0  0  0  0
  188.4880  173.8610  139.9860 O   0  0  0  0  0  0  0  0  0  0  0  0
  190.1510  175.3240  142.3680 N   0  0  0  0  0  2  0  0  0  0  0  0
  190.2630  173.9390  142.8360 C   0  0  0  0  0  3  0  0  0  0  0  0
  191.1140  171.9850  141.4510 C   0  0  0  0  0  1  0  0  0  0  0  0
  191.4820  173.2340  142.2370 C   0  0  0  0  0  2  0  0  0  0  0  0
  190.1950  173.8420  144.3610 C   0  0  0  0  0  2  0  0  0  0  0  0
  189.6910  172.4920  144.8470 C   0  0  0  0  0  1  0  0  0  0  0  0
  1  5  2  0  0  0  0
  1 13  1  0  0  0  0
  2  1  1  0  0  0  0
  3  9  1  0  0  0  0
  3  2  1  0  0  0  0
  4 10  1  0  0  0  0
  5 12  1  0  0  0  0
  6  5  1  0  0  0  0
  7  3  2  0  0  0  0
  8  3  2  0  0  0  0
  9 23  1  6  0  0  0
  9  6  1  0  0  0  0
 10 11  1  0  0  0  0
 12 14  1  0  0  0  0
 12 10  2  0  0  0  0
 13  4  2  0  0  0  0
 14 17  2  0  0  0  0
 14 16  1  0  0  0  0
 15 18  1  0  0  0  0
 16 15  1  0  0  0  0
 16 18  1  0  0  0  0
 18 20  1  6  0  0  0
 20 22  1  0  0  0  0
 20 19  1  0  0  0  0
 21 20  1  0  0  0  0
 23 24  1  1  0  0  0
 23 27  1  0  0  0  0
 24 25  1  0  0  0  0
 26 24  2  0  0  0  0
 27 28  1  0  0  0  0
 28 31  1  0  0  0  0
 29 30  1  0  0  0  0
 30 28  1  0  0  0  0
 31 32  1  0  0  0  0
M  END
>  <MODEL>
7

>  <REMARK>
 VINA RESULT:      -6.0      2.239      5.659
  Name = 
  8 active torsions:
  status: ('A' for Active; 'I' for Inactive)
    1  A    between atoms: C_2  and  N_8
    2  A    between atoms: C_2  and  C_26
    3  A    between atoms: C_2  and  C_27
    4  A    between atoms: C_4  and  C_29
    5  A    between atoms: N_8  and  CA_19
    6  A    between atoms: C_9  and  C_32
    7  A    between atoms: C_11  and  CA_19
    8  A    between atoms: CA_19  and  C_22
                            x       y       z     vdW  Elec       q    Type
                         _______ _______ _______ _____ _____    ______ ____

>  <TORSDO>
F 8

$$$$
=
 OpenBabel11062420363D

 32 34  0  0  1  0  0  0  0  0999 V2000
  188.7330  175.9350  141.6250 C   0  0  0  0  0  0  0  0  0  0  0  0
  189.9140  175.1270  141.6320 N   0  0  0  0  0  2  0  0  0  0  0  0
  190.6460  174.5900  143.1060 S   0  0  0  0  0  0  0  0  0  0  0  0
  186.6370  176.4180  140.5960 N   0  0  0  0  0  0  0  0  0  0  0  0
  188.4070  176.7980  142.6940 C   0  0  0  0  0  0  0  0  0  0  0  0
  189.6300  177.1300  143.9840 S   0  0  0  0  0  0  0  0  0  0  0  0
  190.5120  173.0980  143.2160 O   0  0  0  0  0  0  0  0  0  0  0  0
  192.0970  174.9780  143.1180 O   0  0  0  0  0  0  0  0  0  0  0  0
  189.7890  175.3860  144.4550 C   0  0  2  0  0  3  0  0  0  0  0  0
  186.2600  177.2110  141.6320 C   0  0  0  0  0  0  0  0  0  0  0  0
  184.9930  177.8610  141.5750 N   0  0  0  0  0  1  0  0  0  0  0  0
  187.1390  177.4280  142.7140 C   0  0  0  0  0  0  0  0  0  0  0  0
  187.8320  175.7800  140.5750 C   0  0  0  0  0  3  0  0  0  0  0  0
  186.7360  178.3220  143.8230 C   0  0  0  0  0  0  0  0  0  0  0  0
  186.5130  176.7820  146.0860 O   0  0  0  0  0  0  0  0  0  0  0  0
  186.4230  177.7810  145.1030 N   0  0  0  0  0  0  0  0  0  0  0  0
  186.6540  179.5670  143.6440 O   0  0  0  0  0  0  0  0  0  0  0  0
  186.2870  177.9800  146.5460 C   0  0  1  0  0  3  0  0  0  0  0  0
  184.7450  178.6650  148.2110 F   0  0  0  0  0  0  0  0  0  0  0  0
  184.8170  178.1660  146.9250 C   0  0  0  0  0  0  0  0  0  0  0  0
  184.1620  179.0350  146.0650 F   0  0  0  0  0  0  0  0  0  0  0  0
  184.1850  176.9380  146.8850 F   0  0  0  0  0  0  0  0  0  0  0  0
  190.5590  175.2580  145.7820 C   0  0  2  0  0  3  0  0  0  0  0  0
  189.7310  175.5520  147.0010 C   0  0  0  0  0  0  0  0  0  0  0  0
  189.7420  176.6970  147.5260 O   0  0  0  0  0  0  0  0  0  0  0  0
  188.9690  174.5410  147.5700 O   0  0  0  0  0  1  0  0  0  0  0  0
  191.8150  176.0190  145.7860 N   0  0  0  0  0  2  0  0  0  0  0  0
  192.8650  175.3040  146.5170 C   0  0  0  0  0  3  0  0  0  0  0  0
  194.1920  173.4410  145.4070 C   0  0  0  0  0  1  0  0  0  0  0  0
  192.9130  173.8220  146.1380 C   0  0  0  0  0  2  0  0  0  0  0  0
  194.2210  176.0040  146.4030 C   0  0  0  0  0  2  0  0  0  0  0  0
  194.1780  177.2340  145.5110 C   0  0  0  0  0  1  0  0  0  0  0  0
  1  2  1  0  0  0  0
  1  5  1  0  0  0  0
  2  3  1  0  0  0  0
  3  8  2  0  0  0  0
  3  7  2  0  0  0  0
  3  9  1  0  0  0  0
  4 10  2  0  0  0  0
  5 12  2  0  0  0  0
  5  6  1  0  0  0  0
  6  9  1  0  0  0  0
  9 23  1  1  0  0  0
 10 12  1  0  0  0  0
 11 10  1  0  0  0  0
 12 14  1  0  0  0  0
 13  4  1  0  0  0  0
 13  1  2  0  0  0  0
 14 16  1  0  0  0  0
 15 18  1  0  0  0  0
 16 15  1  0  0  0  0
 16 18  1  0  0  0  0
 17 14  2  0  0  0  0
 18 20  1  6  0  0  0
 20 19  1  0  0  0  0
 21 20  1  0  0  0  0
 22 20  1  0  0  0  0
 23 27  1  6  0  0  0
 23 24  1  0  0  0  0
 24 25  2  0  0  0  0
 24 26  1  0  0  0  0
 27 28  1  0  0  0  0
 29 30  1  0  0  0  0
 30 28  1  0  0  0  0
 31 28  1  0  0  0  0
 32 31  1  0  0  0  0
M  END
>  <MODEL>
8

>  <REMARK>
 VINA RESULT:      -6.0      3.270      6.356
  Name = 
  8 active torsions:
  status: ('A' for Active; 'I' for Inactive)
    1  A    between atoms: C_2  and  N_8
    2  A    between atoms: C_2  and  C_26
    3  A    between atoms: C_2  and  C_27
    4  A    between atoms: C_4  and  C_29
    5  A    between atoms: N_8  and  CA_19
    6  A    between atoms: C_9  and  C_32
    7  A    between atoms: C_11  and  CA_19
    8  A    between atoms: CA_19  and  C_22
                            x       y       z     vdW  Elec       q    Type
                         _______ _______ _______ _____ _____    ______ ____

>  <TORSDO>
F 8

$$$$
=
 OpenBabel11062420363D

 32 34  0  0  1  0  0  0  0  0999 V2000
  192.0400  174.9220  144.9630 C   0  0  0  0  0  0  0  0  0  0  0  0
  191.9930  176.2500  145.4950 N   0  0  0  0  0  2  0  0  0  0  0  0
  190.4950  177.0730  145.7660 S   0  0  0  0  0  0  0  0  0  0  0  0
  193.0780  172.7750  145.0100 N   0  0  0  0  0  0  0  0  0  0  0  0
  191.0240  174.4120  144.1250 C   0  0  0  0  0  0  0  0  0  0  0  0
  189.7690  175.5280  143.4560 S   0  0  0  0  0  0  0  0  0  0  0  0
  190.2900  177.2640  147.2420 O   0  0  0  0  0  0  0  0  0  0  0  0
  190.5200  178.4060  145.0740 O   0  0  0  0  0  0  0  0  0  0  0  0
  189.1910  176.0580  145.0910 C   0  0  2  0  0  3  0  0  0  0  0  0
  192.0900  172.2320  144.2530 C   0  0  0  0  0  0  0  0  0  0  0  0
  192.1760  170.8540  143.8970 N   0  0  0  0  0  1  0  0  0  0  0  0
  191.0320  173.0380  143.7830 C   0  0  0  0  0  0  0  0  0  0  0  0
  193.0700  174.0800  145.3750 C   0  0  0  0  0  3  0  0  0  0  0  0
  189.9770  172.4460  142.9290 C   0  0  0  0  0  0  0  0  0  0  0  0
  190.8440  172.5900  140.3280 O   0  0  0  0  0  0  0  0  0  0  0  0
  190.0930  172.4920  141.5100 N   0  0  0  0  0  0  0  0  0  0  0  0
  188.9620  171.9080  143.4460 O   0  0  0  0  0  0  0  0  0  0  0  0
  189.7190  171.9460  140.2060 C   0  0  1  0  0  3  0  0  0  0  0  0
  189.0290  174.1400  139.6290 F   0  0  0  0  0  0  0  0  0  0  0  0
  188.6440  172.8150  139.5510 C   0  0  0  0  0  0  0  0  0  0  0  0
  188.4420  172.4810  138.2200 F   0  0  0  0  0  0  0  0  0  0  0  0
  187.4560  172.6530  140.2380 F   0  0  0  0  0  0  0  0  0  0  0  0
  187.8650  176.8320  144.9660 C   0  0  2  0  0  3  0  0  0  0  0  0
  186.8770  176.5330  146.0580 C   0  0  0  0  0  0  0  0  0  0  0  0
  187.2610  176.3540  147.2440 O   0  0  0  0  0  1  0  0  0  0  0  0
  185.5280  176.4240  145.7470 O   0  0  0  0  0  0  0  0  0  0  0  0
  187.2560  176.7030  143.6360 N   0  0  0  0  0  2  0  0  0  0  0  0
  187.1580  178.0050  142.9700 C   0  0  0  0  0  3  0  0  0  0  0  0
  186.8030  177.4790  140.5090 C   0  0  0  0  0  1  0  0  0  0  0  0
  187.7740  177.9750  141.5700 C   0  0  0  0  0  2  0  0  0  0  0  0
  185.7310  178.5550  142.9930 C   0  0  0  0  0  2  0  0  0  0  0  0
  185.5690  179.7410  143.9310 C   0  0  0  0  0  1  0  0  0  0  0  0
  1 13  1  0  0  0  0
  1  2  1  0  0  0  0
  2  3  1  0  0  0  0
  3  7  2  0  0  0  0
  4 13  2  0  0  0  0
  5  1  2  0  0  0  0
  6  5  1  0  0  0  0
  6  9  1  0  0  0  0
  8  3  2  0  0  0  0
  9 23  1  6  0  0  0
  9  3  1  0  0  0  0
 10  4  1  0  0  0  0
 11 10  1  0  0  0  0
 12  5  1  0  0  0  0
 12 10  2  0  0  0  0
 14 17  2  0  0  0  0
 14 12  1  0  0  0  0
 15 16  1  0  0  0  0
 16 14  1  0  0  0  0
 18 20  1  6  0  0  0
 18 15  1  0  0  0  0
 18 16  1  0  0  0  0
 20 19  1  0  0  0  0
 20 22  1  0  0  0  0
 21 20  1  0  0  0  0
 23 27  1  6  0  0  0
 23 24  1  0  0  0  0
 24 25  1  0  0  0  0
 26 24  2  0  0  0  0
 28 31  1  0  0  0  0
 28 27  1  0  0  0  0
 29 30  1  0  0  0  0
 30 28  1  0  0  0  0
 31 32  1  0  0  0  0
M  END
>  <MODEL>
9

>  <REMARK>
 VINA RESULT:      -6.0      3.827      5.894
  Name = 
  8 active torsions:
  status: ('A' for Active; 'I' for Inactive)
    1  A    between atoms: C_2  and  N_8
    2  A    between atoms: C_2  and  C_26
    3  A    between atoms: C_2  and  C_27
    4  A    between atoms: C_4  and  C_29
    5  A    between atoms: N_8  and  CA_19
    6  A    between atoms: C_9  and  C_32
    7  A    between atoms: C_11  and  CA_19
    8  A    between atoms: CA_19  and  C_22
                            x       y       z     vdW  Elec       q    Type
                         _______ _______ _______ _____ _____    ______ ____

>  <TORSDO>
F 8

$$$$
