=
 OpenBabel11072409393D

 25 27  0  0  1  0  0  0  0  0999 V2000
  185.6640  178.2200  140.8090 C   0  0  0  0  0  3  0  0  0  0  0  0
  185.0250  178.1880  143.1640 C   0  0  0  0  0  0  0  0  0  0  0  0
  182.0250  178.3480  141.0510 F   0  0  0  0  0  0  0  0  0  0  0  0
  184.3210  178.2740  140.4340 C   0  0  0  0  0  3  0  0  0  0  0  0
  186.0330  178.1840  142.1650 C   0  0  0  0  0  0  0  0  0  0  0  0
  183.3290  178.2930  141.4110 C   0  0  0  0  0  0  0  0  0  0  0  0
  183.6790  178.2500  142.7610 C   0  0  0  0  0  3  0  0  0  0  0  0
  185.3300  178.1350  144.6220 C   0  0  0  0  0  0  0  0  0  0  0  0
  185.7970  179.2140  146.7430 C   0  0  0  0  0  3  0  0  0  0  0  0
  185.9370  177.9970  147.3330 N   0  0  0  0  0  0  0  0  0  0  0  0
  185.7900  176.8460  146.6260 C   0  0  0  0  0  3  0  0  0  0  0  0
  185.4960  179.3010  145.3820 C   0  0  0  0  0  3  0  0  0  0  0  0
  185.4880  176.8960  145.2630 C   0  0  0  0  0  3  0  0  0  0  0  0
  187.3870  178.1520  142.5230 O   0  0  0  0  0  0  0  0  0  0  0  0
  189.4410  177.2530  143.4230 C   0  0  2  0  0  3  0  0  0  0  0  0
  190.2340  175.0900  142.2620 C   0  0  0  0  0  2  0  0  0  0  0  0
  192.7210  175.6130  143.3900 O   0  0  0  0  0  0  0  0  0  0  0  0
  190.4770  176.2410  143.1440 N   0  0  0  0  0  0  0  0  0  0  0  0
  192.1440  177.6360  144.2860 O   0  0  0  0  0  1  0  0  0  0  0  0
  188.7930  175.0540  141.7640 C   0  0  2  0  0  3  0  0  0  0  0  0
  191.8200  176.4680  143.6040 C   0  0  0  0  0  0  0  0  0  0  0  0
  188.7020  174.1800  140.5320 C   0  0  0  0  0  1  0  0  0  0  0  0
  189.1680  177.3300  144.9170 C   0  0  0  0  0  1  0  0  0  0  0  0
  188.3710  176.3500  141.4580 O   0  0  0  0  0  0  0  0  0  0  0  0
  188.1250  176.9470  142.7010 C   0  0  2  0  0  3  0  0  0  0  0  0
  1  5  1  0  0  0  0
  2  8  1  0  0  0  0
  3  6  1  0  0  0  0
  4  1  2  0  0  0  0
  4  6  1  0  0  0  0
  5 14  1  0  0  0  0
  5  2  2  0  0  0  0
  6  7  2  0  0  0  0
  7  2  1  0  0  0  0
  8 13  2  0  0  0  0
  8 12  1  0  0  0  0
  9 10  1  0  0  0  0
 11 10  2  0  0  0  0
 12  9  2  0  0  0  0
 13 11  1  0  0  0  0
 15 23  1  1  0  0  0
 16 18  1  0  0  0  0
 17 21  2  0  0  0  0
 18 15  1  0  0  0  0
 18 21  1  0  0  0  0
 20 22  1  6  0  0  0
 20 16  1  0  0  0  0
 21 19  1  0  0  0  0
 24 20  1  0  0  0  0
 24 25  1  0  0  0  0
 25 14  1  6  0  0  0
 25 15  1  0  0  0  0
M  END
>  <MODEL>
1

>  <REMARK>
 VINA RESULT:      -7.5      0.000      0.000
  Name = 
  3 active torsions:
  status: ('A' for Active; 'I' for Inactive)
    1  A    between atoms: C_1  and  C_14
    2  A    between atoms: O_2  and  C_21
    3  A    between atoms: O_2  and  C_24
                            x       y       z     vdW  Elec       q    Type
                         _______ _______ _______ _____ _____    ______ ____

>  <TORSDO>
F 3

$$$$
=
 OpenBabel11072409393D

 25 27  0  0  1  0  0  0  0  0999 V2000
  187.5890  177.7410  141.3020 C   0  0  0  0  0  3  0  0  0  0  0  0
  186.0530  177.9500  143.1870 C   0  0  0  0  0  0  0  0  0  0  0  0
  184.1820  178.0300  140.0280 F   0  0  0  0  0  0  0  0  0  0  0  0
  186.5200  177.8110  140.4090 C   0  0  0  0  0  3  0  0  0  0  0  0
  187.3760  177.8140  142.6900 C   0  0  0  0  0  0  0  0  0  0  0  0
  185.2220  177.9580  140.8920 C   0  0  0  0  0  0  0  0  0  0  0  0
  184.9930  178.0260  142.2660 C   0  0  0  0  0  3  0  0  0  0  0  0
  185.7390  178.0180  144.6430 C   0  0  0  0  0  0  0  0  0  0  0  0
  185.5560  179.2420  146.7290 C   0  0  0  0  0  3  0  0  0  0  0  0
  185.1810  178.1010  147.3660 N   0  0  0  0  0  0  0  0  0  0  0  0
  185.0760  176.9200  146.7030 C   0  0  0  0  0  3  0  0  0  0  0  0
  185.8430  179.2170  145.3620 C   0  0  0  0  0  3  0  0  0  0  0  0
  185.3550  176.8590  145.3360 C   0  0  0  0  0  3  0  0  0  0  0  0
  188.4640  177.7630  143.5710 O   0  0  0  0  0  0  0  0  0  0  0  0
  189.7280  176.6560  145.3070 C   0  0  2  0  0  3  0  0  0  0  0  0
  191.4340  174.9350  144.4220 C   0  0  0  0  0  2  0  0  0  0  0  0
  192.6440  175.1230  146.9180 O   0  0  0  0  0  0  0  0  0  0  0  0
  190.8970  175.7780  145.5000 N   0  0  0  0  0  0  0  0  0  0  0  0
  191.2890  176.7890  147.7020 O   0  0  0  0  0  1  0  0  0  0  0  0
  190.5930  175.0350  143.1530 C   0  0  2  0  0  3  0  0  0  0  0  0
  191.6480  175.8700  146.7220 C   0  0  0  0  0  0  0  0  0  0  0  0
  191.4030  174.5610  141.9660 C   0  0  0  0  0  1  0  0  0  0  0  0
  188.6250  176.2890  146.2870 C   0  0  0  0  0  1  0  0  0  0  0  0
  190.1970  176.3610  142.9580 O   0  0  0  0  0  0  0  0  0  0  0  0
  189.1660  176.5650  143.8840 C   0  0  2  0  0  3  0  0  0  0  0  0
  1  5  1  0  0  0  0
  2  8  1  0  0  0  0
  3  6  1  0  0  0  0
  4  6  1  0  0  0  0
  4  1  2  0  0  0  0
  5  2  2  0  0  0  0
  5 14  1  0  0  0  0
  6  7  2  0  0  0  0
  7  2  1  0  0  0  0
  8 13  2  0  0  0  0
  8 12  1  0  0  0  0
  9 10  1  0  0  0  0
 11 10  2  0  0  0  0
 12  9  2  0  0  0  0
 13 11  1  0  0  0  0
 15 18  1  0  0  0  0
 15 23  1  1  0  0  0
 16 18  1  0  0  0  0
 18 21  1  0  0  0  0
 20 22  1  6  0  0  0
 20 16  1  0  0  0  0
 21 17  2  0  0  0  0
 21 19  1  0  0  0  0
 24 20  1  0  0  0  0
 24 25  1  0  0  0  0
 25 14  1  6  0  0  0
 25 15  1  0  0  0  0
M  END
>  <MODEL>
2

>  <REMARK>
 VINA RESULT:      -7.3      1.736      2.063
  Name = 
  3 active torsions:
  status: ('A' for Active; 'I' for Inactive)
    1  A    between atoms: C_1  and  C_14
    2  A    between atoms: O_2  and  C_21
    3  A    between atoms: O_2  and  C_24
                            x       y       z     vdW  Elec       q    Type
                         _______ _______ _______ _____ _____    ______ ____

>  <TORSDO>
F 3

$$$$
=
 OpenBabel11072409393D

 25 27  0  0  1  0  0  0  0  0999 V2000
  187.3750  177.6750  147.1870 C   0  0  0  0  0  3  0  0  0  0  0  0
  186.7740  177.2890  144.8540 C   0  0  0  0  0  0  0  0  0  0  0  0
  183.7390  177.7100  146.8790 F   0  0  0  0  0  0  0  0  0  0  0  0
  186.0260  177.7710  147.5300 C   0  0  0  0  0  3  0  0  0  0  0  0
  187.7660  177.4290  145.8590 C   0  0  0  0  0  0  0  0  0  0  0  0
  185.0490  177.6210  146.5490 C   0  0  0  0  0  0  0  0  0  0  0  0
  185.4210  177.3820  145.2260 C   0  0  0  0  0  3  0  0  0  0  0  0
  187.1040  177.0430  143.4200 C   0  0  0  0  0  0  0  0  0  0  0  0
  187.6480  177.8340  141.1930 C   0  0  0  0  0  3  0  0  0  0  0  0
  187.6780  176.5510  140.7440 N   0  0  0  0  0  0  0  0  0  0  0  0
  187.4290  175.5030  141.5740 C   0  0  0  0  0  3  0  0  0  0  0  0
  187.3580  178.0990  142.5330 C   0  0  0  0  0  3  0  0  0  0  0  0
  187.1370  175.7320  142.9200 C   0  0  0  0  0  3  0  0  0  0  0  0
  189.1250  177.3140  145.5370 O   0  0  0  0  0  0  0  0  0  0  0  0
  191.2620  176.5050  146.3190 C   0  0  2  0  0  3  0  0  0  0  0  0
  191.9640  174.2450  145.2940 C   0  0  0  0  0  2  0  0  0  0  0  0
  194.5410  174.8720  146.1290 O   0  0  0  0  0  0  0  0  0  0  0  0
  192.2770  175.4730  146.0390 N   0  0  0  0  0  0  0  0  0  0  0  0
  194.0300  176.9690  146.8830 O   0  0  0  0  0  1  0  0  0  0  0  0
  190.4830  174.1600  144.9400 C   0  0  2  0  0  3  0  0  0  0  0  0
  193.6550  175.7420  146.3460 C   0  0  0  0  0  0  0  0  0  0  0  0
  190.2850  173.1750  143.8080 C   0  0  0  0  0  1  0  0  0  0  0  0
  191.1300  176.7210  147.8180 C   0  0  0  0  0  1  0  0  0  0  0  0
  190.0210  175.4220  144.5560 O   0  0  0  0  0  0  0  0  0  0  0  0
  189.8870  176.1320  145.7560 C   0  0  2  0  0  3  0  0  0  0  0  0
  1  4  1  0  0  0  0
  2  7  2  0  0  0  0
  2  5  1  0  0  0  0
  5  1  2  0  0  0  0
  6  3  1  0  0  0  0
  6  4  2  0  0  0  0
  7  6  1  0  0  0  0
  8  2  1  0  0  0  0
  9 12  1  0  0  0  0
 10  9  2  0  0  0  0
 10 11  1  0  0  0  0
 11 13  2  0  0  0  0
 12  8  2  0  0  0  0
 13  8  1  0  0  0  0
 14  5  1  0  0  0  0
 15 23  1  1  0  0  0
 16 18  1  0  0  0  0
 17 21  2  0  0  0  0
 18 15  1  0  0  0  0
 18 21  1  0  0  0  0
 20 22  1  6  0  0  0
 20 16  1  0  0  0  0
 21 19  1  0  0  0  0
 24 20  1  0  0  0  0
 24 25  1  0  0  0  0
 25 14  1  6  0  0  0
 25 15  1  0  0  0  0
M  END
>  <MODEL>
3

>  <REMARK>
 VINA RESULT:      -7.3      3.041      4.436
  Name = 
  3 active torsions:
  status: ('A' for Active; 'I' for Inactive)
    1  A    between atoms: C_1  and  C_14
    2  A    between atoms: O_2  and  C_21
    3  A    between atoms: O_2  and  C_24
                            x       y       z     vdW  Elec       q    Type
                         _______ _______ _______ _____ _____    ______ ____

>  <TORSDO>
F 3

$$$$
=
 OpenBabel11072409393D

 25 27  0  0  1  0  0  0  0  0999 V2000
  189.9270  175.5690  145.2730 C   0  0  0  0  0  3  0  0  0  0  0  0
  188.1320  177.0520  146.0040 C   0  0  0  0  0  0  0  0  0  0  0  0
  191.0070  177.3470  148.2710 F   0  0  0  0  0  0  0  0  0  0  0  0
  190.7250  175.9930  146.3350 C   0  0  0  0  0  3  0  0  0  0  0  0
  188.6290  176.0810  145.0960 C   0  0  0  0  0  0  0  0  0  0  0  0
  190.2360  176.9350  147.2370 C   0  0  0  0  0  0  0  0  0  0  0  0
  188.9530  177.4580  147.0710 C   0  0  0  0  0  3  0  0  0  0  0  0
  186.7760  177.6580  145.8780 C   0  0  0  0  0  0  0  0  0  0  0  0
  184.4400  177.8050  146.5130 C   0  0  0  0  0  3  0  0  0  0  0  0
  184.2490  178.7850  145.5910 N   0  0  0  0  0  0  0  0  0  0  0  0
  185.2660  179.2240  144.8020 C   0  0  0  0  0  3  0  0  0  0  0  0
  185.7010  177.2260  146.6680 C   0  0  0  0  0  3  0  0  0  0  0  0
  186.5410  178.6680  144.9310 C   0  0  0  0  0  3  0  0  0  0  0  0
  187.8340  175.6280  144.0360 O   0  0  0  0  0  0  0  0  0  0  0  0
  187.5430  176.5210  141.8100 C   0  0  2  0  0  3  0  0  0  0  0  0
  188.1610  174.8670  139.9300 C   0  0  0  0  0  2  0  0  0  0  0  0
  186.6880  176.5150  138.2430 O   0  0  0  0  0  0  0  0  0  0  0  0
  187.5240  176.1070  140.3950 N   0  0  0  0  0  0  0  0  0  0  0  0
  185.9410  177.9150  139.8900 O   0  0  0  0  0  1  0  0  0  0  0  0
  188.8840  174.1440  141.0620 C   0  0  2  0  0  3  0  0  0  0  0  0
  186.7130  176.8400  139.4610 C   0  0  0  0  0  0  0  0  0  0  0  0
  189.1060  172.6960  140.6810 C   0  0  0  0  0  1  0  0  0  0  0  0
  188.2000  177.8860  141.9510 C   0  0  0  0  0  1  0  0  0  0  0  0
  188.1160  174.2140  142.2270 O   0  0  0  0  0  0  0  0  0  0  0  0
  188.2980  175.5230  142.6940 C   0  0  2  0  0  3  0  0  0  0  0  0
  1  4  1  0  0  0  0
  2  7  2  0  0  0  0
  4  6  2  0  0  0  0
  5  1  2  0  0  0  0
  5  2  1  0  0  0  0
  6  3  1  0  0  0  0
  7  6  1  0  0  0  0
  8  2  1  0  0  0  0
  8 12  1  0  0  0  0
  9 12  2  0  0  0  0
 10  9  1  0  0  0  0
 11 13  1  0  0  0  0
 11 10  2  0  0  0  0
 13  8  2  0  0  0  0
 14  5  1  0  0  0  0
 15 23  1  6  0  0  0
 15 25  1  0  0  0  0
 16 18  1  0  0  0  0
 16 20  1  0  0  0  0
 17 21  2  0  0  0  0
 18 15  1  0  0  0  0
 20 22  1  6  0  0  0
 20 24  1  0  0  0  0
 21 19  1  0  0  0  0
 21 18  1  0  0  0  0
 24 25  1  0  0  0  0
 25 14  1  1  0  0  0
M  END
>  <MODEL>
4

>  <REMARK>
 VINA RESULT:      -7.2      3.415      5.257
  Name = 
  3 active torsions:
  status: ('A' for Active; 'I' for Inactive)
    1  A    between atoms: C_1  and  C_14
    2  A    between atoms: O_2  and  C_21
    3  A    between atoms: O_2  and  C_24
                            x       y       z     vdW  Elec       q    Type
                         _______ _______ _______ _____ _____    ______ ____

>  <TORSDO>
F 3

$$$$
=
 OpenBabel11072409393D

 25 27  0  0  1  0  0  0  0  0999 V2000
  186.7230  177.0280  146.6580 C   0  0  0  0  0  3  0  0  0  0  0  0
  186.0600  177.3880  144.3370 C   0  0  0  0  0  0  0  0  0  0  0  0
  183.4590  178.6580  146.5980 F   0  0  0  0  0  0  0  0  0  0  0  0
  185.5390  177.6180  147.0990 C   0  0  0  0  0  3  0  0  0  0  0  0
  186.9970  176.8990  145.2850 C   0  0  0  0  0  0  0  0  0  0  0  0
  184.6110  178.0870  146.1720 C   0  0  0  0  0  0  0  0  0  0  0  0
  184.8710  177.9720  144.8070 C   0  0  0  0  0  3  0  0  0  0  0  0
  186.2810  177.3060  142.8650 C   0  0  0  0  0  0  0  0  0  0  0  0
  187.4430  176.4180  140.9300 C   0  0  0  0  0  3  0  0  0  0  0  0
  186.6910  177.2060  140.1160 N   0  0  0  0  0  0  0  0  0  0  0  0
  185.7450  178.0440  140.6160 C   0  0  0  0  0  3  0  0  0  0  0  0
  187.2520  176.4580  142.3120 C   0  0  0  0  0  3  0  0  0  0  0  0
  185.5280  178.1090  141.9940 C   0  0  0  0  0  3  0  0  0  0  0  0
  188.1820  176.2830  144.8590 O   0  0  0  0  0  0  0  0  0  0  0  0
  190.4790  176.7390  144.2660 C   0  0  2  0  0  3  0  0  0  0  0  0
  192.1780  176.1080  146.1010 C   0  0  0  0  0  2  0  0  0  0  0  0
  194.1030  176.2030  144.0970 O   0  0  0  0  0  1  0  0  0  0  0  0
  191.8590  176.4780  144.7150 N   0  0  0  0  0  0  0  0  0  0  0  0
  192.6310  176.5710  142.3860 O   0  0  0  0  0  0  0  0  0  0  0  0
  190.9370  176.1120  146.9880 C   0  0  2  0  0  3  0  0  0  0  0  0
  192.9120  176.4120  143.7390 C   0  0  0  0  0  0  0  0  0  0  0  0
  191.1990  175.2950  148.2340 C   0  0  0  0  0  1  0  0  0  0  0  0
  190.3640  178.1460  143.7020 C   0  0  0  0  0  1  0  0  0  0  0  0
  189.8580  175.5700  146.2840 O   0  0  0  0  0  0  0  0  0  0  0  0
  189.4620  176.5850  145.4020 C   0  0  2  0  0  3  0  0  0  0  0  0
  1  4  1  0  0  0  0
  2  7  2  0  0  0  0
  2  5  1  0  0  0  0
  5  1  2  0  0  0  0
  6  3  1  0  0  0  0
  6  4  2  0  0  0  0
  7  6  1  0  0  0  0
  8  2  1  0  0  0  0
  9 12  2  0  0  0  0
 10 11  2  0  0  0  0
 10  9  1  0  0  0  0
 11 13  1  0  0  0  0
 12  8  1  0  0  0  0
 13  8  2  0  0  0  0
 14  5  1  0  0  0  0
 15 23  1  1  0  0  0
 15 18  1  0  0  0  0
 15 25  1  0  0  0  0
 16 20  1  0  0  0  0
 18 16  1  0  0  0  0
 19 21  2  0  0  0  0
 20 22  1  1  0  0  0
 21 17  1  0  0  0  0
 21 18  1  0  0  0  0
 24 20  1  0  0  0  0
 25 14  1  6  0  0  0
 25 24  1  0  0  0  0
M  END
>  <MODEL>
5

>  <REMARK>
 VINA RESULT:      -7.1      2.480      4.549
  Name = 
  3 active torsions:
  status: ('A' for Active; 'I' for Inactive)
    1  A    between atoms: C_1  and  C_14
    2  A    between atoms: O_2  and  C_21
    3  A    between atoms: O_2  and  C_24
                            x       y       z     vdW  Elec       q    Type
                         _______ _______ _______ _____ _____    ______ ____

>  <TORSDO>
F 3

$$$$
=
 OpenBabel11072409393D

 25 27  0  0  1  0  0  0  0  0999 V2000
  189.5680  177.4340  146.5230 C   0  0  0  0  0  3  0  0  0  0  0  0
  190.1490  175.4870  145.1720 C   0  0  0  0  0  0  0  0  0  0  0  0
  191.5540  175.1380  148.5480 F   0  0  0  0  0  0  0  0  0  0  0  0
  190.2500  176.8950  147.6130 C   0  0  0  0  0  3  0  0  0  0  0  0
  189.5120  176.7490  145.2970 C   0  0  0  0  0  0  0  0  0  0  0  0
  190.8880  175.6630  147.4920 C   0  0  0  0  0  0  0  0  0  0  0  0
  190.8360  174.9680  146.2840 C   0  0  0  0  0  3  0  0  0  0  0  0
  190.1230  174.6880  143.9140 C   0  0  0  0  0  0  0  0  0  0  0  0
  190.7970  174.3110  141.6150 C   0  0  0  0  0  3  0  0  0  0  0  0
  190.0230  173.1940  141.5700 N   0  0  0  0  0  0  0  0  0  0  0  0
  189.2930  172.7940  142.6440 C   0  0  0  0  0  3  0  0  0  0  0  0
  190.8560  175.0740  142.7820 C   0  0  0  0  0  3  0  0  0  0  0  0
  189.3300  173.5330  143.8290 C   0  0  0  0  0  3  0  0  0  0  0  0
  188.8410  177.3160  144.2050 O   0  0  0  0  0  0  0  0  0  0  0  0
  187.1170  177.2910  142.5130 C   0  0  2  0  0  3  0  0  0  0  0  0
  184.8210  178.1190  143.3450 C   0  0  0  0  0  2  0  0  0  0  0  0
  184.1710  178.4510  140.6620 O   0  0  0  0  0  1  0  0  0  0  0  0
  185.7440  177.7640  142.2580 N   0  0  0  0  0  0  0  0  0  0  0  0
  186.2430  177.9140  139.8590 O   0  0  0  0  0  0  0  0  0  0  0  0
  185.4360  177.8600  144.7170 C   0  0  2  0  0  3  0  0  0  0  0  0
  185.3430  178.0560  140.9090 C   0  0  0  0  0  0  0  0  0  0  0  0
  184.6880  178.6520  145.7680 C   0  0  0  0  0  1  0  0  0  0  0  0
  187.3210  175.9130  141.9040 C   0  0  0  0  0  1  0  0  0  0  0  0
  186.7810  178.2400  144.7060 O   0  0  0  0  0  0  0  0  0  0  0  0
  187.4340  177.2140  144.0100 C   0  0  2  0  0  3  0  0  0  0  0  0
  1  4  1  0  0  0  0
  2  5  1  0  0  0  0
  2  7  2  0  0  0  0
  5  1  2  0  0  0  0
  6  4  2  0  0  0  0
  6  3  1  0  0  0  0
  7  6  1  0  0  0  0
  8  2  1  0  0  0  0
  9 12  1  0  0  0  0
 10  9  2  0  0  0  0
 10 11  1  0  0  0  0
 11 13  2  0  0  0  0
 12  8  2  0  0  0  0
 13  8  1  0  0  0  0
 14  5  1  0  0  0  0
 15 23  1  1  0  0  0
 15 25  1  0  0  0  0
 16 20  1  0  0  0  0
 17 21  1  0  0  0  0
 18 15  1  0  0  0  0
 18 16  1  0  0  0  0
 19 21  2  0  0  0  0
 20 22  1  1  0  0  0
 21 18  1  0  0  0  0
 24 20  1  0  0  0  0
 25 14  1  6  0  0  0
 25 24  1  0  0  0  0
M  END
>  <MODEL>
6

>  <REMARK>
 VINA RESULT:      -7.0      3.412      7.036
  Name = 
  3 active torsions:
  status: ('A' for Active; 'I' for Inactive)
    1  A    between atoms: C_1  and  C_14
    2  A    between atoms: O_2  and  C_21
    3  A    between atoms: O_2  and  C_24
                            x       y       z     vdW  Elec       q    Type
                         _______ _______ _______ _____ _____    ______ ____

>  <TORSDO>
F 3

$$$$
=
 OpenBabel11072409393D

 25 27  0  0  1  0  0  0  0  0999 V2000
  186.8840  176.6160  146.4210 C   0  0  0  0  0  3  0  0  0  0  0  0
  185.6600  177.5970  144.5510 C   0  0  0  0  0  0  0  0  0  0  0  0
  184.1220  178.6100  147.7290 F   0  0  0  0  0  0  0  0  0  0  0  0
  186.0160  177.2280  147.3240 C   0  0  0  0  0  3  0  0  0  0  0  0
  186.7180  176.7830  145.0350 C   0  0  0  0  0  0  0  0  0  0  0  0
  184.9680  178.0160  146.8540 C   0  0  0  0  0  0  0  0  0  0  0  0
  184.7940  178.1980  145.4820 C   0  0  0  0  0  3  0  0  0  0  0  0
  185.4250  177.8400  143.0990 C   0  0  0  0  0  0  0  0  0  0  0  0
  183.9480  178.2320  141.2160 C   0  0  0  0  0  3  0  0  0  0  0  0
  185.0190  178.2540  140.3790 N   0  0  0  0  0  0  0  0  0  0  0  0
  186.2840  178.0740  140.8420 C   0  0  0  0  0  3  0  0  0  0  0  0
  184.1330  178.0220  142.5840 C   0  0  0  0  0  3  0  0  0  0  0  0
  186.5070  177.8620  142.2050 C   0  0  0  0  0  3  0  0  0  0  0  0
  187.5860  176.1430  144.1410 O   0  0  0  0  0  0  0  0  0  0  0  0
  189.9650  176.5220  143.9620 C   0  0  2  0  0  3  0  0  0  0  0  0
  191.3830  174.3740  144.1290 C   0  0  0  0  0  2  0  0  0  0  0  0
  193.4370  175.8570  142.9830 O   0  0  0  0  0  1  0  0  0  0  0  0
  191.2390  175.7980  143.7960 N   0  0  0  0  0  0  0  0  0  0  0  0
  192.1860  177.7370  142.6260 O   0  0  0  0  0  0  0  0  0  0  0  0
  190.1000  173.7990  144.7220 C   0  0  2  0  0  3  0  0  0  0  0  0
  192.3330  176.4490  143.1280 C   0  0  0  0  0  0  0  0  0  0  0  0
  190.1180  172.2900  144.6080 C   0  0  0  0  0  1  0  0  0  0  0  0
  190.1480  177.7020  144.9050 C   0  0  0  0  0  1  0  0  0  0  0  0
  188.9970  174.3130  144.0360 O   0  0  0  0  0  0  0  0  0  0  0  0
  188.8560  175.6220  144.5170 C   0  0  2  0  0  3  0  0  0  0  0  0
  1  4  1  0  0  0  0
  2  5  1  0  0  0  0
  2  7  2  0  0  0  0
  5  1  2  0  0  0  0
  6  4  2  0  0  0  0
  6  3  1  0  0  0  0
  7  6  1  0  0  0  0
  8  2  1  0  0  0  0
  9 12  2  0  0  0  0
 10 11  2  0  0  0  0
 10  9  1  0  0  0  0
 11 13  1  0  0  0  0
 12  8  1  0  0  0  0
 13  8  2  0  0  0  0
 14  5  1  0  0  0  0
 15 25  1  0  0  0  0
 15 23  1  1  0  0  0
 16 20  1  0  0  0  0
 17 21  1  0  0  0  0
 18 15  1  0  0  0  0
 18 16  1  0  0  0  0
 19 21  2  0  0  0  0
 20 22  1  6  0  0  0
 21 18  1  0  0  0  0
 24 25  1  0  0  0  0
 24 20  1  0  0  0  0
 25 14  1  6  0  0  0
M  END
>  <MODEL>
7

>  <REMARK>
 VINA RESULT:      -7.0      2.526      4.027
  Name = 
  3 active torsions:
  status: ('A' for Active; 'I' for Inactive)
    1  A    between atoms: C_1  and  C_14
    2  A    between atoms: O_2  and  C_21
    3  A    between atoms: O_2  and  C_24
                            x       y       z     vdW  Elec       q    Type
                         _______ _______ _______ _____ _____    ______ ____

>  <TORSDO>
F 3

$$$$
=
 OpenBabel11072409393D

 25 27  0  0  1  0  0  0  0  0999 V2000
  190.6250  176.2750  147.0340 C   0  0  0  0  0  3  0  0  0  0  0  0
  190.8490  174.7040  145.1800 C   0  0  0  0  0  0  0  0  0  0  0  0
  194.1130  175.2330  146.7800 F   0  0  0  0  0  0  0  0  0  0  0  0
  191.9880  176.1650  147.3060 C   0  0  0  0  0  3  0  0  0  0  0  0
  190.0410  175.5580  145.9740 C   0  0  0  0  0  0  0  0  0  0  0  0
  192.7880  175.3380  146.5200 C   0  0  0  0  0  0  0  0  0  0  0  0
  192.2230  174.6160  145.4700 C   0  0  0  0  0  3  0  0  0  0  0  0
  190.3070  173.8970  144.0500 C   0  0  0  0  0  0  0  0  0  0  0  0
  189.7200  173.6280  141.7120 C   0  0  0  0  0  3  0  0  0  0  0  0
  189.2530  172.3780  141.9710 N   0  0  0  0  0  0  0  0  0  0  0  0
  189.2860  171.8550  143.2260 C   0  0  0  0  0  3  0  0  0  0  0  0
  190.2490  174.4050  142.7440 C   0  0  0  0  0  3  0  0  0  0  0  0
  189.8100  172.6040  144.2820 C   0  0  0  0  0  3  0  0  0  0  0  0
  188.6730  175.6970  145.7020 O   0  0  0  0  0  0  0  0  0  0  0  0
  186.8020  177.2170  145.8480 C   0  0  2  0  0  3  0  0  0  0  0  0
  186.2180  178.3750  143.6180 C   0  0  0  0  0  2  0  0  0  0  0  0
  183.7530  178.9490  144.7700 O   0  0  0  0  0  0  0  0  0  0  0  0
  185.8850  178.0020  145.0010 N   0  0  0  0  0  0  0  0  0  0  0  0
  184.1260  177.7760  146.6980 O   0  0  0  0  0  1  0  0  0  0  0  0
  187.6220  177.9200  143.2320 C   0  0  2  0  0  3  0  0  0  0  0  0
  184.5530  178.2690  145.4690 C   0  0  0  0  0  0  0  0  0  0  0  0
  187.7500  177.8870  141.7240 C   0  0  0  0  0  1  0  0  0  0  0  0
  187.1480  177.9920  147.1090 C   0  0  0  0  0  1  0  0  0  0  0  0
  187.8620  176.6470  143.7560 O   0  0  0  0  0  0  0  0  0  0  0  0
  188.1030  176.8640  145.1200 C   0  0  2  0  0  3  0  0  0  0  0  0
  1  4  1  0  0  0  0
  2  7  2  0  0  0  0
  2  5  1  0  0  0  0
  5  1  2  0  0  0  0
  6  3  1  0  0  0  0
  6  4  2  0  0  0  0
  7  6  1  0  0  0  0
  8 13  1  0  0  0  0
  8  2  1  0  0  0  0
  9 10  2  0  0  0  0
  9 12  1  0  0  0  0
 10 11  1  0  0  0  0
 11 13  2  0  0  0  0
 12  8  2  0  0  0  0
 14  5  1  0  0  0  0
 15 23  1  1  0  0  0
 16 18  1  0  0  0  0
 17 21  2  0  0  0  0
 18 21  1  0  0  0  0
 18 15  1  0  0  0  0
 20 22  1  6  0  0  0
 20 16  1  0  0  0  0
 20 24  1  0  0  0  0
 21 19  1  0  0  0  0
 24 25  1  0  0  0  0
 25 14  1  1  0  0  0
 25 15  1  0  0  0  0
M  END
>  <MODEL>
8

>  <REMARK>
 VINA RESULT:      -6.9      3.875      7.367
  Name = 
  3 active torsions:
  status: ('A' for Active; 'I' for Inactive)
    1  A    between atoms: C_1  and  C_14
    2  A    between atoms: O_2  and  C_21
    3  A    between atoms: O_2  and  C_24
                            x       y       z     vdW  Elec       q    Type
                         _______ _______ _______ _____ _____    ______ ____

>  <TORSDO>
F 3

$$$$
=
 OpenBabel11072409393D

 25 27  0  0  1  0  0  0  0  0999 V2000
  187.1930  176.5580  141.3930 C   0  0  0  0  0  3  0  0  0  0  0  0
  186.0540  177.5990  143.2840 C   0  0  0  0  0  0  0  0  0  0  0  0
  184.7860  178.9930  140.1320 F   0  0  0  0  0  0  0  0  0  0  0  0
  186.4460  177.3300  140.5040 C   0  0  0  0  0  3  0  0  0  0  0  0
  187.0150  176.6840  142.7820 C   0  0  0  0  0  0  0  0  0  0  0  0
  185.5110  178.2400  140.9920 C   0  0  0  0  0  0  0  0  0  0  0  0
  185.3180  178.3710  142.3670 C   0  0  0  0  0  3  0  0  0  0  0  0
  185.7920  177.7800  144.7400 C   0  0  0  0  0  0  0  0  0  0  0  0
  185.0810  176.9350  146.9000 C   0  0  0  0  0  3  0  0  0  0  0  0
  185.2760  178.1640  147.4460 N   0  0  0  0  0  0  0  0  0  0  0  0
  185.7150  179.2110  146.6990 C   0  0  0  0  0  3  0  0  0  0  0  0
  185.3310  176.7250  145.5420 C   0  0  0  0  0  3  0  0  0  0  0  0
  185.9760  179.0370  145.3380 C   0  0  0  0  0  3  0  0  0  0  0  0
  187.7900  175.9150  143.6610 O   0  0  0  0  0  0  0  0  0  0  0  0
  190.1330  175.3980  143.9500 C   0  0  2  0  0  3  0  0  0  0  0  0
  191.1650  176.3850  146.0980 C   0  0  0  0  0  2  0  0  0  0  0  0
  193.2160  174.5410  145.7410 O   0  0  0  0  0  1  0  0  0  0  0  0
  191.2140  175.4680  144.9490 N   0  0  0  0  0  0  0  0  0  0  0  0
  192.2660  173.4900  143.9470 O   0  0  0  0  0  0  0  0  0  0  0  0
  189.9240  177.2700  146.0620 C   0  0  2  0  0  3  0  0  0  0  0  0
  192.2720  174.4960  144.9060 C   0  0  0  0  0  0  0  0  0  0  0  0
  189.6610  177.8350  147.4410 C   0  0  0  0  0  1  0  0  0  0  0  0
  190.6750  175.7040  142.5630 C   0  0  0  0  0  1  0  0  0  0  0  0
  188.8240  176.5180  145.6400 O   0  0  0  0  0  0  0  0  0  0  0  0
  188.9970  176.3800  144.2570 C   0  0  2  0  0  3  0  0  0  0  0  0
  1  5  1  0  0  0  0
  2  8  1  0  0  0  0
  3  6  1  0  0  0  0
  4  6  1  0  0  0  0
  4  1  2  0  0  0  0
  5  2  2  0  0  0  0
  5 14  1  0  0  0  0
  6  7  2  0  0  0  0
  7  2  1  0  0  0  0
  8 13  2  0  0  0  0
  8 12  1  0  0  0  0
  9 10  1  0  0  0  0
 11 10  2  0  0  0  0
 12  9  2  0  0  0  0
 13 11  1  0  0  0  0
 15 23  1  6  0  0  0
 15 25  1  0  0  0  0
 15 18  1  0  0  0  0
 18 16  1  0  0  0  0
 19 21  2  0  0  0  0
 20 16  1  0  0  0  0
 20 22  1  1  0  0  0
 21 18  1  0  0  0  0
 21 17  1  0  0  0  0
 24 20  1  0  0  0  0
 25 14  1  6  0  0  0
 25 24  1  0  0  0  0
M  END
>  <MODEL>
9

>  <REMARK>
 VINA RESULT:      -6.8      1.789      3.079
  Name = 
  3 active torsions:
  status: ('A' for Active; 'I' for Inactive)
    1  A    between atoms: C_1  and  C_14
    2  A    between atoms: O_2  and  C_21
    3  A    between atoms: O_2  and  C_24
                            x       y       z     vdW  Elec       q    Type
                         _______ _______ _______ _____ _____    ______ ____

>  <TORSDO>
F 3

$$$$
