=
 OpenBabel11072408353D

 26 28  0  0  1  0  0  0  0  0999 V2000
  193.4820  176.0050  145.4300 N   0  0  0  0  0  0  0  0  0  0  0  0
  191.4970  176.1040  146.7910 C   0  0  0  0  0  3  0  0  0  0  0  0
  189.4450  175.2330  145.6020 N   0  0  0  0  0  0  0  0  0  0  0  0
  191.4230  175.2260  144.5660 C   0  0  0  0  0  0  0  0  0  0  0  0
  189.1660  174.6480  144.3940 O   0  0  0  0  0  0  0  0  0  0  0  0
  192.7840  175.4600  144.3890 C   0  0  0  0  0  3  0  0  0  0  0  0
  190.8150  175.5290  145.7190 C   0  0  0  0  0  0  0  0  0  0  0  0
  190.3810  174.7170  143.6410 C   0  0  1  0  0  3  0  0  0  0  0  0
  192.8740  176.3300  146.6140 C   0  0  0  0  0  3  0  0  0  0  0  0
  188.4500  176.0440  146.2920 C   0  0  0  0  0  2  0  0  0  0  0  0
  188.1760  177.3320  145.5300 C   0  0  0  0  0  2  0  0  0  0  0  0
  184.5450  177.4380  146.6210 C   0  0  0  0  0  3  0  0  0  0  0  0
  185.8780  177.0360  146.4930 C   0  0  0  0  0  3  0  0  0  0  0  0
  184.0860  178.5660  145.9340 C   0  0  0  0  0  3  0  0  0  0  0  0
  184.9610  179.2930  145.1200 C   0  0  0  0  0  3  0  0  0  0  0  0
  186.7550  177.7640  145.6790 C   0  0  0  0  0  0  0  0  0  0  0  0
  186.2930  178.8920  144.9920 C   0  0  0  0  0  3  0  0  0  0  0  0
  190.2120  175.6420  142.5320 N   0  0  0  0  0  2  0  0  0  0  0  0
  188.8870  175.4090  141.9760 C   0  0  2  0  0  3  0  0  0  0  0  0
  188.9930  174.6190  140.8290 O   0  0  0  0  0  1  0  0  0  0  0  0
  188.2000  176.7260  141.6310 C   0  0  2  0  0  3  0  0  0  0  0  0
  188.8900  177.8130  142.1750 O   0  0  0  0  0  1  0  0  0  0  0  0
  186.3420  175.8230  142.8400 O   0  0  0  0  0  0  0  0  0  0  0  0
  186.7740  176.7320  142.0780 C   0  0  0  0  0  0  0  0  0  0  0  0
  185.9290  177.7460  141.6280 O   0  0  0  0  0  0  0  0  0  0  0  0
  185.6300  177.9180  140.2510 C   0  0  0  0  0  1  0  0  0  0  0  0
  1  9  1  0  0  0  0
  3  7  1  0  0  0  0
  3 10  1  0  0  0  0
  4  7  2  0  0  0  0
  5  3  1  0  0  0  0
  6  4  1  0  0  0  0
  6  1  2  0  0  0  0
  7  2  1  0  0  0  0
  8 18  1  6  0  0  0
  8  5  1  0  0  0  0
  8  4  1  0  0  0  0
  9  2  2  0  0  0  0
 11 16  1  0  0  0  0
 11 10  1  0  0  0  0
 13 12  1  0  0  0  0
 14 12  2  0  0  0  0
 15 14  1  0  0  0  0
 16 13  2  0  0  0  0
 17 15  2  0  0  0  0
 17 16  1  0  0  0  0
 19 20  1  6  0  0  0
 19 18  1  0  0  0  0
 21 19  1  0  0  0  0
 21 24  1  0  0  0  0
 21 22  1  1  0  0  0
 24 23  2  0  0  0  0
 25 24  1  0  0  0  0
 26 25  1  0  0  0  0
M  END
>  <MODEL>
1

>  <REMARK>
 VINA RESULT:      -6.6      0.000      0.000
  Name = 
  8 active torsions:
  status: ('A' for Active; 'I' for Inactive)
    1  A    between atoms: O_2  and  C_17
    2  A    between atoms: C_7  and  C_15
    3  A    between atoms: C_7  and  C_24
    4  A    between atoms: C_8  and  C_12
    5  A    between atoms: C_8  and  C_17
    6  A    between atoms: N_10  and  C_15
    7  A    between atoms: C_12  and  N_21
    8  A    between atoms: N_21  and  C_22
                            x       y       z     vdW  Elec       q    Type
                         _______ _______ _______ _____ _____    ______ ____

>  <TORSDO>
F 8

$$$$
=
 OpenBabel11072408353D

 26 28  0  0  1  0  0  0  0  0999 V2000
  189.3670  177.8990  142.5670 N   0  0  0  0  0  0  0  0  0  0  0  0
  190.8680  177.0750  144.2610 C   0  0  0  0  0  3  0  0  0  0  0  0
  189.6770  176.3960  146.3830 N   0  0  0  0  0  0  0  0  0  0  0  0
  188.5080  177.1710  144.6460 C   0  0  0  0  0  0  0  0  0  0  0  0
  188.3780  176.3080  146.8130 O   0  0  0  0  0  0  0  0  0  0  0  0
  188.2850  177.7010  143.3790 C   0  0  0  0  0  3  0  0  0  0  0  0
  189.7430  176.8670  145.0600 C   0  0  0  0  0  0  0  0  0  0  0  0
  187.5870  176.8960  145.7760 C   0  0  1  0  0  3  0  0  0  0  0  0
  190.6400  177.6020  142.9770 C   0  0  0  0  0  3  0  0  0  0  0  0
  190.7620  176.6630  147.3200 C   0  0  0  0  0  2  0  0  0  0  0  0
  191.5690  175.4010  147.5900 C   0  0  0  0  0  2  0  0  0  0  0  0
  194.8070  176.3890  145.8790 C   0  0  0  0  0  3  0  0  0  0  0  0
  193.6640  176.4420  146.6830 C   0  0  0  0  0  3  0  0  0  0  0  0
  195.0810  175.2410  145.1300 C   0  0  0  0  0  3  0  0  0  0  0  0
  194.2150  174.1450  145.1870 C   0  0  0  0  0  3  0  0  0  0  0  0
  192.7960  175.3450  146.7420 C   0  0  0  0  0  0  0  0  0  0  0  0
  193.0730  174.1970  145.9910 C   0  0  0  0  0  3  0  0  0  0  0  0
  187.0090  178.1410  146.2550 N   0  0  0  0  0  2  0  0  0  0  0  0
  185.5950  177.8930  146.4990 C   0  0  2  0  0  3  0  0  0  0  0  0
  185.2520  176.6280  146.0180 O   0  0  0  0  0  1  0  0  0  0  0  0
  184.7300  178.9520  145.8210 C   0  0  2  0  0  3  0  0  0  0  0  0
  183.3720  178.7100  146.0410 O   0  0  0  0  0  1  0  0  0  0  0  0
  185.5860  180.0580  143.8790 O   0  0  0  0  0  0  0  0  0  0  0  0
  185.0190  179.0370  144.3570 C   0  0  0  0  0  0  0  0  0  0  0  0
  184.6360  177.9800  143.5310 O   0  0  0  0  0  0  0  0  0  0  0  0
  184.0280  178.1980  142.2670 C   0  0  0  0  0  1  0  0  0  0  0  0
  1  9  2  0  0  0  0
  1  6  1  0  0  0  0
  2  7  2  0  0  0  0
  3  5  1  0  0  0  0
  3 10  1  0  0  0  0
  4  7  1  0  0  0  0
  4  8  1  0  0  0  0
  6  4  2  0  0  0  0
  7  3  1  0  0  0  0
  8 18  1  1  0  0  0
  8  5  1  0  0  0  0
  9  2  1  0  0  0  0
 10 11  1  0  0  0  0
 12 13  1  0  0  0  0
 13 16  2  0  0  0  0
 14 15  1  0  0  0  0
 14 12  2  0  0  0  0
 15 17  2  0  0  0  0
 16 11  1  0  0  0  0
 17 16  1  0  0  0  0
 18 19  1  0  0  0  0
 19 20  1  6  0  0  0
 21 22  1  6  0  0  0
 21 19  1  0  0  0  0
 23 24  2  0  0  0  0
 24 21  1  0  0  0  0
 25 24  1  0  0  0  0
 26 25  1  0  0  0  0
M  END
>  <MODEL>
2

>  <REMARK>
 VINA RESULT:      -6.4      2.436      5.938
  Name = 
  8 active torsions:
  status: ('A' for Active; 'I' for Inactive)
    1  A    between atoms: O_2  and  C_17
    2  A    between atoms: C_7  and  C_15
    3  A    between atoms: C_7  and  C_24
    4  A    between atoms: C_8  and  C_12
    5  A    between atoms: C_8  and  C_17
    6  A    between atoms: N_10  and  C_15
    7  A    between atoms: C_12  and  N_21
    8  A    between atoms: N_21  and  C_22
                            x       y       z     vdW  Elec       q    Type
                         _______ _______ _______ _____ _____    ______ ____

>  <TORSDO>
F 8

$$$$
=
 OpenBabel11072408353D

 26 28  0  0  1  0  0  0  0  0999 V2000
  189.1410  172.7890  141.7810 N   0  0  0  0  0  0  0  0  0  0  0  0
  187.9330  174.8720  141.8300 C   0  0  0  0  0  3  0  0  0  0  0  0
  189.3510  176.8120  142.6080 N   0  0  0  0  0  0  0  0  0  0  0  0
  190.2430  174.7710  142.4480 C   0  0  0  0  0  0  0  0  0  0  0  0
  190.6630  177.0130  142.9520 O   0  0  0  0  0  0  0  0  0  0  0  0
  190.2840  173.4000  142.2150 C   0  0  0  0  0  3  0  0  0  0  0  0
  189.1190  175.4710  142.2550 C   0  0  0  0  0  0  0  0  0  0  0  0
  191.2620  175.7140  142.9720 C   0  0  1  0  0  3  0  0  0  0  0  0
  187.9790  173.4870  141.5870 C   0  0  0  0  0  3  0  0  0  0  0  0
  188.2890  177.6200  143.1940 C   0  0  0  0  0  2  0  0  0  0  0  0
  188.1050  177.2880  144.6690 C   0  0  0  0  0  2  0  0  0  0  0  0
  184.7960  177.2400  146.5220 C   0  0  0  0  0  3  0  0  0  0  0  0
  186.0720  176.8750  146.0790 C   0  0  0  0  0  3  0  0  0  0  0  0
  184.1940  178.4040  146.0350 C   0  0  0  0  0  3  0  0  0  0  0  0
  184.8680  179.2050  145.1080 C   0  0  0  0  0  3  0  0  0  0  0  0
  186.7480  177.6780  145.1520 C   0  0  0  0  0  0  0  0  0  0  0  0
  186.1430  178.8420  144.6660 C   0  0  0  0  0  3  0  0  0  0  0  0
  191.6030  175.3600  144.3400 N   0  0  0  0  0  2  0  0  0  0  0  0
  192.1990  176.5380  144.9530 C   0  0  2  0  0  3  0  0  0  0  0  0
  193.4790  176.7380  144.4340 O   0  0  0  0  0  1  0  0  0  0  0  0
  192.2770  176.3840  146.4690 C   0  0  2  0  0  3  0  0  0  0  0  0
  193.0290  175.2600  146.8240 O   0  0  0  0  0  1  0  0  0  0  0  0
  190.2330  177.3730  147.2240 O   0  0  0  0  0  0  0  0  0  0  0  0
  190.9160  176.3210  147.0830 C   0  0  0  0  0  0  0  0  0  0  0  0
  190.4240  175.0870  147.5090 O   0  0  0  0  0  0  0  0  0  0  0  0
  189.0660  174.7170  147.3240 C   0  0  0  0  0  1  0  0  0  0  0  0
  1  6  1  0  0  0  0
  2  7  2  0  0  0  0
  3  5  1  0  0  0  0
  3 10  1  0  0  0  0
  4  8  1  0  0  0  0
  5  8  1  0  0  0  0
  6  4  2  0  0  0  0
  7  4  1  0  0  0  0
  7  3  1  0  0  0  0
  8 18  1  1  0  0  0
  9  1  2  0  0  0  0
  9  2  1  0  0  0  0
 10 11  1  0  0  0  0
 11 16  1  0  0  0  0
 13 12  1  0  0  0  0
 14 12  2  0  0  0  0
 15 14  1  0  0  0  0
 16 13  2  0  0  0  0
 17 15  2  0  0  0  0
 17 16  1  0  0  0  0
 18 19  1  0  0  0  0
 19 20  1  6  0  0  0
 19 21  1  0  0  0  0
 21 22  1  6  0  0  0
 21 24  1  0  0  0  0
 24 23  2  0  0  0  0
 24 25  1  0  0  0  0
 26 25  1  0  0  0  0
M  END
>  <MODEL>
3

>  <REMARK>
 VINA RESULT:      -6.2      2.171      4.701
  Name = 
  8 active torsions:
  status: ('A' for Active; 'I' for Inactive)
    1  A    between atoms: O_2  and  C_17
    2  A    between atoms: C_7  and  C_15
    3  A    between atoms: C_7  and  C_24
    4  A    between atoms: C_8  and  C_12
    5  A    between atoms: C_8  and  C_17
    6  A    between atoms: N_10  and  C_15
    7  A    between atoms: C_12  and  N_21
    8  A    between atoms: N_21  and  C_22
                            x       y       z     vdW  Elec       q    Type
                         _______ _______ _______ _____ _____    ______ ____

>  <TORSDO>
F 8

$$$$
=
 OpenBabel11072408353D

 26 28  0  0  1  0  0  0  0  0999 V2000
  185.3410  177.0590  145.8070 N   0  0  0  0  0  0  0  0  0  0  0  0
  187.1590  177.0660  147.3870 C   0  0  0  0  0  3  0  0  0  0  0  0
  189.4070  177.4440  146.2970 N   0  0  0  0  0  0  0  0  0  0  0  0
  187.5530  177.4190  145.0530 C   0  0  0  0  0  0  0  0  0  0  0  0
  189.8700  177.7160  145.0360 O   0  0  0  0  0  0  0  0  0  0  0  0
  186.1980  177.2890  144.7670 C   0  0  0  0  0  3  0  0  0  0  0  0
  188.0070  177.3190  146.3080 C   0  0  0  0  0  0  0  0  0  0  0  0
  188.7330  177.6050  144.1740 C   0  0  1  0  0  3  0  0  0  0  0  0
  185.7890  176.9450  147.0970 C   0  0  0  0  0  3  0  0  0  0  0  0
  190.2250  176.7110  147.2560 C   0  0  0  0  0  2  0  0  0  0  0  0
  190.6550  175.3660  146.6850 C   0  0  0  0  0  2  0  0  0  0  0  0
  194.3040  176.3880  146.5120 C   0  0  0  0  0  3  0  0  0  0  0  0
  192.9270  176.4280  146.7550 C   0  0  0  0  0  3  0  0  0  0  0  0
  194.8810  175.2450  145.9490 C   0  0  0  0  0  3  0  0  0  0  0  0
  194.0820  174.1430  145.6310 C   0  0  0  0  0  3  0  0  0  0  0  0
  192.1260  175.3240  146.4380 C   0  0  0  0  0  0  0  0  0  0  0  0
  192.7060  174.1830  145.8740 C   0  0  0  0  0  3  0  0  0  0  0  0
  188.8930  176.4460  143.3110 N   0  0  0  0  0  2  0  0  0  0  0  0
  188.7270  176.9050  141.9390 C   0  0  2  0  0  3  0  0  0  0  0  0
  188.5730  178.2920  141.9260 O   0  0  0  0  0  1  0  0  0  0  0  0
  187.5150  176.2470  141.2860 C   0  0  2  0  0  3  0  0  0  0  0  0
  187.9060  175.2730  140.3640 O   0  0  0  0  0  1  0  0  0  0  0  0
  186.7660  177.5360  139.4140 O   0  0  0  0  0  0  0  0  0  0  0  0
  186.6280  177.2600  140.6380 C   0  0  0  0  0  0  0  0  0  0  0  0
  185.6600  177.9020  141.4090 O   0  0  0  0  0  0  0  0  0  0  0  0
  184.4060  178.2910  140.8690 C   0  0  0  0  0  1  0  0  0  0  0  0
  1  9  1  0  0  0  0
  3  7  1  0  0  0  0
  3 10  1  0  0  0  0
  4  7  2  0  0  0  0
  5  3  1  0  0  0  0
  6  4  1  0  0  0  0
  6  1  2  0  0  0  0
  7  2  1  0  0  0  0
  8 18  1  6  0  0  0
  8  5  1  0  0  0  0
  8  4  1  0  0  0  0
  9  2  2  0  0  0  0
 11 10  1  0  0  0  0
 12 13  1  0  0  0  0
 14 12  2  0  0  0  0
 15 17  2  0  0  0  0
 15 14  1  0  0  0  0
 16 11  1  0  0  0  0
 16 13  2  0  0  0  0
 17 16  1  0  0  0  0
 19 20  1  1  0  0  0
 19 18  1  0  0  0  0
 21 22  1  6  0  0  0
 21 19  1  0  0  0  0
 23 24  2  0  0  0  0
 24 21  1  0  0  0  0
 24 25  1  0  0  0  0
 26 25  1  0  0  0  0
M  END
>  <MODEL>
4

>  <REMARK>
 VINA RESULT:      -6.2      1.900      5.527
  Name = 
  8 active torsions:
  status: ('A' for Active; 'I' for Inactive)
    1  A    between atoms: O_2  and  C_17
    2  A    between atoms: C_7  and  C_15
    3  A    between atoms: C_7  and  C_24
    4  A    between atoms: C_8  and  C_12
    5  A    between atoms: C_8  and  C_17
    6  A    between atoms: N_10  and  C_15
    7  A    between atoms: C_12  and  N_21
    8  A    between atoms: N_21  and  C_22
                            x       y       z     vdW  Elec       q    Type
                         _______ _______ _______ _____ _____    ______ ____

>  <TORSDO>
F 8

$$$$
=
 OpenBabel11072408353D

 26 28  0  0  1  0  0  0  0  0999 V2000
  193.7870  175.5260  145.7910 N   0  0  0  0  0  0  0  0  0  0  0  0
  191.8600  176.2490  147.0420 C   0  0  0  0  0  3  0  0  0  0  0  0
  189.7620  174.9780  146.4390 N   0  0  0  0  0  0  0  0  0  0  0  0
  191.6950  174.4810  145.4390 C   0  0  0  0  0  0  0  0  0  0  0  0
  189.4340  173.9250  145.6250 O   0  0  0  0  0  0  0  0  0  0  0  0
  193.0470  174.5890  145.1250 C   0  0  0  0  0  3  0  0  0  0  0  0
  191.1350  175.2720  146.3610 C   0  0  0  0  0  0  0  0  0  0  0  0
  190.6170  173.6330  144.8740 C   0  0  1  0  0  3  0  0  0  0  0  0
  193.2280  176.3500  146.7310 C   0  0  0  0  0  3  0  0  0  0  0  0
  188.7950  176.0270  146.7370 C   0  0  0  0  0  2  0  0  0  0  0  0
  188.4110  176.7860  145.4740 C   0  0  0  0  0  2  0  0  0  0  0  0
  185.3960  179.0270  144.9510 C   0  0  0  0  0  3  0  0  0  0  0  0
  186.6860  178.4960  144.8470 C   0  0  0  0  0  3  0  0  0  0  0  0
  184.4540  178.4160  145.7840 C   0  0  0  0  0  3  0  0  0  0  0  0
  184.8000  177.2730  146.5100 C   0  0  0  0  0  3  0  0  0  0  0  0
  187.0330  177.3500  145.5740 C   0  0  0  0  0  0  0  0  0  0  0  0
  186.0880  176.7410  146.4060 C   0  0  0  0  0  3  0  0  0  0  0  0
  190.4000  173.9760  143.4780 N   0  0  0  0  0  2  0  0  0  0  0  0
  189.1150  173.4110  143.0910 C   0  0  2  0  0  3  0  0  0  0  0  0
  189.2510  172.0370  142.8860 O   0  0  0  0  0  1  0  0  0  0  0  0
  188.5900  174.0710  141.8190 C   0  0  2  0  0  3  0  0  0  0  0  0
  189.6050  174.2160  140.8700 O   0  0  0  0  0  1  0  0  0  0  0  0
  186.7840  175.4400  142.5900 O   0  0  0  0  0  0  0  0  0  0  0  0
  187.9520  175.3910  142.1120 C   0  0  0  0  0  0  0  0  0  0  0  0
  188.6590  176.5600  141.8340 O   0  0  0  0  0  0  0  0  0  0  0  0
  188.0020  177.7750  141.5080 C   0  0  0  0  0  1  0  0  0  0  0  0
  1  9  1  0  0  0  0
  3 10  1  0  0  0  0
  4  7  2  0  0  0  0
  5  3  1  0  0  0  0
  6  4  1  0  0  0  0
  6  1  2  0  0  0  0
  7  3  1  0  0  0  0
  7  2  1  0  0  0  0
  8 18  1  6  0  0  0
  8  4  1  0  0  0  0
  8  5  1  0  0  0  0
  9  2  2  0  0  0  0
 11 16  1  0  0  0  0
 11 10  1  0  0  0  0
 12 14  1  0  0  0  0
 13 12  2  0  0  0  0
 13 16  1  0  0  0  0
 14 15  2  0  0  0  0
 16 17  2  0  0  0  0
 17 15  1  0  0  0  0
 19 20  1  6  0  0  0
 19 18  1  0  0  0  0
 21 22  1  6  0  0  0
 21 24  1  0  0  0  0
 21 19  1  0  0  0  0
 24 23  2  0  0  0  0
 25 24  1  0  0  0  0
 26 25  1  0  0  0  0
M  END
>  <MODEL>
5

>  <REMARK>
 VINA RESULT:      -6.2      1.200      1.934
  Name = 
  8 active torsions:
  status: ('A' for Active; 'I' for Inactive)
    1  A    between atoms: O_2  and  C_17
    2  A    between atoms: C_7  and  C_15
    3  A    between atoms: C_7  and  C_24
    4  A    between atoms: C_8  and  C_12
    5  A    between atoms: C_8  and  C_17
    6  A    between atoms: N_10  and  C_15
    7  A    between atoms: C_12  and  N_21
    8  A    between atoms: N_21  and  C_22
                            x       y       z     vdW  Elec       q    Type
                         _______ _______ _______ _____ _____    ______ ____

>  <TORSDO>
F 8

$$$$
=
 OpenBabel11072408353D

 26 28  0  0  1  0  0  0  0  0999 V2000
  188.6680  174.9550  141.2430 N   0  0  0  0  0  0  0  0  0  0  0  0
  190.0550  174.9870  143.2110 C   0  0  0  0  0  3  0  0  0  0  0  0
  188.8800  175.9560  145.2270 N   0  0  0  0  0  0  0  0  0  0  0  0
  187.8020  175.7900  143.2780 C   0  0  0  0  0  0  0  0  0  0  0  0
  187.6220  176.4160  145.5220 O   0  0  0  0  0  0  0  0  0  0  0  0
  187.6220  175.5080  141.9280 C   0  0  0  0  0  3  0  0  0  0  0  0
  188.9640  175.5330  143.8890 C   0  0  0  0  0  0  0  0  0  0  0  0
  186.9150  176.4350  144.2780 C   0  0  1  0  0  3  0  0  0  0  0  0
  189.8680  174.6930  141.8490 C   0  0  0  0  0  3  0  0  0  0  0  0
  190.0520  176.4840  145.9130 C   0  0  0  0  0  2  0  0  0  0  0  0
  190.7280  175.4020  146.7450 C   0  0  0  0  0  2  0  0  0  0  0  0
  194.3820  176.3920  146.5130 C   0  0  0  0  0  3  0  0  0  0  0  0
  193.0080  176.4470  146.7720 C   0  0  0  0  0  3  0  0  0  0  0  0
  194.9420  175.2380  145.9570 C   0  0  0  0  0  3  0  0  0  0  0  0
  194.1300  174.1380  145.6640 C   0  0  0  0  0  3  0  0  0  0  0  0
  192.1950  175.3450  146.4800 C   0  0  0  0  0  0  0  0  0  0  0  0
  192.7580  174.1920  145.9230 C   0  0  0  0  0  3  0  0  0  0  0  0
  186.6540  177.8110  143.8900 N   0  0  0  0  0  2  0  0  0  0  0  0
  185.2170  177.9370  143.6910 C   0  0  2  0  0  3  0  0  0  0  0  0
  184.9530  178.1860  142.3430 O   0  0  0  0  0  1  0  0  0  0  0  0
  184.6440  179.0640  144.5440 C   0  0  2  0  0  3  0  0  0  0  0  0
  185.2760  180.2790  144.2650 O   0  0  0  0  0  1  0  0  0  0  0  0
  183.9540  177.8990  146.5170 O   0  0  0  0  0  0  0  0  0  0  0  0
  184.7350  178.7460  146.0010 C   0  0  0  0  0  0  0  0  0  0  0  0
  185.6810  179.4120  146.7800 O   0  0  0  0  0  0  0  0  0  0  0  0
  186.4040  178.7530  147.8090 C   0  0  0  0  0  1  0  0  0  0  0  0
  1  9  2  0  0  0  0
  1  6  1  0  0  0  0
  2  7  2  0  0  0  0
  3  5  1  0  0  0  0
  3 10  1  0  0  0  0
  4  7  1  0  0  0  0
  4  8  1  0  0  0  0
  6  4  2  0  0  0  0
  7  3  1  0  0  0  0
  8 18  1  6  0  0  0
  8  5  1  0  0  0  0
  9  2  1  0  0  0  0
 10 11  1  0  0  0  0
 12 13  1  0  0  0  0
 14 12  2  0  0  0  0
 15 17  2  0  0  0  0
 15 14  1  0  0  0  0
 16 11  1  0  0  0  0
 16 13  2  0  0  0  0
 17 16  1  0  0  0  0
 19 20  1  6  0  0  0
 19 18  1  0  0  0  0
 19 21  1  0  0  0  0
 21 22  1  1  0  0  0
 21 24  1  0  0  0  0
 24 23  2  0  0  0  0
 24 25  1  0  0  0  0
 25 26  1  0  0  0  0
M  END
>  <MODEL>
6

>  <REMARK>
 VINA RESULT:      -6.1      2.331      5.990
  Name = 
  8 active torsions:
  status: ('A' for Active; 'I' for Inactive)
    1  A    between atoms: O_2  and  C_17
    2  A    between atoms: C_7  and  C_15
    3  A    between atoms: C_7  and  C_24
    4  A    between atoms: C_8  and  C_12
    5  A    between atoms: C_8  and  C_17
    6  A    between atoms: N_10  and  C_15
    7  A    between atoms: C_12  and  N_21
    8  A    between atoms: N_21  and  C_22
                            x       y       z     vdW  Elec       q    Type
                         _______ _______ _______ _____ _____    ______ ____

>  <TORSDO>
F 8

$$$$
=
 OpenBabel11072408353D

 26 28  0  0  1  0  0  0  0  0999 V2000
  184.4560  178.2280  140.7900 N   0  0  0  0  0  0  0  0  0  0  0  0
  184.4500  178.2340  143.1990 C   0  0  0  0  0  3  0  0  0  0  0  0
  186.7640  178.0150  144.1880 N   0  0  0  0  0  0  0  0  0  0  0  0
  186.4970  178.0610  141.9710 C   0  0  0  0  0  0  0  0  0  0  0  0
  188.0500  177.9590  143.7140 O   0  0  0  0  0  0  0  0  0  0  0  0
  185.8170  178.1070  140.7580 C   0  0  0  0  0  3  0  0  0  0  0  0
  185.8400  178.1300  143.1350 C   0  0  0  0  0  0  0  0  0  0  0  0
  187.9340  177.8750  142.2900 C   0  0  1  0  0  3  0  0  0  0  0  0
  183.7650  178.2900  141.9720 C   0  0  0  0  0  3  0  0  0  0  0  0
  186.3930  177.3530  145.4320 C   0  0  0  0  0  2  0  0  0  0  0  0
  187.2290  177.8710  146.5940 C   0  0  0  0  0  2  0  0  0  0  0  0
  189.3230  174.7720  147.2250 C   0  0  0  0  0  3  0  0  0  0  0  0
  188.2250  175.5980  146.9620 C   0  0  0  0  0  3  0  0  0  0  0  0
  190.5930  175.3310  147.3940 C   0  0  0  0  0  3  0  0  0  0  0  0
  190.7670  176.7150  147.2970 C   0  0  0  0  0  3  0  0  0  0  0  0
  188.3990  176.9840  146.8640 C   0  0  0  0  0  0  0  0  0  0  0  0
  189.6710  177.5410  147.0330 C   0  0  0  0  0  3  0  0  0  0  0  0
  188.3720  176.5620  141.8450 N   0  0  0  0  0  2  0  0  0  0  0  0
  189.2750  176.0420  142.8620 C   0  0  2  0  0  3  0  0  0  0  0  0
  190.5900  176.1170  142.4010 O   0  0  0  0  0  1  0  0  0  0  0  0
  188.9330  174.5960  143.2080 C   0  0  2  0  0  3  0  0  0  0  0  0
  189.9740  173.9860  143.9120 O   0  0  0  0  0  1  0  0  0  0  0  0
  187.4690  173.2390  141.8870 O   0  0  0  0  0  0  0  0  0  0  0  0
  188.5920  173.8080  141.9850 C   0  0  0  0  0  0  0  0  0  0  0  0
  189.5380  173.6980  140.9670 O   0  0  0  0  0  0  0  0  0  0  0  0
  189.2590  173.0180  139.7530 C   0  0  0  0  0  1  0  0  0  0  0  0
  1  9  1  0  0  0  0
  3 10  1  0  0  0  0
  4  8  1  0  0  0  0
  4  7  2  0  0  0  0
  5  3  1  0  0  0  0
  6  1  2  0  0  0  0
  6  4  1  0  0  0  0
  7  2  1  0  0  0  0
  7  3  1  0  0  0  0
  8 18  1  1  0  0  0
  8  5  1  0  0  0  0
  9  2  2  0  0  0  0
 10 11  1  0  0  0  0
 11 16  1  0  0  0  0
 12 14  1  0  0  0  0
 13 12  2  0  0  0  0
 15 14  2  0  0  0  0
 16 13  1  0  0  0  0
 16 17  2  0  0  0  0
 17 15  1  0  0  0  0
 18 19  1  0  0  0  0
 19 20  1  6  0  0  0
 19 21  1  0  0  0  0
 21 22  1  6  0  0  0
 23 24  2  0  0  0  0
 24 21  1  0  0  0  0
 25 24  1  0  0  0  0
 26 25  1  0  0  0  0
M  END
>  <MODEL>
7

>  <REMARK>
 VINA RESULT:      -5.9      2.373      5.455
  Name = 
  8 active torsions:
  status: ('A' for Active; 'I' for Inactive)
    1  A    between atoms: O_2  and  C_17
    2  A    between atoms: C_7  and  C_15
    3  A    between atoms: C_7  and  C_24
    4  A    between atoms: C_8  and  C_12
    5  A    between atoms: C_8  and  C_17
    6  A    between atoms: N_10  and  C_15
    7  A    between atoms: C_12  and  N_21
    8  A    between atoms: N_21  and  C_22
                            x       y       z     vdW  Elec       q    Type
                         _______ _______ _______ _____ _____    ______ ____

>  <TORSDO>
F 8

$$$$
=
 OpenBabel11072408353D

 26 28  0  0  1  0  0  0  0  0999 V2000
  183.6960  179.0390  145.3710 N   0  0  0  0  0  0  0  0  0  0  0  0
  185.4100  178.1340  146.8020 C   0  0  0  0  0  3  0  0  0  0  0  0
  187.5650  177.6550  145.5740 N   0  0  0  0  0  0  0  0  0  0  0  0
  185.8240  178.5240  144.4780 C   0  0  0  0  0  0  0  0  0  0  0  0
  188.0500  177.8360  144.3040 O   0  0  0  0  0  0  0  0  0  0  0  0
  184.5290  178.9970  144.2880 C   0  0  0  0  0  3  0  0  0  0  0  0
  186.2420  178.1210  145.6830 C   0  0  0  0  0  0  0  0  0  0  0  0
  186.9390  178.2920  143.5270 C   0  0  1  0  0  3  0  0  0  0  0  0
  184.1040  178.6210  146.6110 C   0  0  0  0  0  3  0  0  0  0  0  0
  188.0360  176.5570  146.4080 C   0  0  0  0  0  2  0  0  0  0  0  0
  188.7630  175.5130  145.5730 C   0  0  0  0  0  2  0  0  0  0  0  0
  192.3900  174.4110  145.6870 C   0  0  0  0  0  3  0  0  0  0  0  0
  191.0290  174.4570  145.3680 C   0  0  0  0  0  3  0  0  0  0  0  0
  192.9400  175.3710  146.5430 C   0  0  0  0  0  3  0  0  0  0  0  0
  192.1300  176.3770  147.0770 C   0  0  0  0  0  3  0  0  0  0  0  0
  190.2180  175.4660  145.9020 C   0  0  0  0  0  0  0  0  0  0  0  0
  190.7700  176.4240  146.7580 C   0  0  0  0  0  3  0  0  0  0  0  0
  186.5640  177.2640  142.5690 N   0  0  0  0  0  2  0  0  0  0  0  0
  187.7070  177.0560  141.6920 C   0  0  2  0  0  3  0  0  0  0  0  0
  187.4380  177.6040  140.4360 O   0  0  0  0  0  1  0  0  0  0  0  0
  188.0210  175.5700  141.5480 C   0  0  2  0  0  3  0  0  0  0  0  0
  187.2330  174.8020  142.4090 O   0  0  0  0  0  1  0  0  0  0  0  0
  190.1830  176.1180  142.4160 O   0  0  0  0  0  0  0  0  0  0  0  0
  189.4720  175.2940  141.7760 C   0  0  0  0  0  0  0  0  0  0  0  0
  190.0260  174.1240  141.2580 O   0  0  0  0  0  0  0  0  0  0  0  0
  190.1350  172.9390  142.0300 C   0  0  0  0  0  1  0  0  0  0  0  0
  1  9  1  0  0  0  0
  3  7  1  0  0  0  0
  3 10  1  0  0  0  0
  4  7  2  0  0  0  0
  5  3  1  0  0  0  0
  6  4  1  0  0  0  0
  6  1  2  0  0  0  0
  7  2  1  0  0  0  0
  8 18  1  6  0  0  0
  8  5  1  0  0  0  0
  8  4  1  0  0  0  0
  9  2  2  0  0  0  0
 11 16  1  0  0  0  0
 11 10  1  0  0  0  0
 12 14  1  0  0  0  0
 13 12  2  0  0  0  0
 13 16  1  0  0  0  0
 14 15  2  0  0  0  0
 16 17  2  0  0  0  0
 17 15  1  0  0  0  0
 19 20  1  6  0  0  0
 19 18  1  0  0  0  0
 21 19  1  0  0  0  0
 21 24  1  0  0  0  0
 21 22  1  1  0  0  0
 24 23  2  0  0  0  0
 25 24  1  0  0  0  0
 25 26  1  0  0  0  0
M  END
>  <MODEL>
8

>  <REMARK>
 VINA RESULT:      -5.9      2.077      5.822
  Name = 
  8 active torsions:
  status: ('A' for Active; 'I' for Inactive)
    1  A    between atoms: O_2  and  C_17
    2  A    between atoms: C_7  and  C_15
    3  A    between atoms: C_7  and  C_24
    4  A    between atoms: C_8  and  C_12
    5  A    between atoms: C_8  and  C_17
    6  A    between atoms: N_10  and  C_15
    7  A    between atoms: C_12  and  N_21
    8  A    between atoms: N_21  and  C_22
                            x       y       z     vdW  Elec       q    Type
                         _______ _______ _______ _____ _____    ______ ____

>  <TORSDO>
F 8

$$$$
=
 OpenBabel11072408353D

 26 28  0  0  1  0  0  0  0  0999 V2000
  189.7920  173.2980  142.1980 N   0  0  0  0  0  0  0  0  0  0  0  0
  188.0510  174.7280  141.3470 C   0  0  0  0  0  3  0  0  0  0  0  0
  188.3990  177.1590  141.9400 N   0  0  0  0  0  0  0  0  0  0  0  0
  189.8880  175.6270  142.5900 C   0  0  0  0  0  0  0  0  0  0  0  0
  189.3620  177.9030  142.5710 O   0  0  0  0  0  0  0  0  0  0  0  0
  190.4440  174.3620  142.7550 C   0  0  0  0  0  3  0  0  0  0  0  0
  188.7480  175.7970  141.9100 C   0  0  0  0  0  0  0  0  0  0  0  0
  190.2940  176.9580  143.1050 C   0  0  1  0  0  3  0  0  0  0  0  0
  188.6200  173.4510  141.5070 C   0  0  0  0  0  3  0  0  0  0  0  0
  186.9990  177.5640  141.9670 C   0  0  0  0  0  2  0  0  0  0  0  0
  186.7960  178.7570  142.8920 C   0  0  0  0  0  2  0  0  0  0  0  0
  185.6250  176.8340  145.9450 C   0  0  0  0  0  3  0  0  0  0  0  0
  186.3480  177.1940  144.8030 C   0  0  0  0  0  3  0  0  0  0  0  0
  184.5870  177.6530  146.4010 C   0  0  0  0  0  3  0  0  0  0  0  0
  184.2740  178.8310  145.7170 C   0  0  0  0  0  3  0  0  0  0  0  0
  186.0350  178.3740  144.1170 C   0  0  0  0  0  0  0  0  0  0  0  0
  184.9960  179.1910  144.5760 C   0  0  0  0  0  3  0  0  0  0  0  0
  190.2150  176.9690  144.5570 N   0  0  0  0  0  2  0  0  0  0  0  0
  191.5710  177.1320  145.0600 C   0  0  2  0  0  3  0  0  0  0  0  0
  192.4770  177.0360  144.0030 O   0  0  0  0  0  1  0  0  0  0  0  0
  191.8940  176.0750  146.1110 C   0  0  2  0  0  3  0  0  0  0  0  0
  191.2030  176.3190  147.3010 O   0  0  0  0  0  1  0  0  0  0  0  0
  193.9770  176.9580  146.8920 O   0  0  0  0  0  0  0  0  0  0  0  0
  193.3640  175.9880  146.3660 C   0  0  0  0  0  0  0  0  0  0  0  0
  194.0470  174.8300  145.9960 O   0  0  0  0  0  0  0  0  0  0  0  0
  193.3770  173.7100  145.4380 C   0  0  0  0  0  1  0  0  0  0  0  0
  1  6  1  0  0  0  0
  2  9  1  0  0  0  0
  2  7  2  0  0  0  0
  3 10  1  0  0  0  0
  3  5  1  0  0  0  0
  4  6  2  0  0  0  0
  4  8  1  0  0  0  0
  5  8  1  0  0  0  0
  7  3  1  0  0  0  0
  7  4  1  0  0  0  0
  8 18  1  1  0  0  0
  9  1  2  0  0  0  0
 10 11  1  0  0  0  0
 11 16  1  0  0  0  0
 12 14  1  0  0  0  0
 13 12  2  0  0  0  0
 15 14  2  0  0  0  0
 16 17  2  0  0  0  0
 16 13  1  0  0  0  0
 17 15  1  0  0  0  0
 18 19  1  0  0  0  0
 19 20  1  6  0  0  0
 19 21  1  0  0  0  0
 21 24  1  0  0  0  0
 21 22  1  1  0  0  0
 24 23  2  0  0  0  0
 25 24  1  0  0  0  0
 26 25  1  0  0  0  0
M  END
>  <MODEL>
9

>  <REMARK>
 VINA RESULT:      -5.9      2.333      5.204
  Name = 
  8 active torsions:
  status: ('A' for Active; 'I' for Inactive)
    1  A    between atoms: O_2  and  C_17
    2  A    between atoms: C_7  and  C_15
    3  A    between atoms: C_7  and  C_24
    4  A    between atoms: C_8  and  C_12
    5  A    between atoms: C_8  and  C_17
    6  A    between atoms: N_10  and  C_15
    7  A    between atoms: C_12  and  N_21
    8  A    between atoms: N_21  and  C_22
                            x       y       z     vdW  Elec       q    Type
                         _______ _______ _______ _____ _____    ______ ____

>  <TORSDO>
F 8

$$$$
