=
 OpenBabel11062422073D

 27 29  0  0  1  0  0  0  0  0999 V2000
  186.7430  177.7840  143.9580 C   0  0  0  0  0  0  0  0  0  0  0  0
  188.9800  176.5330  146.4640 O   0  0  0  0  0  0  0  0  0  0  0  0
  186.5610  177.7190  146.5970 S   0  0  0  0  0  0  0  0  0  0  0  0
  186.3960  178.0490  142.5120 C   0  0  0  0  0  2  0  0  0  0  0  0
  188.0760  177.3250  144.4290 C   0  0  1  0  0  3  0  0  0  0  0  0
  189.2260  176.8710  142.3860 O   0  0  0  0  0  1  0  0  0  0  0  0
  187.7820  176.6690  145.7580 C   0  0  1  0  0  3  0  0  0  0  0  0
  184.5220  178.4440  144.6920 C   0  0  0  0  0  0  0  0  0  0  0  0
  189.9860  175.7010  144.3430 C   0  0  2  0  0  3  0  0  0  0  0  0
  189.6710  175.4570  145.8560 C   0  0  1  0  0  3  0  0  0  0  0  0
  185.9060  178.0390  144.9580 C   0  0  0  0  0  0  0  0  0  0  0  0
  184.9390  178.3930  142.2880 C   0  0  0  0  0  0  0  0  0  0  0  0
  183.7170  178.6550  145.6360 O   0  0  0  0  0  0  0  0  0  0  0  0
  188.7800  176.2850  143.5730 C   0  0  1  0  0  3  0  0  0  0  0  0
  184.3650  178.5880  140.6460 Cl  0  0  0  0  0  0  0  0  0  0  0  0
  184.0850  178.5920  143.2980 C   0  0  0  0  0  3  0  0  0  0  0  0
  190.4860  174.4410  143.6130 C   0  0  1  0  0  3  0  0  0  0  0  0
  191.8670  174.2750  143.7450 O   0  0  0  0  0  1  0  0  0  0  0  0
  190.6240  172.0570  144.4840 C   0  0  0  0  0  1  0  0  0  0  0  0
  189.7180  173.1600  143.9610 C   0  0  0  0  0  3  0  0  0  0  0  0
  188.9680  172.6600  142.7430 C   0  0  0  0  0  1  0  0  0  0  0  0
  190.9310  175.1360  146.6650 C   0  0  0  0  0  2  0  0  0  0  0  0
  191.7720  176.3770  146.9760 C   0  0  0  0  0  3  0  0  0  0  0  0
  191.7000  176.7150  148.4340 C   0  0  0  0  0  3  0  0  0  0  0  0
  191.2230  177.7730  148.8140 O   0  0  0  0  0  0  0  0  0  0  0  0
  193.1930  176.2320  146.5160 C   0  0  0  0  0  3  0  0  0  0  0  0
  194.0540  177.0240  146.8680 O   0  0  0  0  0  0  0  0  0  0  0  0
  1 11  2  0  0  0  0
  4  1  1  0  0  0  0
  5  1  1  6  0  0  0
  5  7  1  0  0  0  0
  7  2  1  1  0  0  0
  7  3  1  0  0  0  0
  8 11  1  0  0  0  0
  8 13  2  0  0  0  0
  9 17  1  6  0  0  0
  9 10  1  0  0  0  0
 10  2  1  0  0  0  0
 10 22  1  1  0  0  0
 11  3  1  0  0  0  0
 12  4  1  0  0  0  0
 12 16  2  0  0  0  0
 14  6  1  6  0  0  0
 14  9  1  0  0  0  0
 14  5  1  0  0  0  0
 15 12  1  0  0  0  0
 16  8  1  0  0  0  0
 17 18  1  1  0  0  0
 17 20  1  0  0  0  0
 20 19  1  0  0  0  0
 21 20  1  0  0  0  0
 22 23  1  0  0  0  0
 23 24  1  0  0  0  0
 24 25  2  0  0  0  0
 26 27  2  0  0  0  0
 26 23  1  0  0  0  0
M  END
>  <MODEL>
1

>  <REMARK>
 VINA RESULT:      -6.8      0.000      0.000
  Name = 
  6 active torsions:
  status: ('A' for Active; 'I' for Inactive)
    1  A    between atoms: C_3  and  C_22
    2  A    between atoms: C_4  and  C_22
    3  A    between atoms: C_10  and  C_16
    4  A    between atoms: C_10  and  C_18
    5  A    between atoms: C_17  and  C_24
    6  A    between atoms: C_22  and  C_24
                            x       y       z     vdW  Elec       q    Type
                         _______ _______ _______ _____ _____    ______ ____

>  <TORSDO>
F 6

$$$$
=
 OpenBabel11062422073D

 27 29  0  0  1  0  0  0  0  0999 V2000
  186.6280  177.8330  144.2590 C   0  0  0  0  0  0  0  0  0  0  0  0
  188.7290  176.7940  146.9710 O   0  0  0  0  0  0  0  0  0  0  0  0
  186.3440  178.0490  146.8810 S   0  0  0  0  0  0  0  0  0  0  0  0
  186.3440  177.9540  142.7800 C   0  0  0  0  0  2  0  0  0  0  0  0
  187.9280  177.3920  144.8290 C   0  0  1  0  0  3  0  0  0  0  0  0
  189.1400  176.6950  142.8930 O   0  0  0  0  0  1  0  0  0  0  0  0
  187.5640  176.8860  146.2060 C   0  0  1  0  0  3  0  0  0  0  0  0
  184.4010  178.6250  144.8290 C   0  0  0  0  0  0  0  0  0  0  0  0
  189.7890  175.7180  144.9900 C   0  0  2  0  0  3  0  0  0  0  0  0
  189.4100  175.6420  146.5070 C   0  0  1  0  0  3  0  0  0  0  0  0
  185.7620  178.2130  145.1920 C   0  0  0  0  0  0  0  0  0  0  0  0
  184.9090  178.3100  142.4620 C   0  0  0  0  0  0  0  0  0  0  0  0
  183.5680  178.9540  145.7120 O   0  0  0  0  0  0  0  0  0  0  0  0
  188.6320  176.2490  144.1150 C   0  0  1  0  0  3  0  0  0  0  0  0
  184.4030  178.3470  140.7870 Cl  0  0  0  0  0  0  0  0  0  0  0  0
  184.0230  178.6370  143.4100 C   0  0  0  0  0  3  0  0  0  0  0  0
  190.2790  174.3760  144.4160 C   0  0  1  0  0  3  0  0  0  0  0  0
  189.3070  173.7630  143.6210 O   0  0  0  0  0  1  0  0  0  0  0  0
  191.5420  174.1480  142.2220 C   0  0  0  0  0  1  0  0  0  0  0  0
  191.6390  174.4460  143.7100 C   0  0  0  0  0  3  0  0  0  0  0  0
  192.6080  173.4760  144.3560 C   0  0  0  0  0  1  0  0  0  0  0  0
  190.6280  175.3750  147.3950 C   0  0  0  0  0  2  0  0  0  0  0  0
  191.5980  176.5570  147.4480 C   0  0  0  0  0  3  0  0  0  0  0  0
  191.7390  177.0660  148.8510 C   0  0  0  0  0  3  0  0  0  0  0  0
  191.2410  178.1280  149.1900 O   0  0  0  0  0  0  0  0  0  0  0  0
  192.9330  176.2260  146.8480 C   0  0  0  0  0  3  0  0  0  0  0  0
  193.3160  176.7680  145.8220 O   0  0  0  0  0  0  0  0  0  0  0  0
  1 11  2  0  0  0  0
  4  1  1  0  0  0  0
  5  1  1  6  0  0  0
  5  7  1  0  0  0  0
  7  3  1  1  0  0  0
  7  2  1  0  0  0  0
  8 11  1  0  0  0  0
  8 13  2  0  0  0  0
  9 17  1  6  0  0  0
  9 10  1  0  0  0  0
 10  2  1  0  0  0  0
 10 22  1  1  0  0  0
 11  3  1  0  0  0  0
 12  4  1  0  0  0  0
 12 16  2  0  0  0  0
 14  6  1  6  0  0  0
 14  5  1  0  0  0  0
 14  9  1  0  0  0  0
 15 12  1  0  0  0  0
 16  8  1  0  0  0  0
 17 18  1  6  0  0  0
 19 20  1  0  0  0  0
 20 21  1  0  0  0  0
 20 17  1  0  0  0  0
 22 23  1  0  0  0  0
 23 24  1  0  0  0  0
 24 25  2  0  0  0  0
 26 23  1  0  0  0  0
 27 26  2  0  0  0  0
M  END
>  <MODEL>
2

>  <REMARK>
 VINA RESULT:      -6.7      1.040      1.313
  Name = 
  6 active torsions:
  status: ('A' for Active; 'I' for Inactive)
    1  A    between atoms: C_3  and  C_22
    2  A    between atoms: C_4  and  C_22
    3  A    between atoms: C_10  and  C_16
    4  A    between atoms: C_10  and  C_18
    5  A    between atoms: C_17  and  C_24
    6  A    between atoms: C_22  and  C_24
                            x       y       z     vdW  Elec       q    Type
                         _______ _______ _______ _____ _____    ______ ____

>  <TORSDO>
F 6

$$$$
=
 OpenBabel11062422073D

 27 29  0  0  1  0  0  0  0  0999 V2000
  186.6070  176.8560  143.5260 C   0  0  0  0  0  0  0  0  0  0  0  0
  189.4840  175.4730  141.8970 O   0  0  0  0  0  0  0  0  0  0  0  0
  187.2330  176.6270  140.9650 S   0  0  0  0  0  0  0  0  0  0  0  0
  185.8340  177.1930  144.7790 C   0  0  0  0  0  2  0  0  0  0  0  0
  187.8330  176.0180  143.4980 C   0  0  1  0  0  3  0  0  0  0  0  0
  188.3110  175.7120  145.8180 O   0  0  0  0  0  1  0  0  0  0  0  0
  188.5280  176.4370  142.2230 C   0  0  1  0  0  3  0  0  0  0  0  0
  185.0340  178.0800  142.1340 C   0  0  0  0  0  0  0  0  0  0  0  0
  190.1600  175.5190  144.2940 C   0  0  2  0  0  3  0  0  0  0  0  0
  190.5640  175.6760  142.7910 C   0  0  1  0  0  3  0  0  0  0  0  0
  186.1940  177.2010  142.3100 C   0  0  0  0  0  0  0  0  0  0  0  0
  184.6920  178.1590  144.5490 C   0  0  0  0  0  0  0  0  0  0  0  0
  184.6600  178.4360  140.9860 O   0  0  0  0  0  0  0  0  0  0  0  0
  188.8280  176.2290  144.6280 C   0  0  1  0  0  3  0  0  0  0  0  0
  183.7970  178.7470  145.9340 Cl  0  0  0  0  0  0  0  0  0  0  0  0
  184.3160  178.5500  143.3260 C   0  0  0  0  0  3  0  0  0  0  0  0
  191.2460  176.0020  145.2720 C   0  0  1  0  0  3  0  0  0  0  0  0
  190.9310  177.2420  145.8320 O   0  0  0  0  0  1  0  0  0  0  0  0
  191.3180  175.4410  147.7500 C   0  0  0  0  0  1  0  0  0  0  0  0
  191.6400  174.9740  146.3400 C   0  0  0  0  0  3  0  0  0  0  0  0
  193.1210  174.6640  146.2380 C   0  0  0  0  0  1  0  0  0  0  0  0
  191.7280  174.7590  142.4050 C   0  0  0  0  0  2  0  0  0  0  0  0
  191.3360  173.2800  142.3770 C   0  0  0  0  0  3  0  0  0  0  0  0
  191.5320  172.7050  141.0060 C   0  0  0  0  0  3  0  0  0  0  0  0
  190.6910  172.8540  140.1340 O   0  0  0  0  0  0  0  0  0  0  0  0
  192.0630  172.4780  143.4160 C   0  0  0  0  0  3  0  0  0  0  0  0
  191.4720  172.0050  144.3760 O   0  0  0  0  0  0  0  0  0  0  0  0
  1  4  1  0  0  0  0
  2  7  1  0  0  0  0
  2 10  1  0  0  0  0
  3 11  1  0  0  0  0
  5  1  1  1  0  0  0
  5 14  1  0  0  0  0
  7  3  1  6  0  0  0
  7  5  1  0  0  0  0
  8 11  1  0  0  0  0
  8 16  1  0  0  0  0
  9 14  1  0  0  0  0
  9 17  1  1  0  0  0
 10 22  1  6  0  0  0
 10  9  1  0  0  0  0
 11  1  2  0  0  0  0
 12  4  1  0  0  0  0
 12 15  1  0  0  0  0
 13  8  2  0  0  0  0
 14  6  1  1  0  0  0
 16 12  2  0  0  0  0
 17 18  1  1  0  0  0
 17 20  1  0  0  0  0
 20 19  1  0  0  0  0
 21 20  1  0  0  0  0
 23 22  1  0  0  0  0
 23 26  1  0  0  0  0
 24 23  1  0  0  0  0
 25 24  2  0  0  0  0
 26 27  2  0  0  0  0
M  END
>  <MODEL>
3

>  <REMARK>
 VINA RESULT:      -6.5      2.364      4.503
  Name = 
  6 active torsions:
  status: ('A' for Active; 'I' for Inactive)
    1  A    between atoms: C_3  and  C_22
    2  A    between atoms: C_4  and  C_22
    3  A    between atoms: C_10  and  C_16
    4  A    between atoms: C_10  and  C_18
    5  A    between atoms: C_17  and  C_24
    6  A    between atoms: C_22  and  C_24
                            x       y       z     vdW  Elec       q    Type
                         _______ _______ _______ _____ _____    ______ ____

>  <TORSDO>
F 6

$$$$
=
 OpenBabel11062422073D

 27 29  0  0  1  0  0  0  0  0999 V2000
  186.9020  177.5300  144.4660 C   0  0  0  0  0  0  0  0  0  0  0  0
  189.8910  176.2820  146.0000 O   0  0  0  0  0  0  0  0  0  0  0  0
  187.7500  177.6040  146.9710 S   0  0  0  0  0  0  0  0  0  0  0  0
  186.0320  177.7420  143.2490 C   0  0  0  0  0  2  0  0  0  0  0  0
  188.2980  177.0220  144.4190 C   0  0  1  0  0  3  0  0  0  0  0  0
  188.5550  176.4050  142.1260 O   0  0  0  0  0  1  0  0  0  0  0  0
  188.5190  176.4490  145.8000 C   0  0  1  0  0  3  0  0  0  0  0  0
  185.1580  178.3470  145.9500 C   0  0  0  0  0  0  0  0  0  0  0  0
  189.9740  175.2930  143.7160 C   0  0  2  0  0  3  0  0  0  0  0  0
  190.2600  175.1410  145.2470 C   0  0  1  0  0  3  0  0  0  0  0  0
  186.5240  177.8790  145.6910 C   0  0  0  0  0  0  0  0  0  0  0  0
  184.6140  178.1550  143.5780 C   0  0  0  0  0  0  0  0  0  0  0  0
  184.7870  178.6470  147.1140 O   0  0  0  0  0  0  0  0  0  0  0  0
  188.5840  175.9040  143.4300 C   0  0  1  0  0  3  0  0  0  0  0  0
  183.4570  178.3000  142.2730 Cl  0  0  0  0  0  0  0  0  0  0  0  0
  184.2220  178.4500  144.8230 C   0  0  0  0  0  3  0  0  0  0  0  0
  190.1130  173.9730  142.9350 C   0  0  1  0  0  3  0  0  0  0  0  0
  188.8710  173.3920  142.6670 O   0  0  0  0  0  1  0  0  0  0  0  0
  190.2610  173.6030  140.4250 C   0  0  0  0  0  1  0  0  0  0  0  0
  190.9860  174.0700  141.6770 C   0  0  0  0  0  3  0  0  0  0  0  0
  192.2500  173.2550  141.8610 C   0  0  0  0  0  1  0  0  0  0  0  0
  191.7230  174.7910  145.5300 C   0  0  0  0  0  2  0  0  0  0  0  0
  192.6620  175.9910  145.3840 C   0  0  0  0  0  3  0  0  0  0  0  0
  193.4050  176.2430  146.6610 C   0  0  0  0  0  3  0  0  0  0  0  0
  194.2950  177.0780  146.7190 O   0  0  0  0  0  0  0  0  0  0  0  0
  193.6010  175.8420  144.2230 C   0  0  0  0  0  3  0  0  0  0  0  0
  193.3600  176.3640  143.1450 O   0  0  0  0  0  0  0  0  0  0  0  0
  1 11  2  0  0  0  0
  4 12  1  0  0  0  0
  4  1  1  0  0  0  0
  5  1  1  1  0  0  0
  5  7  1  0  0  0  0
  7  2  1  1  0  0  0
  7  3  1  0  0  0  0
  8 13  2  0  0  0  0
  9 17  1  6  0  0  0
  9 10  1  0  0  0  0
 10 22  1  6  0  0  0
 10  2  1  0  0  0  0
 11  8  1  0  0  0  0
 11  3  1  0  0  0  0
 12 16  2  0  0  0  0
 14  6  1  6  0  0  0
 14  9  1  0  0  0  0
 14  5  1  0  0  0  0
 15 12  1  0  0  0  0
 16  8  1  0  0  0  0
 17 18  1  6  0  0  0
 19 20  1  0  0  0  0
 20 21  1  0  0  0  0
 20 17  1  0  0  0  0
 23 22  1  0  0  0  0
 23 24  1  0  0  0  0
 24 25  2  0  0  0  0
 26 23  1  0  0  0  0
 27 26  2  0  0  0  0
M  END
>  <MODEL>
4

>  <REMARK>
 VINA RESULT:      -6.4      1.548      2.087
  Name = 
  6 active torsions:
  status: ('A' for Active; 'I' for Inactive)
    1  A    between atoms: C_3  and  C_22
    2  A    between atoms: C_4  and  C_22
    3  A    between atoms: C_10  and  C_16
    4  A    between atoms: C_10  and  C_18
    5  A    between atoms: C_17  and  C_24
    6  A    between atoms: C_22  and  C_24
                            x       y       z     vdW  Elec       q    Type
                         _______ _______ _______ _____ _____    ______ ____

>  <TORSDO>
F 6

$$$$
=
 OpenBabel11062422073D

 27 29  0  0  1  0  0  0  0  0999 V2000
  186.9510  177.6010  144.5750 C   0  0  0  0  0  0  0  0  0  0  0  0
  190.0240  176.2830  145.8660 O   0  0  0  0  0  0  0  0  0  0  0  0
  187.8910  177.4390  147.0430 S   0  0  0  0  0  0  0  0  0  0  0  0
  186.0320  177.9140  143.4180 C   0  0  0  0  0  2  0  0  0  0  0  0
  188.3560  177.1390  144.4270 C   0  0  1  0  0  3  0  0  0  0  0  0
  188.5420  176.7690  142.0750 O   0  0  0  0  0  1  0  0  0  0  0  0
  188.6420  176.4320  145.7320 C   0  0  1  0  0  3  0  0  0  0  0  0
  185.2460  178.2120  146.1960 C   0  0  0  0  0  0  0  0  0  0  0  0
  190.0440  175.5370  143.4890 C   0  0  2  0  0  3  0  0  0  0  0  0
  190.3910  175.2360  144.9850 C   0  0  1  0  0  3  0  0  0  0  0  0
  186.6120  177.8120  145.8420 C   0  0  0  0  0  0  0  0  0  0  0  0
  184.6180  178.2520  143.8380 C   0  0  0  0  0  0  0  0  0  0  0  0
  184.9110  178.3810  147.3970 O   0  0  0  0  0  0  0  0  0  0  0  0
  188.6310  176.1370  143.3170 C   0  0  1  0  0  3  0  0  0  0  0  0
  183.4100  178.5000  142.5950 Cl  0  0  0  0  0  0  0  0  0  0  0  0
  184.2660  178.4060  145.1190 C   0  0  0  0  0  3  0  0  0  0  0  0
  190.1850  174.3100  142.5710 C   0  0  1  0  0  3  0  0  0  0  0  0
  191.4820  174.1820  142.0660 O   0  0  0  0  0  1  0  0  0  0  0  0
  190.7490  171.9250  143.2450 C   0  0  0  0  0  1  0  0  0  0  0  0
  189.6750  172.9990  143.1830 C   0  0  0  0  0  3  0  0  0  0  0  0
  188.4920  172.4840  142.3870 C   0  0  0  0  0  1  0  0  0  0  0  0
  191.8720  174.8990  145.1790 C   0  0  0  0  0  2  0  0  0  0  0  0
  192.7610  176.1420  145.2560 C   0  0  0  0  0  3  0  0  0  0  0  0
  193.5170  176.1760  146.5500 C   0  0  0  0  0  3  0  0  0  0  0  0
  194.1820  177.1490  146.8670 O   0  0  0  0  0  0  0  0  0  0  0  0
  193.6850  176.2550  144.0790 C   0  0  0  0  0  3  0  0  0  0  0  0
  194.7240  175.6140  144.0280 O   0  0  0  0  0  0  0  0  0  0  0  0
  1 11  2  0  0  0  0
  4 12  1  0  0  0  0
  4  1  1  0  0  0  0
  5  1  1  1  0  0  0
  5  7  1  0  0  0  0
  7  2  1  1  0  0  0
  7  3  1  0  0  0  0
  8 13  2  0  0  0  0
  9 17  1  6  0  0  0
  9 10  1  0  0  0  0
 10 22  1  6  0  0  0
 10  2  1  0  0  0  0
 11  8  1  0  0  0  0
 11  3  1  0  0  0  0
 12 16  2  0  0  0  0
 14  6  1  6  0  0  0
 14  9  1  0  0  0  0
 14  5  1  0  0  0  0
 15 12  1  0  0  0  0
 16  8  1  0  0  0  0
 17 18  1  1  0  0  0
 17 20  1  0  0  0  0
 20 19  1  0  0  0  0
 21 20  1  0  0  0  0
 22 23  1  0  0  0  0
 23 24  1  0  0  0  0
 24 25  2  0  0  0  0
 26 23  1  0  0  0  0
 27 26  2  0  0  0  0
M  END
>  <MODEL>
5

>  <REMARK>
 VINA RESULT:      -6.4      1.434      1.707
  Name = 
  6 active torsions:
  status: ('A' for Active; 'I' for Inactive)
    1  A    between atoms: C_3  and  C_22
    2  A    between atoms: C_4  and  C_22
    3  A    between atoms: C_10  and  C_16
    4  A    between atoms: C_10  and  C_18
    5  A    between atoms: C_17  and  C_24
    6  A    between atoms: C_22  and  C_24
                            x       y       z     vdW  Elec       q    Type
                         _______ _______ _______ _____ _____    ______ ____

>  <TORSDO>
F 6

$$$$
=
 OpenBabel11062422073D

 27 29  0  0  1  0  0  0  0  0999 V2000
  187.1690  177.0560  145.4350 C   0  0  0  0  0  0  0  0  0  0  0  0
  188.2160  175.2140  142.5440 O   0  0  0  0  0  0  0  0  0  0  0  0
  185.9540  176.5560  143.1380 S   0  0  0  0  0  0  0  0  0  0  0  0
  187.4200  177.5790  146.8290 C   0  0  0  0  0  2  0  0  0  0  0  0
  188.0420  176.0760  144.7380 C   0  0  1  0  0  3  0  0  0  0  0  0
  189.9100  175.8940  146.2150 O   0  0  0  0  0  1  0  0  0  0  0  0
  187.7470  176.3080  143.2740 C   0  0  1  0  0  3  0  0  0  0  0  0
  185.1200  178.3490  145.2360 C   0  0  0  0  0  0  0  0  0  0  0  0
  190.2980  175.3630  143.9030 C   0  0  2  0  0  3  0  0  0  0  0  0
  189.6250  175.3540  142.4910 C   0  0  1  0  0  3  0  0  0  0  0  0
  186.0760  177.3530  144.7410 C   0  0  0  0  0  0  0  0  0  0  0  0
  186.4480  178.6550  147.2610 C   0  0  0  0  0  0  0  0  0  0  0  0
  184.1000  178.6570  144.5660 O   0  0  0  0  0  0  0  0  0  0  0  0
  189.5420  176.2520  144.9160 C   0  0  1  0  0  3  0  0  0  0  0  0
  186.7050  179.4510  148.7990 Cl  0  0  0  0  0  0  0  0  0  0  0  0
  185.3790  178.9920  146.5310 C   0  0  0  0  0  3  0  0  0  0  0  0
  191.7780  175.7860  143.8710 C   0  0  1  0  0  3  0  0  0  0  0  0
  191.9620  177.0810  144.3600 O   0  0  0  0  0  1  0  0  0  0  0  0
  192.0800  173.4440  144.8110 C   0  0  0  0  0  1  0  0  0  0  0  0
  192.7380  174.7830  144.5240 C   0  0  0  0  0  3  0  0  0  0  0  0
  193.2900  175.3610  145.8120 C   0  0  0  0  0  1  0  0  0  0  0  0
  190.2120  174.2770  141.5760 C   0  0  0  0  0  2  0  0  0  0  0  0
  189.2760  173.0800  141.3870 C   0  0  0  0  0  3  0  0  0  0  0  0
  189.2680  172.6340  139.9550 C   0  0  0  0  0  3  0  0  0  0  0  0
  188.2210  172.3810  139.3800 O   0  0  0  0  0  0  0  0  0  0  0  0
  189.6060  171.9460  142.3120 C   0  0  0  0  0  3  0  0  0  0  0  0
  189.1170  171.8820  143.4300 O   0  0  0  0  0  0  0  0  0  0  0  0
  1  4  1  0  0  0  0
  3  7  1  0  0  0  0
  3 11  1  0  0  0  0
  4 12  1  0  0  0  0
  5 14  1  0  0  0  0
  5  1  1  1  0  0  0
  7  2  1  6  0  0  0
  7  5  1  0  0  0  0
  8 16  1  0  0  0  0
  9 17  1  6  0  0  0
  9 14  1  0  0  0  0
 10 22  1  6  0  0  0
 10  2  1  0  0  0  0
 10  9  1  0  0  0  0
 11  8  1  0  0  0  0
 11  1  2  0  0  0  0
 12 15  1  0  0  0  0
 13  8  2  0  0  0  0
 14  6  1  1  0  0  0
 16 12  2  0  0  0  0
 17 18  1  1  0  0  0
 17 20  1  0  0  0  0
 20 19  1  0  0  0  0
 20 21  1  0  0  0  0
 23 22  1  0  0  0  0
 23 26  1  0  0  0  0
 24 23  1  0  0  0  0
 25 24  2  0  0  0  0
 26 27  2  0  0  0  0
M  END
>  <MODEL>
6

>  <REMARK>
 VINA RESULT:      -6.3      2.688      5.014
  Name = 
  6 active torsions:
  status: ('A' for Active; 'I' for Inactive)
    1  A    between atoms: C_3  and  C_22
    2  A    between atoms: C_4  and  C_22
    3  A    between atoms: C_10  and  C_16
    4  A    between atoms: C_10  and  C_18
    5  A    between atoms: C_17  and  C_24
    6  A    between atoms: C_22  and  C_24
                            x       y       z     vdW  Elec       q    Type
                         _______ _______ _______ _____ _____    ______ ____

>  <TORSDO>
F 6

$$$$
=
 OpenBabel11062422073D

 27 29  0  0  1  0  0  0  0  0999 V2000
  187.6570  176.8140  144.7330 C   0  0  0  0  0  0  0  0  0  0  0  0
  190.4770  175.6020  142.8820 O   0  0  0  0  0  0  0  0  0  0  0  0
  188.4220  177.2230  142.2330 S   0  0  0  0  0  0  0  0  0  0  0  0
  186.8420  176.8830  146.0030 C   0  0  0  0  0  2  0  0  0  0  0  0
  188.7900  175.8770  144.5140 C   0  0  1  0  0  3  0  0  0  0  0  0
  189.0810  174.8940  146.6710 O   0  0  0  0  0  1  0  0  0  0  0  0
  189.6060  176.5450  143.4320 C   0  0  1  0  0  3  0  0  0  0  0  0
  186.3130  178.5480  143.6860 C   0  0  0  0  0  0  0  0  0  0  0  0
  190.9950  174.9110  145.2190 C   0  0  2  0  0  3  0  0  0  0  0  0
  191.5110  175.4250  143.8340 C   0  0  1  0  0  3  0  0  0  0  0  0
  187.3630  177.5240  143.6490 C   0  0  0  0  0  0  0  0  0  0  0  0
  185.8230  178.0020  146.0130 C   0  0  0  0  0  0  0  0  0  0  0  0
  186.0530  179.2450  142.6700 O   0  0  0  0  0  0  0  0  0  0  0  0
  189.7250  175.6530  145.6920 C   0  0  1  0  0  3  0  0  0  0  0  0
  184.9050  178.2870  147.4760 Cl  0  0  0  0  0  0  0  0  0  0  0  0
  185.5710  178.7530  144.9360 C   0  0  0  0  0  3  0  0  0  0  0  0
  192.0600  174.9770  146.3290 C   0  0  1  0  0  3  0  0  0  0  0  0
  193.0720  174.0330  146.1380 O   0  0  0  0  0  1  0  0  0  0  0  0
  194.1410  176.4240  146.5150 C   0  0  0  0  0  1  0  0  0  0  0  0
  192.6230  176.3810  146.5840 C   0  0  0  0  0  3  0  0  0  0  0  0
  192.1660  176.8820  147.9400 C   0  0  0  0  0  1  0  0  0  0  0  0
  192.5970  174.5200  143.2470 C   0  0  0  0  0  2  0  0  0  0  0  0
  193.8990  175.2670  142.9480 C   0  0  0  0  0  3  0  0  0  0  0  0
  195.0880  174.4070  143.2560 C   0  0  0  0  0  3  0  0  0  0  0  0
  195.9400  174.7700  144.0520 O   0  0  0  0  0  0  0  0  0  0  0  0
  193.9490  175.7870  141.5420 C   0  0  0  0  0  3  0  0  0  0  0  0
  194.5990  176.7810  141.2590 O   0  0  0  0  0  0  0  0  0  0  0  0
  1  4  1  0  0  0  0
  2  7  1  0  0  0  0
  2 10  1  0  0  0  0
  3 11  1  0  0  0  0
  4 12  1  0  0  0  0
  5  1  1  1  0  0  0
  5 14  1  0  0  0  0
  7  3  1  6  0  0  0
  7  5  1  0  0  0  0
  8 16  1  0  0  0  0
  9 14  1  0  0  0  0
  9 17  1  1  0  0  0
 10 22  1  6  0  0  0
 10  9  1  0  0  0  0
 11  8  1  0  0  0  0
 11  1  2  0  0  0  0
 12 15  1  0  0  0  0
 13  8  2  0  0  0  0
 14  6  1  1  0  0  0
 16 12  2  0  0  0  0
 17 18  1  6  0  0  0
 17 20  1  0  0  0  0
 19 20  1  0  0  0  0
 20 21  1  0  0  0  0
 23 22  1  0  0  0  0
 23 24  1  0  0  0  0
 24 25  2  0  0  0  0
 26 23  1  0  0  0  0
 27 26  2  0  0  0  0
M  END
>  <MODEL>
7

>  <REMARK>
 VINA RESULT:      -6.2      2.730      4.385
  Name = 
  6 active torsions:
  status: ('A' for Active; 'I' for Inactive)
    1  A    between atoms: C_3  and  C_22
    2  A    between atoms: C_4  and  C_22
    3  A    between atoms: C_10  and  C_16
    4  A    between atoms: C_10  and  C_18
    5  A    between atoms: C_17  and  C_24
    6  A    between atoms: C_22  and  C_24
                            x       y       z     vdW  Elec       q    Type
                         _______ _______ _______ _____ _____    ______ ____

>  <TORSDO>
F 6

$$$$
=
 OpenBabel11062422073D

 27 29  0  0  1  0  0  0  0  0999 V2000
  188.3540  177.4900  144.8490 C   0  0  0  0  0  0  0  0  0  0  0  0
  191.6760  176.8780  146.0470 O   0  0  0  0  0  0  0  0  0  0  0  0
  189.2730  176.9470  147.2700 S   0  0  0  0  0  0  0  0  0  0  0  0
  187.3930  177.8130  143.7300 C   0  0  0  0  0  2  0  0  0  0  0  0
  189.8330  177.5420  144.7240 C   0  0  1  0  0  3  0  0  0  0  0  0
  190.1500  177.9150  142.3870 O   0  0  0  0  0  1  0  0  0  0  0  0
  190.3200  176.6260  145.8220 C   0  0  1  0  0  3  0  0  0  0  0  0
  186.5280  177.0720  146.3990 C   0  0  0  0  0  0  0  0  0  0  0  0
  191.9570  176.8640  143.5720 C   0  0  2  0  0  3  0  0  0  0  0  0
  192.3690  176.2820  144.9650 C   0  0  1  0  0  3  0  0  0  0  0  0
  187.9530  177.2260  146.0880 C   0  0  0  0  0  0  0  0  0  0  0  0
  185.9410  177.5680  144.0820 C   0  0  0  0  0  0  0  0  0  0  0  0
  186.1460  176.7900  147.5640 O   0  0  0  0  0  0  0  0  0  0  0  0
  190.4270  177.0230  143.4240 C   0  0  1  0  0  3  0  0  0  0  0  0
  184.7290  177.7670  142.8350 Cl  0  0  0  0  0  0  0  0  0  0  0  0
  185.5480  177.2460  145.3190 C   0  0  0  0  0  3  0  0  0  0  0  0
  192.4940  176.0440  142.3850 C   0  0  1  0  0  3  0  0  0  0  0  0
  193.7970  176.4160  142.0420 O   0  0  0  0  0  1  0  0  0  0  0  0
  193.6220  173.7770  142.1710 C   0  0  0  0  0  1  0  0  0  0  0  0
  192.3540  174.5250  142.5480 C   0  0  0  0  0  3  0  0  0  0  0  0
  191.2000  174.0200  141.7060 C   0  0  0  0  0  1  0  0  0  0  0  0
  193.8770  176.3760  145.2090 C   0  0  0  0  0  2  0  0  0  0  0  0
  194.4540  175.1210  145.8680 C   0  0  0  0  0  3  0  0  0  0  0  0
  193.4620  173.9980  145.8300 C   0  0  0  0  0  3  0  0  0  0  0  0
  193.8180  172.8480  145.6230 O   0  0  0  0  0  0  0  0  0  0  0  0
  195.7670  174.7130  145.2660 C   0  0  0  0  0  3  0  0  0  0  0  0
  196.1830  175.2380  144.2450 O   0  0  0  0  0  0  0  0  0  0  0  0
  1 11  2  0  0  0  0
  4 12  1  0  0  0  0
  4  1  1  0  0  0  0
  5  1  1  6  0  0  0
  5  7  1  0  0  0  0
  7  2  1  1  0  0  0
  7  3  1  0  0  0  0
  8 13  2  0  0  0  0
  9 17  1  6  0  0  0
  9 10  1  0  0  0  0
 10 22  1  1  0  0  0
 10  2  1  0  0  0  0
 11  8  1  0  0  0  0
 11  3  1  0  0  0  0
 12 16  2  0  0  0  0
 14  6  1  6  0  0  0
 14  9  1  0  0  0  0
 14  5  1  0  0  0  0
 15 12  1  0  0  0  0
 16  8  1  0  0  0  0
 17 18  1  1  0  0  0
 17 20  1  0  0  0  0
 19 20  1  0  0  0  0
 21 20  1  0  0  0  0
 22 23  1  0  0  0  0
 24 23  1  0  0  0  0
 25 24  2  0  0  0  0
 26 23  1  0  0  0  0
 27 26  2  0  0  0  0
M  END
>  <MODEL>
8

>  <REMARK>
 VINA RESULT:      -6.2      2.272      3.099
  Name = 
  6 active torsions:
  status: ('A' for Active; 'I' for Inactive)
    1  A    between atoms: C_3  and  C_22
    2  A    between atoms: C_4  and  C_22
    3  A    between atoms: C_10  and  C_16
    4  A    between atoms: C_10  and  C_18
    5  A    between atoms: C_17  and  C_24
    6  A    between atoms: C_22  and  C_24
                            x       y       z     vdW  Elec       q    Type
                         _______ _______ _______ _____ _____    ______ ____

>  <TORSDO>
F 6

$$$$
=
 OpenBabel11062422073D

 27 29  0  0  1  0  0  0  0  0999 V2000
  187.3710  176.8810  145.1750 C   0  0  0  0  0  0  0  0  0  0  0  0
  189.0830  174.7880  142.8220 O   0  0  0  0  0  0  0  0  0  0  0  0
  186.6900  176.0310  142.7640 S   0  0  0  0  0  0  0  0  0  0  0  0
  187.3000  177.5820  146.5110 C   0  0  0  0  0  2  0  0  0  0  0  0
  188.4130  175.8890  144.8040 C   0  0  1  0  0  3  0  0  0  0  0  0
  189.9340  176.0130  146.6410 O   0  0  0  0  0  1  0  0  0  0  0  0
  188.4230  175.9260  143.2930 C   0  0  1  0  0  3  0  0  0  0  0  0
  185.3560  177.9970  144.3970 C   0  0  0  0  0  0  0  0  0  0  0  0
  190.8230  175.2410  144.5460 C   0  0  2  0  0  3  0  0  0  0  0  0
  190.4630  175.0180  143.0390 C   0  0  1  0  0  3  0  0  0  0  0  0
  186.4370  177.0180  144.2400 C   0  0  0  0  0  0  0  0  0  0  0  0
  186.2130  178.6320  146.5920 C   0  0  0  0  0  0  0  0  0  0  0  0
  184.4880  178.1520  143.4990 O   0  0  0  0  0  0  0  0  0  0  0  0
  189.8320  176.1880  145.2590 C   0  0  1  0  0  3  0  0  0  0  0  0
  186.1050  179.6190  148.0330 Cl  0  0  0  0  0  0  0  0  0  0  0  0
  185.3080  178.8050  145.6220 C   0  0  0  0  0  3  0  0  0  0  0  0
  192.2570  175.7580  144.7610 C   0  0  1  0  0  3  0  0  0  0  0  0
  192.3260  177.1520  144.6850 O   0  0  0  0  0  1  0  0  0  0  0  0
  194.0630  176.1210  146.5120 C   0  0  0  0  0  1  0  0  0  0  0  0
  192.9440  175.2170  146.0210 C   0  0  0  0  0  3  0  0  0  0  0  0
  193.4980  173.8320  145.7520 C   0  0  0  0  0  1  0  0  0  0  0  0
  191.2770  173.8840  142.4110 C   0  0  0  0  0  2  0  0  0  0  0  0
  190.9640  173.6770  140.9270 C   0  0  0  0  0  3  0  0  0  0  0  0
  192.2230  173.6720  140.1140 C   0  0  0  0  0  3  0  0  0  0  0  0
  193.0750  174.5330  140.2670 O   0  0  0  0  0  0  0  0  0  0  0  0
  190.1490  172.4410  140.6830 C   0  0  0  0  0  3  0  0  0  0  0  0
  189.0100  172.5110  140.2460 O   0  0  0  0  0  0  0  0  0  0  0  0
  1  4  1  0  0  0  0
  2 10  1  0  0  0  0
  2  7  1  0  0  0  0
  3 11  1  0  0  0  0
  4 12  1  0  0  0  0
  5  1  1  1  0  0  0
  5 14  1  0  0  0  0
  7  3  1  6  0  0  0
  7  5  1  0  0  0  0
  8 16  1  0  0  0  0
  9 17  1  6  0  0  0
  9 14  1  0  0  0  0
 10 22  1  1  0  0  0
 10  9  1  0  0  0  0
 11  8  1  0  0  0  0
 11  1  2  0  0  0  0
 12 15  1  0  0  0  0
 13  8  2  0  0  0  0
 14  6  1  1  0  0  0
 16 12  2  0  0  0  0
 17 18  1  1  0  0  0
 17 20  1  0  0  0  0
 20 19  1  0  0  0  0
 21 20  1  0  0  0  0
 23 22  1  0  0  0  0
 24 25  2  0  0  0  0
 24 23  1  0  0  0  0
 26 23  1  0  0  0  0
 27 26  2  0  0  0  0
M  END
>  <MODEL>
9

>  <REMARK>
 VINA RESULT:      -6.1      2.651      4.964
  Name = 
  6 active torsions:
  status: ('A' for Active; 'I' for Inactive)
    1  A    between atoms: C_3  and  C_22
    2  A    between atoms: C_4  and  C_22
    3  A    between atoms: C_10  and  C_16
    4  A    between atoms: C_10  and  C_18
    5  A    between atoms: C_17  and  C_24
    6  A    between atoms: C_22  and  C_24
                            x       y       z     vdW  Elec       q    Type
                         _______ _______ _______ _____ _____    ______ ____

>  <TORSDO>
F 6

$$$$
