=
 OpenBabel11062421153D

 33 35  0  0  1  0  0  0  0  0999 V2000
  190.1400  175.7540  144.7050 C   0  0  2  0  0  3  0  0  0  0  0  0
  192.3030  172.7420  144.9020 O   0  0  0  0  0  0  0  0  0  0  0  0
  191.2630  173.0580  144.3120 C   0  0  0  0  0  0  0  0  0  0  0  0
  189.0050  172.2650  141.9450 O   0  0  0  0  0  0  0  0  0  0  0  0
  189.7590  174.8180  143.5930 C   0  0  0  0  0  0  0  0  0  0  0  0
  188.5930  174.5320  141.3530 C   0  0  0  0  0  2  0  0  0  0  0  0
  189.1990  172.3070  143.3290 C   0  0  0  0  0  2  0  0  0  0  0  0
  187.9810  173.1810  141.6850 C   0  0  0  0  0  2  0  0  0  0  0  0
  189.0090  175.2910  142.5810 C   0  0  0  0  0  3  0  0  0  0  0  0
  190.1640  173.3940  143.6900 C   0  0  0  0  0  0  0  0  0  0  0  0
  189.0000  176.6030  145.0780 C   0  0  0  0  0  0  0  0  0  0  0  0
  188.0720  177.3020  145.3980 C   0  0  0  0  0  0  0  0  0  0  0  0
  185.0600  178.3090  147.4580 C   0  0  0  0  0  2  0  0  0  0  0  0
  184.6980  179.0550  145.1090 C   0  0  0  0  0  2  0  0  0  0  0  0
  184.0590  178.3730  146.3120 C   0  0  0  0  0  2  0  0  0  0  0  0
  186.9500  178.1530  145.8100 C   0  0  1  0  0  3  0  0  0  0  0  0
  185.9460  178.2970  144.6560 C   0  0  2  0  0  3  0  0  0  0  0  0
  186.2860  177.5120  147.0270 C   0  0  0  0  0  2  0  0  0  0  0  0
  186.5720  179.0410  143.4830 C   0  0  0  0  0  2  0  0  0  0  0  0
  186.6840  178.1220  142.2800 C   0  0  0  0  0  2  0  0  0  0  0  0
  185.4320  177.4070  142.0950 N   0  0  0  0  0  2  0  0  0  0  0  0
  184.5720  178.2390  141.2700 C   0  0  0  0  0  2  0  0  0  0  0  0
  183.1540  178.2480  141.8240 C   0  0  0  0  0  2  0  0  0  0  0  0
  181.2100  179.0990  140.7360 O   0  0  0  0  0  1  0  0  0  0  0  0
  182.2780  177.3830  139.6550 O   0  0  0  0  0  0  0  0  0  0  0  0
  182.1530  178.2660  140.7200 C   0  0  0  0  0  0  0  0  0  0  0  0
  191.2550  176.5590  144.3250 O   0  0  0  0  0  0  0  0  0  0  0  0
  194.2680  176.0390  146.4430 C   0  0  0  0  0  3  0  0  0  0  0  0
  192.9460  176.3110  146.0770 C   0  0  0  0  0  3  0  0  0  0  0  0
  192.5680  176.2890  144.7240 C   0  0  0  0  0  0  0  0  0  0  0  0
  193.5230  175.9900  143.7480 C   0  0  0  0  0  3  0  0  0  0  0  0
  194.8450  175.7200  144.1140 C   0  0  0  0  0  3  0  0  0  0  0  0
  195.2180  175.7460  145.4610 C   0  0  0  0  0  3  0  0  0  0  0  0
  1 11  1  6  0  0  0
  3  2  2  0  0  0  0
  4  7  1  0  0  0  0
  5 10  1  0  0  0  0
  5  1  1  0  0  0  0
  6  8  1  0  0  0  0
  6  9  1  0  0  0  0
  7 10  1  0  0  0  0
  8  4  1  0  0  0  0
  9  5  2  0  0  0  0
 10  3  2  0  0  0  0
 11 12  3  0  0  0  0
 14 15  1  0  0  0  0
 15 13  1  0  0  0  0
 16 12  1  6  0  0  0
 16 18  1  0  0  0  0
 17 19  1  6  0  0  0
 17 14  1  0  0  0  0
 17 16  1  0  0  0  0
 18 13  1  0  0  0  0
 20 19  1  0  0  0  0
 21 20  1  0  0  0  0
 22 23  1  0  0  0  0
 22 21  1  0  0  0  0
 25 26  2  0  0  0  0
 26 24  1  0  0  0  0
 26 23  1  0  0  0  0
 27  1  1  0  0  0  0
 27 30  1  0  0  0  0
 29 28  1  0  0  0  0
 30 29  2  0  0  0  0
 31 32  2  0  0  0  0
 31 30  1  0  0  0  0
 32 33  1  0  0  0  0
 33 28  2  0  0  0  0
M  END
>  <MODEL>
1

>  <REMARK>
 VINA RESULT:      -7.2      0.000      0.000
  Name = 
  11 active torsions:
  status: ('A' for Active; 'I' for Inactive)
    1  A    between atoms: C_1  and  C_11
    2  A    between atoms: O_3  and  C_10
    3  A    between atoms: O_3  and  C_11
    4  A    between atoms: C_4  and  C_22
    5  A    between atoms: C_4  and  C_25
    6  A    between atoms: C_11  and  C_18
    7  A    between atoms: C_12  and  N_21
    8  A    between atoms: C_12  and  C_26
    9  A    between atoms: C_15  and  C_27
   10  A    between atoms: C_19  and  C_26
   11  A    between atoms: N_21  and  C_22
                            x       y       z     vdW  Elec       q    Type
                         _______ _______ _______ _____ _____    ______ ____

>  <TORSDO>
F 11

$$$$
=
 OpenBabel11062421153D

 33 35  0  0  1  0  0  0  0  0999 V2000
  188.9710  175.2920  142.0970 C   0  0  2  0  0  3  0  0  0  0  0  0
  187.8980  174.7040  138.5910 O   0  0  0  0  0  0  0  0  0  0  0  0
  188.5950  174.1110  139.4240 C   0  0  0  0  0  0  0  0  0  0  0  0
  190.2170  171.2790  140.2480 O   0  0  0  0  0  0  0  0  0  0  0  0
  189.2700  173.8640  141.7390 C   0  0  0  0  0  0  0  0  0  0  0  0
  189.7840  171.5190  142.5740 C   0  0  0  0  0  2  0  0  0  0  0  0
  190.4190  172.5890  139.8040 C   0  0  0  0  0  2  0  0  0  0  0  0
  190.8220  171.2140  141.5070 C   0  0  0  0  0  2  0  0  0  0  0  0
  189.5360  172.9930  142.7300 C   0  0  0  0  0  3  0  0  0  0  0  0
  189.3300  173.4860  140.3050 C   0  0  0  0  0  0  0  0  0  0  0  0
  189.9910  175.8180  143.0150 C   0  0  0  0  0  0  0  0  0  0  0  0
  190.8390  176.2370  143.7630 C   0  0  0  0  0  0  0  0  0  0  0  0
  194.3590  176.6400  145.0950 C   0  0  0  0  0  2  0  0  0  0  0  0
  192.7810  176.6090  147.0230 C   0  0  0  0  0  2  0  0  0  0  0  0
  194.1010  176.0720  146.4840 C   0  0  0  0  0  2  0  0  0  0  0  0
  191.8840  176.7310  144.6650 C   0  0  1  0  0  3  0  0  0  0  0  0
  191.6250  176.2330  146.0950 C   0  0  2  0  0  3  0  0  0  0  0  0
  193.2330  176.2260  144.1540 C   0  0  0  0  0  2  0  0  0  0  0  0
  190.3380  176.8280  146.6520 C   0  0  0  0  0  2  0  0  0  0  0  0
  189.3270  175.7290  146.9210 C   0  0  0  0  0  2  0  0  0  0  0  0
  188.0960  176.0130  146.2020 N   0  0  0  0  0  2  0  0  0  0  0  0
  187.5040  177.1990  146.8000 C   0  0  0  0  0  2  0  0  0  0  0  0
  186.0050  177.0080  146.9820 C   0  0  0  0  0  2  0  0  0  0  0  0
  185.8310  179.3410  147.4460 O   0  0  0  0  0  1  0  0  0  0  0  0
  184.0560  178.4200  146.3270 O   0  0  0  0  0  0  0  0  0  0  0  0
  185.2950  178.3180  146.9440 C   0  0  0  0  0  0  0  0  0  0  0  0
  187.6750  175.4040  142.6810 O   0  0  0  0  0  0  0  0  0  0  0  0
  185.8640  178.0050  140.7330 C   0  0  0  0  0  3  0  0  0  0  0  0
  186.7980  177.0170  141.0630 C   0  0  0  0  0  3  0  0  0  0  0  0
  186.7530  176.3920  142.3200 C   0  0  0  0  0  0  0  0  0  0  0  0
  185.7640  176.7630  143.2370 C   0  0  0  0  0  3  0  0  0  0  0  0
  184.8320  177.7510  142.9080 C   0  0  0  0  0  3  0  0  0  0  0  0
  184.8820  178.3720  141.6570 C   0  0  0  0  0  3  0  0  0  0  0  0
  1 27  1  0  0  0  0
  1 11  1  1  0  0  0
  2  3  2  0  0  0  0
  3 10  2  0  0  0  0
  4  8  1  0  0  0  0
  5  1  1  0  0  0  0
  5  9  2  0  0  0  0
  6  9  1  0  0  0  0
  7  4  1  0  0  0  0
  7 10  1  0  0  0  0
  8  6  1  0  0  0  0
 10  5  1  0  0  0  0
 11 12  3  0  0  0  0
 13 15  1  0  0  0  0
 15 14  1  0  0  0  0
 16 12  1  6  0  0  0
 16 17  1  0  0  0  0
 17 19  1  1  0  0  0
 17 14  1  0  0  0  0
 18 16  1  0  0  0  0
 18 13  1  0  0  0  0
 19 20  1  0  0  0  0
 21 22  1  0  0  0  0
 21 20  1  0  0  0  0
 22 23  1  0  0  0  0
 25 26  2  0  0  0  0
 26 23  1  0  0  0  0
 26 24  1  0  0  0  0
 28 29  2  0  0  0  0
 28 33  1  0  0  0  0
 29 30  1  0  0  0  0
 30 27  1  0  0  0  0
 30 31  2  0  0  0  0
 32 31  1  0  0  0  0
 33 32  2  0  0  0  0
M  END
>  <MODEL>
2

>  <REMARK>
 VINA RESULT:      -7.0      2.555      6.603
  Name = 
  11 active torsions:
  status: ('A' for Active; 'I' for Inactive)
    1  A    between atoms: C_1  and  C_11
    2  A    between atoms: O_3  and  C_10
    3  A    between atoms: O_3  and  C_11
    4  A    between atoms: C_4  and  C_22
    5  A    between atoms: C_4  and  C_25
    6  A    between atoms: C_11  and  C_18
    7  A    between atoms: C_12  and  N_21
    8  A    between atoms: C_12  and  C_26
    9  A    between atoms: C_15  and  C_27
   10  A    between atoms: C_19  and  C_26
   11  A    between atoms: N_21  and  C_22
                            x       y       z     vdW  Elec       q    Type
                         _______ _______ _______ _____ _____    ______ ____

>  <TORSDO>
F 11

$$$$
=
 OpenBabel11062421153D

 33 35  0  0  1  0  0  0  0  0999 V2000
  190.0340  175.6820  144.5440 C   0  0  2  0  0  3  0  0  0  0  0  0
  192.3220  172.7660  144.7690 O   0  0  0  0  0  0  0  0  0  0  0  0
  191.2330  173.0080  144.2320 C   0  0  0  0  0  0  0  0  0  0  0  0
  188.8580  171.9950  142.0730 O   0  0  0  0  0  0  0  0  0  0  0  0
  189.6180  174.6670  143.5160 C   0  0  0  0  0  0  0  0  0  0  0  0
  188.3210  174.2050  141.3790 C   0  0  0  0  0  2  0  0  0  0  0  0
  189.1410  172.1270  143.4360 C   0  0  0  0  0  2  0  0  0  0  0  0
  187.7850  172.8570  141.8300 C   0  0  0  0  0  2  0  0  0  0  0  0
  188.7850  175.0520  142.5310 C   0  0  0  0  0  3  0  0  0  0  0  0
  190.0840  173.2670  143.6680 C   0  0  0  0  0  0  0  0  0  0  0  0
  188.9180  176.5850  144.8570 C   0  0  0  0  0  0  0  0  0  0  0  0
  188.0100  177.3390  145.1050 C   0  0  0  0  0  0  0  0  0  0  0  0
  185.0650  178.7330  147.0300 C   0  0  0  0  0  2  0  0  0  0  0  0
  184.6700  179.1070  144.5990 C   0  0  0  0  0  2  0  0  0  0  0  0
  184.0420  178.6390  145.9060 C   0  0  0  0  0  2  0  0  0  0  0  0
  186.9170  178.2720  145.3950 C   0  0  1  0  0  3  0  0  0  0  0  0
  185.8920  178.2570  144.2500 C   0  0  2  0  0  3  0  0  0  0  0  0
  186.2640  177.8480  146.7100 C   0  0  0  0  0  2  0  0  0  0  0  0
  186.5090  178.7910  142.9640 C   0  0  0  0  0  2  0  0  0  0  0  0
  186.2650  177.8180  141.8240 C   0  0  0  0  0  2  0  0  0  0  0  0
  185.0320  178.1710  141.1390 N   0  0  0  0  0  2  0  0  0  0  0  0
  185.1550  177.7260  139.7610 C   0  0  0  0  0  2  0  0  0  0  0  0
  186.5740  177.2470  139.4850 C   0  0  0  0  0  2  0  0  0  0  0  0
  187.4730  175.3790  138.3050 O   0  0  0  0  0  1  0  0  0  0  0  0
  185.6270  176.3530  137.3580 O   0  0  0  0  0  0  0  0  0  0  0  0
  186.5950  176.2800  138.3500 C   0  0  0  0  0  0  0  0  0  0  0  0
  191.1620  176.4260  144.0870 O   0  0  0  0  0  0  0  0  0  0  0  0
  194.8520  176.2540  144.5270 C   0  0  0  0  0  3  0  0  0  0  0  0
  193.6010  176.3450  143.9070 C   0  0  0  0  0  3  0  0  0  0  0  0
  192.4270  176.3410  144.6780 C   0  0  0  0  0  0  0  0  0  0  0  0
  192.5190  176.2500  146.0710 C   0  0  0  0  0  3  0  0  0  0  0  0
  193.7690  176.1580  146.6900 C   0  0  0  0  0  3  0  0  0  0  0  0
  194.9340  176.1600  145.9190 C   0  0  0  0  0  3  0  0  0  0  0  0
  1 11  1  6  0  0  0
  3  2  2  0  0  0  0
  4  7  1  0  0  0  0
  5 10  1  0  0  0  0
  5  1  1  0  0  0  0
  6  8  1  0  0  0  0
  6  9  1  0  0  0  0
  7 10  1  0  0  0  0
  8  4  1  0  0  0  0
  9  5  2  0  0  0  0
 10  3  2  0  0  0  0
 11 12  3  0  0  0  0
 14 15  1  0  0  0  0
 15 13  1  0  0  0  0
 16 12  1  6  0  0  0
 16 18  1  0  0  0  0
 17 19  1  6  0  0  0
 17 14  1  0  0  0  0
 17 16  1  0  0  0  0
 18 13  1  0  0  0  0
 20 19  1  0  0  0  0
 21 20  1  0  0  0  0
 22 21  1  0  0  0  0
 23 22  1  0  0  0  0
 24 26  1  0  0  0  0
 25 26  2  0  0  0  0
 26 23  1  0  0  0  0
 27  1  1  0  0  0  0
 27 30  1  0  0  0  0
 28 33  1  0  0  0  0
 29 28  2  0  0  0  0
 29 30  1  0  0  0  0
 30 31  2  0  0  0  0
 31 32  1  0  0  0  0
 33 32  2  0  0  0  0
M  END
>  <MODEL>
3

>  <REMARK>
 VINA RESULT:      -6.8      1.597      2.173
  Name = 
  11 active torsions:
  status: ('A' for Active; 'I' for Inactive)
    1  A    between atoms: C_1  and  C_11
    2  A    between atoms: O_3  and  C_10
    3  A    between atoms: O_3  and  C_11
    4  A    between atoms: C_4  and  C_22
    5  A    between atoms: C_4  and  C_25
    6  A    between atoms: C_11  and  C_18
    7  A    between atoms: C_12  and  N_21
    8  A    between atoms: C_12  and  C_26
    9  A    between atoms: C_15  and  C_27
   10  A    between atoms: C_19  and  C_26
   11  A    between atoms: N_21  and  C_22
                            x       y       z     vdW  Elec       q    Type
                         _______ _______ _______ _____ _____    ______ ____

>  <TORSDO>
F 11

$$$$
=
 OpenBabel11062421153D

 33 35  0  0  1  0  0  0  0  0999 V2000
  189.5580  175.4490  143.5930 C   0  0  2  0  0  3  0  0  0  0  0  0
  192.5570  174.9740  141.4550 O   0  0  0  0  0  0  0  0  0  0  0  0
  192.3380  175.3050  142.6270 C   0  0  0  0  0  0  0  0  0  0  0  0
  193.6210  175.9050  145.6810 O   0  0  0  0  0  0  0  0  0  0  0  0
  190.7740  175.4150  144.4760 C   0  0  0  0  0  0  0  0  0  0  0  0
  191.6960  175.1000  146.8230 C   0  0  0  0  0  2  0  0  0  0  0  0
  193.1030  176.5370  144.5470 C   0  0  0  0  0  2  0  0  0  0  0  0
  192.7310  176.2070  146.7160 C   0  0  0  0  0  2  0  0  0  0  0  0
  190.6050  175.2340  145.7980 C   0  0  0  0  0  3  0  0  0  0  0  0
  192.1050  175.6540  143.8640 C   0  0  0  0  0  0  0  0  0  0  0  0
  188.5740  176.4120  144.1060 C   0  0  0  0  0  0  0  0  0  0  0  0
  187.7800  177.2100  144.5360 C   0  0  0  0  0  0  0  0  0  0  0  0
  185.3880  178.6950  147.0660 C   0  0  0  0  0  2  0  0  0  0  0  0
  184.5230  179.1780  144.7810 C   0  0  0  0  0  2  0  0  0  0  0  0
  184.1510  178.6990  146.1790 C   0  0  0  0  0  2  0  0  0  0  0  0
  186.8290  178.1910  145.0700 C   0  0  1  0  0  3  0  0  0  0  0  0
  185.5910  178.2740  144.1640 C   0  0  2  0  0  3  0  0  0  0  0  0
  186.4380  177.7570  146.4820 C   0  0  0  0  0  2  0  0  0  0  0  0
  185.9600  178.8190  142.7900 C   0  0  0  0  0  2  0  0  0  0  0  0
  185.4680  177.8780  141.7060 C   0  0  0  0  0  2  0  0  0  0  0  0
  184.4360  178.5360  140.9210 N   0  0  0  0  0  2  0  0  0  0  0  0
  183.1570  178.2350  141.5410 C   0  0  0  0  0  2  0  0  0  0  0  0
  182.1040  177.9630  140.4750 C   0  0  0  0  0  2  0  0  0  0  0  0
  179.9350  177.9240  141.4670 O   0  0  0  0  0  1  0  0  0  0  0  0
  180.5580  179.9200  140.5280 O   0  0  0  0  0  0  0  0  0  0  0  0
  180.8030  178.5900  140.8440 C   0  0  0  0  0  0  0  0  0  0  0  0
  188.9750  174.1510  143.4910 O   0  0  0  0  0  0  0  0  0  0  0  0
  190.5660  171.0020  142.3130 C   0  0  0  0  0  3  0  0  0  0  0  0
  190.0710  171.9850  143.1750 C   0  0  0  0  0  3  0  0  0  0  0  0
  189.4770  173.1470  142.6560 C   0  0  0  0  0  0  0  0  0  0  0  0
  189.3810  173.3100  141.2700 C   0  0  0  0  0  3  0  0  0  0  0  0
  189.8780  172.3280  140.4080 C   0  0  0  0  0  3  0  0  0  0  0  0
  190.4710  171.1750  140.9300 C   0  0  0  0  0  3  0  0  0  0  0  0
  1 11  1  1  0  0  0
  1  5  1  0  0  0  0
  2  3  2  0  0  0  0
  3 10  2  0  0  0  0
  4  8  1  0  0  0  0
  5  9  2  0  0  0  0
  7  4  1  0  0  0  0
  8  6  1  0  0  0  0
  9  6  1  0  0  0  0
 10  5  1  0  0  0  0
 10  7  1  0  0  0  0
 11 12  3  0  0  0  0
 14 15  1  0  0  0  0
 15 13  1  0  0  0  0
 16 12  1  6  0  0  0
 16 18  1  0  0  0  0
 17 19  1  6  0  0  0
 17 14  1  0  0  0  0
 17 16  1  0  0  0  0
 18 13  1  0  0  0  0
 20 19  1  0  0  0  0
 21 22  1  0  0  0  0
 21 20  1  0  0  0  0
 23 26  1  0  0  0  0
 23 22  1  0  0  0  0
 25 26  2  0  0  0  0
 26 24  1  0  0  0  0
 27  1  1  0  0  0  0
 28 29  1  0  0  0  0
 30 29  2  0  0  0  0
 30 27  1  0  0  0  0
 31 30  1  0  0  0  0
 32 33  1  0  0  0  0
 32 31  2  0  0  0  0
 33 28  2  0  0  0  0
M  END
>  <MODEL>
4

>  <REMARK>
 VINA RESULT:      -6.8      1.536      4.023
  Name = 
  11 active torsions:
  status: ('A' for Active; 'I' for Inactive)
    1  A    between atoms: C_1  and  C_11
    2  A    between atoms: O_3  and  C_10
    3  A    between atoms: O_3  and  C_11
    4  A    between atoms: C_4  and  C_22
    5  A    between atoms: C_4  and  C_25
    6  A    between atoms: C_11  and  C_18
    7  A    between atoms: C_12  and  N_21
    8  A    between atoms: C_12  and  C_26
    9  A    between atoms: C_15  and  C_27
   10  A    between atoms: C_19  and  C_26
   11  A    between atoms: N_21  and  C_22
                            x       y       z     vdW  Elec       q    Type
                         _______ _______ _______ _____ _____    ______ ____

>  <TORSDO>
F 11

$$$$
=
 OpenBabel11062421153D

 33 35  0  0  1  0  0  0  0  0999 V2000
  189.6500  175.5630  143.8660 C   0  0  2  0  0  3  0  0  0  0  0  0
  192.5630  175.2500  141.5840 O   0  0  0  0  0  0  0  0  0  0  0  0
  192.3850  175.5540  142.7710 C   0  0  0  0  0  0  0  0  0  0  0  0
  193.7830  176.1670  145.7710 O   0  0  0  0  0  0  0  0  0  0  0  0
  190.9060  175.5710  144.6910 C   0  0  0  0  0  0  0  0  0  0  0  0
  191.9510  175.2630  146.9870 C   0  0  0  0  0  2  0  0  0  0  0  0
  193.1860  176.7920  144.6720 C   0  0  0  0  0  2  0  0  0  0  0  0
  192.9310  176.4160  146.8510 C   0  0  0  0  0  2  0  0  0  0  0  0
  190.8080  175.3640  146.0170 C   0  0  0  0  0  3  0  0  0  0  0  0
  192.1950  175.8760  144.0230 C   0  0  0  0  0  0  0  0  0  0  0  0
  188.6610  176.4940  144.4250 C   0  0  0  0  0  0  0  0  0  0  0  0
  187.8410  177.2460  144.8920 C   0  0  0  0  0  0  0  0  0  0  0  0
  185.7040  178.7510  147.6290 C   0  0  0  0  0  2  0  0  0  0  0  0
  184.3670  178.6830  145.5270 C   0  0  0  0  0  2  0  0  0  0  0  0
  184.3500  178.4030  147.0250 C   0  0  0  0  0  2  0  0  0  0  0  0
  186.8330  178.1420  145.4680 C   0  0  1  0  0  3  0  0  0  0  0  0
  185.4600  177.8670  144.8360 C   0  0  2  0  0  3  0  0  0  0  0  0
  186.7900  177.9040  146.9770 C   0  0  0  0  0  2  0  0  0  0  0  0
  185.4660  178.2150  143.3530 C   0  0  0  0  0  2  0  0  0  0  0  0
  184.0650  178.0990  142.7820 C   0  0  0  0  0  2  0  0  0  0  0  0
  184.1350  178.0150  141.3330 N   0  0  0  0  0  2  0  0  0  0  0  0
  185.4190  178.5610  140.9250 C   0  0  0  0  0  2  0  0  0  0  0  0
  186.1630  177.5640  140.0470 C   0  0  0  0  0  2  0  0  0  0  0  0
  188.2010  177.9700  141.2180 O   0  0  0  0  0  1  0  0  0  0  0  0
  187.7380  175.7710  140.7700 O   0  0  0  0  0  0  0  0  0  0  0  0
  187.4270  177.1220  140.7010 C   0  0  0  0  0  0  0  0  0  0  0  0
  189.1050  174.2470  143.7920 O   0  0  0  0  0  0  0  0  0  0  0  0
  190.9520  171.1160  143.0000 C   0  0  0  0  0  3  0  0  0  0  0  0
  190.3520  172.1420  143.7390 C   0  0  0  0  0  3  0  0  0  0  0  0
  189.7110  173.2040  143.0820 C   0  0  0  0  0  0  0  0  0  0  0  0
  189.6730  173.2270  141.6840 C   0  0  0  0  0  3  0  0  0  0  0  0
  190.2740  172.2030  140.9460 C   0  0  0  0  0  3  0  0  0  0  0  0
  190.9130  171.1490  141.6040 C   0  0  0  0  0  3  0  0  0  0  0  0
  1 11  1  1  0  0  0
  1  5  1  0  0  0  0
  2  3  2  0  0  0  0
  3 10  2  0  0  0  0
  4  8  1  0  0  0  0
  5  9  2  0  0  0  0
  7  4  1  0  0  0  0
  8  6  1  0  0  0  0
  9  6  1  0  0  0  0
 10  7  1  0  0  0  0
 10  5  1  0  0  0  0
 11 12  3  0  0  0  0
 14 15  1  0  0  0  0
 15 13  1  0  0  0  0
 16 12  1  6  0  0  0
 16 18  1  0  0  0  0
 17 19  1  6  0  0  0
 17 16  1  0  0  0  0
 17 14  1  0  0  0  0
 18 13  1  0  0  0  0
 20 19  1  0  0  0  0
 21 20  1  0  0  0  0
 22 21  1  0  0  0  0
 23 26  1  0  0  0  0
 23 22  1  0  0  0  0
 26 25  2  0  0  0  0
 26 24  1  0  0  0  0
 27  1  1  0  0  0  0
 28 29  1  0  0  0  0
 30 29  2  0  0  0  0
 30 27  1  0  0  0  0
 31 30  1  0  0  0  0
 32 33  1  0  0  0  0
 32 31  2  0  0  0  0
 33 28  2  0  0  0  0
M  END
>  <MODEL>
5

>  <REMARK>
 VINA RESULT:      -6.8      2.223      4.356
  Name = 
  11 active torsions:
  status: ('A' for Active; 'I' for Inactive)
    1  A    between atoms: C_1  and  C_11
    2  A    between atoms: O_3  and  C_10
    3  A    between atoms: O_3  and  C_11
    4  A    between atoms: C_4  and  C_22
    5  A    between atoms: C_4  and  C_25
    6  A    between atoms: C_11  and  C_18
    7  A    between atoms: C_12  and  N_21
    8  A    between atoms: C_12  and  C_26
    9  A    between atoms: C_15  and  C_27
   10  A    between atoms: C_19  and  C_26
   11  A    between atoms: N_21  and  C_22
                            x       y       z     vdW  Elec       q    Type
                         _______ _______ _______ _____ _____    ______ ____

>  <TORSDO>
F 11

$$$$
=
 OpenBabel11062421153D

 33 35  0  0  1  0  0  0  0  0999 V2000
  192.3600  174.2830  145.8890 C   0  0  2  0  0  3  0  0  0  0  0  0
  194.6680  171.3740  145.8960 O   0  0  0  0  0  0  0  0  0  0  0  0
  194.6430  172.4930  145.3700 C   0  0  0  0  0  0  0  0  0  0  0  0
  196.3250  174.8420  143.6420 O   0  0  0  0  0  0  0  0  0  0  0  0
  193.6770  174.7160  145.3070 C   0  0  0  0  0  0  0  0  0  0  0  0
  195.2100  176.6520  144.7080 C   0  0  0  0  0  2  0  0  0  0  0  0
  195.3360  173.8620  143.5160 C   0  0  0  0  0  2  0  0  0  0  0  0
  195.6800  176.0570  143.3920 C   0  0  0  0  0  2  0  0  0  0  0  0
  193.9300  176.0320  145.1940 C   0  0  0  0  0  3  0  0  0  0  0  0
  194.6140  173.6760  144.8150 C   0  0  0  0  0  0  0  0  0  0  0  0
  191.3790  174.0460  144.8230 C   0  0  0  0  0  0  0  0  0  0  0  0
  190.5830  173.8590  143.9370 C   0  0  0  0  0  0  0  0  0  0  0  0
  189.3660  172.5200  140.6120 C   0  0  0  0  0  2  0  0  0  0  0  0
  188.3710  174.7760  140.9690 C   0  0  0  0  0  2  0  0  0  0  0  0
  189.0650  173.8650  139.9640 C   0  0  0  0  0  2  0  0  0  0  0  0
  189.6270  173.6440  142.8440 C   0  0  1  0  0  3  0  0  0  0  0  0
  189.2460  174.9880  142.2040 C   0  0  2  0  0  3  0  0  0  0  0  0
  190.2800  172.7210  141.8150 C   0  0  0  0  0  2  0  0  0  0  0  0
  188.4920  175.8650  143.1950 C   0  0  0  0  0  2  0  0  0  0  0  0
  187.0460  176.0190  142.7610 C   0  0  0  0  0  2  0  0  0  0  0  0
  186.3090  176.7550  143.7750 N   0  0  0  0  0  2  0  0  0  0  0  0
  186.3900  178.1660  143.4370 C   0  0  0  0  0  2  0  0  0  0  0  0
  185.9160  179.0190  144.6060 C   0  0  0  0  0  2  0  0  0  0  0  0
  183.6730  179.0020  143.7970 O   0  0  0  0  0  0  0  0  0  0  0  0
  183.9170  178.6360  146.0470 O   0  0  0  0  0  1  0  0  0  0  0  0
  184.4420  178.8970  144.7880 C   0  0  0  0  0  0  0  0  0  0  0  0
  191.8700  175.2610  146.8050 O   0  0  0  0  0  0  0  0  0  0  0  0
  188.1840  175.3980  147.2870 C   0  0  0  0  0  3  0  0  0  0  0  0
  189.4980  174.9190  147.3000 C   0  0  0  0  0  3  0  0  0  0  0  0
  190.5470  175.7130  146.8090 C   0  0  0  0  0  0  0  0  0  0  0  0
  190.2670  176.9900  146.3100 C   0  0  0  0  0  3  0  0  0  0  0  0
  188.9540  177.4680  146.2960 C   0  0  0  0  0  3  0  0  0  0  0  0
  187.9130  176.6730  146.7830 C   0  0  0  0  0  3  0  0  0  0  0  0
  1 11  1  6  0  0  0
  1 27  1  0  0  0  0
  3  2  2  0  0  0  0
  5  1  1  0  0  0  0
  6  9  1  0  0  0  0
  7  4  1  0  0  0  0
  7 10  1  0  0  0  0
  8  4  1  0  0  0  0
  8  6  1  0  0  0  0
  9  5  2  0  0  0  0
 10  5  1  0  0  0  0
 10  3  2  0  0  0  0
 12 11  3  0  0  0  0
 13 18  1  0  0  0  0
 14 17  1  0  0  0  0
 15 13  1  0  0  0  0
 15 14  1  0  0  0  0
 16 12  1  1  0  0  0
 17 16  1  0  0  0  0
 17 19  1  1  0  0  0
 18 16  1  0  0  0  0
 20 19  1  0  0  0  0
 20 21  1  0  0  0  0
 22 21  1  0  0  0  0
 22 23  1  0  0  0  0
 23 26  1  0  0  0  0
 24 26  2  0  0  0  0
 26 25  1  0  0  0  0
 27 30  1  0  0  0  0
 28 29  1  0  0  0  0
 30 29  2  0  0  0  0
 31 30  1  0  0  0  0
 32 31  2  0  0  0  0
 32 33  1  0  0  0  0
 33 28  2  0  0  0  0
M  END
>  <MODEL>
6

>  <REMARK>
 VINA RESULT:      -6.6      2.386      5.632
  Name = 
  11 active torsions:
  status: ('A' for Active; 'I' for Inactive)
    1  A    between atoms: C_1  and  C_11
    2  A    between atoms: O_3  and  C_10
    3  A    between atoms: O_3  and  C_11
    4  A    between atoms: C_4  and  C_22
    5  A    between atoms: C_4  and  C_25
    6  A    between atoms: C_11  and  C_18
    7  A    between atoms: C_12  and  N_21
    8  A    between atoms: C_12  and  C_26
    9  A    between atoms: C_15  and  C_27
   10  A    between atoms: C_19  and  C_26
   11  A    between atoms: N_21  and  C_22
                            x       y       z     vdW  Elec       q    Type
                         _______ _______ _______ _____ _____    ______ ____

>  <TORSDO>
F 11

$$$$
=
 OpenBabel11062421153D

 33 35  0  0  1  0  0  0  0  0999 V2000
  190.2870  176.3280  143.1150 C   0  0  2  0  0  3  0  0  0  0  0  0
  187.3120  176.4620  140.8970 O   0  0  0  0  0  0  0  0  0  0  0  0
  187.9940  175.5750  141.4240 C   0  0  0  0  0  0  0  0  0  0  0  0
  188.3050  172.3020  142.1460 O   0  0  0  0  0  0  0  0  0  0  0  0
  189.6500  174.9680  143.0880 C   0  0  0  0  0  0  0  0  0  0  0  0
  189.4160  172.7000  144.2110 C   0  0  0  0  0  2  0  0  0  0  0  0
  188.7880  173.3070  141.3030 C   0  0  0  0  0  2  0  0  0  0  0  0
  189.4020  171.9030  142.9170 C   0  0  0  0  0  2  0  0  0  0  0  0
  189.9970  174.0740  144.0320 C   0  0  0  0  0  3  0  0  0  0  0  0
  188.7170  174.6400  141.9810 C   0  0  0  0  0  0  0  0  0  0  0  0
  191.7470  176.2160  142.9950 C   0  0  0  0  0  0  0  0  0  0  0  0
  192.9450  176.1330  142.8830 C   0  0  0  0  0  0  0  0  0  0  0  0
  196.2450  176.2620  141.0350 C   0  0  0  0  0  2  0  0  0  0  0  0
  196.3710  174.4640  142.7550 C   0  0  0  0  0  2  0  0  0  0  0  0
  196.6700  174.8250  141.3050 C   0  0  0  0  0  2  0  0  0  0  0  0
  194.4010  176.0430  142.7270 C   0  0  1  0  0  3  0  0  0  0  0  0
  194.8800  174.6210  143.0560 C   0  0  2  0  0  3  0  0  0  0  0  0
  194.7490  176.4120  141.2860 C   0  0  0  0  0  2  0  0  0  0  0  0
  194.6400  174.2930  144.5240 C   0  0  0  0  0  2  0  0  0  0  0  0
  195.5620  175.1180  145.4020 C   0  0  0  0  0  2  0  0  0  0  0  0
  194.7760  176.0530  146.1900 N   0  0  0  0  0  2  0  0  0  0  0  0
  193.5080  175.4110  146.4940 C   0  0  0  0  0  2  0  0  0  0  0  0
  192.3880  176.4410  146.5310 C   0  0  0  0  0  2  0  0  0  0  0  0
  190.8020  175.2370  147.8440 O   0  0  0  0  0  0  0  0  0  0  0  0
  191.5730  177.1880  148.7660 O   0  0  0  0  0  1  0  0  0  0  0  0
  191.5360  176.2550  147.7390 C   0  0  0  0  0  0  0  0  0  0  0  0
  189.9400  177.0230  144.3120 O   0  0  0  0  0  0  0  0  0  0  0  0
  186.8100  176.7910  146.3080 C   0  0  0  0  0  3  0  0  0  0  0  0
  188.1360  176.5950  145.9090 C   0  0  0  0  0  3  0  0  0  0  0  0
  188.6200  177.2020  144.7400 C   0  0  0  0  0  0  0  0  0  0  0  0
  187.7670  178.0090  143.9790 C   0  0  0  0  0  3  0  0  0  0  0  0
  186.4410  178.2040  144.3770 C   0  0  0  0  0  3  0  0  0  0  0  0
  185.9630  177.5950  145.5400 C   0  0  0  0  0  3  0  0  0  0  0  0
  1 11  1  1  0  0  0
  1 27  1  0  0  0  0
  2  3  2  0  0  0  0
  3 10  2  0  0  0  0
  4  8  1  0  0  0  0
  5  1  1  0  0  0  0
  5  9  2  0  0  0  0
  7 10  1  0  0  0  0
  7  4  1  0  0  0  0
  8  6  1  0  0  0  0
  9  6  1  0  0  0  0
 10  5  1  0  0  0  0
 12 11  3  0  0  0  0
 13 18  1  0  0  0  0
 13 15  1  0  0  0  0
 14 17  1  0  0  0  0
 15 14  1  0  0  0  0
 16 12  1  6  0  0  0
 16 17  1  0  0  0  0
 17 19  1  1  0  0  0
 18 16  1  0  0  0  0
 19 20  1  0  0  0  0
 20 21  1  0  0  0  0
 21 22  1  0  0  0  0
 22 23  1  0  0  0  0
 23 26  1  0  0  0  0
 26 24  2  0  0  0  0
 26 25  1  0  0  0  0
 27 30  1  0  0  0  0
 29 28  1  0  0  0  0
 30 29  2  0  0  0  0
 31 32  2  0  0  0  0
 31 30  1  0  0  0  0
 32 33  1  0  0  0  0
 33 28  2  0  0  0  0
M  END
>  <MODEL>
7

>  <REMARK>
 VINA RESULT:      -6.5      3.020      8.257
  Name = 
  11 active torsions:
  status: ('A' for Active; 'I' for Inactive)
    1  A    between atoms: C_1  and  C_11
    2  A    between atoms: O_3  and  C_10
    3  A    between atoms: O_3  and  C_11
    4  A    between atoms: C_4  and  C_22
    5  A    between atoms: C_4  and  C_25
    6  A    between atoms: C_11  and  C_18
    7  A    between atoms: C_12  and  N_21
    8  A    between atoms: C_12  and  C_26
    9  A    between atoms: C_15  and  C_27
   10  A    between atoms: C_19  and  C_26
   11  A    between atoms: N_21  and  C_22
                            x       y       z     vdW  Elec       q    Type
                         _______ _______ _______ _____ _____    ______ ____

>  <TORSDO>
F 11

$$$$
=
 OpenBabel11062421153D

 33 35  0  0  1  0  0  0  0  0999 V2000
  188.7890  176.8580  144.9280 C   0  0  2  0  0  3  0  0  0  0  0  0
  186.3160  179.3790  143.7780 O   0  0  0  0  0  0  0  0  0  0  0  0
  186.9240  178.4270  143.2720 C   0  0  0  0  0  0  0  0  0  0  0  0
  187.2490  176.3650  140.6320 O   0  0  0  0  0  0  0  0  0  0  0  0
  188.2400  176.4180  143.6010 C   0  0  0  0  0  0  0  0  0  0  0  0
  187.9010  174.5050  141.9620 C   0  0  0  0  0  2  0  0  0  0  0  0
  187.8400  177.4600  141.2680 C   0  0  0  0  0  2  0  0  0  0  0  0
  188.1870  175.3320  140.7200 C   0  0  0  0  0  2  0  0  0  0  0  0
  188.4350  175.1440  143.2130 C   0  0  0  0  0  3  0  0  0  0  0  0
  187.5660  177.4220  142.7400 C   0  0  0  0  0  0  0  0  0  0  0  0
  190.1430  176.3240  145.1290 C   0  0  0  0  0  0  0  0  0  0  0  0
  191.2520  175.8770  145.2790 C   0  0  0  0  0  0  0  0  0  0  0  0
  194.8810  175.8500  146.3570 C   0  0  0  0  0  2  0  0  0  0  0  0
  194.6840  174.6080  144.2060 C   0  0  0  0  0  2  0  0  0  0  0  0
  195.4870  175.6500  144.9750 C   0  0  0  0  0  2  0  0  0  0  0  0
  192.6010  175.3220  145.4410 C   0  0  1  0  0  3  0  0  0  0  0  0
  193.2260  175.0440  144.0650 C   0  0  2  0  0  3  0  0  0  0  0  0
  193.4410  176.3320  146.2220 C   0  0  0  0  0  2  0  0  0  0  0  0
  192.4570  173.9520  143.3310 C   0  0  0  0  0  2  0  0  0  0  0  0
  193.0260  172.5890  143.6780 C   0  0  0  0  0  2  0  0  0  0  0  0
  191.9390  171.6650  143.9580 N   0  0  0  0  0  2  0  0  0  0  0  0
  190.6920  172.3690  143.7070 C   0  0  0  0  0  2  0  0  0  0  0  0
  189.7900  171.5400  142.8030 C   0  0  0  0  0  2  0  0  0  0  0  0
  190.5020  172.4340  140.7090 O   0  0  0  0  0  0  0  0  0  0  0  0
  190.8180  170.1800  140.9830 O   0  0  0  0  0  1  0  0  0  0  0  0
  190.3770  171.4150  141.4390 C   0  0  0  0  0  0  0  0  0  0  0  0
  187.9300  176.4450  145.9900 O   0  0  0  0  0  0  0  0  0  0  0  0
  185.8960  179.0850  147.6430 C   0  0  0  0  0  3  0  0  0  0  0  0
  187.0090  178.3540  147.2140 C   0  0  0  0  0  3  0  0  0  0  0  0
  186.8380  177.2000  146.4320 C   0  0  0  0  0  0  0  0  0  0  0  0
  185.5480  176.7900  146.0820 C   0  0  0  0  0  3  0  0  0  0  0  0
  184.4360  177.5200  146.5130 C   0  0  0  0  0  3  0  0  0  0  0  0
  184.6100  178.6660  147.2930 C   0  0  0  0  0  3  0  0  0  0  0  0
  1 11  1  1  0  0  0
  1 27  1  0  0  0  0
  3  2  2  0  0  0  0
  4  8  1  0  0  0  0
  4  7  1  0  0  0  0
  5  1  1  0  0  0  0
  6  9  1  0  0  0  0
  7 10  1  0  0  0  0
  8  6  1  0  0  0  0
  9  5  2  0  0  0  0
 10  3  2  0  0  0  0
 10  5  1  0  0  0  0
 11 12  3  0  0  0  0
 14 15  1  0  0  0  0
 15 13  1  0  0  0  0
 16 12  1  6  0  0  0
 16 18  1  0  0  0  0
 17 19  1  1  0  0  0
 17 14  1  0  0  0  0
 17 16  1  0  0  0  0
 18 13  1  0  0  0  0
 19 20  1  0  0  0  0
 20 21  1  0  0  0  0
 22 21  1  0  0  0  0
 23 22  1  0  0  0  0
 24 26  2  0  0  0  0
 25 26  1  0  0  0  0
 26 23  1  0  0  0  0
 27 30  1  0  0  0  0
 29 28  2  0  0  0  0
 30 29  1  0  0  0  0
 31 30  2  0  0  0  0
 31 32  1  0  0  0  0
 32 33  2  0  0  0  0
 33 28  1  0  0  0  0
M  END
>  <MODEL>
8

>  <REMARK>
 VINA RESULT:      -6.5      2.820      7.773
  Name = 
  11 active torsions:
  status: ('A' for Active; 'I' for Inactive)
    1  A    between atoms: C_1  and  C_11
    2  A    between atoms: O_3  and  C_10
    3  A    between atoms: O_3  and  C_11
    4  A    between atoms: C_4  and  C_22
    5  A    between atoms: C_4  and  C_25
    6  A    between atoms: C_11  and  C_18
    7  A    between atoms: C_12  and  N_21
    8  A    between atoms: C_12  and  C_26
    9  A    between atoms: C_15  and  C_27
   10  A    between atoms: C_19  and  C_26
   11  A    between atoms: N_21  and  C_22
                            x       y       z     vdW  Elec       q    Type
                         _______ _______ _______ _____ _____    ______ ____

>  <TORSDO>
F 11

$$$$
=
 OpenBabel11062421153D

 33 35  0  0  1  0  0  0  0  0999 V2000
  188.8050  177.6670  144.5770 C   0  0  2  0  0  3  0  0  0  0  0  0
  185.8950  179.8110  143.7230 O   0  0  0  0  0  0  0  0  0  0  0  0
  186.5290  178.9030  143.1710 C   0  0  0  0  0  0  0  0  0  0  0  0
  186.6940  176.7230  140.6120 O   0  0  0  0  0  0  0  0  0  0  0  0
  188.1160  177.0810  143.3770 C   0  0  0  0  0  0  0  0  0  0  0  0
  187.7650  175.0390  141.9050 C   0  0  0  0  0  2  0  0  0  0  0  0
  187.2370  177.9170  141.0930 C   0  0  0  0  0  2  0  0  0  0  0  0
  187.7530  175.8100  140.5960 C   0  0  0  0  0  2  0  0  0  0  0  0
  188.4030  175.8160  143.0230 C   0  0  0  0  0  3  0  0  0  0  0  0
  187.2000  177.9440  142.5900 C   0  0  0  0  0  0  0  0  0  0  0  0
  190.2470  177.3930  144.5280 C   0  0  0  0  0  0  0  0  0  0  0  0
  191.4340  177.1840  144.4860 C   0  0  0  0  0  0  0  0  0  0  0  0
  194.7200  176.1440  142.9210 C   0  0  0  0  0  2  0  0  0  0  0  0
  194.7640  175.5330  145.3350 C   0  0  0  0  0  2  0  0  0  0  0  0
  195.0690  175.0520  143.9220 C   0  0  0  0  0  2  0  0  0  0  0  0
  192.8810  176.9520  144.4320 C   0  0  1  0  0  3  0  0  0  0  0  0
  193.2870  175.9000  145.4760 C   0  0  2  0  0  3  0  0  0  0  0  0
  193.2360  176.4800  143.0220 C   0  0  0  0  0  2  0  0  0  0  0  0
  193.0430  176.4160  146.8880 C   0  0  0  0  0  2  0  0  0  0  0  0
  191.7930  175.7790  147.4680 C   0  0  0  0  0  2  0  0  0  0  0  0
  191.5750  174.4830  146.8470 N   0  0  0  0  0  2  0  0  0  0  0  0
  190.2230  174.4770  146.3120 C   0  0  0  0  0  2  0  0  0  0  0  0
  190.0220  173.2780  145.3960 C   0  0  0  0  0  2  0  0  0  0  0  0
  191.0860  173.8770  143.3460 O   0  0  0  0  0  0  0  0  0  0  0  0
  192.2100  172.3530  144.6380 O   0  0  0  0  0  1  0  0  0  0  0  0
  191.1240  173.1830  144.3970 C   0  0  0  0  0  0  0  0  0  0  0  0
  188.2430  177.1500  145.7820 O   0  0  0  0  0  0  0  0  0  0  0  0
  185.6070  179.0660  147.5770 C   0  0  0  0  0  3  0  0  0  0  0  0
  186.8630  178.6930  147.0890 C   0  0  0  0  0  3  0  0  0  0  0  0
  186.9990  177.5510  146.2830 C   0  0  0  0  0  0  0  0  0  0  0  0
  185.8680  176.7920  145.9690 C   0  0  0  0  0  3  0  0  0  0  0  0
  184.6120  177.1630  146.4590 C   0  0  0  0  0  3  0  0  0  0  0  0
  184.4820  178.2990  147.2620 C   0  0  0  0  0  3  0  0  0  0  0  0
  1 11  1  6  0  0  0
  1 27  1  0  0  0  0
  3  2  2  0  0  0  0
  4  7  1  0  0  0  0
  5  1  1  0  0  0  0
  6  9  1  0  0  0  0
  7 10  1  0  0  0  0
  8  4  1  0  0  0  0
  8  6  1  0  0  0  0
  9  5  2  0  0  0  0
 10  3  2  0  0  0  0
 10  5  1  0  0  0  0
 12 11  3  0  0  0  0
 13 18  1  0  0  0  0
 13 15  1  0  0  0  0
 14 17  1  0  0  0  0
 15 14  1  0  0  0  0
 16 12  1  6  0  0  0
 16 17  1  0  0  0  0
 17 19  1  1  0  0  0
 18 16  1  0  0  0  0
 19 20  1  0  0  0  0
 21 20  1  0  0  0  0
 22 21  1  0  0  0  0
 23 22  1  0  0  0  0
 24 26  2  0  0  0  0
 26 25  1  0  0  0  0
 26 23  1  0  0  0  0
 27 30  1  0  0  0  0
 29 28  2  0  0  0  0
 30 29  1  0  0  0  0
 31 30  2  0  0  0  0
 31 32  1  0  0  0  0
 32 33  2  0  0  0  0
 33 28  1  0  0  0  0
M  END
>  <MODEL>
9

>  <REMARK>
 VINA RESULT:      -6.4      2.598      7.867
  Name = 
  11 active torsions:
  status: ('A' for Active; 'I' for Inactive)
    1  A    between atoms: C_1  and  C_11
    2  A    between atoms: O_3  and  C_10
    3  A    between atoms: O_3  and  C_11
    4  A    between atoms: C_4  and  C_22
    5  A    between atoms: C_4  and  C_25
    6  A    between atoms: C_11  and  C_18
    7  A    between atoms: C_12  and  N_21
    8  A    between atoms: C_12  and  C_26
    9  A    between atoms: C_15  and  C_27
   10  A    between atoms: C_19  and  C_26
   11  A    between atoms: N_21  and  C_22
                            x       y       z     vdW  Elec       q    Type
                         _______ _______ _______ _____ _____    ______ ____

>  <TORSDO>
F 11

$$$$
