=
 OpenBabel11062421173D

 56 66  0  0  1  0  0  0  0  0999 V2000
  189.1240  172.3990  141.1800 C   0  0  2  0  0  3  0  0  0  0  0  0
  191.6660  172.5720  136.5760 C   0  0  0  0  0  2  0  0  0  0  0  0
  190.6950  170.4320  140.9080 C   0  0  1  0  0  3  0  0  0  0  0  0
  191.6510  172.8240  141.7710 C   0  0  0  0  0  2  0  0  0  0  0  0
  189.4050  171.8790  142.5810 C   0  0  0  0  0  2  0  0  0  0  0  0
  192.7200  169.4900  139.4880 C   0  0  2  0  0  0  0  0  0  0  0  0
  193.1180  172.3900  141.5160 C   0  0  1  0  0  0  0  0  0  0  0  0
  190.4930  171.8180  141.5280 C   0  0  1  0  0  0  0  0  0  0  0  0
  194.1520  171.9300  138.9640 O   0  0  0  0  0  1  0  0  0  0  0  0
  191.5890  170.5150  139.6710 C   0  0  2  0  0  0  0  0  0  0  0  0
  193.7790  169.4940  140.5720 C   0  0  2  0  0  3  0  0  0  0  0  0
  193.2080  171.1690  140.1500 P   0  0  0  0  0  0  0  0  0  0  0  0
  191.9260  170.1140  135.8610 C   0  0  0  0  0  2  0  0  0  0  0  0
  192.6680  170.2080  137.1230 N   0  0  0  0  0  0  0  0  0  0  0  0
  191.7860  171.3280  137.4210 C   0  0  2  0  0  0  0  0  0  0  0  0
  191.0410  171.2850  136.0990 C   0  0  1  0  0  0  0  0  0  0  0  0
  191.1680  169.5280  141.8640 O   0  0  0  0  0  1  0  0  0  0  0  0
  190.9510  171.1610  138.5550 O   0  0  0  0  0  0  0  0  0  0  0  0
  193.1820  169.3040  138.0720 C   0  0  0  0  0  0  0  0  0  0  0  0
  189.6880  171.0430  136.3570 O   0  0  0  0  0  1  0  0  0  0  0  0
  193.8520  168.2990  137.7160 O   0  0  0  0  0  0  0  0  0  0  0  0
  193.2060  174.5040  140.2310 O   0  0  0  0  0  0  0  0  0  0  0  0
  195.8110  175.0650  141.5480 C   0  0  0  0  0  2  0  0  0  0  0  0
  194.5570  175.9250  141.6100 C   0  0  0  0  0  2  0  0  0  0  0  0
  193.8860  173.6780  141.1440 C   0  0  1  0  0  0  0  0  0  0  0  0
  193.3560  174.9930  141.5500 C   0  0  2  0  0  3  0  0  0  0  0  0
  195.3920  173.7260  140.9720 C   0  0  0  0  0  2  0  0  0  0  0  0
  193.7410  171.8010  142.6710 O   0  0  0  0  0  0  0  0  0  0  0  0
  193.2320  171.7190  143.9730 C   0  0  0  0  0  0  0  0  0  0  0  0
  192.5690  170.7220  144.3620 O   0  0  0  0  0  0  0  0  0  0  0  0
  193.3940  172.8880  144.8820 C   0  0  0  0  0  2  0  0  0  0  0  0
  194.8000  173.4480  144.7770 C   0  0  0  0  0  1  0  0  0  0  0  0
  195.0980  169.3190  140.0660 O   0  0  0  0  0  0  0  0  0  0  0  0
  197.3730  169.2490  140.4620 O   0  0  0  0  0  0  0  0  0  0  0  0
  196.1980  169.2210  140.9170 C   0  0  0  0  0  0  0  0  0  0  0  0
  195.9980  169.0700  142.2790 O   0  0  0  0  0  1  0  0  0  0  0  0
  189.0780  173.9200  141.1900 C   0  0  0  0  0  2  0  0  0  0  0  0
  188.0670  174.3850  142.2200 C   0  0  0  0  0  2  0  0  0  0  0  0
  190.2380  174.1400  146.0390 O   0  0  0  0  0  1  0  0  0  0  0  0
  187.6160  177.1530  144.7800 O   0  0  0  0  0  0  0  0  0  0  0  0
  189.8250  175.0370  143.8830 C   0  0  0  0  0  2  0  0  0  0  0  0
  189.4560  175.0820  145.3630 C   0  0  2  0  0  3  0  0  0  0  0  0
  188.4010  177.3740  145.9190 C   0  0  0  0  0  2  0  0  0  0  0  0
  189.0210  176.5830  142.1820 O   0  0  0  0  0  0  0  0  0  0  0  0
  190.2390  176.5150  147.3370 C   0  0  0  0  0  1  0  0  0  0  0  0
  190.4560  178.1380  143.4220 C   0  0  0  0  0  1  0  0  0  0  0  0
  189.0670  177.8090  142.8980 C   0  0  2  0  0  3  0  0  0  0  0  0
  189.6700  176.5080  145.9250 C   0  0  1  0  0  3  0  0  0  0  0  0
  188.6590  175.5180  143.0300 C   0  0  1  0  0  3  0  0  0  0  0  0
  187.9060  178.1720  143.8570 C   0  0  1  0  0  3  0  0  0  0  0  0
  186.6630  178.4580  143.0350 C   0  0  0  0  0  2  0  0  0  0  0  0
  185.6740  179.3040  143.8220 C   0  0  0  0  0  2  0  0  0  0  0  0
  184.4550  178.4940  144.2500 C   0  0  0  0  0  2  0  0  0  0  0  0
  184.0260  178.8600  145.6630 C   0  0  0  0  0  3  0  0  0  0  0  0
  184.4160  177.7460  146.6150 C   0  0  0  0  0  2  0  0  0  0  0  0
  185.2550  179.0040  146.5310 C   0  0  0  0  0  2  0  0  0  0  0  0
  1 37  1  1  0  0  0
  1  8  1  0  0  0  0
  1  5  1  0  0  0  0
  3  8  1  0  0  0  0
  3 17  1  1  0  0  0
  6 19  1  6  0  0  0
  6 10  1  0  0  0  0
  6 12  1  0  0  0  0
  6 11  1  0  0  0  0
  7  4  1  0  0  0  0
  7 28  1  1  0  0  0
  8  4  1  1  0  0  0
  8  5  1  0  0  0  0
  9 12  1  0  0  0  0
 10 18  1  6  0  0  0
 10 12  1  0  0  0  0
 10  3  1  0  0  0  0
 11 33  1  6  0  0  0
 12 11  1  0  0  0  0
 12  7  1  0  0  0  0
 13 16  1  0  0  0  0
 13 14  1  0  0  0  0
 14 15  1  0  0  0  0
 14 19  1  0  0  0  0
 15  2  1  1  0  0  0
 15 18  1  0  0  0  0
 16 20  1  6  0  0  0
 16  2  1  0  0  0  0
 16 15  1  0  0  0  0
 21 19  2  0  0  0  0
 22 25  1  0  0  0  0
 22 26  1  0  0  0  0
 23 24  1  0  0  0  0
 25 27  1  6  0  0  0
 25  7  1  0  0  0  0
 25 26  1  0  0  0  0
 26 24  1  6  0  0  0
 27 23  1  0  0  0  0
 28 29  1  0  0  0  0
 29 30  2  0  0  0  0
 29 31  1  0  0  0  0
 32 31  1  0  0  0  0
 33 35  1  0  0  0  0
 34 35  2  0  0  0  0
 35 36  1  0  0  0  0
 37 38  1  0  0  0  0
 40 43  1  0  0  0  0
 41 42  1  0  0  0  0
 42 48  1  0  0  0  0
 42 39  1  1  0  0  0
 43 48  1  0  0  0  0
 44 47  1  0  0  0  0
 44 49  1  0  0  0  0
 47 46  1  1  0  0  0
 47 50  1  0  0  0  0
 48 45  1  1  0  0  0
 49 38  1  6  0  0  0
 49 41  1  0  0  0  0
 50 51  1  6  0  0  0
 50 40  1  0  0  0  0
 51 52  1  0  0  0  0
 52 53  1  0  0  0  0
 53 54  1  0  0  0  0
 54 56  1  0  0  0  0
 54 55  1  0  0  0  0
 56 55  1  0  0  0  0
M  END
>  <MODEL>
1

>  <REMARK>
 VINA RESULT:      -6.9      0.000      0.000
  Name = 
  13 active torsions:
  status: ('A' for Active; 'I' for Inactive)
    1  A    between atoms: C_1  and  C_48
    2  A    between atoms: O_6  and  C_14
    3  A    between atoms: O_6  and  C_16
    4  A    between atoms: C_11  and  C_16
    5  A    between atoms: C_12  and  C_55
    6  A    between atoms: C_12  and  C_56
    7  A    between atoms: C_14  and  C_21
    8  A    between atoms: O_15  and  C_24
    9  A    between atoms: O_15  and  C_47
   10  A    between atoms: C_23  and  C_48
   11  A    between atoms: C_23  and  C_50
   12  A    between atoms: C_27  and  C_36
   13  A    between atoms: C_36  and  C_56
                            x       y       z     vdW  Elec       q    Type
                         _______ _______ _______ _____ _____    ______ ____

>  <TORSDO>
F 13

$$$$
=
 OpenBabel11062421173D

 56 66  0  0  1  0  0  0  0  0999 V2000
  189.8080  174.0020  140.4950 C   0  0  2  0  0  3  0  0  0  0  0  0
  194.2850  174.4440  143.2250 C   0  0  0  0  0  2  0  0  0  0  0  0
  191.8380  173.6950  139.0130 C   0  0  1  0  0  3  0  0  0  0  0  0
  190.8980  171.6080  140.4790 C   0  0  0  0  0  2  0  0  0  0  0  0
  189.3310  173.2430  139.2680 C   0  0  0  0  0  2  0  0  0  0  0  0
  194.4490  173.2630  139.0220 C   0  0  2  0  0  0  0  0  0  0  0  0
  192.1970  170.7930  140.2490 C   0  0  1  0  0  0  0  0  0  0  0  0
  190.7270  172.9970  139.8040 C   0  0  1  0  0  0  0  0  0  0  0  0
  194.6710  171.5320  141.3090 O   0  0  0  0  0  1  0  0  0  0  0  0
  193.1620  173.6390  139.7740 C   0  0  2  0  0  0  0  0  0  0  0  0
  194.4530  171.8830  138.3960 C   0  0  2  0  0  3  0  0  0  0  0  0
  193.6350  171.9080  140.0210 P   0  0  0  0  0  0  0  0  0  0  0  0
  195.9510  175.5510  141.6060 C   0  0  0  0  0  2  0  0  0  0  0  0
  195.5990  174.2840  140.9570 N   0  0  0  0  0  0  0  0  0  0  0  0
  194.3610  174.3740  141.7200 C   0  0  2  0  0  0  0  0  0  0  0  0
  194.7270  175.6560  142.4450 C   0  0  1  0  0  0  0  0  0  0  0  0
  191.9290  173.1700  137.7200 O   0  0  0  0  0  1  0  0  0  0  0  0
  193.1760  174.4710  140.9480 O   0  0  0  0  0  0  0  0  0  0  0  0
  195.7200  173.7310  139.6680 C   0  0  0  0  0  0  0  0  0  0  0  0
  193.7890  176.6390  142.1160 O   0  0  0  0  0  1  0  0  0  0  0  0
  196.8070  173.7900  139.0360 O   0  0  0  0  0  0  0  0  0  0  0  0
  191.9690  168.5860  141.3460 O   0  0  0  0  0  0  0  0  0  0  0  0
  193.2300  169.7810  143.7580 C   0  0  0  0  0  2  0  0  0  0  0  0
  193.7430  168.5910  142.9580 C   0  0  0  0  0  2  0  0  0  0  0  0
  192.3810  169.9210  141.5100 C   0  0  1  0  0  0  0  0  0  0  0  0
  193.3570  168.8140  141.5040 C   0  0  2  0  0  3  0  0  0  0  0  0
  192.1530  170.4380  142.9180 C   0  0  0  0  0  2  0  0  0  0  0  0
  192.1250  169.9300  139.1010 O   0  0  0  0  0  0  0  0  0  0  0  0
  191.0200  169.6920  138.2720 C   0  0  0  0  0  0  0  0  0  0  0  0
  190.0350  169.0130  138.6630 O   0  0  0  0  0  0  0  0  0  0  0  0
  191.0650  170.1700  136.8620 C   0  0  0  0  0  2  0  0  0  0  0  0
  189.7260  170.7570  136.4600 C   0  0  0  0  0  1  0  0  0  0  0  0
  195.7030  171.2150  138.5240 O   0  0  0  0  0  0  0  0  0  0  0  0
  197.0930  169.6420  137.5580 O   0  0  0  0  0  1  0  0  0  0  0  0
  196.3410  170.6440  137.4230 C   0  0  0  0  0  0  0  0  0  0  0  0
  196.1620  171.1980  136.1650 O   0  0  0  0  0  0  0  0  0  0  0  0
  189.1240  173.4580  141.7410 C   0  0  0  0  0  2  0  0  0  0  0  0
  188.2780  174.5500  142.3670 C   0  0  0  0  0  2  0  0  0  0  0  0
  191.5630  173.2470  144.9880 O   0  0  0  0  0  1  0  0  0  0  0  0
  188.7880  176.3030  145.6970 O   0  0  0  0  0  0  0  0  0  0  0  0
  190.5050  174.7590  143.4990 C   0  0  0  0  0  2  0  0  0  0  0  0
  190.6390  174.2960  144.9470 C   0  0  2  0  0  3  0  0  0  0  0  0
  189.9090  176.2020  146.5310 C   0  0  0  0  0  2  0  0  0  0  0  0
  189.2500  176.7060  142.7520 O   0  0  0  0  0  0  0  0  0  0  0  0
  192.0750  175.0700  146.9230 C   0  0  0  0  0  1  0  0  0  0  0  0
  191.0660  177.8800  143.9070 C   0  0  0  0  0  1  0  0  0  0  0  0
  189.5710  177.6360  143.7760 C   0  0  2  0  0  3  0  0  0  0  0  0
  191.0780  175.4760  145.8470 C   0  0  1  0  0  3  0  0  0  0  0  0
  189.1430  175.4010  143.2710 C   0  0  1  0  0  3  0  0  0  0  0  0
  188.8000  177.5830  145.1190 C   0  0  1  0  0  3  0  0  0  0  0  0
  187.3680  178.0260  144.8780 C   0  0  0  0  0  2  0  0  0  0  0  0
  186.4220  176.8350  144.8900 C   0  0  0  0  0  2  0  0  0  0  0  0
  185.6310  176.7320  143.5900 C   0  0  0  0  0  2  0  0  0  0  0  0
  185.3940  178.1080  142.9860 C   0  0  0  0  0  3  0  0  0  0  0  0
  184.1810  178.0600  142.0770 C   0  0  0  0  0  2  0  0  0  0  0  0
  184.0640  178.6390  143.4720 C   0  0  0  0  0  2  0  0  0  0  0  0
  1 37  1  1  0  0  0
  3 17  1  6  0  0  0
  3 10  1  0  0  0  0
  3  8  1  0  0  0  0
  5  1  1  0  0  0  0
  6 19  1  1  0  0  0
  6 10  1  0  0  0  0
  6 12  1  0  0  0  0
  7 28  1  6  0  0  0
  7  4  1  0  0  0  0
  7 25  1  0  0  0  0
  8  5  1  6  0  0  0
  8  4  1  0  0  0  0
  8  1  1  0  0  0  0
 10 12  1  0  0  0  0
 10 18  1  1  0  0  0
 11 33  1  1  0  0  0
 11  6  1  0  0  0  0
 11 12  1  0  0  0  0
 12  7  1  0  0  0  0
 12  9  1  0  0  0  0
 13 16  1  0  0  0  0
 14 13  1  0  0  0  0
 14 15  1  0  0  0  0
 15 16  1  0  0  0  0
 15  2  1  1  0  0  0
 16 20  1  6  0  0  0
 16  2  1  0  0  0  0
 18 15  1  0  0  0  0
 19 14  1  0  0  0  0
 21 19  2  0  0  0  0
 22 26  1  0  0  0  0
 22 25  1  0  0  0  0
 24 23  1  0  0  0  0
 25 27  1  1  0  0  0
 26 25  1  0  0  0  0
 26 24  1  1  0  0  0
 27 23  1  0  0  0  0
 29 30  2  0  0  0  0
 29 28  1  0  0  0  0
 31 29  1  0  0  0  0
 32 31  1  0  0  0  0
 35 34  1  0  0  0  0
 35 33  1  0  0  0  0
 36 35  2  0  0  0  0
 37 38  1  0  0  0  0
 40 43  1  0  0  0  0
 41 42  1  0  0  0  0
 42 39  1  6  0  0  0
 42 48  1  0  0  0  0
 44 49  1  0  0  0  0
 44 47  1  0  0  0  0
 47 46  1  1  0  0  0
 47 50  1  0  0  0  0
 48 43  1  0  0  0  0
 48 45  1  1  0  0  0
 49 38  1  6  0  0  0
 49 41  1  0  0  0  0
 50 51  1  6  0  0  0
 50 40  1  0  0  0  0
 51 52  1  0  0  0  0
 53 52  1  0  0  0  0
 54 56  1  0  0  0  0
 54 53  1  0  0  0  0
 55 54  1  0  0  0  0
 55 56  1  0  0  0  0
M  END
>  <MODEL>
2

>  <REMARK>
 VINA RESULT:      -6.7      2.000      4.683
  Name = 
  13 active torsions:
  status: ('A' for Active; 'I' for Inactive)
    1  A    between atoms: C_1  and  C_48
    2  A    between atoms: O_6  and  C_14
    3  A    between atoms: O_6  and  C_16
    4  A    between atoms: C_11  and  C_16
    5  A    between atoms: C_12  and  C_55
    6  A    between atoms: C_12  and  C_56
    7  A    between atoms: C_14  and  C_21
    8  A    between atoms: O_15  and  C_24
    9  A    between atoms: O_15  and  C_47
   10  A    between atoms: C_23  and  C_48
   11  A    between atoms: C_23  and  C_50
   12  A    between atoms: C_27  and  C_36
   13  A    between atoms: C_36  and  C_56
                            x       y       z     vdW  Elec       q    Type
                         _______ _______ _______ _____ _____    ______ ____

>  <TORSDO>
F 13

$$$$
=
 OpenBabel11062421173D

 56 66  0  0  1  0  0  0  0  0999 V2000
  191.0780  171.1930  143.3940 C   0  0  2  0  0  3  0  0  0  0  0  0
  189.2190  174.3690  139.6340 C   0  0  0  0  0  2  0  0  0  0  0  0
  191.9520  170.5430  141.1090 C   0  0  1  0  0  3  0  0  0  0  0  0
  193.1530  172.5420  142.5040 C   0  0  0  0  0  2  0  0  0  0  0  0
  192.3420  170.3830  143.6340 C   0  0  0  0  0  2  0  0  0  0  0  0
  192.2160  171.3610  138.6060 C   0  0  2  0  0  0  0  0  0  0  0  0
  193.9230  173.0270  141.2490 C   0  0  1  0  0  0  0  0  0  0  0  0
  192.2490  171.2820  142.4180 C   0  0  1  0  0  0  0  0  0  0  0  0
  192.6680  174.1700  139.0340 O   0  0  0  0  0  1  0  0  0  0  0  0
  191.5890  171.5290  139.9990 C   0  0  2  0  0  0  0  0  0  0  0  0
  193.7270  171.4660  138.5590 C   0  0  2  0  0  3  0  0  0  0  0  0
  192.9820  172.6520  139.7210 P   0  0  0  0  0  0  0  0  0  0  0  0
  188.9230  172.8620  137.5700 C   0  0  0  0  0  2  0  0  0  0  0  0
  190.3610  172.8120  137.8550 N   0  0  0  0  0  0  0  0  0  0  0  0
  189.9790  173.1320  139.2240 C   0  0  2  0  0  0  0  0  0  0  0  0
  188.4920  173.2440  138.9400 C   0  0  1  0  0  0  0  0  0  0  0  0
  193.0150  169.7020  140.7650 O   0  0  0  0  0  1  0  0  0  0  0  0
  190.3050  172.1510  140.1930 O   0  0  0  0  0  0  0  0  0  0  0  0
  191.4450  171.9940  137.4840 C   0  0  0  0  0  0  0  0  0  0  0  0
  187.8180  172.2880  139.7070 O   0  0  0  0  0  1  0  0  0  0  0  0
  191.6400  171.6810  136.2810 O   0  0  0  0  0  0  0  0  0  0  0  0
  192.9030  175.2330  141.7170 O   0  0  0  0  0  0  0  0  0  0  0  0
  195.6270  176.4080  141.5270 C   0  0  0  0  0  2  0  0  0  0  0  0
  194.6960  176.4600  142.7300 C   0  0  0  0  0  2  0  0  0  0  0  0
  194.0970  174.5530  141.4190 C   0  0  1  0  0  0  0  0  0  0  0  0
  193.8810  175.1760  142.7380 C   0  0  2  0  0  3  0  0  0  0  0  0
  195.0500  175.3780  140.5750 C   0  0  0  0  0  2  0  0  0  0  0  0
  195.2250  172.4280  141.1200 O   0  0  0  0  0  0  0  0  0  0  0  0
  195.9900  171.8120  142.1190 C   0  0  0  0  0  0  0  0  0  0  0  0
  195.9530  170.5670  142.3060 O   0  0  0  0  0  0  0  0  0  0  0  0
  196.7840  172.6670  143.0450 C   0  0  0  0  0  2  0  0  0  0  0  0
  197.8170  173.4640  142.2710 C   0  0  0  0  0  1  0  0  0  0  0  0
  194.2030  172.1770  137.4220 O   0  0  0  0  0  0  0  0  0  0  0  0
  195.9590  173.2490  136.3700 O   0  0  0  0  0  0  0  0  0  0  0  0
  195.5630  172.4120  137.2250 C   0  0  0  0  0  0  0  0  0  0  0  0
  196.4940  171.7010  137.9660 O   0  0  0  0  0  1  0  0  0  0  0  0
  191.0070  172.3500  144.3800 C   0  0  0  0  0  2  0  0  0  0  0  0
  189.7100  173.1070  144.1740 C   0  0  0  0  0  2  0  0  0  0  0  0
  191.5130  174.9160  147.7570 O   0  0  0  0  0  1  0  0  0  0  0  0
  188.3670  176.4260  145.4400 O   0  0  0  0  0  0  0  0  0  0  0  0
  191.0960  174.7770  145.4260 C   0  0  0  0  0  2  0  0  0  0  0  0
  190.5910  175.2900  146.7730 C   0  0  2  0  0  3  0  0  0  0  0  0
  188.9670  177.2610  146.3910 C   0  0  0  0  0  2  0  0  0  0  0  0
  190.1030  175.2880  143.2630 O   0  0  0  0  0  0  0  0  0  0  0  0
  190.8180  177.5190  148.0130 C   0  0  0  0  0  1  0  0  0  0  0  0
  190.9980  177.5130  143.7730 C   0  0  0  0  0  1  0  0  0  0  0  0
  189.7840  176.6610  143.4360 C   0  0  2  0  0  3  0  0  0  0  0  0
  190.4010  176.8240  146.7250 C   0  0  1  0  0  3  0  0  0  0  0  0
  189.9320  174.5750  144.4650 C   0  0  1  0  0  3  0  0  0  0  0  0
  188.4860  177.0500  144.1870 C   0  0  1  0  0  3  0  0  0  0  0  0
  187.2920  176.6660  143.3320 C   0  0  0  0  0  2  0  0  0  0  0  0
  186.3480  177.8460  143.1560 C   0  0  0  0  0  2  0  0  0  0  0  0
  185.1450  177.7480  144.0870 C   0  0  0  0  0  2  0  0  0  0  0  0
  185.3700  178.5570  145.3560 C   0  0  0  0  0  3  0  0  0  0  0  0
  184.0680  178.6640  146.1270 C   0  0  0  0  0  2  0  0  0  0  0  0
  185.1280  177.6710  146.5570 C   0  0  0  0  0  2  0  0  0  0  0  0
  1  5  1  0  0  0  0
  1 37  1  1  0  0  0
  3 17  1  6  0  0  0
  3  8  1  0  0  0  0
  6 19  1  6  0  0  0
  6 12  1  0  0  0  0
  6 10  1  0  0  0  0
  7 28  1  6  0  0  0
  7 25  1  0  0  0  0
  7  4  1  0  0  0  0
  8  4  1  6  0  0  0
  8  1  1  0  0  0  0
  8  5  1  0  0  0  0
  9 12  1  0  0  0  0
 10 18  1  1  0  0  0
 10  3  1  0  0  0  0
 11 33  1  6  0  0  0
 11  6  1  0  0  0  0
 11 12  1  0  0  0  0
 12 10  1  0  0  0  0
 12  7  1  0  0  0  0
 13 14  1  0  0  0  0
 13 16  1  0  0  0  0
 14 15  1  0  0  0  0
 15  2  1  1  0  0  0
 15 18  1  0  0  0  0
 16 15  1  0  0  0  0
 16  2  1  0  0  0  0
 16 20  1  1  0  0  0
 19 14  1  0  0  0  0
 21 19  2  0  0  0  0
 22 26  1  0  0  0  0
 23 24  1  0  0  0  0
 25 27  1  6  0  0  0
 25 22  1  0  0  0  0
 25 26  1  0  0  0  0
 26 24  1  6  0  0  0
 27 23  1  0  0  0  0
 28 29  1  0  0  0  0
 29 30  2  0  0  0  0
 29 31  1  0  0  0  0
 32 31  1  0  0  0  0
 34 35  2  0  0  0  0
 35 33  1  0  0  0  0
 35 36  1  0  0  0  0
 38 37  1  0  0  0  0
 40 43  1  0  0  0  0
 41 42  1  0  0  0  0
 42 39  1  1  0  0  0
 43 48  1  0  0  0  0
 44 47  1  0  0  0  0
 44 49  1  0  0  0  0
 47 46  1  1  0  0  0
 47 50  1  0  0  0  0
 48 42  1  0  0  0  0
 48 45  1  1  0  0  0
 49 38  1  6  0  0  0
 49 41  1  0  0  0  0
 50 51  1  6  0  0  0
 50 40  1  0  0  0  0
 52 51  1  0  0  0  0
 52 53  1  0  0  0  0
 53 54  1  0  0  0  0
 54 55  1  0  0  0  0
 54 56  1  0  0  0  0
 55 56  1  0  0  0  0
M  END
>  <MODEL>
3

>  <REMARK>
 VINA RESULT:      -6.7      1.881      2.774
  Name = 
  13 active torsions:
  status: ('A' for Active; 'I' for Inactive)
    1  A    between atoms: C_1  and  C_48
    2  A    between atoms: O_6  and  C_14
    3  A    between atoms: O_6  and  C_16
    4  A    between atoms: C_11  and  C_16
    5  A    between atoms: C_12  and  C_55
    6  A    between atoms: C_12  and  C_56
    7  A    between atoms: C_14  and  C_21
    8  A    between atoms: O_15  and  C_24
    9  A    between atoms: O_15  and  C_47
   10  A    between atoms: C_23  and  C_48
   11  A    between atoms: C_23  and  C_50
   12  A    between atoms: C_27  and  C_36
   13  A    between atoms: C_36  and  C_56
                            x       y       z     vdW  Elec       q    Type
                         _______ _______ _______ _____ _____    ______ ____

>  <TORSDO>
F 13

$$$$
=
 OpenBabel11062421173D

 56 66  0  0  1  0  0  0  0  0999 V2000
  189.5580  172.3800  141.4610 C   0  0  2  0  0  3  0  0  0  0  0  0
  191.4370  174.1820  136.8880 C   0  0  0  0  0  2  0  0  0  0  0  0
  190.8450  170.5920  140.2120 C   0  0  1  0  0  3  0  0  0  0  0  0
  192.1750  172.4160  141.7250 C   0  0  0  0  0  2  0  0  0  0  0  0
  189.9710  171.3480  142.4980 C   0  0  0  0  0  2  0  0  0  0  0  0
  192.5340  170.1680  138.2200 C   0  0  2  0  0  0  0  0  0  0  0  0
  193.5340  172.0400  141.0790 C   0  0  1  0  0  0  0  0  0  0  0  0
  190.8880  171.6420  141.3280 C   0  0  1  0  0  0  0  0  0  0  0  0
  194.1440  172.5450  138.4030 O   0  0  0  0  0  1  0  0  0  0  0  0
  191.5620  171.0990  138.9620 C   0  0  2  0  0  0  0  0  0  0  0  0
  193.7270  169.7010  139.0290 C   0  0  2  0  0  3  0  0  0  0  0  0
  193.2950  171.4360  139.3640 P   0  0  0  0  0  0  0  0  0  0  0  0
  191.3180  172.1780  135.2790 C   0  0  0  0  0  2  0  0  0  0  0  0
  192.2350  171.7410  136.3380 N   0  0  0  0  0  0  0  0  0  0  0  0
  191.5340  172.7040  137.1770 C   0  0  2  0  0  0  0  0  0  0  0  0
  190.6120  173.2110  136.0820 C   0  0  1  0  0  0  0  0  0  0  0  0
  191.3420  169.3670  140.6680 O   0  0  0  0  0  1  0  0  0  0  0  0
  190.8520  172.1570  138.2920 O   0  0  0  0  0  0  0  0  0  0  0  0
  192.7710  170.5170  136.7800 C   0  0  0  0  0  0  0  0  0  0  0  0
  189.2900  172.9580  136.4590 O   0  0  0  0  0  1  0  0  0  0  0  0
  193.2680  169.6950  135.9670 O   0  0  0  0  0  0  0  0  0  0  0  0
  195.3880  173.3460  142.0690 O   0  0  0  0  0  0  0  0  0  0  0  0
  194.8650  175.4320  140.0170 C   0  0  0  0  0  2  0  0  0  0  0  0
  196.1670  174.6710  140.2290 C   0  0  0  0  0  2  0  0  0  0  0  0
  194.3820  173.3310  141.0870 C   0  0  1  0  0  0  0  0  0  0  0  0
  195.8090  173.2760  140.7200 C   0  0  2  0  0  3  0  0  0  0  0  0
  193.8020  174.7070  140.8170 C   0  0  0  0  0  2  0  0  0  0  0  0
  194.2410  171.0220  141.8080 O   0  0  0  0  0  0  0  0  0  0  0  0
  193.8460  170.3790  142.9890 C   0  0  0  0  0  0  0  0  0  0  0  0
  193.3720  169.2130  142.9800 O   0  0  0  0  0  0  0  0  0  0  0  0
  193.8970  171.1380  144.2700 C   0  0  0  0  0  2  0  0  0  0  0  0
  195.2700  171.0170  144.9020 C   0  0  0  0  0  1  0  0  0  0  0  0
  194.9350  169.6670  138.2760 O   0  0  0  0  0  0  0  0  0  0  0  0
  196.1700  168.7240  139.9860 O   0  0  0  0  0  1  0  0  0  0  0  0
  196.0870  169.0610  138.7740 C   0  0  0  0  0  0  0  0  0  0  0  0
  197.1650  168.8430  137.9310 O   0  0  0  0  0  0  0  0  0  0  0  0
  189.6850  173.7800  142.0430 C   0  0  0  0  0  2  0  0  0  0  0  0
  189.1770  173.7790  143.4710 C   0  0  0  0  0  2  0  0  0  0  0  0
  193.3870  174.5990  144.4510 O   0  0  0  0  0  1  0  0  0  0  0  0
  190.0070  175.4960  146.7550 O   0  0  0  0  0  0  0  0  0  0  0  0
  191.1930  175.2290  143.8080 C   0  0  0  0  0  2  0  0  0  0  0  0
  192.1310  174.9240  144.9730 C   0  0  2  0  0  3  0  0  0  0  0  0
  191.2390  176.0560  147.1170 C   0  0  0  0  0  2  0  0  0  0  0  0
  188.9290  176.1000  144.0130 O   0  0  0  0  0  0  0  0  0  0  0  0
  193.6090  176.3780  146.4790 C   0  0  0  0  0  1  0  0  0  0  0  0
  190.1440  178.1030  144.7390 C   0  0  0  0  0  1  0  0  0  0  0  0
  189.1030  177.0420  145.0610 C   0  0  2  0  0  3  0  0  0  0  0  0
  192.2090  176.1390  145.9290 C   0  0  1  0  0  3  0  0  0  0  0  0
  189.7470  174.9710  144.2090 C   0  0  1  0  0  3  0  0  0  0  0  0
  189.1070  176.5510  146.5310 C   0  0  1  0  0  3  0  0  0  0  0  0
  187.7080  176.0890  146.8960 C   0  0  0  0  0  2  0  0  0  0  0  0
  186.7680  177.2750  147.0520 C   0  0  0  0  0  2  0  0  0  0  0  0
  185.4300  177.0280  146.3630 C   0  0  0  0  0  2  0  0  0  0  0  0
  185.4210  177.6220  144.9630 C   0  0  0  0  0  3  0  0  0  0  0  0
  184.3550  178.6980  144.8770 C   0  0  0  0  0  2  0  0  0  0  0  0
  185.8120  179.0810  145.0420 C   0  0  0  0  0  2  0  0  0  0  0  0
  1 37  1  1  0  0  0
  1  5  1  0  0  0  0
  3 17  1  1  0  0  0
  3  8  1  0  0  0  0
  6 19  1  6  0  0  0
  6 10  1  0  0  0  0
  6 11  1  0  0  0  0
  6 12  1  0  0  0  0
  7 25  1  0  0  0  0
  7  4  1  0  0  0  0
  7 28  1  1  0  0  0
  8  1  1  0  0  0  0
  8  4  1  1  0  0  0
  8  5  1  0  0  0  0
  9 12  1  0  0  0  0
 10 18  1  6  0  0  0
 10 12  1  0  0  0  0
 10  3  1  0  0  0  0
 11 33  1  6  0  0  0
 11 12  1  0  0  0  0
 12  7  1  0  0  0  0
 13 16  1  0  0  0  0
 13 14  1  0  0  0  0
 14 19  1  0  0  0  0
 14 15  1  0  0  0  0
 15  2  1  1  0  0  0
 15 18  1  0  0  0  0
 16 20  1  1  0  0  0
 16  2  1  0  0  0  0
 16 15  1  0  0  0  0
 21 19  2  0  0  0  0
 23 24  1  0  0  0  0
 23 27  1  0  0  0  0
 25 27  1  6  0  0  0
 25 22  1  0  0  0  0
 26 24  1  6  0  0  0
 26 25  1  0  0  0  0
 26 22  1  0  0  0  0
 28 29  1  0  0  0  0
 29 31  1  0  0  0  0
 30 29  2  0  0  0  0
 31 32  1  0  0  0  0
 33 35  1  0  0  0  0
 35 34  1  0  0  0  0
 36 35  2  0  0  0  0
 37 38  1  0  0  0  0
 40 43  1  0  0  0  0
 41 49  1  0  0  0  0
 41 42  1  0  0  0  0
 42 39  1  6  0  0  0
 42 48  1  0  0  0  0
 44 49  1  0  0  0  0
 44 47  1  0  0  0  0
 47 46  1  6  0  0  0
 47 50  1  0  0  0  0
 48 45  1  1  0  0  0
 48 43  1  0  0  0  0
 49 38  1  6  0  0  0
 50 40  1  0  0  0  0
 50 51  1  6  0  0  0
 51 52  1  0  0  0  0
 53 52  1  0  0  0  0
 54 56  1  0  0  0  0
 54 53  1  0  0  0  0
 55 54  1  0  0  0  0
 55 56  1  0  0  0  0
M  END
>  <MODEL>
4

>  <REMARK>
 VINA RESULT:      -6.6      1.572      2.203
  Name = 
  13 active torsions:
  status: ('A' for Active; 'I' for Inactive)
    1  A    between atoms: C_1  and  C_48
    2  A    between atoms: O_6  and  C_14
    3  A    between atoms: O_6  and  C_16
    4  A    between atoms: C_11  and  C_16
    5  A    between atoms: C_12  and  C_55
    6  A    between atoms: C_12  and  C_56
    7  A    between atoms: C_14  and  C_21
    8  A    between atoms: O_15  and  C_24
    9  A    between atoms: O_15  and  C_47
   10  A    between atoms: C_23  and  C_48
   11  A    between atoms: C_23  and  C_50
   12  A    between atoms: C_27  and  C_36
   13  A    between atoms: C_36  and  C_56
                            x       y       z     vdW  Elec       q    Type
                         _______ _______ _______ _____ _____    ______ ____

>  <TORSDO>
F 13

$$$$
=
 OpenBabel11062421173D

 56 66  0  0  1  0  0  0  0  0999 V2000
  193.9750  174.9640  139.9990 C   0  0  2  0  0  3  0  0  0  0  0  0
  189.7750  172.0840  141.3260 C   0  0  0  0  0  2  0  0  0  0  0  0
  192.7410  175.9670  141.9690 C   0  0  1  0  0  3  0  0  0  0  0  0
  194.5180  173.9500  142.3640 C   0  0  0  0  0  2  0  0  0  0  0  0
  194.9700  175.8640  140.7130 C   0  0  0  0  0  2  0  0  0  0  0  0
  190.9140  175.4840  143.8220 C   0  0  2  0  0  0  0  0  0  0  0  0
  193.9950  173.6990  143.8020 C   0  0  1  0  0  0  0  0  0  0  0  0
  193.9290  175.1120  141.5180 C   0  0  1  0  0  0  0  0  0  0  0  0
  191.4440  172.7060  144.3460 O   0  0  0  0  0  1  0  0  0  0  0  0
  191.6150  175.0890  142.5120 C   0  0  2  0  0  0  0  0  0  0  0  0
  191.8090  175.5410  145.0430 C   0  0  2  0  0  3  0  0  0  0  0  0
  192.2240  174.1550  143.9400 P   0  0  0  0  0  0  0  0  0  0  0  0
  188.0170  173.7890  142.1180 C   0  0  0  0  0  2  0  0  0  0  0  0
  189.1330  173.9510  143.0570 N   0  0  0  0  0  0  0  0  0  0  0  0
  189.9610  173.4330  141.9770 C   0  0  2  0  0  0  0  0  0  0  0  0
  188.8150  173.2040  141.0080 C   0  0  1  0  0  0  0  0  0  0  0  0
  193.1550  176.9480  142.8760 O   0  0  0  0  0  1  0  0  0  0  0  0
  190.9540  174.3200  141.4910 O   0  0  0  0  0  0  0  0  0  0  0  0
  189.5370  174.9140  144.0010 C   0  0  0  0  0  0  0  0  0  0  0  0
  189.0290  173.9870  139.8700 O   0  0  0  0  0  1  0  0  0  0  0  0
  188.7230  175.3860  144.8360 O   0  0  0  0  0  0  0  0  0  0  0  0
  193.6340  171.3590  143.0790 O   0  0  0  0  0  0  0  0  0  0  0  0
  195.1920  170.5020  145.4610 C   0  0  0  0  0  2  0  0  0  0  0  0
  195.5200  170.2040  144.0050 C   0  0  0  0  0  2  0  0  0  0  0  0
  194.1890  172.1900  144.0690 C   0  0  1  0  0  0  0  0  0  0  0  0
  195.0450  171.3880  143.1750 C   0  0  2  0  0  3  0  0  0  0  0  0
  194.1240  171.5770  145.4550 C   0  0  0  0  0  2  0  0  0  0  0  0
  194.7170  174.4390  144.8010 O   0  0  0  0  0  0  0  0  0  0  0  0
  195.9640  175.0640  144.6740 C   0  0  0  0  0  0  0  0  0  0  0  0
  196.0660  176.2760  144.3520 O   0  0  0  0  0  0  0  0  0  0  0  0
  197.1970  174.2410  144.8240 C   0  0  0  0  0  2  0  0  0  0  0  0
  197.2040  173.5380  146.1680 C   0  0  0  0  0  1  0  0  0  0  0  0
  191.1890  175.0230  146.2150 O   0  0  0  0  0  0  0  0  0  0  0  0
  191.4560  175.2680  148.4970 O   0  0  0  0  0  1  0  0  0  0  0  0
  191.1160  175.7680  147.3910 C   0  0  0  0  0  0  0  0  0  0  0  0
  190.6440  177.0700  147.3490 O   0  0  0  0  0  0  0  0  0  0  0  0
  194.6690  173.6960  139.5220 C   0  0  0  0  0  2  0  0  0  0  0  0
  195.1920  173.9090  138.1150 C   0  0  0  0  0  2  0  0  0  0  0  0
  193.4580  177.1550  135.7040 O   0  0  0  0  0  1  0  0  0  0  0  0
  191.4530  173.9220  137.4550 O   0  0  0  0  0  0  0  0  0  0  0  0
  194.1470  174.9160  136.0720 C   0  0  0  0  0  2  0  0  0  0  0  0
  193.0290  175.9390  136.2470 C   0  0  2  0  0  3  0  0  0  0  0  0
  190.7720  174.7120  136.5190 C   0  0  0  0  0  2  0  0  0  0  0  0
  193.9740  172.5400  136.5710 O   0  0  0  0  0  0  0  0  0  0  0  0
  190.9570  176.5460  134.8680 C   0  0  0  0  0  1  0  0  0  0  0  0
  192.4930  172.5980  134.6180 C   0  0  0  0  0  1  0  0  0  0  0  0
  192.6670  172.2640  136.0920 C   0  0  2  0  0  3  0  0  0  0  0  0
  191.7330  175.4380  135.5650 C   0  0  1  0  0  3  0  0  0  0  0  0
  194.0440  173.8290  137.1330 C   0  0  1  0  0  3  0  0  0  0  0  0
  191.4440  172.5990  136.9840 C   0  0  1  0  0  3  0  0  0  0  0  0
  191.4330  171.6540  138.1720 C   0  0  0  0  0  2  0  0  0  0  0  0
  191.3280  170.2070  137.7140 C   0  0  0  0  0  2  0  0  0  0  0  0
  192.3790  169.3270  138.3820 C   0  0  0  0  0  2  0  0  0  0  0  0
  192.8060  169.9110  139.7210 C   0  0  0  0  0  3  0  0  0  0  0  0
  193.5670  168.8620  140.5110 C   0  0  0  0  0  2  0  0  0  0  0  0
  194.3160  169.9580  139.7810 C   0  0  0  0  0  2  0  0  0  0  0  0
  1 37  1  1  0  0  0
  1  5  1  0  0  0  0
  1  8  1  0  0  0  0
  3 10  1  0  0  0  0
  3 17  1  1  0  0  0
  4  7  1  0  0  0  0
  6 12  1  0  0  0  0
  6 19  1  1  0  0  0
  6 11  1  0  0  0  0
  7 12  1  0  0  0  0
  7 25  1  0  0  0  0
  7 28  1  1  0  0  0
  8  5  1  1  0  0  0
  8  3  1  0  0  0  0
  8  4  1  0  0  0  0
 10 18  1  6  0  0  0
 10  6  1  0  0  0  0
 10 12  1  0  0  0  0
 11 33  1  1  0  0  0
 12  9  1  0  0  0  0
 12 11  1  0  0  0  0
 13 14  1  0  0  0  0
 14 19  1  0  0  0  0
 15  2  1  1  0  0  0
 15 14  1  0  0  0  0
 16 20  1  6  0  0  0
 16  2  1  0  0  0  0
 16 15  1  0  0  0  0
 16 13  1  0  0  0  0
 18 15  1  0  0  0  0
 19 21  2  0  0  0  0
 22 26  1  0  0  0  0
 22 25  1  0  0  0  0
 24 23  1  0  0  0  0
 25 27  1  1  0  0  0
 26 24  1  1  0  0  0
 26 25  1  0  0  0  0
 27 23  1  0  0  0  0
 29 28  1  0  0  0  0
 29 31  1  0  0  0  0
 30 29  2  0  0  0  0
 31 32  1  0  0  0  0
 33 35  1  0  0  0  0
 35 34  1  0  0  0  0
 36 35  2  0  0  0  0
 38 37  1  0  0  0  0
 41 42  1  0  0  0  0
 41 49  1  0  0  0  0
 42 39  1  6  0  0  0
 43 40  1  0  0  0  0
 44 49  1  0  0  0  0
 47 46  1  6  0  0  0
 47 44  1  0  0  0  0
 47 50  1  0  0  0  0
 48 45  1  1  0  0  0
 48 42  1  0  0  0  0
 48 43  1  0  0  0  0
 49 38  1  1  0  0  0
 50 40  1  0  0  0  0
 50 51  1  1  0  0  0
 52 51  1  0  0  0  0
 52 53  1  0  0  0  0
 53 54  1  0  0  0  0
 54 56  1  0  0  0  0
 54 55  1  0  0  0  0
 56 55  1  0  0  0  0
M  END
>  <MODEL>
5

>  <REMARK>
 VINA RESULT:      -6.6      3.115      8.348
  Name = 
  13 active torsions:
  status: ('A' for Active; 'I' for Inactive)
    1  A    between atoms: C_1  and  C_48
    2  A    between atoms: O_6  and  C_14
    3  A    between atoms: O_6  and  C_16
    4  A    between atoms: C_11  and  C_16
    5  A    between atoms: C_12  and  C_55
    6  A    between atoms: C_12  and  C_56
    7  A    between atoms: C_14  and  C_21
    8  A    between atoms: O_15  and  C_24
    9  A    between atoms: O_15  and  C_47
   10  A    between atoms: C_23  and  C_48
   11  A    between atoms: C_23  and  C_50
   12  A    between atoms: C_27  and  C_36
   13  A    between atoms: C_36  and  C_56
                            x       y       z     vdW  Elec       q    Type
                         _______ _______ _______ _____ _____    ______ ____

>  <TORSDO>
F 13

$$$$
=
 OpenBabel11062421173D

 56 66  0  0  1  0  0  0  0  0999 V2000
  191.5600  171.4230  143.2830 C   0  0  2  0  0  3  0  0  0  0  0  0
  189.9000  173.9110  138.9530 C   0  0  0  0  0  2  0  0  0  0  0  0
  192.4770  170.3500  141.1810 C   0  0  1  0  0  3  0  0  0  0  0  0
  193.6970  172.5390  142.2330 C   0  0  0  0  0  2  0  0  0  0  0  0
  192.7920  170.6400  143.7050 C   0  0  0  0  0  2  0  0  0  0  0  0
  192.8350  170.6960  138.5820 C   0  0  2  0  0  0  0  0  0  0  0  0
  194.5160  172.7710  140.9370 C   0  0  1  0  0  0  0  0  0  0  0  0
  192.7590  171.3060  142.3450 C   0  0  1  0  0  0  0  0  0  0  0  0
  193.3570  173.5240  138.5120 O   0  0  0  0  0  1  0  0  0  0  0  0
  192.1750  171.1270  139.9010 C   0  0  2  0  0  0  0  0  0  0  0  0
  194.3490  170.7540  138.5660 C   0  0  2  0  0  3  0  0  0  0  0  0
  193.6080  172.1480  139.4710 P   0  0  0  0  0  0  0  0  0  0  0  0
  189.6180  172.0630  137.1850 C   0  0  0  0  0  2  0  0  0  0  0  0
  191.0450  172.0300  137.5220 N   0  0  0  0  0  0  0  0  0  0  0  0
  190.6350  172.6020  138.7980 C   0  0  2  0  0  0  0  0  0  0  0  0
  189.1600  172.6960  138.4500 C   0  0  1  0  0  0  0  0  0  0  0  0
  193.5250  169.4350  141.0290 O   0  0  0  0  0  1  0  0  0  0  0  0
  190.9050  171.8040  139.9370 O   0  0  0  0  0  0  0  0  0  0  0  0
  192.1140  171.1340  137.3400 C   0  0  0  0  0  0  0  0  0  0  0  0
  188.4380  171.9110  139.3530 O   0  0  0  0  0  1  0  0  0  0  0  0
  192.3340  170.6040  136.2190 O   0  0  0  0  0  0  0  0  0  0  0  0
  193.5370  175.0350  140.7410 O   0  0  0  0  0  0  0  0  0  0  0  0
  196.3000  176.1210  140.8880 C   0  0  0  0  0  2  0  0  0  0  0  0
  195.1510  176.4260  141.8390 C   0  0  0  0  0  2  0  0  0  0  0  0
  194.7300  174.2970  140.8350 C   0  0  1  0  0  0  0  0  0  0  0  0
  194.2870  175.1780  141.9320 C   0  0  2  0  0  3  0  0  0  0  0  0
  195.8720  174.9260  140.0590 C   0  0  0  0  0  2  0  0  0  0  0  0
  195.8020  172.1280  140.9600 O   0  0  0  0  0  0  0  0  0  0  0  0
  196.5810  171.8040  142.0790 C   0  0  0  0  0  0  0  0  0  0  0  0
  197.2890  172.6650  142.6640 O   0  0  0  0  0  0  0  0  0  0  0  0
  196.6470  170.3820  142.5190 C   0  0  0  0  0  2  0  0  0  0  0  0
  196.5920  170.2940  144.0330 C   0  0  0  0  0  1  0  0  0  0  0  0
  194.8770  171.2370  137.3360 O   0  0  0  0  0  0  0  0  0  0  0  0
  197.0700  170.8600  137.9580 O   0  0  0  0  0  1  0  0  0  0  0  0
  196.2470  171.2220  137.0750 C   0  0  0  0  0  0  0  0  0  0  0  0
  196.7120  171.6300  135.8350 O   0  0  0  0  0  0  0  0  0  0  0  0
  191.4950  172.7400  144.0410 C   0  0  0  0  0  2  0  0  0  0  0  0
  190.0680  172.9930  144.4880 C   0  0  0  0  0  2  0  0  0  0  0  0
  188.2730  175.7130  141.5320 O   0  0  0  0  0  1  0  0  0  0  0  0
  191.3930  176.5400  144.2010 O   0  0  0  0  0  0  0  0  0  0  0  0
  188.6770  174.9370  143.7370 C   0  0  0  0  0  2  0  0  0  0  0  0
  189.1860  175.8050  142.5880 C   0  0  2  0  0  3  0  0  0  0  0  0
  190.7930  177.6030  143.5130 C   0  0  0  0  0  2  0  0  0  0  0  0
  189.6530  174.8350  145.9640 O   0  0  0  0  0  0  0  0  0  0  0  0
  188.9490  178.2900  142.0120 C   0  0  0  0  0  1  0  0  0  0  0  0
  188.7450  177.1090  146.0830 C   0  0  0  0  0  1  0  0  0  0  0  0
  189.9630  176.2030  146.1800 C   0  0  2  0  0  3  0  0  0  0  0  0
  189.3640  177.2680  143.0610 C   0  0  1  0  0  3  0  0  0  0  0  0
  189.8360  174.4830  144.6130 C   0  0  1  0  0  3  0  0  0  0  0  0
  191.2620  176.7930  145.5760 C   0  0  1  0  0  3  0  0  0  0  0  0
  192.4540  176.1940  146.3010 C   0  0  0  0  0  2  0  0  0  0  0  0
  193.7300  176.3810  145.4940 C   0  0  0  0  0  2  0  0  0  0  0  0
  194.9130  175.6650  146.1380 C   0  0  0  0  0  2  0  0  0  0  0  0
  195.5650  174.7020  145.1580 C   0  0  0  0  0  3  0  0  0  0  0  0
  196.4910  173.7640  145.9090 C   0  0  0  0  0  2  0  0  0  0  0  0
  195.1170  173.2930  145.4770 C   0  0  0  0  0  2  0  0  0  0  0  0
  1  5  1  0  0  0  0
  1 37  1  1  0  0  0
  3 17  1  6  0  0  0
  3  8  1  0  0  0  0
  6 19  1  6  0  0  0
  6 12  1  0  0  0  0
  6 10  1  0  0  0  0
  7 28  1  1  0  0  0
  7  4  1  0  0  0  0
  8  4  1  6  0  0  0
  8  1  1  0  0  0  0
  8  5  1  0  0  0  0
  9 12  1  0  0  0  0
 10 18  1  6  0  0  0
 10  3  1  0  0  0  0
 11 33  1  6  0  0  0
 11  6  1  0  0  0  0
 11 12  1  0  0  0  0
 12 10  1  0  0  0  0
 12  7  1  0  0  0  0
 13 14  1  0  0  0  0
 13 16  1  0  0  0  0
 14 15  1  0  0  0  0
 15  2  1  1  0  0  0
 15 18  1  0  0  0  0
 16 15  1  0  0  0  0
 16  2  1  0  0  0  0
 16 20  1  1  0  0  0
 19 14  1  0  0  0  0
 21 19  2  0  0  0  0
 22 25  1  0  0  0  0
 22 26  1  0  0  0  0
 23 24  1  0  0  0  0
 25 27  1  6  0  0  0
 25  7  1  0  0  0  0
 25 26  1  0  0  0  0
 26 24  1  6  0  0  0
 27 23  1  0  0  0  0
 28 29  1  0  0  0  0
 29 31  1  0  0  0  0
 29 30  2  0  0  0  0
 31 32  1  0  0  0  0
 35 33  1  0  0  0  0
 35 34  1  0  0  0  0
 36 35  2  0  0  0  0
 37 38  1  0  0  0  0
 40 50  1  0  0  0  0
 41 49  1  0  0  0  0
 42 39  1  6  0  0  0
 42 48  1  0  0  0  0
 42 41  1  0  0  0  0
 43 40  1  0  0  0  0
 44 47  1  0  0  0  0
 47 46  1  6  0  0  0
 48 45  1  6  0  0  0
 48 43  1  0  0  0  0
 49 38  1  1  0  0  0
 49 44  1  0  0  0  0
 50 47  1  0  0  0  0
 50 51  1  1  0  0  0
 52 53  1  0  0  0  0
 52 51  1  0  0  0  0
 54 56  1  0  0  0  0
 54 55  1  0  0  0  0
 54 53  1  0  0  0  0
 56 55  1  0  0  0  0
M  END
>  <MODEL>
6

>  <REMARK>
 VINA RESULT:      -6.6      2.207      4.633
  Name = 
  13 active torsions:
  status: ('A' for Active; 'I' for Inactive)
    1  A    between atoms: C_1  and  C_48
    2  A    between atoms: O_6  and  C_14
    3  A    between atoms: O_6  and  C_16
    4  A    between atoms: C_11  and  C_16
    5  A    between atoms: C_12  and  C_55
    6  A    between atoms: C_12  and  C_56
    7  A    between atoms: C_14  and  C_21
    8  A    between atoms: O_15  and  C_24
    9  A    between atoms: O_15  and  C_47
   10  A    between atoms: C_23  and  C_48
   11  A    between atoms: C_23  and  C_50
   12  A    between atoms: C_27  and  C_36
   13  A    between atoms: C_36  and  C_56
                            x       y       z     vdW  Elec       q    Type
                         _______ _______ _______ _____ _____    ______ ____

>  <TORSDO>
F 13

$$$$
=
 OpenBabel11062421173D

 56 66  0  0  1  0  0  0  0  0999 V2000
  192.7290  171.3860  144.0770 C   0  0  2  0  0  3  0  0  0  0  0  0
  190.5100  175.6440  141.9240 C   0  0  0  0  0  2  0  0  0  0  0  0
  191.0940  170.7610  142.2480 C   0  0  1  0  0  3  0  0  0  0  0  0
  193.6310  171.4950  141.6090 C   0  0  0  0  0  2  0  0  0  0  0  0
  193.1120  169.9870  143.6210 C   0  0  0  0  0  2  0  0  0  0  0  0
  189.6990  171.7090  140.2090 C   0  0  2  0  0  0  0  0  0  0  0  0
  193.2580  171.6790  140.1150 C   0  0  1  0  0  0  0  0  0  0  0  0
  192.5660  170.9790  142.6140 C   0  0  1  0  0  0  0  0  0  0  0  0
  191.5380  173.6810  139.2070 O   0  0  0  0  0  1  0  0  0  0  0  0
  190.5460  171.9550  141.4670 C   0  0  2  0  0  0  0  0  0  0  0  0
  190.4020  170.9690  139.0890 C   0  0  2  0  0  3  0  0  0  0  0  0
  191.4950  172.1510  139.9370 P   0  0  0  0  0  0  0  0  0  0  0  0
  188.1080  174.9260  141.3430 C   0  0  0  0  0  2  0  0  0  0  0  0
  188.9580  174.0440  140.5370 N   0  0  0  0  0  0  0  0  0  0  0  0
  189.9700  174.2840  141.5560 C   0  0  2  0  0  0  0  0  0  0  0  0
  189.1280  175.2430  142.3780 C   0  0  1  0  0  0  0  0  0  0  0  0
  190.9270  169.5460  141.5760 O   0  0  0  0  0  1  0  0  0  0  0  0
  190.3960  173.1380  142.2730 O   0  0  0  0  0  0  0  0  0  0  0  0
  188.7910  172.8410  139.8250 C   0  0  0  0  0  0  0  0  0  0  0  0
  188.9560  174.7040  143.6560 O   0  0  0  0  0  1  0  0  0  0  0  0
  187.8230  172.6820  139.0370 O   0  0  0  0  0  0  0  0  0  0  0  0
  195.2010  172.3430  138.7330 O   0  0  0  0  0  0  0  0  0  0  0  0
  194.6000  175.1660  139.4440 C   0  0  0  0  0  2  0  0  0  0  0  0
  194.6460  174.5710  138.0440 C   0  0  0  0  0  2  0  0  0  0  0  0
  194.1770  172.8010  139.5810 C   0  0  1  0  0  0  0  0  0  0  0  0
  194.1810  173.1260  138.1420 C   0  0  2  0  0  3  0  0  0  0  0  0
  194.5920  174.0000  140.4120 C   0  0  0  0  0  2  0  0  0  0  0  0
  193.4760  170.4950  139.3290 O   0  0  0  0  0  0  0  0  0  0  0  0
  193.9690  169.2560  139.7610 C   0  0  0  0  0  0  0  0  0  0  0  0
  193.2000  168.3150  140.0850 O   0  0  0  0  0  0  0  0  0  0  0  0
  195.4400  169.0920  139.9350 C   0  0  0  0  0  2  0  0  0  0  0  0
  196.0320  168.3480  138.7530 C   0  0  0  0  0  1  0  0  0  0  0  0
  190.0890  171.4800  137.7980 O   0  0  0  0  0  0  0  0  0  0  0  0
  190.0870  171.2190  135.5020 O   0  0  0  0  0  0  0  0  0  0  0  0
  190.3250  170.7370  136.6420 C   0  0  0  0  0  0  0  0  0  0  0  0
  190.8080  169.4430  136.7480 O   0  0  0  0  0  1  0  0  0  0  0  0
  193.9830  172.2030  144.3540 C   0  0  0  0  0  2  0  0  0  0  0  0
  193.9500  172.7050  145.7840 C   0  0  0  0  0  2  0  0  0  0  0  0
  190.3290  174.9780  146.8240 O   0  0  0  0  0  1  0  0  0  0  0  0
  193.1700  175.9020  143.8890 O   0  0  0  0  0  0  0  0  0  0  0  0
  192.6730  174.6250  146.7670 C   0  0  0  0  0  2  0  0  0  0  0  0
  191.4570  175.1600  146.0160 C   0  0  2  0  0  3  0  0  0  0  0  0
  192.2240  176.8730  144.2420 C   0  0  0  0  0  2  0  0  0  0  0  0
  194.9870  174.8500  146.0440 O   0  0  0  0  0  0  0  0  0  0  0  0
  190.3960  177.4820  145.7960 C   0  0  0  0  0  1  0  0  0  0  0  0
  194.5570  177.2030  146.5850 C   0  0  0  0  0  1  0  0  0  0  0  0
  194.9780  176.1780  145.5430 C   0  0  2  0  0  3  0  0  0  0  0  0
  191.6640  176.6500  145.6550 C   0  0  1  0  0  3  0  0  0  0  0  0
  193.7600  174.2060  145.7870 C   0  0  1  0  0  3  0  0  0  0  0  0
  194.4450  176.4480  144.1130 C   0  0  1  0  0  3  0  0  0  0  0  0
  195.4170  175.8530  143.1090 C   0  0  0  0  0  2  0  0  0  0  0  0
  196.8520  176.2120  143.4640 C   0  0  0  0  0  2  0  0  0  0  0  0
  197.7830  175.0130  143.3280 C   0  0  0  0  0  2  0  0  0  0  0  0
  197.0010  173.7080  143.3750 C   0  0  0  0  0  3  0  0  0  0  0  0
  197.9270  172.5510  143.0570 C   0  0  0  0  0  2  0  0  0  0  0  0
  197.5440  172.8460  144.4920 C   0  0  0  0  0  2  0  0  0  0  0  0
  1 37  1  6  0  0  0
  2 16  1  0  0  0  0
  3 17  1  6  0  0  0
  3  8  1  0  0  0  0
  5  1  1  0  0  0  0
  6 19  1  6  0  0  0
  6 10  1  0  0  0  0
  7 28  1  6  0  0  0
  7  4  1  0  0  0  0
  8  4  1  6  0  0  0
  8  5  1  0  0  0  0
  8  1  1  0  0  0  0
  9 12  1  0  0  0  0
 10  3  1  0  0  0  0
 10 18  1  1  0  0  0
 11 33  1  6  0  0  0
 11 12  1  0  0  0  0
 11  6  1  0  0  0  0
 12  7  1  0  0  0  0
 12  6  1  0  0  0  0
 12 10  1  0  0  0  0
 13 16  1  0  0  0  0
 14 13  1  0  0  0  0
 14 15  1  0  0  0  0
 15  2  1  6  0  0  0
 15 18  1  0  0  0  0
 15 16  1  0  0  0  0
 16 20  1  1  0  0  0
 19 14  1  0  0  0  0
 21 19  2  0  0  0  0
 22 25  1  0  0  0  0
 23 27  1  0  0  0  0
 24 23  1  0  0  0  0
 25  7  1  0  0  0  0
 25 27  1  1  0  0  0
 26 24  1  1  0  0  0
 26 22  1  0  0  0  0
 26 25  1  0  0  0  0
 28 29  1  0  0  0  0
 29 31  1  0  0  0  0
 29 30  2  0  0  0  0
 32 31  1  0  0  0  0
 34 35  2  0  0  0  0
 35 36  1  0  0  0  0
 35 33  1  0  0  0  0
 37 38  1  0  0  0  0
 40 50  1  0  0  0  0
 40 43  1  0  0  0  0
 42 41  1  0  0  0  0
 42 39  1  1  0  0  0
 43 48  1  0  0  0  0
 47 44  1  0  0  0  0
 47 46  1  1  0  0  0
 48 45  1  6  0  0  0
 48 42  1  0  0  0  0
 49 38  1  1  0  0  0
 49 44  1  0  0  0  0
 49 41  1  0  0  0  0
 50 51  1  6  0  0  0
 50 47  1  0  0  0  0
 51 52  1  0  0  0  0
 53 54  1  0  0  0  0
 53 52  1  0  0  0  0
 54 56  1  0  0  0  0
 55 54  1  0  0  0  0
 55 56  1  0  0  0  0
M  END
>  <MODEL>
7

>  <REMARK>
 VINA RESULT:      -6.5      2.716      6.504
  Name = 
  13 active torsions:
  status: ('A' for Active; 'I' for Inactive)
    1  A    between atoms: C_1  and  C_48
    2  A    between atoms: O_6  and  C_14
    3  A    between atoms: O_6  and  C_16
    4  A    between atoms: C_11  and  C_16
    5  A    between atoms: C_12  and  C_55
    6  A    between atoms: C_12  and  C_56
    7  A    between atoms: C_14  and  C_21
    8  A    between atoms: O_15  and  C_24
    9  A    between atoms: O_15  and  C_47
   10  A    between atoms: C_23  and  C_48
   11  A    between atoms: C_23  and  C_50
   12  A    between atoms: C_27  and  C_36
   13  A    between atoms: C_36  and  C_56
                            x       y       z     vdW  Elec       q    Type
                         _______ _______ _______ _____ _____    ______ ____

>  <TORSDO>
F 13

$$$$
=
 OpenBabel11062421173D

 56 66  0  0  1  0  0  0  0  0999 V2000
  189.9460  174.9110  143.2220 C   0  0  2  0  0  3  0  0  0  0  0  0
  190.5590  172.9760  138.3680 C   0  0  0  0  0  2  0  0  0  0  0  0
  190.7070  172.4970  143.2700 C   0  0  1  0  0  3  0  0  0  0  0  0
  192.5260  174.4880  142.9390 C   0  0  0  0  0  2  0  0  0  0  0  0
  190.5690  174.6860  144.5900 C   0  0  0  0  0  2  0  0  0  0  0  0
  191.7290  170.5450  141.8040 C   0  0  2  0  0  0  0  0  0  0  0  0
  193.6180  173.4870  142.4820 C   0  0  1  0  0  0  0  0  0  0  0  0
  191.1330  173.9640  143.3830 C   0  0  1  0  0  0  0  0  0  0  0  0
  193.4740  172.0590  140.0880 O   0  0  0  0  0  1  0  0  0  0  0  0
  191.0700  171.9300  141.8980 C   0  0  2  0  0  0  0  0  0  0  0  0
  193.0710  170.4190  142.4980 C   0  0  2  0  0  3  0  0  0  0  0  0
  192.8640  172.0250  141.6700 P   0  0  0  0  0  0  0  0  0  0  0  0
  189.8590  170.5060  138.5370 C   0  0  0  0  0  2  0  0  0  0  0  0
  191.0090  170.6220  139.4410 N   0  0  0  0  0  0  0  0  0  0  0  0
  190.6390  172.0280  139.5380 C   0  0  2  0  0  0  0  0  0  0  0  0
  189.4780  171.9430  138.5630 C   0  0  1  0  0  0  0  0  0  0  0  0
  191.2330  171.7470  144.3270 O   0  0  0  0  0  1  0  0  0  0  0  0
  190.2680  172.4720  140.8320 O   0  0  0  0  0  0  0  0  0  0  0  0
  191.5690  169.8560  140.4800 C   0  0  0  0  0  0  0  0  0  0  0  0
  188.3040  172.2980  139.2340 O   0  0  0  0  0  1  0  0  0  0  0  0
  191.7610  168.6190  140.3440 O   0  0  0  0  0  0  0  0  0  0  0  0
  195.6720  174.8050  142.0690 O   0  0  0  0  0  0  0  0  0  0  0  0
  194.9070  174.8880  139.1980 C   0  0  0  0  0  2  0  0  0  0  0  0
  196.1890  174.3100  139.7820 C   0  0  0  0  0  2  0  0  0  0  0  0
  194.5140  174.2580  141.4880 C   0  0  1  0  0  0  0  0  0  0  0  0
  195.8550  173.7420  141.1530 C   0  0  2  0  0  3  0  0  0  0  0  0
  193.9620  175.1120  140.3620 C   0  0  0  0  0  2  0  0  0  0  0  0
  194.4370  173.0120  143.5650 O   0  0  0  0  0  0  0  0  0  0  0  0
  194.3940  173.4030  144.9100 C   0  0  0  0  0  0  0  0  0  0  0  0
  193.7190  172.7680  145.7610 O   0  0  0  0  0  0  0  0  0  0  0  0
  195.0840  174.6600  145.3130 C   0  0  0  0  0  2  0  0  0  0  0  0
  194.1230  175.5810  146.0390 C   0  0  0  0  0  1  0  0  0  0  0  0
  194.0100  169.6420  141.7610 O   0  0  0  0  0  0  0  0  0  0  0  0
  195.0040  168.7770  143.6590 O   0  0  0  0  0  1  0  0  0  0  0  0
  194.9670  168.8560  142.4020 C   0  0  0  0  0  0  0  0  0  0  0  0
  195.9030  168.1670  141.6480 O   0  0  0  0  0  0  0  0  0  0  0  0
  190.3220  176.2900  142.7000 C   0  0  0  0  0  2  0  0  0  0  0  0
  190.0690  177.3230  143.7800 C   0  0  0  0  0  2  0  0  0  0  0  0
  187.4110  176.9020  147.2620 O   0  0  0  0  0  1  0  0  0  0  0  0
  186.4840  176.1930  143.2400 O   0  0  0  0  0  0  0  0  0  0  0  0
  188.1690  177.9670  145.2820 C   0  0  0  0  0  2  0  0  0  0  0  0
  187.2890  176.8660  145.8680 C   0  0  2  0  0  3  0  0  0  0  0  0
  185.4410  176.2460  144.1730 C   0  0  0  0  0  2  0  0  0  0  0  0
  188.2370  178.6180  142.9380 O   0  0  0  0  0  0  0  0  0  0  0  0
  184.8140  176.7390  146.5160 C   0  0  0  0  0  1  0  0  0  0  0  0
  185.9910  179.4460  143.4680 C   0  0  0  0  0  1  0  0  0  0  0  0
  186.8590  178.5450  142.6040 C   0  0  2  0  0  3  0  0  0  0  0  0
  185.8210  177.0590  145.4200 C   0  0  1  0  0  3  0  0  0  0  0  0
  188.5860  177.6140  143.8610 C   0  0  1  0  0  3  0  0  0  0  0  0
  186.2320  177.1700  142.2620 C   0  0  1  0  0  3  0  0  0  0  0  0
  186.7940  176.6920  140.9350 C   0  0  0  0  0  2  0  0  0  0  0  0
  186.2460  177.5230  139.7840 C   0  0  0  0  0  2  0  0  0  0  0  0
  187.0120  177.2680  138.4900 C   0  0  0  0  0  2  0  0  0  0  0  0
  186.4280  176.0830  137.7360 C   0  0  0  0  0  3  0  0  0  0  0  0
  186.8730  176.1360  136.2870 C   0  0  0  0  0  2  0  0  0  0  0  0
  187.5560  175.1960  137.2590 C   0  0  0  0  0  2  0  0  0  0  0  0
  1 37  1  6  0  0  0
  1  8  1  0  0  0  0
  1  5  1  0  0  0  0
  2 16  1  0  0  0  0
  3  8  1  0  0  0  0
  3 17  1  1  0  0  0
  6 19  1  6  0  0  0
  6 10  1  0  0  0  0
  6 11  1  0  0  0  0
  7  4  1  0  0  0  0
  7 28  1  1  0  0  0
  8  4  1  6  0  0  0
  8  5  1  0  0  0  0
  9 12  1  0  0  0  0
 10 18  1  6  0  0  0
 10  3  1  0  0  0  0
 11 33  1  6  0  0  0
 12  6  1  0  0  0  0
 12 10  1  0  0  0  0
 12  7  1  0  0  0  0
 12 11  1  0  0  0  0
 13 16  1  0  0  0  0
 13 14  1  0  0  0  0
 14 15  1  0  0  0  0
 14 19  1  0  0  0  0
 15  2  1  6  0  0  0
 15 18  1  0  0  0  0
 16 20  1  1  0  0  0
 16 15  1  0  0  0  0
 21 19  2  0  0  0  0
 23 24  1  0  0  0  0
 23 27  1  0  0  0  0
 25 27  1  6  0  0  0
 25 22  1  0  0  0  0
 25  7  1  0  0  0  0
 26 24  1  6  0  0  0
 26 25  1  0  0  0  0
 26 22  1  0  0  0  0
 28 29  1  0  0  0  0
 29 31  1  0  0  0  0
 29 30  2  0  0  0  0
 31 32  1  0  0  0  0
 33 35  1  0  0  0  0
 35 34  1  0  0  0  0
 36 35  2  0  0  0  0
 37 38  1  0  0  0  0
 40 43  1  0  0  0  0
 41 42  1  0  0  0  0
 42 39  1  1  0  0  0
 43 48  1  0  0  0  0
 44 49  1  0  0  0  0
 47 44  1  0  0  0  0
 47 46  1  1  0  0  0
 48 42  1  0  0  0  0
 48 45  1  1  0  0  0
 49 38  1  1  0  0  0
 49 41  1  0  0  0  0
 50 51  1  6  0  0  0
 50 47  1  0  0  0  0
 50 40  1  0  0  0  0
 52 51  1  0  0  0  0
 53 52  1  0  0  0  0
 54 53  1  0  0  0  0
 55 56  1  0  0  0  0
 55 54  1  0  0  0  0
 56 54  1  0  0  0  0
M  END
>  <MODEL>
8

>  <REMARK>
 VINA RESULT:      -6.5      2.238      3.760
  Name = 
  13 active torsions:
  status: ('A' for Active; 'I' for Inactive)
    1  A    between atoms: C_1  and  C_48
    2  A    between atoms: O_6  and  C_14
    3  A    between atoms: O_6  and  C_16
    4  A    between atoms: C_11  and  C_16
    5  A    between atoms: C_12  and  C_55
    6  A    between atoms: C_12  and  C_56
    7  A    between atoms: C_14  and  C_21
    8  A    between atoms: O_15  and  C_24
    9  A    between atoms: O_15  and  C_47
   10  A    between atoms: C_23  and  C_48
   11  A    between atoms: C_23  and  C_50
   12  A    between atoms: C_27  and  C_36
   13  A    between atoms: C_36  and  C_56
                            x       y       z     vdW  Elec       q    Type
                         _______ _______ _______ _____ _____    ______ ____

>  <TORSDO>
F 13

$$$$
=
 OpenBabel11062421173D

 56 66  0  0  1  0  0  0  0  0999 V2000
  189.3940  173.0150  143.1580 C   0  0  2  0  0  3  0  0  0  0  0  0
  190.5140  173.7900  138.0750 C   0  0  0  0  0  2  0  0  0  0  0  0
  190.5900  171.0230  142.1530 C   0  0  1  0  0  3  0  0  0  0  0  0
  192.0150  173.1690  143.0160 C   0  0  0  0  0  2  0  0  0  0  0  0
  190.0040  172.2510  144.3220 C   0  0  0  0  0  2  0  0  0  0  0  0
  192.0050  170.2020  140.0730 C   0  0  2  0  0  0  0  0  0  0  0  0
  193.2890  172.6890  142.2740 C   0  0  1  0  0  0  0  0  0  0  0  0
  190.7310  172.2970  142.9930 C   0  0  1  0  0  0  0  0  0  0  0  0
  193.4910  172.5960  139.4920 O   0  0  0  0  0  1  0  0  0  0  0  0
  191.0960  171.2530  140.7300 C   0  0  2  0  0  0  0  0  0  0  0  0
  193.3240  169.9550  140.7780 C   0  0  2  0  0  3  0  0  0  0  0  0
  192.8480  171.7110  140.7870 P   0  0  0  0  0  0  0  0  0  0  0  0
  190.2820  171.4740  136.9780 C   0  0  0  0  0  2  0  0  0  0  0  0
  191.3600  171.3070  137.9580 N   0  0  0  0  0  0  0  0  0  0  0  0
  190.7310  172.4170  138.6620 C   0  0  2  0  0  0  0  0  0  0  0  0
  189.6380  172.6440  137.6320 C   0  0  1  0  0  0  0  0  0  0  0  0
  191.2130  169.9430  142.7860 O   0  0  0  0  0  1  0  0  0  0  0  0
  190.2420  172.1180  139.9580 O   0  0  0  0  0  0  0  0  0  0  0  0
  192.0190  170.2260  138.5720 C   0  0  0  0  0  0  0  0  0  0  0  0
  188.3980  172.4520  138.2470 O   0  0  0  0  0  1  0  0  0  0  0  0
  192.4420  169.2530  137.8940 O   0  0  0  0  0  0  0  0  0  0  0  0
  193.2450  174.9700  141.3130 O   0  0  0  0  0  0  0  0  0  0  0  0
  196.1560  175.1480  141.8900 C   0  0  0  0  0  2  0  0  0  0  0  0
  195.0650  176.0660  142.4240 C   0  0  0  0  0  2  0  0  0  0  0  0
  194.0580  173.9680  141.8740 C   0  0  1  0  0  0  0  0  0  0  0  0
  193.8020  175.2340  142.5870 C   0  0  2  0  0  3  0  0  0  0  0  0
  195.4560  173.9470  141.2860 C   0  0  0  0  0  2  0  0  0  0  0  0
  194.1470  171.8760  143.0940 O   0  0  0  0  0  0  0  0  0  0  0  0
  194.1130  171.7240  144.4860 C   0  0  0  0  0  0  0  0  0  0  0  0
  193.4800  170.7830  145.0330 O   0  0  0  0  0  0  0  0  0  0  0  0
  194.7570  172.7640  145.3370 C   0  0  0  0  0  2  0  0  0  0  0  0
  196.2010  172.9680  144.9200 C   0  0  0  0  0  1  0  0  0  0  0  0
  194.4140  169.7810  139.8800 O   0  0  0  0  0  0  0  0  0  0  0  0
  196.5570  169.0020  139.5050 O   0  0  0  0  0  0  0  0  0  0  0  0
  195.5130  168.9910  140.2130 C   0  0  0  0  0  0  0  0  0  0  0  0
  195.4520  168.1660  141.3240 O   0  0  0  0  0  1  0  0  0  0  0  0
  189.5230  174.5130  143.3950 C   0  0  0  0  0  2  0  0  0  0  0  0
  188.4250  175.2370  142.6410 C   0  0  0  0  0  2  0  0  0  0  0  0
  184.7670  177.5410  141.8180 O   0  0  0  0  0  1  0  0  0  0  0  0
  187.8000  178.4560  144.5580 O   0  0  0  0  0  0  0  0  0  0  0  0
  186.1380  176.1320  143.1440 C   0  0  0  0  0  2  0  0  0  0  0  0
  185.8080  177.5690  142.7520 C   0  0  2  0  0  3  0  0  0  0  0  0
  186.5980  179.1740  144.6160 C   0  0  0  0  0  2  0  0  0  0  0  0
  187.6810  175.4710  144.9070 O   0  0  0  0  0  0  0  0  0  0  0  0
  184.2860  179.3700  143.7540 C   0  0  0  0  0  1  0  0  0  0  0  0
  185.9100  176.4070  146.3220 C   0  0  0  0  0  1  0  0  0  0  0  0
  187.3720  176.4350  145.9030 C   0  0  2  0  0  3  0  0  0  0  0  0
  185.4250  178.3920  144.0060 C   0  0  1  0  0  3  0  0  0  0  0  0
  187.5810  176.0280  143.6180 C   0  0  1  0  0  3  0  0  0  0  0  0
  187.9960  177.8500  145.8100 C   0  0  1  0  0  3  0  0  0  0  0  0
  189.4870  177.7460  146.0770 C   0  0  0  0  0  2  0  0  0  0  0  0
  190.2770  177.8150  144.7790 C   0  0  0  0  0  2  0  0  0  0  0  0
  191.5780  177.0250  144.8690 C   0  0  0  0  0  2  0  0  0  0  0  0
  191.7680  176.4460  146.2630 C   0  0  0  0  0  3  0  0  0  0  0  0
  192.0820  174.9650  146.1570 C   0  0  0  0  0  2  0  0  0  0  0  0
  193.1940  175.9640  146.4080 C   0  0  0  0  0  2  0  0  0  0  0  0
  1 37  1  1  0  0  0
  1  5  1  0  0  0  0
  3 17  1  1  0  0  0
  3  8  1  0  0  0  0
  6 19  1  6  0  0  0
  6 10  1  0  0  0  0
  6 11  1  0  0  0  0
  6 12  1  0  0  0  0
  7  4  1  0  0  0  0
  7 28  1  1  0  0  0
  8  4  1  6  0  0  0
  8  1  1  0  0  0  0
  8  5  1  0  0  0  0
  9 12  1  0  0  0  0
 10 18  1  6  0  0  0
 10 12  1  0  0  0  0
 10  3  1  0  0  0  0
 11 33  1  6  0  0  0
 11 12  1  0  0  0  0
 12  7  1  0  0  0  0
 13 16  1  0  0  0  0
 13 14  1  0  0  0  0
 14 19  1  0  0  0  0
 14 15  1  0  0  0  0
 15  2  1  1  0  0  0
 15 18  1  0  0  0  0
 16  2  1  0  0  0  0
 16 20  1  1  0  0  0
 16 15  1  0  0  0  0
 21 19  2  0  0  0  0
 22 25  1  0  0  0  0
 22 26  1  0  0  0  0
 23 24  1  0  0  0  0
 25 27  1  6  0  0  0
 25  7  1  0  0  0  0
 25 26  1  0  0  0  0
 26 24  1  6  0  0  0
 27 23  1  0  0  0  0
 28 29  1  0  0  0  0
 29 30  2  0  0  0  0
 29 31  1  0  0  0  0
 32 31  1  0  0  0  0
 33 35  1  0  0  0  0
 34 35  2  0  0  0  0
 35 36  1  0  0  0  0
 38 37  1  0  0  0  0
 40 43  1  0  0  0  0
 40 50  1  0  0  0  0
 41 49  1  0  0  0  0
 42 39  1  6  0  0  0
 42 41  1  0  0  0  0
 42 48  1  0  0  0  0
 44 47  1  0  0  0  0
 47 46  1  6  0  0  0
 48 45  1  6  0  0  0
 48 43  1  0  0  0  0
 49 38  1  6  0  0  0
 49 44  1  0  0  0  0
 50 47  1  0  0  0  0
 50 51  1  6  0  0  0
 52 53  1  0  0  0  0
 52 51  1  0  0  0  0
 53 54  1  0  0  0  0
 54 56  1  0  0  0  0
 55 54  1  0  0  0  0
 55 56  1  0  0  0  0
M  END
>  <MODEL>
9

>  <REMARK>
 VINA RESULT:      -6.5      1.556      3.382
  Name = 
  13 active torsions:
  status: ('A' for Active; 'I' for Inactive)
    1  A    between atoms: C_1  and  C_48
    2  A    between atoms: O_6  and  C_14
    3  A    between atoms: O_6  and  C_16
    4  A    between atoms: C_11  and  C_16
    5  A    between atoms: C_12  and  C_55
    6  A    between atoms: C_12  and  C_56
    7  A    between atoms: C_14  and  C_21
    8  A    between atoms: O_15  and  C_24
    9  A    between atoms: O_15  and  C_47
   10  A    between atoms: C_23  and  C_48
   11  A    between atoms: C_23  and  C_50
   12  A    between atoms: C_27  and  C_36
   13  A    between atoms: C_36  and  C_56
                            x       y       z     vdW  Elec       q    Type
                         _______ _______ _______ _____ _____    ______ ____

>  <TORSDO>
F 13

$$$$
