=
 OpenBabel11062419533D

 30 32  0  0  1  0  0  0  0  0999 V2000
  190.4010  173.8360  141.3070 O   0  0  0  0  0  0  0  0  0  0  0  0
  188.7670  177.6770  147.0510 O   0  0  0  0  0  1  0  0  0  0  0  0
  190.0440  175.7000  144.3850 C   0  0  1  0  0  3  0  0  0  0  0  0
  189.8730  177.0650  145.0370 C   0  0  0  0  0  2  0  0  0  0  0  0
  187.3520  176.0110  143.2440 C   0  0  0  0  0  2  0  0  0  0  0  0
  189.9100  175.7380  142.8670 C   0  0  1  0  0  3  0  0  0  0  0  0
  189.3300  174.2190  140.5150 N   0  0  0  0  0  2  0  0  0  0  0  0
  188.1840  174.4890  141.3910 C   0  0  0  0  0  2  0  0  0  0  0  0
  187.4210  177.7760  145.0750 C   0  0  2  0  0  3  0  0  0  0  0  0
  190.6800  174.5330  142.4810 C   0  0  1  0  0  3  0  0  0  0  0  0
  187.3640  177.4980  143.5700 C   0  0  0  0  0  2  0  0  0  0  0  0
  191.5060  174.1020  143.4140 C   0  0  0  0  0  2  0  0  0  0  0  0
  188.4790  175.7180  142.2620 C   0  0  1  0  0  3  0  0  0  0  0  0
  188.5660  177.0690  145.8140 C   0  0  2  0  0  3  0  0  0  0  0  0
  191.3730  174.9460  144.6480 C   0  0  1  0  0  3  0  0  0  0  0  0
  192.5640  177.1430  144.2180 C   0  0  0  0  0  1  0  0  0  0  0  0
  192.6500  175.7920  144.9400 C   0  0  1  0  0  0  0  0  0  0  0  0
  192.8070  175.9650  146.4440 C   0  0  0  0  0  0  0  0  0  0  0  0
  193.6440  176.7450  146.8770 O   0  0  0  0  0  0  0  0  0  0  0  0
  191.3100  176.0970  148.2770 O   0  0  0  0  0  1  0  0  0  0  0  0
  191.9630  175.2060  147.4240 C   0  0  0  0  0  2  0  0  0  0  0  0
  193.8770  175.0220  144.4100 C   0  0  0  0  0  2  0  0  0  0  0  0
  194.7970  175.8040  142.3460 O   0  0  0  0  0  0  0  0  0  0  0  0
  195.7500  176.6710  144.2420 O   0  0  0  0  0  1  0  0  0  0  0  0
  194.8260  175.8540  143.6030 C   0  0  0  0  0  0  0  0  0  0  0  0
  186.2010  177.4420  145.6680 O   0  0  0  0  0  0  0  0  0  0  0  0
  185.6090  178.6640  145.9940 C   0  0  0  0  0  2  0  0  0  0  0  0
  184.1930  178.7210  145.4430 C   0  0  0  0  0  2  0  0  0  0  0  0
  183.9180  178.3070  142.9940 C   0  0  0  0  0  1  0  0  0  0  0  0
  184.1690  179.3550  144.0610 C   0  0  0  0  0  2  0  0  0  0  0  0
  1 10  1  0  0  0  0
  3 15  1  0  0  0  0
  3  4  1  6  0  0  0
  4 14  1  0  0  0  0
  5 11  1  0  0  0  0
  6  3  1  0  0  0  0
  7  1  1  0  0  0  0
  7  8  1  0  0  0  0
  8 13  1  0  0  0  0
  9 26  1  0  0  0  0
  9 14  1  0  0  0  0
 10  6  1  0  0  0  0
 10 12  1  0  0  0  0
 11  9  1  0  0  0  0
 12 15  1  0  0  0  0
 13  6  1  0  0  0  0
 13  5  1  0  0  0  0
 14  2  1  0  0  0  0
 15 17  1  0  0  0  0
 16 17  1  0  0  0  0
 17 18  1  0  0  0  0
 18 19  2  0  0  0  0
 18 21  1  0  0  0  0
 21 20  1  0  0  0  0
 22 17  1  0  0  0  0
 23 25  2  0  0  0  0
 25 24  1  0  0  0  0
 25 22  1  0  0  0  0
 26 27  1  0  0  0  0
 28 27  1  0  0  0  0
 29 30  1  0  0  0  0
 30 28  1  0  0  0  0
M  END
>  <MODEL>
1

>  <REMARK>
 VINA RESULT:      -6.2      0.000      0.000
  Name = 
  9 active torsions:
  status: ('A' for Active; 'I' for Inactive)
    1  A    between atoms: C_3  and  C_29
    2  A    between atoms: C_3  and  C_30
    3  A    between atoms: C_5  and  C_6
    4  A    between atoms: C_5  and  C_8
    5  A    between atoms: C_6  and  O_15
    6  A    between atoms: O_15  and  C_16
    7  A    between atoms: C_17  and  C_19
    8  A    between atoms: C_19  and  C_30
    9  A    between atoms: C_26  and  C_30
                            x       y       z     vdW  Elec       q    Type
                         _______ _______ _______ _____ _____    ______ ____

>  <TORSDO>
F 9

$$$$
=
 OpenBabel11062419533D

 30 32  0  0  1  0  0  0  0  0999 V2000
  190.7170  173.2200  141.4910 O   0  0  0  0  0  0  0  0  0  0  0  0
  187.4650  177.3820  146.2380 O   0  0  0  0  0  1  0  0  0  0  0  0
  189.4390  175.2140  144.2240 C   0  0  1  0  0  3  0  0  0  0  0  0
  189.1660  176.6110  144.7640 C   0  0  0  0  0  2  0  0  0  0  0  0
  187.3790  175.7010  142.1830 C   0  0  0  0  0  2  0  0  0  0  0  0
  189.8650  175.2090  142.7600 C   0  0  1  0  0  3  0  0  0  0  0  0
  190.0420  173.6590  140.3640 N   0  0  0  0  0  2  0  0  0  0  0  0
  188.6850  174.0510  140.7640 C   0  0  0  0  0  2  0  0  0  0  0  0
  186.9380  177.5180  143.9070 C   0  0  2  0  0  3  0  0  0  0  0  0
  190.6140  173.9330  142.6840 C   0  0  1  0  0  3  0  0  0  0  0  0
  187.4040  177.1930  142.4850 C   0  0  0  0  0  2  0  0  0  0  0  0
  191.0060  173.4700  143.8550 C   0  0  0  0  0  2  0  0  0  0  0  0
  188.7540  175.2830  141.6780 C   0  0  1  0  0  3  0  0  0  0  0  0
  187.6720  176.7480  145.0140 C   0  0  2  0  0  3  0  0  0  0  0  0
  190.5120  174.3660  144.9530 C   0  0  1  0  0  3  0  0  0  0  0  0
  192.1280  176.3170  144.8500 C   0  0  0  0  0  1  0  0  0  0  0  0
  191.6670  175.1160  145.6850 C   0  0  1  0  0  0  0  0  0  0  0  0
  191.1960  175.5380  147.0700 C   0  0  0  0  0  0  0  0  0  0  0  0
  190.3060  174.9050  147.6220 O   0  0  0  0  0  0  0  0  0  0  0  0
  190.7730  177.5370  148.2720 O   0  0  0  0  0  1  0  0  0  0  0  0
  191.7900  176.7120  147.7890 C   0  0  0  0  0  2  0  0  0  0  0  0
  192.8520  174.1420  145.8530 C   0  0  0  0  0  2  0  0  0  0  0  0
  194.7210  174.5030  144.4060 O   0  0  0  0  0  0  0  0  0  0  0  0
  194.8460  175.5270  146.4520 O   0  0  0  0  0  1  0  0  0  0  0  0
  194.1880  174.7340  145.5210 C   0  0  0  0  0  0  0  0  0  0  0  0
  185.5620  177.3040  144.0190 O   0  0  0  0  0  0  0  0  0  0  0  0
  184.9750  178.5180  143.6520 C   0  0  0  0  0  2  0  0  0  0  0  0
  184.7410  179.3770  144.8860 C   0  0  0  0  0  2  0  0  0  0  0  0
  184.6730  178.6670  147.2810 C   0  0  0  0  0  1  0  0  0  0  0  0
  183.9600  178.6110  145.9440 C   0  0  0  0  0  2  0  0  0  0  0  0
  1 10  1  0  0  0  0
  3  4  1  1  0  0  0
  3 15  1  0  0  0  0
  4 14  1  0  0  0  0
  5 11  1  0  0  0  0
  6  3  1  0  0  0  0
  7  8  1  0  0  0  0
  7  1  1  0  0  0  0
  8 13  1  0  0  0  0
  9 26  1  0  0  0  0
  9 14  1  0  0  0  0
 10  6  1  0  0  0  0
 10 12  1  0  0  0  0
 11  9  1  0  0  0  0
 12 15  1  0  0  0  0
 13  5  1  0  0  0  0
 13  6  1  0  0  0  0
 14  2  1  0  0  0  0
 15 17  1  0  0  0  0
 16 17  1  0  0  0  0
 17 22  1  0  0  0  0
 17 18  1  0  0  0  0
 18 19  2  0  0  0  0
 18 21  1  0  0  0  0
 21 20  1  0  0  0  0
 23 25  2  0  0  0  0
 25 22  1  0  0  0  0
 25 24  1  0  0  0  0
 27 26  1  0  0  0  0
 27 28  1  0  0  0  0
 28 30  1  0  0  0  0
 30 29  1  0  0  0  0
M  END
>  <MODEL>
2

>  <REMARK>
 VINA RESULT:      -6.2      1.292      1.797
  Name = 
  9 active torsions:
  status: ('A' for Active; 'I' for Inactive)
    1  A    between atoms: C_3  and  C_29
    2  A    between atoms: C_3  and  C_30
    3  A    between atoms: C_5  and  C_6
    4  A    between atoms: C_5  and  C_8
    5  A    between atoms: C_6  and  O_15
    6  A    between atoms: O_15  and  C_16
    7  A    between atoms: C_17  and  C_19
    8  A    between atoms: C_19  and  C_30
    9  A    between atoms: C_26  and  C_30
                            x       y       z     vdW  Elec       q    Type
                         _______ _______ _______ _____ _____    ______ ____

>  <TORSDO>
F 9

$$$$
=
 OpenBabel11062419533D

 30 32  0  0  1  0  0  0  0  0999 V2000
  186.9050  177.5690  148.0270 O   0  0  0  0  0  0  0  0  0  0  0  0
  188.3080  177.8940  141.0730 O   0  0  0  0  0  1  0  0  0  0  0  0
  188.1030  177.6530  144.6160 C   0  0  1  0  0  3  0  0  0  0  0  0
  188.1320  176.9670  143.2570 C   0  0  0  0  0  2  0  0  0  0  0  0
  185.2360  178.1560  144.2000 C   0  0  0  0  0  2  0  0  0  0  0  0
  187.1170  177.0190  145.5890 C   0  0  1  0  0  3  0  0  0  0  0  0
  185.5310  177.4220  147.9340 N   0  0  0  0  0  2  0  0  0  0  0  0
  185.0730  178.1290  146.7330 C   0  0  0  0  0  2  0  0  0  0  0  0
  186.0740  177.5710  141.8700 C   0  0  2  0  0  3  0  0  0  0  0  0
  187.6990  177.4200  146.8910 C   0  0  1  0  0  3  0  0  0  0  0  0
  185.2050  177.1490  143.0590 C   0  0  0  0  0  2  0  0  0  0  0  0
  188.9650  177.7810  146.8250 C   0  0  0  0  0  2  0  0  0  0  0  0
  185.6220  177.4290  145.4810 C   0  0  1  0  0  3  0  0  0  0  0  0
  187.5280  177.9110  142.2280 C   0  0  2  0  0  3  0  0  0  0  0  0
  189.4380  177.7350  145.4000 C   0  0  1  0  0  3  0  0  0  0  0  0
  189.8330  175.2410  145.1650 C   0  0  0  0  0  1  0  0  0  0  0  0
  190.5020  176.6210  145.1550 C   0  0  1  0  0  0  0  0  0  0  0  0
  191.2190  176.8910  143.8390 C   0  0  0  0  0  0  0  0  0  0  0  0
  191.4700  178.0440  143.5160 O   0  0  0  0  0  0  0  0  0  0  0  0
  192.9410  175.9990  142.4760 O   0  0  0  0  0  1  0  0  0  0  0  0
  191.6350  175.7830  142.9180 C   0  0  0  0  0  2  0  0  0  0  0  0
  191.5410  176.6790  146.2940 C   0  0  0  0  0  2  0  0  0  0  0  0
  191.3120  175.0480  148.0270 O   0  0  0  0  0  1  0  0  0  0  0  0
  192.7040  174.4650  146.3040 O   0  0  0  0  0  0  0  0  0  0  0  0
  191.8370  175.3530  146.9260 C   0  0  0  0  0  0  0  0  0  0  0  0
  185.4870  178.6530  141.2100 O   0  0  0  0  0  0  0  0  0  0  0  0
  184.4750  178.0940  140.4260 C   0  0  0  0  0  2  0  0  0  0  0  0
  183.1190  178.6100  140.8810 C   0  0  0  0  0  2  0  0  0  0  0  0
  180.6450  178.4280  140.5750 C   0  0  0  0  0  1  0  0  0  0  0  0
  181.9900  177.8060  140.2530 C   0  0  0  0  0  2  0  0  0  0  0  0
  2 14  1  0  0  0  0
  3  4  1  6  0  0  0
  3 15  1  0  0  0  0
  3  6  1  0  0  0  0
  5 13  1  0  0  0  0
  6 10  1  0  0  0  0
  7  1  1  0  0  0  0
  8  7  1  0  0  0  0
  9 14  1  0  0  0  0
  9 11  1  0  0  0  0
 10  1  1  0  0  0  0
 11  5  1  0  0  0  0
 12 10  1  0  0  0  0
 13  6  1  0  0  0  0
 13  8  1  0  0  0  0
 14  4  1  0  0  0  0
 15 12  1  0  0  0  0
 17 16  1  0  0  0  0
 17 15  1  0  0  0  0
 17 22  1  0  0  0  0
 18 17  1  0  0  0  0
 19 18  2  0  0  0  0
 20 21  1  0  0  0  0
 21 18  1  0  0  0  0
 22 25  1  0  0  0  0
 24 25  2  0  0  0  0
 25 23  1  0  0  0  0
 26  9  1  0  0  0  0
 27 28  1  0  0  0  0
 27 26  1  0  0  0  0
 30 29  1  0  0  0  0
 30 28  1  0  0  0  0
M  END
>  <MODEL>
3

>  <REMARK>
 VINA RESULT:      -6.1      2.747      4.917
  Name = 
  9 active torsions:
  status: ('A' for Active; 'I' for Inactive)
    1  A    between atoms: C_3  and  C_29
    2  A    between atoms: C_3  and  C_30
    3  A    between atoms: C_5  and  C_6
    4  A    between atoms: C_5  and  C_8
    5  A    between atoms: C_6  and  O_15
    6  A    between atoms: O_15  and  C_16
    7  A    between atoms: C_17  and  C_19
    8  A    between atoms: C_19  and  C_30
    9  A    between atoms: C_26  and  C_30
                            x       y       z     vdW  Elec       q    Type
                         _______ _______ _______ _____ _____    ______ ____

>  <TORSDO>
F 9

$$$$
=
 OpenBabel11062419533D

 30 32  0  0  1  0  0  0  0  0999 V2000
  191.5480  174.3670  145.3520 O   0  0  0  0  0  0  0  0  0  0  0  0
  186.9790  176.6380  140.4120 O   0  0  0  0  0  1  0  0  0  0  0  0
  189.4330  175.1770  142.5320 C   0  0  1  0  0  3  0  0  0  0  0  0
  188.0300  175.1490  141.9410 C   0  0  0  0  0  2  0  0  0  0  0  0
  188.4570  177.1120  144.5190 C   0  0  0  0  0  2  0  0  0  0  0  0
  189.4730  174.7750  144.0020 C   0  0  1  0  0  3  0  0  0  0  0  0
  190.9380  174.9480  146.4520 N   0  0  0  0  0  2  0  0  0  0  0  0
  190.2880  176.1900  146.0160 C   0  0  0  0  0  2  0  0  0  0  0  0
  186.6520  177.1490  142.7270 C   0  0  2  0  0  3  0  0  0  0  0  0
  190.8730  174.3080  144.1340 C   0  0  1  0  0  3  0  0  0  0  0  0
  187.0140  176.7750  144.1670 C   0  0  0  0  0  2  0  0  0  0  0  0
  191.4490  174.0090  142.9870 C   0  0  0  0  0  2  0  0  0  0  0  0
  189.1310  175.8580  145.0620 C   0  0  1  0  0  3  0  0  0  0  0  0
  187.5970  176.5800  141.6600 C   0  0  2  0  0  3  0  0  0  0  0  0
  190.5110  174.2960  141.8500 C   0  0  1  0  0  3  0  0  0  0  0  0
  188.8060  172.4190  141.8080 C   0  0  0  0  0  1  0  0  0  0  0  0
  190.0430  173.0030  141.1140 C   0  0  1  0  0  0  0  0  0  0  0  0
  189.7710  173.3270  139.6520 C   0  0  0  0  0  0  0  0  0  0  0  0
  190.6660  173.7920  138.9610 O   0  0  0  0  0  0  0  0  0  0  0  0
  188.0280  174.2310  138.3230 O   0  0  0  0  0  1  0  0  0  0  0  0
  188.4300  173.0920  139.0220 C   0  0  0  0  0  2  0  0  0  0  0  0
  191.1850  171.9660  141.1760 C   0  0  0  0  0  2  0  0  0  0  0  0
  190.6420  169.7440  141.8710 O   0  0  0  0  0  1  0  0  0  0  0  0
  190.4830  170.1390  139.6190 O   0  0  0  0  0  0  0  0  0  0  0  0
  190.7500  170.5560  140.9160 C   0  0  0  0  0  0  0  0  0  0  0  0
  186.5800  178.5380  142.5990 O   0  0  0  0  0  0  0  0  0  0  0  0
  185.3230  178.8850  143.1010 C   0  0  0  0  0  2  0  0  0  0  0  0
  185.4600  180.0080  144.1170 C   0  0  0  0  0  2  0  0  0  0  0  0
  184.1030  178.6670  145.7320 C   0  0  0  0  0  1  0  0  0  0  0  0
  185.3730  179.4720  145.5390 C   0  0  0  0  0  2  0  0  0  0  0  0
  1  7  1  0  0  0  0
  2 14  1  0  0  0  0
  3  4  1  6  0  0  0
  3  6  1  0  0  0  0
  5 13  1  0  0  0  0
  6 10  1  0  0  0  0
  6 13  1  0  0  0  0
  8  7  1  0  0  0  0
  9 11  1  0  0  0  0
 10  1  1  0  0  0  0
 11  5  1  0  0  0  0
 12 10  1  0  0  0  0
 13  8  1  0  0  0  0
 14  4  1  0  0  0  0
 14  9  1  0  0  0  0
 15  3  1  0  0  0  0
 15 12  1  0  0  0  0
 17 22  1  0  0  0  0
 17 16  1  0  0  0  0
 17 15  1  0  0  0  0
 18 17  1  0  0  0  0
 19 18  2  0  0  0  0
 20 21  1  0  0  0  0
 21 18  1  0  0  0  0
 24 25  2  0  0  0  0
 25 22  1  0  0  0  0
 25 23  1  0  0  0  0
 26  9  1  0  0  0  0
 26 27  1  0  0  0  0
 27 28  1  0  0  0  0
 28 30  1  0  0  0  0
 30 29  1  0  0  0  0
M  END
>  <MODEL>
4

>  <REMARK>
 VINA RESULT:      -6.1      2.685      5.423
  Name = 
  9 active torsions:
  status: ('A' for Active; 'I' for Inactive)
    1  A    between atoms: C_3  and  C_29
    2  A    between atoms: C_3  and  C_30
    3  A    between atoms: C_5  and  C_6
    4  A    between atoms: C_5  and  C_8
    5  A    between atoms: C_6  and  O_15
    6  A    between atoms: O_15  and  C_16
    7  A    between atoms: C_17  and  C_19
    8  A    between atoms: C_19  and  C_30
    9  A    between atoms: C_26  and  C_30
                            x       y       z     vdW  Elec       q    Type
                         _______ _______ _______ _____ _____    ______ ____

>  <TORSDO>
F 9

$$$$
=
 OpenBabel11062419533D

 30 32  0  0  1  0  0  0  0  0999 V2000
  187.4350  176.1340  139.9150 O   0  0  0  0  0  0  0  0  0  0  0  0
  189.0560  175.2530  146.7720 O   0  0  0  0  0  1  0  0  0  0  0  0
  188.5970  175.3410  143.2470 C   0  0  1  0  0  3  0  0  0  0  0  0
  189.3530  175.8160  144.4810 C   0  0  0  0  0  2  0  0  0  0  0  0
  186.5340  177.3470  143.8520 C   0  0  0  0  0  2  0  0  0  0  0  0
  188.3550  176.4490  142.2280 C   0  0  1  0  0  3  0  0  0  0  0  0
  186.7350  177.3230  140.0400 N   0  0  0  0  0  2  0  0  0  0  0  0
  186.0820  177.3360  141.3540 C   0  0  0  0  0  2  0  0  0  0  0  0
  187.8430  177.1770  146.0260 C   0  0  2  0  0  3  0  0  0  0  0  0
  188.1990  175.6630  140.9810 C   0  0  1  0  0  3  0  0  0  0  0  0
  187.4730  178.0490  144.8230 C   0  0  0  0  0  2  0  0  0  0  0  0
  188.6910  174.4420  141.0510 C   0  0  0  0  0  2  0  0  0  0  0  0
  187.1470  177.3980  142.4580 C   0  0  1  0  0  3  0  0  0  0  0  0
  188.4010  175.7930  145.6670 C   0  0  2  0  0  3  0  0  0  0  0  0
  189.2230  174.1810  142.4310 C   0  0  1  0  0  3  0  0  0  0  0  0
  191.4490  175.3960  142.4040 C   0  0  0  0  0  1  0  0  0  0  0  0
  190.7750  174.0190  142.4580 C   0  0  1  0  0  0  0  0  0  0  0  0
  191.1780  173.2400  143.7020 C   0  0  0  0  0  0  0  0  0  0  0  0
  192.1270  173.6250  144.3720 O   0  0  0  0  0  0  0  0  0  0  0  0
  189.6770  172.2900  145.2710 O   0  0  0  0  0  1  0  0  0  0  0  0
  190.4460  172.0080  144.1400 C   0  0  0  0  0  2  0  0  0  0  0  0
  191.2020  173.2070  141.2170 C   0  0  0  0  0  2  0  0  0  0  0  0
  192.7890  174.1290  139.6850 O   0  0  0  0  0  0  0  0  0  0  0  0
  193.6810  173.0210  141.4820 O   0  0  0  0  0  1  0  0  0  0  0  0
  192.5980  173.4860  140.7500 C   0  0  0  0  0  0  0  0  0  0  0  0
  186.7380  177.0340  146.8690 O   0  0  0  0  0  0  0  0  0  0  0  0
  186.7890  178.1370  147.7250 C   0  0  0  0  0  2  0  0  0  0  0  0
  185.5960  179.0460  147.4740 C   0  0  0  0  0  2  0  0  0  0  0  0
  183.9170  178.9780  145.6240 C   0  0  0  0  0  1  0  0  0  0  0  0
  184.4390  178.2720  146.8600 C   0  0  0  0  0  2  0  0  0  0  0  0
  1  7  1  0  0  0  0
  1 10  1  0  0  0  0
  3  4  1  1  0  0  0
  4 14  1  0  0  0  0
  5 11  1  0  0  0  0
  6 13  1  0  0  0  0
  6  3  1  0  0  0  0
  7  8  1  0  0  0  0
  8 13  1  0  0  0  0
  9 26  1  0  0  0  0
 10 12  1  0  0  0  0
 10  6  1  0  0  0  0
 11  9  1  0  0  0  0
 12 15  1  0  0  0  0
 13  5  1  0  0  0  0
 14  9  1  0  0  0  0
 14  2  1  0  0  0  0
 15 17  1  0  0  0  0
 15  3  1  0  0  0  0
 16 17  1  0  0  0  0
 17 18  1  0  0  0  0
 18 21  1  0  0  0  0
 18 19  2  0  0  0  0
 21 20  1  0  0  0  0
 22 17  1  0  0  0  0
 23 25  2  0  0  0  0
 25 22  1  0  0  0  0
 25 24  1  0  0  0  0
 26 27  1  0  0  0  0
 28 27  1  0  0  0  0
 29 30  1  0  0  0  0
 30 28  1  0  0  0  0
M  END
>  <MODEL>
5

>  <REMARK>
 VINA RESULT:      -6.0      2.497      3.264
  Name = 
  9 active torsions:
  status: ('A' for Active; 'I' for Inactive)
    1  A    between atoms: C_3  and  C_29
    2  A    between atoms: C_3  and  C_30
    3  A    between atoms: C_5  and  C_6
    4  A    between atoms: C_5  and  C_8
    5  A    between atoms: C_6  and  O_15
    6  A    between atoms: O_15  and  C_16
    7  A    between atoms: C_17  and  C_19
    8  A    between atoms: C_19  and  C_30
    9  A    between atoms: C_26  and  C_30
                            x       y       z     vdW  Elec       q    Type
                         _______ _______ _______ _____ _____    ______ ____

>  <TORSDO>
F 9

$$$$
=
 OpenBabel11062419533D

 30 32  0  0  1  0  0  0  0  0999 V2000
  191.9150  174.9750  146.9590 O   0  0  0  0  0  0  0  0  0  0  0  0
  187.6550  176.1820  141.4070 O   0  0  0  0  0  1  0  0  0  0  0  0
  190.0120  175.2290  143.8930 C   0  0  1  0  0  3  0  0  0  0  0  0
  188.6780  174.9980  143.1980 C   0  0  0  0  0  2  0  0  0  0  0  0
  188.7010  177.2960  145.5230 C   0  0  0  0  0  2  0  0  0  0  0  0
  189.9490  175.0180  145.4020 C   0  0  1  0  0  3  0  0  0  0  0  0
  191.1600  175.6280  147.9190 N   0  0  0  0  0  2  0  0  0  0  0  0
  190.4550  176.7400  147.2720 C   0  0  0  0  0  2  0  0  0  0  0  0
  187.0730  176.9440  143.6000 C   0  0  2  0  0  3  0  0  0  0  0  0
  191.3640  174.7020  145.7080 C   0  0  1  0  0  3  0  0  0  0  0  0
  187.3300  176.7860  145.1010 C   0  0  0  0  0  2  0  0  0  0  0  0
  192.0670  174.3180  144.6610 C   0  0  0  0  0  2  0  0  0  0  0  0
  189.4230  176.1870  146.2790 C   0  0  1  0  0  3  0  0  0  0  0  0
  188.1570  176.3360  142.6980 C   0  0  2  0  0  3  0  0  0  0  0  0
  191.2180  174.3740  143.4240 C   0  0  1  0  0  3  0  0  0  0  0  0
  189.8710  172.2400  143.6740 C   0  0  0  0  0  1  0  0  0  0  0  0
  190.9270  172.9620  142.8280 C   0  0  1  0  0  0  0  0  0  0  0  0
  190.4870  173.1080  141.3780 C   0  0  0  0  0  0  0  0  0  0  0  0
  191.0910  173.8740  140.6400 O   0  0  0  0  0  0  0  0  0  0  0  0
  188.4820  173.1980  140.1160 O   0  0  0  0  0  1  0  0  0  0  0  0
  189.3290  172.3380  140.8170 C   0  0  0  0  0  2  0  0  0  0  0  0
  192.2340  172.1420  142.8580 C   0  0  0  0  0  2  0  0  0  0  0  0
  192.3210  170.1720  144.2100 O   0  0  0  0  0  1  0  0  0  0  0  0
  191.5520  169.8680  142.0720 O   0  0  0  0  0  0  0  0  0  0  0  0
  192.0360  170.6760  143.0930 C   0  0  0  0  0  0  0  0  0  0  0  0
  186.9010  178.2930  143.2850 O   0  0  0  0  0  0  0  0  0  0  0  0
  185.5330  178.5310  143.4420 C   0  0  0  0  0  2  0  0  0  0  0  0
  185.3150  179.7950  144.2590 C   0  0  0  0  0  2  0  0  0  0  0  0
  184.0600  178.5890  146.0530 C   0  0  0  0  0  1  0  0  0  0  0  0
  185.2480  179.4800  145.7460 C   0  0  0  0  0  2  0  0  0  0  0  0
  1  7  1  0  0  0  0
  2 14  1  0  0  0  0
  3  4  1  6  0  0  0
  3  6  1  0  0  0  0
  5 13  1  0  0  0  0
  6 10  1  0  0  0  0
  6 13  1  0  0  0  0
  8  7  1  0  0  0  0
  9 11  1  0  0  0  0
 10  1  1  0  0  0  0
 11  5  1  0  0  0  0
 12 10  1  0  0  0  0
 13  8  1  0  0  0  0
 14  4  1  0  0  0  0
 14  9  1  0  0  0  0
 15  3  1  0  0  0  0
 15 12  1  0  0  0  0
 17 22  1  0  0  0  0
 17 15  1  0  0  0  0
 17 16  1  0  0  0  0
 18 17  1  0  0  0  0
 19 18  2  0  0  0  0
 20 21  1  0  0  0  0
 21 18  1  0  0  0  0
 22 25  1  0  0  0  0
 24 25  2  0  0  0  0
 25 23  1  0  0  0  0
 26 27  1  0  0  0  0
 26  9  1  0  0  0  0
 27 28  1  0  0  0  0
 28 30  1  0  0  0  0
 30 29  1  0  0  0  0
M  END
>  <MODEL>
6

>  <REMARK>
 VINA RESULT:      -6.0      2.531      4.898
  Name = 
  9 active torsions:
  status: ('A' for Active; 'I' for Inactive)
    1  A    between atoms: C_3  and  C_29
    2  A    between atoms: C_3  and  C_30
    3  A    between atoms: C_5  and  C_6
    4  A    between atoms: C_5  and  C_8
    5  A    between atoms: C_6  and  O_15
    6  A    between atoms: O_15  and  C_16
    7  A    between atoms: C_17  and  C_19
    8  A    between atoms: C_19  and  C_30
    9  A    between atoms: C_26  and  C_30
                            x       y       z     vdW  Elec       q    Type
                         _______ _______ _______ _____ _____    ______ ____

>  <TORSDO>
F 9

$$$$
=
 OpenBabel11062419533D

 30 32  0  0  1  0  0  0  0  0999 V2000
  187.6860  177.9550  147.9730 O   0  0  0  0  0  0  0  0  0  0  0  0
  188.1920  177.1160  140.9400 O   0  0  0  0  0  1  0  0  0  0  0  0
  188.4170  177.3680  144.4800 C   0  0  1  0  0  3  0  0  0  0  0  0
  188.1380  176.5250  143.2430 C   0  0  0  0  0  2  0  0  0  0  0  0
  185.6630  178.3820  144.2980 C   0  0  0  0  0  2  0  0  0  0  0  0
  187.4680  177.0720  145.6350 C   0  0  1  0  0  3  0  0  0  0  0  0
  186.3080  178.0780  148.0480 N   0  0  0  0  0  2  0  0  0  0  0  0
  185.8340  178.7070  146.8100 C   0  0  0  0  0  2  0  0  0  0  0  0
  186.0630  177.3530  142.0060 C   0  0  2  0  0  3  0  0  0  0  0  0
  188.2810  177.5080  146.7950 C   0  0  1  0  0  3  0  0  0  0  0  0
  185.2960  177.2670  143.3290 C   0  0  0  0  0  2  0  0  0  0  0  0
  189.5720  177.5940  146.5430 C   0  0  0  0  0  2  0  0  0  0  0  0
  186.0740  177.7590  145.6260 C   0  0  1  0  0  3  0  0  0  0  0  0
  187.5880  177.4350  142.1550 C   0  0  2  0  0  3  0  0  0  0  0  0
  189.8360  177.2760  145.0990 C   0  0  1  0  0  3  0  0  0  0  0  0
  191.1190  175.8260  143.4610 C   0  0  0  0  0  1  0  0  0  0  0  0
  190.6340  175.9490  144.9110 C   0  0  1  0  0  0  0  0  0  0  0  0
  191.7910  175.9130  145.8990 C   0  0  0  0  0  0  0  0  0  0  0  0
  191.6620  175.3110  146.9570 O   0  0  0  0  0  0  0  0  0  0  0  0
  193.8100  176.7590  146.8080 O   0  0  0  0  0  1  0  0  0  0  0  0
  193.0970  176.5940  145.6190 C   0  0  0  0  0  2  0  0  0  0  0  0
  189.6930  174.7660  145.2230 C   0  0  0  0  0  2  0  0  0  0  0  0
  189.2660  173.1590  143.5060 O   0  0  0  0  0  0  0  0  0  0  0  0
  191.0960  172.7360  144.8190 O   0  0  0  0  0  1  0  0  0  0  0  0
  190.0030  173.5140  144.4610 C   0  0  0  0  0  0  0  0  0  0  0  0
  185.6040  178.4400  141.2590 O   0  0  0  0  0  0  0  0  0  0  0  0
  184.6080  177.9160  140.4310 C   0  0  0  0  0  2  0  0  0  0  0  0
  183.3560  178.7760  140.5140 C   0  0  0  0  0  2  0  0  0  0  0  0
  181.0290  178.5330  141.3910 C   0  0  0  0  0  1  0  0  0  0  0  0
  182.1020  177.9150  140.5150 C   0  0  0  0  0  2  0  0  0  0  0  0
  1  7  1  0  0  0  0
  2 14  1  0  0  0  0
  3  4  1  6  0  0  0
  3 15  1  0  0  0  0
  3  6  1  0  0  0  0
  5 13  1  0  0  0  0
  6 10  1  0  0  0  0
  8  7  1  0  0  0  0
  9 14  1  0  0  0  0
  9 11  1  0  0  0  0
 10  1  1  0  0  0  0
 11  5  1  0  0  0  0
 12 10  1  0  0  0  0
 13  6  1  0  0  0  0
 13  8  1  0  0  0  0
 14  4  1  0  0  0  0
 15 12  1  0  0  0  0
 16 17  1  0  0  0  0
 17 15  1  0  0  0  0
 17 22  1  0  0  0  0
 17 18  1  0  0  0  0
 18 19  2  0  0  0  0
 21 18  1  0  0  0  0
 21 20  1  0  0  0  0
 23 25  2  0  0  0  0
 25 24  1  0  0  0  0
 25 22  1  0  0  0  0
 26  9  1  0  0  0  0
 27 28  1  0  0  0  0
 27 26  1  0  0  0  0
 28 30  1  0  0  0  0
 30 29  1  0  0  0  0
M  END
>  <MODEL>
7

>  <REMARK>
 VINA RESULT:      -5.9      2.632      4.687
  Name = 
  9 active torsions:
  status: ('A' for Active; 'I' for Inactive)
    1  A    between atoms: C_3  and  C_29
    2  A    between atoms: C_3  and  C_30
    3  A    between atoms: C_5  and  C_6
    4  A    between atoms: C_5  and  C_8
    5  A    between atoms: C_6  and  O_15
    6  A    between atoms: O_15  and  C_16
    7  A    between atoms: C_17  and  C_19
    8  A    between atoms: C_19  and  C_30
    9  A    between atoms: C_26  and  C_30
                            x       y       z     vdW  Elec       q    Type
                         _______ _______ _______ _____ _____    ______ ____

>  <TORSDO>
F 9

$$$$
=
 OpenBabel11062419533D

 30 32  0  0  1  0  0  0  0  0999 V2000
  192.2160  175.2940  146.9740 O   0  0  0  0  0  0  0  0  0  0  0  0
  187.7290  176.6520  141.6400 O   0  0  0  0  0  1  0  0  0  0  0  0
  190.2430  175.7060  143.9710 C   0  0  1  0  0  3  0  0  0  0  0  0
  188.9440  175.3840  143.2440 C   0  0  0  0  0  2  0  0  0  0  0  0
  188.6730  177.3020  145.8780 C   0  0  0  0  0  2  0  0  0  0  0  0
  190.2370  175.2730  145.4320 C   0  0  1  0  0  3  0  0  0  0  0  0
  191.3910  175.6840  148.0160 N   0  0  0  0  0  2  0  0  0  0  0  0
  190.5200  176.7630  147.5340 C   0  0  0  0  0  2  0  0  0  0  0  0
  187.0810  176.9950  143.9180 C   0  0  2  0  0  3  0  0  0  0  0  0
  191.6880  175.1270  145.6950 C   0  0  1  0  0  3  0  0  0  0  0  0
  187.3840  176.6620  145.3810 C   0  0  0  0  0  2  0  0  0  0  0  0
  192.4210  175.0050  144.6060 C   0  0  0  0  0  2  0  0  0  0  0  0
  189.5620  176.2130  146.4670 C   0  0  1  0  0  3  0  0  0  0  0  0
  188.2250  176.6900  142.9410 C   0  0  2  0  0  3  0  0  0  0  0  0
  191.5510  175.1140  143.3860 C   0  0  1  0  0  3  0  0  0  0  0  0
  190.6430  173.9790  141.3080 C   0  0  0  0  0  1  0  0  0  0  0  0
  191.4590  173.7750  142.5910 C   0  0  1  0  0  0  0  0  0  0  0  0
  192.8640  173.2690  142.2930 C   0  0  0  0  0  0  0  0  0  0  0  0
  193.2890  172.2870  142.8860 O   0  0  0  0  0  0  0  0  0  0  0  0
  195.0160  174.1530  141.8390 O   0  0  0  0  0  1  0  0  0  0  0  0
  193.7530  173.9370  141.2860 C   0  0  0  0  0  2  0  0  0  0  0  0
  190.7450  172.7310  143.4750 C   0  0  0  0  0  2  0  0  0  0  0  0
  188.6150  171.9250  142.7500 O   0  0  0  0  0  1  0  0  0  0  0  0
  190.4250  170.7400  141.9960 O   0  0  0  0  0  0  0  0  0  0  0  0
  189.8640  171.7840  142.7190 C   0  0  0  0  0  0  0  0  0  0  0  0
  186.7080  178.3370  143.8010 O   0  0  0  0  0  0  0  0  0  0  0  0
  185.3110  178.3270  143.8110 C   0  0  0  0  0  2  0  0  0  0  0  0
  184.7910  179.3470  144.8130 C   0  0  0  0  0  2  0  0  0  0  0  0
  184.9300  178.6500  147.2090 C   0  0  0  0  0  1  0  0  0  0  0  0
  184.0660  178.6630  145.9620 C   0  0  0  0  0  2  0  0  0  0  0  0
  1  7  1  0  0  0  0
  2 14  1  0  0  0  0
  3  4  1  6  0  0  0
  3  6  1  0  0  0  0
  5 13  1  0  0  0  0
  6 10  1  0  0  0  0
  6 13  1  0  0  0  0
  8  7  1  0  0  0  0
  9 11  1  0  0  0  0
 10  1  1  0  0  0  0
 11  5  1  0  0  0  0
 12 10  1  0  0  0  0
 13  8  1  0  0  0  0
 14  4  1  0  0  0  0
 14  9  1  0  0  0  0
 15  3  1  0  0  0  0
 15 12  1  0  0  0  0
 16 17  1  0  0  0  0
 17 15  1  0  0  0  0
 17 22  1  0  0  0  0
 18 17  1  0  0  0  0
 18 19  2  0  0  0  0
 21 20  1  0  0  0  0
 21 18  1  0  0  0  0
 24 25  2  0  0  0  0
 25 23  1  0  0  0  0
 25 22  1  0  0  0  0
 26 27  1  0  0  0  0
 26  9  1  0  0  0  0
 27 28  1  0  0  0  0
 28 30  1  0  0  0  0
 30 29  1  0  0  0  0
M  END
>  <MODEL>
8

>  <REMARK>
 VINA RESULT:      -5.7      2.371      4.701
  Name = 
  9 active torsions:
  status: ('A' for Active; 'I' for Inactive)
    1  A    between atoms: C_3  and  C_29
    2  A    between atoms: C_3  and  C_30
    3  A    between atoms: C_5  and  C_6
    4  A    between atoms: C_5  and  C_8
    5  A    between atoms: C_6  and  O_15
    6  A    between atoms: O_15  and  C_16
    7  A    between atoms: C_17  and  C_19
    8  A    between atoms: C_19  and  C_30
    9  A    between atoms: C_26  and  C_30
                            x       y       z     vdW  Elec       q    Type
                         _______ _______ _______ _____ _____    ______ ____

>  <TORSDO>
F 9

$$$$
=
 OpenBabel11062419533D

 30 32  0  0  1  0  0  0  0  0999 V2000
  189.9160  176.8550  147.6040 O   0  0  0  0  0  0  0  0  0  0  0  0
  191.9900  174.4930  141.2370 O   0  0  0  0  0  1  0  0  0  0  0  0
  190.4860  175.7020  144.2240 C   0  0  1  0  0  3  0  0  0  0  0  0
  191.1190  175.9870  142.8690 C   0  0  0  0  0  2  0  0  0  0  0  0
  193.1970  175.4800  145.3410 C   0  0  0  0  0  2  0  0  0  0  0  0
  190.9000  176.6970  145.3020 C   0  0  1  0  0  3  0  0  0  0  0  0
  191.1710  177.1480  148.1120 N   0  0  0  0  0  2  0  0  0  0  0  0
  192.1350  176.2090  147.5280 C   0  0  0  0  0  2  0  0  0  0  0  0
  193.5790  175.3040  142.8320 C   0  0  2  0  0  3  0  0  0  0  0  0
  189.7620  176.5890  146.2450 C   0  0  1  0  0  3  0  0  0  0  0  0
  193.7830  176.1390  144.0990 C   0  0  0  0  0  2  0  0  0  0  0  0
  188.6750  176.0630  145.7160 C   0  0  0  0  0  2  0  0  0  0  0  0
  192.2580  176.4690  146.0200 C   0  0  1  0  0  3  0  0  0  0  0  0
  192.1260  174.8880  142.5660 C   0  0  2  0  0  3  0  0  0  0  0  0
  188.9380  175.6630  144.2930 C   0  0  1  0  0  3  0  0  0  0  0  0
  188.8790  177.8350  142.9850 C   0  0  0  0  0  1  0  0  0  0  0  0
  188.1360  176.5220  143.2670 C   0  0  1  0  0  0  0  0  0  0  0  0
  187.9160  175.7130  141.9960 C   0  0  0  0  0  0  0  0  0  0  0  0
  187.8170  176.2930  140.9230 O   0  0  0  0  0  0  0  0  0  0  0  0
  188.8070  173.6670  141.1970 O   0  0  0  0  0  1  0  0  0  0  0  0
  187.8170  174.2170  142.0130 C   0  0  0  0  0  2  0  0  0  0  0  0
  186.7580  176.8510  143.8780 C   0  0  0  0  0  2  0  0  0  0  0  0
  185.8540  178.5430  142.4510 O   0  0  0  0  0  0  0  0  0  0  0  0
  186.3090  179.2030  144.5980 O   0  0  0  0  0  1  0  0  0  0  0  0
  186.2760  178.2410  143.5970 C   0  0  0  0  0  0  0  0  0  0  0  0
  194.3930  174.1690  142.8720 O   0  0  0  0  0  0  0  0  0  0  0  0
  195.6780  174.6340  142.5790 C   0  0  0  0  0  2  0  0  0  0  0  0
  196.7110  173.8290  143.3510 C   0  0  0  0  0  2  0  0  0  0  0  0
  196.5950  173.7910  145.8470 C   0  0  0  0  0  1  0  0  0  0  0  0
  197.1110  174.5410  144.6350 C   0  0  0  0  0  2  0  0  0  0  0  0
  1  7  1  0  0  0  0
  2 14  1  0  0  0  0
  3  4  1  6  0  0  0
  3 15  1  0  0  0  0
  3  6  1  0  0  0  0
  5 13  1  0  0  0  0
  6 13  1  0  0  0  0
  6 10  1  0  0  0  0
  8  7  1  0  0  0  0
  9 26  1  0  0  0  0
  9 11  1  0  0  0  0
 10  1  1  0  0  0  0
 11  5  1  0  0  0  0
 12 10  1  0  0  0  0
 13  8  1  0  0  0  0
 14  9  1  0  0  0  0
 14  4  1  0  0  0  0
 15 12  1  0  0  0  0
 16 17  1  0  0  0  0
 17 22  1  0  0  0  0
 17 15  1  0  0  0  0
 18 21  1  0  0  0  0
 18 17  1  0  0  0  0
 19 18  2  0  0  0  0
 20 21  1  0  0  0  0
 23 25  2  0  0  0  0
 25 22  1  0  0  0  0
 25 24  1  0  0  0  0
 27 26  1  0  0  0  0
 27 28  1  0  0  0  0
 28 30  1  0  0  0  0
 30 29  1  0  0  0  0
M  END
>  <MODEL>
9

>  <REMARK>
 VINA RESULT:      -5.7      2.320      7.820
  Name = 
  9 active torsions:
  status: ('A' for Active; 'I' for Inactive)
    1  A    between atoms: C_3  and  C_29
    2  A    between atoms: C_3  and  C_30
    3  A    between atoms: C_5  and  C_6
    4  A    between atoms: C_5  and  C_8
    5  A    between atoms: C_6  and  O_15
    6  A    between atoms: O_15  and  C_16
    7  A    between atoms: C_17  and  C_19
    8  A    between atoms: C_19  and  C_30
    9  A    between atoms: C_26  and  C_30
                            x       y       z     vdW  Elec       q    Type
                         _______ _______ _______ _____ _____    ______ ____

>  <TORSDO>
F 9

$$$$
