=
 OpenBabel11062422413D

 44 50  0  0  1  0  0  0  0  0999 V2000
  190.7200  171.7040  138.5370 N   0  0  0  0  0  1  0  0  0  0  0  0
  188.3670  174.1180  139.9950 C   0  0  0  0  0  2  0  0  0  0  0  0
  189.4410  173.7430  139.1410 N   0  0  0  0  0  2  0  0  0  0  0  0
  190.2530  172.7030  139.5200 C   0  0  0  0  0  0  0  0  0  0  0  0
  189.7390  173.4050  141.8260 C   0  0  0  0  0  3  0  0  0  0  0  0
  190.4420  172.4740  140.8750 C   0  0  0  0  0  0  0  0  0  0  0  0
  188.8120  174.2160  141.4210 C   0  0  0  0  0  0  0  0  0  0  0  0
  197.3310  169.0400  146.5840 C   0  0  0  0  0  3  0  0  0  0  0  0
  195.5730  170.0930  143.8140 C   0  0  2  0  0  3  0  0  0  0  0  0
  197.1910  168.3140  148.7420 O   0  0  0  0  0  1  0  0  0  0  0  0
  195.1030  168.5360  147.5170 C   0  0  0  0  0  3  0  0  0  0  0  0
  196.5630  168.6000  147.6540 C   0  0  0  0  0  0  0  0  0  0  0  0
  193.5250  170.5850  142.2950 C   0  0  2  0  0  3  0  0  0  0  0  0
  195.0910  171.5760  143.2550 C   0  0  0  0  0  2  0  0  0  0  0  0
  192.5400  171.4980  141.9240 N   0  0  0  0  0  0  0  0  0  0  0  0
  190.4470  170.3090  141.6760 O   0  0  0  0  0  0  0  0  0  0  0  0
  194.5580  169.2010  146.4620 C   0  0  0  0  0  2  0  0  0  0  0  0
  197.9410  169.8740  144.6160 O   0  0  0  0  0  1  0  0  0  0  0  0
  194.5230  169.1830  144.1010 C   0  0  1  0  0  3  0  0  0  0  0  0
  196.9000  169.6540  145.5370 C   0  0  0  0  0  0  0  0  0  0  0  0
  195.3220  169.9420  145.3360 C   0  0  1  0  0  0  0  0  0  0  0  0
  191.1230  171.3870  141.4360 C   0  0  0  0  0  0  0  0  0  0  0  0
  193.1940  169.6920  143.5300 C   0  0  0  0  0  2  0  0  0  0  0  0
  193.6040  171.7930  142.9720 C   0  0  1  0  0  3  0  0  0  0  0  0
  188.1520  175.6070  144.6020 N   0  0  0  0  0  0  0  0  0  0  0  0
  185.2330  177.6520  142.0700 C   0  0  0  0  0  0  0  0  0  0  0  0
  185.4040  178.0200  140.7470 C   0  0  0  0  0  3  0  0  0  0  0  0
  187.1080  176.2320  141.7950 C   0  0  0  0  0  0  0  0  0  0  0  0
  187.3600  176.7180  140.5460 C   0  0  0  0  0  3  0  0  0  0  0  0
  188.8030  175.6290  143.3590 N   0  0  0  0  0  2  0  0  0  0  0  0
  187.4780  176.8390  144.8620 C   0  0  0  0  0  0  0  0  0  0  0  0
  186.2960  176.9520  144.1220 O   0  0  0  0  0  0  0  0  0  0  0  0
  186.2200  176.9280  142.6780 C   0  0  0  0  0  0  0  0  0  0  0  0
  187.9350  175.0670  142.3220 C   0  0  2  0  0  3  0  0  0  0  0  0
  184.1830  178.0800  142.8230 O   0  0  0  0  0  1  0  0  0  0  0  0
  186.4710  177.5620  139.9900 C   0  0  0  0  0  3  0  0  0  0  0  0
  187.5310  177.4210  146.3510 C   0  0  1  0  0  3  0  0  0  0  0  0
  186.3470  177.1950  147.1050 C   0  0  0  0  0  3  0  0  0  0  0  0
  185.9190  179.4470  147.5550 O   0  0  0  0  0  1  0  0  0  0  0  0
  185.5280  178.0970  147.5710 C   0  0  0  0  0  3  0  0  0  0  0  0
  188.7260  176.7430  146.9130 O   0  0  0  0  0  0  0  0  0  0  0  0
  190.0520  177.3640  146.9810 C   0  0  0  0  0  2  0  0  0  0  0  0
  190.6990  175.2190  147.2270 C   0  0  0  0  0  1  0  0  0  0  0  0
  191.0940  176.4140  146.6140 O   0  0  0  0  0  0  0  0  0  0  0  0
  1  4  1  0  0  0  0
  2  7  1  0  0  0  0
  3  4  1  0  0  0  0
  3  2  1  0  0  0  0
  4  6  2  0  0  0  0
  6 22  1  0  0  0  0
  6  5  1  0  0  0  0
  7  5  2  0  0  0  0
  8 12  1  0  0  0  0
  9 14  1  6  0  0  0
  9 19  1  0  0  0  0
  9 21  1  0  0  0  0
 11 12  2  0  0  0  0
 12 10  1  0  0  0  0
 13 24  1  0  0  0  0
 13 23  1  1  0  0  0
 15 13  1  0  0  0  0
 15 24  1  0  0  0  0
 17 11  1  0  0  0  0
 18 20  1  0  0  0  0
 19 23  1  6  0  0  0
 19 21  1  0  0  0  0
 20  8  2  0  0  0  0
 21 20  1  0  0  0  0
 21 17  1  1  0  0  0
 22 16  2  0  0  0  0
 22 15  1  0  0  0  0
 24 14  1  6  0  0  0
 25 31  2  0  0  0  0
 26 33  1  0  0  0  0
 26 35  1  0  0  0  0
 27 26  2  0  0  0  0
 28 34  1  0  0  0  0
 28 33  2  0  0  0  0
 29 28  1  0  0  0  0
 30 25  1  0  0  0  0
 31 37  1  0  0  0  0
 32 31  1  0  0  0  0
 33 32  1  0  0  0  0
 34  7  1  6  0  0  0
 34 30  1  0  0  0  0
 36 29  2  0  0  0  0
 36 27  1  0  0  0  0
 37 41  1  0  0  0  0
 37 38  1  1  0  0  0
 38 40  2  0  0  0  0
 39 40  1  0  0  0  0
 41 42  1  0  0  0  0
 44 42  1  0  0  0  0
 44 43  1  0  0  0  0
M  END
>  <MODEL>
1

>  <REMARK>
 VINA RESULT:      -8.5      0.000      0.000
  Name = 
  7 active torsions:
  status: ('A' for Active; 'I' for Inactive)
    1  A    between atoms: C_1  and  C_43
    2  A    between atoms: C_15  and  O_29
    3  A    between atoms: C_15  and  O_37
    4  A    between atoms: C_22  and  C_43
    5  A    between atoms: O_29  and  C_43
    6  A    between atoms: C_35  and  C_38
    7  A    between atoms: C_36  and  C_39
                            x       y       z     vdW  Elec       q    Type
                         _______ _______ _______ _____ _____    ______ ____

>  <TORSDO>
F 7

$$$$
=
 OpenBabel11062422413D

 44 50  0  0  1  0  0  0  0  0999 V2000
  187.7160  178.6520  148.1920 N   0  0  0  0  0  1  0  0  0  0  0  0
  185.2270  179.3360  145.5800 C   0  0  0  0  0  2  0  0  0  0  0  0
  185.6520  179.2010  146.9310 N   0  0  0  0  0  2  0  0  0  0  0  0
  186.6560  178.3130  147.2210 C   0  0  0  0  0  0  0  0  0  0  0  0
  185.8010  177.0250  145.3010 C   0  0  0  0  0  3  0  0  0  0  0  0
  186.7890  177.1850  146.4260 C   0  0  0  0  0  0  0  0  0  0  0  0
  185.0280  178.0000  144.9350 C   0  0  0  0  0  0  0  0  0  0  0  0
  195.4830  174.2230  143.6880 C   0  0  0  0  0  3  0  0  0  0  0  0
  192.0690  174.6090  143.9500 C   0  0  2  0  0  3  0  0  0  0  0  0
  197.4960  174.5030  144.7210 O   0  0  0  0  0  1  0  0  0  0  0  0
  195.5070  174.9000  146.0590 C   0  0  0  0  0  3  0  0  0  0  0  0
  196.2130  174.5250  144.8290 C   0  0  0  0  0  0  0  0  0  0  0  0
  189.7710  175.1070  145.0530 C   0  0  2  0  0  3  0  0  0  0  0  0
  191.0150  175.8170  143.5340 C   0  0  0  0  0  2  0  0  0  0  0  0
  188.8140  176.0690  145.3730 N   0  0  0  0  0  0  0  0  0  0  0  0
  188.0270  175.6470  147.6230 O   0  0  0  0  0  0  0  0  0  0  0  0
  194.1930  175.2320  145.9340 C   0  0  0  0  0  3  0  0  0  0  0  0
  193.8020  173.9550  142.2570 O   0  0  0  0  0  1  0  0  0  0  0  0
  192.1120  174.2920  145.3330 C   0  0  1  0  0  3  0  0  0  0  0  0
  194.2350  174.4770  143.4900 C   0  0  1  0  0  3  0  0  0  0  0  0
  193.3370  175.1670  144.6440 C   0  0  1  0  0  0  0  0  0  0  0  0
  187.8300  176.2500  146.4940 C   0  0  0  0  0  0  0  0  0  0  0  0
  190.9380  174.9420  146.0740 C   0  0  0  0  0  2  0  0  0  0  0  0
  190.1000  176.3840  144.6200 C   0  0  1  0  0  3  0  0  0  0  0  0
  181.9300  178.7940  143.4300 N   0  0  0  0  0  0  0  0  0  0  0  0
  184.3370  177.5490  140.0000 C   0  0  0  0  0  0  0  0  0  0  0  0
  185.6980  177.7430  139.8340 C   0  0  0  0  0  3  0  0  0  0  0  0
  184.6670  178.0350  142.2940 C   0  0  0  0  0  0  0  0  0  0  0  0
  185.9720  178.3750  142.0880 C   0  0  0  0  0  3  0  0  0  0  0  0
  183.2270  179.1420  143.8370 N   0  0  0  0  0  2  0  0  0  0  0  0
  181.7130  179.0990  142.0520 C   0  0  0  0  0  0  0  0  0  0  0  0
  182.3440  178.1760  141.2090 O   0  0  0  0  0  0  0  0  0  0  0  0
  183.7660  177.9170  141.1860 C   0  0  0  0  0  0  0  0  0  0  0  0
  184.1230  177.9910  143.7150 C   0  0  2  0  0  3  0  0  0  0  0  0
  183.5270  177.1200  138.9940 O   0  0  0  0  0  1  0  0  0  0  0  0
  186.5110  178.1660  140.8730 C   0  0  0  0  0  3  0  0  0  0  0  0
  180.2930  179.7010  141.6330 C   0  0  1  0  0  3  0  0  0  0  0  0
  180.3010  180.4040  140.3970 C   0  0  0  0  0  3  0  0  0  0  0  0
  178.1760  181.3420  140.6420 O   0  0  0  0  0  1  0  0  0  0  0  0
  179.4050  181.2480  139.9660 C   0  0  0  0  0  3  0  0  0  0  0  0
  179.4290  178.4940  141.6180 O   0  0  0  0  0  0  0  0  0  0  0  0
  178.3570  178.2530  142.5880 C   0  0  0  0  0  2  0  0  0  0  0  0
  178.5260  178.9940  144.7100 C   0  0  0  0  0  1  0  0  0  0  0  0
  178.1440  179.4210  143.4330 O   0  0  0  0  0  0  0  0  0  0  0  0
  2  3  1  0  0  0  0
  3  4  1  0  0  0  0
  4  1  1  0  0  0  0
  5  6  1  0  0  0  0
  6 22  1  0  0  0  0
  6  4  2  0  0  0  0
  7  5  2  0  0  0  0
  7  2  1  0  0  0  0
  8 12  2  0  0  0  0
  9 14  1  1  0  0  0
  9 21  1  0  0  0  0
  9 19  1  0  0  0  0
 10 12  1  0  0  0  0
 12 11  1  0  0  0  0
 13 15  1  0  0  0  0
 13 23  1  1  0  0  0
 15 22  1  0  0  0  0
 17 11  2  0  0  0  0
 19 23  1  1  0  0  0
 20 18  1  1  0  0  0
 20  8  1  0  0  0  0
 20 21  1  0  0  0  0
 21 19  1  0  0  0  0
 21 17  1  1  0  0  0
 22 16  2  0  0  0  0
 24 14  1  6  0  0  0
 24 13  1  0  0  0  0
 24 15  1  0  0  0  0
 25 30  1  0  0  0  0
 26 33  1  0  0  0  0
 27 26  2  0  0  0  0
 27 36  1  0  0  0  0
 28 34  1  0  0  0  0
 29 28  1  0  0  0  0
 31 25  2  0  0  0  0
 32 31  1  0  0  0  0
 33 32  1  0  0  0  0
 33 28  2  0  0  0  0
 34 30  1  0  0  0  0
 34  7  1  1  0  0  0
 35 26  1  0  0  0  0
 36 29  2  0  0  0  0
 37 38  1  6  0  0  0
 37 31  1  0  0  0  0
 40 38  2  0  0  0  0
 40 39  1  0  0  0  0
 41 37  1  0  0  0  0
 41 42  1  0  0  0  0
 42 44  1  0  0  0  0
 44 43  1  0  0  0  0
M  END
>  <MODEL>
2

>  <REMARK>
 VINA RESULT:      -8.0      4.161      7.612
  Name = 
  7 active torsions:
  status: ('A' for Active; 'I' for Inactive)
    1  A    between atoms: C_1  and  C_43
    2  A    between atoms: C_15  and  O_29
    3  A    between atoms: C_15  and  O_37
    4  A    between atoms: C_22  and  C_43
    5  A    between atoms: O_29  and  C_43
    6  A    between atoms: C_35  and  C_38
    7  A    between atoms: C_36  and  C_39
                            x       y       z     vdW  Elec       q    Type
                         _______ _______ _______ _____ _____    ______ ____

>  <TORSDO>
F 7

$$$$
=
 OpenBabel11062422413D

 44 50  0  0  1  0  0  0  0  0999 V2000
  193.5600  174.6950  146.0720 N   0  0  0  0  0  1  0  0  0  0  0  0
  190.8490  177.0840  145.4160 C   0  0  0  0  0  2  0  0  0  0  0  0
  191.7290  176.3590  146.2660 N   0  0  0  0  0  2  0  0  0  0  0  0
  192.1610  175.1190  145.8650 C   0  0  0  0  0  0  0  0  0  0  0  0
  189.9940  174.9620  144.7010 C   0  0  0  0  0  3  0  0  0  0  0  0
  191.3240  174.3580  145.0620 C   0  0  0  0  0  0  0  0  0  0  0  0
  189.7380  176.2160  144.9120 C   0  0  0  0  0  0  0  0  0  0  0  0
  191.9540  168.8830  137.2210 C   0  0  0  0  0  3  0  0  0  0  0  0
  190.8460  170.3260  140.1470 C   0  0  2  0  0  3  0  0  0  0  0  0
  193.7580  168.4710  135.8880 O   0  0  0  0  0  1  0  0  0  0  0  0
  194.2020  169.4320  138.0760 C   0  0  0  0  0  3  0  0  0  0  0  0
  193.3290  168.8960  137.0260 C   0  0  0  0  0  0  0  0  0  0  0  0
  190.9690  171.4900  142.4650 C   0  0  2  0  0  3  0  0  0  0  0  0
  190.2480  171.8210  140.5360 C   0  0  0  0  0  2  0  0  0  0  0  0
  191.0260  172.6940  143.1650 N   0  0  0  0  0  0  0  0  0  0  0  0
  192.6410  172.4640  144.9550 O   0  0  0  0  0  0  0  0  0  0  0  0
  193.6050  170.1690  139.0520 C   0  0  0  0  0  3  0  0  0  0  0  0
  189.9350  169.2150  138.0900 O   0  0  0  0  0  1  0  0  0  0  0  0
  192.0460  169.9630  140.8130 C   0  0  1  0  0  3  0  0  0  0  0  0
  191.3060  169.5280  138.1290 C   0  0  1  0  0  3  0  0  0  0  0  0
  192.0870  170.4260  139.2240 C   0  0  1  0  0  0  0  0  0  0  0  0
  191.6540  173.1390  144.4570 C   0  0  0  0  0  0  0  0  0  0  0  0
  192.3360  170.9260  141.9700 C   0  0  0  0  0  2  0  0  0  0  0  0
  190.9380  172.6100  141.6480 C   0  0  1  0  0  3  0  0  0  0  0  0
  187.5460  177.1140  142.2900 N   0  0  0  0  0  0  0  0  0  0  0  0
  185.3880  178.5130  145.8260 C   0  0  0  0  0  0  0  0  0  0  0  0
  185.3860  177.9220  147.0780 C   0  0  0  0  0  3  0  0  0  0  0  0
  187.2970  177.2000  145.3380 C   0  0  0  0  0  0  0  0  0  0  0  0
  187.1910  176.5140  146.5120 C   0  0  0  0  0  3  0  0  0  0  0  0
  187.9830  176.2180  143.2770 N   0  0  0  0  0  2  0  0  0  0  0  0
  186.1490  177.3880  142.4120 C   0  0  0  0  0  0  0  0  0  0  0  0
  185.8800  178.2570  143.4760 O   0  0  0  0  0  0  0  0  0  0  0  0
  186.2030  177.9920  144.8600 C   0  0  0  0  0  0  0  0  0  0  0  0
  188.4980  176.9510  144.4350 C   0  0  2  0  0  3  0  0  0  0  0  0
  184.5290  179.5110  145.4820 O   0  0  0  0  0  1  0  0  0  0  0  0
  186.2790  176.9180  147.4160 C   0  0  0  0  0  3  0  0  0  0  0  0
  185.2890  177.5010  141.0690 C   0  0  1  0  0  3  0  0  0  0  0  0
  184.2250  178.4420  141.1380 C   0  0  0  0  0  3  0  0  0  0  0  0
  182.8070  177.3060  139.6710 O   0  0  0  0  0  1  0  0  0  0  0  0
  183.0400  178.3290  140.6050 C   0  0  0  0  0  3  0  0  0  0  0  0
  186.3210  177.8510  140.0610 O   0  0  0  0  0  0  0  0  0  0  0  0
  186.5250  177.1020  138.8180 C   0  0  0  0  0  2  0  0  0  0  0  0
  187.4370  175.3110  137.7980 C   0  0  0  0  0  1  0  0  0  0  0  0
  187.2190  175.8460  139.0730 O   0  0  0  0  0  0  0  0  0  0  0  0
  2  3  1  0  0  0  0
  4  1  1  0  0  0  0
  4  3  1  0  0  0  0
  5  7  2  0  0  0  0
  5  6  1  0  0  0  0
  6  4  2  0  0  0  0
  7  2  1  0  0  0  0
  8 20  1  0  0  0  0
  9 14  1  1  0  0  0
  9 19  1  0  0  0  0
 10 12  1  0  0  0  0
 11 17  2  0  0  0  0
 12  8  2  0  0  0  0
 12 11  1  0  0  0  0
 13 23  1  6  0  0  0
 13 15  1  0  0  0  0
 15 22  1  0  0  0  0
 19 23  1  1  0  0  0
 20 18  1  1  0  0  0
 20 21  1  0  0  0  0
 21 17  1  6  0  0  0
 21  9  1  0  0  0  0
 21 19  1  0  0  0  0
 22 16  2  0  0  0  0
 22  6  1  0  0  0  0
 24 14  1  1  0  0  0
 24 13  1  0  0  0  0
 24 15  1  0  0  0  0
 25 31  2  0  0  0  0
 25 30  1  0  0  0  0
 26 27  1  0  0  0  0
 27 36  2  0  0  0  0
 28 29  2  0  0  0  0
 29 36  1  0  0  0  0
 30 34  1  0  0  0  0
 31 32  1  0  0  0  0
 32 33  1  0  0  0  0
 33 28  1  0  0  0  0
 33 26  2  0  0  0  0
 34  7  1  1  0  0  0
 34 28  1  0  0  0  0
 35 26  1  0  0  0  0
 37 38  1  1  0  0  0
 37 31  1  0  0  0  0
 39 40  1  0  0  0  0
 40 38  2  0  0  0  0
 41 37  1  0  0  0  0
 42 44  1  0  0  0  0
 42 41  1  0  0  0  0
 43 44  1  0  0  0  0
M  END
>  <MODEL>
3

>  <REMARK>
 VINA RESULT:      -7.8      3.476      6.646
  Name = 
  7 active torsions:
  status: ('A' for Active; 'I' for Inactive)
    1  A    between atoms: C_1  and  C_43
    2  A    between atoms: C_15  and  O_29
    3  A    between atoms: C_15  and  O_37
    4  A    between atoms: C_22  and  C_43
    5  A    between atoms: O_29  and  C_43
    6  A    between atoms: C_35  and  C_38
    7  A    between atoms: C_36  and  C_39
                            x       y       z     vdW  Elec       q    Type
                         _______ _______ _______ _____ _____    ______ ____

>  <TORSDO>
F 7

$$$$
=
 OpenBabel11062422413D

 44 50  0  0  1  0  0  0  0  0999 V2000
  193.3640  176.1880  146.9820 N   0  0  0  0  0  1  0  0  0  0  0  0
  190.0160  177.5440  146.3190 C   0  0  0  0  0  2  0  0  0  0  0  0
  190.9360  176.7020  147.0020 N   0  0  0  0  0  2  0  0  0  0  0  0
  192.0420  176.2480  146.3260 C   0  0  0  0  0  0  0  0  0  0  0  0
  190.6170  176.3680  144.3180 C   0  0  0  0  0  3  0  0  0  0  0  0
  191.9450  176.0610  144.9550 C   0  0  0  0  0  0  0  0  0  0  0  0
  189.6880  177.0070  144.9600 C   0  0  0  0  0  0  0  0  0  0  0  0
  195.0690  172.9060  136.4620 C   0  0  0  0  0  3  0  0  0  0  0  0
  194.1190  173.0560  139.7700 C   0  0  2  0  0  3  0  0  0  0  0  0
  195.7590  174.0970  134.6430 O   0  0  0  0  0  1  0  0  0  0  0  0
  195.6220  175.2920  136.7550 C   0  0  0  0  0  3  0  0  0  0  0  0
  195.5120  174.1000  135.9070 C   0  0  0  0  0  0  0  0  0  0  0  0
  193.7160  174.0740  142.1250 C   0  0  2  0  0  3  0  0  0  0  0  0
  192.6620  173.2180  140.5410 C   0  0  0  0  0  2  0  0  0  0  0  0
  192.8390  174.7560  142.9680 N   0  0  0  0  0  0  0  0  0  0  0  0
  194.0950  176.4230  144.1940 O   0  0  0  0  0  0  0  0  0  0  0  0
  194.9920  175.2460  137.9610 C   0  0  0  0  0  3  0  0  0  0  0  0
  194.2520  171.4050  137.8850 O   0  0  0  0  0  1  0  0  0  0  0  0
  195.0550  174.0930  140.0200 C   0  0  1  0  0  3  0  0  0  0  0  0
  194.4860  172.7640  137.6020 C   0  0  1  0  0  3  0  0  0  0  0  0
  194.2500  174.0340  138.5750 C   0  0  1  0  0  0  0  0  0  0  0  0
  193.0020  175.7350  144.0960 C   0  0  0  0  0  0  0  0  0  0  0  0
  194.5960  174.9650  141.1950 C   0  0  0  0  0  2  0  0  0  0  0  0
  192.4940  174.3650  141.5370 C   0  0  1  0  0  3  0  0  0  0  0  0
  187.6610  177.5580  142.1190 N   0  0  0  0  0  0  0  0  0  0  0  0
  184.9000  178.3880  145.4050 C   0  0  0  0  0  0  0  0  0  0  0  0
  184.8780  177.7640  146.6400 C   0  0  0  0  0  3  0  0  0  0  0  0
  187.0700  177.4860  145.1190 C   0  0  0  0  0  0  0  0  0  0  0  0
  186.9740  176.7510  146.2650 C   0  0  0  0  0  3  0  0  0  0  0  0
  188.1550  176.7290  143.1360 N   0  0  0  0  0  2  0  0  0  0  0  0
  186.2330  177.5530  142.0850 C   0  0  0  0  0  0  0  0  0  0  0  0
  185.6850  178.3150  143.1230 O   0  0  0  0  0  0  0  0  0  0  0  0
  185.9010  178.0690  144.5310 C   0  0  0  0  0  0  0  0  0  0  0  0
  188.3870  177.5060  144.3560 C   0  0  2  0  0  3  0  0  0  0  0  0
  183.9040  179.2130  144.9790 O   0  0  0  0  0  1  0  0  0  0  0  0
  185.9070  176.9390  147.0640 C   0  0  0  0  0  3  0  0  0  0  0  0
  185.5180  177.5460  140.6550 C   0  0  1  0  0  3  0  0  0  0  0  0
  184.6900  178.6760  140.4130 C   0  0  0  0  0  3  0  0  0  0  0  0
  182.6630  177.5390  140.6470 O   0  0  0  0  0  1  0  0  0  0  0  0
  183.3900  178.7340  140.5130 C   0  0  0  0  0  3  0  0  0  0  0  0
  186.6720  177.4510  139.7250 O   0  0  0  0  0  0  0  0  0  0  0  0
  186.6900  176.5860  138.5430 C   0  0  0  0  0  2  0  0  0  0  0  0
  187.7180  174.8880  137.4750 C   0  0  0  0  0  1  0  0  0  0  0  0
  187.5500  175.4290  138.7550 O   0  0  0  0  0  0  0  0  0  0  0  0
  2  3  1  0  0  0  0
  4  1  1  0  0  0  0
  4  3  1  0  0  0  0
  5  6  1  0  0  0  0
  5  7  2  0  0  0  0
  6  4  2  0  0  0  0
  7  2  1  0  0  0  0
  8 20  1  0  0  0  0
  9 19  1  0  0  0  0
  9 14  1  1  0  0  0
 10 12  1  0  0  0  0
 11 17  2  0  0  0  0
 12  8  2  0  0  0  0
 12 11  1  0  0  0  0
 13 23  1  6  0  0  0
 13 15  1  0  0  0  0
 15 22  1  0  0  0  0
 19 23  1  1  0  0  0
 20 18  1  1  0  0  0
 20 21  1  0  0  0  0
 21 17  1  6  0  0  0
 21  9  1  0  0  0  0
 21 19  1  0  0  0  0
 22 16  2  0  0  0  0
 22  6  1  0  0  0  0
 24 14  1  1  0  0  0
 24 13  1  0  0  0  0
 24 15  1  0  0  0  0
 25 30  1  0  0  0  0
 26 27  1  0  0  0  0
 27 36  2  0  0  0  0
 28 29  2  0  0  0  0
 29 36  1  0  0  0  0
 30 34  1  0  0  0  0
 31 25  2  0  0  0  0
 31 32  1  0  0  0  0
 32 33  1  0  0  0  0
 33 28  1  0  0  0  0
 33 26  2  0  0  0  0
 34  7  1  1  0  0  0
 34 28  1  0  0  0  0
 35 26  1  0  0  0  0
 37 38  1  6  0  0  0
 37 31  1  0  0  0  0
 38 40  2  0  0  0  0
 40 39  1  0  0  0  0
 41 37  1  0  0  0  0
 42 44  1  0  0  0  0
 42 41  1  0  0  0  0
 43 44  1  0  0  0  0
M  END
>  <MODEL>
4

>  <REMARK>
 VINA RESULT:      -7.6      4.250      7.242
  Name = 
  7 active torsions:
  status: ('A' for Active; 'I' for Inactive)
    1  A    between atoms: C_1  and  C_43
    2  A    between atoms: C_15  and  O_29
    3  A    between atoms: C_15  and  O_37
    4  A    between atoms: C_22  and  C_43
    5  A    between atoms: O_29  and  C_43
    6  A    between atoms: C_35  and  C_38
    7  A    between atoms: C_36  and  C_39
                            x       y       z     vdW  Elec       q    Type
                         _______ _______ _______ _____ _____    ______ ____

>  <TORSDO>
F 7

$$$$
=
 OpenBabel11062422413D

 44 50  0  0  1  0  0  0  0  0999 V2000
  190.5170  172.0890  137.8470 N   0  0  0  0  0  1  0  0  0  0  0  0
  188.1910  174.0910  139.8640 C   0  0  0  0  0  2  0  0  0  0  0  0
  189.0970  173.8940  138.7850 N   0  0  0  0  0  2  0  0  0  0  0  0
  190.1260  173.0000  138.9420 C   0  0  0  0  0  0  0  0  0  0  0  0
  190.0290  173.6130  141.3270 C   0  0  0  0  0  3  0  0  0  0  0  0
  190.6430  172.8070  140.2140 C   0  0  0  0  0  0  0  0  0  0  0  0
  188.9190  174.2620  141.1620 C   0  0  0  0  0  0  0  0  0  0  0  0
  197.4070  169.6730  146.2370 C   0  0  0  0  0  3  0  0  0  0  0  0
  195.8060  171.1320  143.5580 C   0  0  2  0  0  3  0  0  0  0  0  0
  197.2390  168.1670  147.9410 O   0  0  0  0  0  1  0  0  0  0  0  0
  195.4250  168.2080  146.3240 C   0  0  0  0  0  3  0  0  0  0  0  0
  196.7150  168.6470  146.8670 C   0  0  0  0  0  0  0  0  0  0  0  0
  193.9690  171.5330  141.7670 C   0  0  2  0  0  3  0  0  0  0  0  0
  194.8870  172.4980  143.3740 C   0  0  0  0  0  2  0  0  0  0  0  0
  192.7780  172.1790  141.4410 N   0  0  0  0  0  0  0  0  0  0  0  0
  191.3480  170.6100  140.2780 O   0  0  0  0  0  0  0  0  0  0  0  0
  194.8290  169.0310  145.4190 C   0  0  0  0  0  3  0  0  0  0  0  0
  197.9370  171.3410  144.8660 O   0  0  0  0  0  1  0  0  0  0  0  0
  195.1480  169.9130  143.2520 C   0  0  1  0  0  3  0  0  0  0  0  0
  196.9340  170.4840  145.3540 C   0  0  1  0  0  3  0  0  0  0  0  0
  195.4120  170.3400  144.8290 C   0  0  1  0  0  0  0  0  0  0  0  0
  191.5950  171.8450  140.5760 C   0  0  0  0  0  0  0  0  0  0  0  0
  193.8230  170.1790  142.5260 C   0  0  0  0  0  2  0  0  0  0  0  0
  193.4870  172.3520  142.7770 C   0  0  1  0  0  3  0  0  0  0  0  0
  188.5360  175.0870  144.5770 N   0  0  0  0  0  0  0  0  0  0  0  0
  185.5190  177.6100  142.6680 C   0  0  0  0  0  0  0  0  0  0  0  0
  185.6100  178.2010  141.4190 C   0  0  0  0  0  3  0  0  0  0  0  0
  187.3180  176.2190  142.0090 C   0  0  0  0  0  0  0  0  0  0  0  0
  187.4980  176.9110  140.8470 C   0  0  0  0  0  3  0  0  0  0  0  0
  189.0980  175.3120  143.3110 N   0  0  0  0  0  2  0  0  0  0  0  0
  187.9260  176.2690  145.0980 C   0  0  0  0  0  0  0  0  0  0  0  0
  186.6990  176.5370  144.4800 O   0  0  0  0  0  0  0  0  0  0  0  0
  186.5210  176.7690  143.0640 C   0  0  0  0  0  0  0  0  0  0  0  0
  188.1390  174.9610  142.2610 C   0  0  2  0  0  3  0  0  0  0  0  0
  184.5410  177.9230  143.5610 O   0  0  0  0  0  1  0  0  0  0  0  0
  186.6030  177.8600  140.5160 C   0  0  0  0  0  3  0  0  0  0  0  0
  188.1050  176.5790  146.6560 C   0  0  1  0  0  3  0  0  0  0  0  0
  189.2640  177.3420  146.9670 C   0  0  0  0  0  3  0  0  0  0  0  0
  190.7690  175.5630  146.8080 O   0  0  0  0  0  1  0  0  0  0  0  0
  190.5040  176.9370  146.9340 C   0  0  0  0  0  3  0  0  0  0  0  0
  186.8360  177.2740  146.9880 O   0  0  0  0  0  0  0  0  0  0  0  0
  186.7290  178.3220  148.0070 C   0  0  0  0  0  2  0  0  0  0  0  0
  185.2030  178.9070  146.4540 C   0  0  0  0  0  1  0  0  0  0  0  0
  185.9320  179.4410  147.5240 O   0  0  0  0  0  0  0  0  0  0  0  0
  1  4  1  0  0  0  0
  2  7  1  0  0  0  0
  3  4  1  0  0  0  0
  3  2  1  0  0  0  0
  4  6  2  0  0  0  0
  6 22  1  0  0  0  0
  6  5  1  0  0  0  0
  7  5  2  0  0  0  0
  8 12  2  0  0  0  0
  9 14  1  1  0  0  0
  9 21  1  0  0  0  0
 11 12  1  0  0  0  0
 12 10  1  0  0  0  0
 13 23  1  1  0  0  0
 13 24  1  0  0  0  0
 15 13  1  0  0  0  0
 15 24  1  0  0  0  0
 16 22  2  0  0  0  0
 17 11  2  0  0  0  0
 19 23  1  1  0  0  0
 19  9  1  0  0  0  0
 19 21  1  0  0  0  0
 20 18  1  6  0  0  0
 20  8  1  0  0  0  0
 21 20  1  0  0  0  0
 21 17  1  1  0  0  0
 22 15  1  0  0  0  0
 24 14  1  6  0  0  0
 25 31  2  0  0  0  0
 26 33  1  0  0  0  0
 26 35  1  0  0  0  0
 27 26  2  0  0  0  0
 28 34  1  0  0  0  0
 28 33  2  0  0  0  0
 29 28  1  0  0  0  0
 30 25  1  0  0  0  0
 31 37  1  0  0  0  0
 32 31  1  0  0  0  0
 33 32  1  0  0  0  0
 34  7  1  6  0  0  0
 34 30  1  0  0  0  0
 36 29  2  0  0  0  0
 36 27  1  0  0  0  0
 37 38  1  6  0  0  0
 37 41  1  0  0  0  0
 39 40  1  0  0  0  0
 40 38  2  0  0  0  0
 41 42  1  0  0  0  0
 43 44  1  0  0  0  0
 44 42  1  0  0  0  0
M  END
>  <MODEL>
5

>  <REMARK>
 VINA RESULT:      -7.6      0.930      2.132
  Name = 
  7 active torsions:
  status: ('A' for Active; 'I' for Inactive)
    1  A    between atoms: C_1  and  C_43
    2  A    between atoms: C_15  and  O_29
    3  A    between atoms: C_15  and  O_37
    4  A    between atoms: C_22  and  C_43
    5  A    between atoms: O_29  and  C_43
    6  A    between atoms: C_35  and  C_38
    7  A    between atoms: C_36  and  C_39
                            x       y       z     vdW  Elec       q    Type
                         _______ _______ _______ _____ _____    ______ ____

>  <TORSDO>
F 7

$$$$
=
 OpenBabel11062422413D

 44 50  0  0  1  0  0  0  0  0999 V2000
  196.1840  174.4980  145.8340 N   0  0  0  0  0  1  0  0  0  0  0  0
  196.3130  173.0440  142.4640 C   0  0  0  0  0  2  0  0  0  0  0  0
  196.8920  173.6570  143.6100 N   0  0  0  0  0  2  0  0  0  0  0  0
  196.1240  174.5140  144.3580 C   0  0  0  0  0  0  0  0  0  0  0  0
  194.9770  175.0220  142.2360 C   0  0  0  0  0  3  0  0  0  0  0  0
  195.1280  175.2360  143.7190 C   0  0  0  0  0  0  0  0  0  0  0  0
  195.5690  174.0400  141.6290 C   0  0  0  0  0  0  0  0  0  0  0  0
  185.9870  177.8110  145.0080 C   0  0  0  0  0  3  0  0  0  0  0  0
  189.2510  177.6990  143.9100 C   0  0  2  0  0  3  0  0  0  0  0  0
  184.5240  177.1790  146.6390 O   0  0  0  0  0  1  0  0  0  0  0  0
  186.8810  176.7450  147.0450 C   0  0  0  0  0  3  0  0  0  0  0  0
  185.7520  177.2560  146.2590 C   0  0  0  0  0  0  0  0  0  0  0  0
  191.8050  177.2340  143.9680 C   0  0  2  0  0  3  0  0  0  0  0  0
  190.0930  176.6790  142.9130 C   0  0  0  0  0  2  0  0  0  0  0  0
  192.8320  176.3240  143.7230 N   0  0  0  0  0  0  0  0  0  0  0  0
  194.4060  176.4310  145.5580 O   0  0  0  0  0  0  0  0  0  0  0  0
  188.0550  176.5600  146.3820 C   0  0  0  0  0  3  0  0  0  0  0  0
  186.9910  178.4680  143.1360 O   0  0  0  0  0  1  0  0  0  0  0  0
  189.7310  177.7740  145.2440 C   0  0  1  0  0  3  0  0  0  0  0  0
  187.0700  177.7090  144.3180 C   0  0  1  0  0  3  0  0  0  0  0  0
  188.3540  176.9200  144.9050 C   0  0  1  0  0  0  0  0  0  0  0  0
  194.1720  176.0470  144.3440 C   0  0  0  0  0  0  0  0  0  0  0  0
  191.1120  177.1180  145.3610 C   0  0  0  0  0  2  0  0  0  0  0  0
  191.3630  176.0240  143.4540 C   0  0  1  0  0  3  0  0  0  0  0  0
  193.3960  172.9640  139.0590 N   0  0  0  0  0  0  0  0  0  0  0  0
  197.0400  173.9340  136.8480 C   0  0  0  0  0  0  0  0  0  0  0  0
  197.9410  174.9410  137.1470 C   0  0  0  0  0  3  0  0  0  0  0  0
  196.1920  174.2040  139.0430 C   0  0  0  0  0  0  0  0  0  0  0  0
  196.9770  175.2970  139.2690 C   0  0  0  0  0  3  0  0  0  0  0  0
  193.9610  173.9740  139.8510 N   0  0  0  0  0  2  0  0  0  0  0  0
  193.5240  173.2540  137.6670 C   0  0  0  0  0  0  0  0  0  0  0  0
  194.8270  173.0370  137.2070 O   0  0  0  0  0  0  0  0  0  0  0  0
  196.0040  173.7100  137.7110 C   0  0  0  0  0  0  0  0  0  0  0  0
  195.3490  173.6440  140.1800 C   0  0  2  0  0  3  0  0  0  0  0  0
  197.0730  173.2390  135.6780 O   0  0  0  0  0  1  0  0  0  0  0  0
  197.9030  175.6280  138.3500 C   0  0  0  0  0  3  0  0  0  0  0  0
  192.2870  172.9090  136.7130 C   0  0  1  0  0  3  0  0  0  0  0  0
  191.8050  171.5780  136.8460 C   0  0  0  0  0  3  0  0  0  0  0  0
  193.2120  170.6550  135.2240 O   0  0  0  0  0  1  0  0  0  0  0  0
  192.2800  170.5090  136.2660 C   0  0  0  0  0  3  0  0  0  0  0  0
  191.2900  173.9380  137.1040 O   0  0  0  0  0  0  0  0  0  0  0  0
  189.9920  173.6200  137.7040 C   0  0  0  0  0  2  0  0  0  0  0  0
  188.7870  173.3340  139.5870 C   0  0  0  0  0  1  0  0  0  0  0  0
  190.0130  173.8420  139.1440 O   0  0  0  0  0  0  0  0  0  0  0  0
  2  3  1  0  0  0  0
  3  4  1  0  0  0  0
  4  1  1  0  0  0  0
  5  6  1  0  0  0  0
  6 22  1  0  0  0  0
  6  4  2  0  0  0  0
  7  5  2  0  0  0  0
  7  2  1  0  0  0  0
  8 12  2  0  0  0  0
  9 14  1  6  0  0  0
  9 21  1  0  0  0  0
  9 19  1  0  0  0  0
 12 10  1  0  0  0  0
 12 11  1  0  0  0  0
 13 23  1  1  0  0  0
 15 13  1  0  0  0  0
 15 22  1  0  0  0  0
 17 11  2  0  0  0  0
 19 23  1  6  0  0  0
 20 18  1  1  0  0  0
 20 21  1  0  0  0  0
 20  8  1  0  0  0  0
 21 19  1  0  0  0  0
 21 17  1  1  0  0  0
 22 16  2  0  0  0  0
 24 14  1  6  0  0  0
 24 15  1  0  0  0  0
 24 13  1  0  0  0  0
 25 30  1  0  0  0  0
 26 27  2  0  0  0  0
 26 33  1  0  0  0  0
 27 36  1  0  0  0  0
 28 29  1  0  0  0  0
 28 34  1  0  0  0  0
 30 34  1  0  0  0  0
 31 25  2  0  0  0  0
 32 31  1  0  0  0  0
 32 33  1  0  0  0  0
 33 28  2  0  0  0  0
 34  7  1  1  0  0  0
 35 26  1  0  0  0  0
 36 29  2  0  0  0  0
 37 38  1  1  0  0  0
 37 41  1  0  0  0  0
 37 31  1  0  0  0  0
 39 40  1  0  0  0  0
 40 38  2  0  0  0  0
 41 42  1  0  0  0  0
 42 44  1  0  0  0  0
 44 43  1  0  0  0  0
M  END
>  <MODEL>
6

>  <REMARK>
 VINA RESULT:      -7.6      4.300     10.534
  Name = 
  7 active torsions:
  status: ('A' for Active; 'I' for Inactive)
    1  A    between atoms: C_1  and  C_43
    2  A    between atoms: C_15  and  O_29
    3  A    between atoms: C_15  and  O_37
    4  A    between atoms: C_22  and  C_43
    5  A    between atoms: O_29  and  C_43
    6  A    between atoms: C_35  and  C_38
    7  A    between atoms: C_36  and  C_39
                            x       y       z     vdW  Elec       q    Type
                         _______ _______ _______ _____ _____    ______ ____

>  <TORSDO>
F 7

$$$$
=
 OpenBabel11062422413D

 44 50  0  0  1  0  0  0  0  0999 V2000
  193.9520  172.9540  145.6770 N   0  0  0  0  0  1  0  0  0  0  0  0
  194.5990  172.2520  142.1300 C   0  0  0  0  0  2  0  0  0  0  0  0
  194.9810  172.3690  143.4960 N   0  0  0  0  0  2  0  0  0  0  0  0
  194.3290  173.2820  144.2870 C   0  0  0  0  0  0  0  0  0  0  0  0
  194.0560  174.5850  142.2130 C   0  0  0  0  0  3  0  0  0  0  0  0
  193.8300  174.4310  143.6930 C   0  0  0  0  0  0  0  0  0  0  0  0
  194.4690  173.5960  141.4830 C   0  0  0  0  0  0  0  0  0  0  0  0
  185.2280  178.3890  145.1730 C   0  0  0  0  0  3  0  0  0  0  0  0
  188.3960  177.7530  143.9780 C   0  0  2  0  0  3  0  0  0  0  0  0
  183.7480  178.0360  146.8720 O   0  0  0  0  0  1  0  0  0  0  0  0
  186.0280  177.2670  147.2190 C   0  0  0  0  0  3  0  0  0  0  0  0
  184.9590  177.9150  146.4510 C   0  0  0  0  0  0  0  0  0  0  0  0
  190.8530  176.9120  143.9730 C   0  0  2  0  0  3  0  0  0  0  0  0
  189.0400  176.5870  142.9930 C   0  0  0  0  0  2  0  0  0  0  0  0
  191.7230  175.8510  143.7290 N   0  0  0  0  0  0  0  0  0  0  0  0
  193.3630  175.7800  145.5080 O   0  0  0  0  0  0  0  0  0  0  0  0
  187.1360  176.8870  146.5270 C   0  0  0  0  0  3  0  0  0  0  0  0
  186.2490  178.8280  143.2480 O   0  0  0  0  0  1  0  0  0  0  0  0
  188.9300  177.7980  145.2920 C   0  0  1  0  0  3  0  0  0  0  0  0
  186.2580  178.1030  144.4540 C   0  0  1  0  0  3  0  0  0  0  0  0
  187.4300  177.1490  145.0290 C   0  0  1  0  0  0  0  0  0  0  0  0
  193.0290  175.3960  144.3170 C   0  0  0  0  0  0  0  0  0  0  0  0
  190.2020  176.9460  145.3900 C   0  0  0  0  0  2  0  0  0  0  0  0
  190.2170  175.7660  143.5180 C   0  0  1  0  0  3  0  0  0  0  0  0
  192.8840  173.5480  138.3250 N   0  0  0  0  0  0  0  0  0  0  0  0
  197.0380  174.4060  137.2670 C   0  0  0  0  0  0  0  0  0  0  0  0
  197.9410  175.1480  138.0090 C   0  0  0  0  0  3  0  0  0  0  0  0
  195.7150  174.2750  139.2260 C   0  0  0  0  0  0  0  0  0  0  0  0
  196.5330  175.1350  139.9000 C   0  0  0  0  0  3  0  0  0  0  0  0
  193.3430  174.2290  139.4620 N   0  0  0  0  0  2  0  0  0  0  0  0
  193.3770  174.1410  137.1230 C   0  0  0  0  0  0  0  0  0  0  0  0
  194.7230  173.8280  136.9010 O   0  0  0  0  0  0  0  0  0  0  0  0
  195.8050  174.1560  137.8020 C   0  0  0  0  0  0  0  0  0  0  0  0
  194.5670  173.6040  139.9680 C   0  0  2  0  0  3  0  0  0  0  0  0
  197.2810  174.0200  135.9850 O   0  0  0  0  0  1  0  0  0  0  0  0
  197.6840  175.5200  139.3180 C   0  0  0  0  0  3  0  0  0  0  0  0
  192.3800  174.2470  135.8770 C   0  0  1  0  0  3  0  0  0  0  0  0
  191.0350  174.5430  136.2330 C   0  0  0  0  0  3  0  0  0  0  0  0
  190.0550  173.2810  134.5280 O   0  0  0  0  0  1  0  0  0  0  0  0
  189.9530  174.0320  135.7120 C   0  0  0  0  0  3  0  0  0  0  0  0
  193.0170  175.3030  135.0510 O   0  0  0  0  0  0  0  0  0  0  0  0
  192.4930  176.6660  134.9360 C   0  0  0  0  0  2  0  0  0  0  0  0
  193.3970  178.7310  134.9060 C   0  0  0  0  0  1  0  0  0  0  0  0
  193.2880  177.6000  135.7230 O   0  0  0  0  0  0  0  0  0  0  0  0
  2  3  1  0  0  0  0
  3  4  1  0  0  0  0
  4  1  1  0  0  0  0
  5  6  1  0  0  0  0
  6  4  2  0  0  0  0
  6 22  1  0  0  0  0
  7  2  1  0  0  0  0
  7  5  2  0  0  0  0
  8 12  2  0  0  0  0
  9 14  1  6  0  0  0
  9 21  1  0  0  0  0
  9 19  1  0  0  0  0
 12 10  1  0  0  0  0
 12 11  1  0  0  0  0
 13 23  1  1  0  0  0
 15 13  1  0  0  0  0
 15 22  1  0  0  0  0
 17 11  2  0  0  0  0
 19 23  1  6  0  0  0
 20 18  1  1  0  0  0
 20 21  1  0  0  0  0
 20  8  1  0  0  0  0
 21 19  1  0  0  0  0
 21 17  1  1  0  0  0
 22 16  2  0  0  0  0
 24 14  1  6  0  0  0
 24 15  1  0  0  0  0
 24 13  1  0  0  0  0
 25 30  1  0  0  0  0
 26 33  2  0  0  0  0
 26 27  1  0  0  0  0
 27 36  2  0  0  0  0
 28 29  2  0  0  0  0
 28 34  1  0  0  0  0
 30 34  1  0  0  0  0
 31 25  2  0  0  0  0
 32 31  1  0  0  0  0
 32 33  1  0  0  0  0
 33 28  1  0  0  0  0
 34  7  1  1  0  0  0
 35 26  1  0  0  0  0
 36 29  1  0  0  0  0
 37 38  1  1  0  0  0
 37 31  1  0  0  0  0
 39 40  1  0  0  0  0
 40 38  2  0  0  0  0
 41 37  1  0  0  0  0
 42 41  1  0  0  0  0
 42 44  1  0  0  0  0
 43 44  1  0  0  0  0
M  END
>  <MODEL>
7

>  <REMARK>
 VINA RESULT:      -7.5      4.644     10.691
  Name = 
  7 active torsions:
  status: ('A' for Active; 'I' for Inactive)
    1  A    between atoms: C_1  and  C_43
    2  A    between atoms: C_15  and  O_29
    3  A    between atoms: C_15  and  O_37
    4  A    between atoms: C_22  and  C_43
    5  A    between atoms: O_29  and  C_43
    6  A    between atoms: C_35  and  C_38
    7  A    between atoms: C_36  and  C_39
                            x       y       z     vdW  Elec       q    Type
                         _______ _______ _______ _____ _____    ______ ____

>  <TORSDO>
F 7

$$$$
=
 OpenBabel11062422413D

 44 50  0  0  1  0  0  0  0  0999 V2000
  193.2450  175.5580  146.0600 N   0  0  0  0  0  1  0  0  0  0  0  0
  190.2470  177.6270  145.5940 C   0  0  0  0  0  2  0  0  0  0  0  0
  191.1050  176.7800  146.3490 N   0  0  0  0  0  2  0  0  0  0  0  0
  191.8420  175.8300  145.6870 C   0  0  0  0  0  0  0  0  0  0  0  0
  189.9760  175.7900  144.0770 C   0  0  0  0  0  3  0  0  0  0  0  0
  191.3240  175.2880  144.5200 C   0  0  0  0  0  0  0  0  0  0  0  0
  189.4360  176.8440  144.6080 C   0  0  0  0  0  0  0  0  0  0  0  0
  191.1160  168.9180  137.3630 C   0  0  0  0  0  3  0  0  0  0  0  0
  191.2140  170.3430  140.4990 C   0  0  2  0  0  3  0  0  0  0  0  0
  191.4920  169.2340  135.1360 O   0  0  0  0  0  1  0  0  0  0  0  0
  192.2280  170.9970  136.6390 C   0  0  0  0  0  3  0  0  0  0  0  0
  191.6260  169.6950  136.3310 C   0  0  0  0  0  0  0  0  0  0  0  0
  191.7350  172.1000  142.3390 C   0  0  2  0  0  3  0  0  0  0  0  0
  190.1110  171.1630  141.4230 C   0  0  0  0  0  2  0  0  0  0  0  0
  191.3050  173.2350  143.0240 N   0  0  0  0  0  0  0  0  0  0  0  0
  193.1880  174.7360  143.2750 O   0  0  0  0  0  0  0  0  0  0  0  0
  191.9780  171.5110  137.8740 C   0  0  0  0  0  3  0  0  0  0  0  0
  190.4420  168.2390  139.3700 O   0  0  0  0  0  1  0  0  0  0  0  0
  192.3820  171.0750  140.1590 C   0  0  1  0  0  3  0  0  0  0  0  0
  190.8700  169.3110  138.5650 C   0  0  1  0  0  3  0  0  0  0  0  0
  191.2020  170.8250  139.0260 C   0  0  1  0  0  0  0  0  0  0  0  0
  191.9920  174.4150  143.6540 C   0  0  0  0  0  0  0  0  0  0  0  0
  192.4800  172.3580  140.9930 C   0  0  0  0  0  2  0  0  0  0  0  0
  190.4870  172.5530  141.9360 C   0  0  1  0  0  3  0  0  0  0  0  0
  187.3960  177.9330  141.9360 N   0  0  0  0  0  0  0  0  0  0  0  0
  184.7900  178.5250  145.3960 C   0  0  0  0  0  0  0  0  0  0  0  0
  184.7450  177.7430  146.5380 C   0  0  0  0  0  3  0  0  0  0  0  0
  186.8720  177.5020  144.9190 C   0  0  0  0  0  0  0  0  0  0  0  0
  186.7410  176.6290  145.9590 C   0  0  0  0  0  3  0  0  0  0  0  0
  187.8440  176.9370  142.8170 N   0  0  0  0  0  2  0  0  0  0  0  0
  185.9720  178.0450  141.9510 C   0  0  0  0  0  0  0  0  0  0  0  0
  185.5130  178.7000  143.0990 O   0  0  0  0  0  0  0  0  0  0  0  0
  185.7410  178.2490  144.4540 C   0  0  0  0  0  0  0  0  0  0  0  0
  188.1680  177.5210  144.1200 C   0  0  2  0  0  3  0  0  0  0  0  0
  183.8570  179.4750  145.1180 O   0  0  0  0  0  1  0  0  0  0  0  0
  185.7130  176.7900  146.8120 C   0  0  0  0  0  3  0  0  0  0  0  0
  185.2260  178.2870  140.5580 C   0  0  1  0  0  3  0  0  0  0  0  0
  185.2560  177.1680  139.6810 C   0  0  0  0  0  3  0  0  0  0  0  0
  187.0860  177.9000  138.4260 O   0  0  0  0  0  1  0  0  0  0  0  0
  186.1560  176.9050  138.7730 C   0  0  0  0  0  3  0  0  0  0  0  0
  183.8560  178.6570  140.9930 O   0  0  0  0  0  0  0  0  0  0  0  0
  182.6450  177.9860  140.5130 C   0  0  0  0  0  2  0  0  0  0  0  0
  180.6910  178.4260  141.5470 C   0  0  0  0  0  1  0  0  0  0  0  0
  181.5080  178.8970  140.5120 O   0  0  0  0  0  0  0  0  0  0  0  0
  2  3  1  0  0  0  0
  4  1  1  0  0  0  0
  4  3  1  0  0  0  0
  5  6  1  0  0  0  0
  5  7  2  0  0  0  0
  6  4  2  0  0  0  0
  7  2  1  0  0  0  0
  8 20  1  0  0  0  0
  9 14  1  1  0  0  0
 10 12  1  0  0  0  0
 11 17  2  0  0  0  0
 12 11  1  0  0  0  0
 12  8  2  0  0  0  0
 13 23  1  6  0  0  0
 13 15  1  0  0  0  0
 15 22  1  0  0  0  0
 16 22  2  0  0  0  0
 19  9  1  0  0  0  0
 19 23  1  1  0  0  0
 20 21  1  0  0  0  0
 20 18  1  1  0  0  0
 21 17  1  6  0  0  0
 21 19  1  0  0  0  0
 21  9  1  0  0  0  0
 22  6  1  0  0  0  0
 24 14  1  1  0  0  0
 24 13  1  0  0  0  0
 24 15  1  0  0  0  0
 25 31  2  0  0  0  0
 25 30  1  0  0  0  0
 26 27  1  0  0  0  0
 27 36  2  0  0  0  0
 28 29  2  0  0  0  0
 29 36  1  0  0  0  0
 30 34  1  0  0  0  0
 31 32  1  0  0  0  0
 32 33  1  0  0  0  0
 33 28  1  0  0  0  0
 33 26  2  0  0  0  0
 34  7  1  1  0  0  0
 34 28  1  0  0  0  0
 35 26  1  0  0  0  0
 37 38  1  6  0  0  0
 37 41  1  0  0  0  0
 37 31  1  0  0  0  0
 39 40  1  0  0  0  0
 40 38  2  0  0  0  0
 42 41  1  0  0  0  0
 44 42  1  0  0  0  0
 44 43  1  0  0  0  0
M  END
>  <MODEL>
8

>  <REMARK>
 VINA RESULT:      -7.4      3.899      7.207
  Name = 
  7 active torsions:
  status: ('A' for Active; 'I' for Inactive)
    1  A    between atoms: C_1  and  C_43
    2  A    between atoms: C_15  and  O_29
    3  A    between atoms: C_15  and  O_37
    4  A    between atoms: C_22  and  C_43
    5  A    between atoms: O_29  and  C_43
    6  A    between atoms: C_35  and  C_38
    7  A    between atoms: C_36  and  C_39
                            x       y       z     vdW  Elec       q    Type
                         _______ _______ _______ _____ _____    ______ ____

>  <TORSDO>
F 7

$$$$
=
 OpenBabel11062422413D

 44 50  0  0  1  0  0  0  0  0999 V2000
  194.8400  172.8860  145.5870 N   0  0  0  0  0  1  0  0  0  0  0  0
  195.5300  173.4420  142.0230 C   0  0  0  0  0  2  0  0  0  0  0  0
  195.8050  173.5850  143.4110 N   0  0  0  0  0  2  0  0  0  0  0  0
  194.7550  173.5960  144.2940 C   0  0  0  0  0  0  0  0  0  0  0  0
  193.4670  174.5900  142.4420 C   0  0  0  0  0  3  0  0  0  0  0  0
  193.5350  174.0920  143.8610 C   0  0  0  0  0  0  0  0  0  0  0  0
  194.4150  174.3440  141.5920 C   0  0  0  0  0  0  0  0  0  0  0  0
  185.7860  178.5500  147.3150 C   0  0  0  0  0  3  0  0  0  0  0  0
  188.9050  177.1130  147.0350 C   0  0  2  0  0  3  0  0  0  0  0  0
  183.6790  178.6660  146.4490 O   0  0  0  0  0  1  0  0  0  0  0  0
  185.1490  176.9520  145.5470 C   0  0  0  0  0  3  0  0  0  0  0  0
  184.8180  178.0640  146.4450 C   0  0  0  0  0  0  0  0  0  0  0  0
  190.7570  175.5070  146.1800 C   0  0  2  0  0  3  0  0  0  0  0  0
  190.3010  177.5420  146.2540 C   0  0  0  0  0  2  0  0  0  0  0  0
  191.7610  175.2780  145.2410 N   0  0  0  0  0  0  0  0  0  0  0  0
  191.6320  172.9680  144.5290 O   0  0  0  0  0  0  0  0  0  0  0  0
  186.4690  176.6600  145.3930 C   0  0  0  0  0  2  0  0  0  0  0  0
  187.7230  178.8940  148.3510 O   0  0  0  0  0  1  0  0  0  0  0  0
  188.3310  175.8830  146.6200 C   0  0  1  0  0  3  0  0  0  0  0  0
  187.0500  178.3090  147.2610 C   0  0  0  0  0  0  0  0  0  0  0  0
  187.6580  177.3170  146.1390 C   0  0  1  0  0  0  0  0  0  0  0  0
  192.3330  174.0550  144.5790 C   0  0  0  0  0  0  0  0  0  0  0  0
  189.3170  175.0920  145.7520 C   0  0  0  0  0  2  0  0  0  0  0  0
  190.9160  176.5440  145.2730 C   0  0  1  0  0  3  0  0  0  0  0  0
  196.0970  175.0680  138.5690 N   0  0  0  0  0  0  0  0  0  0  0  0
  191.9880  174.4360  137.2170 C   0  0  0  0  0  0  0  0  0  0  0  0
  191.0700  173.5500  137.7550 C   0  0  0  0  0  3  0  0  0  0  0  0
  193.2470  174.1540  139.2030 C   0  0  0  0  0  0  0  0  0  0  0  0
  192.4190  173.1680  139.6510 C   0  0  0  0  0  3  0  0  0  0  0  0
  195.6100  174.1590  139.5200 N   0  0  0  0  0  2  0  0  0  0  0  0
  195.6490  174.7410  137.2530 C   0  0  0  0  0  0  0  0  0  0  0  0
  194.3070  175.0880  137.0590 O   0  0  0  0  0  0  0  0  0  0  0  0
  193.2000  174.5730  137.8330 C   0  0  0  0  0  0  0  0  0  0  0  0
  194.3640  174.6570  140.1070 C   0  0  2  0  0  3  0  0  0  0  0  0
  191.7810  175.0850  136.0390 O   0  0  0  0  0  1  0  0  0  0  0  0
  191.2910  172.9090  138.9640 C   0  0  0  0  0  3  0  0  0  0  0  0
  196.6850  174.9070  136.0470 C   0  0  1  0  0  3  0  0  0  0  0  0
  197.1110  176.2460  135.8260 C   0  0  0  0  0  3  0  0  0  0  0  0
  195.2720  176.8670  134.5250 O   0  0  0  0  0  1  0  0  0  0  0  0
  196.4400  177.1960  135.2350 C   0  0  0  0  0  3  0  0  0  0  0  0
  197.7880  173.9980  136.4500 O   0  0  0  0  0  0  0  0  0  0  0  0
  197.9400  172.6340  135.9380 C   0  0  0  0  0  2  0  0  0  0  0  0
  196.9040  170.6740  136.3470 C   0  0  0  0  0  1  0  0  0  0  0  0
  196.6510  171.9590  135.8540 O   0  0  0  0  0  0  0  0  0  0  0  0
  2  3  1  0  0  0  0
  3  4  1  0  0  0  0
  4  1  1  0  0  0  0
  5  6  1  0  0  0  0
  6  4  2  0  0  0  0
  6 22  1  0  0  0  0
  7  2  1  0  0  0  0
  7  5  2  0  0  0  0
  9 14  1  6  0  0  0
 11 12  2  0  0  0  0
 12 10  1  0  0  0  0
 12  8  1  0  0  0  0
 13 23  1  6  0  0  0
 15 24  1  0  0  0  0
 15 13  1  0  0  0  0
 16 22  2  0  0  0  0
 17 11  1  0  0  0  0
 19 23  1  6  0  0  0
 19  9  1  0  0  0  0
 20  8  2  0  0  0  0
 20 18  1  0  0  0  0
 21 17  1  6  0  0  0
 21 19  1  0  0  0  0
 21  9  1  0  0  0  0
 21 20  1  0  0  0  0
 22 15  1  0  0  0  0
 24 13  1  0  0  0  0
 24 14  1  1  0  0  0
 25 30  1  0  0  0  0
 26 27  2  0  0  0  0
 26 33  1  0  0  0  0
 27 36  1  0  0  0  0
 28 29  1  0  0  0  0
 28 34  1  0  0  0  0
 30 34  1  0  0  0  0
 31 25  2  0  0  0  0
 32 31  1  0  0  0  0
 32 33  1  0  0  0  0
 33 28  2  0  0  0  0
 34  7  1  1  0  0  0
 35 26  1  0  0  0  0
 36 29  2  0  0  0  0
 37 38  1  1  0  0  0
 37 41  1  0  0  0  0
 37 31  1  0  0  0  0
 39 40  1  0  0  0  0
 40 38  2  0  0  0  0
 42 41  1  0  0  0  0
 44 42  1  0  0  0  0
 44 43  1  0  0  0  0
M  END
>  <MODEL>
9

>  <REMARK>
 VINA RESULT:      -7.4      4.808     10.582
  Name = 
  7 active torsions:
  status: ('A' for Active; 'I' for Inactive)
    1  A    between atoms: C_1  and  C_43
    2  A    between atoms: C_15  and  O_29
    3  A    between atoms: C_15  and  O_37
    4  A    between atoms: C_22  and  C_43
    5  A    between atoms: O_29  and  C_43
    6  A    between atoms: C_35  and  C_38
    7  A    between atoms: C_36  and  C_39
                            x       y       z     vdW  Elec       q    Type
                         _______ _______ _______ _____ _____    ______ ____

>  <TORSDO>
F 7

$$$$
