=
 OpenBabel11062421443D

 41 43  0  0  1  0  0  0  0  0999 V2000
  189.1570  174.7330  141.6740 C   0  0  2  0  0  3  0  0  0  0  0  0
  188.6270  173.5810  140.7990 C   0  0  2  0  0  3  0  0  0  0  0  0
  189.0080  172.1170  142.7820 C   0  0  0  0  0  2  0  0  0  0  0  0
  188.0370  172.4730  141.6640 C   0  0  0  0  0  2  0  0  0  0  0  0
  189.2670  173.2440  143.5950 O   0  0  0  0  0  0  0  0  0  0  0  0
  190.0080  174.2290  142.8820 C   0  0  1  0  0  0  0  0  0  0  0  0
  193.3150  174.7020  141.7340 C   0  0  0  0  0  0  0  0  0  0  0  0
  193.5840  174.0500  142.9930 C   0  0  0  0  0  0  0  0  0  0  0  0
  193.5730  172.5810  145.3130 C   0  0  0  0  0  3  0  0  0  0  0  0
  191.9930  174.4650  141.3790 O   0  0  0  0  0  0  0  0  0  0  0  0
  192.3970  172.6550  144.5510 C   0  0  0  0  0  3  0  0  0  0  0  0
  192.4300  173.4220  143.3860 C   0  0  0  0  0  0  0  0  0  0  0  0
  194.7450  173.9660  143.7570 C   0  0  0  0  0  3  0  0  0  0  0  0
  191.3550  173.6310  142.3560 C   0  0  1  0  0  3  0  0  0  0  0  0
  194.1660  175.4200  141.0150 C   0  0  0  0  0  2  0  0  0  0  0  0
  194.7060  173.2330  144.9080 N   0  0  0  0  0  0  0  0  0  0  0  0
  189.6960  173.0300  139.8620 C   0  0  0  0  0  2  0  0  0  0  0  0
  189.6730  173.7600  138.5290 C   0  0  2  0  0  3  0  0  0  0  0  0
  188.2070  174.5900  136.8250 F   0  0  0  0  0  0  0  0  0  0  0  0
  188.2360  173.9860  138.0710 C   0  0  0  0  0  2  0  0  0  0  0  0
  190.4620  172.9670  137.5000 C   0  0  0  0  0  2  0  0  0  0  0  0
  190.2650  171.4810  137.7260 C   0  0  0  0  0  2  0  0  0  0  0  0
  189.4830  171.6080  135.4200 C   0  0  0  0  0  2  0  0  0  0  0  0
  189.6850  170.8660  136.5020 C   0  0  0  0  0  3  0  0  0  0  0  0
  188.0700  175.4990  142.1150 O   0  0  0  0  0  0  0  0  0  0  0  0
  187.7450  176.3170  141.0300 C   0  0  0  0  0  2  0  0  0  0  0  0
  187.6640  177.7350  141.4720 C   0  0  0  0  0  0  0  0  0  0  0  0
  186.4330  178.2990  141.7730 O   0  0  0  0  0  1  0  0  0  0  0  0
  188.7100  178.4310  141.5480 O   0  0  0  0  0  0  0  0  0  0  0  0
  190.2380  175.4200  143.8590 C   0  0  2  0  0  3  0  0  0  0  0  0
  188.9840  175.8610  144.6200 C   0  0  0  0  0  2  0  0  0  0  0  0
  186.2050  177.0170  147.7440 O   0  0  0  0  0  0  0  0  0  0  0  0
  186.8710  176.5720  146.7740 C   0  0  0  0  0  0  0  0  0  0  0  0
  186.3740  176.7430  145.4520 N   0  0  0  0  0  1  0  0  0  0  0  0
  190.0250  174.7360  146.4320 O   0  0  0  0  0  0  0  0  0  0  0  0
  189.0590  175.4500  146.0560 C   0  0  0  0  0  0  0  0  0  0  0  0
  188.0980  175.8790  147.0280 N   0  0  0  0  0  2  0  0  0  0  0  0
  190.8390  176.5170  143.2220 O   0  0  0  0  0  0  0  0  0  0  0  0
  191.3300  178.7900  143.7340 C   0  0  0  0  0  1  0  0  0  0  0  0
  191.2590  177.3680  144.2510 C   0  0  0  0  0  3  0  0  0  0  0  0
  192.6370  176.9520  144.7240 C   0  0  0  0  0  1  0  0  0  0  0  0
  1 25  1  1  0  0  0
  1  6  1  0  0  0  0
  2 17  1  1  0  0  0
  2  4  1  0  0  0  0
  2  1  1  0  0  0  0
  3  5  1  0  0  0  0
  4  3  1  0  0  0  0
  6  5  1  0  0  0  0
  6 30  1  1  0  0  0
  7  8  1  0  0  0  0
  8 12  2  0  0  0  0
  8 13  1  0  0  0  0
 10  7  1  0  0  0  0
 11  9  2  0  0  0  0
 12 11  1  0  0  0  0
 13 16  2  0  0  0  0
 14 10  1  6  0  0  0
 14  6  1  0  0  0  0
 14 12  1  0  0  0  0
 15  7  2  0  0  0  0
 16  9  1  0  0  0  0
 18 21  1  6  0  0  0
 18 17  1  0  0  0  0
 19 20  1  0  0  0  0
 20 18  1  0  0  0  0
 21 22  1  0  0  0  0
 23 24  2  0  0  0  0
 24 22  1  0  0  0  0
 26 27  1  0  0  0  0
 26 25  1  0  0  0  0
 27 29  2  0  0  0  0
 27 28  1  0  0  0  0
 30 31  1  6  0  0  0
 31 36  1  0  0  0  0
 33 37  1  0  0  0  0
 33 32  2  0  0  0  0
 34 33  1  0  0  0  0
 36 35  2  0  0  0  0
 36 37  1  0  0  0  0
 38 30  1  0  0  0  0
 38 40  1  0  0  0  0
 39 40  1  0  0  0  0
 40 41  1  0  0  0  0
M  END
>  <MODEL>
1

>  <REMARK>
 VINA RESULT:      -5.8      0.000      0.000
  Name = 
  15 active torsions:
  status: ('A' for Active; 'I' for Inactive)
    1  A    between atoms: C_4  and  C_13
    2  A    between atoms: C_4  and  C_14
    3  A    between atoms: C_5  and  C_16
    4  A    between atoms: C_7  and  O_11
    5  A    between atoms: C_8  and  C_10
    6  A    between atoms: C_8  and  C_13
    7  A    between atoms: C_10  and  C_39
    8  A    between atoms: O_11  and  C_16
    9  A    between atoms: C_13  and  C_36
   10  A    between atoms: C_19  and  C_32
   11  A    between atoms: C_19  and  C_35
   12  A    between atoms: O_21  and  C_33
   13  A    between atoms: O_21  and  C_35
   14  A    between atoms: C_30  and  C_41
   15  A    between atoms: C_35  and  C_41
                            x       y       z     vdW  Elec       q    Type
                         _______ _______ _______ _____ _____    ______ ____

>  <TORSDO>
F 15

$$$$
=
 OpenBabel11062421443D

 41 43  0  0  1  0  0  0  0  0999 V2000
  191.8270  174.9350  144.1480 C   0  0  2  0  0  3  0  0  0  0  0  0
  190.4150  175.4300  144.5130 C   0  0  2  0  0  3  0  0  0  0  0  0
  189.8380  173.0260  144.8530 C   0  0  0  0  0  2  0  0  0  0  0  0
  189.7130  174.4320  145.4270 C   0  0  0  0  0  2  0  0  0  0  0  0
  191.1980  172.6590  144.7320 O   0  0  0  0  0  0  0  0  0  0  0  0
  191.8480  173.4320  143.7280 C   0  0  1  0  0  0  0  0  0  0  0  0
  191.9830  173.3810  140.1990 C   0  0  0  0  0  0  0  0  0  0  0  0
  191.6930  171.9900  140.4520 C   0  0  0  0  0  0  0  0  0  0  0  0
  190.9050  169.5430  141.4190 C   0  0  0  0  0  3  0  0  0  0  0  0
  191.6630  174.1190  141.3310 O   0  0  0  0  0  0  0  0  0  0  0  0
  190.7740  170.6730  142.2430 C   0  0  0  0  0  3  0  0  0  0  0  0
  191.1990  171.8990  141.7280 C   0  0  0  0  0  0  0  0  0  0  0  0
  191.8160  170.8620  139.6450 C   0  0  0  0  0  3  0  0  0  0  0  0
  191.1260  173.2660  142.3500 C   0  0  1  0  0  3  0  0  0  0  0  0
  192.4780  173.8970  139.0830 C   0  0  0  0  0  2  0  0  0  0  0  0
  191.4200  169.6590  140.1570 N   0  0  0  0  0  0  0  0  0  0  0  0
  189.5700  175.7250  143.2780 C   0  0  0  0  0  2  0  0  0  0  0  0
  188.1920  176.2290  143.6760 C   0  0  2  0  0  3  0  0  0  0  0  0
  185.9520  175.6750  143.0290 F   0  0  0  0  0  0  0  0  0  0  0  0
  187.2000  176.0230  142.5360 C   0  0  0  0  0  2  0  0  0  0  0  0
  188.2810  177.6940  144.0710 C   0  0  0  0  0  2  0  0  0  0  0  0
  187.1130  178.0650  144.9630 C   0  0  0  0  0  2  0  0  0  0  0  0
  185.6990  176.7890  146.4850 C   0  0  0  0  0  2  0  0  0  0  0  0
  186.9090  177.0010  145.9820 C   0  0  0  0  0  3  0  0  0  0  0  0
  192.6780  175.1610  145.2380 O   0  0  0  0  0  0  0  0  0  0  0  0
  193.0410  176.5060  145.1350 C   0  0  0  0  0  2  0  0  0  0  0  0
  194.4290  176.6930  145.6370 C   0  0  0  0  0  0  0  0  0  0  0  0
  194.9490  177.9720  145.7790 O   0  0  0  0  0  0  0  0  0  0  0  0
  195.1420  175.6920  145.9070 O   0  0  0  0  0  1  0  0  0  0  0  0
  193.3300  172.9520  143.6750 C   0  0  2  0  0  3  0  0  0  0  0  0
  193.8570  172.3900  144.9980 C   0  0  0  0  0  2  0  0  0  0  0  0
  197.7440  170.5180  145.4500 O   0  0  0  0  0  0  0  0  0  0  0  0
  196.6240  171.0870  145.5050 C   0  0  0  0  0  0  0  0  0  0  0  0
  196.5340  172.3960  146.0540 N   0  0  0  0  0  1  0  0  0  0  0  0
  193.2020  170.1470  144.5880 O   0  0  0  0  0  0  0  0  0  0  0  0
  194.1450  170.9280  144.8810 C   0  0  0  0  0  0  0  0  0  0  0  0
  195.4630  170.3890  145.0430 N   0  0  0  0  0  2  0  0  0  0  0  0
  194.1890  173.9470  143.1850 O   0  0  0  0  0  0  0  0  0  0  0  0
  196.5280  174.2650  142.8750 C   0  0  0  0  0  1  0  0  0  0  0  0
  195.3730  173.2860  142.8370 C   0  0  0  0  0  3  0  0  0  0  0  0
  195.2510  172.7300  141.4320 C   0  0  0  0  0  1  0  0  0  0  0  0
  1  2  1  0  0  0  0
  1 25  1  1  0  0  0
  2 17  1  6  0  0  0
  2  4  1  0  0  0  0
  3  4  1  0  0  0  0
  5  3  1  0  0  0  0
  6 30  1  6  0  0  0
  6  1  1  0  0  0  0
  6  5  1  0  0  0  0
  7  8  1  0  0  0  0
  7 10  1  0  0  0  0
  8 12  1  0  0  0  0
  9 11  1  0  0  0  0
 12 11  2  0  0  0  0
 12 14  1  0  0  0  0
 13 16  1  0  0  0  0
 13  8  2  0  0  0  0
 14 10  1  6  0  0  0
 14  6  1  0  0  0  0
 15  7  2  0  0  0  0
 16  9  2  0  0  0  0
 17 18  1  0  0  0  0
 18 20  1  6  0  0  0
 18 21  1  0  0  0  0
 20 19  1  0  0  0  0
 21 22  1  0  0  0  0
 22 24  1  0  0  0  0
 24 23  2  0  0  0  0
 26 25  1  0  0  0  0
 26 27  1  0  0  0  0
 27 28  2  0  0  0  0
 27 29  1  0  0  0  0
 30 31  1  1  0  0  0
 32 33  2  0  0  0  0
 33 34  1  0  0  0  0
 35 36  2  0  0  0  0
 36 31  1  0  0  0  0
 36 37  1  0  0  0  0
 37 33  1  0  0  0  0
 38 30  1  0  0  0  0
 40 39  1  0  0  0  0
 40 38  1  0  0  0  0
 41 40  1  0  0  0  0
M  END
>  <MODEL>
2

>  <REMARK>
 VINA RESULT:      -5.8      3.708      6.835
  Name = 
  15 active torsions:
  status: ('A' for Active; 'I' for Inactive)
    1  A    between atoms: C_4  and  C_13
    2  A    between atoms: C_4  and  C_14
    3  A    between atoms: C_5  and  C_16
    4  A    between atoms: C_7  and  O_11
    5  A    between atoms: C_8  and  C_10
    6  A    between atoms: C_8  and  C_13
    7  A    between atoms: C_10  and  C_39
    8  A    between atoms: O_11  and  C_16
    9  A    between atoms: C_13  and  C_36
   10  A    between atoms: C_19  and  C_32
   11  A    between atoms: C_19  and  C_35
   12  A    between atoms: O_21  and  C_33
   13  A    between atoms: O_21  and  C_35
   14  A    between atoms: C_30  and  C_41
   15  A    between atoms: C_35  and  C_41
                            x       y       z     vdW  Elec       q    Type
                         _______ _______ _______ _____ _____    ______ ____

>  <TORSDO>
F 15

$$$$
=
 OpenBabel11062421443D

 41 43  0  0  1  0  0  0  0  0999 V2000
  191.4730  174.6720  143.2390 C   0  0  2  0  0  3  0  0  0  0  0  0
  190.6980  175.4420  144.3260 C   0  0  2  0  0  3  0  0  0  0  0  0
  192.8310  176.6640  144.7500 C   0  0  0  0  0  2  0  0  0  0  0  0
  191.3250  176.8100  144.5700 C   0  0  0  0  0  2  0  0  0  0  0  0
  193.4160  176.0900  143.5990 O   0  0  0  0  0  0  0  0  0  0  0  0
  193.0180  174.7310  143.4470 C   0  0  1  0  0  0  0  0  0  0  0  0
  193.8730  171.6370  144.9200 C   0  0  0  0  0  0  0  0  0  0  0  0
  195.1300  172.3310  145.0630 C   0  0  0  0  0  0  0  0  0  0  0  0
  197.1930  174.1250  145.3290 C   0  0  0  0  0  3  0  0  0  0  0  0
  192.8690  172.5700  144.6940 O   0  0  0  0  0  0  0  0  0  0  0  0
  195.9000  174.6100  145.0750 C   0  0  0  0  0  3  0  0  0  0  0  0
  194.8770  173.6720  144.9280 C   0  0  0  0  0  0  0  0  0  0  0  0
  196.4170  171.8640  145.3180 C   0  0  0  0  0  3  0  0  0  0  0  0
  193.4060  173.8980  144.7130 C   0  0  1  0  0  3  0  0  0  0  0  0
  193.6790  170.3280  144.9830 C   0  0  0  0  0  2  0  0  0  0  0  0
  197.4220  172.7800  145.4400 N   0  0  0  0  0  0  0  0  0  0  0  0
  190.5910  174.6520  145.6260 C   0  0  0  0  0  2  0  0  0  0  0  0
  190.1080  175.5440  146.7590 C   0  0  2  0  0  3  0  0  0  0  0  0
  192.2530  174.8950  147.6080 F   0  0  0  0  0  0  0  0  0  0  0  0
  191.0140  175.3950  147.9770 C   0  0  0  0  0  2  0  0  0  0  0  0
  188.6670  175.2010  147.0980 C   0  0  0  0  0  2  0  0  0  0  0  0
  187.7830  176.4190  146.9100 C   0  0  0  0  0  2  0  0  0  0  0  0
  187.5680  177.7310  144.8670 C   0  0  0  0  0  2  0  0  0  0  0  0
  187.4290  176.5580  145.4720 C   0  0  0  0  0  3  0  0  0  0  0  0
  191.1170  175.1860  141.9860 O   0  0  0  0  0  0  0  0  0  0  0  0
  189.7920  174.7860  141.7970 C   0  0  0  0  0  2  0  0  0  0  0  0
  189.7470  173.5850  140.9210 C   0  0  0  0  0  0  0  0  0  0  0  0
  189.4110  172.3480  141.4550 O   0  0  0  0  0  1  0  0  0  0  0  0
  190.0390  173.6830  139.7010 O   0  0  0  0  0  0  0  0  0  0  0  0
  193.7130  174.1970  142.1580 C   0  0  2  0  0  3  0  0  0  0  0  0
  193.9810  175.2670  141.0970 C   0  0  0  0  0  2  0  0  0  0  0  0
  196.1300  174.6860  137.3740 O   0  0  0  0  0  0  0  0  0  0  0  0
  195.4360  175.0090  138.3720 C   0  0  0  0  0  0  0  0  0  0  0  0
  194.0300  175.1610  138.2220 N   0  0  0  0  0  1  0  0  0  0  0  0
  196.1600  175.7850  141.8800 O   0  0  0  0  0  0  0  0  0  0  0  0
  195.4490  175.4610  140.8930 C   0  0  0  0  0  0  0  0  0  0  0  0
  196.0830  175.2450  139.6260 N   0  0  0  0  0  2  0  0  0  0  0  0
  193.0230  173.1100  141.5990 O   0  0  0  0  0  0  0  0  0  0  0  0
  193.1370  171.6950  139.6880 C   0  0  0  0  0  1  0  0  0  0  0  0
  193.9120  172.5240  140.6920 C   0  0  0  0  0  3  0  0  0  0  0  0
  194.8730  171.6180  141.4340 C   0  0  0  0  0  1  0  0  0  0  0  0
  1 25  1  6  0  0  0
  1  6  1  0  0  0  0
  1  2  1  0  0  0  0
  2  4  1  0  0  0  0
  2 17  1  1  0  0  0
  4  3  1  0  0  0  0
  5  3  1  0  0  0  0
  6 30  1  6  0  0  0
  6  5  1  0  0  0  0
  6 14  1  0  0  0  0
  7 15  2  0  0  0  0
  7  8  1  0  0  0  0
  8 13  1  0  0  0  0
  9 16  1  0  0  0  0
 10  7  1  0  0  0  0
 11  9  2  0  0  0  0
 12  8  2  0  0  0  0
 12 11  1  0  0  0  0
 13 16  2  0  0  0  0
 14 10  1  6  0  0  0
 14 12  1  0  0  0  0
 18 17  1  6  0  0  0
 18 21  1  0  0  0  0
 18 20  1  0  0  0  0
 19 20  1  0  0  0  0
 22 21  1  0  0  0  0
 23 24  2  0  0  0  0
 24 22  1  0  0  0  0
 26 25  1  0  0  0  0
 27 28  1  0  0  0  0
 27 26  1  0  0  0  0
 29 27  2  0  0  0  0
 30 31  1  6  0  0  0
 32 33  2  0  0  0  0
 33 37  1  0  0  0  0
 34 33  1  0  0  0  0
 36 31  1  0  0  0  0
 36 35  2  0  0  0  0
 37 36  1  0  0  0  0
 38 30  1  0  0  0  0
 39 40  1  0  0  0  0
 40 41  1  0  0  0  0
 40 38  1  0  0  0  0
M  END
>  <MODEL>
3

>  <REMARK>
 VINA RESULT:      -5.7      3.977      7.266
  Name = 
  15 active torsions:
  status: ('A' for Active; 'I' for Inactive)
    1  A    between atoms: C_4  and  C_13
    2  A    between atoms: C_4  and  C_14
    3  A    between atoms: C_5  and  C_16
    4  A    between atoms: C_7  and  O_11
    5  A    between atoms: C_8  and  C_10
    6  A    between atoms: C_8  and  C_13
    7  A    between atoms: C_10  and  C_39
    8  A    between atoms: O_11  and  C_16
    9  A    between atoms: C_13  and  C_36
   10  A    between atoms: C_19  and  C_32
   11  A    between atoms: C_19  and  C_35
   12  A    between atoms: O_21  and  C_33
   13  A    between atoms: O_21  and  C_35
   14  A    between atoms: C_30  and  C_41
   15  A    between atoms: C_35  and  C_41
                            x       y       z     vdW  Elec       q    Type
                         _______ _______ _______ _____ _____    ______ ____

>  <TORSDO>
F 15

$$$$
=
 OpenBabel11062421443D

 41 43  0  0  1  0  0  0  0  0999 V2000
  190.2740  175.4910  143.5640 C   0  0  2  0  0  3  0  0  0  0  0  0
  189.8970  176.6160  144.5460 C   0  0  2  0  0  3  0  0  0  0  0  0
  191.9800  177.7570  143.7840 C   0  0  0  0  0  2  0  0  0  0  0  0
  190.5030  177.9430  144.1050 C   0  0  0  0  0  2  0  0  0  0  0  0
  192.1490  176.8100  142.7490 O   0  0  0  0  0  0  0  0  0  0  0  0
  191.7890  175.5040  143.1880 C   0  0  1  0  0  0  0  0  0  0  0  0
  193.6290  173.0550  144.9460 C   0  0  0  0  0  0  0  0  0  0  0  0
  194.6990  173.9560  144.5910 C   0  0  0  0  0  0  0  0  0  0  0  0
  196.3170  176.0670  143.9060 C   0  0  0  0  0  3  0  0  0  0  0  0
  192.4190  173.7270  144.8300 O   0  0  0  0  0  0  0  0  0  0  0  0
  194.9260  176.2580  143.9330 C   0  0  0  0  0  3  0  0  0  0  0  0
  194.1310  175.1620  144.2680 C   0  0  0  0  0  0  0  0  0  0  0  0
  196.0800  173.7810  144.5620 C   0  0  0  0  0  3  0  0  0  0  0  0
  192.6390  175.0870  144.4340 C   0  0  1  0  0  3  0  0  0  0  0  0
  193.7500  171.7890  145.3190 C   0  0  0  0  0  2  0  0  0  0  0  0
  196.8570  174.8480  144.2130 N   0  0  0  0  0  0  0  0  0  0  0  0
  190.2940  176.2860  145.9810 C   0  0  0  0  0  2  0  0  0  0  0  0
  189.0620  176.0220  146.8330 C   0  0  2  0  0  3  0  0  0  0  0  0
  189.3960  173.7160  146.2700 F   0  0  0  0  0  0  0  0  0  0  0  0
  189.0420  174.5700  147.3020 C   0  0  0  0  0  2  0  0  0  0  0  0
  187.8120  176.3620  146.0400 C   0  0  0  0  0  2  0  0  0  0  0  0
  186.9970  177.4070  146.7760 C   0  0  0  0  0  2  0  0  0  0  0  0
  184.6480  177.8560  146.2990 C   0  0  0  0  0  2  0  0  0  0  0  0
  185.5620  177.0140  146.7670 C   0  0  0  0  0  3  0  0  0  0  0  0
  189.4750  175.6070  142.4200 O   0  0  0  0  0  0  0  0  0  0  0  0
  188.2310  175.0920  142.7970 C   0  0  0  0  0  2  0  0  0  0  0  0
  187.1450  175.9670  142.2810 C   0  0  0  0  0  0  0  0  0  0  0  0
  186.0030  176.1780  143.0420 O   0  0  0  0  0  1  0  0  0  0  0  0
  187.2480  176.4960  141.1440 O   0  0  0  0  0  0  0  0  0  0  0  0
  192.0090  174.5430  141.9810 C   0  0  2  0  0  3  0  0  0  0  0  0
  191.2920  173.1960  142.1090 C   0  0  0  0  0  2  0  0  0  0  0  0
  190.9140  169.1550  140.5780 O   0  0  0  0  0  0  0  0  0  0  0  0
  190.8920  170.2770  141.1460 C   0  0  0  0  0  0  0  0  0  0  0  0
  191.1550  170.3550  142.5420 N   0  0  0  0  0  1  0  0  0  0  0  0
  190.2110  173.7110  140.0610 O   0  0  0  0  0  0  0  0  0  0  0  0
  190.6540  172.8050  140.8150 C   0  0  0  0  0  0  0  0  0  0  0  0
  190.5710  171.4420  140.3800 N   0  0  0  0  0  2  0  0  0  0  0  0
  193.3710  174.3520  141.7000 O   0  0  0  0  0  0  0  0  0  0  0  0
  193.9200  173.6200  139.5020 C   0  0  0  0  0  1  0  0  0  0  0  0
  193.5510  174.7950  140.3850 C   0  0  0  0  0  3  0  0  0  0  0  0
  194.6750  175.8100  140.3390 C   0  0  0  0  0  1  0  0  0  0  0  0
  1 25  1  6  0  0  0
  1  2  1  0  0  0  0
  2 17  1  1  0  0  0
  3  4  1  0  0  0  0
  4  2  1  0  0  0  0
  5  6  1  0  0  0  0
  5  3  1  0  0  0  0
  6 30  1  6  0  0  0
  6  1  1  0  0  0  0
  6 14  1  0  0  0  0
  7 15  2  0  0  0  0
  8  7  1  0  0  0  0
  9 11  2  0  0  0  0
  9 16  1  0  0  0  0
 10  7  1  0  0  0  0
 11 12  1  0  0  0  0
 12  8  2  0  0  0  0
 13  8  1  0  0  0  0
 14 12  1  6  0  0  0
 14 10  1  0  0  0  0
 16 13  2  0  0  0  0
 18 17  1  6  0  0  0
 18 20  1  0  0  0  0
 19 20  1  0  0  0  0
 21 22  1  0  0  0  0
 21 18  1  0  0  0  0
 23 24  2  0  0  0  0
 24 22  1  0  0  0  0
 25 26  1  0  0  0  0
 27 26  1  0  0  0  0
 27 28  1  0  0  0  0
 29 27  2  0  0  0  0
 30 31  1  1  0  0  0
 32 33  2  0  0  0  0
 33 34  1  0  0  0  0
 35 36  2  0  0  0  0
 36 31  1  0  0  0  0
 37 36  1  0  0  0  0
 37 33  1  0  0  0  0
 38 30  1  0  0  0  0
 39 40  1  0  0  0  0
 40 38  1  0  0  0  0
 41 40  1  0  0  0  0
M  END
>  <MODEL>
4

>  <REMARK>
 VINA RESULT:      -5.7      3.264      6.511
  Name = 
  15 active torsions:
  status: ('A' for Active; 'I' for Inactive)
    1  A    between atoms: C_4  and  C_13
    2  A    between atoms: C_4  and  C_14
    3  A    between atoms: C_5  and  C_16
    4  A    between atoms: C_7  and  O_11
    5  A    between atoms: C_8  and  C_10
    6  A    between atoms: C_8  and  C_13
    7  A    between atoms: C_10  and  C_39
    8  A    between atoms: O_11  and  C_16
    9  A    between atoms: C_13  and  C_36
   10  A    between atoms: C_19  and  C_32
   11  A    between atoms: C_19  and  C_35
   12  A    between atoms: O_21  and  C_33
   13  A    between atoms: O_21  and  C_35
   14  A    between atoms: C_30  and  C_41
   15  A    between atoms: C_35  and  C_41
                            x       y       z     vdW  Elec       q    Type
                         _______ _______ _______ _____ _____    ______ ____

>  <TORSDO>
F 15

$$$$
=
 OpenBabel11062421443D

 41 43  0  0  1  0  0  0  0  0999 V2000
  190.6320  175.0180  143.4810 C   0  0  2  0  0  3  0  0  0  0  0  0
  190.1160  176.1910  144.3360 C   0  0  2  0  0  3  0  0  0  0  0  0
  192.0720  177.4730  143.4660 C   0  0  0  0  0  2  0  0  0  0  0  0
  190.5780  177.5240  143.7590 C   0  0  0  0  0  2  0  0  0  0  0  0
  192.3610  176.4460  142.5380 O   0  0  0  0  0  0  0  0  0  0  0  0
  192.1420  175.1610  143.1120 C   0  0  1  0  0  0  0  0  0  0  0  0
  194.0640  173.0820  145.2230 C   0  0  0  0  0  0  0  0  0  0  0  0
  195.1050  173.9410  144.7130 C   0  0  0  0  0  0  0  0  0  0  0  0
  196.6580  175.9550  143.6740 C   0  0  0  0  0  3  0  0  0  0  0  0
  192.8350  173.6940  145.0140 O   0  0  0  0  0  0  0  0  0  0  0  0
  195.2620  176.1110  143.6870 C   0  0  0  0  0  3  0  0  0  0  0  0
  194.5010  175.0630  144.2050 C   0  0  0  0  0  0  0  0  0  0  0  0
  196.4900  173.8000  144.6970 C   0  0  0  0  0  3  0  0  0  0  0  0
  193.0130  174.9760  144.3990 C   0  0  1  0  0  3  0  0  0  0  0  0
  194.2230  171.8970  145.7950 C   0  0  0  0  0  2  0  0  0  0  0  0
  197.2340  174.8170  144.1690 N   0  0  0  0  0  0  0  0  0  0  0  0
  190.5240  176.0610  145.7990 C   0  0  0  0  0  2  0  0  0  0  0  0
  189.2980  175.9930  146.6960 C   0  0  2  0  0  3  0  0  0  0  0  0
  189.3130  173.6220  146.3510 F   0  0  0  0  0  0  0  0  0  0  0  0
  189.1680  174.6050  147.3160 C   0  0  0  0  0  2  0  0  0  0  0  0
  188.0600  176.3570  145.8940 C   0  0  0  0  0  2  0  0  0  0  0  0
  186.9140  176.6940  146.8280 C   0  0  0  0  0  2  0  0  0  0  0  0
  184.7080  177.6430  146.4100 C   0  0  0  0  0  2  0  0  0  0  0  0
  185.6490  176.7780  146.0510 C   0  0  0  0  0  3  0  0  0  0  0  0
  189.8430  174.9230  142.3270 O   0  0  0  0  0  0  0  0  0  0  0  0
  188.5660  174.5990  142.7930 C   0  0  0  0  0  2  0  0  0  0  0  0
  187.5520  175.4600  142.1260 C   0  0  0  0  0  0  0  0  0  0  0  0
  187.8020  175.9750  140.8620 O   0  0  0  0  0  0  0  0  0  0  0  0
  186.4780  175.7430  142.7180 O   0  0  0  0  0  1  0  0  0  0  0  0
  192.4870  174.1100  142.0150 C   0  0  2  0  0  3  0  0  0  0  0  0
  192.9450  174.7140  140.6850 C   0  0  0  0  0  2  0  0  0  0  0  0
  193.2050  172.1200  137.2180 O   0  0  0  0  0  0  0  0  0  0  0  0
  193.1100  173.0130  138.0990 C   0  0  0  0  0  0  0  0  0  0  0  0
  191.9550  173.8420  138.1280 N   0  0  0  0  0  1  0  0  0  0  0  0
  195.2520  174.1820  140.8340 O   0  0  0  0  0  0  0  0  0  0  0  0
  194.1810  174.0370  140.1880 C   0  0  0  0  0  0  0  0  0  0  0  0
  194.1810  173.1910  139.0310 N   0  0  0  0  0  2  0  0  0  0  0  0
  191.4380  173.2010  141.8070 O   0  0  0  0  0  0  0  0  0  0  0  0
  191.7800  171.0460  140.8550 C   0  0  0  0  0  1  0  0  0  0  0  0
  191.9770  171.9360  142.0650 C   0  0  0  0  0  3  0  0  0  0  0  0
  191.2690  171.3110  143.2500 C   0  0  0  0  0  1  0  0  0  0  0  0
  1 25  1  6  0  0  0
  1  2  1  0  0  0  0
  2 17  1  1  0  0  0
  3  4  1  0  0  0  0
  4  2  1  0  0  0  0
  5  6  1  0  0  0  0
  5  3  1  0  0  0  0
  6 30  1  6  0  0  0
  6  1  1  0  0  0  0
  6 14  1  0  0  0  0
  7 15  2  0  0  0  0
  8  7  1  0  0  0  0
  9 11  2  0  0  0  0
  9 16  1  0  0  0  0
 10  7  1  0  0  0  0
 11 12  1  0  0  0  0
 12  8  2  0  0  0  0
 13  8  1  0  0  0  0
 14 12  1  6  0  0  0
 14 10  1  0  0  0  0
 16 13  2  0  0  0  0
 18 17  1  6  0  0  0
 18 20  1  0  0  0  0
 19 20  1  0  0  0  0
 21 18  1  0  0  0  0
 21 22  1  0  0  0  0
 24 23  2  0  0  0  0
 24 22  1  0  0  0  0
 25 26  1  0  0  0  0
 27 29  1  0  0  0  0
 27 26  1  0  0  0  0
 28 27  2  0  0  0  0
 30 31  1  6  0  0  0
 32 33  2  0  0  0  0
 33 34  1  0  0  0  0
 33 37  1  0  0  0  0
 36 31  1  0  0  0  0
 36 35  2  0  0  0  0
 37 36  1  0  0  0  0
 38 30  1  0  0  0  0
 38 40  1  0  0  0  0
 39 40  1  0  0  0  0
 40 41  1  0  0  0  0
M  END
>  <MODEL>
5

>  <REMARK>
 VINA RESULT:      -5.7      3.500      6.927
  Name = 
  15 active torsions:
  status: ('A' for Active; 'I' for Inactive)
    1  A    between atoms: C_4  and  C_13
    2  A    between atoms: C_4  and  C_14
    3  A    between atoms: C_5  and  C_16
    4  A    between atoms: C_7  and  O_11
    5  A    between atoms: C_8  and  C_10
    6  A    between atoms: C_8  and  C_13
    7  A    between atoms: C_10  and  C_39
    8  A    between atoms: O_11  and  C_16
    9  A    between atoms: C_13  and  C_36
   10  A    between atoms: C_19  and  C_32
   11  A    between atoms: C_19  and  C_35
   12  A    between atoms: O_21  and  C_33
   13  A    between atoms: O_21  and  C_35
   14  A    between atoms: C_30  and  C_41
   15  A    between atoms: C_35  and  C_41
                            x       y       z     vdW  Elec       q    Type
                         _______ _______ _______ _____ _____    ______ ____

>  <TORSDO>
F 15

$$$$
=
 OpenBabel11062421443D

 41 43  0  0  1  0  0  0  0  0999 V2000
  188.6840  175.5760  142.6930 C   0  0  2  0  0  3  0  0  0  0  0  0
  187.6880  176.7400  142.5350 C   0  0  2  0  0  3  0  0  0  0  0  0
  189.6890  178.2290  142.4710 C   0  0  0  0  0  2  0  0  0  0  0  0
  188.3440  177.9200  141.8260 C   0  0  0  0  0  2  0  0  0  0  0  0
  190.5480  177.1090  142.3900 O   0  0  0  0  0  0  0  0  0  0  0  0
  190.0790  176.0440  143.2120 C   0  0  1  0  0  0  0  0  0  0  0  0
  189.5800  175.2700  146.6210 C   0  0  0  0  0  0  0  0  0  0  0  0
  190.9590  175.6950  146.6670 C   0  0  0  0  0  0  0  0  0  0  0  0
  193.4390  176.8110  146.2880 C   0  0  0  0  0  3  0  0  0  0  0  0
  189.0040  175.7400  145.4480 O   0  0  0  0  0  0  0  0  0  0  0  0
  192.4470  177.0130  145.3150 C   0  0  0  0  0  3  0  0  0  0  0  0
  191.2030  176.4190  145.5290 C   0  0  0  0  0  0  0  0  0  0  0  0
  191.9500  175.5040  147.6250 C   0  0  0  0  0  3  0  0  0  0  0  0
  189.9520  176.5110  144.7000 C   0  0  1  0  0  3  0  0  0  0  0  0
  188.9430  174.5450  147.5300 C   0  0  0  0  0  2  0  0  0  0  0  0
  193.1740  176.0680  147.4060 N   0  0  0  0  0  0  0  0  0  0  0  0
  187.0880  177.1720  143.8680 C   0  0  0  0  0  2  0  0  0  0  0  0
  185.5700  177.2160  143.7880 C   0  0  2  0  0  3  0  0  0  0  0  0
  184.5340  177.5310  141.6500 F   0  0  0  0  0  0  0  0  0  0  0  0
  185.1230  178.1990  142.7110 C   0  0  0  0  0  2  0  0  0  0  0  0
  184.9990  177.5870  145.1460 C   0  0  0  0  0  2  0  0  0  0  0  0
  185.6750  176.7780  146.2340 C   0  0  0  0  0  2  0  0  0  0  0  0
  185.5750  178.8150  147.5710 C   0  0  0  0  0  2  0  0  0  0  0  0
  186.2230  177.6960  147.2680 C   0  0  0  0  0  3  0  0  0  0  0  0
  188.8040  174.9170  141.4630 O   0  0  0  0  0  0  0  0  0  0  0  0
  188.0090  173.7750  141.5890 C   0  0  0  0  0  2  0  0  0  0  0  0
  188.4340  172.7520  140.5960 C   0  0  0  0  0  0  0  0  0  0  0  0
  189.4940  171.9030  140.8830 O   0  0  0  0  0  1  0  0  0  0  0  0
  187.8500  172.6730  139.4840 O   0  0  0  0  0  0  0  0  0  0  0  0
  191.0890  174.8690  143.0510 C   0  0  2  0  0  3  0  0  0  0  0  0
  191.5510  174.6280  141.6110 C   0  0  0  0  0  2  0  0  0  0  0  0
  194.0970  173.4210  138.3130 O   0  0  0  0  0  0  0  0  0  0  0  0
  193.2780  173.8870  139.1450 C   0  0  0  0  0  0  0  0  0  0  0  0
  191.8840  173.7960  138.8770 N   0  0  0  0  0  1  0  0  0  0  0  0
  193.5680  175.6310  142.3560 O   0  0  0  0  0  0  0  0  0  0  0  0
  192.9980  174.9680  141.4510 C   0  0  0  0  0  0  0  0  0  0  0  0
  193.7700  174.5270  140.3270 N   0  0  0  0  0  2  0  0  0  0  0  0
  190.6080  173.6790  143.6200 O   0  0  0  0  0  0  0  0  0  0  0  0
  191.2050  171.3840  143.8270 C   0  0  0  0  0  1  0  0  0  0  0  0
  191.7000  172.8040  143.6440 C   0  0  0  0  0  3  0  0  0  0  0  0
  192.6090  173.1560  144.8040 C   0  0  0  0  0  1  0  0  0  0  0  0
  1 25  1  6  0  0  0
  1  6  1  0  0  0  0
  2  1  1  0  0  0  0
  2 17  1  1  0  0  0
  4  3  1  0  0  0  0
  4  2  1  0  0  0  0
  5  3  1  0  0  0  0
  5  6  1  0  0  0  0
  6 30  1  6  0  0  0
  6 14  1  0  0  0  0
  7  8  1  0  0  0  0
  7 15  2  0  0  0  0
  8 13  1  0  0  0  0
  9 16  1  0  0  0  0
 10  7  1  0  0  0  0
 11 12  1  0  0  0  0
 11  9  2  0  0  0  0
 12  8  2  0  0  0  0
 14 10  1  1  0  0  0
 14 12  1  0  0  0  0
 16 13  2  0  0  0  0
 18 20  1  6  0  0  0
 18 17  1  0  0  0  0
 18 21  1  0  0  0  0
 19 20  1  0  0  0  0
 21 22  1  0  0  0  0
 22 24  1  0  0  0  0
 24 23  2  0  0  0  0
 25 26  1  0  0  0  0
 27 28  1  0  0  0  0
 27 26  1  0  0  0  0
 29 27  2  0  0  0  0
 30 31  1  6  0  0  0
 30 38  1  0  0  0  0
 32 33  2  0  0  0  0
 33 37  1  0  0  0  0
 34 33  1  0  0  0  0
 36 31  1  0  0  0  0
 36 35  2  0  0  0  0
 37 36  1  0  0  0  0
 38 40  1  0  0  0  0
 40 39  1  0  0  0  0
 40 41  1  0  0  0  0
M  END
>  <MODEL>
6

>  <REMARK>
 VINA RESULT:      -5.6      2.809      6.854
  Name = 
  15 active torsions:
  status: ('A' for Active; 'I' for Inactive)
    1  A    between atoms: C_4  and  C_13
    2  A    between atoms: C_4  and  C_14
    3  A    between atoms: C_5  and  C_16
    4  A    between atoms: C_7  and  O_11
    5  A    between atoms: C_8  and  C_10
    6  A    between atoms: C_8  and  C_13
    7  A    between atoms: C_10  and  C_39
    8  A    between atoms: O_11  and  C_16
    9  A    between atoms: C_13  and  C_36
   10  A    between atoms: C_19  and  C_32
   11  A    between atoms: C_19  and  C_35
   12  A    between atoms: O_21  and  C_33
   13  A    between atoms: O_21  and  C_35
   14  A    between atoms: C_30  and  C_41
   15  A    between atoms: C_35  and  C_41
                            x       y       z     vdW  Elec       q    Type
                         _______ _______ _______ _____ _____    ______ ____

>  <TORSDO>
F 15

$$$$
=
 OpenBabel11062421443D

 41 43  0  0  1  0  0  0  0  0999 V2000
  192.5000  175.5780  144.3240 C   0  0  2  0  0  3  0  0  0  0  0  0
  192.1940  176.2290  145.6870 C   0  0  2  0  0  3  0  0  0  0  0  0
  194.6400  176.0400  146.1430 C   0  0  0  0  0  2  0  0  0  0  0  0
  193.4220  176.9520  146.2280 C   0  0  0  0  0  2  0  0  0  0  0  0
  194.8840  175.6600  144.8030 O   0  0  0  0  0  0  0  0  0  0  0  0
  193.8550  174.8030  144.3190 C   0  0  1  0  0  0  0  0  0  0  0  0
  193.2270  171.3420  144.6390 C   0  0  0  0  0  0  0  0  0  0  0  0
  194.6310  171.3670  144.9700 C   0  0  0  0  0  0  0  0  0  0  0  0
  197.1940  171.9550  145.7620 C   0  0  0  0  0  3  0  0  0  0  0  0
  192.7120  172.6260  144.7700 O   0  0  0  0  0  0  0  0  0  0  0  0
  196.2410  172.9860  145.7240 C   0  0  0  0  0  3  0  0  0  0  0  0
  194.9530  172.6580  145.3020 C   0  0  0  0  0  0  0  0  0  0  0  0
  195.5850  170.3530  145.0140 C   0  0  0  0  0  3  0  0  0  0  0  0
  193.7300  173.5290  145.2190 C   0  0  1  0  0  3  0  0  0  0  0  0
  192.5190  170.2860  144.2630 C   0  0  0  0  0  2  0  0  0  0  0  0
  196.8520  170.6790  145.4070 N   0  0  0  0  0  0  0  0  0  0  0  0
  191.6640  175.2220  146.7010 C   0  0  0  0  0  2  0  0  0  0  0  0
  190.2500  175.5820  147.1290 C   0  0  2  0  0  3  0  0  0  0  0  0
  188.5640  174.1620  148.0690 F   0  0  0  0  0  0  0  0  0  0  0  0
  189.3150  174.3930  146.9280 C   0  0  0  0  0  2  0  0  0  0  0  0
  189.7750  176.7950  146.3470 C   0  0  0  0  0  2  0  0  0  0  0  0
  188.5170  176.4560  145.5720 C   0  0  0  0  0  2  0  0  0  0  0  0
  186.8980  177.2850  147.1950 C   0  0  0  0  0  2  0  0  0  0  0  0
  187.4210  177.3760  145.9780 C   0  0  0  0  0  3  0  0  0  0  0  0
  192.4910  176.5730  143.3390 O   0  0  0  0  0  0  0  0  0  0  0  0
  191.1870  176.5670  142.8360 C   0  0  0  0  0  2  0  0  0  0  0  0
  190.5870  177.9210  142.9730 C   0  0  0  0  0  0  0  0  0  0  0  0
  191.1900  178.8690  143.7860 O   0  0  0  0  0  1  0  0  0  0  0  0
  189.5170  178.1990  142.3710 O   0  0  0  0  0  0  0  0  0  0  0  0
  194.2180  174.4470  142.8460 C   0  0  2  0  0  3  0  0  0  0  0  0
  193.2140  173.5180  142.1580 C   0  0  0  0  0  2  0  0  0  0  0  0
  189.3970  172.6830  140.2740 O   0  0  0  0  0  0  0  0  0  0  0  0
  190.4040  173.0190  140.9490 C   0  0  0  0  0  0  0  0  0  0  0  0
  190.4750  172.6510  142.3210 N   0  0  0  0  0  1  0  0  0  0  0  0
  193.4610  174.9190  140.2590 O   0  0  0  0  0  0  0  0  0  0  0  0
  192.7150  174.1220  140.8850 C   0  0  0  0  0  0  0  0  0  0  0  0
  191.4370  173.7890  140.3270 N   0  0  0  0  0  2  0  0  0  0  0  0
  195.5210  173.9360  142.7330 O   0  0  0  0  0  0  0  0  0  0  0  0
  196.7320  174.3460  140.7250 C   0  0  0  0  0  1  0  0  0  0  0  0
  196.2500  174.9120  142.0450 C   0  0  0  0  0  3  0  0  0  0  0  0
  197.4540  175.3220  142.8680 C   0  0  0  0  0  1  0  0  0  0  0  0
  1 25  1  6  0  0  0
  1  2  1  0  0  0  0
  2  4  1  0  0  0  0
  2 17  1  1  0  0  0
  3  4  1  0  0  0  0
  5  3  1  0  0  0  0
  6 30  1  6  0  0  0
  6  1  1  0  0  0  0
  6  5  1  0  0  0  0
  6 14  1  0  0  0  0
  7 10  1  0  0  0  0
  7  8  1  0  0  0  0
  8 13  2  0  0  0  0
  8 12  1  0  0  0  0
 11  9  1  0  0  0  0
 12 11  2  0  0  0  0
 13 16  1  0  0  0  0
 14 10  1  6  0  0  0
 14 12  1  0  0  0  0
 15  7  2  0  0  0  0
 16  9  2  0  0  0  0
 17 18  1  0  0  0  0
 18 21  1  6  0  0  0
 20 18  1  0  0  0  0
 20 19  1  0  0  0  0
 22 24  1  0  0  0  0
 22 21  1  0  0  0  0
 24 23  2  0  0  0  0
 26 27  1  0  0  0  0
 26 25  1  0  0  0  0
 27 28  1  0  0  0  0
 29 27  2  0  0  0  0
 30 31  1  1  0  0  0
 32 33  2  0  0  0  0
 33 34  1  0  0  0  0
 35 36  2  0  0  0  0
 36 31  1  0  0  0  0
 37 36  1  0  0  0  0
 37 33  1  0  0  0  0
 38 30  1  0  0  0  0
 39 40  1  0  0  0  0
 40 38  1  0  0  0  0
 40 41  1  0  0  0  0
M  END
>  <MODEL>
7

>  <REMARK>
 VINA RESULT:      -5.5      3.491      6.749
  Name = 
  15 active torsions:
  status: ('A' for Active; 'I' for Inactive)
    1  A    between atoms: C_4  and  C_13
    2  A    between atoms: C_4  and  C_14
    3  A    between atoms: C_5  and  C_16
    4  A    between atoms: C_7  and  O_11
    5  A    between atoms: C_8  and  C_10
    6  A    between atoms: C_8  and  C_13
    7  A    between atoms: C_10  and  C_39
    8  A    between atoms: O_11  and  C_16
    9  A    between atoms: C_13  and  C_36
   10  A    between atoms: C_19  and  C_32
   11  A    between atoms: C_19  and  C_35
   12  A    between atoms: O_21  and  C_33
   13  A    between atoms: O_21  and  C_35
   14  A    between atoms: C_30  and  C_41
   15  A    between atoms: C_35  and  C_41
                            x       y       z     vdW  Elec       q    Type
                         _______ _______ _______ _____ _____    ______ ____

>  <TORSDO>
F 15

$$$$
=
 OpenBabel11062421443D

 41 43  0  0  1  0  0  0  0  0999 V2000
  193.4120  175.2260  143.5610 C   0  0  2  0  0  3  0  0  0  0  0  0
  194.7630  175.6240  142.9370 C   0  0  2  0  0  3  0  0  0  0  0  0
  193.7270  175.0620  140.7370 C   0  0  0  0  0  2  0  0  0  0  0  0
  194.5780  176.0750  141.4920 C   0  0  0  0  0  2  0  0  0  0  0  0
  192.4560  174.9310  141.3430 O   0  0  0  0  0  0  0  0  0  0  0  0
  192.5610  174.3140  142.6220 C   0  0  1  0  0  0  0  0  0  0  0  0
  193.1120  171.0710  143.9080 C   0  0  0  0  0  0  0  0  0  0  0  0
  192.3540  170.7390  142.7260 C   0  0  0  0  0  0  0  0  0  0  0  0
  191.1230  170.6040  140.2750 C   0  0  0  0  0  3  0  0  0  0  0  0
  193.6130  172.3600  143.7740 O   0  0  0  0  0  0  0  0  0  0  0  0
  191.8050  171.7800  140.6280 C   0  0  0  0  0  3  0  0  0  0  0  0
  192.4060  171.8230  141.8870 C   0  0  0  0  0  0  0  0  0  0  0  0
  191.6770  169.5790  142.3620 C   0  0  0  0  0  3  0  0  0  0  0  0
  193.2420  172.9100  142.5030 C   0  0  1  0  0  3  0  0  0  0  0  0
  193.3100  170.2980  144.9670 C   0  0  0  0  0  2  0  0  0  0  0  0
  191.0710  169.5440  141.1390 N   0  0  0  0  0  0  0  0  0  0  0  0
  195.7930  174.5040  143.0300 C   0  0  0  0  0  2  0  0  0  0  0  0
  197.0060  174.9540  143.8290 C   0  0  2  0  0  3  0  0  0  0  0  0
  197.7110  177.1390  143.1400 F   0  0  0  0  0  0  0  0  0  0  0  0
  197.9410  175.7850  142.9550 C   0  0  0  0  0  2  0  0  0  0  0  0
  197.7190  173.7390  144.3990 C   0  0  0  0  0  2  0  0  0  0  0  0
  196.7890  172.9740  145.3190 C   0  0  0  0  0  2  0  0  0  0  0  0
  196.7570  170.6750  146.1300 C   0  0  0  0  0  2  0  0  0  0  0  0
  196.9930  171.5130  145.1280 C   0  0  0  0  0  3  0  0  0  0  0  0
  192.7100  176.3920  143.8940 O   0  0  0  0  0  0  0  0  0  0  0  0
  193.5260  177.0480  144.8200 C   0  0  0  0  0  2  0  0  0  0  0  0
  193.3180  176.4700  146.1740 C   0  0  0  0  0  0  0  0  0  0  0  0
  194.3920  175.9420  146.8760 O   0  0  0  0  0  1  0  0  0  0  0  0
  192.1630  176.4350  146.6740 O   0  0  0  0  0  0  0  0  0  0  0  0
  191.1170  174.2180  143.1990 C   0  0  2  0  0  3  0  0  0  0  0  0
  190.1720  175.3220  142.7170 C   0  0  0  0  0  2  0  0  0  0  0  0
  186.6710  177.4560  141.2990 O   0  0  0  0  0  0  0  0  0  0  0  0
  187.7830  176.9440  141.5890 C   0  0  0  0  0  0  0  0  0  0  0  0
  188.8350  177.7820  142.0520 N   0  0  0  0  0  1  0  0  0  0  0  0
  189.1690  173.5530  141.4950 O   0  0  0  0  0  0  0  0  0  0  0  0
  189.0990  174.7610  141.8400 C   0  0  0  0  0  0  0  0  0  0  0  0
  187.9700  175.5360  141.4160 N   0  0  0  0  0  2  0  0  0  0  0  0
  191.1120  174.1430  144.6000 O   0  0  0  0  0  0  0  0  0  0  0  0
  189.5300  174.1850  146.3790 C   0  0  0  0  0  1  0  0  0  0  0  0
  189.8150  173.7560  144.9540 C   0  0  0  0  0  3  0  0  0  0  0  0
  189.6910  172.2490  144.8650 C   0  0  0  0  0  1  0  0  0  0  0  0
  1 25  1  6  0  0  0
  2 17  1  6  0  0  0
  2  1  1  0  0  0  0
  3  5  1  0  0  0  0
  3  4  1  0  0  0  0
  4  2  1  0  0  0  0
  5  6  1  0  0  0  0
  6 30  1  1  0  0  0
  6  1  1  0  0  0  0
  7 15  2  0  0  0  0
  8  7  1  0  0  0  0
  9 11  2  0  0  0  0
  9 16  1  0  0  0  0
 10  7  1  0  0  0  0
 11 12  1  0  0  0  0
 12  8  2  0  0  0  0
 13  8  1  0  0  0  0
 14 12  1  1  0  0  0
 14  6  1  0  0  0  0
 14 10  1  0  0  0  0
 16 13  2  0  0  0  0
 17 18  1  0  0  0  0
 18 20  1  6  0  0  0
 18 21  1  0  0  0  0
 20 19  1  0  0  0  0
 21 22  1  0  0  0  0
 24 22  1  0  0  0  0
 24 23  2  0  0  0  0
 25 26  1  0  0  0  0
 26 27  1  0  0  0  0
 27 29  2  0  0  0  0
 27 28  1  0  0  0  0
 30 31  1  1  0  0  0
 30 38  1  0  0  0  0
 32 33  2  0  0  0  0
 33 34  1  0  0  0  0
 35 36  2  0  0  0  0
 36 31  1  0  0  0  0
 37 33  1  0  0  0  0
 37 36  1  0  0  0  0
 38 40  1  0  0  0  0
 40 39  1  0  0  0  0
 41 40  1  0  0  0  0
M  END
>  <MODEL>
8

>  <REMARK>
 VINA RESULT:      -5.4      3.333      6.658
  Name = 
  15 active torsions:
  status: ('A' for Active; 'I' for Inactive)
    1  A    between atoms: C_4  and  C_13
    2  A    between atoms: C_4  and  C_14
    3  A    between atoms: C_5  and  C_16
    4  A    between atoms: C_7  and  O_11
    5  A    between atoms: C_8  and  C_10
    6  A    between atoms: C_8  and  C_13
    7  A    between atoms: C_10  and  C_39
    8  A    between atoms: O_11  and  C_16
    9  A    between atoms: C_13  and  C_36
   10  A    between atoms: C_19  and  C_32
   11  A    between atoms: C_19  and  C_35
   12  A    between atoms: O_21  and  C_33
   13  A    between atoms: O_21  and  C_35
   14  A    between atoms: C_30  and  C_41
   15  A    between atoms: C_35  and  C_41
                            x       y       z     vdW  Elec       q    Type
                         _______ _______ _______ _____ _____    ______ ____

>  <TORSDO>
F 15

$$$$
=
 OpenBabel11062421443D

 41 43  0  0  1  0  0  0  0  0999 V2000
  188.9540  175.2970  142.6910 C   0  0  2  0  0  3  0  0  0  0  0  0
  187.7960  176.2980  142.5140 C   0  0  2  0  0  3  0  0  0  0  0  0
  189.5530  178.0680  142.4490 C   0  0  0  0  0  2  0  0  0  0  0  0
  188.2750  177.5550  141.7970 C   0  0  0  0  0  2  0  0  0  0  0  0
  190.5710  177.0890  142.3850 O   0  0  0  0  0  0  0  0  0  0  0  0
  190.2600  175.9740  143.2140 C   0  0  1  0  0  0  0  0  0  0  0  0
  189.6110  175.1720  146.5920 C   0  0  0  0  0  0  0  0  0  0  0  0
  190.9770  175.6220  146.7060 C   0  0  0  0  0  0  0  0  0  0  0  0
  193.4510  176.7870  146.4540 C   0  0  0  0  0  3  0  0  0  0  0  0
  189.0830  175.6370  145.3940 O   0  0  0  0  0  0  0  0  0  0  0  0
  192.5040  176.9760  145.4340 C   0  0  0  0  0  3  0  0  0  0  0  0
  191.2620  176.3570  145.5850 C   0  0  0  0  0  0  0  0  0  0  0  0
  191.9240  175.4450  147.7110 C   0  0  0  0  0  3  0  0  0  0  0  0
  190.0520  176.4310  144.6960 C   0  0  1  0  0  3  0  0  0  0  0  0
  188.9440  174.4300  147.4650 C   0  0  0  0  0  2  0  0  0  0  0  0
  193.1460  176.0330  147.5540 N   0  0  0  0  0  0  0  0  0  0  0  0
  187.1280  176.6470  143.8390 C   0  0  0  0  0  2  0  0  0  0  0  0
  186.2540  177.8820  143.6920 C   0  0  2  0  0  3  0  0  0  0  0  0
  187.3740  178.2970  145.7700 F   0  0  0  0  0  0  0  0  0  0  0  0
  186.4040  178.7880  144.9100 C   0  0  0  0  0  2  0  0  0  0  0  0
  184.8080  177.4620  143.4910 C   0  0  0  0  0  2  0  0  0  0  0  0
  184.1200  178.4070  142.5250 C   0  0  0  0  0  2  0  0  0  0  0  0
  184.0240  177.9300  140.1360 C   0  0  0  0  0  2  0  0  0  0  0  0
  184.7530  178.2920  141.1840 C   0  0  0  0  0  3  0  0  0  0  0  0
  189.1820  174.6530  141.4680 O   0  0  0  0  0  0  0  0  0  0  0  0
  188.1730  173.6900  141.3770 C   0  0  0  0  0  2  0  0  0  0  0  0
  188.5330  172.6770  140.3490 C   0  0  0  0  0  0  0  0  0  0  0  0
  187.8330  172.6240  139.1520 O   0  0  0  0  0  0  0  0  0  0  0  0
  189.4550  171.8510  140.5740 O   0  0  0  0  0  1  0  0  0  0  0  0
  191.4360  174.9620  143.0720 C   0  0  2  0  0  3  0  0  0  0  0  0
  192.4440  175.3170  141.9760 C   0  0  0  0  0  2  0  0  0  0  0  0
  194.3920  171.8020  140.3440 O   0  0  0  0  0  0  0  0  0  0  0  0
  193.8570  172.8990  140.6480 C   0  0  0  0  0  0  0  0  0  0  0  0
  192.7610  173.3760  139.8760 N   0  0  0  0  0  1  0  0  0  0  0  0
  194.4680  175.4510  143.2060 O   0  0  0  0  0  0  0  0  0  0  0  0
  193.8120  174.8300  142.3300 C   0  0  0  0  0  0  0  0  0  0  0  0
  194.3830  173.6540  141.7440 N   0  0  0  0  0  2  0  0  0  0  0  0
  190.9800  173.6440  142.9150 O   0  0  0  0  0  0  0  0  0  0  0  0
  192.3210  172.0230  144.0300 C   0  0  0  0  0  1  0  0  0  0  0  0
  191.1890  173.0210  144.1500 C   0  0  0  0  0  3  0  0  0  0  0  0
  189.9320  172.2850  144.5680 C   0  0  0  0  0  1  0  0  0  0  0  0
  1 25  1  6  0  0  0
  1  6  1  0  0  0  0
  2  1  1  0  0  0  0
  2 17  1  1  0  0  0
  4  3  1  0  0  0  0
  4  2  1  0  0  0  0
  5  3  1  0  0  0  0
  5  6  1  0  0  0  0
  6 30  1  6  0  0  0
  6 14  1  0  0  0  0
  7  8  1  0  0  0  0
  7 15  2  0  0  0  0
  8 13  1  0  0  0  0
  9 16  1  0  0  0  0
 10  7  1  0  0  0  0
 11 12  1  0  0  0  0
 11  9  2  0  0  0  0
 12  8  2  0  0  0  0
 14 10  1  1  0  0  0
 14 12  1  0  0  0  0
 16 13  2  0  0  0  0
 18 21  1  1  0  0  0
 18 17  1  0  0  0  0
 18 20  1  0  0  0  0
 20 19  1  0  0  0  0
 22 21  1  0  0  0  0
 23 24  2  0  0  0  0
 24 22  1  0  0  0  0
 26 25  1  0  0  0  0
 27 29  1  0  0  0  0
 27 26  1  0  0  0  0
 28 27  2  0  0  0  0
 30 31  1  6  0  0  0
 31 36  1  0  0  0  0
 32 33  2  0  0  0  0
 33 37  1  0  0  0  0
 34 33  1  0  0  0  0
 36 35  2  0  0  0  0
 37 36  1  0  0  0  0
 38 30  1  0  0  0  0
 38 40  1  0  0  0  0
 39 40  1  0  0  0  0
 40 41  1  0  0  0  0
M  END
>  <MODEL>
9

>  <REMARK>
 VINA RESULT:      -5.2      2.996      6.499
  Name = 
  15 active torsions:
  status: ('A' for Active; 'I' for Inactive)
    1  A    between atoms: C_4  and  C_13
    2  A    between atoms: C_4  and  C_14
    3  A    between atoms: C_5  and  C_16
    4  A    between atoms: C_7  and  O_11
    5  A    between atoms: C_8  and  C_10
    6  A    between atoms: C_8  and  C_13
    7  A    between atoms: C_10  and  C_39
    8  A    between atoms: O_11  and  C_16
    9  A    between atoms: C_13  and  C_36
   10  A    between atoms: C_19  and  C_32
   11  A    between atoms: C_19  and  C_35
   12  A    between atoms: O_21  and  C_33
   13  A    between atoms: O_21  and  C_35
   14  A    between atoms: C_30  and  C_41
   15  A    between atoms: C_35  and  C_41
                            x       y       z     vdW  Elec       q    Type
                         _______ _______ _______ _____ _____    ______ ____

>  <TORSDO>
F 15

$$$$
