=
 OpenBabel11072409283D

 40 43  0  0  1  0  0  0  0  0999 V2000
  194.6240  172.7930  145.3990 C   0  0  0  0  0  3  0  0  0  0  0  0
  192.9390  174.1870  144.1400 C   0  0  0  0  0  0  0  0  0  0  0  0
  195.7510  173.7880  145.5960 C   0  0  2  0  0  3  0  0  0  0  0  0
  193.4680  172.9370  144.7350 C   0  0  0  0  0  3  0  0  0  0  0  0
  192.9810  175.2220  146.3850 C   0  0  2  0  0  3  0  0  0  0  0  0
  194.4070  175.6970  146.6660 C   0  0  0  0  0  2  0  0  0  0  0  0
  195.3910  175.2720  145.5760 C   0  0  0  0  0  2  0  0  0  0  0  0
  192.6340  175.2430  144.9140 C   0  0  0  0  0  0  0  0  0  0  0  0
  192.1580  176.4480  144.3060 N   0  0  0  0  0  2  0  0  0  0  0  0
  190.3530  177.8870  143.7150 N   0  0  0  0  0  0  0  0  0  0  0  0
  190.7710  176.7890  144.2490 C   0  0  0  0  0  0  0  0  0  0  0  0
  188.5270  176.9030  144.4420 C   0  0  0  0  0  0  0  0  0  0  0  0
  189.6440  175.9720  144.8040 C   0  0  1  0  0  3  0  0  0  0  0  0
  188.9630  177.9560  143.8350 N   0  0  0  0  0  0  0  0  0  0  0  0
  189.2730  174.5590  142.7250 C   0  0  0  0  0  3  0  0  0  0  0  0
  189.5190  174.6480  144.1050 C   0  0  0  0  0  0  0  0  0  0  0  0
  189.5860  172.2260  144.2330 C   0  0  0  0  0  3  0  0  0  0  0  0
  189.1830  173.3090  142.1050 C   0  0  0  0  0  3  0  0  0  0  0  0
  189.6740  173.4760  144.8530 C   0  0  0  0  0  3  0  0  0  0  0  0
  189.3420  172.1430  142.8600 C   0  0  0  0  0  3  0  0  0  0  0  0
  186.3170  176.3180  143.8410 O   0  0  0  0  0  0  0  0  0  0  0  0
  186.6270  176.9000  146.0800 N   0  0  0  0  0  2  0  0  0  0  0  0
  187.1060  176.6890  144.7500 C   0  0  0  0  0  0  0  0  0  0  0  0
  185.2270  176.7400  146.4470 C   0  0  0  0  0  2  0  0  0  0  0  0
  184.5270  178.0860  146.4340 C   0  0  0  0  0  1  0  0  0  0  0  0
  190.8610  175.2290  147.7820 N   0  0  0  0  0  1  0  0  0  0  0  0
  191.9790  175.9290  147.2420 C   0  0  0  0  0  0  0  0  0  0  0  0
  192.1440  177.1460  147.5130 O   0  0  0  0  0  0  0  0  0  0  0  0
  196.8390  173.5440  144.5610 C   0  0  0  0  0  2  0  0  0  0  0  0
  197.2130  174.8270  143.8260 C   0  0  0  0  0  2  0  0  0  0  0  0
  196.8530  174.7480  142.3500 C   0  0  0  0  0  2  0  0  0  0  0  0
  196.0260  176.0010  140.5080 O   0  0  0  0  0  0  0  0  0  0  0  0
  195.1590  176.4160  142.2000 O   0  0  0  0  0  0  0  0  0  0  0  0
  196.4470  176.1150  141.8150 C   0  0  0  0  0  3  0  0  0  0  0  0
  194.8010  176.3050  140.9240 O   0  0  0  0  0  0  0  0  0  0  0  0
  192.6760  174.2540  142.7660 O   0  0  0  0  0  0  0  0  0  0  0  0
  193.1780  173.3040  141.8330 C   0  0  0  0  0  2  0  0  0  0  0  0
  192.4190  173.4110  140.5230 C   0  0  0  0  0  2  0  0  0  0  0  0
  191.9360  172.1550  140.1600 O   0  0  0  0  0  0  0  0  0  0  0  0
  191.6310  172.2770  138.8060 C   0  0  0  0  0  1  0  0  0  0  0  0
  1  3  1  0  0  0  0
  2  4  1  0  0  0  0
  2  8  2  0  0  0  0
  3 29  1  6  0  0  0
  4  1  2  0  0  0  0
  5  6  1  0  0  0  0
  5 27  1  1  0  0  0
  7  3  1  0  0  0  0
  7  6  1  0  0  0  0
  8  5  1  0  0  0  0
  9  8  1  0  0  0  0
 10 14  1  0  0  0  0
 10 11  2  0  0  0  0
 11  9  1  0  0  0  0
 11 13  1  0  0  0  0
 12 23  1  0  0  0  0
 12 13  1  0  0  0  0
 13 16  1  6  0  0  0
 14 12  2  0  0  0  0
 15 16  1  0  0  0  0
 16 19  2  0  0  0  0
 17 19  1  0  0  0  0
 18 15  2  0  0  0  0
 18 20  1  0  0  0  0
 20 17  2  0  0  0  0
 21 23  2  0  0  0  0
 22 24  1  0  0  0  0
 23 22  1  0  0  0  0
 25 24  1  0  0  0  0
 27 28  2  0  0  0  0
 27 26  1  0  0  0  0
 30 29  1  0  0  0  0
 31 30  1  0  0  0  0
 32 35  1  0  0  0  0
 32 34  1  0  0  0  0
 34 33  1  0  0  0  0
 34 31  1  0  0  0  0
 35 33  1  0  0  0  0
 36  2  1  0  0  0  0
 37 36  1  0  0  0  0
 38 37  1  0  0  0  0
 39 38  1  0  0  0  0
 40 39  1  0  0  0  0
M  END
>  <MODEL>
1

>  <REMARK>
 VINA RESULT:      -6.3      0.000      0.000
  Name = 
  13 active torsions:
  status: ('A' for Active; 'I' for Inactive)
    1  A    between atoms: N_1  and  C_39
    2  A    between atoms: N_5  and  C_20
    3  A    between atoms: C_6  and  C_14
    4  A    between atoms: C_6  and  C_23
    5  A    between atoms: C_8  and  C_19
    6  A    between atoms: C_9  and  O_29
    7  A    between atoms: O_10  and  C_18
    8  A    between atoms: C_12  and  C_24
    9  A    between atoms: C_14  and  C_15
   10  A    between atoms: C_16  and  C_28
   11  A    between atoms: C_18  and  C_34
   12  A    between atoms: C_23  and  C_36
   13  A    between atoms: O_29  and  C_34
                            x       y       z     vdW  Elec       q    Type
                         _______ _______ _______ _____ _____    ______ ____

>  <TORSDO>
F 13

$$$$
=
 OpenBabel11072409283D

 40 43  0  0  1  0  0  0  0  0999 V2000
  194.6530  171.9610  145.5870 C   0  0  0  0  0  3  0  0  0  0  0  0
  193.2000  173.4400  144.1500 C   0  0  0  0  0  0  0  0  0  0  0  0
  196.0060  172.6260  145.4350 C   0  0  2  0  0  3  0  0  0  0  0  0
  193.4850  172.2620  145.0020 C   0  0  0  0  0  3  0  0  0  0  0  0
  193.8170  174.9040  146.0450 C   0  0  2  0  0  3  0  0  0  0  0  0
  195.3420  175.0200  146.0820 C   0  0  0  0  0  2  0  0  0  0  0  0
  196.0240  174.1080  145.0640 C   0  0  0  0  0  2  0  0  0  0  0  0
  193.2790  174.6860  144.6490 C   0  0  0  0  0  0  0  0  0  0  0  0
  193.0320  175.8060  143.7920 N   0  0  0  0  0  2  0  0  0  0  0  0
  191.5520  177.4710  142.9500 N   0  0  0  0  0  0  0  0  0  0  0  0
  191.7600  176.4510  143.7110 C   0  0  0  0  0  0  0  0  0  0  0  0
  189.6280  177.1440  143.9610 C   0  0  0  0  0  0  0  0  0  0  0  0
  190.5360  176.0750  144.4890 C   0  0  1  0  0  3  0  0  0  0  0  0
  190.2320  177.9000  143.1050 N   0  0  0  0  0  0  0  0  0  0  0  0
  189.6750  174.3650  142.8170 C   0  0  0  0  0  3  0  0  0  0  0  0
  190.0480  174.6990  144.1300 C   0  0  0  0  0  0  0  0  0  0  0  0
  189.5600  172.4290  144.8300 C   0  0  0  0  0  3  0  0  0  0  0  0
  189.2460  173.0690  142.5160 C   0  0  0  0  0  3  0  0  0  0  0  0
  189.9870  173.7250  145.1320 C   0  0  0  0  0  3  0  0  0  0  0  0
  189.1900  172.1010  143.5230 C   0  0  0  0  0  3  0  0  0  0  0  0
  187.8710  177.0660  145.5400 O   0  0  0  0  0  0  0  0  0  0  0  0
  187.2910  177.8890  143.4340 N   0  0  0  0  0  2  0  0  0  0  0  0
  188.2330  177.3550  144.3680 C   0  0  0  0  0  0  0  0  0  0  0  0
  185.8870  178.0910  143.7590 C   0  0  0  0  0  2  0  0  0  0  0  0
  185.6180  179.5610  144.0160 C   0  0  0  0  0  1  0  0  0  0  0  0
  191.9060  175.8400  147.4280 N   0  0  0  0  0  1  0  0  0  0  0  0
  193.1540  176.0320  146.7680 C   0  0  0  0  0  0  0  0  0  0  0  0
  193.7210  177.1540  146.8190 O   0  0  0  0  0  0  0  0  0  0  0  0
  196.8410  171.8670  144.4140 C   0  0  0  0  0  2  0  0  0  0  0  0
  196.7100  170.3580  144.5900 C   0  0  0  0  0  2  0  0  0  0  0  0
  197.5790  169.8530  145.7330 C   0  0  0  0  0  2  0  0  0  0  0  0
  196.7890  168.8970  147.7590 O   0  0  0  0  0  0  0  0  0  0  0  0
  195.5710  168.6830  146.2560 O   0  0  0  0  0  0  0  0  0  0  0  0
  196.9400  168.6490  146.4120 C   0  0  0  0  0  3  0  0  0  0  0  0
  195.4740  168.9110  147.5620 O   0  0  0  0  0  0  0  0  0  0  0  0
  192.7680  173.2640  142.8300 O   0  0  0  0  0  0  0  0  0  0  0  0
  193.1250  172.1350  142.0400 C   0  0  0  0  0  2  0  0  0  0  0  0
  194.5140  172.3250  141.4590 C   0  0  0  0  0  2  0  0  0  0  0  0
  194.4230  172.4860  140.0770 O   0  0  0  0  0  0  0  0  0  0  0  0
  194.7210  173.8310  139.8630 C   0  0  0  0  0  1  0  0  0  0  0  0
  2  8  2  0  0  0  0
  2  4  1  0  0  0  0
  3 29  1  6  0  0  0
  3  1  1  0  0  0  0
  4  1  2  0  0  0  0
  5  6  1  0  0  0  0
  5 27  1  6  0  0  0
  7  3  1  0  0  0  0
  7  6  1  0  0  0  0
  8  5  1  0  0  0  0
  9  8  1  0  0  0  0
 10 14  1  0  0  0  0
 10 11  2  0  0  0  0
 11  9  1  0  0  0  0
 11 13  1  0  0  0  0
 12 23  1  0  0  0  0
 12 13  1  0  0  0  0
 13 16  1  6  0  0  0
 14 12  2  0  0  0  0
 15 16  1  0  0  0  0
 16 19  2  0  0  0  0
 17 19  1  0  0  0  0
 18 15  2  0  0  0  0
 18 20  1  0  0  0  0
 20 17  2  0  0  0  0
 22 24  1  0  0  0  0
 22 23  1  0  0  0  0
 23 21  2  0  0  0  0
 24 25  1  0  0  0  0
 27 28  2  0  0  0  0
 27 26  1  0  0  0  0
 29 30  1  0  0  0  0
 30 31  1  0  0  0  0
 31 34  1  0  0  0  0
 33 34  1  0  0  0  0
 33 35  1  0  0  0  0
 34 32  1  0  0  0  0
 35 32  1  0  0  0  0
 36  2  1  0  0  0  0
 37 36  1  0  0  0  0
 38 37  1  0  0  0  0
 39 38  1  0  0  0  0
 40 39  1  0  0  0  0
M  END
>  <MODEL>
2

>  <REMARK>
 VINA RESULT:      -6.0      2.712      3.554
  Name = 
  13 active torsions:
  status: ('A' for Active; 'I' for Inactive)
    1  A    between atoms: N_1  and  C_39
    2  A    between atoms: N_5  and  C_20
    3  A    between atoms: C_6  and  C_14
    4  A    between atoms: C_6  and  C_23
    5  A    between atoms: C_8  and  C_19
    6  A    between atoms: C_9  and  O_29
    7  A    between atoms: O_10  and  C_18
    8  A    between atoms: C_12  and  C_24
    9  A    between atoms: C_14  and  C_15
   10  A    between atoms: C_16  and  C_28
   11  A    between atoms: C_18  and  C_34
   12  A    between atoms: C_23  and  C_36
   13  A    between atoms: O_29  and  C_34
                            x       y       z     vdW  Elec       q    Type
                         _______ _______ _______ _____ _____    ______ ____

>  <TORSDO>
F 13

$$$$
=
 OpenBabel11072409283D

 40 43  0  0  1  0  0  0  0  0999 V2000
  189.0830  178.1240  143.2150 C   0  0  0  0  0  3  0  0  0  0  0  0
  190.0700  175.8250  142.8830 C   0  0  0  0  0  0  0  0  0  0  0  0
  187.6870  177.7860  143.6990 C   0  0  2  0  0  3  0  0  0  0  0  0
  190.0660  177.3050  142.8120 C   0  0  0  0  0  3  0  0  0  0  0  0
  189.7940  175.9860  145.3350 C   0  0  2  0  0  3  0  0  0  0  0  0
  188.3110  176.2190  145.6340 C   0  0  0  0  0  2  0  0  0  0  0  0
  187.4830  176.4280  144.3670 C   0  0  0  0  0  2  0  0  0  0  0  0
  190.0190  175.1930  144.0690 C   0  0  0  0  0  0  0  0  0  0  0  0
  189.9880  173.7620  144.1030 N   0  0  0  0  0  2  0  0  0  0  0  0
  191.1160  171.6810  144.3740 N   0  0  0  0  0  0  0  0  0  0  0  0
  191.1570  172.9690  144.3250 C   0  0  0  0  0  0  0  0  0  0  0  0
  193.2260  172.1750  144.7460 C   0  0  0  0  0  0  0  0  0  0  0  0
  192.5410  173.4950  144.5580 C   0  0  1  0  0  3  0  0  0  0  0  0
  192.3980  171.1900  144.6340 N   0  0  0  0  0  0  0  0  0  0  0  0
  193.5580  175.5450  143.4520 C   0  0  0  0  0  3  0  0  0  0  0  0
  193.0660  174.2320  143.3580 C   0  0  0  0  0  0  0  0  0  0  0  0
  193.5830  174.2240  140.9880 C   0  0  0  0  0  3  0  0  0  0  0  0
  194.0590  176.1910  142.3170 C   0  0  0  0  0  3  0  0  0  0  0  0
  193.0810  173.5790  142.1210 C   0  0  0  0  0  3  0  0  0  0  0  0
  194.0720  175.5300  141.0860 C   0  0  0  0  0  3  0  0  0  0  0  0
  195.4730  172.9080  144.7850 O   0  0  0  0  0  0  0  0  0  0  0  0
  195.0980  170.7740  145.6520 N   0  0  0  0  0  2  0  0  0  0  0  0
  194.6500  171.9910  145.0510 C   0  0  0  0  0  0  0  0  0  0  0  0
  196.4990  170.5110  145.9500 C   0  0  0  0  0  2  0  0  0  0  0  0
  196.6130  169.4220  147.0000 C   0  0  0  0  0  1  0  0  0  0  0  0
  191.8710  175.8090  146.7820 N   0  0  0  0  0  1  0  0  0  0  0  0
  190.5220  175.4350  146.5190 C   0  0  0  0  0  0  0  0  0  0  0  0
  189.9240  174.6570  147.3080 O   0  0  0  0  0  0  0  0  0  0  0  0
  186.7000  177.9060  142.5470 C   0  0  0  0  0  2  0  0  0  0  0  0
  185.3540  178.4480  143.0140 C   0  0  0  0  0  2  0  0  0  0  0  0
  185.5260  179.5220  144.0790 C   0  0  0  0  0  2  0  0  0  0  0  0
  184.5220  177.8590  145.4480 O   0  0  0  0  0  0  0  0  0  0  0  0
  185.4250  179.2640  146.4460 O   0  0  0  0  0  0  0  0  0  0  0  0
  184.6640  179.2220  145.2980 C   0  0  0  0  0  3  0  0  0  0  0  0
  185.2530  177.9500  146.5540 O   0  0  0  0  0  0  0  0  0  0  0  0
  190.2060  175.0670  141.7140 O   0  0  0  0  0  0  0  0  0  0  0  0
  189.0960  174.6300  140.9380 C   0  0  0  0  0  2  0  0  0  0  0  0
  189.4410  173.3400  140.2170 C   0  0  0  0  0  2  0  0  0  0  0  0
  189.3250  172.2680  141.1000 O   0  0  0  0  0  0  0  0  0  0  0  0
  190.3950  171.4340  140.7760 C   0  0  0  0  0  1  0  0  0  0  0  0
  1  3  1  0  0  0  0
  2  8  2  0  0  0  0
  3 29  1  6  0  0  0
  3  7  1  0  0  0  0
  4  2  1  0  0  0  0
  4  1  2  0  0  0  0
  5  6  1  0  0  0  0
  5 27  1  1  0  0  0
  7  6  1  0  0  0  0
  8  9  1  0  0  0  0
  8  5  1  0  0  0  0
  9 11  1  0  0  0  0
 10 14  1  0  0  0  0
 11 10  2  0  0  0  0
 11 13  1  0  0  0  0
 12 23  1  0  0  0  0
 13 16  1  6  0  0  0
 13 12  1  0  0  0  0
 14 12  2  0  0  0  0
 16 15  1  0  0  0  0
 17 20  2  0  0  0  0
 17 19  1  0  0  0  0
 18 15  2  0  0  0  0
 19 16  2  0  0  0  0
 20 18  1  0  0  0  0
 21 23  2  0  0  0  0
 22 24  1  0  0  0  0
 23 22  1  0  0  0  0
 24 25  1  0  0  0  0
 27 26  1  0  0  0  0
 27 28  2  0  0  0  0
 29 30  1  0  0  0  0
 30 31  1  0  0  0  0
 31 34  1  0  0  0  0
 32 35  1  0  0  0  0
 33 35  1  0  0  0  0
 34 32  1  0  0  0  0
 34 33  1  0  0  0  0
 36  2  1  0  0  0  0
 37 36  1  0  0  0  0
 38 37  1  0  0  0  0
 38 39  1  0  0  0  0
 40 39  1  0  0  0  0
M  END
>  <MODEL>
3

>  <REMARK>
 VINA RESULT:      -5.9      2.696      7.737
  Name = 
  13 active torsions:
  status: ('A' for Active; 'I' for Inactive)
    1  A    between atoms: N_1  and  C_39
    2  A    between atoms: N_5  and  C_20
    3  A    between atoms: C_6  and  C_14
    4  A    between atoms: C_6  and  C_23
    5  A    between atoms: C_8  and  C_19
    6  A    between atoms: C_9  and  O_29
    7  A    between atoms: O_10  and  C_18
    8  A    between atoms: C_12  and  C_24
    9  A    between atoms: C_14  and  C_15
   10  A    between atoms: C_16  and  C_28
   11  A    between atoms: C_18  and  C_34
   12  A    between atoms: C_23  and  C_36
   13  A    between atoms: O_29  and  C_34
                            x       y       z     vdW  Elec       q    Type
                         _______ _______ _______ _____ _____    ______ ____

>  <TORSDO>
F 13

$$$$
=
 OpenBabel11072409283D

 40 43  0  0  1  0  0  0  0  0999 V2000
  194.6760  172.7500  145.3860 C   0  0  0  0  0  3  0  0  0  0  0  0
  192.9850  174.1190  144.1080 C   0  0  0  0  0  0  0  0  0  0  0  0
  195.8060  173.7470  145.5550 C   0  0  2  0  0  3  0  0  0  0  0  0
  193.5160  172.8820  144.7260 C   0  0  0  0  0  3  0  0  0  0  0  0
  193.0430  175.2020  146.3310 C   0  0  2  0  0  3  0  0  0  0  0  0
  194.4720  175.6800  146.5920 C   0  0  0  0  0  2  0  0  0  0  0  0
  195.4480  175.2310  145.5050 C   0  0  0  0  0  2  0  0  0  0  0  0
  192.6870  175.1920  144.8620 C   0  0  0  0  0  0  0  0  0  0  0  0
  192.2090  176.3850  144.2310 N   0  0  0  0  0  2  0  0  0  0  0  0
  190.4030  177.8130  143.6200 N   0  0  0  0  0  0  0  0  0  0  0  0
  190.8220  176.7270  144.1740 C   0  0  0  0  0  0  0  0  0  0  0  0
  188.5790  176.8470  144.3770 C   0  0  0  0  0  0  0  0  0  0  0  0
  189.6980  175.9230  144.7530 C   0  0  1  0  0  3  0  0  0  0  0  0
  189.0140  177.8870  143.7470 N   0  0  0  0  0  0  0  0  0  0  0  0
  189.6510  173.3820  144.8050 C   0  0  0  0  0  3  0  0  0  0  0  0
  189.5670  174.5840  144.0820 C   0  0  0  0  0  0  0  0  0  0  0  0
  189.1840  173.3170  142.0500 C   0  0  0  0  0  3  0  0  0  0  0  0
  189.5030  172.1560  144.1500 C   0  0  0  0  0  3  0  0  0  0  0  0
  189.3330  174.5430  142.7040 C   0  0  0  0  0  3  0  0  0  0  0  0
  189.2680  172.1240  142.7730 C   0  0  0  0  0  3  0  0  0  0  0  0
  186.3650  176.2530  143.8000 O   0  0  0  0  0  0  0  0  0  0  0  0
  186.6880  176.8800  146.0260 N   0  0  0  0  0  2  0  0  0  0  0  0
  187.1600  176.6420  144.6980 C   0  0  0  0  0  0  0  0  0  0  0  0
  185.2900  176.7290  146.4040 C   0  0  0  0  0  2  0  0  0  0  0  0
  184.6210  178.0880  146.4780 C   0  0  0  0  0  1  0  0  0  0  0  0
  190.9110  175.2520  147.7080 N   0  0  0  0  0  1  0  0  0  0  0  0
  192.0480  175.9280  147.1780 C   0  0  0  0  0  0  0  0  0  0  0  0
  192.2360  177.1420  147.4520 O   0  0  0  0  0  0  0  0  0  0  0  0
  196.8870  173.4800  144.5180 C   0  0  0  0  0  2  0  0  0  0  0  0
  197.4770  172.0820  144.6660 C   0  0  0  0  0  2  0  0  0  0  0  0
  197.7470  171.4460  143.3110 C   0  0  0  0  0  2  0  0  0  0  0  0
  196.8110  172.0890  141.2240 O   0  0  0  0  0  0  0  0  0  0  0  0
  196.3270  170.2900  141.7860 O   0  0  0  0  0  0  0  0  0  0  0  0
  196.5060  171.4950  142.4290 C   0  0  0  0  0  3  0  0  0  0  0  0
  196.6180  170.9080  140.6450 O   0  0  0  0  0  0  0  0  0  0  0  0
  192.7140  174.1580  142.7350 O   0  0  0  0  0  0  0  0  0  0  0  0
  193.7290  174.0830  141.7410 C   0  0  0  0  0  2  0  0  0  0  0  0
  194.3900  175.4380  141.5690 C   0  0  0  0  0  2  0  0  0  0  0  0
  195.7710  175.3050  141.7120 O   0  0  0  0  0  0  0  0  0  0  0  0
  196.2660  176.5940  141.5230 C   0  0  0  0  0  1  0  0  0  0  0  0
  1  3  1  0  0  0  0
  2  4  1  0  0  0  0
  2  8  2  0  0  0  0
  3 29  1  6  0  0  0
  4  1  2  0  0  0  0
  5  6  1  0  0  0  0
  5 27  1  1  0  0  0
  7  3  1  0  0  0  0
  7  6  1  0  0  0  0
  8  5  1  0  0  0  0
  9  8  1  0  0  0  0
 10 14  1  0  0  0  0
 10 11  2  0  0  0  0
 11  9  1  0  0  0  0
 11 13  1  0  0  0  0
 12 23  1  0  0  0  0
 12 13  1  0  0  0  0
 13 16  1  6  0  0  0
 14 12  2  0  0  0  0
 16 15  2  0  0  0  0
 17 19  2  0  0  0  0
 17 20  1  0  0  0  0
 18 15  1  0  0  0  0
 19 16  1  0  0  0  0
 20 18  2  0  0  0  0
 21 23  2  0  0  0  0
 22 24  1  0  0  0  0
 23 22  1  0  0  0  0
 24 25  1  0  0  0  0
 27 28  2  0  0  0  0
 27 26  1  0  0  0  0
 29 30  1  0  0  0  0
 31 30  1  0  0  0  0
 32 34  1  0  0  0  0
 33 34  1  0  0  0  0
 34 31  1  0  0  0  0
 35 32  1  0  0  0  0
 35 33  1  0  0  0  0
 36  2  1  0  0  0  0
 37 36  1  0  0  0  0
 38 39  1  0  0  0  0
 38 37  1  0  0  0  0
 40 39  1  0  0  0  0
M  END
>  <MODEL>
4

>  <REMARK>
 VINA RESULT:      -5.8      1.516      2.444
  Name = 
  13 active torsions:
  status: ('A' for Active; 'I' for Inactive)
    1  A    between atoms: N_1  and  C_39
    2  A    between atoms: N_5  and  C_20
    3  A    between atoms: C_6  and  C_14
    4  A    between atoms: C_6  and  C_23
    5  A    between atoms: C_8  and  C_19
    6  A    between atoms: C_9  and  O_29
    7  A    between atoms: O_10  and  C_18
    8  A    between atoms: C_12  and  C_24
    9  A    between atoms: C_14  and  C_15
   10  A    between atoms: C_16  and  C_28
   11  A    between atoms: C_18  and  C_34
   12  A    between atoms: C_23  and  C_36
   13  A    between atoms: O_29  and  C_34
                            x       y       z     vdW  Elec       q    Type
                         _______ _______ _______ _____ _____    ______ ____

>  <TORSDO>
F 13

$$$$
=
 OpenBabel11072409283D

 40 43  0  0  1  0  0  0  0  0999 V2000
  193.4940  172.7050  145.1540 C   0  0  0  0  0  3  0  0  0  0  0  0
  192.2790  174.2900  143.6130 C   0  0  0  0  0  0  0  0  0  0  0  0
  194.5340  173.6200  145.7700 C   0  0  2  0  0  3  0  0  0  0  0  0
  192.5860  172.9660  144.2030 C   0  0  0  0  0  3  0  0  0  0  0  0
  191.6830  175.1090  145.8690 C   0  0  2  0  0  3  0  0  0  0  0  0
  192.9750  175.4850  146.5970 C   0  0  0  0  0  2  0  0  0  0  0  0
  194.2250  175.1160  145.8000 C   0  0  0  0  0  2  0  0  0  0  0  0
  191.7820  175.2840  144.3710 C   0  0  0  0  0  0  0  0  0  0  0  0
  191.5280  176.5620  143.7790 N   0  0  0  0  0  2  0  0  0  0  0  0
  190.0050  178.1340  142.8400 N   0  0  0  0  0  0  0  0  0  0  0  0
  190.2260  176.9730  143.3550 C   0  0  0  0  0  0  0  0  0  0  0  0
  188.0270  177.1750  142.8960 C   0  0  0  0  0  0  0  0  0  0  0  0
  188.9710  176.1620  143.4700 C   0  0  1  0  0  3  0  0  0  0  0  0
  188.6430  178.2590  142.5560 N   0  0  0  0  0  0  0  0  0  0  0  0
  188.9180  173.6350  143.1970 C   0  0  0  0  0  3  0  0  0  0  0  0
  189.0340  174.9170  142.6310 C   0  0  0  0  0  0  0  0  0  0  0  0
  189.2300  173.9100  140.4320 C   0  0  0  0  0  3  0  0  0  0  0  0
  188.9590  172.5000  142.3820 C   0  0  0  0  0  3  0  0  0  0  0  0
  189.1900  175.0450  141.2470 C   0  0  0  0  0  3  0  0  0  0  0  0
  189.1140  172.6390  141.0000 C   0  0  0  0  0  3  0  0  0  0  0  0
  186.0330  175.9260  143.1240 O   0  0  0  0  0  0  0  0  0  0  0  0
  185.7850  178.0530  142.1950 N   0  0  0  0  0  2  0  0  0  0  0  0
  186.5760  177.0010  142.7520 C   0  0  0  0  0  0  0  0  0  0  0  0
  184.3480  177.9360  141.9930 C   0  0  0  0  0  2  0  0  0  0  0  0
  183.9890  178.3090  140.5680 C   0  0  0  0  0  1  0  0  0  0  0  0
  189.2710  175.0670  146.6580 N   0  0  0  0  0  1  0  0  0  0  0  0
  190.4890  175.7810  146.4680 C   0  0  0  0  0  0  0  0  0  0  0  0
  190.5740  176.9810  146.8370 O   0  0  0  0  0  0  0  0  0  0  0  0
  195.8720  173.4210  145.0730 C   0  0  0  0  0  2  0  0  0  0  0  0
  196.3060  174.6740  144.3210 C   0  0  0  0  0  2  0  0  0  0  0  0
  196.3110  174.4450  142.8160 C   0  0  0  0  0  2  0  0  0  0  0  0
  196.5350  175.8210  140.8910 O   0  0  0  0  0  0  0  0  0  0  0  0
  196.7670  176.7710  142.5730 O   0  0  0  0  0  0  0  0  0  0  0  0
  197.1170  175.5240  142.1040 C   0  0  0  0  0  3  0  0  0  0  0  0
  196.2270  177.0160  141.3840 O   0  0  0  0  0  0  0  0  0  0  0  0
  192.4300  174.4970  142.2360 O   0  0  0  0  0  0  0  0  0  0  0  0
  192.9030  173.4920  141.3470 C   0  0  0  0  0  2  0  0  0  0  0  0
  192.8790  174.0070  139.9200 C   0  0  0  0  0  2  0  0  0  0  0  0
  194.1710  173.9910  139.3970 O   0  0  0  0  0  0  0  0  0  0  0  0
  194.1560  174.9680  138.4030 C   0  0  0  0  0  1  0  0  0  0  0  0
  1  3  1  0  0  0  0
  2  4  1  0  0  0  0
  2  8  2  0  0  0  0
  3 29  1  6  0  0  0
  3  7  1  0  0  0  0
  4  1  2  0  0  0  0
  5 27  1  1  0  0  0
  5  6  1  0  0  0  0
  7  6  1  0  0  0  0
  8  5  1  0  0  0  0
  9  8  1  0  0  0  0
 10 11  2  0  0  0  0
 11 13  1  0  0  0  0
 11  9  1  0  0  0  0
 12 13  1  0  0  0  0
 13 16  1  6  0  0  0
 14 10  1  0  0  0  0
 14 12  2  0  0  0  0
 16 15  1  0  0  0  0
 17 20  2  0  0  0  0
 17 19  1  0  0  0  0
 18 15  2  0  0  0  0
 19 16  2  0  0  0  0
 20 18  1  0  0  0  0
 22 23  1  0  0  0  0
 23 12  1  0  0  0  0
 23 21  2  0  0  0  0
 24 22  1  0  0  0  0
 25 24  1  0  0  0  0
 27 26  1  0  0  0  0
 27 28  2  0  0  0  0
 30 29  1  0  0  0  0
 31 30  1  0  0  0  0
 32 35  1  0  0  0  0
 32 34  1  0  0  0  0
 34 33  1  0  0  0  0
 34 31  1  0  0  0  0
 35 33  1  0  0  0  0
 36  2  1  0  0  0  0
 37 36  1  0  0  0  0
 38 37  1  0  0  0  0
 39 38  1  0  0  0  0
 40 39  1  0  0  0  0
M  END
>  <MODEL>
5

>  <REMARK>
 VINA RESULT:      -5.7      1.781      2.150
  Name = 
  13 active torsions:
  status: ('A' for Active; 'I' for Inactive)
    1  A    between atoms: N_1  and  C_39
    2  A    between atoms: N_5  and  C_20
    3  A    between atoms: C_6  and  C_14
    4  A    between atoms: C_6  and  C_23
    5  A    between atoms: C_8  and  C_19
    6  A    between atoms: C_9  and  O_29
    7  A    between atoms: O_10  and  C_18
    8  A    between atoms: C_12  and  C_24
    9  A    between atoms: C_14  and  C_15
   10  A    between atoms: C_16  and  C_28
   11  A    between atoms: C_18  and  C_34
   12  A    between atoms: C_23  and  C_36
   13  A    between atoms: O_29  and  C_34
                            x       y       z     vdW  Elec       q    Type
                         _______ _______ _______ _____ _____    ______ ____

>  <TORSDO>
F 13

$$$$
=
 OpenBabel11072409283D

 40 43  0  0  1  0  0  0  0  0999 V2000
  193.4950  173.0250  145.4730 C   0  0  0  0  0  3  0  0  0  0  0  0
  192.2860  174.4820  143.8050 C   0  0  0  0  0  0  0  0  0  0  0  0
  194.4940  174.0020  146.0590 C   0  0  2  0  0  3  0  0  0  0  0  0
  192.6080  173.2050  144.4840 C   0  0  0  0  0  3  0  0  0  0  0  0
  191.6070  175.4200  145.9900 C   0  0  2  0  0  3  0  0  0  0  0  0
  192.8680  175.8730  146.7280 C   0  0  0  0  0  2  0  0  0  0  0  0
  194.1490  175.4890  145.9900 C   0  0  0  0  0  2  0  0  0  0  0  0
  191.7440  175.5060  144.4870 C   0  0  0  0  0  0  0  0  0  0  0  0
  191.4760  176.7400  143.8120 N   0  0  0  0  0  2  0  0  0  0  0  0
  189.9340  178.2330  142.7790 N   0  0  0  0  0  0  0  0  0  0  0  0
  190.1680  177.1110  143.3690 C   0  0  0  0  0  0  0  0  0  0  0  0
  187.9650  177.2640  142.9120 C   0  0  0  0  0  0  0  0  0  0  0  0
  188.9210  176.3000  143.5470 C   0  0  1  0  0  3  0  0  0  0  0  0
  188.5700  178.3270  142.4950 N   0  0  0  0  0  0  0  0  0  0  0  0
  188.8770  173.7600  143.4450 C   0  0  0  0  0  3  0  0  0  0  0  0
  188.9890  175.0010  142.7940 C   0  0  0  0  0  0  0  0  0  0  0  0
  189.1910  173.8490  140.6680 C   0  0  0  0  0  3  0  0  0  0  0  0
  188.9230  172.5730  142.7080 C   0  0  0  0  0  3  0  0  0  0  0  0
  189.1460  175.0360  141.4040 C   0  0  0  0  0  3  0  0  0  0  0  0
  189.0790  172.6180  141.3200 C   0  0  0  0  0  3  0  0  0  0  0  0
  186.0060  175.9510  143.0690 O   0  0  0  0  0  0  0  0  0  0  0  0
  185.6850  178.1510  142.3570 N   0  0  0  0  0  2  0  0  0  0  0  0
  186.5150  177.0700  142.7890 C   0  0  0  0  0  0  0  0  0  0  0  0
  184.2460  178.0180  142.1820 C   0  0  0  0  0  2  0  0  0  0  0  0
  183.8690  178.2950  140.7390 C   0  0  0  0  0  1  0  0  0  0  0  0
  189.1760  175.3620  146.7210 N   0  0  0  0  0  1  0  0  0  0  0  0
  190.3800  176.0960  146.5150 C   0  0  0  0  0  0  0  0  0  0  0  0
  190.4230  177.3190  146.8070 O   0  0  0  0  0  0  0  0  0  0  0  0
  195.8560  173.7960  145.4120 C   0  0  0  0  0  2  0  0  0  0  0  0
  196.0470  172.3570  144.9490 C   0  0  0  0  0  2  0  0  0  0  0  0
  196.8940  171.5630  145.9340 C   0  0  0  0  0  2  0  0  0  0  0  0
  196.7310  169.5210  147.1390 O   0  0  0  0  0  0  0  0  0  0  0  0
  195.1690  169.9240  146.0520 O   0  0  0  0  0  0  0  0  0  0  0  0
  196.5280  170.0850  145.8980 C   0  0  0  0  0  3  0  0  0  0  0  0
  195.4140  169.3770  147.2380 O   0  0  0  0  0  0  0  0  0  0  0  0
  192.4710  174.6090  142.4230 O   0  0  0  0  0  0  0  0  0  0  0  0
  193.7460  174.5110  141.7990 C   0  0  0  0  0  2  0  0  0  0  0  0
  194.6830  175.5650  142.3600 C   0  0  0  0  0  2  0  0  0  0  0  0
  195.7230  175.7920  141.4610 O   0  0  0  0  0  0  0  0  0  0  0  0
  196.8480  175.2630  142.0890 C   0  0  0  0  0  1  0  0  0  0  0  0
  1  3  1  0  0  0  0
  2  4  1  0  0  0  0
  2  8  2  0  0  0  0
  3 29  1  6  0  0  0
  4  1  2  0  0  0  0
  5 27  1  1  0  0  0
  5  6  1  0  0  0  0
  7  3  1  0  0  0  0
  7  6  1  0  0  0  0
  8  5  1  0  0  0  0
  9  8  1  0  0  0  0
 10 11  2  0  0  0  0
 11 13  1  0  0  0  0
 11  9  1  0  0  0  0
 12 13  1  0  0  0  0
 13 16  1  6  0  0  0
 14 10  1  0  0  0  0
 14 12  2  0  0  0  0
 16 15  1  0  0  0  0
 17 20  2  0  0  0  0
 17 19  1  0  0  0  0
 18 15  2  0  0  0  0
 19 16  2  0  0  0  0
 20 18  1  0  0  0  0
 22 23  1  0  0  0  0
 23 12  1  0  0  0  0
 23 21  2  0  0  0  0
 24 22  1  0  0  0  0
 25 24  1  0  0  0  0
 27 26  1  0  0  0  0
 27 28  2  0  0  0  0
 30 29  1  0  0  0  0
 30 31  1  0  0  0  0
 32 35  1  0  0  0  0
 33 35  1  0  0  0  0
 34 31  1  0  0  0  0
 34 33  1  0  0  0  0
 34 32  1  0  0  0  0
 36  2  1  0  0  0  0
 37 38  1  0  0  0  0
 37 36  1  0  0  0  0
 39 40  1  0  0  0  0
 39 38  1  0  0  0  0
M  END
>  <MODEL>
6

>  <REMARK>
 VINA RESULT:      -5.6      2.601      3.724
  Name = 
  13 active torsions:
  status: ('A' for Active; 'I' for Inactive)
    1  A    between atoms: N_1  and  C_39
    2  A    between atoms: N_5  and  C_20
    3  A    between atoms: C_6  and  C_14
    4  A    between atoms: C_6  and  C_23
    5  A    between atoms: C_8  and  C_19
    6  A    between atoms: C_9  and  O_29
    7  A    between atoms: O_10  and  C_18
    8  A    between atoms: C_12  and  C_24
    9  A    between atoms: C_14  and  C_15
   10  A    between atoms: C_16  and  C_28
   11  A    between atoms: C_18  and  C_34
   12  A    between atoms: C_23  and  C_36
   13  A    between atoms: O_29  and  C_34
                            x       y       z     vdW  Elec       q    Type
                         _______ _______ _______ _____ _____    ______ ____

>  <TORSDO>
F 13

$$$$
=
 OpenBabel11072409283D

 40 43  0  0  1  0  0  0  0  0999 V2000
  191.3760  175.3160  146.8380 C   0  0  0  0  0  3  0  0  0  0  0  0
  192.0770  175.5060  144.4220 C   0  0  0  0  0  0  0  0  0  0  0  0
  189.8740  175.1600  146.7050 C   0  0  2  0  0  3  0  0  0  0  0  0
  192.2980  175.5230  145.8870 C   0  0  0  0  0  3  0  0  0  0  0  0
  191.2910  173.1690  144.6130 C   0  0  2  0  0  3  0  0  0  0  0  0
  189.8270  173.1920  145.0570 C   0  0  0  0  0  2  0  0  0  0  0  0
  189.3380  174.6010  145.3880 C   0  0  0  0  0  2  0  0  0  0  0  0
  191.6760  174.3830  143.7990 C   0  0  0  0  0  0  0  0  0  0  0  0
  191.4370  174.4070  142.3880 N   0  0  0  0  0  2  0  0  0  0  0  0
  192.1670  173.9590  140.1650 N   0  0  0  0  0  0  0  0  0  0  0  0
  192.3990  173.9510  141.4340 C   0  0  0  0  0  0  0  0  0  0  0  0
  194.1810  173.0960  140.3470 C   0  0  0  0  0  0  0  0  0  0  0  0
  193.7510  173.3890  141.7530 C   0  0  1  0  0  3  0  0  0  0  0  0
  193.2710  173.4290  139.4930 N   0  0  0  0  0  0  0  0  0  0  0  0
  195.2200  174.1880  143.6680 C   0  0  0  0  0  3  0  0  0  0  0  0
  194.6380  174.4100  142.4080 C   0  0  0  0  0  0  0  0  0  0  0  0
  195.7440  176.5660  142.2960 C   0  0  0  0  0  3  0  0  0  0  0  0
  196.0570  175.1520  144.2360 C   0  0  0  0  0  3  0  0  0  0  0  0
  194.9060  175.6040  141.7280 C   0  0  0  0  0  3  0  0  0  0  0  0
  196.3200  176.3400  143.5490 C   0  0  0  0  0  3  0  0  0  0  0  0
  195.7500  171.3280  140.3790 O   0  0  0  0  0  0  0  0  0  0  0  0
  196.3550  173.1840  139.0980 N   0  0  0  0  0  2  0  0  0  0  0  0
  195.4560  172.4790  139.9570 C   0  0  0  0  0  0  0  0  0  0  0  0
  197.6480  172.6470  138.7000 C   0  0  0  0  0  2  0  0  0  0  0  0
  197.5710  172.0950  137.2890 C   0  0  0  0  0  1  0  0  0  0  0  0
  192.8940  171.2360  144.2440 N   0  0  0  0  0  1  0  0  0  0  0  0
  191.6540  171.8750  143.9570 C   0  0  0  0  0  0  0  0  0  0  0  0
  190.8400  171.3300  143.1670 O   0  0  0  0  0  0  0  0  0  0  0  0
  189.1930  176.4940  146.9720 C   0  0  0  0  0  2  0  0  0  0  0  0
  187.7680  176.5170  146.4310 C   0  0  0  0  0  2  0  0  0  0  0  0
  187.0200  177.7630  146.8850 C   0  0  0  0  0  2  0  0  0  0  0  0
  184.8160  178.5650  147.2660 O   0  0  0  0  0  0  0  0  0  0  0  0
  184.8930  176.9420  146.1950 O   0  0  0  0  0  0  0  0  0  0  0  0
  185.5890  177.4240  147.2820 C   0  0  0  0  0  3  0  0  0  0  0  0
  184.1660  178.0540  146.2250 O   0  0  0  0  0  0  0  0  0  0  0  0
  192.3600  176.6430  143.6560 O   0  0  0  0  0  0  0  0  0  0  0  0
  191.7460  177.9060  143.8840 C   0  0  0  0  0  2  0  0  0  0  0  0
  190.2410  177.7880  143.7280 C   0  0  0  0  0  2  0  0  0  0  0  0
  189.9270  177.5680  142.3880 O   0  0  0  0  0  0  0  0  0  0  0  0
  188.7190  176.8730  142.4230 C   0  0  0  0  0  1  0  0  0  0  0  0
  2  4  1  0  0  0  0
  3  1  1  0  0  0  0
  3 29  1  6  0  0  0
  4  1  2  0  0  0  0
  5 27  1  6  0  0  0
  5  6  1  0  0  0  0
  6  7  1  0  0  0  0
  7  3  1  0  0  0  0
  8  2  2  0  0  0  0
  8  5  1  0  0  0  0
  9  8  1  0  0  0  0
 10 11  2  0  0  0  0
 11 13  1  0  0  0  0
 11  9  1  0  0  0  0
 12 13  1  0  0  0  0
 13 16  1  6  0  0  0
 14 10  1  0  0  0  0
 14 12  2  0  0  0  0
 15 18  1  0  0  0  0
 16 15  2  0  0  0  0
 17 20  1  0  0  0  0
 19 17  2  0  0  0  0
 19 16  1  0  0  0  0
 20 18  2  0  0  0  0
 22 23  1  0  0  0  0
 23 12  1  0  0  0  0
 23 21  2  0  0  0  0
 24 22  1  0  0  0  0
 25 24  1  0  0  0  0
 27 26  1  0  0  0  0
 28 27  2  0  0  0  0
 30 31  1  0  0  0  0
 30 29  1  0  0  0  0
 31 34  1  0  0  0  0
 32 34  1  0  0  0  0
 33 35  1  0  0  0  0
 33 34  1  0  0  0  0
 35 32  1  0  0  0  0
 36 37  1  0  0  0  0
 36  2  1  0  0  0  0
 38 37  1  0  0  0  0
 39 40  1  0  0  0  0
 39 38  1  0  0  0  0
M  END
>  <MODEL>
7

>  <REMARK>
 VINA RESULT:      -5.5      2.997      8.246
  Name = 
  13 active torsions:
  status: ('A' for Active; 'I' for Inactive)
    1  A    between atoms: N_1  and  C_39
    2  A    between atoms: N_5  and  C_20
    3  A    between atoms: C_6  and  C_14
    4  A    between atoms: C_6  and  C_23
    5  A    between atoms: C_8  and  C_19
    6  A    between atoms: C_9  and  O_29
    7  A    between atoms: O_10  and  C_18
    8  A    between atoms: C_12  and  C_24
    9  A    between atoms: C_14  and  C_15
   10  A    between atoms: C_16  and  C_28
   11  A    between atoms: C_18  and  C_34
   12  A    between atoms: C_23  and  C_36
   13  A    between atoms: O_29  and  C_34
                            x       y       z     vdW  Elec       q    Type
                         _______ _______ _______ _____ _____    ______ ____

>  <TORSDO>
F 13

$$$$
=
 OpenBabel11072409283D

 40 43  0  0  1  0  0  0  0  0999 V2000
  189.2980  174.7790  146.0950 C   0  0  0  0  0  3  0  0  0  0  0  0
  191.3830  174.8900  144.6790 C   0  0  0  0  0  0  0  0  0  0  0  0
  188.5260  175.9820  145.5900 C   0  0  2  0  0  3  0  0  0  0  0  0
  190.5230  174.3520  145.7590 C   0  0  0  0  0  3  0  0  0  0  0  0
  189.6080  174.3320  143.0500 C   0  0  2  0  0  3  0  0  0  0  0  0
  188.5640  175.4500  143.0790 C   0  0  0  0  0  2  0  0  0  0  0  0
  188.8350  176.4760  144.1780 C   0  0  0  0  0  2  0  0  0  0  0  0
  190.9980  174.8180  143.3920 C   0  0  0  0  0  0  0  0  0  0  0  0
  191.8340  175.3780  142.3740 N   0  0  0  0  0  2  0  0  0  0  0  0
  193.4550  175.0970  140.6520 N   0  0  0  0  0  0  0  0  0  0  0  0
  192.7200  174.5860  141.5790 C   0  0  0  0  0  0  0  0  0  0  0  0
  193.8990  172.9450  140.5770 C   0  0  0  0  0  0  0  0  0  0  0  0
  192.8950  173.1010  141.6800 C   0  0  1  0  0  3  0  0  0  0  0  0
  194.1850  174.0810  140.0310 N   0  0  0  0  0  0  0  0  0  0  0  0
  192.8720  171.6820  143.7880 C   0  0  0  0  0  3  0  0  0  0  0  0
  193.4600  172.6960  143.0120 C   0  0  0  0  0  0  0  0  0  0  0  0
  195.1810  172.9680  144.6990 C   0  0  0  0  0  3  0  0  0  0  0  0
  193.4380  171.3170  145.0130 C   0  0  0  0  0  3  0  0  0  0  0  0
  194.6150  173.3340  143.4750 C   0  0  0  0  0  3  0  0  0  0  0  0
  194.5940  171.9590  145.4670 C   0  0  0  0  0  3  0  0  0  0  0  0
  195.7260  171.4940  140.1980 O   0  0  0  0  0  0  0  0  0  0  0  0
  193.6310  170.6430  139.6170 N   0  0  0  0  0  2  0  0  0  0  0  0
  194.4800  171.6740  140.1280 C   0  0  0  0  0  0  0  0  0  0  0  0
  194.1430  169.3730  139.1230 C   0  0  0  0  0  2  0  0  0  0  0  0
  193.8710  168.2740  140.1330 C   0  0  0  0  0  1  0  0  0  0  0  0
  189.6850  172.1300  141.7900 N   0  0  0  0  0  1  0  0  0  0  0  0
  189.5500  173.5480  141.7770 C   0  0  0  0  0  0  0  0  0  0  0  0
  189.3480  174.1460  140.6890 O   0  0  0  0  0  0  0  0  0  0  0  0
  188.7020  177.1470  146.5540 C   0  0  0  0  0  2  0  0  0  0  0  0
  187.3660  177.6170  147.1190 C   0  0  0  0  0  2  0  0  0  0  0  0
  186.2020  176.8540  146.5030 C   0  0  0  0  0  2  0  0  0  0  0  0
  185.9150  178.9890  145.5000 O   0  0  0  0  0  0  0  0  0  0  0  0
  185.2890  177.5090  144.4020 O   0  0  0  0  0  0  0  0  0  0  0  0
  185.2720  177.7960  145.7500 C   0  0  0  0  0  3  0  0  0  0  0  0
  185.8990  178.6740  144.2090 O   0  0  0  0  0  0  0  0  0  0  0  0
  192.6470  175.4110  144.9810 O   0  0  0  0  0  0  0  0  0  0  0  0
  192.8610  176.3930  145.9890 C   0  0  0  0  0  2  0  0  0  0  0  0
  194.3380  176.4740  146.3290 C   0  0  0  0  0  2  0  0  0  0  0  0
  194.9360  177.4790  145.5700 O   0  0  0  0  0  0  0  0  0  0  0  0
  195.6450  176.7950  144.5840 C   0  0  0  0  0  1  0  0  0  0  0  0
  2 36  1  0  0  0  0
  2  4  1  0  0  0  0
  3  1  1  0  0  0  0
  3 29  1  1  0  0  0
  4  1  2  0  0  0  0
  5 27  1  6  0  0  0
  5  6  1  0  0  0  0
  5  8  1  0  0  0  0
  6  7  1  0  0  0  0
  7  3  1  0  0  0  0
  8  2  2  0  0  0  0
  9  8  1  0  0  0  0
 10 11  2  0  0  0  0
 11 13  1  0  0  0  0
 11  9  1  0  0  0  0
 12 13  1  0  0  0  0
 13 16  1  1  0  0  0
 14 12  2  0  0  0  0
 14 10  1  0  0  0  0
 15 18  1  0  0  0  0
 16 19  1  0  0  0  0
 16 15  2  0  0  0  0
 17 20  1  0  0  0  0
 18 20  2  0  0  0  0
 19 17  2  0  0  0  0
 22 23  1  0  0  0  0
 23 21  2  0  0  0  0
 23 12  1  0  0  0  0
 24 22  1  0  0  0  0
 24 25  1  0  0  0  0
 27 26  1  0  0  0  0
 28 27  2  0  0  0  0
 29 30  1  0  0  0  0
 31 30  1  0  0  0  0
 32 34  1  0  0  0  0
 33 34  1  0  0  0  0
 34 31  1  0  0  0  0
 35 33  1  0  0  0  0
 35 32  1  0  0  0  0
 36 37  1  0  0  0  0
 37 38  1  0  0  0  0
 39 38  1  0  0  0  0
 40 39  1  0  0  0  0
M  END
>  <MODEL>
8

>  <REMARK>
 VINA RESULT:      -5.3      2.714      7.957
  Name = 
  13 active torsions:
  status: ('A' for Active; 'I' for Inactive)
    1  A    between atoms: N_1  and  C_39
    2  A    between atoms: N_5  and  C_20
    3  A    between atoms: C_6  and  C_14
    4  A    between atoms: C_6  and  C_23
    5  A    between atoms: C_8  and  C_19
    6  A    between atoms: C_9  and  O_29
    7  A    between atoms: O_10  and  C_18
    8  A    between atoms: C_12  and  C_24
    9  A    between atoms: C_14  and  C_15
   10  A    between atoms: C_16  and  C_28
   11  A    between atoms: C_18  and  C_34
   12  A    between atoms: C_23  and  C_36
   13  A    between atoms: O_29  and  C_34
                            x       y       z     vdW  Elec       q    Type
                         _______ _______ _______ _____ _____    ______ ____

>  <TORSDO>
F 13

$$$$
=
 OpenBabel11072409283D

 40 43  0  0  1  0  0  0  0  0999 V2000
  190.1330  178.3010  143.8350 C   0  0  0  0  0  3  0  0  0  0  0  0
  190.8960  175.9530  143.3160 C   0  0  0  0  0  0  0  0  0  0  0  0
  188.9380  178.0400  144.7310 C   0  0  2  0  0  3  0  0  0  0  0  0
  190.9200  177.4290  143.1900 C   0  0  0  0  0  3  0  0  0  0  0  0
  191.3790  176.1970  145.7290 C   0  0  2  0  0  3  0  0  0  0  0  0
  190.0650  176.5030  146.4510 C   0  0  0  0  0  2  0  0  0  0  0  0
  188.9010  176.7110  145.4840 C   0  0  0  0  0  2  0  0  0  0  0  0
  191.1850  175.3580  144.4870 C   0  0  0  0  0  0  0  0  0  0  0  0
  191.1190  173.9310  144.5870 N   0  0  0  0  0  2  0  0  0  0  0  0
  192.2100  171.8150  144.6270 N   0  0  0  0  0  0  0  0  0  0  0  0
  192.2770  173.0980  144.5170 C   0  0  0  0  0  0  0  0  0  0  0  0
  194.3560  172.2300  144.3920 C   0  0  0  0  0  0  0  0  0  0  0  0
  193.6880  173.5710  144.3430 C   0  0  1  0  0  3  0  0  0  0  0  0
  193.4970  171.2780  144.5500 N   0  0  0  0  0  0  0  0  0  0  0  0
  194.4800  175.5200  142.9150 C   0  0  0  0  0  3  0  0  0  0  0  0
  193.8890  174.2480  143.0160 C   0  0  0  0  0  0  0  0  0  0  0  0
  193.6870  174.1660  140.6000 C   0  0  0  0  0  3  0  0  0  0  0  0
  194.6700  176.1080  141.6610 C   0  0  0  0  0  3  0  0  0  0  0  0
  193.4950  173.5780  141.8530 C   0  0  0  0  0  3  0  0  0  0  0  0
  194.2750  175.4310  140.5040 C   0  0  0  0  0  3  0  0  0  0  0  0
  196.6070  172.9220  144.5960 O   0  0  0  0  0  0  0  0  0  0  0  0
  196.2940  170.7160  143.9000 N   0  0  0  0  0  2  0  0  0  0  0  0
  195.8030  171.9950  144.3070 C   0  0  0  0  0  0  0  0  0  0  0  0
  197.7140  170.4250  143.7620 C   0  0  0  0  0  2  0  0  0  0  0  0
  197.9230  168.9370  143.5510 C   0  0  0  0  0  1  0  0  0  0  0  0
  193.7800  176.0280  146.5350 N   0  0  0  0  0  1  0  0  0  0  0  0
  192.4120  175.6490  146.6610 C   0  0  0  0  0  0  0  0  0  0  0  0
  192.0630  174.8690  147.5840 O   0  0  0  0  0  0  0  0  0  0  0  0
  187.6530  178.1690  143.9250 C   0  0  0  0  0  2  0  0  0  0  0  0
  186.9300  176.8340  143.8010 C   0  0  0  0  0  2  0  0  0  0  0  0
  186.0690  176.7820  142.5470 C   0  0  0  0  0  2  0  0  0  0  0  0
  187.0150  177.1720  140.4020 O   0  0  0  0  0  0  0  0  0  0  0  0
  185.4650  178.2800  140.7950 O   0  0  0  0  0  0  0  0  0  0  0  0
  186.5350  177.8110  141.5250 C   0  0  0  0  0  3  0  0  0  0  0  0
  185.9710  177.6550  139.7370 O   0  0  0  0  0  0  0  0  0  0  0  0
  190.6470  175.1560  142.1930 O   0  0  0  0  0  0  0  0  0  0  0  0
  189.3430  174.9440  141.6640 C   0  0  0  0  0  2  0  0  0  0  0  0
  189.3620  173.7880  140.6820 C   0  0  0  0  0  2  0  0  0  0  0  0
  188.2400  172.9860  140.8840 O   0  0  0  0  0  0  0  0  0  0  0  0
  188.2630  172.6920  142.2460 C   0  0  0  0  0  1  0  0  0  0  0  0
  1  3  1  0  0  0  0
  2  8  2  0  0  0  0
  3 29  1  6  0  0  0
  3  7  1  0  0  0  0
  4  2  1  0  0  0  0
  4  1  2  0  0  0  0
  5  6  1  0  0  0  0
  5 27  1  1  0  0  0
  7  6  1  0  0  0  0
  8  9  1  0  0  0  0
  8  5  1  0  0  0  0
 11  9  1  0  0  0  0
 11 10  2  0  0  0  0
 12 14  2  0  0  0  0
 13 16  1  6  0  0  0
 13 12  1  0  0  0  0
 13 11  1  0  0  0  0
 14 10  1  0  0  0  0
 15 16  1  0  0  0  0
 17 19  1  0  0  0  0
 18 15  2  0  0  0  0
 19 16  2  0  0  0  0
 20 17  2  0  0  0  0
 20 18  1  0  0  0  0
 22 23  1  0  0  0  0
 23 12  1  0  0  0  0
 23 21  2  0  0  0  0
 24 22  1  0  0  0  0
 25 24  1  0  0  0  0
 26 27  1  0  0  0  0
 27 28  2  0  0  0  0
 30 29  1  0  0  0  0
 31 30  1  0  0  0  0
 32 34  1  0  0  0  0
 33 34  1  0  0  0  0
 34 31  1  0  0  0  0
 35 32  1  0  0  0  0
 35 33  1  0  0  0  0
 36  2  1  0  0  0  0
 37 36  1  0  0  0  0
 38 39  1  0  0  0  0
 38 37  1  0  0  0  0
 39 40  1  0  0  0  0
M  END
>  <MODEL>
9

>  <REMARK>
 VINA RESULT:      -5.3      2.792      7.472
  Name = 
  13 active torsions:
  status: ('A' for Active; 'I' for Inactive)
    1  A    between atoms: N_1  and  C_39
    2  A    between atoms: N_5  and  C_20
    3  A    between atoms: C_6  and  C_14
    4  A    between atoms: C_6  and  C_23
    5  A    between atoms: C_8  and  C_19
    6  A    between atoms: C_9  and  O_29
    7  A    between atoms: O_10  and  C_18
    8  A    between atoms: C_12  and  C_24
    9  A    between atoms: C_14  and  C_15
   10  A    between atoms: C_16  and  C_28
   11  A    between atoms: C_18  and  C_34
   12  A    between atoms: C_23  and  C_36
   13  A    between atoms: O_29  and  C_34
                            x       y       z     vdW  Elec       q    Type
                         _______ _______ _______ _____ _____    ______ ____

>  <TORSDO>
F 13

$$$$
