=
 OpenBabel11062418503D

 37 42  0  0  1  0  0  0  0  0999 V2000
  193.9760  176.0070  144.6580 C   0  0  0  0  0  0  0  0  0  0  0  0
  194.4340  176.7860  145.6740 N   0  0  0  0  0  0  0  0  0  0  0  0
  193.7560  176.9110  146.8440 C   0  0  0  0  0  3  0  0  0  0  0  0
  192.7870  175.2650  144.8140 C   0  0  0  0  0  0  0  0  0  0  0  0
  194.7030  175.9680  143.4340 N   0  0  0  0  0  1  0  0  0  0  0  0
  192.0410  175.4430  145.9980 C   0  0  0  0  0  0  0  0  0  0  0  0
  192.5430  176.2510  147.0190 C   0  0  0  0  0  3  0  0  0  0  0  0
  192.2080  174.1970  143.4670 S   0  0  0  0  0  0  0  0  0  0  0  0
  188.4950  175.8500  142.4150 C   0  0  0  0  0  2  0  0  0  0  0  0
  191.2040  176.6700  142.9310 C   0  0  0  0  0  3  0  0  0  0  0  0
  189.1650  171.9080  144.0480 O   0  0  0  0  0  0  0  0  0  0  0  0
  190.8020  173.4350  140.4720 C   0  0  0  0  0  2  0  0  0  0  0  0
  189.5930  172.2300  142.9100 C   0  0  0  0  0  0  0  0  0  0  0  0
  190.1710  177.6650  142.5730 C   0  0  0  0  0  3  0  0  0  0  0  0
  188.9200  177.2890  142.2950 C   0  0  0  0  0  3  0  0  0  0  0  0
  191.0240  175.3570  142.7310 C   0  0  0  0  0  0  0  0  0  0  0  0
  189.3210  173.4900  142.3390 N   0  0  0  0  0  0  0  0  0  0  0  0
  189.5560  174.1450  141.0190 C   0  0  1  0  0  3  0  0  0  0  0  0
  190.4690  171.3280  142.0930 C   0  0  0  0  0  2  0  0  0  0  0  0
  190.9800  171.1720  139.7850 O   0  0  0  0  0  0  0  0  0  0  0  0
  189.6810  174.9250  142.1500 C   0  0  1  0  0  0  0  0  0  0  0  0
  190.7410  171.9250  140.7130 C   0  0  0  0  0  0  0  0  0  0  0  0
  190.4040  174.7480  146.2180 S   0  0  0  0  0  0  0  0  0  0  0  0
  189.5830  176.3710  146.1640 C   0  0  0  0  0  2  0  0  0  0  0  0
  188.1770  176.2050  145.8350 N   0  0  0  0  0  2  0  0  0  0  0  0
  186.4040  176.9420  147.3110 C   0  0  0  0  0  1  0  0  0  0  0  0
  187.4780  177.3770  146.3340 C   0  0  2  0  0  3  0  0  0  0  0  0
  186.8460  178.1260  145.1740 C   0  0  0  0  0  2  0  0  0  0  0  0
  185.5290  178.4650  145.4900 O   0  0  0  0  0  0  0  0  0  0  0  0
  185.0960  178.5610  142.1670 C   0  0  2  0  0  0  0  0  0  0  0  0
  183.7900  178.9500  144.0500 O   0  0  0  0  0  0  0  0  0  0  0  0
  182.7040  178.1650  142.1450 O   0  0  0  0  0  0  0  0  0  0  0  0
  185.4560  178.2450  140.7700 C   0  0  0  0  0  2  0  0  0  0  0  0
  183.7540  178.5220  142.7420 C   0  0  0  0  0  0  0  0  0  0  0  0
  186.0320  179.0940  143.2260 C   0  0  0  0  0  2  0  0  0  0  0  0
  185.4970  177.2690  141.7840 O   0  0  0  0  0  0  0  0  0  0  0  0
  185.1150  179.3020  144.4530 C   0  0  2  0  0  3  0  0  0  0  0  0
  1  4  2  0  0  0  0
  1  2  1  0  0  0  0
  2  3  2  0  0  0  0
  3  7  1  0  0  0  0
  4  6  1  0  0  0  0
  5  1  1  0  0  0  0
  6 23  1  0  0  0  0
  6  7  2  0  0  0  0
  8  4  1  0  0  0  0
 12 22  1  0  0  0  0
 13 11  2  0  0  0  0
 14 10  1  0  0  0  0
 15  9  1  0  0  0  0
 15 14  2  0  0  0  0
 16 10  2  0  0  0  0
 16  8  1  0  0  0  0
 17 13  1  0  0  0  0
 18 12  1  1  0  0  0
 18 21  1  0  0  0  0
 18 17  1  0  0  0  0
 19 13  1  0  0  0  0
 20 22  2  0  0  0  0
 21 17  1  0  0  0  0
 21  9  1  1  0  0  0
 21 16  1  0  0  0  0
 22 19  1  0  0  0  0
 24 23  1  0  0  0  0
 25 24  1  0  0  0  0
 25 27  1  0  0  0  0
 27 26  1  1  0  0  0
 28 29  1  0  0  0  0
 28 27  1  0  0  0  0
 30 33  1  6  0  0  0
 30 34  1  0  0  0  0
 30 35  1  0  0  0  0
 31 37  1  0  0  0  0
 32 34  2  0  0  0  0
 33 36  1  0  0  0  0
 34 31  1  0  0  0  0
 35 37  1  0  0  0  0
 36 30  1  0  0  0  0
 37 29  1  1  0  0  0
M  END
>  <MODEL>
1

>  <REMARK>
 VINA RESULT:      -7.5      0.000      0.000
  Name = 
  9 active torsions:
  status: ('A' for Active; 'I' for Inactive)
    1  A    between atoms: N_10  and  C_28
    2  A    between atoms: N_10  and  C_30
    3  A    between atoms: C_15  and  O_16
    4  A    between atoms: C_15  and  C_30
    5  A    between atoms: O_16  and  C_34
    6  A    between atoms: C_18  and  S_20
    7  A    between atoms: S_20  and  C_26
    8  A    between atoms: S_22  and  C_28
    9  A    between atoms: S_22  and  C_29
                            x       y       z     vdW  Elec       q    Type
                         _______ _______ _______ _____ _____    ______ ____

>  <TORSDO>
F 9

$$$$
=
 OpenBabel11062418503D

 37 42  0  0  1  0  0  0  0  0999 V2000
  190.4800  173.2450  142.2040 C   0  0  0  0  0  0  0  0  0  0  0  0
  189.5050  172.6370  141.4780 N   0  0  0  0  0  0  0  0  0  0  0  0
  188.4350  173.3210  140.9980 C   0  0  0  0  0  3  0  0  0  0  0  0
  190.4240  174.6330  142.4450 C   0  0  0  0  0  0  0  0  0  0  0  0
  191.5450  172.4570  142.7300 N   0  0  0  0  0  1  0  0  0  0  0  0
  189.2820  175.3390  142.0120 C   0  0  0  0  0  0  0  0  0  0  0  0
  188.3010  174.6800  141.2680 C   0  0  0  0  0  3  0  0  0  0  0  0
  191.7530  175.4400  143.3800 S   0  0  0  0  0  0  0  0  0  0  0  0
  191.4160  175.5560  147.5630 C   0  0  0  0  0  2  0  0  0  0  0  0
  189.8840  174.7920  145.2500 C   0  0  0  0  0  3  0  0  0  0  0  0
  194.3490  177.6440  145.1790 O   0  0  0  0  0  0  0  0  0  0  0  0
  193.7470  173.4700  145.2950 C   0  0  0  0  0  2  0  0  0  0  0  0
  194.3300  176.3880  145.2450 C   0  0  0  0  0  0  0  0  0  0  0  0
  189.3200  174.6450  146.6090 C   0  0  0  0  0  3  0  0  0  0  0  0
  190.0390  174.9620  147.6900 C   0  0  0  0  0  3  0  0  0  0  0  0
  191.1950  174.9760  145.0420 C   0  0  0  0  0  0  0  0  0  0  0  0
  193.4200  175.6990  146.0740 N   0  0  0  0  0  0  0  0  0  0  0  0
  193.1980  174.2800  146.4780 C   0  0  1  0  0  3  0  0  0  0  0  0
  195.2260  175.5220  144.4130 C   0  0  0  0  0  2  0  0  0  0  0  0
  196.0090  173.2940  144.6030 O   0  0  0  0  0  0  0  0  0  0  0  0
  192.0840  175.0700  146.2790 C   0  0  1  0  0  0  0  0  0  0  0  0
  195.0680  174.0480  144.7830 C   0  0  0  0  0  0  0  0  0  0  0  0
  188.9780  177.0460  142.4600 S   0  0  0  0  0  0  0  0  0  0  0  0
  187.7910  177.3090  141.1070 C   0  0  0  0  0  2  0  0  0  0  0  0
  186.7850  178.2780  141.5100 N   0  0  0  0  0  2  0  0  0  0  0  0
  184.4520  178.3700  140.8680 C   0  0  0  0  0  1  0  0  0  0  0  0
  185.5180  177.5730  141.5930 C   0  0  2  0  0  3  0  0  0  0  0  0
  185.1270  177.3950  143.0500 C   0  0  0  0  0  2  0  0  0  0  0  0
  185.0680  178.6390  143.6800 O   0  0  0  0  0  0  0  0  0  0  0  0
  185.8500  177.5980  146.7700 C   0  0  2  0  0  0  0  0  0  0  0  0
  184.8160  179.4540  145.8270 O   0  0  0  0  0  0  0  0  0  0  0  0
  185.9760  179.7800  147.8190 O   0  0  0  0  0  0  0  0  0  0  0  0
  186.5780  176.7630  147.7460 C   0  0  0  0  0  2  0  0  0  0  0  0
  185.5840  179.0290  146.8880 C   0  0  0  0  0  0  0  0  0  0  0  0
  185.1490  177.1030  145.5260 C   0  0  0  0  0  2  0  0  0  0  0  0
  187.2330  177.3700  146.6590 O   0  0  0  0  0  0  0  0  0  0  0  0
  184.5110  178.3800  144.9340 C   0  0  2  0  0  3  0  0  0  0  0  0
  1  4  1  0  0  0  0
  1  5  1  0  0  0  0
  2  1  2  0  0  0  0
  3  7  2  0  0  0  0
  3  2  1  0  0  0  0
  4  8  1  0  0  0  0
  6  4  2  0  0  0  0
  6 23  1  0  0  0  0
  7  6  1  0  0  0  0
  8 16  1  0  0  0  0
  9 15  1  0  0  0  0
 10 14  1  0  0  0  0
 11 13  2  0  0  0  0
 13 17  1  0  0  0  0
 14 15  2  0  0  0  0
 16 10  2  0  0  0  0
 16 21  1  0  0  0  0
 17 21  1  0  0  0  0
 17 18  1  0  0  0  0
 18 12  1  6  0  0  0
 19 22  1  0  0  0  0
 19 13  1  0  0  0  0
 20 22  2  0  0  0  0
 21 18  1  0  0  0  0
 21  9  1  1  0  0  0
 22 12  1  0  0  0  0
 24 25  1  0  0  0  0
 24 23  1  0  0  0  0
 25 27  1  0  0  0  0
 27 26  1  6  0  0  0
 27 28  1  0  0  0  0
 28 29  1  0  0  0  0
 30 35  1  6  0  0  0
 30 34  1  0  0  0  0
 30 33  1  0  0  0  0
 31 34  1  0  0  0  0
 34 32  2  0  0  0  0
 36 30  1  0  0  0  0
 36 33  1  0  0  0  0
 37 29  1  6  0  0  0
 37 35  1  0  0  0  0
 37 31  1  0  0  0  0
M  END
>  <MODEL>
2

>  <REMARK>
 VINA RESULT:      -7.3      2.542      5.477
  Name = 
  9 active torsions:
  status: ('A' for Active; 'I' for Inactive)
    1  A    between atoms: N_10  and  C_28
    2  A    between atoms: N_10  and  C_30
    3  A    between atoms: C_15  and  O_16
    4  A    between atoms: C_15  and  C_30
    5  A    between atoms: O_16  and  C_34
    6  A    between atoms: C_18  and  S_20
    7  A    between atoms: S_20  and  C_26
    8  A    between atoms: S_22  and  C_28
    9  A    between atoms: S_22  and  C_29
                            x       y       z     vdW  Elec       q    Type
                         _______ _______ _______ _____ _____    ______ ____

>  <TORSDO>
F 9

$$$$
=
 OpenBabel11062418503D

 37 42  0  0  1  0  0  0  0  0999 V2000
  193.2990  176.3060  145.9840 C   0  0  0  0  0  0  0  0  0  0  0  0
  192.5660  176.4270  147.1220 N   0  0  0  0  0  0  0  0  0  0  0  0
  191.4220  175.7220  147.3170 C   0  0  0  0  0  3  0  0  0  0  0  0
  192.9040  175.3990  144.9790 C   0  0  0  0  0  0  0  0  0  0  0  0
  194.4570  177.1200  145.8160 N   0  0  0  0  0  1  0  0  0  0  0  0
  191.6810  174.7160  145.1420 C   0  0  0  0  0  0  0  0  0  0  0  0
  190.9550  174.8650  146.3250 C   0  0  0  0  0  3  0  0  0  0  0  0
  193.9130  175.2170  143.4830 S   0  0  0  0  0  0  0  0  0  0  0  0
  197.3990  173.4910  145.0640 C   0  0  0  0  0  2  0  0  0  0  0  0
  194.5570  173.0460  144.9940 C   0  0  0  0  0  3  0  0  0  0  0  0
  197.0090  177.5080  143.5260 O   0  0  0  0  0  0  0  0  0  0  0  0
  196.2700  173.9420  141.3970 C   0  0  0  0  0  2  0  0  0  0  0  0
  196.8910  176.5040  142.7790 C   0  0  0  0  0  0  0  0  0  0  0  0
  195.4480  172.1160  145.7210 C   0  0  0  0  0  3  0  0  0  0  0  0
  196.7720  172.2940  145.7270 C   0  0  0  0  0  3  0  0  0  0  0  0
  195.0280  173.9260  144.1000 C   0  0  0  0  0  0  0  0  0  0  0  0
  197.0840  175.1910  143.2570 N   0  0  0  0  0  0  0  0  0  0  0  0
  197.1410  173.8260  142.6560 C   0  0  1  0  0  3  0  0  0  0  0  0
  196.4830  176.6120  141.3410 C   0  0  0  0  0  2  0  0  0  0  0  0
  196.7270  175.2110  139.4460 O   0  0  0  0  0  0  0  0  0  0  0  0
  196.5400  173.9570  143.8910 C   0  0  1  0  0  0  0  0  0  0  0  0
  196.5330  175.2500  140.6490 C   0  0  0  0  0  0  0  0  0  0  0  0
  190.9520  173.7240  143.8400 S   0  0  0  0  0  0  0  0  0  0  0  0
  189.7040  174.9810  143.4240 C   0  0  0  0  0  2  0  0  0  0  0  0
  190.3180  176.0560  142.6620 N   0  0  0  0  0  2  0  0  0  0  0  0
  190.7120  178.1780  143.7600 C   0  0  0  0  0  1  0  0  0  0  0  0
  189.6850  177.2950  143.0790 C   0  0  2  0  0  3  0  0  0  0  0  0
  188.5500  176.9900  144.0410 C   0  0  0  0  0  2  0  0  0  0  0  0
  187.3470  177.4750  143.5240 O   0  0  0  0  0  0  0  0  0  0  0  0
  185.8430  177.5550  146.5190 C   0  0  2  0  0  0  0  0  0  0  0  0
  185.1780  177.6620  144.2940 O   0  0  0  0  0  0  0  0  0  0  0  0
  183.8700  178.7950  145.8520 O   0  0  0  0  0  0  0  0  0  0  0  0
  185.8100  177.7230  147.9860 C   0  0  0  0  0  2  0  0  0  0  0  0
  184.8660  178.0780  145.5690 C   0  0  0  0  0  0  0  0  0  0  0  0
  186.8300  176.7130  145.7440 C   0  0  0  0  0  2  0  0  0  0  0  0
  186.5160  178.6130  147.1540 O   0  0  0  0  0  0  0  0  0  0  0  0
  186.3540  176.8500  144.2790 C   0  0  2  0  0  3  0  0  0  0  0  0
  1  2  1  0  0  0  0
  2  3  2  0  0  0  0
  4  6  1  0  0  0  0
  4  1  2  0  0  0  0
  5  1  1  0  0  0  0
  6  7  2  0  0  0  0
  7  3  1  0  0  0  0
  8 16  1  0  0  0  0
  8  4  1  0  0  0  0
  9 15  1  0  0  0  0
 10 14  1  0  0  0  0
 13 17  1  0  0  0  0
 13 11  2  0  0  0  0
 14 15  2  0  0  0  0
 16 10  2  0  0  0  0
 17 21  1  0  0  0  0
 18 12  1  6  0  0  0
 18 17  1  0  0  0  0
 18 21  1  0  0  0  0
 19 13  1  0  0  0  0
 20 22  2  0  0  0  0
 21 16  1  0  0  0  0
 21  9  1  1  0  0  0
 22 19  1  0  0  0  0
 22 12  1  0  0  0  0
 23  6  1  0  0  0  0
 24 23  1  0  0  0  0
 25 27  1  0  0  0  0
 25 24  1  0  0  0  0
 27 26  1  1  0  0  0
 27 28  1  0  0  0  0
 29 28  1  0  0  0  0
 30 35  1  6  0  0  0
 30 36  1  0  0  0  0
 30 33  1  0  0  0  0
 31 34  1  0  0  0  0
 34 32  2  0  0  0  0
 34 30  1  0  0  0  0
 36 33  1  0  0  0  0
 37 29  1  6  0  0  0
 37 31  1  0  0  0  0
 37 35  1  0  0  0  0
M  END
>  <MODEL>
3

>  <REMARK>
 VINA RESULT:      -7.3      3.205      5.492
  Name = 
  9 active torsions:
  status: ('A' for Active; 'I' for Inactive)
    1  A    between atoms: N_10  and  C_28
    2  A    between atoms: N_10  and  C_30
    3  A    between atoms: C_15  and  O_16
    4  A    between atoms: C_15  and  C_30
    5  A    between atoms: O_16  and  C_34
    6  A    between atoms: C_18  and  S_20
    7  A    between atoms: S_20  and  C_26
    8  A    between atoms: S_22  and  C_28
    9  A    between atoms: S_22  and  C_29
                            x       y       z     vdW  Elec       q    Type
                         _______ _______ _______ _____ _____    ______ ____

>  <TORSDO>
F 9

$$$$
=
 OpenBabel11062418503D

 37 42  0  0  1  0  0  0  0  0999 V2000
  192.4730  175.1320  142.9530 C   0  0  0  0  0  0  0  0  0  0  0  0
  191.6600  176.0840  142.4250 N   0  0  0  0  0  0  0  0  0  0  0  0
  191.2030  177.1290  143.1630 C   0  0  0  0  0  3  0  0  0  0  0  0
  192.9030  175.2310  144.2920 C   0  0  0  0  0  0  0  0  0  0  0  0
  192.8670  174.0290  142.1410 N   0  0  0  0  0  1  0  0  0  0  0  0
  192.3780  176.2720  145.0860 C   0  0  0  0  0  0  0  0  0  0  0  0
  191.5450  177.2320  144.5080 C   0  0  0  0  0  3  0  0  0  0  0  0
  194.0220  173.9760  144.9750 S   0  0  0  0  0  0  0  0  0  0  0  0
  197.3690  174.3950  142.4750 C   0  0  0  0  0  2  0  0  0  0  0  0
  195.6680  175.9880  144.1640 C   0  0  0  0  0  3  0  0  0  0  0  0
  194.6550  171.0370  142.5670 O   0  0  0  0  0  0  0  0  0  0  0  0
  196.9520  172.4740  145.8010 C   0  0  0  0  0  2  0  0  0  0  0  0
  195.3940  171.3120  143.5470 C   0  0  0  0  0  0  0  0  0  0  0  0
  196.7950  176.6060  143.4320 C   0  0  0  0  0  3  0  0  0  0  0  0
  197.6120  175.8670  142.6760 C   0  0  0  0  0  3  0  0  0  0  0  0
  195.5740  174.6610  144.3310 C   0  0  0  0  0  0  0  0  0  0  0  0
  196.3320  172.3640  143.5020 N   0  0  0  0  0  0  0  0  0  0  0  0
  197.4120  172.8800  144.3940 C   0  0  1  0  0  3  0  0  0  0  0  0
  195.3020  170.5870  144.8550 C   0  0  0  0  0  2  0  0  0  0  0  0
  196.7830  170.2760  146.6780 O   0  0  0  0  0  0  0  0  0  0  0  0
  196.6650  173.8050  143.6940 C   0  0  1  0  0  0  0  0  0  0  0  0
  196.3920  171.0500  145.8210 C   0  0  0  0  0  0  0  0  0  0  0  0
  192.6550  176.3700  146.8530 S   0  0  0  0  0  0  0  0  0  0  0  0
  190.8810  176.4910  147.2400 C   0  0  0  0  0  2  0  0  0  0  0  0
  190.3810  175.2010  147.6840 N   0  0  0  0  0  2  0  0  0  0  0  0
  189.6400  173.9410  145.7530 C   0  0  0  0  0  1  0  0  0  0  0  0
  189.2240  174.8830  146.8660 C   0  0  2  0  0  3  0  0  0  0  0  0
  188.6510  176.1590  146.2730 C   0  0  0  0  0  2  0  0  0  0  0  0
  187.3340  176.3310  146.7010 O   0  0  0  0  0  0  0  0  0  0  0  0
  185.7460  178.3910  144.5860 C   0  0  2  0  0  0  0  0  0  0  0  0
  185.7130  177.9670  146.8710 O   0  0  0  0  0  0  0  0  0  0  0  0
  183.7300  178.7030  145.8970 O   0  0  0  0  0  0  0  0  0  0  0  0
  185.2970  178.8390  143.2520 C   0  0  0  0  0  2  0  0  0  0  0  0
  184.9430  178.3780  145.8060 C   0  0  0  0  0  0  0  0  0  0  0  0
  187.1490  177.9740  144.9570 C   0  0  0  0  0  2  0  0  0  0  0  0
  185.2130  177.4910  143.6470 O   0  0  0  0  0  0  0  0  0  0  0  0
  187.0540  177.6790  146.4710 C   0  0  2  0  0  3  0  0  0  0  0  0
  1  4  1  0  0  0  0
  2  1  2  0  0  0  0
  2  3  1  0  0  0  0
  3  7  2  0  0  0  0
  4  8  1  0  0  0  0
  4  6  2  0  0  0  0
  5  1  1  0  0  0  0
  6 23  1  0  0  0  0
  7  6  1  0  0  0  0
  9 15  1  0  0  0  0
 10 16  2  0  0  0  0
 11 13  2  0  0  0  0
 12 22  1  0  0  0  0
 13 19  1  0  0  0  0
 14 10  1  0  0  0  0
 15 14  2  0  0  0  0
 16  8  1  0  0  0  0
 17 13  1  0  0  0  0
 17 21  1  0  0  0  0
 17 18  1  0  0  0  0
 18 12  1  1  0  0  0
 19 22  1  0  0  0  0
 21  9  1  6  0  0  0
 21 16  1  0  0  0  0
 21 18  1  0  0  0  0
 22 20  2  0  0  0  0
 23 24  1  0  0  0  0
 24 25  1  0  0  0  0
 27 26  1  6  0  0  0
 27 25  1  0  0  0  0
 28 29  1  0  0  0  0
 28 27  1  0  0  0  0
 30 33  1  6  0  0  0
 30 35  1  0  0  0  0
 30 34  1  0  0  0  0
 33 36  1  0  0  0  0
 34 32  2  0  0  0  0
 34 31  1  0  0  0  0
 35 37  1  0  0  0  0
 36 30  1  0  0  0  0
 37 29  1  6  0  0  0
 37 31  1  0  0  0  0
M  END
>  <MODEL>
4

>  <REMARK>
 VINA RESULT:      -7.1      3.224      5.057
  Name = 
  9 active torsions:
  status: ('A' for Active; 'I' for Inactive)
    1  A    between atoms: N_10  and  C_28
    2  A    between atoms: N_10  and  C_30
    3  A    between atoms: C_15  and  O_16
    4  A    between atoms: C_15  and  C_30
    5  A    between atoms: O_16  and  C_34
    6  A    between atoms: C_18  and  S_20
    7  A    between atoms: S_20  and  C_26
    8  A    between atoms: S_22  and  C_28
    9  A    between atoms: S_22  and  C_29
                            x       y       z     vdW  Elec       q    Type
                         _______ _______ _______ _____ _____    ______ ____

>  <TORSDO>
F 9

$$$$
=
 OpenBabel11062418503D

 37 42  0  0  1  0  0  0  0  0999 V2000
  194.4180  176.0220  143.8880 C   0  0  0  0  0  0  0  0  0  0  0  0
  195.0630  176.7380  144.8460 N   0  0  0  0  0  0  0  0  0  0  0  0
  194.6230  176.7780  146.1300 C   0  0  0  0  0  3  0  0  0  0  0  0
  193.2810  175.2570  144.2190 C   0  0  0  0  0  0  0  0  0  0  0  0
  194.8970  176.0720  142.5470 N   0  0  0  0  0  1  0  0  0  0  0  0
  192.7760  175.3480  145.5330 C   0  0  0  0  0  0  0  0  0  0  0  0
  193.4660  176.0940  146.4910 C   0  0  0  0  0  3  0  0  0  0  0  0
  192.4540  174.2720  142.9400 S   0  0  0  0  0  0  0  0  0  0  0  0
  188.5710  175.8660  143.0180 C   0  0  0  0  0  2  0  0  0  0  0  0
  191.3030  176.7330  142.7630 C   0  0  0  0  0  3  0  0  0  0  0  0
  189.7350  171.9130  144.3110 O   0  0  0  0  0  0  0  0  0  0  0  0
  190.2670  173.5300  140.4510 C   0  0  0  0  0  2  0  0  0  0  0  0
  189.8180  172.2610  143.1050 C   0  0  0  0  0  0  0  0  0  0  0  0
  190.1960  177.7120  142.7330 C   0  0  0  0  0  3  0  0  0  0  0  0
  188.9230  177.3150  142.8130 C   0  0  0  0  0  3  0  0  0  0  0  0
  191.0930  175.4200  142.5940 C   0  0  0  0  0  0  0  0  0  0  0  0
  189.3770  173.5250  142.6610 N   0  0  0  0  0  0  0  0  0  0  0  0
  189.2170  174.2060  141.3430 C   0  0  1  0  0  3  0  0  0  0  0  0
  190.4390  171.3910  142.0550 C   0  0  0  0  0  2  0  0  0  0  0  0
  190.2770  171.2820  139.6940 O   0  0  0  0  0  0  0  0  0  0  0  0
  189.6460  174.9700  142.4090 C   0  0  1  0  0  0  0  0  0  0  0  0
  190.3000  172.0160  140.6670 C   0  0  0  0  0  0  0  0  0  0  0  0
  191.2120  174.6200  146.0160 S   0  0  0  0  0  0  0  0  0  0  0  0
  191.2910  175.2920  147.7050 C   0  0  0  0  0  2  0  0  0  0  0  0
  190.0680  176.0150  148.0100 N   0  0  0  0  0  2  0  0  0  0  0  0
  189.6640  177.6670  146.2860 C   0  0  0  0  0  1  0  0  0  0  0  0
  189.3840  176.2520  146.7510 C   0  0  2  0  0  3  0  0  0  0  0  0
  187.8890  176.0580  146.9370 C   0  0  0  0  0  2  0  0  0  0  0  0
  187.2630  177.2980  147.0730 O   0  0  0  0  0  0  0  0  0  0  0  0
  184.9920  178.5810  144.9680 C   0  0  2  0  0  0  0  0  0  0  0  0
  186.0240  176.5230  145.2850 O   0  0  0  0  0  0  0  0  0  0  0  0
  185.3860  177.0690  143.1130 O   0  0  0  0  0  0  0  0  0  0  0  0
  184.2750  179.6840  144.2960 C   0  0  0  0  0  2  0  0  0  0  0  0
  185.4690  177.3540  144.3370 C   0  0  0  0  0  0  0  0  0  0  0  0
  185.2590  178.4680  146.4500 C   0  0  0  0  0  2  0  0  0  0  0  0
  185.6750  179.6920  144.4440 O   0  0  0  0  0  0  0  0  0  0  0  0
  185.9690  177.1020  146.5900 C   0  0  2  0  0  3  0  0  0  0  0  0
  1  4  2  0  0  0  0
  1  2  1  0  0  0  0
  2  3  2  0  0  0  0
  3  7  1  0  0  0  0
  4  6  1  0  0  0  0
  5  1  1  0  0  0  0
  6 23  1  0  0  0  0
  6  7  2  0  0  0  0
  8  4  1  0  0  0  0
 12 22  1  0  0  0  0
 13 11  2  0  0  0  0
 14 10  1  0  0  0  0
 14 15  2  0  0  0  0
 15  9  1  0  0  0  0
 16 10  2  0  0  0  0
 16  8  1  0  0  0  0
 17 13  1  0  0  0  0
 18 12  1  6  0  0  0
 18 21  1  0  0  0  0
 18 17  1  0  0  0  0
 19 13  1  0  0  0  0
 20 22  2  0  0  0  0
 21 16  1  0  0  0  0
 21 17  1  0  0  0  0
 21  9  1  1  0  0  0
 22 19  1  0  0  0  0
 23 24  1  0  0  0  0
 24 25  1  0  0  0  0
 27 26  1  1  0  0  0
 27 28  1  0  0  0  0
 27 25  1  0  0  0  0
 28 29  1  0  0  0  0
 30 33  1  6  0  0  0
 30 35  1  0  0  0  0
 31 37  1  0  0  0  0
 32 34  2  0  0  0  0
 33 36  1  0  0  0  0
 34 30  1  0  0  0  0
 34 31  1  0  0  0  0
 35 37  1  0  0  0  0
 36 30  1  0  0  0  0
 37 29  1  6  0  0  0
M  END
>  <MODEL>
5

>  <REMARK>
 VINA RESULT:      -7.1      1.392      1.976
  Name = 
  9 active torsions:
  status: ('A' for Active; 'I' for Inactive)
    1  A    between atoms: N_10  and  C_28
    2  A    between atoms: N_10  and  C_30
    3  A    between atoms: C_15  and  O_16
    4  A    between atoms: C_15  and  C_30
    5  A    between atoms: O_16  and  C_34
    6  A    between atoms: C_18  and  S_20
    7  A    between atoms: S_20  and  C_26
    8  A    between atoms: S_22  and  C_28
    9  A    between atoms: S_22  and  C_29
                            x       y       z     vdW  Elec       q    Type
                         _______ _______ _______ _____ _____    ______ ____

>  <TORSDO>
F 9

$$$$
=
 OpenBabel11062418503D

 37 42  0  0  1  0  0  0  0  0999 V2000
  191.3310  172.3640  143.2430 C   0  0  0  0  0  0  0  0  0  0  0  0
  190.1530  171.6870  143.2020 N   0  0  0  0  0  0  0  0  0  0  0  0
  188.9790  172.3060  142.9150 C   0  0  0  0  0  3  0  0  0  0  0  0
  191.3670  173.7410  142.9430 C   0  0  0  0  0  0  0  0  0  0  0  0
  192.5180  171.6670  143.6100 N   0  0  0  0  0  1  0  0  0  0  0  0
  190.1450  174.4060  142.7140 C   0  0  0  0  0  0  0  0  0  0  0  0
  188.9550  173.6770  142.6790 C   0  0  0  0  0  3  0  0  0  0  0  0
  192.9510  174.6260  142.9610 S   0  0  0  0  0  0  0  0  0  0  0  0
  194.1010  176.5570  146.5070 C   0  0  0  0  0  2  0  0  0  0  0  0
  191.8130  175.2460  145.3550 C   0  0  0  0  0  3  0  0  0  0  0  0
  196.1480  176.7600  142.7090 O   0  0  0  0  0  0  0  0  0  0  0  0
  195.3570  173.2610  144.9300 C   0  0  0  0  0  2  0  0  0  0  0  0
  196.0720  175.6860  143.3580 C   0  0  0  0  0  0  0  0  0  0  0  0
  191.7500  175.8090  146.7210 C   0  0  0  0  0  3  0  0  0  0  0  0
  192.8190  176.3860  147.2770 C   0  0  0  0  0  3  0  0  0  0  0  0
  192.9790  175.0360  144.7280 C   0  0  0  0  0  0  0  0  0  0  0  0
  195.4660  175.6240  144.6300 N   0  0  0  0  0  0  0  0  0  0  0  0
  195.3080  174.5910  145.6960 C   0  0  1  0  0  3  0  0  0  0  0  0
  196.5650  174.3780  142.8160 C   0  0  0  0  0  2  0  0  0  0  0  0
  197.2200  172.3250  143.7990 O   0  0  0  0  0  0  0  0  0  0  0  0
  194.2470  175.4450  145.4710 C   0  0  1  0  0  0  0  0  0  0  0  0
  196.4510  173.2690  143.8600 C   0  0  0  0  0  0  0  0  0  0  0  0
  190.0310  176.1880  142.5600 S   0  0  0  0  0  0  0  0  0  0  0  0
  188.4240  176.1260  141.7100 C   0  0  0  0  0  2  0  0  0  0  0  0
  187.8300  177.4520  141.6750 N   0  0  0  0  0  2  0  0  0  0  0  0
  186.3880  177.4860  139.7300 C   0  0  0  0  0  1  0  0  0  0  0  0
  186.4550  177.2960  141.2330 C   0  0  2  0  0  3  0  0  0  0  0  0
  185.5770  178.3260  141.9220 C   0  0  0  0  0  2  0  0  0  0  0  0
  186.1850  178.7530  143.1040 O   0  0  0  0  0  0  0  0  0  0  0  0
  186.1740  177.4750  146.2030 C   0  0  2  0  0  0  0  0  0  0  0  0
  185.2590  179.3280  145.1400 O   0  0  0  0  0  0  0  0  0  0  0  0
  185.7740  179.5440  147.4000 O   0  0  0  0  0  0  0  0  0  0  0  0
  186.6820  176.6060  147.2840 C   0  0  0  0  0  2  0  0  0  0  0  0
  185.7380  178.8610  146.3430 C   0  0  0  0  0  0  0  0  0  0  0  0
  185.9040  177.0520  144.7770 C   0  0  0  0  0  2  0  0  0  0  0  0
  187.5480  177.3680  146.4790 O   0  0  0  0  0  0  0  0  0  0  0  0
  185.3290  178.3280  144.1210 C   0  0  2  0  0  3  0  0  0  0  0  0
  1  5  1  0  0  0  0
  2  1  1  0  0  0  0
  3  2  2  0  0  0  0
  4  8  1  0  0  0  0
  4  1  2  0  0  0  0
  6  4  1  0  0  0  0
  7  6  2  0  0  0  0
  7  3  1  0  0  0  0
  8 16  1  0  0  0  0
  9 15  1  0  0  0  0
 10 14  1  0  0  0  0
 11 13  2  0  0  0  0
 13 17  1  0  0  0  0
 14 15  2  0  0  0  0
 16 10  2  0  0  0  0
 16 21  1  0  0  0  0
 17 21  1  0  0  0  0
 17 18  1  0  0  0  0
 18 12  1  6  0  0  0
 19 13  1  0  0  0  0
 19 22  1  0  0  0  0
 20 22  2  0  0  0  0
 21 18  1  0  0  0  0
 21  9  1  1  0  0  0
 22 12  1  0  0  0  0
 23  6  1  0  0  0  0
 24 23  1  0  0  0  0
 25 24  1  0  0  0  0
 27 26  1  6  0  0  0
 27 25  1  0  0  0  0
 27 28  1  0  0  0  0
 28 29  1  0  0  0  0
 30 35  1  6  0  0  0
 30 34  1  0  0  0  0
 30 36  1  0  0  0  0
 30 33  1  0  0  0  0
 31 34  1  0  0  0  0
 34 32  2  0  0  0  0
 36 33  1  0  0  0  0
 37 29  1  6  0  0  0
 37 35  1  0  0  0  0
 37 31  1  0  0  0  0
M  END
>  <MODEL>
6

>  <REMARK>
 VINA RESULT:      -6.7      2.671      5.492
  Name = 
  9 active torsions:
  status: ('A' for Active; 'I' for Inactive)
    1  A    between atoms: N_10  and  C_28
    2  A    between atoms: N_10  and  C_30
    3  A    between atoms: C_15  and  O_16
    4  A    between atoms: C_15  and  C_30
    5  A    between atoms: O_16  and  C_34
    6  A    between atoms: C_18  and  S_20
    7  A    between atoms: S_20  and  C_26
    8  A    between atoms: S_22  and  C_28
    9  A    between atoms: S_22  and  C_29
                            x       y       z     vdW  Elec       q    Type
                         _______ _______ _______ _____ _____    ______ ____

>  <TORSDO>
F 9

$$$$
=
 OpenBabel11062418503D

 37 42  0  0  1  0  0  0  0  0999 V2000
  191.8000  175.0710  145.5620 C   0  0  0  0  0  0  0  0  0  0  0  0
  192.2710  175.7020  146.6700 N   0  0  0  0  0  0  0  0  0  0  0  0
  193.3800  176.4850  146.6340 C   0  0  0  0  0  3  0  0  0  0  0  0
  192.4390  175.2520  144.3180 C   0  0  0  0  0  0  0  0  0  0  0  0
  190.6680  174.2150  145.6820 N   0  0  0  0  0  1  0  0  0  0  0  0
  193.6310  176.0060  144.2850 C   0  0  0  0  0  0  0  0  0  0  0  0
  194.0840  176.6390  145.4430 C   0  0  0  0  0  3  0  0  0  0  0  0
  191.7770  174.4380  142.8380 S   0  0  0  0  0  0  0  0  0  0  0  0
  187.8220  175.8400  142.9930 C   0  0  0  0  0  2  0  0  0  0  0  0
  190.5120  176.8490  142.8360 C   0  0  0  0  0  3  0  0  0  0  0  0
  189.1610  171.8570  143.9940 O   0  0  0  0  0  0  0  0  0  0  0  0
  189.6480  173.7880  140.2750 C   0  0  0  0  0  2  0  0  0  0  0  0
  189.2380  172.3000  142.8190 C   0  0  0  0  0  0  0  0  0  0  0  0
  189.3610  177.7760  142.8680 C   0  0  0  0  0  3  0  0  0  0  0  0
  188.1080  177.3150  142.9030 C   0  0  0  0  0  3  0  0  0  0  0  0
  190.3660  175.5450  142.5650 C   0  0  0  0  0  0  0  0  0  0  0  0
  188.7410  173.5730  142.4680 N   0  0  0  0  0  0  0  0  0  0  0  0
  188.5600  174.3440  141.2030 C   0  0  1  0  0  3  0  0  0  0  0  0
  189.9080  171.5430  141.7130 C   0  0  0  0  0  2  0  0  0  0  0  0
  189.7700  171.6080  139.3490 O   0  0  0  0  0  0  0  0  0  0  0  0
  188.9440  175.0430  142.3300 C   0  0  1  0  0  0  0  0  0  0  0  0
  189.7500  172.2650  140.3750 C   0  0  0  0  0  0  0  0  0  0  0  0
  194.6630  176.1110  142.8230 S   0  0  0  0  0  0  0  0  0  0  0  0
  196.1980  176.2990  143.7820 C   0  0  0  0  0  2  0  0  0  0  0  0
  197.3470  176.0310  142.9350 N   0  0  0  0  0  2  0  0  0  0  0  0
  197.6580  173.6940  142.3800 C   0  0  0  0  0  1  0  0  0  0  0  0
  197.9390  174.7860  143.3930 C   0  0  2  0  0  3  0  0  0  0  0  0
  197.3470  174.4040  144.7390 C   0  0  0  0  0  2  0  0  0  0  0  0
  197.6870  173.0870  145.0500 O   0  0  0  0  0  0  0  0  0  0  0  0
  194.6350  171.7130  145.2430 C   0  0  2  0  0  0  0  0  0  0  0  0
  196.7500  171.2490  146.0880 O   0  0  0  0  0  0  0  0  0  0  0  0
  195.3370  169.4380  145.7020 O   0  0  0  0  0  0  0  0  0  0  0  0
  193.2410  171.5030  144.8010 C   0  0  0  0  0  2  0  0  0  0  0  0
  195.5660  170.6760  145.6800 C   0  0  0  0  0  0  0  0  0  0  0  0
  195.3150  173.0480  145.4330 C   0  0  0  0  0  2  0  0  0  0  0  0
  194.3110  171.5320  143.8870 O   0  0  0  0  0  0  0  0  0  0  0  0
  196.7170  172.6720  145.9640 C   0  0  2  0  0  3  0  0  0  0  0  0
  1  5  1  0  0  0  0
  1  2  1  0  0  0  0
  3  2  2  0  0  0  0
  4  1  2  0  0  0  0
  6  4  1  0  0  0  0
  6  7  2  0  0  0  0
  7  3  1  0  0  0  0
  8  4  1  0  0  0  0
 10 14  1  0  0  0  0
 12 22  1  0  0  0  0
 13 11  2  0  0  0  0
 14 15  2  0  0  0  0
 15  9  1  0  0  0  0
 16 10  2  0  0  0  0
 16  8  1  0  0  0  0
 17 13  1  0  0  0  0
 18 12  1  6  0  0  0
 18 21  1  0  0  0  0
 18 17  1  0  0  0  0
 19 13  1  0  0  0  0
 20 22  2  0  0  0  0
 21 17  1  0  0  0  0
 21 16  1  0  0  0  0
 21  9  1  1  0  0  0
 22 19  1  0  0  0  0
 23 24  1  0  0  0  0
 23  6  1  0  0  0  0
 25 27  1  0  0  0  0
 25 24  1  0  0  0  0
 27 26  1  6  0  0  0
 27 28  1  0  0  0  0
 28 29  1  0  0  0  0
 30 33  1  1  0  0  0
 30 35  1  0  0  0  0
 30 34  1  0  0  0  0
 34 32  2  0  0  0  0
 34 31  1  0  0  0  0
 35 37  1  0  0  0  0
 36 33  1  0  0  0  0
 36 30  1  0  0  0  0
 37 29  1  6  0  0  0
 37 31  1  0  0  0  0
M  END
>  <MODEL>
7

>  <REMARK>
 VINA RESULT:      -6.5      3.436      7.719
  Name = 
  9 active torsions:
  status: ('A' for Active; 'I' for Inactive)
    1  A    between atoms: N_10  and  C_28
    2  A    between atoms: N_10  and  C_30
    3  A    between atoms: C_15  and  O_16
    4  A    between atoms: C_15  and  C_30
    5  A    between atoms: O_16  and  C_34
    6  A    between atoms: C_18  and  S_20
    7  A    between atoms: S_20  and  C_26
    8  A    between atoms: S_22  and  C_28
    9  A    between atoms: S_22  and  C_29
                            x       y       z     vdW  Elec       q    Type
                         _______ _______ _______ _____ _____    ______ ____

>  <TORSDO>
F 9

$$$$
=
 OpenBabel11062418503D

 37 42  0  0  1  0  0  0  0  0999 V2000
  190.8850  173.7760  140.9010 C   0  0  0  0  0  0  0  0  0  0  0  0
  189.6920  174.3430  140.5820 N   0  0  0  0  0  0  0  0  0  0  0  0
  188.6720  174.4180  141.4750 C   0  0  0  0  0  3  0  0  0  0  0  0
  191.1100  173.2810  142.2020 C   0  0  0  0  0  0  0  0  0  0  0  0
  191.8930  173.6740  139.8990 N   0  0  0  0  0  1  0  0  0  0  0  0
  190.0330  173.2910  143.1140 C   0  0  0  0  0  0  0  0  0  0  0  0
  188.8220  173.8820  142.7500 C   0  0  0  0  0  3  0  0  0  0  0  0
  192.7210  172.5640  142.6280 S   0  0  0  0  0  0  0  0  0  0  0  0
  195.5620  175.2480  144.1620 C   0  0  0  0  0  2  0  0  0  0  0  0
  192.7890  175.1740  143.3980 C   0  0  0  0  0  3  0  0  0  0  0  0
  196.3920  171.4590  142.2620 O   0  0  0  0  0  0  0  0  0  0  0  0
  194.0410  172.0530  145.7140 C   0  0  0  0  0  2  0  0  0  0  0  0
  195.7860  171.5240  143.3620 C   0  0  0  0  0  0  0  0  0  0  0  0
  193.3940  176.4190  143.9180 C   0  0  0  0  0  3  0  0  0  0  0  0
  194.6710  176.4510  144.3100 C   0  0  0  0  0  3  0  0  0  0  0  0
  193.3800  173.9810  143.5490 C   0  0  0  0  0  0  0  0  0  0  0  0
  195.5700  172.7500  144.0240 N   0  0  0  0  0  0  0  0  0  0  0  0
  195.0190  173.1760  145.3440 C   0  0  1  0  0  3  0  0  0  0  0  0
  195.1970  170.3190  144.0310 C   0  0  0  0  0  2  0  0  0  0  0  0
  194.5740  169.8060  146.2580 O   0  0  0  0  0  0  0  0  0  0  0  0
  194.7370  173.9660  144.2480 C   0  0  1  0  0  0  0  0  0  0  0  0
  194.6240  170.6730  145.4020 C   0  0  0  0  0  0  0  0  0  0  0  0
  190.1150  172.4790  144.7090 S   0  0  0  0  0  0  0  0  0  0  0  0
  189.6950  173.9930  145.6280 C   0  0  0  0  0  2  0  0  0  0  0  0
  190.9010  174.5950  146.1700 N   0  0  0  0  0  2  0  0  0  0  0  0
  191.1930  176.3300  147.8340 C   0  0  0  0  0  1  0  0  0  0  0  0
  190.5860  175.9760  146.4910 C   0  0  2  0  0  3  0  0  0  0  0  0
  189.0790  176.1570  146.5430 C   0  0  0  0  0  2  0  0  0  0  0  0
  188.7280  177.3820  145.9730 O   0  0  0  0  0  0  0  0  0  0  0  0
  185.4460  178.0520  145.8440 C   0  0  2  0  0  0  0  0  0  0  0  0
  187.2640  178.2410  144.4080 O   0  0  0  0  0  0  0  0  0  0  0  0
  185.5410  179.7870  144.1530 O   0  0  0  0  0  0  0  0  0  0  0  0
  184.1150  178.2950  146.4360 C   0  0  0  0  0  2  0  0  0  0  0  0
  186.0470  178.7940  144.7400 C   0  0  0  0  0  0  0  0  0  0  0  0
  186.3810  176.9190  146.1970 C   0  0  0  0  0  2  0  0  0  0  0  0
  185.2770  178.8940  146.9570 O   0  0  0  0  0  0  0  0  0  0  0  0
  187.5740  177.1180  145.2350 C   0  0  2  0  0  3  0  0  0  0  0  0
  1  4  1  0  0  0  0
  2  1  2  0  0  0  0
  2  3  1  0  0  0  0
  3  7  2  0  0  0  0
  4  8  1  0  0  0  0
  4  6  2  0  0  0  0
  5  1  1  0  0  0  0
  6 23  1  0  0  0  0
  7  6  1  0  0  0  0
  8 16  1  0  0  0  0
  9 15  1  0  0  0  0
 10 16  2  0  0  0  0
 10 14  1  0  0  0  0
 11 13  2  0  0  0  0
 13 17  1  0  0  0  0
 13 19  1  0  0  0  0
 14 15  2  0  0  0  0
 16 21  1  0  0  0  0
 17 21  1  0  0  0  0
 17 18  1  0  0  0  0
 18 12  1  6  0  0  0
 19 22  1  0  0  0  0
 21  9  1  6  0  0  0
 21 18  1  0  0  0  0
 22 12  1  0  0  0  0
 22 20  2  0  0  0  0
 23 24  1  0  0  0  0
 24 25  1  0  0  0  0
 25 27  1  0  0  0  0
 27 28  1  0  0  0  0
 27 26  1  1  0  0  0
 29 28  1  0  0  0  0
 30 35  1  1  0  0  0
 30 33  1  0  0  0  0
 30 36  1  0  0  0  0
 31 34  1  0  0  0  0
 31 37  1  0  0  0  0
 32 34  2  0  0  0  0
 33 36  1  0  0  0  0
 34 30  1  0  0  0  0
 37 29  1  1  0  0  0
 37 35  1  0  0  0  0
M  END
>  <MODEL>
8

>  <REMARK>
 VINA RESULT:      -6.4      2.802      5.093
  Name = 
  9 active torsions:
  status: ('A' for Active; 'I' for Inactive)
    1  A    between atoms: N_10  and  C_28
    2  A    between atoms: N_10  and  C_30
    3  A    between atoms: C_15  and  O_16
    4  A    between atoms: C_15  and  C_30
    5  A    between atoms: O_16  and  C_34
    6  A    between atoms: C_18  and  S_20
    7  A    between atoms: S_20  and  C_26
    8  A    between atoms: S_22  and  C_28
    9  A    between atoms: S_22  and  C_29
                            x       y       z     vdW  Elec       q    Type
                         _______ _______ _______ _____ _____    ______ ____

>  <TORSDO>
F 9

$$$$
=
 OpenBabel11062418503D

 37 42  0  0  1  0  0  0  0  0999 V2000
  191.9690  171.8800  141.2800 C   0  0  0  0  0  0  0  0  0  0  0  0
  190.8020  171.7080  140.6060 N   0  0  0  0  0  0  0  0  0  0  0  0
  189.7300  172.5160  140.8100 C   0  0  0  0  0  3  0  0  0  0  0  0
  192.1110  172.9440  142.1930 C   0  0  0  0  0  0  0  0  0  0  0  0
  193.0350  170.9590  141.0630 N   0  0  0  0  0  1  0  0  0  0  0  0
  190.9820  173.7450  142.4640 C   0  0  0  0  0  0  0  0  0  0  0  0
  189.7990  173.5390  141.7510 C   0  0  0  0  0  3  0  0  0  0  0  0
  193.6880  173.1880  143.0560 S   0  0  0  0  0  0  0  0  0  0  0  0
  196.6530  175.4330  141.1080 C   0  0  0  0  0  2  0  0  0  0  0  0
  194.0390  174.3360  140.6120 C   0  0  0  0  0  3  0  0  0  0  0  0
  197.1640  173.1100  144.7130 O   0  0  0  0  0  0  0  0  0  0  0  0
  194.4600  176.3020  144.1670 C   0  0  0  0  0  2  0  0  0  0  0  0
  196.4240  174.1260  144.6850 C   0  0  0  0  0  0  0  0  0  0  0  0
  194.7450  175.1030  139.5640 C   0  0  0  0  0  3  0  0  0  0  0  0
  195.9420  175.6470  139.7980 C   0  0  0  0  0  3  0  0  0  0  0  0
  194.4160  174.3800  141.8980 C   0  0  0  0  0  0  0  0  0  0  0  0
  196.3030  174.9310  143.5330 N   0  0  0  0  0  0  0  0  0  0  0  0
  195.6390  176.2220  143.1880 C   0  0  1  0  0  3  0  0  0  0  0  0
  195.5690  174.5340  145.8470 C   0  0  0  0  0  2  0  0  0  0  0  0
  194.5630  176.5700  146.5220 O   0  0  0  0  0  0  0  0  0  0  0  0
  195.6400  175.2280  142.2310 C   0  0  1  0  0  0  0  0  0  0  0  0
  194.8660  175.8640  145.5760 C   0  0  0  0  0  0  0  0  0  0  0  0
  190.9610  174.9710  143.7710 S   0  0  0  0  0  0  0  0  0  0  0  0
  190.6670  173.7390  145.0770 C   0  0  0  0  0  2  0  0  0  0  0  0
  189.6750  174.2380  146.0150 N   0  0  0  0  0  2  0  0  0  0  0  0
  190.9090  175.5430  147.6390 C   0  0  0  0  0  1  0  0  0  0  0  0
  190.0680  175.5880  146.3790 C   0  0  2  0  0  3  0  0  0  0  0  0
  188.8300  176.4340  146.6160 C   0  0  0  0  0  2  0  0  0  0  0  0
  188.7310  177.4170  145.6300 O   0  0  0  0  0  0  0  0  0  0  0  0
  185.4540  178.1110  145.7750 C   0  0  2  0  0  0  0  0  0  0  0  0
  187.1470  178.2900  144.1930 O   0  0  0  0  0  0  0  0  0  0  0  0
  185.4200  179.8480  144.0850 O   0  0  0  0  0  0  0  0  0  0  0  0
  184.1790  178.3620  146.4760 C   0  0  0  0  0  2  0  0  0  0  0  0
  185.9660  178.8510  144.6260 C   0  0  0  0  0  0  0  0  0  0  0  0
  186.4070  176.9700  146.0470 C   0  0  0  0  0  2  0  0  0  0  0  0
  185.3840  178.9510  146.9000 O   0  0  0  0  0  0  0  0  0  0  0  0
  187.5170  177.1620  144.9890 C   0  0  2  0  0  3  0  0  0  0  0  0
  1  4  1  0  0  0  0
  2  3  1  0  0  0  0
  2  1  2  0  0  0  0
  3  7  2  0  0  0  0
  4  6  2  0  0  0  0
  4  8  1  0  0  0  0
  5  1  1  0  0  0  0
  6 23  1  0  0  0  0
  7  6  1  0  0  0  0
 10 16  2  0  0  0  0
 12 22  1  0  0  0  0
 13 11  2  0  0  0  0
 13 19  1  0  0  0  0
 14 15  2  0  0  0  0
 14 10  1  0  0  0  0
 15  9  1  0  0  0  0
 16 21  1  0  0  0  0
 16  8  1  0  0  0  0
 17 13  1  0  0  0  0
 18 17  1  0  0  0  0
 18 12  1  1  0  0  0
 21  9  1  6  0  0  0
 21 18  1  0  0  0  0
 21 17  1  0  0  0  0
 22 19  1  0  0  0  0
 22 20  2  0  0  0  0
 23 24  1  0  0  0  0
 24 25  1  0  0  0  0
 25 27  1  0  0  0  0
 27 28  1  0  0  0  0
 27 26  1  1  0  0  0
 29 28  1  0  0  0  0
 30 35  1  1  0  0  0
 30 33  1  0  0  0  0
 30 36  1  0  0  0  0
 31 34  1  0  0  0  0
 31 37  1  0  0  0  0
 32 34  2  0  0  0  0
 33 36  1  0  0  0  0
 34 30  1  0  0  0  0
 37 29  1  1  0  0  0
 37 35  1  0  0  0  0
M  END
>  <MODEL>
9

>  <REMARK>
 VINA RESULT:      -6.4      3.055      5.608
  Name = 
  9 active torsions:
  status: ('A' for Active; 'I' for Inactive)
    1  A    between atoms: N_10  and  C_28
    2  A    between atoms: N_10  and  C_30
    3  A    between atoms: C_15  and  O_16
    4  A    between atoms: C_15  and  C_30
    5  A    between atoms: O_16  and  C_34
    6  A    between atoms: C_18  and  S_20
    7  A    between atoms: S_20  and  C_26
    8  A    between atoms: S_22  and  C_28
    9  A    between atoms: S_22  and  C_29
                            x       y       z     vdW  Elec       q    Type
                         _______ _______ _______ _____ _____    ______ ____

>  <TORSDO>
F 9

$$$$
