=
 OpenBabel11062419043D

 32 36  0  0  1  0  0  0  0  0999 V2000
  185.2650  177.4980  145.2470 C   0  0  2  0  0  3  0  0  0  0  0  0
  184.6390  178.0170  141.0780 C   0  0  0  0  0  2  0  0  0  0  0  0
  185.9770  179.9100  143.8560 O   0  0  0  0  0  0  0  0  0  0  0  0
  187.5890  176.5440  145.0170 C   0  0  0  0  0  0  0  0  0  0  0  0
  186.4510  178.6350  146.9630 O   0  0  0  0  0  0  0  0  0  0  0  0
  185.0630  179.0430  143.1880 C   0  0  2  0  0  3  0  0  0  0  0  0
  186.9980  176.5430  141.0740 C   0  0  0  0  0  2  0  0  0  0  0  0
  184.4020  177.9250  144.0580 C   0  0  0  0  0  2  0  0  0  0  0  0
  186.6720  177.2420  139.7560 C   0  0  2  0  0  3  0  0  0  0  0  0
  188.1340  175.8650  146.1130 C   0  0  0  0  0  3  0  0  0  0  0  0
  189.5130  175.8480  146.3200 C   0  0  0  0  0  3  0  0  0  0  0  0
  185.8700  178.7120  145.8940 C   0  0  0  0  0  0  0  0  0  0  0  0
  185.6910  178.5220  141.9610 N   0  0  1  0  0  0  0  0  0  0  0  0
  188.4430  177.1980  144.0960 C   0  0  0  0  0  0  0  0  0  0  0  0
  189.8270  177.1840  144.3340 C   0  0  0  0  0  3  0  0  0  0  0  0
  190.3690  176.5070  145.4320 C   0  0  0  0  0  0  0  0  0  0  0  0
  185.2060  177.6840  139.6940 C   0  0  0  0  0  2  0  0  0  0  0  0
  186.2040  176.4980  144.8310 O   0  0  0  0  0  0  0  0  0  0  0  0
  187.9100  178.0290  142.9510 C   0  0  2  0  0  3  0  0  0  0  0  0
  185.6700  180.0340  145.2240 C   0  0  0  0  0  2  0  0  0  0  0  0
  186.6610  177.4490  142.2750 C   0  0  2  0  0  3  0  0  0  0  0  0
  188.9010  178.3520  142.0170 O   0  0  0  0  0  1  0  0  0  0  0  0
  192.7370  176.5060  144.6640 N   0  0  0  0  0  0  0  0  0  0  0  0
  192.5830  176.4560  147.1560 S   0  0  0  0  0  0  0  0  0  0  0  0
  191.8230  176.4940  145.6580 C   0  0  0  0  0  0  0  0  0  0  0  0
  194.1470  176.4550  146.5310 C   0  0  0  0  0  3  0  0  0  0  0  0
  194.0100  176.4920  145.1440 C   0  0  0  0  0  0  0  0  0  0  0  0
  194.7670  176.0690  142.9010 N   0  0  0  0  0  1  0  0  0  0  0  0
  195.1860  176.4720  144.2320 C   0  0  0  0  0  2  0  0  0  0  0  0
  187.6910  175.1800  138.8030 O   0  0  0  0  0  1  0  0  0  0  0  0
  186.6880  176.7090  137.4230 O   0  0  0  0  0  0  0  0  0  0  0  0
  187.0130  176.3720  138.5920 C   0  0  0  0  0  0  0  0  0  0  0  0
  1  8  1  6  0  0  0
  1 12  1  0  0  0  0
  3 20  1  0  0  0  0
  4 10  1  0  0  0  0
  6  3  1  0  0  0  0
  6  8  1  1  0  0  0
  9 32  1  6  0  0  0
  9  7  1  0  0  0  0
 10 11  2  0  0  0  0
 12  5  2  0  0  0  0
 13  2  1  6  0  0  0
 13 21  1  0  0  0  0
 13  6  1  0  0  0  0
 14 15  1  0  0  0  0
 14  4  2  0  0  0  0
 15 16  2  0  0  0  0
 16 25  1  0  0  0  0
 16 11  1  0  0  0  0
 17  9  1  0  0  0  0
 17  2  1  0  0  0  0
 18  4  1  0  0  0  0
 18  1  1  0  0  0  0
 19 22  1  6  0  0  0
 19 14  1  0  0  0  0
 20 12  1  0  0  0  0
 21  7  1  6  0  0  0
 21 19  1  0  0  0  0
 23 27  1  0  0  0  0
 23 25  2  0  0  0  0
 25 24  1  0  0  0  0
 26 24  1  0  0  0  0
 27 26  2  0  0  0  0
 28 29  1  0  0  0  0
 29 27  1  0  0  0  0
 31 32  2  0  0  0  0
 32 30  1  0  0  0  0
M  END
>  <MODEL>
1

>  <REMARK>
 VINA RESULT:      -7.9      0.000      0.000
  Name = 
  3 active torsions:
  status: ('A' for Active; 'I' for Inactive)
    1  A    between atoms: C_12  and  C_22
    2  A    between atoms: C_13  and  C_31
    3  A    between atoms: C_24  and  C_26
                            x       y       z     vdW  Elec       q    Type
                         _______ _______ _______ _____ _____    ______ ____

>  <TORSDO>
F 3

$$$$
=
 OpenBabel11062419043D

 32 36  0  0  1  0  0  0  0  0999 V2000
  189.7150  174.9040  146.7800 C   0  0  2  0  0  3  0  0  0  0  0  0
  186.6540  177.4260  145.2620 C   0  0  0  0  0  2  0  0  0  0  0  0
  189.8460  177.7710  146.9300 O   0  0  0  0  0  0  0  0  0  0  0  0
  191.0490  174.8400  144.6400 C   0  0  0  0  0  0  0  0  0  0  0  0
  191.9410  175.1800  147.5630 O   0  0  0  0  0  0  0  0  0  0  0  0
  188.5590  177.2110  146.6790 C   0  0  2  0  0  3  0  0  0  0  0  0
  188.0480  176.8320  142.9290 C   0  0  0  0  0  2  0  0  0  0  0  0
  188.4050  175.6770  146.9410 C   0  0  0  0  0  2  0  0  0  0  0  0
  187.1030  178.0280  142.8280 C   0  0  2  0  0  3  0  0  0  0  0  0
  192.0130  173.8370  144.4940 C   0  0  0  0  0  3  0  0  0  0  0  0
  193.1470  174.0530  143.7110 C   0  0  0  0  0  3  0  0  0  0  0  0
  190.8380  175.6780  147.4110 C   0  0  0  0  0  0  0  0  0  0  0  0
  188.1040  177.6140  145.3360 N   0  0  1  0  0  0  0  0  0  0  0  0
  191.2100  176.0770  143.9690 C   0  0  0  0  0  0  0  0  0  0  0  0
  192.3680  176.2800  143.2010 C   0  0  0  0  0  3  0  0  0  0  0  0
  193.3320  175.2760  143.0600 C   0  0  0  0  0  0  0  0  0  0  0  0
  186.0920  178.0510  143.9800 C   0  0  0  0  0  2  0  0  0  0  0  0
  189.9100  174.5610  145.4030 O   0  0  0  0  0  0  0  0  0  0  0  0
  190.2560  177.2330  144.1660 C   0  0  2  0  0  3  0  0  0  0  0  0
  190.5410  177.0520  147.9200 C   0  0  0  0  0  2  0  0  0  0  0  0
  188.7810  176.8230  144.2850 C   0  0  2  0  0  3  0  0  0  0  0  0
  190.4370  178.2450  143.2170 O   0  0  0  0  0  1  0  0  0  0  0  0
  194.6350  175.1500  140.9420 N   0  0  0  0  0  0  0  0  0  0  0  0
  195.9590  176.2210  142.7680 S   0  0  0  0  0  0  0  0  0  0  0  0
  194.5340  175.5040  142.2410 C   0  0  0  0  0  0  0  0  0  0  0  0
  196.7520  176.0850  141.2890 C   0  0  0  0  0  3  0  0  0  0  0  0
  195.8480  175.4760  140.4200 C   0  0  0  0  0  0  0  0  0  0  0  0
  197.5940  175.4820  138.7660 N   0  0  0  0  0  1  0  0  0  0  0  0
  196.2000  175.1560  139.0090 C   0  0  0  0  0  2  0  0  0  0  0  0
  185.0890  178.4790  141.4350 O   0  0  0  0  0  1  0  0  0  0  0  0
  186.9990  177.6700  140.4640 O   0  0  0  0  0  0  0  0  0  0  0  0
  186.4050  178.0450  141.5090 C   0  0  0  0  0  0  0  0  0  0  0  0
  1  8  1  6  0  0  0
  1 12  1  0  0  0  0
  3 20  1  0  0  0  0
  4 18  1  0  0  0  0
  6  3  1  0  0  0  0
  6  8  1  6  0  0  0
  9 32  1  6  0  0  0
  9  7  1  0  0  0  0
  9 17  1  0  0  0  0
 10  4  1  0  0  0  0
 11 10  2  0  0  0  0
 12  5  2  0  0  0  0
 12 20  1  0  0  0  0
 13  2  1  1  0  0  0
 13  6  1  0  0  0  0
 14 19  1  0  0  0  0
 14  4  2  0  0  0  0
 15 14  1  0  0  0  0
 16 15  2  0  0  0  0
 16 11  1  0  0  0  0
 17  2  1  0  0  0  0
 18  1  1  0  0  0  0
 19 22  1  6  0  0  0
 19 21  1  0  0  0  0
 21  7  1  6  0  0  0
 21 13  1  0  0  0  0
 23 25  2  0  0  0  0
 25 24  1  0  0  0  0
 25 16  1  0  0  0  0
 26 24  1  0  0  0  0
 27 23  1  0  0  0  0
 27 26  2  0  0  0  0
 28 29  1  0  0  0  0
 29 27  1  0  0  0  0
 30 32  1  0  0  0  0
 31 32  2  0  0  0  0
M  END
>  <MODEL>
2

>  <REMARK>
 VINA RESULT:      -7.8      3.008      4.584
  Name = 
  3 active torsions:
  status: ('A' for Active; 'I' for Inactive)
    1  A    between atoms: C_12  and  C_22
    2  A    between atoms: C_13  and  C_31
    3  A    between atoms: C_24  and  C_26
                            x       y       z     vdW  Elec       q    Type
                         _______ _______ _______ _____ _____    ______ ____

>  <TORSDO>
F 3

$$$$
=
 OpenBabel11062419043D

 32 36  0  0  1  0  0  0  0  0999 V2000
  190.2260  174.4930  146.0820 C   0  0  2  0  0  3  0  0  0  0  0  0
  187.6010  177.7140  146.9660 C   0  0  0  0  0  2  0  0  0  0  0  0
  190.8530  177.2270  145.4550 O   0  0  0  0  0  0  0  0  0  0  0  0
  189.2950  174.0580  143.7790 C   0  0  0  0  0  0  0  0  0  0  0  0
  192.1960  174.1840  144.7910 O   0  0  0  0  0  0  0  0  0  0  0  0
  189.8140  177.0210  146.4100 C   0  0  2  0  0  3  0  0  0  0  0  0
  186.4730  176.7490  144.6140 C   0  0  0  0  0  2  0  0  0  0  0  0
  189.7020  175.5850  147.0170 C   0  0  0  0  0  2  0  0  0  0  0  0
  186.0180  178.1500  145.0200 C   0  0  2  0  0  3  0  0  0  0  0  0
  189.5920  172.8360  143.1670 C   0  0  0  0  0  3  0  0  0  0  0  0
  189.6670  172.7380  141.7780 C   0  0  0  0  0  3  0  0  0  0  0  0
  191.5030  174.9520  145.4370 C   0  0  0  0  0  0  0  0  0  0  0  0
  188.5390  177.5150  145.8600 N   0  0  1  0  0  0  0  0  0  0  0  0
  189.0410  175.2030  142.9820 C   0  0  0  0  0  0  0  0  0  0  0  0
  189.1390  175.0860  141.5870 C   0  0  0  0  0  3  0  0  0  0  0  0
  189.4410  173.8630  140.9780 C   0  0  0  0  0  0  0  0  0  0  0  0
  186.3460  178.4500  146.4870 C   0  0  0  0  0  2  0  0  0  0  0  0
  189.1920  174.0960  145.1730 O   0  0  0  0  0  0  0  0  0  0  0  0
  188.8120  176.5700  143.5840 C   0  0  2  0  0  3  0  0  0  0  0  0
  191.9400  176.3620  145.6770 C   0  0  0  0  0  2  0  0  0  0  0  0
  187.9810  176.5630  144.8740 C   0  0  2  0  0  3  0  0  0  0  0  0
  188.3150  177.4890  142.6530 O   0  0  0  0  0  1  0  0  0  0  0  0
  190.6400  173.3680  138.8530 N   0  0  0  0  0  0  0  0  0  0  0  0
  188.2920  174.1050  138.4290 S   0  0  0  0  0  0  0  0  0  0  0  0
  189.5280  173.7590  139.5130 C   0  0  0  0  0  0  0  0  0  0  0  0
  189.1940  173.7470  137.0530 C   0  0  0  0  0  3  0  0  0  0  0  0
  190.4530  173.3550  137.5060 C   0  0  0  0  0  0  0  0  0  0  0  0
  191.3950  171.6020  136.1560 N   0  0  0  0  0  1  0  0  0  0  0  0
  191.5510  172.9850  136.5710 C   0  0  0  0  0  2  0  0  0  0  0  0
  184.0770  178.1970  143.4600 O   0  0  0  0  0  0  0  0  0  0  0  0
  183.7690  178.6140  145.6920 O   0  0  0  0  0  1  0  0  0  0  0  0
  184.5620  178.3350  144.7530 C   0  0  0  0  0  0  0  0  0  0  0  0
  1  8  1  6  0  0  0
  3 20  1  0  0  0  0
  3  6  1  0  0  0  0
  4 18  1  0  0  0  0
  5 12  2  0  0  0  0
  6  8  1  6  0  0  0
  7  9  1  0  0  0  0
  9 32  1  1  0  0  0
  9 17  1  0  0  0  0
 10  4  1  0  0  0  0
 11 10  2  0  0  0  0
 12 20  1  0  0  0  0
 12  1  1  0  0  0  0
 13  6  1  0  0  0  0
 13  2  1  1  0  0  0
 14 19  1  0  0  0  0
 14  4  2  0  0  0  0
 15 14  1  0  0  0  0
 16 15  2  0  0  0  0
 16 11  1  0  0  0  0
 17  2  1  0  0  0  0
 18  1  1  0  0  0  0
 19 22  1  6  0  0  0
 19 21  1  0  0  0  0
 21  7  1  6  0  0  0
 21 13  1  0  0  0  0
 23 25  2  0  0  0  0
 24 25  1  0  0  0  0
 25 16  1  0  0  0  0
 26 27  2  0  0  0  0
 26 24  1  0  0  0  0
 27 23  1  0  0  0  0
 28 29  1  0  0  0  0
 29 27  1  0  0  0  0
 30 32  2  0  0  0  0
 32 31  1  0  0  0  0
M  END
>  <MODEL>
3

>  <REMARK>
 VINA RESULT:      -7.8      3.958      6.450
  Name = 
  3 active torsions:
  status: ('A' for Active; 'I' for Inactive)
    1  A    between atoms: C_12  and  C_22
    2  A    between atoms: C_13  and  C_31
    3  A    between atoms: C_24  and  C_26
                            x       y       z     vdW  Elec       q    Type
                         _______ _______ _______ _____ _____    ______ ____

>  <TORSDO>
F 3

$$$$
=
 OpenBabel11062419043D

 32 36  0  0  1  0  0  0  0  0999 V2000
  190.3070  174.3760  145.4500 C   0  0  2  0  0  3  0  0  0  0  0  0
  188.0040  177.4770  147.2160 C   0  0  0  0  0  2  0  0  0  0  0  0
  190.9070  177.1620  145.0800 O   0  0  0  0  0  0  0  0  0  0  0  0
  188.9580  174.2660  143.3220 C   0  0  0  0  0  0  0  0  0  0  0  0
  191.9970  174.2220  143.7880 O   0  0  0  0  0  0  0  0  0  0  0  0
  190.0530  176.8410  146.1750 C   0  0  2  0  0  3  0  0  0  0  0  0
  186.4330  176.8520  145.0080 C   0  0  0  0  0  2  0  0  0  0  0  0
  190.0010  175.3380  146.6010 C   0  0  0  0  0  2  0  0  0  0  0  0
  186.1110  178.1900  145.6700 C   0  0  2  0  0  3  0  0  0  0  0  0
  189.0960  173.1340  142.5120 C   0  0  0  0  0  3  0  0  0  0  0  0
  188.9130  173.2240  141.1320 C   0  0  0  0  0  3  0  0  0  0  0  0
  191.4610  174.9030  144.6460 C   0  0  0  0  0  0  0  0  0  0  0  0
  188.7180  177.4190  145.9400 N   0  0  1  0  0  0  0  0  0  0  0  0
  188.6050  175.5100  142.7420 C   0  0  0  0  0  0  0  0  0  0  0  0
  188.4440  175.5820  141.3490 C   0  0  0  0  0  3  0  0  0  0  0  0
  188.5860  174.4480  140.5410 C   0  0  0  0  0  0  0  0  0  0  0  0
  186.7100  178.2860  147.0770 C   0  0  0  0  0  2  0  0  0  0  0  0
  189.1120  174.1170  144.7040 O   0  0  0  0  0  0  0  0  0  0  0  0
  188.5390  176.7860  143.5490 C   0  0  2  0  0  3  0  0  0  0  0  0
  191.9850  176.2630  144.9820 C   0  0  0  0  0  2  0  0  0  0  0  0
  187.9560  176.6150  144.9590 C   0  0  2  0  0  3  0  0  0  0  0  0
  187.9140  177.8280  142.8540 O   0  0  0  0  0  1  0  0  0  0  0  0
  187.5270  175.3810  138.4910 N   0  0  0  0  0  0  0  0  0  0  0  0
  189.2250  173.6380  137.9310 S   0  0  0  0  0  0  0  0  0  0  0  0
  188.4020  174.5420  139.0840 C   0  0  0  0  0  0  0  0  0  0  0  0
  188.4450  174.3330  136.6110 C   0  0  0  0  0  3  0  0  0  0  0  0
  187.5570  175.2710  137.1350 C   0  0  0  0  0  0  0  0  0  0  0  0
  187.4130  177.1360  135.6240 N   0  0  0  0  0  1  0  0  0  0  0  0
  186.6550  176.0780  136.2680 C   0  0  0  0  0  2  0  0  0  0  0  0
  183.9470  178.2840  146.8980 O   0  0  0  0  0  1  0  0  0  0  0  0
  184.0170  178.7540  144.6570 O   0  0  0  0  0  0  0  0  0  0  0  0
  184.6370  178.4260  145.7030 C   0  0  0  0  0  0  0  0  0  0  0  0
  1  8  1  1  0  0  0
  3  6  1  0  0  0  0
  4 18  1  0  0  0  0
  5 12  2  0  0  0  0
  6  8  1  6  0  0  0
  7  9  1  0  0  0  0
  9 32  1  1  0  0  0
  9 17  1  0  0  0  0
 10  4  2  0  0  0  0
 11 10  1  0  0  0  0
 12 20  1  0  0  0  0
 12  1  1  0  0  0  0
 13  6  1  0  0  0  0
 13  2  1  1  0  0  0
 14  4  1  0  0  0  0
 14 19  1  0  0  0  0
 15 14  2  0  0  0  0
 16 11  2  0  0  0  0
 16 15  1  0  0  0  0
 17  2  1  0  0  0  0
 18  1  1  0  0  0  0
 19 22  1  6  0  0  0
 19 21  1  0  0  0  0
 20  3  1  0  0  0  0
 21  7  1  6  0  0  0
 21 13  1  0  0  0  0
 23 25  2  0  0  0  0
 24 25  1  0  0  0  0
 25 16  1  0  0  0  0
 26 27  2  0  0  0  0
 26 24  1  0  0  0  0
 27 23  1  0  0  0  0
 28 29  1  0  0  0  0
 29 27  1  0  0  0  0
 31 32  2  0  0  0  0
 32 30  1  0  0  0  0
M  END
>  <MODEL>
4

>  <REMARK>
 VINA RESULT:      -7.6      3.438      7.007
  Name = 
  3 active torsions:
  status: ('A' for Active; 'I' for Inactive)
    1  A    between atoms: C_12  and  C_22
    2  A    between atoms: C_13  and  C_31
    3  A    between atoms: C_24  and  C_26
                            x       y       z     vdW  Elec       q    Type
                         _______ _______ _______ _____ _____    ______ ____

>  <TORSDO>
F 3

$$$$
=
 OpenBabel11062419043D

 32 36  0  0  1  0  0  0  0  0999 V2000
  189.4000  174.8040  146.8440 C   0  0  2  0  0  3  0  0  0  0  0  0
  186.2640  177.4450  145.7320 C   0  0  0  0  0  2  0  0  0  0  0  0
  189.7220  177.6590  146.7750 O   0  0  0  0  0  0  0  0  0  0  0  0
  190.3130  174.5290  144.5090 C   0  0  0  0  0  0  0  0  0  0  0  0
  191.7430  174.9690  147.1960 O   0  0  0  0  0  0  0  0  0  0  0  0
  188.3810  177.1770  146.7960 C   0  0  2  0  0  3  0  0  0  0  0  0
  187.1700  176.6270  143.2330 C   0  0  0  0  0  2  0  0  0  0  0  0
  188.1880  175.6750  147.1850 C   0  0  0  0  0  2  0  0  0  0  0  0
  186.2940  177.8770  143.2230 C   0  0  2  0  0  3  0  0  0  0  0  0
  191.1740  173.4550  144.2600 C   0  0  0  0  0  3  0  0  0  0  0  0
  192.1560  173.5480  143.2750 C   0  0  0  0  0  3  0  0  0  0  0  0
  190.6620  175.5320  147.2110 C   0  0  0  0  0  0  0  0  0  0  0  0
  187.7110  177.5350  145.5330 N   0  0  1  0  0  0  0  0  0  0  0  0
  190.4200  175.7130  143.7380 C   0  0  0  0  0  0  0  0  0  0  0  0
  191.4280  175.7920  142.7640 C   0  0  0  0  0  3  0  0  0  0  0  0
  192.2900  174.7180  142.5190 C   0  0  0  0  0  0  0  0  0  0  0  0
  185.5140  178.0350  144.5330 C   0  0  0  0  0  2  0  0  0  0  0  0
  189.3190  174.3720  145.4800 O   0  0  0  0  0  0  0  0  0  0  0  0
  189.5870  176.9410  144.0250 C   0  0  2  0  0  3  0  0  0  0  0  0
  190.5430  176.9510  147.6710 C   0  0  0  0  0  2  0  0  0  0  0  0
  188.1380  176.6430  144.4330 C   0  0  2  0  0  3  0  0  0  0  0  0
  189.6490  177.8840  142.9920 O   0  0  0  0  0  1  0  0  0  0  0  0
  194.5130  175.4460  141.6680 N   0  0  0  0  0  0  0  0  0  0  0  0
  193.2370  174.1820  139.9330 S   0  0  0  0  0  0  0  0  0  0  0  0
  193.3320  174.8160  141.4860 C   0  0  0  0  0  0  0  0  0  0  0  0
  194.7580  174.7240  139.4550 C   0  0  0  0  0  3  0  0  0  0  0  0
  195.2960  175.3890  140.5570 C   0  0  0  0  0  0  0  0  0  0  0  0
  197.4690  175.5170  141.5780 N   0  0  0  0  0  1  0  0  0  0  0  0
  196.6330  176.0400  140.5130 C   0  0  0  0  0  2  0  0  0  0  0  0
  185.8870  177.8060  140.7670 O   0  0  0  0  0  0  0  0  0  0  0  0
  184.1210  177.9180  142.2210 O   0  0  0  0  0  1  0  0  0  0  0  0
  185.3680  177.8700  142.0520 C   0  0  0  0  0  0  0  0  0  0  0  0
  1  8  1  6  0  0  0
  1 12  1  0  0  0  0
  3  6  1  0  0  0  0
  3 20  1  0  0  0  0
  4 18  1  0  0  0  0
  5 12  2  0  0  0  0
  6  8  1  6  0  0  0
  9 32  1  6  0  0  0
  9  7  1  0  0  0  0
  9 17  1  0  0  0  0
 10  4  1  0  0  0  0
 11 10  2  0  0  0  0
 12 20  1  0  0  0  0
 13  2  1  1  0  0  0
 13  6  1  0  0  0  0
 14 19  1  0  0  0  0
 14  4  2  0  0  0  0
 15 14  1  0  0  0  0
 16 15  2  0  0  0  0
 16 11  1  0  0  0  0
 17  2  1  0  0  0  0
 18  1  1  0  0  0  0
 19 22  1  6  0  0  0
 19 21  1  0  0  0  0
 21  7  1  6  0  0  0
 21 13  1  0  0  0  0
 24 25  1  0  0  0  0
 25 23  2  0  0  0  0
 25 16  1  0  0  0  0
 26 24  1  0  0  0  0
 26 27  2  0  0  0  0
 27 23  1  0  0  0  0
 29 27  1  0  0  0  0
 29 28  1  0  0  0  0
 30 32  2  0  0  0  0
 32 31  1  0  0  0  0
M  END
>  <MODEL>
5

>  <REMARK>
 VINA RESULT:      -7.5      3.148      4.602
  Name = 
  3 active torsions:
  status: ('A' for Active; 'I' for Inactive)
    1  A    between atoms: C_12  and  C_22
    2  A    between atoms: C_13  and  C_31
    3  A    between atoms: C_24  and  C_26
                            x       y       z     vdW  Elec       q    Type
                         _______ _______ _______ _____ _____    ______ ____

>  <TORSDO>
F 3

$$$$
=
 OpenBabel11062419043D

 32 36  0  0  1  0  0  0  0  0999 V2000
  194.4020  175.9940  143.6080 C   0  0  2  0  0  3  0  0  0  0  0  0
  194.2130  171.8210  142.8360 C   0  0  0  0  0  2  0  0  0  0  0  0
  194.1720  174.0350  145.6980 O   0  0  0  0  0  0  0  0  0  0  0  0
  191.9080  176.3610  143.5210 C   0  0  0  0  0  0  0  0  0  0  0  0
  194.0350  177.4170  145.4750 O   0  0  0  0  0  0  0  0  0  0  0  0
  194.6040  173.5540  144.4280 C   0  0  2  0  0  3  0  0  0  0  0  0
  191.5770  172.5640  142.3480 C   0  0  0  0  0  2  0  0  0  0  0  0
  195.0670  174.6320  143.3950 C   0  0  0  0  0  2  0  0  0  0  0  0
  191.7990  171.0660  142.5420 C   0  0  2  0  0  3  0  0  0  0  0  0
  191.4400  177.6710  143.3700 C   0  0  0  0  0  3  0  0  0  0  0  0
  190.2040  178.0460  143.8970 C   0  0  0  0  0  3  0  0  0  0  0  0
  194.3580  176.3100  145.0760 C   0  0  0  0  0  0  0  0  0  0  0  0
  193.5900  172.6340  143.8830 N   0  0  1  0  0  0  0  0  0  0  0  0
  191.1120  175.3990  144.1910 C   0  0  0  0  0  0  0  0  0  0  0  0
  189.8800  175.8030  144.7300 C   0  0  0  0  0  3  0  0  0  0  0  0
  189.4160  177.1150  144.5810 C   0  0  0  0  0  0  0  0  0  0  0  0
  193.2780  170.6880  142.4020 C   0  0  0  0  0  2  0  0  0  0  0  0
  193.1340  176.0240  142.9400 O   0  0  0  0  0  0  0  0  0  0  0  0
  191.6050  173.9980  144.4720 C   0  0  2  0  0  3  0  0  0  0  0  0
  194.7990  175.2490  146.0340 C   0  0  0  0  0  2  0  0  0  0  0  0
  192.4340  173.3790  143.3370 C   0  0  2  0  0  3  0  0  0  0  0  0
  190.5790  173.1430  144.8890 O   0  0  0  0  0  1  0  0  0  0  0  0
  187.2040  178.2520  144.4730 N   0  0  0  0  0  0  0  0  0  0  0  0
  187.5550  177.1410  146.6820 S   0  0  0  0  0  0  0  0  0  0  0  0
  188.1160  177.5160  145.1430 C   0  0  0  0  0  0  0  0  0  0  0  0
  186.0860  177.9450  146.5060 C   0  0  0  0  0  3  0  0  0  0  0  0
  186.0890  178.4800  145.2190 C   0  0  0  0  0  0  0  0  0  0  0  0
  184.1780  178.5090  143.7600 N   0  0  0  0  0  1  0  0  0  0  0  0
  184.9580  179.2960  144.6980 C   0  0  0  0  0  2  0  0  0  0  0  0
  190.4020  170.9000  140.4870 O   0  0  0  0  0  0  0  0  0  0  0  0
  190.7510  169.0490  141.7920 O   0  0  0  0  0  1  0  0  0  0  0  0
  190.9580  170.2760  141.5950 C   0  0  0  0  0  0  0  0  0  0  0  0
  1  8  1  1  0  0  0
  1 12  1  0  0  0  0
  3 20  1  0  0  0  0
  4 14  1  0  0  0  0
  6  8  1  6  0  0  0
  6  3  1  0  0  0  0
  7  9  1  0  0  0  0
  9 32  1  6  0  0  0
 10  4  2  0  0  0  0
 10 11  1  0  0  0  0
 11 16  2  0  0  0  0
 12  5  2  0  0  0  0
 12 20  1  0  0  0  0
 13  2  1  6  0  0  0
 13  6  1  0  0  0  0
 14 19  1  0  0  0  0
 14 15  2  0  0  0  0
 16 15  1  0  0  0  0
 16 25  1  0  0  0  0
 17  9  1  0  0  0  0
 17  2  1  0  0  0  0
 18  4  1  0  0  0  0
 18  1  1  0  0  0  0
 19 22  1  6  0  0  0
 21  7  1  1  0  0  0
 21 13  1  0  0  0  0
 21 19  1  0  0  0  0
 23 25  2  0  0  0  0
 23 27  1  0  0  0  0
 25 24  1  0  0  0  0
 26 24  1  0  0  0  0
 27 26  2  0  0  0  0
 28 29  1  0  0  0  0
 29 27  1  0  0  0  0
 30 32  2  0  0  0  0
 32 31  1  0  0  0  0
M  END
>  <MODEL>
6

>  <REMARK>
 VINA RESULT:      -7.2      4.089      7.945
  Name = 
  3 active torsions:
  status: ('A' for Active; 'I' for Inactive)
    1  A    between atoms: C_12  and  C_22
    2  A    between atoms: C_13  and  C_31
    3  A    between atoms: C_24  and  C_26
                            x       y       z     vdW  Elec       q    Type
                         _______ _______ _______ _____ _____    ______ ____

>  <TORSDO>
F 3

$$$$
=
 OpenBabel11062419043D

 32 36  0  0  1  0  0  0  0  0999 V2000
  193.5190  175.4410  143.5050 C   0  0  2  0  0  3  0  0  0  0  0  0
  192.7200  172.1560  140.9330 C   0  0  0  0  0  2  0  0  0  0  0  0
  192.7680  172.8460  144.4850 O   0  0  0  0  0  0  0  0  0  0  0  0
  191.1400  176.2780  143.5610 C   0  0  0  0  0  0  0  0  0  0  0  0
  193.2130  175.9370  145.8080 O   0  0  0  0  0  0  0  0  0  0  0  0
  193.2350  172.9010  143.1390 C   0  0  2  0  0  3  0  0  0  0  0  0
  190.3030  173.5260  140.8000 C   0  0  0  0  0  2  0  0  0  0  0  0
  193.9680  174.2130  142.7100 C   0  0  0  0  0  2  0  0  0  0  0  0
  190.2540  172.0840  140.3000 C   0  0  2  0  0  3  0  0  0  0  0  0
  190.9110  177.5820  144.0110 C   0  0  0  0  0  3  0  0  0  0  0  0
  189.7090  177.9160  144.6360 C   0  0  0  0  0  3  0  0  0  0  0  0
  193.3860  175.0800  144.9570 C   0  0  0  0  0  0  0  0  0  0  0  0
  192.1410  172.5270  142.2250 N   0  0  1  0  0  0  0  0  0  0  0  0
  190.1360  175.2910  143.7160 C   0  0  0  0  0  0  0  0  0  0  0  0
  188.9410  175.6430  144.3640 C   0  0  0  0  0  3  0  0  0  0  0  0
  188.7160  176.9480  144.8160 C   0  0  0  0  0  0  0  0  0  0  0  0
  191.6570  171.5320  140.0230 C   0  0  0  0  0  2  0  0  0  0  0  0
  192.3450  176.0040  142.9060 O   0  0  0  0  0  0  0  0  0  0  0  0
  190.3610  173.8440  143.3420 C   0  0  2  0  0  3  0  0  0  0  0  0
  193.5510  173.6440  145.3400 C   0  0  0  0  0  2  0  0  0  0  0  0
  191.1820  173.6420  142.0600 C   0  0  2  0  0  3  0  0  0  0  0  0
  189.1720  173.1060  143.3160 O   0  0  0  0  0  1  0  0  0  0  0  0
  186.4850  178.0480  144.9090 N   0  0  0  0  0  0  0  0  0  0  0  0
  187.0040  176.8510  147.0380 S   0  0  0  0  0  0  0  0  0  0  0  0
  187.4520  177.3010  145.4820 C   0  0  0  0  0  0  0  0  0  0  0  0
  185.5130  177.6340  146.9970 C   0  0  0  0  0  3  0  0  0  0  0  0
  185.4200  178.2240  145.7380 C   0  0  0  0  0  0  0  0  0  0  0  0
  184.0580  178.9500  143.8940 N   0  0  0  0  0  1  0  0  0  0  0  0
  184.2430  179.0390  145.3310 C   0  0  0  0  0  2  0  0  0  0  0  0
  188.1970  172.6740  139.0260 O   0  0  0  0  0  1  0  0  0  0  0  0
  189.7370  171.2390  138.1210 O   0  0  0  0  0  0  0  0  0  0  0  0
  189.3910  171.9690  139.0880 C   0  0  0  0  0  0  0  0  0  0  0  0
  1  8  1  6  0  0  0
  1 12  1  0  0  0  0
  3 20  1  0  0  0  0
  4 14  2  0  0  0  0
  4 10  1  0  0  0  0
  6  8  1  6  0  0  0
  6  3  1  0  0  0  0
  9 32  1  6  0  0  0
  9  7  1  0  0  0  0
 10 11  2  0  0  0  0
 11 16  1  0  0  0  0
 12 20  1  0  0  0  0
 12  5  2  0  0  0  0
 13  2  1  6  0  0  0
 13  6  1  0  0  0  0
 14 15  1  0  0  0  0
 15 16  2  0  0  0  0
 16 25  1  0  0  0  0
 17  9  1  0  0  0  0
 17  2  1  0  0  0  0
 18  1  1  0  0  0  0
 18  4  1  0  0  0  0
 19 22  1  6  0  0  0
 19 14  1  0  0  0  0
 21  7  1  6  0  0  0
 21 13  1  0  0  0  0
 21 19  1  0  0  0  0
 23 25  2  0  0  0  0
 23 27  1  0  0  0  0
 25 24  1  0  0  0  0
 26 24  1  0  0  0  0
 27 26  2  0  0  0  0
 28 29  1  0  0  0  0
 29 27  1  0  0  0  0
 30 32  1  0  0  0  0
 31 32  2  0  0  0  0
M  END
>  <MODEL>
7

>  <REMARK>
 VINA RESULT:      -7.2      3.855      7.239
  Name = 
  3 active torsions:
  status: ('A' for Active; 'I' for Inactive)
    1  A    between atoms: C_12  and  C_22
    2  A    between atoms: C_13  and  C_31
    3  A    between atoms: C_24  and  C_26
                            x       y       z     vdW  Elec       q    Type
                         _______ _______ _______ _____ _____    ______ ____

>  <TORSDO>
F 3

$$$$
=
 OpenBabel11062419043D

 32 36  0  0  1  0  0  0  0  0999 V2000
  185.5670  177.2680  147.0090 C   0  0  2  0  0  3  0  0  0  0  0  0
  183.2770  178.7250  143.7410 C   0  0  0  0  0  2  0  0  0  0  0  0
  185.8370  179.9410  145.9900 O   0  0  0  0  0  0  0  0  0  0  0  0
  187.4740  176.4140  145.5950 C   0  0  0  0  0  0  0  0  0  0  0  0
  187.4680  177.9920  148.2350 O   0  0  0  0  0  0  0  0  0  0  0  0
  184.6500  179.2430  145.6200 C   0  0  2  0  0  3  0  0  0  0  0  0
  185.2640  177.3140  142.4000 C   0  0  0  0  0  2  0  0  0  0  0  0
  184.3230  177.9490  146.4330 C   0  0  0  0  0  2  0  0  0  0  0  0
  184.4750  178.2940  141.5350 C   0  0  2  0  0  3  0  0  0  0  0  0
  188.3680  175.5080  146.1740 C   0  0  0  0  0  3  0  0  0  0  0  0
  189.6970  175.4560  145.7520 C   0  0  0  0  0  3  0  0  0  0  0  0
  186.4970  178.3070  147.5680 C   0  0  0  0  0  0  0  0  0  0  0  0
  184.6470  179.0230  144.1630 N   0  0  1  0  0  0  0  0  0  0  0  0
  187.9110  177.2710  144.5550 C   0  0  0  0  0  0  0  0  0  0  0  0
  189.2570  177.2150  144.1590 C   0  0  0  0  0  3  0  0  0  0  0  0
  190.1500  176.3100  144.7420 C   0  0  0  0  0  0  0  0  0  0  0  0
  183.1680  178.7240  142.2120 C   0  0  0  0  0  2  0  0  0  0  0  0
  186.1430  176.4000  146.0250 O   0  0  0  0  0  0  0  0  0  0  0  0
  187.0200  178.3380  143.9600 C   0  0  2  0  0  3  0  0  0  0  0  0
  186.1530  179.7460  147.3470 C   0  0  0  0  0  2  0  0  0  0  0  0
  185.5540  177.9160  143.7890 C   0  0  2  0  0  3  0  0  0  0  0  0
  187.5450  178.8760  142.7790 O   0  0  0  0  0  1  0  0  0  0  0  0
  192.6010  176.5530  145.1050 N   0  0  0  0  0  0  0  0  0  0  0  0
  192.0890  175.8420  142.7670 S   0  0  0  0  0  0  0  0  0  0  0  0
  191.5540  176.2590  144.3040 C   0  0  0  0  0  0  0  0  0  0  0  0
  193.7240  176.0390  143.1180 C   0  0  0  0  0  3  0  0  0  0  0  0
  193.7890  176.4250  144.4560 C   0  0  0  0  0  0  0  0  0  0  0  0
  194.9380  177.9120  145.9570 N   0  0  0  0  0  1  0  0  0  0  0  0
  195.0810  176.7260  145.1300 C   0  0  0  0  0  2  0  0  0  0  0  0
  182.8980  177.5380  139.7630 O   0  0  0  0  0  1  0  0  0  0  0  0
  185.1590  177.3950  139.4260 O   0  0  0  0  0  0  0  0  0  0  0  0
  184.2070  177.7180  140.1850 C   0  0  0  0  0  0  0  0  0  0  0  0
  1  8  1  6  0  0  0
  1 12  1  0  0  0  0
  3 20  1  0  0  0  0
  4 18  1  0  0  0  0
  4 10  1  0  0  0  0
  6  3  1  0  0  0  0
  6  8  1  1  0  0  0
  9 32  1  6  0  0  0
  9 17  1  0  0  0  0
  9  7  1  0  0  0  0
 11 10  2  0  0  0  0
 12  5  2  0  0  0  0
 13  2  1  1  0  0  0
 13  6  1  0  0  0  0
 14  4  2  0  0  0  0
 15 14  1  0  0  0  0
 15 16  2  0  0  0  0
 16 11  1  0  0  0  0
 17  2  1  0  0  0  0
 18  1  1  0  0  0  0
 19 22  1  6  0  0  0
 19 14  1  0  0  0  0
 20 12  1  0  0  0  0
 21  7  1  6  0  0  0
 21 19  1  0  0  0  0
 21 13  1  0  0  0  0
 24 26  1  0  0  0  0
 24 25  1  0  0  0  0
 25 16  1  0  0  0  0
 25 23  2  0  0  0  0
 26 27  2  0  0  0  0
 27 23  1  0  0  0  0
 27 29  1  0  0  0  0
 29 28  1  0  0  0  0
 30 32  1  0  0  0  0
 31 32  2  0  0  0  0
M  END
>  <MODEL>
8

>  <REMARK>
 VINA RESULT:      -7.1      1.887      2.382
  Name = 
  3 active torsions:
  status: ('A' for Active; 'I' for Inactive)
    1  A    between atoms: C_12  and  C_22
    2  A    between atoms: C_13  and  C_31
    3  A    between atoms: C_24  and  C_26
                            x       y       z     vdW  Elec       q    Type
                         _______ _______ _______ _____ _____    ______ ____

>  <TORSDO>
F 3

$$$$
=
 OpenBabel11062419043D

 32 36  0  0  1  0  0  0  0  0999 V2000
  190.1510  176.3370  146.8790 C   0  0  2  0  0  3  0  0  0  0  0  0
  193.3930  174.7200  144.6620 C   0  0  0  0  0  2  0  0  0  0  0  0
  190.0900  173.7030  145.7330 O   0  0  0  0  0  0  0  0  0  0  0  0
  188.9890  177.3560  144.8860 C   0  0  0  0  0  0  0  0  0  0  0  0
  187.8790  175.7640  147.2710 O   0  0  0  0  0  0  0  0  0  0  0  0
  191.3760  174.3040  145.8640 C   0  0  2  0  0  3  0  0  0  0  0  0
  192.1700  176.3000  142.7260 C   0  0  0  0  0  2  0  0  0  0  0  0
  191.4660  175.5600  146.7900 C   0  0  0  0  0  2  0  0  0  0  0  0
  193.1540  175.2650  142.1860 C   0  0  2  0  0  3  0  0  0  0  0  0
  188.0110  178.3290  145.1190 C   0  0  0  0  0  3  0  0  0  0  0  0
  186.9490  178.4930  144.2300 C   0  0  0  0  0  3  0  0  0  0  0  0
  189.0040  175.3750  147.0070 C   0  0  0  0  0  0  0  0  0  0  0  0
  191.9470  174.5330  144.5250 N   0  0  1  0  0  0  0  0  0  0  0  0
  188.9160  176.5460  143.7250 C   0  0  0  0  0  0  0  0  0  0  0  0
  187.8280  176.7150  142.8540 C   0  0  0  0  0  3  0  0  0  0  0  0
  186.8500  177.6870  143.0910 C   0  0  0  0  0  0  0  0  0  0  0  0
  194.0710  174.7230  143.2880 C   0  0  0  0  0  2  0  0  0  0  0  0
  190.0550  177.2570  145.7850 O   0  0  0  0  0  0  0  0  0  0  0  0
  189.8840  175.4140  143.4700 C   0  0  2  0  0  3  0  0  0  0  0  0
  189.2990  173.9140  146.8770 C   0  0  0  0  0  2  0  0  0  0  0  0
  191.3330  175.7140  143.8790 C   0  0  2  0  0  3  0  0  0  0  0  0
  189.8080  174.9290  142.1590 O   0  0  0  0  0  1  0  0  0  0  0  0
  184.4380  177.9840  142.5520 N   0  0  0  0  0  0  0  0  0  0  0  0
  185.8360  177.9150  140.4840 S   0  0  0  0  0  0  0  0  0  0  0  0
  185.7240  177.8570  142.1600 C   0  0  0  0  0  0  0  0  0  0  0  0
  184.1830  178.1110  140.2290 C   0  0  0  0  0  3  0  0  0  0  0  0
  183.5960  178.1310  141.4930 C   0  0  0  0  0  0  0  0  0  0  0  0
  181.5360  178.8860  140.5110 N   0  0  0  0  0  1  0  0  0  0  0  0
  182.1250  178.2590  141.6810 C   0  0  0  0  0  2  0  0  0  0  0  0
  193.8160  175.2940  139.7850 O   0  0  0  0  0  0  0  0  0  0  0  0
  194.7520  176.7830  141.2530 O   0  0  0  0  0  1  0  0  0  0  0  0
  193.9540  175.8270  141.0590 C   0  0  0  0  0  0  0  0  0  0  0  0
  1  8  1  6  0  0  0
  1 12  1  0  0  0  0
  3  6  1  0  0  0  0
  3 20  1  0  0  0  0
  4 10  1  0  0  0  0
  4 18  1  0  0  0  0
  6  8  1  6  0  0  0
  9 32  1  6  0  0  0
  9  7  1  0  0  0  0
  9 17  1  0  0  0  0
 11 10  2  0  0  0  0
 12  5  2  0  0  0  0
 13  2  1  1  0  0  0
 13  6  1  0  0  0  0
 14  4  2  0  0  0  0
 15 16  2  0  0  0  0
 15 14  1  0  0  0  0
 16 11  1  0  0  0  0
 17  2  1  0  0  0  0
 18  1  1  0  0  0  0
 19 22  1  6  0  0  0
 19 14  1  0  0  0  0
 19 21  1  0  0  0  0
 20 12  1  0  0  0  0
 21  7  1  6  0  0  0
 21 13  1  0  0  0  0
 24 25  1  0  0  0  0
 25 23  2  0  0  0  0
 25 16  1  0  0  0  0
 26 24  1  0  0  0  0
 26 27  2  0  0  0  0
 27 29  1  0  0  0  0
 27 23  1  0  0  0  0
 28 29  1  0  0  0  0
 30 32  2  0  0  0  0
 32 31  1  0  0  0  0
M  END
>  <MODEL>
9

>  <REMARK>
 VINA RESULT:      -6.9      3.241      7.494
  Name = 
  3 active torsions:
  status: ('A' for Active; 'I' for Inactive)
    1  A    between atoms: C_12  and  C_22
    2  A    between atoms: C_13  and  C_31
    3  A    between atoms: C_24  and  C_26
                            x       y       z     vdW  Elec       q    Type
                         _______ _______ _______ _____ _____    ______ ____

>  <TORSDO>
F 3

$$$$
