=
 OpenBabel11062420593D

 31 33  0  0  1  0  0  0  0  0999 V2000
  184.7460  178.2350  143.6970 C   0  0  0  0  0  2  0  0  0  0  0  0
  186.8130  176.5930  146.8620 N   0  0  0  0  0  0  0  0  0  0  0  0
  185.6440  177.1020  147.0950 C   0  0  0  0  0  3  0  0  0  0  0  0
  186.6270  177.6300  142.1760 C   0  0  0  0  0  2  0  0  0  0  0  0
  187.5020  176.7620  145.6110 C   0  0  0  0  0  0  0  0  0  0  0  0
  187.6360  177.7360  143.3140 C   0  0  0  0  0  2  0  0  0  0  0  0
  184.9940  177.8890  146.0980 N   0  0  0  0  0  0  0  0  0  0  0  0
  185.4700  178.6010  142.4010 C   0  0  1  0  0  3  0  0  0  0  0  0
  185.6930  178.3270  144.8930 C   0  0  0  0  0  0  0  0  0  0  0  0
  186.9580  177.5320  144.6400 C   0  0  0  0  0  0  0  0  0  0  0  0
  189.9850  176.6160  145.9760 C   0  0  0  0  0  0  0  0  0  0  0  0
  188.8380  175.0190  144.5980 O   0  0  0  0  0  1  0  0  0  0  0  0
  188.7660  176.0940  145.4200 N   0  0  0  0  0  0  0  0  0  0  0  0
  189.9630  177.6070  146.7560 O   0  0  0  0  0  0  0  0  0  0  0  0
  193.5740  176.8160  144.7360 C   0  0  0  0  0  2  0  0  0  0  0  0
  191.2990  176.0000  145.6020 C   0  0  1  0  0  3  0  0  0  0  0  0
  194.0110  175.3970  145.0980 C   0  0  2  0  0  3  0  0  0  0  0  0
  193.4270  174.9350  146.4430 C   0  0  0  0  0  2  0  0  0  0  0  0
  192.0480  176.9090  144.6150 C   0  0  0  0  0  2  0  0  0  0  0  0
  192.1390  175.6700  146.8360 C   0  0  0  0  0  2  0  0  0  0  0  0
  195.4980  175.2810  145.1030 C   0  0  0  0  0  0  0  0  0  0  0  0
  196.2450  175.9610  144.1500 O   0  0  0  0  0  0  0  0  0  0  0  0
  196.0820  174.5620  145.9590 O   0  0  0  0  0  1  0  0  0  0  0  0
  184.5820  178.5220  141.3270 O   0  0  0  0  0  0  0  0  0  0  0  0
  183.3550  178.1800  141.8970 C   0  0  0  0  0  2  0  0  0  0  0  0
  182.3030  178.0860  140.8120 C   0  0  0  0  0  2  0  0  0  0  0  0
  180.9290  178.2880  141.4220 C   0  0  0  0  0  2  0  0  0  0  0  0
  179.8990  178.5480  140.3370 C   0  0  1  0  0  3  0  0  0  0  0  0
  178.7880  177.6190  140.4780 N   0  0  0  0  0  1  0  0  0  0  0  0
  179.4010  179.9490  140.4580 C   0  0  0  0  0  3  0  0  0  0  0  0
  180.1550  180.8910  140.2760 O   0  0  0  0  0  0  0  0  0  0  0  0
  1  9  1  0  0  0  0
  2  3  1  0  0  0  0
  4  8  1  0  0  0  0
  4  6  1  0  0  0  0
  5  2  2  0  0  0  0
  6 10  1  0  0  0  0
  7  3  2  0  0  0  0
  8 24  1  6  0  0  0
  8  1  1  0  0  0  0
  9  7  1  0  0  0  0
 10  9  2  0  0  0  0
 10  5  1  0  0  0  0
 11 14  2  0  0  0  0
 12 13  1  0  0  0  0
 13  5  1  0  0  0  0
 13 11  1  0  0  0  0
 15 17  1  0  0  0  0
 16 11  1  1  0  0  0
 16 20  1  0  0  0  0
 17 21  1  1  0  0  0
 17 18  1  0  0  0  0
 18 20  1  0  0  0  0
 19 15  1  0  0  0  0
 19 16  1  0  0  0  0
 21 23  1  0  0  0  0
 22 21  2  0  0  0  0
 24 25  1  0  0  0  0
 26 27  1  0  0  0  0
 26 25  1  0  0  0  0
 28 30  1  0  0  0  0
 28 29  1  1  0  0  0
 28 27  1  0  0  0  0
 31 30  2  0  0  0  0
M  END
>  <MODEL>
1

>  <REMARK>
 VINA RESULT:      -7.2      0.000      0.000
  Name = 
  9 active torsions:
  status: ('A' for Active; 'I' for Inactive)
    1  A    between atoms: C_1  and  CA_6
    2  A    between atoms: C_2  and  C_11
    3  A    between atoms: C_3  and  CA_6
    4  A    between atoms: C_3  and  C_9
    5  A    between atoms: O_4  and  C_20
    6  A    between atoms: O_4  and  C_24
    7  A    between atoms: C_9  and  C_24
    8  A    between atoms: C_13  and  C_23
    9  A    between atoms: C_15  and  N_27
                            x       y       z     vdW  Elec       q    Type
                         _______ _______ _______ _____ _____    ______ ____

>  <TORSDO>
F 9

$$$$
=
 OpenBabel11062420593D

 31 33  0  0  1  0  0  0  0  0999 V2000
  188.4150  177.2970  145.5810 C   0  0  0  0  0  2  0  0  0  0  0  0
  192.2600  177.1900  144.1020 N   0  0  0  0  0  0  0  0  0  0  0  0
  191.4510  178.0860  143.6330 C   0  0  0  0  0  3  0  0  0  0  0  0
  188.9590  175.3890  147.0910 C   0  0  0  0  0  2  0  0  0  0  0  0
  191.8240  176.1110  144.9480 C   0  0  0  0  0  0  0  0  0  0  0  0
  190.0030  174.8590  146.1130 C   0  0  0  0  0  2  0  0  0  0  0  0
  190.0560  178.0180  143.9290 N   0  0  0  0  0  0  0  0  0  0  0  0
  187.8380  176.1000  146.3370 C   0  0  1  0  0  3  0  0  0  0  0  0
  189.4670  176.8460  144.5690 C   0  0  0  0  0  0  0  0  0  0  0  0
  190.5090  175.9660  145.2320 C   0  0  0  0  0  0  0  0  0  0  0  0
  193.2560  174.0550  144.7440 C   0  0  0  0  0  0  0  0  0  0  0  0
  193.2460  175.3650  146.7570 O   0  0  0  0  0  1  0  0  0  0  0  0
  192.8120  175.2060  145.4830 N   0  0  0  0  0  0  0  0  0  0  0  0
  192.8870  173.8750  143.5520 O   0  0  0  0  0  0  0  0  0  0  0  0
  194.9520  170.6560  144.9140 C   0  0  0  0  0  2  0  0  0  0  0  0
  194.1390  173.0410  145.4060 C   0  0  1  0  0  3  0  0  0  0  0  0
  195.9280  170.9540  146.0510 C   0  0  2  0  0  3  0  0  0  0  0  0
  196.5100  172.3740  145.9600 C   0  0  0  0  0  2  0  0  0  0  0  0
  193.7650  171.6270  144.9370 C   0  0  0  0  0  2  0  0  0  0  0  0
  195.6200  173.3510  145.1820 C   0  0  0  0  0  2  0  0  0  0  0  0
  197.0220  169.9400  146.0960 C   0  0  0  0  0  0  0  0  0  0  0  0
  197.1390  169.1030  147.1980 O   0  0  0  0  0  1  0  0  0  0  0  0
  197.8470  169.8440  145.1470 O   0  0  0  0  0  0  0  0  0  0  0  0
  186.8710  176.5360  147.2440 O   0  0  0  0  0  0  0  0  0  0  0  0
  186.3650  177.7140  146.6930 C   0  0  0  0  0  2  0  0  0  0  0  0
  185.0340  177.4300  146.0300 C   0  0  0  0  0  2  0  0  0  0  0  0
  184.2760  178.7300  145.8410 C   0  0  0  0  0  2  0  0  0  0  0  0
  184.3180  179.1630  144.3860 C   0  0  1  0  0  3  0  0  0  0  0  0
  185.4220  180.0860  144.1780 N   0  0  0  0  0  1  0  0  0  0  0  0
  184.4980  177.9600  143.5210 C   0  0  0  0  0  3  0  0  0  0  0  0
  185.2520  177.9960  142.5630 O   0  0  0  0  0  0  0  0  0  0  0  0
  1  8  1  0  0  0  0
  2  5  1  0  0  0  0
  3  7  1  0  0  0  0
  3  2  2  0  0  0  0
  5 10  2  0  0  0  0
  5 13  1  0  0  0  0
  6  4  1  0  0  0  0
  7  9  2  0  0  0  0
  8  4  1  0  0  0  0
  8 24  1  1  0  0  0
  9 10  1  0  0  0  0
  9  1  1  0  0  0  0
 10  6  1  0  0  0  0
 11 13  1  0  0  0  0
 13 12  1  0  0  0  0
 14 11  2  0  0  0  0
 15 19  1  0  0  0  0
 15 17  1  0  0  0  0
 16 11  1  6  0  0  0
 17 21  1  6  0  0  0
 18 17  1  0  0  0  0
 19 16  1  0  0  0  0
 20 16  1  0  0  0  0
 20 18  1  0  0  0  0
 21 22  1  0  0  0  0
 23 21  2  0  0  0  0
 25 24  1  0  0  0  0
 26 25  1  0  0  0  0
 27 26  1  0  0  0  0
 28 29  1  1  0  0  0
 28 27  1  0  0  0  0
 30 28  1  0  0  0  0
 31 30  2  0  0  0  0
M  END
>  <MODEL>
2

>  <REMARK>
 VINA RESULT:      -7.0      3.310      5.523
  Name = 
  9 active torsions:
  status: ('A' for Active; 'I' for Inactive)
    1  A    between atoms: C_1  and  CA_6
    2  A    between atoms: C_2  and  C_11
    3  A    between atoms: C_3  and  CA_6
    4  A    between atoms: C_3  and  C_9
    5  A    between atoms: O_4  and  C_20
    6  A    between atoms: O_4  and  C_24
    7  A    between atoms: C_9  and  C_24
    8  A    between atoms: C_13  and  C_23
    9  A    between atoms: C_15  and  N_27
                            x       y       z     vdW  Elec       q    Type
                         _______ _______ _______ _____ _____    ______ ____

>  <TORSDO>
F 9

$$$$
=
 OpenBabel11062420593D

 31 33  0  0  1  0  0  0  0  0999 V2000
  186.9330  177.5850  142.3830 C   0  0  0  0  0  2  0  0  0  0  0  0
  189.4500  174.4810  141.3770 N   0  0  0  0  0  0  0  0  0  0  0  0
  188.5530  174.8420  140.5160 C   0  0  0  0  0  3  0  0  0  0  0  0
  188.1010  177.8010  144.5750 C   0  0  0  0  0  2  0  0  0  0  0  0
  189.4700  174.9640  142.7310 C   0  0  0  0  0  0  0  0  0  0  0  0
  188.4650  176.3200  144.5740 C   0  0  0  0  0  2  0  0  0  0  0  0
  187.5110  175.7390  140.8990 N   0  0  0  0  0  0  0  0  0  0  0  0
  186.7820  178.0230  143.8390 C   0  0  1  0  0  3  0  0  0  0  0  0
  187.2900  176.1020  142.2950 C   0  0  0  0  0  0  0  0  0  0  0  0
  188.4870  175.7840  143.1700 C   0  0  0  0  0  0  0  0  0  0  0  0
  191.8180  175.2450  143.5840 C   0  0  0  0  0  0  0  0  0  0  0  0
  190.4290  173.4420  144.3480 O   0  0  0  0  0  1  0  0  0  0  0  0
  190.5540  174.5620  143.5950 N   0  0  0  0  0  0  0  0  0  0  0  0
  191.9740  176.2990  142.9080 O   0  0  0  0  0  0  0  0  0  0  0  0
  195.3490  173.8570  143.8370 C   0  0  0  0  0  2  0  0  0  0  0  0
  192.9750  174.6840  144.3550 C   0  0  1  0  0  3  0  0  0  0  0  0
  195.5010  173.9180  145.3570 C   0  0  2  0  0  3  0  0  0  0  0  0
  194.8640  175.1830  145.9540 C   0  0  0  0  0  2  0  0  0  0  0  0
  193.8710  173.8460  143.4310 C   0  0  0  0  0  2  0  0  0  0  0  0
  193.7570  175.7830  145.0770 C   0  0  0  0  0  2  0  0  0  0  0  0
  196.9350  173.8140  145.7550 C   0  0  0  0  0  0  0  0  0  0  0  0
  197.9280  173.9430  144.7930 O   0  0  0  0  0  0  0  0  0  0  0  0
  197.2520  173.5990  146.9560 O   0  0  0  0  0  1  0  0  0  0  0  0
  186.4430  179.3770  143.8920 O   0  0  0  0  0  0  0  0  0  0  0  0
  185.0490  179.4020  143.8370 C   0  0  0  0  0  2  0  0  0  0  0  0
  184.4910  178.2550  144.6540 C   0  0  0  0  0  2  0  0  0  0  0  0
  184.1040  178.7580  146.0310 C   0  0  0  0  0  2  0  0  0  0  0  0
  184.7160  177.8820  147.1090 C   0  0  1  0  0  3  0  0  0  0  0  0
  185.0590  176.5820  146.5530 N   0  0  0  0  0  1  0  0  0  0  0  0
  185.9460  178.5410  147.6390 C   0  0  0  0  0  3  0  0  0  0  0  0
  186.0360  179.7580  147.6550 O   0  0  0  0  0  0  0  0  0  0  0  0
  1  8  1  0  0  0  0
  2  5  1  0  0  0  0
  3  7  1  0  0  0  0
  3  2  2  0  0  0  0
  5 10  2  0  0  0  0
  5 13  1  0  0  0  0
  6  4  1  0  0  0  0
  7  9  2  0  0  0  0
  8 24  1  6  0  0  0
  8  4  1  0  0  0  0
  9  1  1  0  0  0  0
  9 10  1  0  0  0  0
 10  6  1  0  0  0  0
 11 13  1  0  0  0  0
 13 12  1  0  0  0  0
 14 11  2  0  0  0  0
 15 17  1  0  0  0  0
 16 11  1  6  0  0  0
 16 20  1  0  0  0  0
 17 21  1  6  0  0  0
 17 18  1  0  0  0  0
 19 15  1  0  0  0  0
 19 16  1  0  0  0  0
 20 18  1  0  0  0  0
 21 23  1  0  0  0  0
 22 21  2  0  0  0  0
 25 24  1  0  0  0  0
 25 26  1  0  0  0  0
 26 27  1  0  0  0  0
 27 28  1  0  0  0  0
 28 29  1  6  0  0  0
 28 30  1  0  0  0  0
 30 31  2  0  0  0  0
M  END
>  <MODEL>
3

>  <REMARK>
 VINA RESULT:      -6.7      3.412      4.774
  Name = 
  9 active torsions:
  status: ('A' for Active; 'I' for Inactive)
    1  A    between atoms: C_1  and  CA_6
    2  A    between atoms: C_2  and  C_11
    3  A    between atoms: C_3  and  CA_6
    4  A    between atoms: C_3  and  C_9
    5  A    between atoms: O_4  and  C_20
    6  A    between atoms: O_4  and  C_24
    7  A    between atoms: C_9  and  C_24
    8  A    between atoms: C_13  and  C_23
    9  A    between atoms: C_15  and  N_27
                            x       y       z     vdW  Elec       q    Type
                         _______ _______ _______ _____ _____    ______ ____

>  <TORSDO>
F 9

$$$$
=
 OpenBabel11062420593D

 31 33  0  0  1  0  0  0  0  0999 V2000
  195.1740  174.2690  144.1350 C   0  0  0  0  0  2  0  0  0  0  0  0
  191.8080  175.5850  142.1540 N   0  0  0  0  0  0  0  0  0  0  0  0
  192.6400  174.8320  141.5090 C   0  0  0  0  0  3  0  0  0  0  0  0
  194.4230  175.4780  146.1820 C   0  0  0  0  0  2  0  0  0  0  0  0
  192.1060  176.1500  143.4440 C   0  0  0  0  0  0  0  0  0  0  0  0
  193.6820  176.5170  145.3470 C   0  0  0  0  0  2  0  0  0  0  0  0
  193.9260  174.5470  142.0590 N   0  0  0  0  0  0  0  0  0  0  0  0
  195.6380  174.9540  145.4200 C   0  0  1  0  0  3  0  0  0  0  0  0
  194.4270  175.2520  143.2340 C   0  0  0  0  0  0  0  0  0  0  0  0
  193.3230  175.9520  144.0010 C   0  0  0  0  0  0  0  0  0  0  0  0
  189.9760  176.2790  144.7720 C   0  0  0  0  0  0  0  0  0  0  0  0
  191.0990  178.2690  144.0330 O   0  0  0  0  0  1  0  0  0  0  0  0
  191.0860  176.9160  144.1180 N   0  0  0  0  0  0  0  0  0  0  0  0
  189.9300  175.0230  144.8850 O   0  0  0  0  0  0  0  0  0  0  0  0
  186.4300  177.6420  144.6030 C   0  0  0  0  0  2  0  0  0  0  0  0
  188.8440  177.1100  145.2960 C   0  0  1  0  0  3  0  0  0  0  0  0
  186.3500  178.2220  146.0140 C   0  0  2  0  0  3  0  0  0  0  0  0
  187.0430  177.3240  147.0520 C   0  0  0  0  0  2  0  0  0  0  0  0
  187.8880  177.4840  144.1530 C   0  0  0  0  0  2  0  0  0  0  0  0
  188.1210  176.4140  146.4510 C   0  0  0  0  0  2  0  0  0  0  0  0
  184.9340  178.4820  146.4060 C   0  0  0  0  0  0  0  0  0  0  0  0
  183.9840  178.7310  145.4250 O   0  0  0  0  0  0  0  0  0  0  0  0
  184.5960  178.4880  147.6200 O   0  0  0  0  0  1  0  0  0  0  0  0
  196.3280  174.0400  146.2190 O   0  0  0  0  0  0  0  0  0  0  0  0
  196.8040  173.0730  145.3320 C   0  0  0  0  0  2  0  0  0  0  0  0
  196.8490  171.7290  146.0270 C   0  0  0  0  0  2  0  0  0  0  0  0
  195.5320  171.0070  145.8180 C   0  0  0  0  0  2  0  0  0  0  0  0
  195.7480  169.5040  145.7910 C   0  0  1  0  0  3  0  0  0  0  0  0
  197.0540  169.2030  145.2270 N   0  0  0  0  0  1  0  0  0  0  0  0
  195.6660  168.9710  147.1830 C   0  0  0  0  0  3  0  0  0  0  0  0
  194.5880  168.8750  147.7460 O   0  0  0  0  0  0  0  0  0  0  0  0
  1  8  1  0  0  0  0
  2  5  1  0  0  0  0
  3  7  1  0  0  0  0
  3  2  2  0  0  0  0
  5 10  2  0  0  0  0
  5 13  1  0  0  0  0
  6  4  1  0  0  0  0
  7  9  2  0  0  0  0
  8  4  1  0  0  0  0
  8 24  1  1  0  0  0
  9 10  1  0  0  0  0
  9  1  1  0  0  0  0
 10  6  1  0  0  0  0
 11 14  2  0  0  0  0
 12 13  1  0  0  0  0
 13 11  1  0  0  0  0
 15 17  1  0  0  0  0
 16 11  1  6  0  0  0
 16 20  1  0  0  0  0
 17 21  1  1  0  0  0
 17 18  1  0  0  0  0
 19 15  1  0  0  0  0
 19 16  1  0  0  0  0
 20 18  1  0  0  0  0
 21 23  1  0  0  0  0
 22 21  2  0  0  0  0
 25 26  1  0  0  0  0
 25 24  1  0  0  0  0
 27 26  1  0  0  0  0
 28 29  1  1  0  0  0
 28 27  1  0  0  0  0
 28 30  1  0  0  0  0
 30 31  2  0  0  0  0
M  END
>  <MODEL>
4

>  <REMARK>
 VINA RESULT:      -6.6      4.319     11.421
  Name = 
  9 active torsions:
  status: ('A' for Active; 'I' for Inactive)
    1  A    between atoms: C_1  and  CA_6
    2  A    between atoms: C_2  and  C_11
    3  A    between atoms: C_3  and  CA_6
    4  A    between atoms: C_3  and  C_9
    5  A    between atoms: O_4  and  C_20
    6  A    between atoms: O_4  and  C_24
    7  A    between atoms: C_9  and  C_24
    8  A    between atoms: C_13  and  C_23
    9  A    between atoms: C_15  and  N_27
                            x       y       z     vdW  Elec       q    Type
                         _______ _______ _______ _____ _____    ______ ____

>  <TORSDO>
F 9

$$$$
=
 OpenBabel11062420593D

 31 33  0  0  1  0  0  0  0  0999 V2000
  194.6580  174.8750  143.2810 C   0  0  0  0  0  2  0  0  0  0  0  0
  191.1240  174.2770  141.2470 N   0  0  0  0  0  0  0  0  0  0  0  0
  192.2340  174.0320  140.6260 C   0  0  0  0  0  3  0  0  0  0  0  0
  193.3620  175.5810  145.2910 C   0  0  0  0  0  2  0  0  0  0  0  0
  191.0740  174.9410  142.5220 C   0  0  0  0  0  0  0  0  0  0  0  0
  192.2150  176.0890  144.4250 C   0  0  0  0  0  2  0  0  0  0  0  0
  193.4780  174.4440  141.1920 N   0  0  0  0  0  0  0  0  0  0  0  0
  194.6900  175.7250  144.5510 C   0  0  1  0  0  3  0  0  0  0  0  0
  193.5340  175.3300  142.3510 C   0  0  0  0  0  0  0  0  0  0  0  0
  192.2140  175.3940  143.0920 C   0  0  0  0  0  0  0  0  0  0  0  0
  189.0730  176.3440  143.1120 C   0  0  0  0  0  0  0  0  0  0  0  0
  189.3110  174.1080  143.9550 O   0  0  0  0  0  1  0  0  0  0  0  0
  189.7940  175.1020  143.1700 N   0  0  0  0  0  0  0  0  0  0  0  0
  189.4800  177.2910  142.3850 O   0  0  0  0  0  0  0  0  0  0  0  0
  187.2560  177.6070  146.2050 C   0  0  0  0  0  2  0  0  0  0  0  0
  187.8430  176.5310  143.9490 C   0  0  1  0  0  3  0  0  0  0  0  0
  185.8230  177.4190  145.7100 C   0  0  2  0  0  3  0  0  0  0  0  0
  185.6690  177.7830  144.2240 C   0  0  0  0  0  2  0  0  0  0  0  0
  188.2300  176.7160  145.4250 C   0  0  0  0  0  2  0  0  0  0  0  0
  186.9770  177.6790  143.4300 C   0  0  0  0  0  2  0  0  0  0  0  0
  184.8630  178.1990  146.5440 C   0  0  0  0  0  0  0  0  0  0  0  0
  185.2590  178.6730  147.7870 O   0  0  0  0  0  1  0  0  0  0  0  0
  183.6910  178.4210  146.1340 O   0  0  0  0  0  0  0  0  0  0  0  0
  195.7310  175.2990  145.3780 O   0  0  0  0  0  0  0  0  0  0  0  0
  196.6860  174.7660  144.5100 C   0  0  0  0  0  2  0  0  0  0  0  0
  197.5720  173.7990  145.2660 C   0  0  0  0  0  2  0  0  0  0  0  0
  196.7110  172.8870  146.1190 C   0  0  0  0  0  2  0  0  0  0  0  0
  196.3880  171.6070  145.3690 C   0  0  1  0  0  3  0  0  0  0  0  0
  196.8350  170.4570  146.1390 N   0  0  0  0  0  1  0  0  0  0  0  0
  194.9130  171.5240  145.1520 C   0  0  0  0  0  3  0  0  0  0  0  0
  194.1560  172.2620  145.7610 O   0  0  0  0  0  0  0  0  0  0  0  0
  1  8  1  0  0  0  0
  2  5  1  0  0  0  0
  3  7  1  0  0  0  0
  3  2  2  0  0  0  0
  5 10  2  0  0  0  0
  5 13  1  0  0  0  0
  6  4  1  0  0  0  0
  7  9  2  0  0  0  0
  8  4  1  0  0  0  0
  8 24  1  1  0  0  0
  9 10  1  0  0  0  0
  9  1  1  0  0  0  0
 10  6  1  0  0  0  0
 11 13  1  0  0  0  0
 13 12  1  0  0  0  0
 14 11  2  0  0  0  0
 16 11  1  6  0  0  0
 16 19  1  0  0  0  0
 17 15  1  0  0  0  0
 17 21  1  1  0  0  0
 18 17  1  0  0  0  0
 19 15  1  0  0  0  0
 20 16  1  0  0  0  0
 20 18  1  0  0  0  0
 21 22  1  0  0  0  0
 23 21  2  0  0  0  0
 25 26  1  0  0  0  0
 25 24  1  0  0  0  0
 26 27  1  0  0  0  0
 28 27  1  0  0  0  0
 28 29  1  1  0  0  0
 30 28  1  0  0  0  0
 30 31  2  0  0  0  0
M  END
>  <MODEL>
5

>  <REMARK>
 VINA RESULT:      -6.3      4.042     10.962
  Name = 
  9 active torsions:
  status: ('A' for Active; 'I' for Inactive)
    1  A    between atoms: C_1  and  CA_6
    2  A    between atoms: C_2  and  C_11
    3  A    between atoms: C_3  and  CA_6
    4  A    between atoms: C_3  and  C_9
    5  A    between atoms: O_4  and  C_20
    6  A    between atoms: O_4  and  C_24
    7  A    between atoms: C_9  and  C_24
    8  A    between atoms: C_13  and  C_23
    9  A    between atoms: C_15  and  N_27
                            x       y       z     vdW  Elec       q    Type
                         _______ _______ _______ _____ _____    ______ ____

>  <TORSDO>
F 9

$$$$
=
 OpenBabel11062420593D

 31 33  0  0  1  0  0  0  0  0999 V2000
  193.1690  172.5450  143.3640 C   0  0  0  0  0  2  0  0  0  0  0  0
  193.0410  176.5380  144.3770 N   0  0  0  0  0  0  0  0  0  0  0  0
  194.1150  176.0860  143.8130 C   0  0  0  0  0  3  0  0  0  0  0  0
  190.8570  172.2620  144.2540 C   0  0  0  0  0  2  0  0  0  0  0  0
  191.9890  175.6790  144.8520 C   0  0  0  0  0  0  0  0  0  0  0  0
  191.0580  173.3960  145.2530 C   0  0  0  0  0  2  0  0  0  0  0  0
  194.3080  174.6800  143.6600 N   0  0  0  0  0  0  0  0  0  0  0  0
  192.1820  171.5550  143.9810 C   0  0  1  0  0  3  0  0  0  0  0  0
  193.4320  173.7140  144.3140 C   0  0  0  0  0  0  0  0  0  0  0  0
  192.1290  174.3360  144.7750 C   0  0  0  0  0  0  0  0  0  0  0  0
  189.6210  176.4830  144.5980 C   0  0  0  0  0  0  0  0  0  0  0  0
  190.8180  176.7820  146.6580 O   0  0  0  0  0  1  0  0  0  0  0  0
  190.7970  176.2810  145.3990 N   0  0  0  0  0  0  0  0  0  0  0  0
  189.5540  176.0230  143.4260 O   0  0  0  0  0  0  0  0  0  0  0  0
  186.1740  178.0650  144.3220 C   0  0  0  0  0  2  0  0  0  0  0  0
  188.4740  177.2770  145.1470 C   0  0  1  0  0  3  0  0  0  0  0  0
  185.9650  178.3950  145.7990 C   0  0  2  0  0  3  0  0  0  0  0  0
  186.5020  177.2910  146.7240 C   0  0  0  0  0  2  0  0  0  0  0  0
  187.6640  177.9000  143.9990 C   0  0  0  0  0  2  0  0  0  0  0  0
  187.6010  176.4360  146.0800 C   0  0  0  0  0  2  0  0  0  0  0  0
  184.5270  178.6680  146.0880 C   0  0  0  0  0  0  0  0  0  0  0  0
  183.6790  179.0530  145.0570 O   0  0  0  0  0  0  0  0  0  0  0  0
  184.0770  178.5620  147.2610 O   0  0  0  0  0  1  0  0  0  0  0  0
  191.9680  170.4920  143.1010 O   0  0  0  0  0  0  0  0  0  0  0  0
  190.8290  170.8470  142.3760 C   0  0  0  0  0  2  0  0  0  0  0  0
  191.0280  170.4900  140.9180 C   0  0  0  0  0  2  0  0  0  0  0  0
  190.4300  171.5770  140.0460 C   0  0  0  0  0  2  0  0  0  0  0  0
  189.9130  172.7200  140.9010 C   0  0  1  0  0  3  0  0  0  0  0  0
  190.8650  173.8200  140.8830 N   0  0  0  0  0  1  0  0  0  0  0  0
  188.6010  173.1830  140.3620 C   0  0  0  0  0  3  0  0  0  0  0  0
  188.0910  172.6190  139.4080 O   0  0  0  0  0  0  0  0  0  0  0  0
  1  8  1  0  0  0  0
  1  9  1  0  0  0  0
  2  5  1  0  0  0  0
  3  2  2  0  0  0  0
  4  6  1  0  0  0  0
  5 13  1  0  0  0  0
  7  3  1  0  0  0  0
  7  9  2  0  0  0  0
  8 24  1  6  0  0  0
  8  4  1  0  0  0  0
  9 10  1  0  0  0  0
 10  5  2  0  0  0  0
 10  6  1  0  0  0  0
 11 13  1  0  0  0  0
 13 12  1  0  0  0  0
 14 11  2  0  0  0  0
 15 17  1  0  0  0  0
 16 11  1  6  0  0  0
 16 20  1  0  0  0  0
 17 21  1  6  0  0  0
 17 18  1  0  0  0  0
 19 15  1  0  0  0  0
 19 16  1  0  0  0  0
 20 18  1  0  0  0  0
 21 23  1  0  0  0  0
 22 21  2  0  0  0  0
 25 24  1  0  0  0  0
 26 25  1  0  0  0  0
 27 28  1  0  0  0  0
 27 26  1  0  0  0  0
 28 29  1  6  0  0  0
 30 28  1  0  0  0  0
 31 30  2  0  0  0  0
M  END
>  <MODEL>
6

>  <REMARK>
 VINA RESULT:      -6.2      4.301      8.888
  Name = 
  9 active torsions:
  status: ('A' for Active; 'I' for Inactive)
    1  A    between atoms: C_1  and  CA_6
    2  A    between atoms: C_2  and  C_11
    3  A    between atoms: C_3  and  CA_6
    4  A    between atoms: C_3  and  C_9
    5  A    between atoms: O_4  and  C_20
    6  A    between atoms: O_4  and  C_24
    7  A    between atoms: C_9  and  C_24
    8  A    between atoms: C_13  and  C_23
    9  A    between atoms: C_15  and  N_27
                            x       y       z     vdW  Elec       q    Type
                         _______ _______ _______ _____ _____    ______ ____

>  <TORSDO>
F 9

$$$$
=
 OpenBabel11062420593D

 31 33  0  0  1  0  0  0  0  0999 V2000
  195.0330  173.2920  143.9840 C   0  0  0  0  0  2  0  0  0  0  0  0
  194.1470  177.1210  145.2240 N   0  0  0  0  0  0  0  0  0  0  0  0
  195.3280  176.8930  144.7430 C   0  0  0  0  0  3  0  0  0  0  0  0
  192.7320  172.5710  144.6190 C   0  0  0  0  0  2  0  0  0  0  0  0
  193.2170  176.0690  145.5370 C   0  0  0  0  0  0  0  0  0  0  0  0
  192.6500  173.6420  145.7020 C   0  0  0  0  0  2  0  0  0  0  0  0
  195.7670  175.5530  144.5240 N   0  0  0  0  0  0  0  0  0  0  0  0
  194.1760  172.1100  144.4360 C   0  0  1  0  0  3  0  0  0  0  0  0
  195.0110  174.4100  145.0260 C   0  0  0  0  0  0  0  0  0  0  0  0
  193.5860  174.7760  145.3920 C   0  0  0  0  0  0  0  0  0  0  0  0
  190.7980  176.5860  145.0860 C   0  0  0  0  0  0  0  0  0  0  0  0
  191.7070  176.7410  147.3030 O   0  0  0  0  0  1  0  0  0  0  0  0
  191.8970  176.4260  145.9990 N   0  0  0  0  0  0  0  0  0  0  0  0
  190.9290  176.2930  143.8660 O   0  0  0  0  0  0  0  0  0  0  0  0
  187.2630  177.8780  144.5480 C   0  0  0  0  0  2  0  0  0  0  0  0
  189.4950  177.1380  145.5780 C   0  0  1  0  0  3  0  0  0  0  0  0
  186.7990  177.8610  146.0040 C   0  0  2  0  0  3  0  0  0  0  0  0
  187.3250  176.6350  146.7680 C   0  0  0  0  0  2  0  0  0  0  0  0
  188.7930  177.9190  144.4570 C   0  0  0  0  0  2  0  0  0  0  0  0
  188.6030  176.0400  146.1630 C   0  0  0  0  0  2  0  0  0  0  0  0
  185.3120  177.9360  146.0920 C   0  0  0  0  0  0  0  0  0  0  0  0
  184.6570  179.0980  145.7050 O   0  0  0  0  0  0  0  0  0  0  0  0
  184.6450  176.9580  146.5260 O   0  0  0  0  0  1  0  0  0  0  0  0
  194.2220  171.0980  143.4750 O   0  0  0  0  0  0  0  0  0  0  0  0
  193.3820  171.5360  142.4500 C   0  0  0  0  0  2  0  0  0  0  0  0
  192.7570  170.3390  141.7650 C   0  0  0  0  0  2  0  0  0  0  0  0
  191.2700  170.3070  142.0600 C   0  0  0  0  0  2  0  0  0  0  0  0
  190.6360  171.6490  141.7370 C   0  0  1  0  0  3  0  0  0  0  0  0
  190.1760  171.6580  140.3570 N   0  0  0  0  0  1  0  0  0  0  0  0
  189.4800  171.8790  142.6530 C   0  0  0  0  0  3  0  0  0  0  0  0
  189.4090  172.9030  143.3130 O   0  0  0  0  0  0  0  0  0  0  0  0
  1  8  1  0  0  0  0
  1  9  1  0  0  0  0
  2  5  1  0  0  0  0
  3  2  2  0  0  0  0
  4  6  1  0  0  0  0
  5 13  1  0  0  0  0
  7  3  1  0  0  0  0
  7  9  2  0  0  0  0
  8 24  1  6  0  0  0
  8  4  1  0  0  0  0
  9 10  1  0  0  0  0
 10  5  2  0  0  0  0
 10  6  1  0  0  0  0
 11 13  1  0  0  0  0
 13 12  1  0  0  0  0
 14 11  2  0  0  0  0
 15 17  1  0  0  0  0
 16 11  1  6  0  0  0
 16 20  1  0  0  0  0
 17 21  1  6  0  0  0
 17 18  1  0  0  0  0
 19 15  1  0  0  0  0
 19 16  1  0  0  0  0
 20 18  1  0  0  0  0
 21 23  1  0  0  0  0
 22 21  2  0  0  0  0
 25 24  1  0  0  0  0
 26 27  1  0  0  0  0
 26 25  1  0  0  0  0
 28 29  1  6  0  0  0
 28 27  1  0  0  0  0
 28 30  1  0  0  0  0
 30 31  2  0  0  0  0
M  END
>  <MODEL>
7

>  <REMARK>
 VINA RESULT:      -6.2      4.600      9.404
  Name = 
  9 active torsions:
  status: ('A' for Active; 'I' for Inactive)
    1  A    between atoms: C_1  and  CA_6
    2  A    between atoms: C_2  and  C_11
    3  A    between atoms: C_3  and  CA_6
    4  A    between atoms: C_3  and  C_9
    5  A    between atoms: O_4  and  C_20
    6  A    between atoms: O_4  and  C_24
    7  A    between atoms: C_9  and  C_24
    8  A    between atoms: C_13  and  C_23
    9  A    between atoms: C_15  and  N_27
                            x       y       z     vdW  Elec       q    Type
                         _______ _______ _______ _____ _____    ______ ____

>  <TORSDO>
F 9

$$$$
=
 OpenBabel11062420593D

 31 33  0  0  1  0  0  0  0  0999 V2000
  188.9790  176.8190  146.8930 C   0  0  0  0  0  2  0  0  0  0  0  0
  192.2960  174.9480  145.3170 N   0  0  0  0  0  0  0  0  0  0  0  0
  192.3700  175.4040  146.5270 C   0  0  0  0  0  3  0  0  0  0  0  0
  187.7520  176.4020  144.7630 C   0  0  0  0  0  2  0  0  0  0  0  0
  191.1980  175.2470  144.4370 C   0  0  0  0  0  0  0  0  0  0  0  0
  189.0490  176.4290  143.9620 C   0  0  0  0  0  2  0  0  0  0  0  0
  191.3480  176.2620  147.0340 N   0  0  0  0  0  0  0  0  0  0  0  0
  187.8600  177.3180  145.9790 C   0  0  1  0  0  3  0  0  0  0  0  0
  190.3210  176.8250  146.1630 C   0  0  0  0  0  0  0  0  0  0  0  0
  190.2180  176.0880  144.8420 C   0  0  0  0  0  0  0  0  0  0  0  0
  190.5410  173.3550  142.9170 C   0  0  0  0  0  0  0  0  0  0  0  0
  191.8480  175.2000  142.1080 O   0  0  0  0  0  1  0  0  0  0  0  0
  191.1680  174.6310  143.1330 N   0  0  0  0  0  0  0  0  0  0  0  0
  189.8880  172.7960  143.8400 O   0  0  0  0  0  0  0  0  0  0  0  0
  190.8020  170.2450  140.7460 C   0  0  0  0  0  2  0  0  0  0  0  0
  190.6930  172.6650  141.5960 C   0  0  1  0  0  3  0  0  0  0  0  0
  190.6220  170.9120  139.3840 C   0  0  2  0  0  3  0  0  0  0  0  0
  189.5750  172.0370  139.4210 C   0  0  0  0  0  2  0  0  0  0  0  0
  191.2730  171.2560  141.7980 C   0  0  0  0  0  2  0  0  0  0  0  0
  189.3770  172.6410  140.8170 C   0  0  0  0  0  2  0  0  0  0  0  0
  190.2750  169.9060  138.3380 C   0  0  0  0  0  0  0  0  0  0  0  0
  189.6920  170.3240  137.1480 O   0  0  0  0  0  0  0  0  0  0  0  0
  190.4960  168.6800  138.5290 O   0  0  0  0  0  1  0  0  0  0  0  0
  186.6480  177.3160  146.6730 O   0  0  0  0  0  0  0  0  0  0  0  0
  185.6750  177.5400  145.6980 C   0  0  0  0  0  2  0  0  0  0  0  0
  185.2950  179.0060  145.6920 C   0  0  0  0  0  2  0  0  0  0  0  0
  185.2780  179.5180  144.2650 C   0  0  0  0  0  2  0  0  0  0  0  0
  185.1470  178.3630  143.2880 C   0  0  1  0  0  3  0  0  0  0  0  0
  183.7850  178.2970  142.7810 N   0  0  0  0  0  1  0  0  0  0  0  0
  186.0950  178.5690  142.1550 C   0  0  0  0  0  3  0  0  0  0  0  0
  185.7660  178.2850  141.0140 O   0  0  0  0  0  0  0  0  0  0  0  0
  2  3  1  0  0  0  0
  3  7  2  0  0  0  0
  4  8  1  0  0  0  0
  5 10  1  0  0  0  0
  5  2  2  0  0  0  0
  6  4  1  0  0  0  0
  6 10  1  0  0  0  0
  8 24  1  1  0  0  0
  8  1  1  0  0  0  0
  9  1  1  0  0  0  0
  9  7  1  0  0  0  0
 10  9  2  0  0  0  0
 11 13  1  0  0  0  0
 11 14  2  0  0  0  0
 12 13  1  0  0  0  0
 13  5  1  0  0  0  0
 15 19  1  0  0  0  0
 16 19  1  0  0  0  0
 16 11  1  1  0  0  0
 17 21  1  6  0  0  0
 17 18  1  0  0  0  0
 17 15  1  0  0  0  0
 18 20  1  0  0  0  0
 20 16  1  0  0  0  0
 21 23  1  0  0  0  0
 22 21  2  0  0  0  0
 25 24  1  0  0  0  0
 26 25  1  0  0  0  0
 27 26  1  0  0  0  0
 28 29  1  6  0  0  0
 28 27  1  0  0  0  0
 30 28  1  0  0  0  0
 31 30  2  0  0  0  0
M  END
>  <MODEL>
8

>  <REMARK>
 VINA RESULT:      -6.1      4.493      6.402
  Name = 
  9 active torsions:
  status: ('A' for Active; 'I' for Inactive)
    1  A    between atoms: C_1  and  CA_6
    2  A    between atoms: C_2  and  C_11
    3  A    between atoms: C_3  and  CA_6
    4  A    between atoms: C_3  and  C_9
    5  A    between atoms: O_4  and  C_20
    6  A    between atoms: O_4  and  C_24
    7  A    between atoms: C_9  and  C_24
    8  A    between atoms: C_13  and  C_23
    9  A    between atoms: C_15  and  N_27
                            x       y       z     vdW  Elec       q    Type
                         _______ _______ _______ _____ _____    ______ ____

>  <TORSDO>
F 9

$$$$
=
 OpenBabel11062420593D

 31 33  0  0  1  0  0  0  0  0999 V2000
  194.3020  176.5280  145.6200 C   0  0  0  0  0  2  0  0  0  0  0  0
  190.5790  176.9010  147.3490 N   0  0  0  0  0  0  0  0  0  0  0  0
  191.6200  177.1100  148.0910 C   0  0  0  0  0  3  0  0  0  0  0  0
  193.2180  175.9740  143.4440 C   0  0  0  0  0  2  0  0  0  0  0  0
  190.6640  176.3470  146.0240 C   0  0  0  0  0  0  0  0  0  0  0  0
  192.0050  175.3790  144.1520 C   0  0  0  0  0  2  0  0  0  0  0  0
  192.9200  176.7640  147.6150 N   0  0  0  0  0  0  0  0  0  0  0  0
  194.4720  175.7880  144.2930 C   0  0  1  0  0  3  0  0  0  0  0  0
  193.1060  175.9800  146.3980 C   0  0  0  0  0  0  0  0  0  0  0  0
  191.8630  175.9600  145.5300 C   0  0  0  0  0  0  0  0  0  0  0  0
  189.0290  177.2580  144.3460 C   0  0  0  0  0  0  0  0  0  0  0  0
  188.6340  175.1640  145.4520 O   0  0  0  0  0  1  0  0  0  0  0  0
  189.4560  176.2220  145.2460 N   0  0  0  0  0  0  0  0  0  0  0  0
  189.7680  178.2540  144.1160 O   0  0  0  0  0  0  0  0  0  0  0  0
  185.5350  178.5860  143.6470 C   0  0  0  0  0  2  0  0  0  0  0  0
  187.6790  177.1750  143.7000 C   0  0  1  0  0  3  0  0  0  0  0  0
  185.1740  177.6560  142.4900 C   0  0  2  0  0  3  0  0  0  0  0  0
  186.3680  177.4010  141.5550 C   0  0  0  0  0  2  0  0  0  0  0  0
  186.6540  177.9870  144.5070 C   0  0  0  0  0  2  0  0  0  0  0  0
  187.7290  177.6030  142.2320 C   0  0  0  0  0  2  0  0  0  0  0  0
  184.0100  178.1850  141.7220 C   0  0  0  0  0  0  0  0  0  0  0  0
  184.1330  178.4190  140.3590 O   0  0  0  0  0  0  0  0  0  0  0  0
  182.9180  178.4330  142.3020 O   0  0  0  0  0  1  0  0  0  0  0  0
  195.5770  176.2970  143.6080 O   0  0  0  0  0  0  0  0  0  0  0  0
  196.6710  175.5900  144.1110 C   0  0  0  0  0  2  0  0  0  0  0  0
  196.3640  174.1070  144.0920 C   0  0  0  0  0  2  0  0  0  0  0  0
  196.9360  173.4580  145.3370 C   0  0  0  0  0  2  0  0  0  0  0  0
  196.0950  172.2620  145.7470 C   0  0  1  0  0  3  0  0  0  0  0  0
  194.7050  172.4860  145.3790 N   0  0  0  0  0  1  0  0  0  0  0  0
  196.6070  171.0420  145.0580 C   0  0  0  0  0  3  0  0  0  0  0  0
  197.7890  170.7470  145.1190 O   0  0  0  0  0  0  0  0  0  0  0  0
  1  9  1  0  0  0  0
  2  3  1  0  0  0  0
  4  6  1  0  0  0  0
  4  8  1  0  0  0  0
  5  2  2  0  0  0  0
  6 10  1  0  0  0  0
  7  3  2  0  0  0  0
  8 24  1  6  0  0  0
  8  1  1  0  0  0  0
  9  7  1  0  0  0  0
 10  5  1  0  0  0  0
 10  9  2  0  0  0  0
 11 13  1  0  0  0  0
 13 12  1  0  0  0  0
 13  5  1  0  0  0  0
 14 11  2  0  0  0  0
 15 19  1  0  0  0  0
 16 11  1  1  0  0  0
 16 19  1  0  0  0  0
 17 21  1  6  0  0  0
 17 15  1  0  0  0  0
 18 20  1  0  0  0  0
 18 17  1  0  0  0  0
 20 16  1  0  0  0  0
 21 23  1  0  0  0  0
 22 21  2  0  0  0  0
 24 25  1  0  0  0  0
 26 25  1  0  0  0  0
 26 27  1  0  0  0  0
 27 28  1  0  0  0  0
 28 29  1  6  0  0  0
 30 31  2  0  0  0  0
 30 28  1  0  0  0  0
M  END
>  <MODEL>
9

>  <REMARK>
 VINA RESULT:      -6.1      3.075     10.857
  Name = 
  9 active torsions:
  status: ('A' for Active; 'I' for Inactive)
    1  A    between atoms: C_1  and  CA_6
    2  A    between atoms: C_2  and  C_11
    3  A    between atoms: C_3  and  CA_6
    4  A    between atoms: C_3  and  C_9
    5  A    between atoms: O_4  and  C_20
    6  A    between atoms: O_4  and  C_24
    7  A    between atoms: C_9  and  C_24
    8  A    between atoms: C_13  and  C_23
    9  A    between atoms: C_15  and  N_27
                            x       y       z     vdW  Elec       q    Type
                         _______ _______ _______ _____ _____    ______ ____

>  <TORSDO>
F 9

$$$$
