=
 OpenBabel11072409393D

 25 27  0  0  1  0  0  0  0  0999 V2000
  186.6270  177.2530  142.8190 C   0  0  2  0  0  3  0  0  0  0  0  0
  188.9140  178.1420  142.1670 C   0  0  0  0  0  1  0  0  0  0  0  0
  187.6280  176.4830  140.8400 C   0  0  0  0  0  2  0  0  0  0  0  0
  187.9840  176.9310  142.2420 C   0  0  2  0  0  0  0  0  0  0  0  0
  185.8340  177.6530  141.6000 C   0  0  0  0  0  2  0  0  0  0  0  0
  186.3710  177.0060  140.4720 O   0  0  0  0  0  0  0  0  0  0  0  0
  185.1700  179.7640  144.8710 N   0  0  0  0  0  2  0  0  0  0  0  0
  185.5040  178.7490  145.8370 C   0  0  0  0  0  0  0  0  0  0  0  0
  184.4330  178.3800  146.8270 C   0  0  0  0  0  2  0  0  0  0  0  0
  185.6580  179.1910  147.2660 C   0  0  0  0  0  2  0  0  0  0  0  0
  185.5640  179.2640  143.6600 O   0  0  0  0  0  0  0  0  0  0  0  0
  186.3790  177.7090  145.2710 C   0  0  0  0  0  2  0  0  0  0  0  0
  186.6020  178.3300  143.9110 C   0  0  1  0  0  3  0  0  0  0  0  0
  189.4700  176.0210  144.1230 C   0  0  0  0  0  0  0  0  0  0  0  0
  189.7630  177.1750  144.5350 O   0  0  0  0  0  0  0  0  0  0  0  0
  188.5990  175.8440  142.9980 N   0  0  0  0  0  2  0  0  0  0  0  0
  190.0310  174.8290  144.8270 C   0  0  2  0  0  3  0  0  0  0  0  0
  189.8940  173.6390  143.9950 N   0  0  0  0  0  2  0  0  0  0  0  0
  190.8810  172.6080  143.9520 C   0  0  0  0  0  0  0  0  0  0  0  0
  191.9170  172.6810  144.6650 O   0  0  0  0  0  0  0  0  0  0  0  0
  190.6830  171.4380  143.0590 C   0  0  0  0  0  1  0  0  0  0  0  0
  189.3170  174.6270  146.1300 C   0  0  0  0  0  3  0  0  0  0  0  0
  189.8770  174.8680  147.3210 C   0  0  0  0  0  3  0  0  0  0  0  0
  191.2490  176.7830  148.0160 C   0  0  0  0  0  1  0  0  0  0  0  0
  191.2760  175.3710  147.4710 C   0  0  0  0  0  2  0  0  0  0  0  0
  1  5  1  6  0  0  0
  1 13  1  0  0  0  0
  3  4  1  0  0  0  0
  4  2  1  6  0  0  0
  4  1  1  0  0  0  0
  4 16  1  0  0  0  0
  6  3  1  0  0  0  0
  6  5  1  0  0  0  0
  7  8  1  0  0  0  0
  8  9  1  0  0  0  0
  8 10  1  0  0  0  0
  9 10  1  0  0  0  0
 11 13  1  0  0  0  0
 11  7  1  0  0  0  0
 12  8  1  0  0  0  0
 13 12  1  1  0  0  0
 14 15  2  0  0  0  0
 14 17  1  0  0  0  0
 16 14  1  0  0  0  0
 17 22  1  1  0  0  0
 18 17  1  0  0  0  0
 19 18  1  0  0  0  0
 19 20  2  0  0  0  0
 21 19  1  0  0  0  0
 22 23  2  0  0  0  0
 23 25  1  0  0  0  0
 25 24  1  0  0  0  0
M  END
>  <MODEL>
1

>  <REMARK>
 VINA RESULT:      -6.7      0.000      0.000
  Name = 
  6 active torsions:
  status: ('A' for Active; 'I' for Inactive)
    1  A    between atoms: C_1  and  N_6
    2  A    between atoms: C_1  and  C_7
    3  A    between atoms: C_1  and  C_8
    4  A    between atoms: C_5  and  C_23
    5  A    between atoms: C_17  and  N_20
    6  A    between atoms: C_18  and  C_21
                            x       y       z     vdW  Elec       q    Type
                         _______ _______ _______ _____ _____    ______ ____

>  <TORSDO>
F 6

$$$$
=
 OpenBabel11072409393D

 25 27  0  0  1  0  0  0  0  0999 V2000
  186.4950  177.3610  142.6150 C   0  0  2  0  0  3  0  0  0  0  0  0
  188.7600  178.2610  141.9060 C   0  0  0  0  0  1  0  0  0  0  0  0
  187.3950  176.6890  140.5530 C   0  0  0  0  0  2  0  0  0  0  0  0
  187.8200  177.0570  141.9590 C   0  0  2  0  0  0  0  0  0  0  0  0
  185.6510  177.8340  141.4560 C   0  0  0  0  0  2  0  0  0  0  0  0
  186.1290  177.2430  140.2720 O   0  0  0  0  0  0  0  0  0  0  0  0
  185.1840  179.8310  144.8080 N   0  0  0  0  0  2  0  0  0  0  0  0
  185.4680  178.7500  145.7170 C   0  0  0  0  0  0  0  0  0  0  0  0
  184.3830  178.3850  146.6930 C   0  0  0  0  0  2  0  0  0  0  0  0
  185.6520  179.1060  147.1660 C   0  0  0  0  0  2  0  0  0  0  0  0
  185.5450  179.3770  143.5700 O   0  0  0  0  0  0  0  0  0  0  0  0
  186.2830  177.6970  145.0890 C   0  0  0  0  0  2  0  0  0  0  0  0
  186.5330  178.3770  143.7620 C   0  0  1  0  0  3  0  0  0  0  0  0
  189.3650  176.0320  143.7290 C   0  0  0  0  0  0  0  0  0  0  0  0
  189.6770  177.1580  144.2000 O   0  0  0  0  0  0  0  0  0  0  0  0
  188.4550  175.9250  142.6270 N   0  0  0  0  0  2  0  0  0  0  0  0
  189.9450  174.7980  144.3410 C   0  0  2  0  0  3  0  0  0  0  0  0
  190.7620  175.1430  145.4990 N   0  0  0  0  0  2  0  0  0  0  0  0
  190.2940  175.0090  146.8420 C   0  0  0  0  0  0  0  0  0  0  0  0
  189.1430  174.5550  147.0790 O   0  0  0  0  0  0  0  0  0  0  0  0
  191.1750  175.4050  147.9690 C   0  0  0  0  0  1  0  0  0  0  0  0
  190.7760  174.0720  143.3260 C   0  0  0  0  0  3  0  0  0  0  0  0
  190.4160  172.9070  142.7770 C   0  0  0  0  0  3  0  0  0  0  0  0
  188.0990  172.5150  142.0580 C   0  0  0  0  0  1  0  0  0  0  0  0
  189.1360  172.2120  143.1180 C   0  0  0  0  0  2  0  0  0  0  0  0
  1  5  1  6  0  0  0
  1 13  1  0  0  0  0
  3  4  1  0  0  0  0
  4  2  1  6  0  0  0
  4  1  1  0  0  0  0
  4 16  1  0  0  0  0
  6  3  1  0  0  0  0
  6  5  1  0  0  0  0
  7  8  1  0  0  0  0
  8  9  1  0  0  0  0
  8 10  1  0  0  0  0
  9 10  1  0  0  0  0
 11 13  1  0  0  0  0
 11  7  1  0  0  0  0
 12  8  1  0  0  0  0
 13 12  1  1  0  0  0
 14 15  2  0  0  0  0
 14 17  1  0  0  0  0
 16 14  1  0  0  0  0
 17 22  1  6  0  0  0
 17 18  1  0  0  0  0
 18 19  1  0  0  0  0
 19 20  2  0  0  0  0
 19 21  1  0  0  0  0
 23 25  1  0  0  0  0
 23 22  2  0  0  0  0
 24 25  1  0  0  0  0
M  END
>  <MODEL>
2

>  <REMARK>
 VINA RESULT:      -6.6      1.222      2.903
  Name = 
  6 active torsions:
  status: ('A' for Active; 'I' for Inactive)
    1  A    between atoms: C_1  and  N_6
    2  A    between atoms: C_1  and  C_7
    3  A    between atoms: C_1  and  C_8
    4  A    between atoms: C_5  and  C_23
    5  A    between atoms: C_17  and  N_20
    6  A    between atoms: C_18  and  C_21
                            x       y       z     vdW  Elec       q    Type
                         _______ _______ _______ _____ _____    ______ ____

>  <TORSDO>
F 6

$$$$
=
 OpenBabel11072409393D

 25 27  0  0  1  0  0  0  0  0999 V2000
  187.7000  176.5220  143.7900 C   0  0  2  0  0  3  0  0  0  0  0  0
  189.5590  177.8250  142.6560 C   0  0  0  0  0  1  0  0  0  0  0  0
  188.7360  175.6110  141.8900 C   0  0  0  0  0  2  0  0  0  0  0  0
  189.0440  176.4590  143.1060 C   0  0  2  0  0  0  0  0  0  0  0  0
  186.7350  176.3870  142.6380 C   0  0  0  0  0  2  0  0  0  0  0  0
  187.3560  175.6650  141.6030 O   0  0  0  0  0  0  0  0  0  0  0  0
  185.8450  179.3280  144.9370 N   0  0  0  0  0  2  0  0  0  0  0  0
  185.9080  178.5110  146.1210 C   0  0  0  0  0  0  0  0  0  0  0  0
  184.6180  178.3030  146.8680 C   0  0  0  0  0  2  0  0  0  0  0  0
  185.7180  179.2070  147.4410 C   0  0  0  0  0  2  0  0  0  0  0  0
  186.5110  178.6270  143.9700 O   0  0  0  0  0  0  0  0  0  0  0  0
  186.8700  177.4060  145.9830 C   0  0  0  0  0  2  0  0  0  0  0  0
  187.4340  177.7760  144.6300 C   0  0  1  0  0  3  0  0  0  0  0  0
  191.3450  175.4360  143.5910 C   0  0  0  0  0  0  0  0  0  0  0  0
  191.7710  175.6870  142.4320 O   0  0  0  0  0  0  0  0  0  0  0  0
  190.0110  175.7950  143.9760 N   0  0  0  0  0  2  0  0  0  0  0  0
  192.2510  174.7690  144.5740 C   0  0  2  0  0  3  0  0  0  0  0  0
  192.0940  173.3200  144.5030 N   0  0  0  0  0  2  0  0  0  0  0  0
  193.2030  172.4270  144.3970 C   0  0  0  0  0  0  0  0  0  0  0  0
  194.3830  172.8670  144.3840 O   0  0  0  0  0  0  0  0  0  0  0  0
  192.9620  170.9650  144.3050 C   0  0  0  0  0  1  0  0  0  0  0  0
  191.9400  175.2510  145.9590 C   0  0  0  0  0  3  0  0  0  0  0  0
  192.8660  175.7330  146.7950 C   0  0  0  0  0  3  0  0  0  0  0  0
  194.5840  177.2320  145.8810 C   0  0  0  0  0  1  0  0  0  0  0  0
  194.3100  175.8470  146.4270 C   0  0  0  0  0  2  0  0  0  0  0  0
  1  5  1  6  0  0  0
  1 13  1  0  0  0  0
  3  4  1  0  0  0  0
  4  2  1  6  0  0  0
  4  1  1  0  0  0  0
  4 16  1  0  0  0  0
  6  3  1  0  0  0  0
  6  5  1  0  0  0  0
  7  8  1  0  0  0  0
  8  9  1  0  0  0  0
  8 10  1  0  0  0  0
  9 10  1  0  0  0  0
 11 13  1  0  0  0  0
 11  7  1  0  0  0  0
 12  8  1  0  0  0  0
 13 12  1  1  0  0  0
 14 16  1  0  0  0  0
 14 17  1  0  0  0  0
 15 14  2  0  0  0  0
 17 22  1  1  0  0  0
 18 17  1  0  0  0  0
 19 18  1  0  0  0  0
 20 19  2  0  0  0  0
 21 19  1  0  0  0  0
 22 23  2  0  0  0  0
 24 25  1  0  0  0  0
 25 23  1  0  0  0  0
M  END
>  <MODEL>
3

>  <REMARK>
 VINA RESULT:      -6.4      1.953      2.110
  Name = 
  6 active torsions:
  status: ('A' for Active; 'I' for Inactive)
    1  A    between atoms: C_1  and  N_6
    2  A    between atoms: C_1  and  C_7
    3  A    between atoms: C_1  and  C_8
    4  A    between atoms: C_5  and  C_23
    5  A    between atoms: C_17  and  N_20
    6  A    between atoms: C_18  and  C_21
                            x       y       z     vdW  Elec       q    Type
                         _______ _______ _______ _____ _____    ______ ____

>  <TORSDO>
F 6

$$$$
=
 OpenBabel11072409393D

 25 27  0  0  1  0  0  0  0  0999 V2000
  187.9330  176.4750  143.6460 C   0  0  2  0  0  3  0  0  0  0  0  0
  188.9680  178.1130  142.0060 C   0  0  0  0  0  1  0  0  0  0  0  0
  189.2930  175.6530  141.9180 C   0  0  0  0  0  2  0  0  0  0  0  0
  189.1540  176.8460  142.8400 C   0  0  2  0  0  0  0  0  0  0  0  0
  187.1560  175.6040  142.6900 C   0  0  0  0  0  2  0  0  0  0  0  0
  188.0540  174.9900  141.7970 O   0  0  0  0  0  0  0  0  0  0  0  0
  184.9540  178.2710  144.3790 N   0  0  0  0  0  2  0  0  0  0  0  0
  185.4700  178.0030  145.6970 C   0  0  0  0  0  0  0  0  0  0  0  0
  184.4950  177.4580  146.7040 C   0  0  0  0  0  2  0  0  0  0  0  0
  185.0040  178.9010  146.8080 C   0  0  0  0  0  2  0  0  0  0  0  0
  185.8470  177.7040  143.5110 O   0  0  0  0  0  0  0  0  0  0  0  0
  186.8540  177.5030  145.6610 C   0  0  0  0  0  2  0  0  0  0  0  0
  187.0990  177.6470  144.1760 C   0  0  1  0  0  3  0  0  0  0  0  0
  190.7130  175.9780  144.6810 C   0  0  0  0  0  0  0  0  0  0  0  0
  190.0580  174.9100  144.8190 O   0  0  0  0  0  0  0  0  0  0  0  0
  190.3120  176.9640  143.7210 N   0  0  0  0  0  2  0  0  0  0  0  0
  191.9270  176.2050  145.5220 C   0  0  2  0  0  3  0  0  0  0  0  0
  193.1310  175.8560  144.7750 N   0  0  0  0  0  2  0  0  0  0  0  0
  194.3930  176.4830  145.0080 C   0  0  0  0  0  0  0  0  0  0  0  0
  194.5190  177.3620  145.9020 O   0  0  0  0  0  0  0  0  0  0  0  0
  195.5690  176.0920  144.1900 C   0  0  0  0  0  1  0  0  0  0  0  0
  191.8420  175.3790  146.7700 C   0  0  0  0  0  3  0  0  0  0  0  0
  191.3700  175.8460  147.9310 C   0  0  0  0  0  3  0  0  0  0  0  0
  191.4870  177.8550  149.3410 C   0  0  0  0  0  1  0  0  0  0  0  0
  190.8730  177.2460  148.0980 C   0  0  0  0  0  2  0  0  0  0  0  0
  1  5  1  6  0  0  0
  1 13  1  0  0  0  0
  3  4  1  0  0  0  0
  4  2  1  6  0  0  0
  4  1  1  0  0  0  0
  4 16  1  0  0  0  0
  6  3  1  0  0  0  0
  6  5  1  0  0  0  0
  7  8  1  0  0  0  0
  8  9  1  0  0  0  0
  8 10  1  0  0  0  0
  9 10  1  0  0  0  0
 11 13  1  0  0  0  0
 11  7  1  0  0  0  0
 12  8  1  0  0  0  0
 13 12  1  1  0  0  0
 14 15  2  0  0  0  0
 14 17  1  0  0  0  0
 16 14  1  0  0  0  0
 17 22  1  1  0  0  0
 18 19  1  0  0  0  0
 18 17  1  0  0  0  0
 19 20  2  0  0  0  0
 21 19  1  0  0  0  0
 22 23  2  0  0  0  0
 23 25  1  0  0  0  0
 25 24  1  0  0  0  0
M  END
>  <MODEL>
4

>  <REMARK>
 VINA RESULT:      -6.4      2.329      2.763
  Name = 
  6 active torsions:
  status: ('A' for Active; 'I' for Inactive)
    1  A    between atoms: C_1  and  N_6
    2  A    between atoms: C_1  and  C_7
    3  A    between atoms: C_1  and  C_8
    4  A    between atoms: C_5  and  C_23
    5  A    between atoms: C_17  and  N_20
    6  A    between atoms: C_18  and  C_21
                            x       y       z     vdW  Elec       q    Type
                         _______ _______ _______ _____ _____    ______ ____

>  <TORSDO>
F 6

$$$$
=
 OpenBabel11072409393D

 25 27  0  0  1  0  0  0  0  0999 V2000
  189.7220  175.6270  145.2400 C   0  0  2  0  0  3  0  0  0  0  0  0
  190.4900  177.9360  144.5210 C   0  0  0  0  0  1  0  0  0  0  0  0
  189.8760  177.3290  146.8490 C   0  0  0  0  0  2  0  0  0  0  0  0
  189.5360  177.1160  145.3890 C   0  0  2  0  0  0  0  0  0  0  0  0
  190.7680  175.3170  146.2830 C   0  0  0  0  0  2  0  0  0  0  0  0
  190.6800  176.2680  147.3160 O   0  0  0  0  0  0  0  0  0  0  0  0
  191.3370  173.5120  142.8820 N   0  0  0  0  0  2  0  0  0  0  0  0
  189.9470  173.2660  142.5970 C   0  0  0  0  0  0  0  0  0  0  0  0
  189.5280  171.8270  142.4710 C   0  0  0  0  0  2  0  0  0  0  0  0
  189.6150  172.7290  141.2330 C   0  0  0  0  0  2  0  0  0  0  0  0
  191.3480  174.4160  143.9080 O   0  0  0  0  0  0  0  0  0  0  0  0
  189.0630  174.2390  143.2600 C   0  0  0  0  0  2  0  0  0  0  0  0
  190.1280  175.1380  143.8450 C   0  0  1  0  0  3  0  0  0  0  0  0
  187.6220  177.8010  143.8250 C   0  0  0  0  0  0  0  0  0  0  0  0
  188.3690  177.8010  142.8090 O   0  0  0  0  0  0  0  0  0  0  0  0
  188.1460  177.4710  145.1180 N   0  0  0  0  0  2  0  0  0  0  0  0
  186.1750  178.1360  143.6680 C   0  0  2  0  0  3  0  0  0  0  0  0
  185.8440  178.3010  142.2570 N   0  0  0  0  0  2  0  0  0  0  0  0
  184.5050  178.2330  141.7650 C   0  0  0  0  0  0  0  0  0  0  0  0
  183.5390  178.0480  142.5530 O   0  0  0  0  0  0  0  0  0  0  0  0
  184.2490  178.3850  140.3110 C   0  0  0  0  0  1  0  0  0  0  0  0
  185.8630  179.3970  144.4170 C   0  0  0  0  0  3  0  0  0  0  0  0
  185.1340  179.4260  145.5380 C   0  0  0  0  0  3  0  0  0  0  0  0
  185.3430  177.8490  147.4110 C   0  0  0  0  0  1  0  0  0  0  0  0
  184.5590  178.1950  146.1630 C   0  0  0  0  0  2  0  0  0  0  0  0
  1  4  1  0  0  0  0
  1  5  1  1  0  0  0
  3  6  1  0  0  0  0
  4  2  1  6  0  0  0
  4  3  1  0  0  0  0
  5  6  1  0  0  0  0
  7 11  1  0  0  0  0
  8  7  1  0  0  0  0
  8 12  1  0  0  0  0
  9  8  1  0  0  0  0
 10  9  1  0  0  0  0
 10  8  1  0  0  0  0
 13 12  1  1  0  0  0
 13 11  1  0  0  0  0
 13  1  1  0  0  0  0
 14 16  1  0  0  0  0
 15 14  2  0  0  0  0
 16  4  1  0  0  0  0
 17 14  1  0  0  0  0
 17 22  1  1  0  0  0
 18 17  1  0  0  0  0
 19 18  1  0  0  0  0
 19 20  2  0  0  0  0
 21 19  1  0  0  0  0
 22 23  2  0  0  0  0
 23 25  1  0  0  0  0
 25 24  1  0  0  0  0
M  END
>  <MODEL>
5

>  <REMARK>
 VINA RESULT:      -6.3      1.910      6.825
  Name = 
  6 active torsions:
  status: ('A' for Active; 'I' for Inactive)
    1  A    between atoms: C_1  and  N_6
    2  A    between atoms: C_1  and  C_7
    3  A    between atoms: C_1  and  C_8
    4  A    between atoms: C_5  and  C_23
    5  A    between atoms: C_17  and  N_20
    6  A    between atoms: C_18  and  C_21
                            x       y       z     vdW  Elec       q    Type
                         _______ _______ _______ _____ _____    ______ ____

>  <TORSDO>
F 6

$$$$
=
 OpenBabel11072409393D

 25 27  0  0  1  0  0  0  0  0999 V2000
  188.9280  176.8500  146.2820 C   0  0  2  0  0  3  0  0  0  0  0  0
  188.9440  174.5420  147.3390 C   0  0  0  0  0  1  0  0  0  0  0  0
  190.8970  175.5740  146.2020 C   0  0  0  0  0  2  0  0  0  0  0  0
  189.3910  175.4180  146.1690 C   0  0  2  0  0  0  0  0  0  0  0  0
  190.0470  177.5010  147.0570 C   0  0  0  0  0  2  0  0  0  0  0  0
  191.2410  176.7960  146.8150 O   0  0  0  0  0  0  0  0  0  0  0  0
  186.2400  178.7300  147.6530 N   0  0  0  0  0  2  0  0  0  0  0  0
  185.6230  178.1290  146.4980 C   0  0  0  0  0  0  0  0  0  0  0  0
  184.8170  179.0400  145.6130 C   0  0  0  0  0  2  0  0  0  0  0  0
  184.1240  178.0080  146.5110 C   0  0  0  0  0  2  0  0  0  0  0  0
  187.5360  178.2940  147.6460 O   0  0  0  0  0  0  0  0  0  0  0  0
  186.4600  177.0720  145.9060 C   0  0  0  0  0  2  0  0  0  0  0  0
  187.5610  177.0610  146.9430 C   0  0  1  0  0  3  0  0  0  0  0  0
  189.2650  175.4010  143.6070 C   0  0  0  0  0  0  0  0  0  0  0  0
  189.9680  176.4420  143.5040 O   0  0  0  0  0  0  0  0  0  0  0  0
  188.9510  174.8550  144.8950 N   0  0  0  0  0  2  0  0  0  0  0  0
  188.7680  174.7290  142.3700 C   0  0  2  0  0  3  0  0  0  0  0  0
  189.7610  173.7810  141.8760 N   0  0  0  0  0  2  0  0  0  0  0  0
  189.7260  172.3890  142.1940 C   0  0  0  0  0  0  0  0  0  0  0  0
  188.8030  171.9170  142.9090 O   0  0  0  0  0  0  0  0  0  0  0  0
  190.7870  171.4900  141.6740 C   0  0  0  0  0  1  0  0  0  0  0  0
  188.4730  175.7560  141.3180 C   0  0  0  0  0  3  0  0  0  0  0  0
  187.3690  176.5110  141.3170 C   0  0  0  0  0  3  0  0  0  0  0  0
  185.3830  177.5970  142.2720 C   0  0  0  0  0  1  0  0  0  0  0  0
  186.3170  176.4100  142.3740 C   0  0  0  0  0  2  0  0  0  0  0  0
  1 13  1  0  0  0  0
  1  5  1  1  0  0  0
  3  6  1  0  0  0  0
  4  3  1  0  0  0  0
  4  1  1  0  0  0  0
  4  2  1  1  0  0  0
  6  5  1  0  0  0  0
  8 10  1  0  0  0  0
  8  7  1  0  0  0  0
  9  8  1  0  0  0  0
  9 10  1  0  0  0  0
 11  7  1  0  0  0  0
 12  8  1  0  0  0  0
 13 12  1  6  0  0  0
 13 11  1  0  0  0  0
 14 16  1  0  0  0  0
 15 14  2  0  0  0  0
 16  4  1  0  0  0  0
 17 22  1  6  0  0  0
 17 14  1  0  0  0  0
 18 19  1  0  0  0  0
 18 17  1  0  0  0  0
 19 20  2  0  0  0  0
 21 19  1  0  0  0  0
 23 22  2  0  0  0  0
 23 25  1  0  0  0  0
 24 25  1  0  0  0  0
M  END
>  <MODEL>
6

>  <REMARK>
 VINA RESULT:      -6.2      2.089      4.508
  Name = 
  6 active torsions:
  status: ('A' for Active; 'I' for Inactive)
    1  A    between atoms: C_1  and  N_6
    2  A    between atoms: C_1  and  C_7
    3  A    between atoms: C_1  and  C_8
    4  A    between atoms: C_5  and  C_23
    5  A    between atoms: C_17  and  N_20
    6  A    between atoms: C_18  and  C_21
                            x       y       z     vdW  Elec       q    Type
                         _______ _______ _______ _____ _____    ______ ____

>  <TORSDO>
F 6

$$$$
=
 OpenBabel11072409393D

 25 27  0  0  1  0  0  0  0  0999 V2000
  188.1740  176.3440  143.8940 C   0  0  2  0  0  3  0  0  0  0  0  0
  190.0690  177.7840  143.0150 C   0  0  0  0  0  1  0  0  0  0  0  0
  189.7020  175.4130  142.3740 C   0  0  0  0  0  2  0  0  0  0  0  0
  189.6330  176.4080  143.5140 C   0  0  2  0  0  0  0  0  0  0  0  0
  187.5080  175.9660  142.5940 C   0  0  0  0  0  2  0  0  0  0  0  0
  188.4220  175.2440  141.8050 O   0  0  0  0  0  0  0  0  0  0  0  0
  185.6800  178.8080  144.4830 N   0  0  0  0  0  2  0  0  0  0  0  0
  185.8290  178.2190  145.7890 C   0  0  0  0  0  0  0  0  0  0  0  0
  184.5620  177.8460  146.5100 C   0  0  0  0  0  2  0  0  0  0  0  0
  185.3960  179.0500  146.9660 C   0  0  0  0  0  2  0  0  0  0  0  0
  186.5510  178.1320  143.6740 O   0  0  0  0  0  0  0  0  0  0  0  0
  187.0130  177.3490  145.8750 C   0  0  0  0  0  2  0  0  0  0  0  0
  187.5830  177.6210  144.5020 C   0  0  1  0  0  3  0  0  0  0  0  0
  191.8850  175.8510  144.6070 C   0  0  0  0  0  0  0  0  0  0  0  0
  192.5310  176.1280  143.5610 O   0  0  0  0  0  0  0  0  0  0  0  0
  190.4570  175.9720  144.6380 N   0  0  0  0  0  2  0  0  0  0  0  0
  192.6230  175.4060  145.8260 C   0  0  2  0  0  3  0  0  0  0  0  0
  192.5440  176.4260  146.8660 N   0  0  0  0  0  2  0  0  0  0  0  0
  191.5860  176.3760  147.9250 C   0  0  0  0  0  0  0  0  0  0  0  0
  190.7740  175.4170  148.0120 O   0  0  0  0  0  0  0  0  0  0  0  0
  191.5500  177.4660  148.9330 C   0  0  0  0  0  1  0  0  0  0  0  0
  194.0580  175.1380  145.4810 C   0  0  0  0  0  3  0  0  0  0  0  0
  194.5530  173.9090  145.2980 C   0  0  0  0  0  3  0  0  0  0  0  0
  194.6090  171.4930  145.7400 C   0  0  0  0  0  1  0  0  0  0  0  0
  193.7190  172.6740  145.4130 C   0  0  0  0  0  2  0  0  0  0  0  0
  1  5  1  6  0  0  0
  1 13  1  0  0  0  0
  3  4  1  0  0  0  0
  4  2  1  6  0  0  0
  4  1  1  0  0  0  0
  4 16  1  0  0  0  0
  6  3  1  0  0  0  0
  6  5  1  0  0  0  0
  7  8  1  0  0  0  0
  8 12  1  0  0  0  0
  8  9  1  0  0  0  0
  8 10  1  0  0  0  0
  9 10  1  0  0  0  0
 11  7  1  0  0  0  0
 11 13  1  0  0  0  0
 13 12  1  1  0  0  0
 14 16  1  0  0  0  0
 14 17  1  0  0  0  0
 15 14  2  0  0  0  0
 17 22  1  6  0  0  0
 17 18  1  0  0  0  0
 18 19  1  0  0  0  0
 19 20  2  0  0  0  0
 19 21  1  0  0  0  0
 23 25  1  0  0  0  0
 23 22  2  0  0  0  0
 25 24  1  0  0  0  0
M  END
>  <MODEL>
7

>  <REMARK>
 VINA RESULT:      -6.2      2.440      3.628
  Name = 
  6 active torsions:
  status: ('A' for Active; 'I' for Inactive)
    1  A    between atoms: C_1  and  N_6
    2  A    between atoms: C_1  and  C_7
    3  A    between atoms: C_1  and  C_8
    4  A    between atoms: C_5  and  C_23
    5  A    between atoms: C_17  and  N_20
    6  A    between atoms: C_18  and  C_21
                            x       y       z     vdW  Elec       q    Type
                         _______ _______ _______ _____ _____    ______ ____

>  <TORSDO>
F 6

$$$$
=
 OpenBabel11072409393D

 25 27  0  0  1  0  0  0  0  0999 V2000
  189.0400  177.3630  146.6830 C   0  0  2  0  0  3  0  0  0  0  0  0
  188.9410  174.8940  147.2610 C   0  0  0  0  0  1  0  0  0  0  0  0
  191.0430  176.2040  147.0770 C   0  0  0  0  0  2  0  0  0  0  0  0
  189.6610  176.0010  146.4920 C   0  0  2  0  0  0  0  0  0  0  0  0
  189.7590  177.8890  147.9010 C   0  0  0  0  0  2  0  0  0  0  0  0
  191.0320  177.2920  147.9740 O   0  0  0  0  0  0  0  0  0  0  0  0
  185.8690  178.8260  147.3470 N   0  0  0  0  0  2  0  0  0  0  0  0
  185.7420  178.4610  145.9590 C   0  0  0  0  0  0  0  0  0  0  0  0
  185.1920  179.5110  145.0330 C   0  0  0  0  0  2  0  0  0  0  0  0
  184.3480  178.2910  145.4230 C   0  0  0  0  0  2  0  0  0  0  0  0
  187.1300  178.4430  147.7140 O   0  0  0  0  0  0  0  0  0  0  0  0
  186.8340  177.5800  145.5140 C   0  0  0  0  0  2  0  0  0  0  0  0
  187.5160  177.3870  146.8490 C   0  0  1  0  0  3  0  0  0  0  0  0
  190.2530  176.5680  144.0620 C   0  0  0  0  0  0  0  0  0  0  0  0
  190.6870  177.7110  144.3690 O   0  0  0  0  0  0  0  0  0  0  0  0
  189.7370  175.6860  145.0680 N   0  0  0  0  0  2  0  0  0  0  0  0
  190.2910  176.1300  142.6350 C   0  0  2  0  0  3  0  0  0  0  0  0
  188.9370  176.0150  142.1050 N   0  0  0  0  0  2  0  0  0  0  0  0
  188.1880  177.1420  141.6470 C   0  0  0  0  0  0  0  0  0  0  0  0
  188.6900  178.2970  141.6640 O   0  0  0  0  0  0  0  0  0  0  0  0
  186.8040  176.9480  141.1450 C   0  0  0  0  0  1  0  0  0  0  0  0
  190.9970  174.8120  142.5280 C   0  0  0  0  0  3  0  0  0  0  0  0
  192.3210  174.6950  142.3780 C   0  0  0  0  0  3  0  0  0  0  0  0
  193.9570  176.0330  143.6310 C   0  0  0  0  0  1  0  0  0  0  0  0
  193.2350  175.8760  142.3090 C   0  0  0  0  0  2  0  0  0  0  0  0
  1 13  1  0  0  0  0
  1  5  1  1  0  0  0
  3  6  1  0  0  0  0
  4  1  1  0  0  0  0
  4  3  1  0  0  0  0
  4  2  1  1  0  0  0
  5  6  1  0  0  0  0
  7 11  1  0  0  0  0
  8  7  1  0  0  0  0
  9 10  1  0  0  0  0
  9  8  1  0  0  0  0
 10  8  1  0  0  0  0
 12  8  1  0  0  0  0
 13 12  1  6  0  0  0
 13 11  1  0  0  0  0
 14 15  2  0  0  0  0
 14 16  1  0  0  0  0
 16  4  1  0  0  0  0
 17 22  1  1  0  0  0
 17 14  1  0  0  0  0
 18 17  1  0  0  0  0
 19 20  2  0  0  0  0
 19 18  1  0  0  0  0
 21 19  1  0  0  0  0
 23 22  2  0  0  0  0
 25 23  1  0  0  0  0
 25 24  1  0  0  0  0
M  END
>  <MODEL>
8

>  <REMARK>
 VINA RESULT:      -6.1      2.309      4.789
  Name = 
  6 active torsions:
  status: ('A' for Active; 'I' for Inactive)
    1  A    between atoms: C_1  and  N_6
    2  A    between atoms: C_1  and  C_7
    3  A    between atoms: C_1  and  C_8
    4  A    between atoms: C_5  and  C_23
    5  A    between atoms: C_17  and  N_20
    6  A    between atoms: C_18  and  C_21
                            x       y       z     vdW  Elec       q    Type
                         _______ _______ _______ _____ _____    ______ ____

>  <TORSDO>
F 6

$$$$
=
 OpenBabel11072409393D

 25 27  0  0  1  0  0  0  0  0999 V2000
  188.9970  176.9670  146.3400 C   0  0  2  0  0  3  0  0  0  0  0  0
  188.9370  174.5500  147.1110 C   0  0  0  0  0  1  0  0  0  0  0  0
  190.9430  175.6650  146.1640 C   0  0  0  0  0  2  0  0  0  0  0  0
  189.4360  175.5490  146.0680 C   0  0  2  0  0  0  0  0  0  0  0  0
  190.1040  177.4940  147.2200 C   0  0  0  0  0  2  0  0  0  0  0  0
  191.2910  176.7980  146.9290 O   0  0  0  0  0  0  0  0  0  0  0  0
  186.2570  178.7430  147.7450 N   0  0  0  0  0  2  0  0  0  0  0  0
  185.6710  178.1920  146.5490 C   0  0  0  0  0  0  0  0  0  0  0  0
  184.8720  179.1360  145.6930 C   0  0  0  0  0  2  0  0  0  0  0  0
  184.1750  178.0510  146.5250 C   0  0  0  0  0  2  0  0  0  0  0  0
  187.5590  178.3240  147.7430 O   0  0  0  0  0  0  0  0  0  0  0  0
  186.5340  177.1770  145.9240 C   0  0  0  0  0  2  0  0  0  0  0  0
  187.6140  177.1280  146.9810 C   0  0  1  0  0  3  0  0  0  0  0  0
  189.3740  175.8550  143.5230 C   0  0  0  0  0  0  0  0  0  0  0  0
  190.0820  176.8960  143.5680 O   0  0  0  0  0  0  0  0  0  0  0  0
  189.0270  175.1530  144.7240 N   0  0  0  0  0  2  0  0  0  0  0  0
  188.9050  175.3460  142.1990 C   0  0  2  0  0  3  0  0  0  0  0  0
  187.5480  175.8090  141.9310 N   0  0  0  0  0  2  0  0  0  0  0  0
  187.2630  177.1150  141.4280 C   0  0  0  0  0  0  0  0  0  0  0  0
  188.1950  177.9220  141.1690 O   0  0  0  0  0  0  0  0  0  0  0  0
  185.8530  177.5230  141.2040 C   0  0  0  0  0  1  0  0  0  0  0  0
  188.9460  173.8470  142.1890 C   0  0  0  0  0  3  0  0  0  0  0  0
  189.2350  173.1270  141.0990 C   0  0  0  0  0  3  0  0  0  0  0  0
  188.3510  173.6460  138.8670 C   0  0  0  0  0  1  0  0  0  0  0  0
  189.5550  173.7480  139.7780 C   0  0  0  0  0  2  0  0  0  0  0  0
  1 13  1  0  0  0  0
  1  5  1  1  0  0  0
  3  6  1  0  0  0  0
  4  3  1  0  0  0  0
  4  1  1  0  0  0  0
  4  2  1  1  0  0  0
  6  5  1  0  0  0  0
  8  7  1  0  0  0  0
  9 10  1  0  0  0  0
  9  8  1  0  0  0  0
 10  8  1  0  0  0  0
 11  7  1  0  0  0  0
 12  8  1  0  0  0  0
 13 12  1  6  0  0  0
 13 11  1  0  0  0  0
 14 15  2  0  0  0  0
 14 16  1  0  0  0  0
 16  4  1  0  0  0  0
 17 22  1  1  0  0  0
 17 14  1  0  0  0  0
 18 17  1  0  0  0  0
 19 18  1  0  0  0  0
 20 19  2  0  0  0  0
 21 19  1  0  0  0  0
 23 22  2  0  0  0  0
 24 25  1  0  0  0  0
 25 23  1  0  0  0  0
M  END
>  <MODEL>
9

>  <REMARK>
 VINA RESULT:      -6.1      2.122      5.261
  Name = 
  6 active torsions:
  status: ('A' for Active; 'I' for Inactive)
    1  A    between atoms: C_1  and  N_6
    2  A    between atoms: C_1  and  C_7
    3  A    between atoms: C_1  and  C_8
    4  A    between atoms: C_5  and  C_23
    5  A    between atoms: C_17  and  N_20
    6  A    between atoms: C_18  and  C_21
                            x       y       z     vdW  Elec       q    Type
                         _______ _______ _______ _____ _____    ______ ____

>  <TORSDO>
F 6

$$$$
