=
 OpenBabel11062421493D

 48 55  0  0  1  0  0  0  0  0999 V2000
  193.0920  175.0170  146.5020 C   0  0  0  0  0  2  0  0  0  0  0  0
  194.5560  172.8230  137.5340 C   0  0  1  0  0  3  0  0  0  0  0  0
  188.9120  177.0820  144.2210 C   0  0  2  0  0  3  0  0  0  0  0  0
  190.8480  176.1090  147.1720 C   0  0  2  0  0  0  0  0  0  0  0  0
  186.3750  176.7860  144.5670 C   0  0  0  0  0  2  0  0  0  0  0  0
  189.6650  175.6200  146.3190 C   0  0  2  0  0  3  0  0  0  0  0  0
  189.7650  173.7870  140.5930 C   0  0  0  0  0  2  0  0  0  0  0  0
  191.7780  172.5780  140.1230 O   0  0  0  0  0  0  0  0  0  0  0  0
  195.4330  174.2710  139.8760 C   0  0  2  0  0  3  0  0  0  0  0  0
  187.6720  177.4430  145.0740 C   0  0  1  0  0  3  0  0  0  0  0  0
  188.9480  175.5890  143.8380 C   0  0  1  0  0  3  0  0  0  0  0  0
  195.9880  175.9770  144.1370 C   0  0  1  0  0  3  0  0  0  0  0  0
  184.7010  177.6640  146.3050 C   0  0  0  0  0  2  0  0  0  0  0  0
  192.0990  176.1680  146.2630 C   0  0  2  0  0  3  0  0  0  0  0  0
  195.1610  175.8660  142.5020 S   0  0  0  0  0  0  0  0  0  0  0  0
  194.1850  174.9580  145.4740 C   0  0  0  0  0  3  0  0  0  0  0  0
  185.1780  177.7000  144.8420 C   0  0  0  0  0  2  0  0  0  0  0  0
  189.5880  175.4080  142.4700 C   0  0  0  0  0  2  0  0  0  0  0  0
  185.6260  176.9780  147.2030 N   0  0  0  0  0  2  0  0  0  0  0  0
  197.1880  175.1030  138.4310 O   0  0  0  0  0  0  0  0  0  0  0  0
  193.6800  173.2840  138.7260 C   0  0  2  0  0  3  0  0  0  0  0  0
  196.1800  174.3490  138.5570 C   0  0  0  0  0  0  0  0  0  0  0  0
  194.9570  176.0090  145.2180 C   0  0  0  0  0  3  0  0  0  0  0  0
  196.3840  174.0190  140.9410 N   0  0  0  0  0  0  0  0  0  0  0  0
  194.4570  173.2420  139.8980 O   0  0  0  0  0  0  0  0  0  0  0  0
  197.2490  174.3220  143.1140 N   0  0  0  0  0  2  0  0  0  0  0  0
  196.3620  174.6530  142.0730 C   0  0  0  0  0  0  0  0  0  0  0  0
  192.4180  172.4250  138.8740 C   0  0  2  0  0  3  0  0  0  0  0  0
  196.9230  174.8640  144.3560 N   0  0  0  0  0  2  0  0  0  0  0  0
  191.0220  175.2090  148.2280 O   0  0  0  0  0  1  0  0  0  0  0  0
  189.5640  173.9420  142.0940 C   0  0  0  0  0  2  0  0  0  0  0  0
  187.9230  177.3160  146.5230 N   0  0  1  0  0  0  0  0  0  0  0  0
  191.6320  176.3890  144.5000 S   0  0  0  0  0  0  0  0  0  0  0  0
  191.4660  172.6130  137.6990 C   0  0  0  0  0  1  0  0  0  0  0  0
  186.8150  177.8150  147.3440 C   0  0  0  0  0  2  0  0  0  0  0  0
  191.2440  173.8750  140.2280 C   0  0  0  0  0  2  0  0  0  0  0  0
  189.8920  176.1150  144.9010 C   0  0  1  0  0  0  0  0  0  0  0  0
  188.2780  175.9460  146.8820 C   0  0  0  0  0  2  0  0  0  0  0  0
  195.6770  173.6930  137.4370 O   0  0  0  0  0  0  0  0  0  0  0  0
  195.0120  171.4330  137.6670 N   0  0  0  0  0  0  0  0  0  0  0  0
  196.2610  171.0410  138.2990 C   0  0  0  0  0  2  0  0  0  0  0  0
  196.6530  169.6910  137.6870 C   0  0  2  0  0  3  0  0  0  0  0  0
  194.6160  170.4110  136.7760 C   0  0  0  0  0  0  0  0  0  0  0  0
  193.6450  170.5260  135.9830 O   0  0  0  0  0  0  0  0  0  0  0  0
  195.5000  169.2320  136.7980 C   0  0  0  0  0  2  0  0  0  0  0  0
  196.8960  168.7590  138.6840 F   0  0  0  0  0  0  0  0  0  0  0  0
  191.3850  177.7930  149.0080 C   0  0  0  0  0  1  0  0  0  0  0  0
  190.6000  177.5110  147.7310 C   0  0  0  0  0  2  0  0  0  0  0  0
  2 40  1  1  0  0  0
  2 21  1  0  0  0  0
  3 37  1  0  0  0  0
  3 10  1  0  0  0  0
  4 48  1  0  0  0  0
  4 30  1  0  0  0  0
  5 17  1  0  0  0  0
  5 10  1  0  0  0  0
  6 38  1  0  0  0  0
  6  4  1  0  0  0  0
  7 31  1  0  0  0  0
  8 36  1  0  0  0  0
  9 25  1  0  0  0  0
  9 24  1  0  0  0  0
 10 32  1  0  0  0  0
 11  3  1  0  0  0  0
 11 37  1  0  0  0  0
 12 29  1  0  0  0  0
 12 23  1  0  0  0  0
 13 19  1  0  0  0  0
 14  1  1  0  0  0  0
 14  4  1  0  0  0  0
 15 12  1  0  0  0  0
 16  1  1  0  0  0  0
 17 13  1  0  0  0  0
 18 11  1  0  0  0  0
 19 35  1  0  0  0  0
 20 22  2  0  0  0  0
 21 28  1  0  0  0  0
 21 25  1  0  0  0  0
 22  9  1  0  0  0  0
 23 16  2  0  0  0  0
 24 27  2  0  0  0  0
 26 29  1  0  0  0  0
 27 15  1  0  0  0  0
 27 26  1  0  0  0  0
 28  8  1  0  0  0  0
 31 18  1  0  0  0  0
 32 38  1  0  0  0  0
 32 35  1  0  0  0  0
 33 37  1  0  0  0  0
 33 14  1  0  0  0  0
 34 28  1  0  0  0  0
 36  7  1  0  0  0  0
 37  6  1  0  0  0  0
 39  2  1  0  0  0  0
 39 22  1  0  0  0  0
 40 41  1  0  0  0  0
 42 41  1  0  0  0  0
 42 46  1  0  0  0  0
 43 45  1  0  0  0  0
 43 40  1  0  0  0  0
 44 43  2  0  0  0  0
 45 42  1  0  0  0  0
 48 47  1  0  0  0  0
M  END
>  <MODEL>
1

>  <REMARK>
 VINA RESULT:      -9.7      0.000      0.000
  Name = 
  2 active torsions:
  status: ('A' for Active; 'I' for Inactive)
    1  A    between atoms: C_2  and  N_4
    2  A    between atoms: C_5  and  C_45
                            x       y       z     vdW  Elec       q    Type
                         _______ _______ _______ _____ _____    ______ ____

>  <TORSDO>
F 2

$$$$
=
 OpenBabel11062421493D

 48 55  0  0  1  0  0  0  0  0999 V2000
  192.4370  174.7570  145.8730 C   0  0  0  0  0  2  0  0  0  0  0  0
  192.3710  172.6030  136.7770 C   0  0  1  0  0  3  0  0  0  0  0  0
  188.2270  177.3040  144.2220 C   0  0  2  0  0  3  0  0  0  0  0  0
  190.4430  176.0690  146.8610 C   0  0  2  0  0  0  0  0  0  0  0  0
  185.7470  177.2740  144.9250 C   0  0  0  0  0  2  0  0  0  0  0  0
  189.1050  175.7270  146.1840 C   0  0  2  0  0  3  0  0  0  0  0  0
  188.1950  174.0120  140.4930 C   0  0  0  0  0  2  0  0  0  0  0  0
  189.9770  172.6040  139.7340 O   0  0  0  0  0  0  0  0  0  0  0  0
  193.7230  173.9010  138.9770 C   0  0  2  0  0  3  0  0  0  0  0  0
  187.1660  177.7790  145.2450 C   0  0  1  0  0  3  0  0  0  0  0  0
  188.0460  175.8240  143.8310 C   0  0  1  0  0  3  0  0  0  0  0  0
  195.0570  175.4490  143.1240 C   0  0  1  0  0  3  0  0  0  0  0  0
  184.4410  178.2910  146.8880 C   0  0  0  0  0  2  0  0  0  0  0  0
  191.5520  176.0120  145.7830 C   0  0  2  0  0  3  0  0  0  0  0  0
  194.0000  175.4610  141.6230 S   0  0  0  0  0  0  0  0  0  0  0  0
  193.3610  174.6020  144.7000 C   0  0  0  0  0  3  0  0  0  0  0  0
  184.7080  178.3050  145.3730 C   0  0  0  0  0  2  0  0  0  0  0  0
  188.4620  175.6030  142.3840 C   0  0  0  0  0  2  0  0  0  0  0  0
  185.4030  177.4910  147.6420 N   0  0  0  0  0  2  0  0  0  0  0  0
  195.3360  174.5690  137.3010 O   0  0  0  0  0  0  0  0  0  0  0  0
  191.7280  173.1300  138.0840 C   0  0  2  0  0  3  0  0  0  0  0  0
  194.2800  173.9250  137.5650 C   0  0  0  0  0  0  0  0  0  0  0  0
  194.1990  175.5700  144.3410 C   0  0  0  0  0  3  0  0  0  0  0  0
  194.7820  173.5260  139.8940 N   0  0  0  0  0  0  0  0  0  0  0  0
  192.6540  172.9810  139.1330 O   0  0  0  0  0  0  0  0  0  0  0  0
  195.9730  173.6900  141.9230 N   0  0  0  0  0  2  0  0  0  0  0  0
  194.9890  174.1350  141.0210 C   0  0  0  0  0  0  0  0  0  0  0  0
  190.4130  172.4090  138.4060 C   0  0  2  0  0  3  0  0  0  0  0  0
  195.8860  174.2390  143.2020 N   0  0  0  0  0  2  0  0  0  0  0  0
  190.6650  175.1350  147.8770 O   0  0  0  0  0  1  0  0  0  0  0  0
  188.2260  174.1570  142.0080 C   0  0  0  0  0  2  0  0  0  0  0  0
  187.6040  177.5960  146.6420 N   0  0  1  0  0  0  0  0  0  0  0  0
  190.8670  176.3190  144.1070 S   0  0  0  0  0  0  0  0  0  0  0  0
  189.3310  172.7220  137.3800 C   0  0  0  0  0  1  0  0  0  0  0  0
  186.6850  178.1930  147.6160 C   0  0  0  0  0  2  0  0  0  0  0  0
  189.6080  173.9480  139.9210 C   0  0  0  0  0  2  0  0  0  0  0  0
  189.1820  176.2240  144.7500 C   0  0  1  0  0  0  0  0  0  0  0  0
  187.8550  176.1880  146.9400 C   0  0  0  0  0  2  0  0  0  0  0  0
  193.5560  173.3500  136.5260 O   0  0  0  0  0  0  0  0  0  0  0  0
  192.6870  171.1690  136.8370 N   0  0  0  0  0  0  0  0  0  0  0  0
  193.9740  170.6340  137.2490 C   0  0  0  0  0  2  0  0  0  0  0  0
  194.1060  169.2590  136.5860 C   0  0  2  0  0  3  0  0  0  0  0  0
  192.0360  170.2100  136.0300 C   0  0  0  0  0  0  0  0  0  0  0  0
  190.9640  170.4420  135.4120 O   0  0  0  0  0  0  0  0  0  0  0  0
  192.7770  168.9420  135.9070 C   0  0  0  0  0  2  0  0  0  0  0  0
  194.4100  168.2910  137.5310 F   0  0  0  0  0  0  0  0  0  0  0  0
  191.2150  177.5830  148.7610 C   0  0  0  0  0  1  0  0  0  0  0  0
  190.4300  177.4780  147.4570 C   0  0  0  0  0  2  0  0  0  0  0  0
  2 40  1  1  0  0  0
  2 21  1  0  0  0  0
  3 37  1  0  0  0  0
  3 10  1  0  0  0  0
  4 48  1  0  0  0  0
  4 30  1  0  0  0  0
  5 10  1  0  0  0  0
  5 17  1  0  0  0  0
  6  4  1  0  0  0  0
  6 38  1  0  0  0  0
  7 31  1  0  0  0  0
  8 36  1  0  0  0  0
  9 25  1  0  0  0  0
  9 24  1  0  0  0  0
 10 32  1  0  0  0  0
 11  3  1  0  0  0  0
 11 37  1  0  0  0  0
 12 29  1  0  0  0  0
 12 23  1  0  0  0  0
 13 19  1  0  0  0  0
 14  1  1  0  0  0  0
 14  4  1  0  0  0  0
 15 12  1  0  0  0  0
 16  1  1  0  0  0  0
 17 13  1  0  0  0  0
 18 11  1  0  0  0  0
 20 22  2  0  0  0  0
 21 28  1  0  0  0  0
 21 25  1  0  0  0  0
 22  9  1  0  0  0  0
 23 16  2  0  0  0  0
 24 27  2  0  0  0  0
 26 29  1  0  0  0  0
 27 15  1  0  0  0  0
 27 26  1  0  0  0  0
 28  8  1  0  0  0  0
 31 18  1  0  0  0  0
 32 38  1  0  0  0  0
 32 35  1  0  0  0  0
 33 37  1  0  0  0  0
 33 14  1  0  0  0  0
 34 28  1  0  0  0  0
 35 19  1  0  0  0  0
 36  7  1  0  0  0  0
 37  6  1  0  0  0  0
 39  2  1  0  0  0  0
 39 22  1  0  0  0  0
 40 41  1  0  0  0  0
 42 41  1  0  0  0  0
 42 46  1  0  0  0  0
 43 40  1  0  0  0  0
 44 43  2  0  0  0  0
 45 43  1  0  0  0  0
 45 42  1  0  0  0  0
 48 47  1  0  0  0  0
M  END
>  <MODEL>
2

>  <REMARK>
 VINA RESULT:      -9.5      1.386      1.676
  Name = 
  2 active torsions:
  status: ('A' for Active; 'I' for Inactive)
    1  A    between atoms: C_2  and  N_4
    2  A    between atoms: C_5  and  C_45
                            x       y       z     vdW  Elec       q    Type
                         _______ _______ _______ _____ _____    ______ ____

>  <TORSDO>
F 2

$$$$
=
 OpenBabel11062421493D

 48 55  0  0  1  0  0  0  0  0999 V2000
  191.4600  175.5000  146.8740 C   0  0  0  0  0  2  0  0  0  0  0  0
  195.5270  172.3440  139.0720 C   0  0  1  0  0  3  0  0  0  0  0  0
  188.4750  177.6280  143.2000 C   0  0  2  0  0  3  0  0  0  0  0  0
  189.2410  176.8100  146.6860 C   0  0  2  0  0  0  0  0  0  0  0  0
  185.9460  177.5500  142.7050 C   0  0  0  0  0  2  0  0  0  0  0  0
  188.3560  176.3260  145.5240 C   0  0  2  0  0  3  0  0  0  0  0  0
  190.1250  173.9430  140.2950 C   0  0  0  0  0  2  0  0  0  0  0  0
  192.0500  172.5520  140.6020 O   0  0  0  0  0  0  0  0  0  0  0  0
  195.7370  173.9470  141.4680 C   0  0  2  0  0  3  0  0  0  0  0  0
  187.0670  178.1590  143.5670 C   0  0  1  0  0  3  0  0  0  0  0  0
  188.4840  176.1060  142.9540 C   0  0  1  0  0  3  0  0  0  0  0  0
  195.0470  176.0140  145.5460 C   0  0  1  0  0  3  0  0  0  0  0  0
  183.8960  178.7120  143.7240 C   0  0  0  0  0  2  0  0  0  0  0  0
  190.7180  176.6900  146.2420 C   0  0  2  0  0  3  0  0  0  0  0  0
  194.7890  175.8050  143.7400 S   0  0  0  0  0  0  0  0  0  0  0  0
  192.8150  175.2620  146.2750 C   0  0  0  0  0  3  0  0  0  0  0  0
  184.8220  178.5700  142.5040 C   0  0  0  0  0  2  0  0  0  0  0  0
  189.5110  175.7470  141.8920 C   0  0  0  0  0  2  0  0  0  0  0  0
  184.4050  178.0510  144.9230 N   0  0  0  0  0  2  0  0  0  0  0  0
  197.9400  174.5060  140.6350 O   0  0  0  0  0  0  0  0  0  0  0  0
  194.3630  172.9810  139.8710 C   0  0  2  0  0  3  0  0  0  0  0  0
  196.8760  173.8420  140.4690 C   0  0  0  0  0  0  0  0  0  0  0  0
  193.7290  176.2250  146.2180 C   0  0  0  0  0  3  0  0  0  0  0  0
  196.2610  173.7310  142.8030 N   0  0  0  0  0  0  0  0  0  0  0  0
  194.7100  172.9970  141.2350 O   0  0  0  0  0  0  0  0  0  0  0  0
  196.4000  174.1810  145.1140 N   0  0  0  0  0  2  0  0  0  0  0  0
  195.9360  174.4720  143.8180 C   0  0  0  0  0  0  0  0  0  0  0  0
  193.0420  172.2330  139.6500 C   0  0  2  0  0  3  0  0  0  0  0  0
  195.7440  174.8640  146.1370 N   0  0  0  0  0  2  0  0  0  0  0  0
  188.9720  176.0070  147.7980 O   0  0  0  0  0  1  0  0  0  0  0  0
  189.4640  174.2580  141.6300 C   0  0  0  0  0  2  0  0  0  0  0  0
  186.8210  178.1560  145.0220 N   0  0  1  0  0  0  0  0  0  0  0  0
  190.8730  176.7720  144.4130 S   0  0  0  0  0  0  0  0  0  0  0  0
  192.5470  172.3750  138.2160 C   0  0  0  0  0  1  0  0  0  0  0  0
  185.5620  178.8100  145.3930 C   0  0  0  0  0  2  0  0  0  0  0  0
  191.6430  173.8890  140.4370 C   0  0  0  0  0  2  0  0  0  0  0  0
  189.0790  176.6640  144.2310 C   0  0  1  0  0  0  0  0  0  0  0  0
  186.9010  176.8040  145.5710 C   0  0  0  0  0  2  0  0  0  0  0  0
  196.7000  173.1180  139.2940 O   0  0  0  0  0  0  0  0  0  0  0  0
  195.7740  170.9450  139.4440 N   0  0  0  0  0  0  0  0  0  0  0  0
  196.7010  170.5270  140.4820 C   0  0  0  0  0  2  0  0  0  0  0  0
  197.1360  169.1010  140.1300 C   0  0  2  0  0  3  0  0  0  0  0  0
  195.5940  169.8730  138.5420 C   0  0  0  0  0  0  0  0  0  0  0  0
  194.9540  169.9790  137.4630 O   0  0  0  0  0  0  0  0  0  0  0  0
  196.3000  168.6420  138.9380 C   0  0  0  0  0  2  0  0  0  0  0  0
  196.9450  168.2540  141.2110 F   0  0  0  0  0  0  0  0  0  0  0  0
  189.3790  178.6380  148.4560 C   0  0  0  0  0  1  0  0  0  0  0  0
  188.9660  178.2740  147.0340 C   0  0  0  0  0  2  0  0  0  0  0  0
  2 39  1  0  0  0  0
  2 40  1  1  0  0  0
  2 21  1  0  0  0  0
  3 10  1  0  0  0  0
  3 37  1  0  0  0  0
  4 48  1  0  0  0  0
  4 30  1  0  0  0  0
  5 10  1  0  0  0  0
  6 38  1  0  0  0  0
  6  4  1  0  0  0  0
  7 36  1  0  0  0  0
  7 31  1  0  0  0  0
  9 24  1  0  0  0  0
 10 32  1  0  0  0  0
 11  3  1  0  0  0  0
 11 37  1  0  0  0  0
 12 29  1  0  0  0  0
 12 23  1  0  0  0  0
 13 19  1  0  0  0  0
 14  4  1  0  0  0  0
 14  1  1  0  0  0  0
 15 27  1  0  0  0  0
 15 12  1  0  0  0  0
 16  1  1  0  0  0  0
 17  5  1  0  0  0  0
 17 13  1  0  0  0  0
 18 11  1  0  0  0  0
 19 35  1  0  0  0  0
 21 25  1  0  0  0  0
 22 20  2  0  0  0  0
 22  9  1  0  0  0  0
 23 16  2  0  0  0  0
 24 27  2  0  0  0  0
 25  9  1  0  0  0  0
 26 29  1  0  0  0  0
 27 26  1  0  0  0  0
 28 21  1  0  0  0  0
 28  8  1  0  0  0  0
 31 18  1  0  0  0  0
 32 35  1  0  0  0  0
 32 38  1  0  0  0  0
 33 14  1  0  0  0  0
 34 28  1  0  0  0  0
 36  8  1  0  0  0  0
 37 33  1  0  0  0  0
 37  6  1  0  0  0  0
 39 22  1  0  0  0  0
 40 41  1  0  0  0  0
 42 41  1  0  0  0  0
 42 46  1  0  0  0  0
 43 45  1  0  0  0  0
 43 40  1  0  0  0  0
 44 43  2  0  0  0  0
 45 42  1  0  0  0  0
 48 47  1  0  0  0  0
M  END
>  <MODEL>
3

>  <REMARK>
 VINA RESULT:      -8.1      1.601      1.862
  Name = 
  2 active torsions:
  status: ('A' for Active; 'I' for Inactive)
    1  A    between atoms: C_2  and  N_4
    2  A    between atoms: C_5  and  C_45
                            x       y       z     vdW  Elec       q    Type
                         _______ _______ _______ _____ _____    ______ ____

>  <TORSDO>
F 2

$$$$
=
 OpenBabel11062421493D

 48 55  0  0  1  0  0  0  0  0999 V2000
  189.0550  175.9970  146.5580 C   0  0  0  0  0  2  0  0  0  0  0  0
  194.7640  172.1600  140.2290 C   0  0  1  0  0  3  0  0  0  0  0  0
  187.0210  177.7450  142.1150 C   0  0  2  0  0  3  0  0  0  0  0  0
  186.9560  177.2630  145.7430 C   0  0  2  0  0  0  0  0  0  0  0  0
  184.6730  177.5980  141.0610 C   0  0  0  0  0  2  0  0  0  0  0  0
  186.3550  176.6650  144.4600 C   0  0  2  0  0  3  0  0  0  0  0  0
  189.2470  173.8180  140.0230 C   0  0  0  0  0  2  0  0  0  0  0  0
  191.0310  172.4790  140.8930 O   0  0  0  0  0  0  0  0  0  0  0  0
  194.4390  173.9810  142.4480 C   0  0  2  0  0  3  0  0  0  0  0  0
  185.5740  178.2950  142.0970 C   0  0  1  0  0  3  0  0  0  0  0  0
  187.0660  176.2060  142.0200 C   0  0  1  0  0  3  0  0  0  0  0  0
  192.8580  176.4160  146.0470 C   0  0  1  0  0  3  0  0  0  0  0  0
  182.4580  178.8320  141.4690 C   0  0  0  0  0  2  0  0  0  0  0  0
  188.4940  177.1150  145.6640 C   0  0  2  0  0  3  0  0  0  0  0  0
  193.0190  176.0360  144.2580 S   0  0  0  0  0  0  0  0  0  0  0  0
  190.5090  175.7160  146.3110 C   0  0  0  0  0  3  0  0  0  0  0  0
  183.6390  178.5850  140.5130 C   0  0  0  0  0  2  0  0  0  0  0  0
  188.3050  175.7590  141.2600 C   0  0  0  0  0  2  0  0  0  0  0  0
  182.6700  178.2910  142.8090 N   0  0  0  0  0  2  0  0  0  0  0  0
  196.7810  174.4800  142.0950 O   0  0  0  0  0  0  0  0  0  0  0  0
  193.4550  172.8580  140.6760 C   0  0  2  0  0  3  0  0  0  0  0  0
  195.7750  173.7940  141.7520 C   0  0  0  0  0  0  0  0  0  0  0  0
  191.4240  176.6780  146.3760 C   0  0  0  0  0  3  0  0  0  0  0  0
  194.6390  173.8970  143.8820 N   0  0  0  0  0  0  0  0  0  0  0  0
  193.4800  173.0050  142.0750 O   0  0  0  0  0  0  0  0  0  0  0  0
  194.2500  174.5620  146.1110 N   0  0  0  0  0  2  0  0  0  0  0  0
  194.1000  174.7260  144.7220 C   0  0  0  0  0  0  0  0  0  0  0  0
  192.2110  172.0810  140.2280 C   0  0  2  0  0  3  0  0  0  0  0  0
  193.3850  175.3320  146.8880 N   0  0  0  0  0  2  0  0  0  0  0  0
  186.4290  176.5660  146.8340 O   0  0  0  0  0  1  0  0  0  0  0  0
  188.3010  174.2500  141.1350 C   0  0  0  0  0  2  0  0  0  0  0  0
  185.0000  178.4260  143.4500 N   0  0  1  0  0  0  0  0  0  0  0  0
  189.0660  177.0270  143.9200 S   0  0  0  0  0  0  0  0  0  0  0  0
  192.0600  172.0830  138.7120 C   0  0  0  0  0  1  0  0  0  0  0  0
  183.6980  179.1010  143.4600 C   0  0  0  0  0  2  0  0  0  0  0  0
  190.6910  173.7910  140.5140 C   0  0  0  0  0  2  0  0  0  0  0  0
  187.3600  176.8870  143.3420 C   0  0  1  0  0  0  0  0  0  0  0  0
  184.9340  177.1330  144.1260 C   0  0  0  0  0  2  0  0  0  0  0  0
  195.8650  172.9610  140.6410 O   0  0  0  0  0  0  0  0  0  0  0  0
  194.9010  170.8030  140.7760 N   0  0  0  0  0  0  0  0  0  0  0  0
  195.5640  170.4930  142.0310 C   0  0  0  0  0  2  0  0  0  0  0  0
  196.0470  169.0420  141.9210 C   0  0  2  0  0  3  0  0  0  0  0  0
  194.9120  169.6490  139.9610 C   0  0  0  0  0  0  0  0  0  0  0  0
  194.5320  169.6490  138.7610 O   0  0  0  0  0  0  0  0  0  0  0  0
  195.4940  168.4660  140.6200 C   0  0  0  0  0  2  0  0  0  0  0  0
  195.6050  168.3000  143.0060 F   0  0  0  0  0  0  0  0  0  0  0  0
  185.7760  179.0650  147.1070 C   0  0  0  0  0  1  0  0  0  0  0  0
  186.6270  178.7510  145.8810 C   0  0  0  0  0  2  0  0  0  0  0  0
  2 39  1  0  0  0  0
  2 21  1  0  0  0  0
  2 40  1  1  0  0  0
  3 37  1  0  0  0  0
  4 48  1  0  0  0  0
  4 30  1  0  0  0  0
  5 10  1  0  0  0  0
  6  4  1  0  0  0  0
  7 36  1  0  0  0  0
  7 31  1  0  0  0  0
  9 24  1  0  0  0  0
 10  3  1  0  0  0  0
 10 32  1  0  0  0  0
 11  3  1  0  0  0  0
 11 37  1  0  0  0  0
 12 23  1  0  0  0  0
 12 29  1  0  0  0  0
 13 19  1  0  0  0  0
 14  4  1  0  0  0  0
 14  1  1  0  0  0  0
 15 27  1  0  0  0  0
 15 12  1  0  0  0  0
 16 23  2  0  0  0  0
 16  1  1  0  0  0  0
 17  5  1  0  0  0  0
 17 13  1  0  0  0  0
 18 11  1  0  0  0  0
 19 35  1  0  0  0  0
 21 25  1  0  0  0  0
 22 20  2  0  0  0  0
 22  9  1  0  0  0  0
 24 27  2  0  0  0  0
 25  9  1  0  0  0  0
 26 29  1  0  0  0  0
 27 26  1  0  0  0  0
 28 21  1  0  0  0  0
 28  8  1  0  0  0  0
 31 18  1  0  0  0  0
 32 35  1  0  0  0  0
 32 38  1  0  0  0  0
 33 14  1  0  0  0  0
 34 28  1  0  0  0  0
 36  8  1  0  0  0  0
 37 33  1  0  0  0  0
 37  6  1  0  0  0  0
 38  6  1  0  0  0  0
 39 22  1  0  0  0  0
 40 41  1  0  0  0  0
 42 41  1  0  0  0  0
 42 46  1  0  0  0  0
 43 45  1  0  0  0  0
 43 40  1  0  0  0  0
 44 43  2  0  0  0  0
 45 42  1  0  0  0  0
 48 47  1  0  0  0  0
M  END
>  <MODEL>
4

>  <REMARK>
 VINA RESULT:      -8.0      2.703      3.653
  Name = 
  2 active torsions:
  status: ('A' for Active; 'I' for Inactive)
    1  A    between atoms: C_2  and  N_4
    2  A    between atoms: C_5  and  C_45
                            x       y       z     vdW  Elec       q    Type
                         _______ _______ _______ _____ _____    ______ ____

>  <TORSDO>
F 2

$$$$
=
 OpenBabel11062421493D

 48 55  0  0  1  0  0  0  0  0999 V2000
  186.7950  177.5400  139.4140 C   0  0  0  0  0  2  0  0  0  0  0  0
  195.1090  173.2690  139.5010 C   0  0  1  0  0  3  0  0  0  0  0  0
  187.2990  176.3290  144.4360 C   0  0  2  0  0  3  0  0  0  0  0  0
  185.6100  178.0160  141.6610 C   0  0  2  0  0  0  0  0  0  0  0  0
  187.2470  177.7150  146.6080 C   0  0  0  0  0  2  0  0  0  0  0  0
  186.5930  178.3160  142.8050 C   0  0  2  0  0  3  0  0  0  0  0  0
  192.1840  176.2150  143.5000 C   0  0  0  0  0  2  0  0  0  0  0  0
  193.2910  176.0300  141.3850 O   0  0  0  0  0  0  0  0  0  0  0  0
  192.3690  173.2790  138.5800 C   0  0  2  0  0  3  0  0  0  0  0  0
  186.4240  177.0480  145.4910 C   0  0  1  0  0  3  0  0  0  0  0  0
  188.5400  177.1540  144.0400 C   0  0  1  0  0  3  0  0  0  0  0  0
  187.9850  174.3570  137.5840 C   0  0  1  0  0  3  0  0  0  0  0  0
  185.3640  178.7520  148.0130 C   0  0  0  0  0  2  0  0  0  0  0  0
  186.2630  176.9610  140.7360 C   0  0  2  0  0  3  0  0  0  0  0  0
  189.3300  173.7910  138.6980 S   0  0  0  0  0  0  0  0  0  0  0  0
  187.6150  176.5600  138.6280 C   0  0  0  0  0  3  0  0  0  0  0  0
  186.4690  177.6840  147.9260 C   0  0  0  0  0  2  0  0  0  0  0  0
  189.7070  176.2330  143.7150 C   0  0  0  0  0  2  0  0  0  0  0  0
  185.0940  179.4160  146.7410 N   0  0  0  0  0  2  0  0  0  0  0  0
  192.9410  171.1640  137.5500 O   0  0  0  0  0  0  0  0  0  0  0  0
  193.9040  173.9770  140.1700 C   0  0  2  0  0  3  0  0  0  0  0  0
  193.3330  172.1610  138.2220 C   0  0  0  0  0  0  0  0  0  0  0  0
  187.1400  175.3650  138.2930 C   0  0  0  0  0  3  0  0  0  0  0  0
  191.6940  173.7200  137.3750 N   0  0  0  0  0  0  0  0  0  0  0  0
  193.0150  174.3980  139.1640 O   0  0  0  0  0  0  0  0  0  0  0  0
  189.8110  174.4510  136.1580 N   0  0  0  0  0  2  0  0  0  0  0  0
  190.4170  173.9440  137.3220 C   0  0  0  0  0  0  0  0  0  0  0  0
  194.3470  175.1590  141.0410 C   0  0  2  0  0  3  0  0  0  0  0  0
  188.5100  174.9210  136.3330 N   0  0  0  0  0  2  0  0  0  0  0  0
  185.3600  179.2110  140.9800 O   0  0  0  0  0  1  0  0  0  0  0  0
  190.9260  177.0650  143.3810 C   0  0  0  0  0  2  0  0  0  0  0  0
  185.3810  177.8950  144.8810 N   0  0  1  0  0  0  0  0  0  0  0  0
  187.4920  175.9450  141.6480 S   0  0  0  0  0  0  0  0  0  0  0  0
  195.1480  174.6980  142.2520 C   0  0  0  0  0  1  0  0  0  0  0  0
  184.4410  178.4460  145.8620 C   0  0  0  0  0  2  0  0  0  0  0  0
  192.3940  175.3720  142.2460 C   0  0  0  0  0  2  0  0  0  0  0  0
  187.3740  177.0420  143.0790 C   0  0  1  0  0  0  0  0  0  0  0  0
  185.9670  178.9460  144.0540 C   0  0  0  0  0  2  0  0  0  0  0  0
  194.6200  172.1630  138.7510 O   0  0  0  0  0  0  0  0  0  0  0  0
  195.8800  174.1620  138.6270 N   0  0  0  0  0  0  0  0  0  0  0  0
  195.6200  174.3420  137.2080 C   0  0  0  0  0  2  0  0  0  0  0  0
  196.9430  174.7900  136.5770 C   0  0  2  0  0  3  0  0  0  0  0  0
  197.2240  174.5110  138.8880 C   0  0  0  0  0  0  0  0  0  0  0  0
  197.7800  174.3280  140.0020 O   0  0  0  0  0  0  0  0  0  0  0  0
  197.9400  175.0260  137.7070 C   0  0  0  0  0  2  0  0  0  0  0  0
  196.7600  175.9510  135.8410 F   0  0  0  0  0  0  0  0  0  0  0  0
  183.0810  178.2910  141.8130 C   0  0  0  0  0  1  0  0  0  0  0  0
  184.2930  177.4410  142.1840 C   0  0  0  0  0  2  0  0  0  0  0  0
  1 14  1  0  0  0  0
  2 40  1  6  0  0  0
  2 21  1  0  0  0  0
  3 10  1  0  0  0  0
  4 48  1  0  0  0  0
  4  6  1  0  0  0  0
  5 17  1  0  0  0  0
  6 37  1  0  0  0  0
  6 38  1  0  0  0  0
  8 36  1  0  0  0  0
  9 25  1  0  0  0  0
 10  5  1  0  0  0  0
 11  3  1  0  0  0  0
 12 23  1  0  0  0  0
 12 15  1  0  0  0  0
 14 33  1  0  0  0  0
 14  4  1  0  0  0  0
 16  1  1  0  0  0  0
 17 13  1  0  0  0  0
 18 11  1  0  0  0  0
 19 13  1  0  0  0  0
 20 22  2  0  0  0  0
 21 28  1  0  0  0  0
 22  9  1  0  0  0  0
 22 39  1  0  0  0  0
 23 16  2  0  0  0  0
 24  9  1  0  0  0  0
 25 21  1  0  0  0  0
 26 29  1  0  0  0  0
 26 27  1  0  0  0  0
 27 24  2  0  0  0  0
 27 15  1  0  0  0  0
 28  8  1  0  0  0  0
 28 34  1  0  0  0  0
 29 12  1  0  0  0  0
 30  4  1  0  0  0  0
 31  7  1  0  0  0  0
 31 18  1  0  0  0  0
 32 10  1  0  0  0  0
 32 35  1  0  0  0  0
 33 37  1  0  0  0  0
 35 19  1  0  0  0  0
 36  7  1  0  0  0  0
 37 11  1  0  0  0  0
 37  3  1  0  0  0  0
 38 32  1  0  0  0  0
 39  2  1  0  0  0  0
 40 43  1  0  0  0  0
 41 40  1  0  0  0  0
 42 41  1  0  0  0  0
 42 45  1  0  0  0  0
 43 44  2  0  0  0  0
 45 43  1  0  0  0  0
 46 42  1  0  0  0  0
 47 48  1  0  0  0  0
M  END
>  <MODEL>
5

>  <REMARK>
 VINA RESULT:      -6.9      3.380      6.067
  Name = 
  2 active torsions:
  status: ('A' for Active; 'I' for Inactive)
    1  A    between atoms: C_2  and  N_4
    2  A    between atoms: C_5  and  C_45
                            x       y       z     vdW  Elec       q    Type
                         _______ _______ _______ _____ _____    ______ ____

>  <TORSDO>
F 2

$$$$
