=
 OpenBabel11062418323D

 54 60  0  0  1  0  0  0  0  0999 V2000
  187.4140  178.2240  143.5560 C   0  0  0  0  0  3  0  0  0  0  0  0
  188.6150  177.5240  143.5970 C   0  0  0  0  0  3  0  0  0  0  0  0
  187.9220  176.2170  141.6710 C   0  0  0  0  0  0  0  0  0  0  0  0
  189.5150  171.2040  141.6940 O   0  0  0  0  0  0  0  0  0  0  0  0
  186.7190  176.9340  141.6320 C   0  0  0  0  0  3  0  0  0  0  0  0
  190.2070  172.2640  141.7130 C   0  0  0  0  0  0  0  0  0  0  0  0
  188.8850  176.5170  142.6670 C   0  0  0  0  0  0  0  0  0  0  0  0
  188.1500  175.1880  140.6120 C   0  0  0  0  0  2  0  0  0  0  0  0
  186.4530  177.9260  142.5800 C   0  0  0  0  0  0  0  0  0  0  0  0
  193.8110  173.0280  141.3340 N   0  0  0  0  0  2  0  0  0  0  0  0
  190.5420  174.7670  141.9730 C   0  0  2  0  0  3  0  0  0  0  0  0
  189.5550  173.5780  142.0740 C   0  0  1  0  0  3  0  0  0  0  0  0
  192.4250  173.1750  141.6570 C   0  0  0  0  0  0  0  0  0  0  0  0
  191.9440  174.3840  142.4110 C   0  0  0  0  0  2  0  0  0  0  0  0
  190.1080  175.8460  142.7920 O   0  0  0  0  0  0  0  0  0  0  0  0
  188.2980  173.7860  141.2100 C   0  0  0  0  0  2  0  0  0  0  0  0
  191.6100  172.1910  141.4170 N   0  0  0  0  0  0  0  0  0  0  0  0
  194.7640  174.0830  141.5190 C   0  0  0  0  0  0  0  0  0  0  0  0
  195.1990  174.3360  142.7590 C   0  0  0  0  0  3  0  0  0  0  0  0
  195.2710  174.8220  140.3090 C   0  0  0  0  0  2  0  0  0  0  0  0
  195.0270  173.9270  139.0680 C   0  0  0  0  0  2  0  0  0  0  0  0
  195.6780  173.3790  136.7290 C   0  0  0  0  0  2  0  0  0  0  0  0
  196.0870  174.3540  135.7880 O   0  0  0  0  0  0  0  0  0  0  0  0
  196.6520  175.1890  137.9080 C   0  0  0  0  0  2  0  0  0  0  0  0
  196.1150  173.8360  138.0700 N   0  0  0  0  0  0  0  0  0  0  0  0
  197.0550  176.4620  135.8980 O   0  0  0  0  0  0  0  0  0  0  0  0
  196.6390  175.4120  136.4570 C   0  0  0  0  0  0  0  0  0  0  0  0
  196.1300  175.4520  143.1220 C   0  0  0  0  0  2  0  0  0  0  0  0
  195.9800  175.8520  144.5840 C   0  0  0  0  0  2  0  0  0  0  0  0
  195.3890  174.7210  145.4160 C   0  0  0  0  0  2  0  0  0  0  0  0
  191.8140  175.1430  147.9050 O   0  0  0  0  0  1  0  0  0  0  0  0
  191.3220  176.1320  145.7740 C   0  0  0  0  0  2  0  0  0  0  0  0
  192.9500  174.2400  145.9830 C   0  0  0  0  0  2  0  0  0  0  0  0
  191.6770  174.8600  146.5430 C   0  0  1  0  0  3  0  0  0  0  0  0
  193.8900  176.6660  146.0530 C   0  0  0  0  0  2  0  0  0  0  0  0
  194.1570  175.1630  146.1980 C   0  0  2  0  0  3  0  0  0  0  0  0
  192.5160  177.0680  145.4930 C   0  0  1  0  0  3  0  0  0  0  0  0
  192.6000  177.5130  144.0390 C   0  0  0  0  0  2  0  0  0  0  0  0
  191.7190  178.5560  143.7700 O   0  0  0  0  0  1  0  0  0  0  0  0
  185.2000  178.7500  142.4520 C   0  0  1  0  0  3  0  0  0  0  0  0
  182.5070  177.9760  140.0890 N   0  0  0  0  0  2  0  0  0  0  0  0
  183.9210  178.0950  140.3750 C   0  0  0  0  0  2  0  0  0  0  0  0
  182.7510  178.4090  142.3270 N   0  0  0  0  0  2  0  0  0  0  0  0
  181.8230  178.0660  141.3250 N   0  0  0  0  0  0  0  0  0  0  0  0
  180.8840  179.1730  141.2100 C   0  0  0  0  0  1  0  0  0  0  0  0
  184.0340  177.9400  141.8540 C   0  0  2  0  0  3  0  0  0  0  0  0
  184.9440  179.4440  143.8070 C   0  0  0  0  0  2  0  0  0  0  0  0
  184.1030  178.6820  144.8310 C   0  0  0  0  0  2  0  0  0  0  0  0
  186.3780  176.5570  147.4350 S   0  0  0  0  0  0  0  0  0  0  0  0
  187.1790  179.0370  148.2930 C   0  0  0  0  0  1  0  0  0  0  0  0
  184.9170  178.1560  145.9730 C   0  0  0  0  0  0  0  0  0  0  0  0
  185.1160  178.8700  147.0250 N   0  0  0  0  0  0  0  0  0  0  0  0
  185.9240  178.2230  148.0540 C   0  0  1  0  0  3  0  0  0  0  0  0
  185.5300  176.9160  145.9590 O   0  0  0  0  0  0  0  0  0  0  0  0
  1  2  1  0  0  0  0
  3  7  1  0  0  0  0
  4  6  2  0  0  0  0
  5  3  2  0  0  0  0
  5  9  1  0  0  0  0
  6 12  1  0  0  0  0
  7 15  1  0  0  0  0
  7  2  2  0  0  0  0
  8 16  1  0  0  0  0
  8  3  1  0  0  0  0
  9  1  2  0  0  0  0
 10 18  1  0  0  0  0
 10 13  1  0  0  0  0
 11 12  1  0  0  0  0
 11 14  1  1  0  0  0
 11 15  1  0  0  0  0
 12 16  1  6  0  0  0
 13 14  1  0  0  0  0
 17 13  2  0  0  0  0
 17  6  1  0  0  0  0
 18 19  2  0  0  0  0
 19 28  1  0  0  0  0
 20 18  1  0  0  0  0
 21 20  1  0  0  0  0
 22 25  1  0  0  0  0
 23 27  1  0  0  0  0
 23 22  1  0  0  0  0
 24 25  1  0  0  0  0
 25 21  1  0  0  0  0
 26 27  2  0  0  0  0
 27 24  1  0  0  0  0
 28 29  1  0  0  0  0
 29 30  1  0  0  0  0
 32 34  1  0  0  0  0
 33 36  1  0  0  0  0
 33 34  1  0  0  0  0
 34 31  1  1  0  0  0
 35 36  1  0  0  0  0
 36 30  1  6  0  0  0
 37 38  1  6  0  0  0
 37 32  1  0  0  0  0
 37 35  1  0  0  0  0
 39 38  1  0  0  0  0
 40  9  1  0  0  0  0
 40 47  1  1  0  0  0
 41 42  1  0  0  0  0
 41 44  1  0  0  0  0
 42 46  1  0  0  0  0
 44 43  1  0  0  0  0
 45 44  1  0  0  0  0
 46 43  1  0  0  0  0
 46 40  1  1  0  0  0
 47 48  1  0  0  0  0
 48 51  1  0  0  0  0
 49 53  1  0  0  0  0
 51 52  2  0  0  0  0
 52 53  1  0  0  0  0
 53 50  1  6  0  0  0
 54 51  1  0  0  0  0
 54 49  1  0  0  0  0
M  END
>  <MODEL>
1

>  <REMARK>
 VINA RESULT:      -7.8      0.000      0.000
  Name = 
  14 active torsions:
  status: ('A' for Active; 'I' for Inactive)
    1  A    between atoms: C_3  and  C_17
    2  A    between atoms: C_3  and  C_18
    3  A    between atoms: C_4  and  C_10
    4  A    between atoms: C_4  and  C_26
    5  A    between atoms: C_4  and  C_42
    6  A    between atoms: C_9  and  C_20
    7  A    between atoms: C_9  and  C_47
    8  A    between atoms: C_10  and  C_48
    9  A    between atoms: C_11  and  C_54
   10  A    between atoms: C_17  and  N_30
   11  A    between atoms: C_18  and  N_27
   12  A    between atoms: C_20  and  C_32
   13  A    between atoms: C_32  and  C_49
   14  A    between atoms: C_35  and  C_48
                            x       y       z     vdW  Elec       q    Type
                         _______ _______ _______ _____ _____    ______ ____

>  <TORSDO>
F 14

$$$$
=
 OpenBabel11062418323D

 54 60  0  0  1  0  0  0  0  0999 V2000
  189.2980  175.2530  145.8610 C   0  0  0  0  0  3  0  0  0  0  0  0
  190.3730  174.3820  145.7180 C   0  0  0  0  0  3  0  0  0  0  0  0
  189.7810  174.0320  143.3890 C   0  0  0  0  0  0  0  0  0  0  0  0
  190.6490  169.1690  141.5810 O   0  0  0  0  0  0  0  0  0  0  0  0
  188.7060  174.9170  143.5410 C   0  0  0  0  0  3  0  0  0  0  0  0
  191.4710  170.0030  142.0630 C   0  0  0  0  0  0  0  0  0  0  0  0
  190.6280  173.7620  144.4930 C   0  0  0  0  0  0  0  0  0  0  0  0
  190.0100  173.4470  142.0330 C   0  0  0  0  0  2  0  0  0  0  0  0
  188.4500  175.5170  144.7770 C   0  0  0  0  0  0  0  0  0  0  0  0
  195.1630  170.1880  142.2840 N   0  0  0  0  0  2  0  0  0  0  0  0
  192.1090  172.1260  143.3000 C   0  0  2  0  0  3  0  0  0  0  0  0
  190.9630  171.1840  142.8560 C   0  0  1  0  0  3  0  0  0  0  0  0
  193.7790  170.4520  142.5330 C   0  0  0  0  0  0  0  0  0  0  0  0
  193.3700  171.3600  143.6590 C   0  0  0  0  0  2  0  0  0  0  0  0
  191.7170  172.8830  144.4390 O   0  0  0  0  0  0  0  0  0  0  0  0
  189.8780  171.9210  142.0490 C   0  0  0  0  0  2  0  0  0  0  0  0
  192.8770  169.7920  141.8690 N   0  0  0  0  0  0  0  0  0  0  0  0
  196.2180  170.9070  142.9360 C   0  0  0  0  0  0  0  0  0  0  0  0
  196.4900  170.6160  144.2130 C   0  0  0  0  0  3  0  0  0  0  0  0
  197.0030  171.9190  142.1430 C   0  0  0  0  0  2  0  0  0  0  0  0
  196.4940  171.8740  140.6800 C   0  0  0  0  0  2  0  0  0  0  0  0
  197.1160  172.0480  138.2770 C   0  0  0  0  0  2  0  0  0  0  0  0
  196.7540  173.1450  137.4580 O   0  0  0  0  0  0  0  0  0  0  0  0
  196.8940  173.9630  139.6540 C   0  0  0  0  0  2  0  0  0  0  0  0
  197.3110  172.5590  139.6540 N   0  0  0  0  0  0  0  0  0  0  0  0
  196.2440  175.3820  137.8140 O   0  0  0  0  0  0  0  0  0  0  0  0
  196.6090  174.2560  138.2440 C   0  0  0  0  0  0  0  0  0  0  0  0
  197.5050  171.3340  145.0500 C   0  0  0  0  0  2  0  0  0  0  0  0
  196.8520  172.0590  146.2210 C   0  0  0  0  0  2  0  0  0  0  0  0
  196.8300  173.5670  146.0050 C   0  0  0  0  0  2  0  0  0  0  0  0
  194.5180  174.6160  142.4410 O   0  0  0  0  0  1  0  0  0  0  0  0
  194.2680  176.4150  144.0100 C   0  0  0  0  0  2  0  0  0  0  0  0
  196.3430  175.0130  143.9620 C   0  0  0  0  0  2  0  0  0  0  0  0
  195.2210  175.6130  143.1250 C   0  0  1  0  0  3  0  0  0  0  0  0
  194.4410  174.3150  145.5970 C   0  0  0  0  0  2  0  0  0  0  0  0
  195.7980  173.9860  144.9640 C   0  0  2  0  0  3  0  0  0  0  0  0
  193.8870  175.7260  145.3370 C   0  0  1  0  0  3  0  0  0  0  0  0
  194.0420  176.6330  146.5510 C   0  0  0  0  0  2  0  0  0  0  0  0
  192.9240  176.5800  147.3770 O   0  0  0  0  0  1  0  0  0  0  0  0
  187.3530  176.5420  144.8860 C   0  0  1  0  0  3  0  0  0  0  0  0
  185.1260  177.6880  147.5630 N   0  0  0  0  0  2  0  0  0  0  0  0
  185.3550  176.8600  146.3970 C   0  0  0  0  0  2  0  0  0  0  0  0
  187.3340  177.8770  146.9710 N   0  0  0  0  0  2  0  0  0  0  0  0
  186.3820  178.2120  147.9540 N   0  0  0  0  0  0  0  0  0  0  0  0
  186.2550  179.6630  147.9520 C   0  0  0  0  0  1  0  0  0  0  0  0
  186.8340  176.6810  146.3300 C   0  0  2  0  0  3  0  0  0  0  0  0
  187.8340  177.8330  144.1910 C   0  0  0  0  0  2  0  0  0  0  0  0
  186.7580  178.7650  143.6310 C   0  0  0  0  0  2  0  0  0  0  0  0
  186.4250  177.3720  139.8340 S   0  0  0  0  0  0  0  0  0  0  0  0
  183.7400  177.7500  140.2500 C   0  0  0  0  0  1  0  0  0  0  0  0
  186.3700  178.4230  142.2250 C   0  0  0  0  0  0  0  0  0  0  0  0
  185.3020  178.9120  141.6980 N   0  0  0  0  0  0  0  0  0  0  0  0
  185.0580  178.4930  140.3220 C   0  0  1  0  0  3  0  0  0  0  0  0
  187.0900  177.5490  141.4310 O   0  0  0  0  0  0  0  0  0  0  0  0
  2  1  1  0  0  0  0
  3  5  2  0  0  0  0
  3  7  1  0  0  0  0
  4  6  2  0  0  0  0
  5  9  1  0  0  0  0
  6 12  1  0  0  0  0
  7  2  2  0  0  0  0
  8 16  1  0  0  0  0
  8  3  1  0  0  0  0
  9 40  1  0  0  0  0
  9  1  2  0  0  0  0
 10 13  1  0  0  0  0
 10 18  1  0  0  0  0
 11 14  1  1  0  0  0
 11 15  1  0  0  0  0
 12 16  1  6  0  0  0
 12 11  1  0  0  0  0
 13 14  1  0  0  0  0
 15  7  1  0  0  0  0
 17  6  1  0  0  0  0
 17 13  2  0  0  0  0
 18 19  2  0  0  0  0
 19 28  1  0  0  0  0
 20 18  1  0  0  0  0
 21 20  1  0  0  0  0
 22 25  1  0  0  0  0
 23 27  1  0  0  0  0
 23 22  1  0  0  0  0
 25 24  1  0  0  0  0
 25 21  1  0  0  0  0
 26 27  2  0  0  0  0
 27 24  1  0  0  0  0
 28 29  1  0  0  0  0
 30 29  1  0  0  0  0
 32 37  1  0  0  0  0
 33 36  1  0  0  0  0
 34 31  1  1  0  0  0
 34 33  1  0  0  0  0
 34 32  1  0  0  0  0
 36 35  1  0  0  0  0
 36 30  1  1  0  0  0
 37 35  1  0  0  0  0
 37 38  1  1  0  0  0
 38 39  1  0  0  0  0
 40 47  1  1  0  0  0
 41 44  1  0  0  0  0
 42 41  1  0  0  0  0
 43 44  1  0  0  0  0
 45 44  1  0  0  0  0
 46 40  1  6  0  0  0
 46 42  1  0  0  0  0
 46 43  1  0  0  0  0
 48 47  1  0  0  0  0
 49 53  1  0  0  0  0
 49 54  1  0  0  0  0
 51 48  1  0  0  0  0
 52 51  2  0  0  0  0
 53 50  1  1  0  0  0
 53 52  1  0  0  0  0
 54 51  1  0  0  0  0
M  END
>  <MODEL>
2

>  <REMARK>
 VINA RESULT:      -7.8      2.510      4.446
  Name = 
  14 active torsions:
  status: ('A' for Active; 'I' for Inactive)
    1  A    between atoms: C_3  and  C_17
    2  A    between atoms: C_3  and  C_18
    3  A    between atoms: C_4  and  C_10
    4  A    between atoms: C_4  and  C_26
    5  A    between atoms: C_4  and  C_42
    6  A    between atoms: C_9  and  C_20
    7  A    between atoms: C_9  and  C_47
    8  A    between atoms: C_10  and  C_48
    9  A    between atoms: C_11  and  C_54
   10  A    between atoms: C_17  and  N_30
   11  A    between atoms: C_18  and  N_27
   12  A    between atoms: C_20  and  C_32
   13  A    between atoms: C_32  and  C_49
   14  A    between atoms: C_35  and  C_48
                            x       y       z     vdW  Elec       q    Type
                         _______ _______ _______ _____ _____    ______ ____

>  <TORSDO>
F 14

$$$$
=
 OpenBabel11062418323D

 54 60  0  0  1  0  0  0  0  0999 V2000
  190.4350  176.9400  143.7530 C   0  0  0  0  0  3  0  0  0  0  0  0
  191.0970  176.2080  142.7730 C   0  0  0  0  0  3  0  0  0  0  0  0
  189.2210  174.6700  142.6520 C   0  0  0  0  0  0  0  0  0  0  0  0
  190.5140  169.6540  141.7340 O   0  0  0  0  0  0  0  0  0  0  0  0
  188.5590  175.4180  143.6330 C   0  0  0  0  0  3  0  0  0  0  0  0
  190.7330  170.6800  141.0250 C   0  0  0  0  0  0  0  0  0  0  0  0
  190.5080  175.0720  142.2140 C   0  0  0  0  0  0  0  0  0  0  0  0
  188.5020  173.4940  142.0740 C   0  0  0  0  0  2  0  0  0  0  0  0
  189.1660  176.5430  144.1980 C   0  0  0  0  0  0  0  0  0  0  0  0
  191.9640  171.2480  137.5790 N   0  0  0  0  0  2  0  0  0  0  0  0
  190.8440  173.1810  140.6000 C   0  0  2  0  0  3  0  0  0  0  0  0
  190.6110  172.0550  141.6380 C   0  0  1  0  0  3  0  0  0  0  0  0
  191.6000  171.4910  138.9410 C   0  0  0  0  0  0  0  0  0  0  0  0
  191.9140  172.8110  139.5890 C   0  0  0  0  0  2  0  0  0  0  0  0
  191.2510  174.3790  141.2490 O   0  0  0  0  0  0  0  0  0  0  0  0
  189.2500  172.1860  142.3480 C   0  0  0  0  0  2  0  0  0  0  0  0
  191.1220  170.5140  139.6530 N   0  0  0  0  0  0  0  0  0  0  0  0
  192.4500  172.2830  136.7120 C   0  0  0  0  0  0  0  0  0  0  0  0
  193.7190  172.6800  136.8470 C   0  0  0  0  0  3  0  0  0  0  0  0
  191.5270  172.8370  135.6590 C   0  0  0  0  0  2  0  0  0  0  0  0
  190.7100  173.9870  136.3000 C   0  0  0  0  0  2  0  0  0  0  0  0
  188.6300  173.8270  137.6580 C   0  0  0  0  0  2  0  0  0  0  0  0
  187.6590  174.8550  137.7150 O   0  0  0  0  0  0  0  0  0  0  0  0
  188.7070  175.0380  135.6220 C   0  0  0  0  0  2  0  0  0  0  0  0
  189.2370  173.8560  136.3060 N   0  0  0  0  0  0  0  0  0  0  0  0
  186.9900  176.5850  136.3170 O   0  0  0  0  0  0  0  0  0  0  0  0
  187.7020  175.5720  136.5500 C   0  0  0  0  0  0  0  0  0  0  0  0
  194.3460  173.8000  136.0730 C   0  0  0  0  0  2  0  0  0  0  0  0
  194.9890  174.8270  136.9970 C   0  0  0  0  0  2  0  0  0  0  0  0
  195.5710  174.1730  138.2440 C   0  0  0  0  0  2  0  0  0  0  0  0
  196.3610  177.2140  141.2900 O   0  0  0  0  0  1  0  0  0  0  0  0
  196.0220  175.1290  142.4320 C   0  0  0  0  0  2  0  0  0  0  0  0
  196.9660  175.2010  140.1130 C   0  0  0  0  0  2  0  0  0  0  0  0
  196.8810  175.9250  141.4500 C   0  0  1  0  0  3  0  0  0  0  0  0
  194.3930  174.9020  140.3690 C   0  0  0  0  0  2  0  0  0  0  0  0
  195.5910  175.1220  139.4370 C   0  0  2  0  0  3  0  0  0  0  0  0
  194.7170  174.5640  141.8340 C   0  0  1  0  0  3  0  0  0  0  0  0
  194.5080  173.0860  142.1380 C   0  0  0  0  0  2  0  0  0  0  0  0
  195.3140  172.6600  143.1890 O   0  0  0  0  0  1  0  0  0  0  0  0
  188.3910  177.3870  145.1740 C   0  0  1  0  0  3  0  0  0  0  0  0
  184.8330  178.2420  144.9480 N   0  0  0  0  0  2  0  0  0  0  0  0
  186.1430  178.1760  144.3350 C   0  0  0  0  0  2  0  0  0  0  0  0
  186.2480  177.1620  146.3940 N   0  0  0  0  0  2  0  0  0  0  0  0
  184.9040  177.5160  146.1610 N   0  0  0  0  0  0  0  0  0  0  0  0
  184.5100  178.4300  147.2250 C   0  0  0  0  0  1  0  0  0  0  0  0
  186.8750  177.1200  145.0920 C   0  0  2  0  0  3  0  0  0  0  0  0
  189.0490  177.2410  146.5620 C   0  0  0  0  0  2  0  0  0  0  0  0
  189.4500  175.8310  146.9980 C   0  0  0  0  0  2  0  0  0  0  0  0
  192.9670  174.2320  145.7590 S   0  0  0  0  0  0  0  0  0  0  0  0
  193.7740  176.8510  145.6460 C   0  0  0  0  0  1  0  0  0  0  0  0
  190.8730  175.5040  146.6650 C   0  0  0  0  0  0  0  0  0  0  0  0
  191.8270  176.3050  146.9870 N   0  0  0  0  0  0  0  0  0  0  0  0
  193.1580  175.8500  146.6010 C   0  0  1  0  0  3  0  0  0  0  0  0
  191.2460  174.3680  145.9690 O   0  0  0  0  0  0  0  0  0  0  0  0
  1  9  1  0  0  0  0
  2  1  2  0  0  0  0
  3  5  1  0  0  0  0
  5  9  2  0  0  0  0
  6 12  1  0  0  0  0
  6  4  2  0  0  0  0
  7  3  2  0  0  0  0
  7  2  1  0  0  0  0
  8 16  1  0  0  0  0
  8  3  1  0  0  0  0
  9 40  1  0  0  0  0
 10 13  1  0  0  0  0
 11 14  1  6  0  0  0
 11 15  1  0  0  0  0
 11 12  1  0  0  0  0
 12 16  1  6  0  0  0
 13 14  1  0  0  0  0
 13 17  2  0  0  0  0
 15  7  1  0  0  0  0
 17  6  1  0  0  0  0
 18 19  2  0  0  0  0
 18 10  1  0  0  0  0
 20 21  1  0  0  0  0
 20 18  1  0  0  0  0
 21 25  1  0  0  0  0
 22 23  1  0  0  0  0
 24 25  1  0  0  0  0
 24 27  1  0  0  0  0
 25 22  1  0  0  0  0
 26 27  2  0  0  0  0
 27 23  1  0  0  0  0
 28 19  1  0  0  0  0
 28 29  1  0  0  0  0
 29 30  1  0  0  0  0
 33 34  1  0  0  0  0
 34 31  1  6  0  0  0
 34 32  1  0  0  0  0
 35 37  1  0  0  0  0
 36 30  1  6  0  0  0
 36 33  1  0  0  0  0
 36 35  1  0  0  0  0
 37 38  1  6  0  0  0
 37 32  1  0  0  0  0
 38 39  1  0  0  0  0
 40 47  1  1  0  0  0
 41 44  1  0  0  0  0
 42 41  1  0  0  0  0
 42 46  1  0  0  0  0
 44 43  1  0  0  0  0
 44 45  1  0  0  0  0
 46 40  1  1  0  0  0
 46 43  1  0  0  0  0
 47 48  1  0  0  0  0
 49 54  1  0  0  0  0
 49 53  1  0  0  0  0
 51 52  2  0  0  0  0
 51 48  1  0  0  0  0
 53 50  1  6  0  0  0
 53 52  1  0  0  0  0
 54 51  1  0  0  0  0
M  END
>  <MODEL>
3

>  <REMARK>
 VINA RESULT:      -7.8      3.111      5.813
  Name = 
  14 active torsions:
  status: ('A' for Active; 'I' for Inactive)
    1  A    between atoms: C_3  and  C_17
    2  A    between atoms: C_3  and  C_18
    3  A    between atoms: C_4  and  C_10
    4  A    between atoms: C_4  and  C_26
    5  A    between atoms: C_4  and  C_42
    6  A    between atoms: C_9  and  C_20
    7  A    between atoms: C_9  and  C_47
    8  A    between atoms: C_10  and  C_48
    9  A    between atoms: C_11  and  C_54
   10  A    between atoms: C_17  and  N_30
   11  A    between atoms: C_18  and  N_27
   12  A    between atoms: C_20  and  C_32
   13  A    between atoms: C_32  and  C_49
   14  A    between atoms: C_35  and  C_48
                            x       y       z     vdW  Elec       q    Type
                         _______ _______ _______ _____ _____    ______ ____

>  <TORSDO>
F 14

$$$$
=
 OpenBabel11062418323D

 54 60  0  0  1  0  0  0  0  0999 V2000
  189.3100  177.8820  143.7120 C   0  0  0  0  0  3  0  0  0  0  0  0
  190.2900  177.1190  143.0850 C   0  0  0  0  0  3  0  0  0  0  0  0
  188.6110  175.4850  142.4450 C   0  0  0  0  0  0  0  0  0  0  0  0
  190.2560  170.4890  142.4440 O   0  0  0  0  0  0  0  0  0  0  0  0
  187.6300  176.2650  143.0710 C   0  0  0  0  0  3  0  0  0  0  0  0
  190.6860  171.4740  141.7750 C   0  0  0  0  0  0  0  0  0  0  0  0
  189.9610  175.9190  142.4510 C   0  0  0  0  0  0  0  0  0  0  0  0
  188.1670  174.2390  141.7510 C   0  0  0  0  0  2  0  0  0  0  0  0
  187.9750  177.4550  143.7190 C   0  0  0  0  0  0  0  0  0  0  0  0
  193.0340  171.8660  138.9380 N   0  0  0  0  0  2  0  0  0  0  0  0
  190.8830  173.9420  141.2140 C   0  0  2  0  0  3  0  0  0  0  0  0
  190.3260  172.8800  142.1940 C   0  0  1  0  0  3  0  0  0  0  0  0
  192.2100  172.1820  140.0630 C   0  0  0  0  0  0  0  0  0  0  0  0
  192.2480  173.5570  140.6710 C   0  0  0  0  0  2  0  0  0  0  0  0
  191.0100  175.2010  141.8640 O   0  0  0  0  0  0  0  0  0  0  0  0
  188.8010  172.9910  142.3730 C   0  0  0  0  0  2  0  0  0  0  0  0
  191.5350  171.2340  140.6420 N   0  0  0  0  0  0  0  0  0  0  0  0
  193.7690  172.8610  138.2130 C   0  0  0  0  0  0  0  0  0  0  0  0
  194.9280  173.2930  138.7240 C   0  0  0  0  0  3  0  0  0  0  0  0
  193.2310  173.3380  136.8890 C   0  0  0  0  0  2  0  0  0  0  0  0
  191.9570  174.1750  137.1680 C   0  0  0  0  0  2  0  0  0  0  0  0
  190.6790  172.1430  136.5130 C   0  0  0  0  0  2  0  0  0  0  0  0
  189.6570  171.5760  137.3130 O   0  0  0  0  0  0  0  0  0  0  0  0
  189.7050  173.8700  137.8110 C   0  0  0  0  0  2  0  0  0  0  0  0
  190.6620  173.6080  136.7330 N   0  0  0  0  0  0  0  0  0  0  0  0
  188.1900  172.3630  138.9320 O   0  0  0  0  0  0  0  0  0  0  0  0
  189.0960  172.5610  138.0790 C   0  0  0  0  0  0  0  0  0  0  0  0
  195.7660  174.3820  138.1270 C   0  0  0  0  0  2  0  0  0  0  0  0
  196.4520  175.2130  139.2040 C   0  0  0  0  0  2  0  0  0  0  0  0
  197.7080  174.5280  139.7270 C   0  0  0  0  0  2  0  0  0  0  0  0
  197.9410  173.1310  143.8670 O   0  0  0  0  0  1  0  0  0  0  0  0
  195.6970  173.8980  143.4970 C   0  0  0  0  0  2  0  0  0  0  0  0
  197.0710  172.9540  141.6280 C   0  0  0  0  0  2  0  0  0  0  0  0
  196.7820  172.8900  143.1220 C   0  0  1  0  0  3  0  0  0  0  0  0
  197.0990  175.5330  141.9750 C   0  0  0  0  0  2  0  0  0  0  0  0
  197.6630  174.3140  141.2360 C   0  0  2  0  0  3  0  0  0  0  0  0
  195.8610  175.2910  142.8540 C   0  0  1  0  0  3  0  0  0  0  0  0
  194.5860  175.8020  142.1970 C   0  0  0  0  0  2  0  0  0  0  0  0
  193.7520  176.4320  143.1160 O   0  0  0  0  0  1  0  0  0  0  0  0
  186.8890  178.3240  144.2920 C   0  0  1  0  0  3  0  0  0  0  0  0
  184.2940  178.0470  141.7170 N   0  0  0  0  0  2  0  0  0  0  0  0
  184.6810  177.9910  143.1110 C   0  0  0  0  0  2  0  0  0  0  0  0
  186.4820  178.7150  141.8810 N   0  0  0  0  0  2  0  0  0  0  0  0
  185.3860  178.5980  141.0040 N   0  0  0  0  0  0  0  0  0  0  0  0
  185.7560  177.6290  139.9810 C   0  0  0  0  0  1  0  0  0  0  0  0
  185.9150  178.8230  143.2070 C   0  0  2  0  0  3  0  0  0  0  0  0
  186.2690  177.5840  145.4960 C   0  0  0  0  0  2  0  0  0  0  0  0
  186.9730  177.7370  146.8450 C   0  0  0  0  0  2  0  0  0  0  0  0
  189.6530  174.6950  147.0250 S   0  0  0  0  0  0  0  0  0  0  0  0
  191.4590  176.6440  146.3430 C   0  0  0  0  0  1  0  0  0  0  0  0
  188.1690  176.8440  146.9790 C   0  0  0  0  0  0  0  0  0  0  0  0
  189.3240  177.3290  147.2720 N   0  0  0  0  0  0  0  0  0  0  0  0
  190.3900  176.3380  147.3730 C   0  0  1  0  0  3  0  0  0  0  0  0
  188.1230  175.4790  146.7620 O   0  0  0  0  0  0  0  0  0  0  0  0
  1  9  1  0  0  0  0
  2  1  2  0  0  0  0
  3  7  2  0  0  0  0
  3  5  1  0  0  0  0
  5  9  2  0  0  0  0
  6 12  1  0  0  0  0
  6  4  2  0  0  0  0
  7  2  1  0  0  0  0
  8 16  1  0  0  0  0
  8  3  1  0  0  0  0
  9 40  1  0  0  0  0
 10 13  1  0  0  0  0
 11 14  1  1  0  0  0
 11 15  1  0  0  0  0
 11 12  1  0  0  0  0
 12 16  1  6  0  0  0
 13 17  2  0  0  0  0
 13 14  1  0  0  0  0
 15  7  1  0  0  0  0
 17  6  1  0  0  0  0
 18 19  2  0  0  0  0
 18 10  1  0  0  0  0
 20 21  1  0  0  0  0
 20 18  1  0  0  0  0
 22 25  1  0  0  0  0
 22 23  1  0  0  0  0
 23 27  1  0  0  0  0
 24 27  1  0  0  0  0
 25 21  1  0  0  0  0
 25 24  1  0  0  0  0
 27 26  2  0  0  0  0
 28 19  1  0  0  0  0
 28 29  1  0  0  0  0
 29 30  1  0  0  0  0
 33 34  1  0  0  0  0
 34 32  1  0  0  0  0
 34 31  1  1  0  0  0
 35 37  1  0  0  0  0
 36 30  1  6  0  0  0
 36 33  1  0  0  0  0
 36 35  1  0  0  0  0
 37 38  1  6  0  0  0
 37 32  1  0  0  0  0
 38 39  1  0  0  0  0
 40 47  1  1  0  0  0
 41 42  1  0  0  0  0
 42 46  1  0  0  0  0
 43 46  1  0  0  0  0
 44 41  1  0  0  0  0
 44 43  1  0  0  0  0
 45 44  1  0  0  0  0
 46 40  1  1  0  0  0
 47 48  1  0  0  0  0
 48 51  1  0  0  0  0
 49 53  1  0  0  0  0
 51 52  2  0  0  0  0
 52 53  1  0  0  0  0
 53 50  1  6  0  0  0
 54 51  1  0  0  0  0
 54 49  1  0  0  0  0
M  END
>  <MODEL>
4

>  <REMARK>
 VINA RESULT:      -7.8      2.552      4.341
  Name = 
  14 active torsions:
  status: ('A' for Active; 'I' for Inactive)
    1  A    between atoms: C_3  and  C_17
    2  A    between atoms: C_3  and  C_18
    3  A    between atoms: C_4  and  C_10
    4  A    between atoms: C_4  and  C_26
    5  A    between atoms: C_4  and  C_42
    6  A    between atoms: C_9  and  C_20
    7  A    between atoms: C_9  and  C_47
    8  A    between atoms: C_10  and  C_48
    9  A    between atoms: C_11  and  C_54
   10  A    between atoms: C_17  and  N_30
   11  A    between atoms: C_18  and  N_27
   12  A    between atoms: C_20  and  C_32
   13  A    between atoms: C_32  and  C_49
   14  A    between atoms: C_35  and  C_48
                            x       y       z     vdW  Elec       q    Type
                         _______ _______ _______ _____ _____    ______ ____

>  <TORSDO>
F 14

$$$$
=
 OpenBabel11062418323D

 54 60  0  0  1  0  0  0  0  0999 V2000
  186.0490  176.4410  144.2590 C   0  0  0  0  0  3  0  0  0  0  0  0
  187.2060  175.6690  144.2590 C   0  0  0  0  0  3  0  0  0  0  0  0
  187.4310  176.0040  141.8640 C   0  0  0  0  0  0  0  0  0  0  0  0
  189.3790  171.8960  139.2180 O   0  0  0  0  0  0  0  0  0  0  0  0
  186.2700  176.7870  141.8760 C   0  0  0  0  0  3  0  0  0  0  0  0
  189.9040  172.5660  140.1550 C   0  0  0  0  0  0  0  0  0  0  0  0
  187.9070  175.4380  143.0740 C   0  0  0  0  0  0  0  0  0  0  0  0
  188.1460  175.8430  140.5610 C   0  0  0  0  0  2  0  0  0  0  0  0
  185.5670  176.9960  143.0660 C   0  0  0  0  0  0  0  0  0  0  0  0
  193.2860  172.7420  141.6530 N   0  0  0  0  0  2  0  0  0  0  0  0
  189.8670  174.2470  142.0580 C   0  0  2  0  0  3  0  0  0  0  0  0
  189.0380  173.4550  141.0170 C   0  0  1  0  0  3  0  0  0  0  0  0
  191.8750  172.8980  141.4810 C   0  0  0  0  0  0  0  0  0  0  0  0
  191.0260  173.4310  142.6020 C   0  0  0  0  0  2  0  0  0  0  0  0
  189.0500  174.6310  143.1570 O   0  0  0  0  0  0  0  0  0  0  0  0
  188.1900  174.3770  140.1200 C   0  0  0  0  0  2  0  0  0  0  0  0
  191.3130  172.4450  140.3990 N   0  0  0  0  0  0  0  0  0  0  0  0
  193.9880  173.2580  142.7910 C   0  0  0  0  0  0  0  0  0  0  0  0
  193.7370  172.7200  143.9900 C   0  0  0  0  0  3  0  0  0  0  0  0
  195.0120  174.3430  142.5800 C   0  0  0  0  0  2  0  0  0  0  0  0
  194.3230  175.5040  141.8190 C   0  0  0  0  0  2  0  0  0  0  0  0
  196.5370  176.1580  140.8880 C   0  0  0  0  0  2  0  0  0  0  0  0
  197.1320  175.5160  139.7750 O   0  0  0  0  0  0  0  0  0  0  0  0
  194.8090  175.2900  139.5180 C   0  0  0  0  0  2  0  0  0  0  0  0
  195.0670  176.1180  140.6980 N   0  0  0  0  0  0  0  0  0  0  0  0
  196.3570  174.3250  137.9380 O   0  0  0  0  0  0  0  0  0  0  0  0
  196.1440  174.9980  138.9820 C   0  0  0  0  0  0  0  0  0  0  0  0
  194.3300  173.2030  145.2790 C   0  0  0  0  0  2  0  0  0  0  0  0
  193.3530  174.0850  146.0470 C   0  0  0  0  0  2  0  0  0  0  0  0
  193.5150  175.5540  145.6780 C   0  0  0  0  0  2  0  0  0  0  0  0
  190.7810  177.3370  142.7630 O   0  0  0  0  0  1  0  0  0  0  0  0
  190.1500  178.1570  144.9290 C   0  0  0  0  0  2  0  0  0  0  0  0
  192.5210  177.5350  144.4160 C   0  0  0  0  0  2  0  0  0  0  0  0
  191.2270  178.1000  143.8470 C   0  0  1  0  0  3  0  0  0  0  0  0
  190.9910  175.7190  145.4830 C   0  0  0  0  0  2  0  0  0  0  0  0
  192.3430  176.0750  144.8520 C   0  0  2  0  0  3  0  0  0  0  0  0
  190.0580  176.8960  145.8120 C   0  0  1  0  0  3  0  0  0  0  0  0
  190.0370  177.2070  147.3030 C   0  0  0  0  0  2  0  0  0  0  0  0
  190.8910  176.3700  148.0150 O   0  0  0  0  0  1  0  0  0  0  0  0
  184.3830  177.9260  143.0680 C   0  0  1  0  0  3  0  0  0  0  0  0
  185.8610  179.6860  145.9250 N   0  0  0  0  0  2  0  0  0  0  0  0
  185.8040  179.4480  144.4980 C   0  0  0  0  0  2  0  0  0  0  0  0
  184.0910  178.2910  145.5000 N   0  0  0  0  0  2  0  0  0  0  0  0
  184.7320  179.0510  146.4980 N   0  0  0  0  0  0  0  0  0  0  0  0
  185.2340  178.1150  147.4950 C   0  0  0  0  0  1  0  0  0  0  0  0
  184.4330  178.9200  144.2440 C   0  0  2  0  0  3  0  0  0  0  0  0
  184.2420  178.5260  141.6540 C   0  0  0  0  0  2  0  0  0  0  0  0
  183.1760  177.9170  140.7420 C   0  0  0  0  0  2  0  0  0  0  0  0
  179.8000  180.1620  140.9170 S   0  0  0  0  0  0  0  0  0  0  0  0
  178.5530  177.7290  141.1390 C   0  0  0  0  0  1  0  0  0  0  0  0
  181.8160  178.5010  140.9710 C   0  0  0  0  0  0  0  0  0  0  0  0
  180.9250  177.8540  141.6370 N   0  0  0  0  0  0  0  0  0  0  0  0
  179.6510  178.5510  141.7820 C   0  0  1  0  0  3  0  0  0  0  0  0
  181.4200  179.7240  140.4600 O   0  0  0  0  0  0  0  0  0  0  0  0
  2  1  1  0  0  0  0
  3  5  2  0  0  0  0
  3  7  1  0  0  0  0
  4  6  2  0  0  0  0
  5  9  1  0  0  0  0
  6 17  1  0  0  0  0
  6 12  1  0  0  0  0
  7 15  1  0  0  0  0
  7  2  2  0  0  0  0
  8  3  1  0  0  0  0
  9 40  1  0  0  0  0
  9  1  2  0  0  0  0
 10 18  1  0  0  0  0
 11 14  1  1  0  0  0
 11 15  1  0  0  0  0
 12 16  1  6  0  0  0
 12 11  1  0  0  0  0
 13 10  1  0  0  0  0
 13 14  1  0  0  0  0
 16  8  1  0  0  0  0
 17 13  2  0  0  0  0
 18 19  2  0  0  0  0
 19 28  1  0  0  0  0
 20 18  1  0  0  0  0
 21 20  1  0  0  0  0
 23 22  1  0  0  0  0
 24 25  1  0  0  0  0
 25 22  1  0  0  0  0
 25 21  1  0  0  0  0
 26 27  2  0  0  0  0
 27 24  1  0  0  0  0
 27 23  1  0  0  0  0
 28 29  1  0  0  0  0
 30 29  1  0  0  0  0
 32 37  1  0  0  0  0
 33 36  1  0  0  0  0
 34 31  1  6  0  0  0
 34 33  1  0  0  0  0
 34 32  1  0  0  0  0
 35 37  1  0  0  0  0
 36 35  1  0  0  0  0
 36 30  1  1  0  0  0
 37 38  1  1  0  0  0
 38 39  1  0  0  0  0
 40 47  1  6  0  0  0
 41 44  1  0  0  0  0
 42 41  1  0  0  0  0
 43 44  1  0  0  0  0
 44 45  1  0  0  0  0
 46 40  1  6  0  0  0
 46 42  1  0  0  0  0
 46 43  1  0  0  0  0
 48 51  1  0  0  0  0
 48 47  1  0  0  0  0
 49 53  1  0  0  0  0
 51 52  2  0  0  0  0
 52 53  1  0  0  0  0
 53 50  1  6  0  0  0
 54 49  1  0  0  0  0
 54 51  1  0  0  0  0
M  END
>  <MODEL>
5

>  <REMARK>
 VINA RESULT:      -7.6      2.306      4.207
  Name = 
  14 active torsions:
  status: ('A' for Active; 'I' for Inactive)
    1  A    between atoms: C_3  and  C_17
    2  A    between atoms: C_3  and  C_18
    3  A    between atoms: C_4  and  C_10
    4  A    between atoms: C_4  and  C_26
    5  A    between atoms: C_4  and  C_42
    6  A    between atoms: C_9  and  C_20
    7  A    between atoms: C_9  and  C_47
    8  A    between atoms: C_10  and  C_48
    9  A    between atoms: C_11  and  C_54
   10  A    between atoms: C_17  and  N_30
   11  A    between atoms: C_18  and  N_27
   12  A    between atoms: C_20  and  C_32
   13  A    between atoms: C_32  and  C_49
   14  A    between atoms: C_35  and  C_48
                            x       y       z     vdW  Elec       q    Type
                         _______ _______ _______ _____ _____    ______ ____

>  <TORSDO>
F 14

$$$$
=
 OpenBabel11062418323D

 54 60  0  0  1  0  0  0  0  0999 V2000
  187.6270  178.2710  142.5720 C   0  0  0  0  0  3  0  0  0  0  0  0
  188.9790  177.9850  142.4140 C   0  0  0  0  0  3  0  0  0  0  0  0
  188.5280  175.6300  142.7960 C   0  0  0  0  0  0  0  0  0  0  0  0
  192.2960  173.0370  145.3940 O   0  0  0  0  0  0  0  0  0  0  0  0
  187.1670  175.9250  142.9450 C   0  0  0  0  0  3  0  0  0  0  0  0
  192.3640  173.6520  144.2900 C   0  0  0  0  0  0  0  0  0  0  0  0
  189.4470  176.6740  142.5260 C   0  0  0  0  0  0  0  0  0  0  0  0
  188.9390  174.1960  142.8850 C   0  0  0  0  0  2  0  0  0  0  0  0
  186.7130  177.2440  142.8500 C   0  0  0  0  0  0  0  0  0  0  0  0
  194.8970  173.9060  141.6010 N   0  0  0  0  0  2  0  0  0  0  0  0
  191.4960  175.2270  142.4970 C   0  0  2  0  0  3  0  0  0  0  0  0
  191.2770  174.6310  143.9100 C   0  0  1  0  0  3  0  0  0  0  0  0
  193.7560  174.1940  142.4130 C   0  0  0  0  0  0  0  0  0  0  0  0
  192.9670  175.4550  142.1960 C   0  0  0  0  0  2  0  0  0  0  0  0
  190.8260  176.4760  142.3750 O   0  0  0  0  0  0  0  0  0  0  0  0
  189.9000  173.9560  144.0540 C   0  0  0  0  0  2  0  0  0  0  0  0
  193.4910  173.4270  143.4300 N   0  0  0  0  0  0  0  0  0  0  0  0
  195.2290  174.6700  140.4340 C   0  0  0  0  0  0  0  0  0  0  0  0
  194.7420  174.2710  139.2530 C   0  0  0  0  0  3  0  0  0  0  0  0
  196.0640  175.9130  140.5950 C   0  0  0  0  0  2  0  0  0  0  0  0
  197.3840  175.5100  141.3000 C   0  0  0  0  0  2  0  0  0  0  0  0
  196.4390  176.7340  143.2500 C   0  0  0  0  0  2  0  0  0  0  0  0
  196.0170  176.0920  144.4400 O   0  0  0  0  0  0  0  0  0  0  0  0
  197.7010  174.7450  143.5120 C   0  0  0  0  0  2  0  0  0  0  0  0
  197.5730  175.9560  142.6980 N   0  0  0  0  0  0  0  0  0  0  0  0
  196.5470  174.1150  145.5360 O   0  0  0  0  0  0  0  0  0  0  0  0
  196.7280  174.9340  144.5960 C   0  0  0  0  0  0  0  0  0  0  0  0
  195.0630  174.9170  137.9400 C   0  0  0  0  0  2  0  0  0  0  0  0
  194.6170  174.0510  136.7680 C   0  0  0  0  0  2  0  0  0  0  0  0
  194.3280  172.6210  137.2060 C   0  0  0  0  0  2  0  0  0  0  0  0
  190.7230  171.5720  134.9570 O   0  0  0  0  0  1  0  0  0  0  0  0
  190.0120  172.5500  137.0310 C   0  0  0  0  0  2  0  0  0  0  0  0
  192.1800  173.2060  135.9620 C   0  0  0  0  0  2  0  0  0  0  0  0
  190.7490  172.7520  135.7080 C   0  0  1  0  0  3  0  0  0  0  0  0
  192.2260  171.3030  137.7370 C   0  0  0  0  0  2  0  0  0  0  0  0
  192.9860  172.1180  136.6840 C   0  0  2  0  0  3  0  0  0  0  0  0
  190.8230  171.8060  138.1120 C   0  0  1  0  0  3  0  0  0  0  0  0
  190.8110  172.5100  139.4630 C   0  0  0  0  0  2  0  0  0  0  0  0
  191.3520  173.7900  139.3790 O   0  0  0  0  0  1  0  0  0  0  0  0
  185.2350  177.5210  142.9100 C   0  0  1  0  0  3  0  0  0  0  0  0
  185.3870  179.3710  146.0720 N   0  0  0  0  0  2  0  0  0  0  0  0
  185.1570  179.3580  144.6420 C   0  0  0  0  0  2  0  0  0  0  0  0
  185.4530  177.1930  145.3550 N   0  0  0  0  0  2  0  0  0  0  0  0
  185.4560  178.0210  146.4940 N   0  0  0  0  0  0  0  0  0  0  0  0
  186.7450  177.8480  147.1480 C   0  0  0  0  0  1  0  0  0  0  0  0
  184.7850  177.9500  144.3200 C   0  0  2  0  0  3  0  0  0  0  0  0
  184.8780  178.4690  141.7460 C   0  0  0  0  0  2  0  0  0  0  0  0
  183.8830  177.9520  140.7070 C   0  0  0  0  0  2  0  0  0  0  0  0
  180.3690  179.0440  142.4190 S   0  0  0  0  0  0  0  0  0  0  0  0
  179.5540  179.3840  139.8220 C   0  0  0  0  0  1  0  0  0  0  0  0
  182.4600  178.2540  141.0670 C   0  0  0  0  0  0  0  0  0  0  0  0
  181.5040  178.0020  140.2430 N   0  0  0  0  0  0  0  0  0  0  0  0
  180.1740  178.3450  140.7340 C   0  0  1  0  0  3  0  0  0  0  0  0
  182.0900  178.8480  142.2590 O   0  0  0  0  0  0  0  0  0  0  0  0
  1  9  1  0  0  0  0
  2  7  1  0  0  0  0
  2  1  2  0  0  0  0
  3  8  1  0  0  0  0
  3  5  1  0  0  0  0
  6  4  2  0  0  0  0
  7  3  2  0  0  0  0
  8 16  1  0  0  0  0
  9 40  1  0  0  0  0
  9  5  2  0  0  0  0
 10 13  1  0  0  0  0
 11 14  1  1  0  0  0
 11 12  1  0  0  0  0
 12 16  1  6  0  0  0
 12  6  1  0  0  0  0
 13 17  2  0  0  0  0
 14 13  1  0  0  0  0
 15 11  1  0  0  0  0
 15  7  1  0  0  0  0
 17  6  1  0  0  0  0
 18 20  1  0  0  0  0
 18 10  1  0  0  0  0
 19 18  2  0  0  0  0
 20 21  1  0  0  0  0
 21 25  1  0  0  0  0
 22 23  1  0  0  0  0
 23 27  1  0  0  0  0
 24 27  1  0  0  0  0
 25 22  1  0  0  0  0
 25 24  1  0  0  0  0
 27 26  2  0  0  0  0
 28 19  1  0  0  0  0
 29 30  1  0  0  0  0
 29 28  1  0  0  0  0
 32 37  1  0  0  0  0
 33 36  1  0  0  0  0
 34 31  1  1  0  0  0
 34 33  1  0  0  0  0
 34 32  1  0  0  0  0
 35 37  1  0  0  0  0
 36 30  1  1  0  0  0
 36 35  1  0  0  0  0
 37 38  1  1  0  0  0
 39 38  1  0  0  0  0
 40 47  1  6  0  0  0
 41 44  1  0  0  0  0
 42 41  1  0  0  0  0
 43 44  1  0  0  0  0
 44 45  1  0  0  0  0
 46 40  1  6  0  0  0
 46 42  1  0  0  0  0
 46 43  1  0  0  0  0
 48 51  1  0  0  0  0
 48 47  1  0  0  0  0
 51 54  1  0  0  0  0
 52 53  1  0  0  0  0
 52 51  2  0  0  0  0
 53 50  1  6  0  0  0
 53 49  1  0  0  0  0
 54 49  1  0  0  0  0
M  END
>  <MODEL>
6

>  <REMARK>
 VINA RESULT:      -7.5      2.783      6.313
  Name = 
  14 active torsions:
  status: ('A' for Active; 'I' for Inactive)
    1  A    between atoms: C_3  and  C_17
    2  A    between atoms: C_3  and  C_18
    3  A    between atoms: C_4  and  C_10
    4  A    between atoms: C_4  and  C_26
    5  A    between atoms: C_4  and  C_42
    6  A    between atoms: C_9  and  C_20
    7  A    between atoms: C_9  and  C_47
    8  A    between atoms: C_10  and  C_48
    9  A    between atoms: C_11  and  C_54
   10  A    between atoms: C_17  and  N_30
   11  A    between atoms: C_18  and  N_27
   12  A    between atoms: C_20  and  C_32
   13  A    between atoms: C_32  and  C_49
   14  A    between atoms: C_35  and  C_48
                            x       y       z     vdW  Elec       q    Type
                         _______ _______ _______ _____ _____    ______ ____

>  <TORSDO>
F 14

$$$$
=
 OpenBabel11062418323D

 54 60  0  0  1  0  0  0  0  0999 V2000
  187.1850  177.8770  142.3080 C   0  0  0  0  0  3  0  0  0  0  0  0
  188.5210  177.5190  142.1610 C   0  0  0  0  0  3  0  0  0  0  0  0
  188.4590  176.3940  144.3120 C   0  0  0  0  0  0  0  0  0  0  0  0
  192.9050  176.6880  147.1060 O   0  0  0  0  0  0  0  0  0  0  0  0
  187.1110  176.7500  144.4470 C   0  0  0  0  0  3  0  0  0  0  0  0
  192.7130  176.1930  145.9570 C   0  0  0  0  0  0  0  0  0  0  0  0
  189.1740  176.7820  143.1510 C   0  0  0  0  0  0  0  0  0  0  0  0
  189.0680  175.5660  145.3960 C   0  0  0  0  0  2  0  0  0  0  0  0
  186.4740  177.5050  143.4570 C   0  0  0  0  0  0  0  0  0  0  0  0
  194.7320  174.1200  143.6450 N   0  0  0  0  0  2  0  0  0  0  0  0
  191.3690  175.7840  143.8430 C   0  0  2  0  0  3  0  0  0  0  0  0
  191.4590  176.5410  145.1910 C   0  0  1  0  0  3  0  0  0  0  0  0
  193.7050  174.9870  144.1370 C   0  0  0  0  0  0  0  0  0  0  0  0
  192.7280  175.6230  143.1870 C   0  0  0  0  0  2  0  0  0  0  0  0
  190.5250  176.4830  142.9350 O   0  0  0  0  0  0  0  0  0  0  0  0
  190.2260  176.2990  146.0820 C   0  0  0  0  0  2  0  0  0  0  0  0
  193.7100  175.3290  145.3910 N   0  0  0  0  0  0  0  0  0  0  0  0
  194.7680  173.6560  142.2890 C   0  0  0  0  0  0  0  0  0  0  0  0
  195.1890  174.4990  141.3400 C   0  0  0  0  0  3  0  0  0  0  0  0
  194.3820  172.2290  142.0020 C   0  0  0  0  0  2  0  0  0  0  0  0
  194.9610  171.3420  143.1330 C   0  0  0  0  0  2  0  0  0  0  0  0
  193.6890  169.3420  143.8910 C   0  0  0  0  0  2  0  0  0  0  0  0
  193.9730  168.6510  145.0940 O   0  0  0  0  0  0  0  0  0  0  0  0
  194.6390  170.8770  145.4260 C   0  0  0  0  0  2  0  0  0  0  0  0
  194.0060  170.7730  144.1090 N   0  0  0  0  0  0  0  0  0  0  0  0
  194.9430  169.1970  147.1310 O   0  0  0  0  0  0  0  0  0  0  0  0
  194.5350  169.5230  145.9850 C   0  0  0  0  0  0  0  0  0  0  0  0
  195.2080  174.1880  139.8740 C   0  0  0  0  0  2  0  0  0  0  0  0
  194.1800  175.0170  139.1140 C   0  0  0  0  0  2  0  0  0  0  0  0
  193.2720  174.1390  138.2620 C   0  0  0  0  0  2  0  0  0  0  0  0
  192.0320  170.4080  140.1840 O   0  0  0  0  0  1  0  0  0  0  0  0
  190.0610  171.4330  139.2760 C   0  0  0  0  0  2  0  0  0  0  0  0
  192.3060  171.7790  138.2230 C   0  0  0  0  0  2  0  0  0  0  0  0
  191.4230  170.8040  138.9890 C   0  0  1  0  0  3  0  0  0  0  0  0
  191.5030  173.5280  139.9750 C   0  0  0  0  0  2  0  0  0  0  0  0
  192.6310  173.0160  139.0710 C   0  0  2  0  0  3  0  0  0  0  0  0
  190.1180  172.8940  139.7700 C   0  0  1  0  0  3  0  0  0  0  0  0
  189.1720  173.8200  139.0150 C   0  0  0  0  0  2  0  0  0  0  0  0
  188.0690  173.1320  138.5190 O   0  0  0  0  0  1  0  0  0  0  0  0
  185.0000  177.7850  143.5780 C   0  0  1  0  0  3  0  0  0  0  0  0
  185.6310  179.4120  146.8030 N   0  0  0  0  0  2  0  0  0  0  0  0
  185.5990  179.4760  145.3570 C   0  0  0  0  0  2  0  0  0  0  0  0
  184.7350  177.4520  146.0180 N   0  0  0  0  0  2  0  0  0  0  0  0
  184.9940  178.2040  147.1800 N   0  0  0  0  0  0  0  0  0  0  0  0
  185.9530  177.4500  147.9750 C   0  0  0  0  0  1  0  0  0  0  0  0
  184.6410  178.4110  144.9400 C   0  0  2  0  0  3  0  0  0  0  0  0
  184.5540  178.5560  142.3180 C   0  0  0  0  0  2  0  0  0  0  0  0
  183.7410  177.7830  141.2800 C   0  0  0  0  0  2  0  0  0  0  0  0
  179.9260  178.6970  140.2430 S   0  0  0  0  0  0  0  0  0  0  0  0
  179.5120  178.7230  142.9550 C   0  0  0  0  0  1  0  0  0  0  0  0
  182.3240  178.2610  141.1810 C   0  0  0  0  0  0  0  0  0  0  0  0
  181.7870  178.9340  142.1370 N   0  0  0  0  0  0  0  0  0  0  0  0
  180.4050  179.3350  141.8950 C   0  0  1  0  0  3  0  0  0  0  0  0
  181.5050  177.9830  140.1020 O   0  0  0  0  0  0  0  0  0  0  0  0
  1  9  1  0  0  0  0
  2  1  2  0  0  0  0
  2  7  1  0  0  0  0
  3  5  1  0  0  0  0
  3  8  1  0  0  0  0
  6  4  2  0  0  0  0
  7  3  2  0  0  0  0
  8 16  1  0  0  0  0
  9 40  1  0  0  0  0
  9  5  2  0  0  0  0
 10 13  1  0  0  0  0
 11 14  1  6  0  0  0
 11 12  1  0  0  0  0
 12  6  1  0  0  0  0
 12 16  1  1  0  0  0
 13 17  2  0  0  0  0
 14 13  1  0  0  0  0
 15  7  1  0  0  0  0
 15 11  1  0  0  0  0
 17  6  1  0  0  0  0
 18 10  1  0  0  0  0
 19 18  2  0  0  0  0
 20 18  1  0  0  0  0
 20 21  1  0  0  0  0
 21 25  1  0  0  0  0
 22 25  1  0  0  0  0
 22 23  1  0  0  0  0
 23 27  1  0  0  0  0
 24 27  1  0  0  0  0
 25 24  1  0  0  0  0
 27 26  2  0  0  0  0
 28 19  1  0  0  0  0
 29 28  1  0  0  0  0
 30 29  1  0  0  0  0
 32 37  1  0  0  0  0
 33 34  1  0  0  0  0
 33 36  1  0  0  0  0
 34 32  1  0  0  0  0
 34 31  1  1  0  0  0
 36 30  1  6  0  0  0
 36 35  1  0  0  0  0
 37 38  1  6  0  0  0
 37 35  1  0  0  0  0
 39 38  1  0  0  0  0
 40 47  1  6  0  0  0
 41 44  1  0  0  0  0
 42 41  1  0  0  0  0
 43 44  1  0  0  0  0
 44 45  1  0  0  0  0
 46 40  1  6  0  0  0
 46 42  1  0  0  0  0
 46 43  1  0  0  0  0
 48 47  1  0  0  0  0
 49 53  1  0  0  0  0
 51 48  1  0  0  0  0
 51 52  2  0  0  0  0
 53 52  1  0  0  0  0
 53 50  1  1  0  0  0
 54 49  1  0  0  0  0
 54 51  1  0  0  0  0
M  END
>  <MODEL>
7

>  <REMARK>
 VINA RESULT:      -7.4      2.998      6.447
  Name = 
  14 active torsions:
  status: ('A' for Active; 'I' for Inactive)
    1  A    between atoms: C_3  and  C_17
    2  A    between atoms: C_3  and  C_18
    3  A    between atoms: C_4  and  C_10
    4  A    between atoms: C_4  and  C_26
    5  A    between atoms: C_4  and  C_42
    6  A    between atoms: C_9  and  C_20
    7  A    between atoms: C_9  and  C_47
    8  A    between atoms: C_10  and  C_48
    9  A    between atoms: C_11  and  C_54
   10  A    between atoms: C_17  and  N_30
   11  A    between atoms: C_18  and  N_27
   12  A    between atoms: C_20  and  C_32
   13  A    between atoms: C_32  and  C_49
   14  A    between atoms: C_35  and  C_48
                            x       y       z     vdW  Elec       q    Type
                         _______ _______ _______ _____ _____    ______ ____

>  <TORSDO>
F 14

$$$$
=
 OpenBabel11062418323D

 54 60  0  0  1  0  0  0  0  0999 V2000
  188.2020  177.9100  141.6060 C   0  0  0  0  0  3  0  0  0  0  0  0
  189.5070  177.6630  142.0210 C   0  0  0  0  0  3  0  0  0  0  0  0
  188.6670  176.3780  143.9030 C   0  0  0  0  0  0  0  0  0  0  0  0
  191.5000  176.7870  148.3160 O   0  0  0  0  0  0  0  0  0  0  0  0
  187.3570  176.6240  143.4730 C   0  0  0  0  0  3  0  0  0  0  0  0
  191.8520  176.3660  147.1750 C   0  0  0  0  0  0  0  0  0  0  0  0
  189.7580  176.9040  143.1660 C   0  0  0  0  0  0  0  0  0  0  0  0
  188.8490  175.5180  145.1120 C   0  0  0  0  0  2  0  0  0  0  0  0
  187.1180  177.4020  142.3350 C   0  0  0  0  0  0  0  0  0  0  0  0
  194.8400  174.6260  145.8500 N   0  0  0  0  0  2  0  0  0  0  0  0
  191.5530  176.0190  144.6780 C   0  0  2  0  0  3  0  0  0  0  0  0
  191.0010  176.6780  145.9660 C   0  0  1  0  0  3  0  0  0  0  0  0
  193.6230  175.3760  145.8960 C   0  0  0  0  0  0  0  0  0  0  0  0
  193.0710  176.0090  144.6490 C   0  0  0  0  0  2  0  0  0  0  0  0
  191.0990  176.7210  143.5270 O   0  0  0  0  0  0  0  0  0  0  0  0
  189.5400  176.2810  146.2470 C   0  0  0  0  0  2  0  0  0  0  0  0
  193.0730  175.6220  147.0480 N   0  0  0  0  0  0  0  0  0  0  0  0
  195.4810  174.2680  144.6180 C   0  0  0  0  0  0  0  0  0  0  0  0
  194.8750  173.3820  143.8210 C   0  0  0  0  0  3  0  0  0  0  0  0
  196.7780  174.9420  144.2540 C   0  0  0  0  0  2  0  0  0  0  0  0
  196.4410  176.3380  143.6720 C   0  0  0  0  0  2  0  0  0  0  0  0
  197.8810  175.6670  141.7560 C   0  0  0  0  0  2  0  0  0  0  0  0
  197.3690  175.1400  140.5460 O   0  0  0  0  0  0  0  0  0  0  0  0
  195.6940  176.5220  141.4400 C   0  0  0  0  0  2  0  0  0  0  0  0
  196.8830  176.6240  142.2900 N   0  0  0  0  0  0  0  0  0  0  0  0
  195.3590  175.2890  139.3930 O   0  0  0  0  0  0  0  0  0  0  0  0
  196.1000  175.6160  140.3580 C   0  0  0  0  0  0  0  0  0  0  0  0
  195.4560  172.8500  142.5460 C   0  0  0  0  0  2  0  0  0  0  0  0
  194.4460  172.0010  141.7830 C   0  0  0  0  0  2  0  0  0  0  0  0
  193.3570  172.8590  141.1510 C   0  0  0  0  0  2  0  0  0  0  0  0
  190.2040  172.5440  144.1700 O   0  0  0  0  0  1  0  0  0  0  0  0
  189.1460  172.4420  142.0180 C   0  0  0  0  0  2  0  0  0  0  0  0
  191.4850  171.6140  142.3550 C   0  0  0  0  0  2  0  0  0  0  0  0
  190.1160  171.7850  142.9990 C   0  0  1  0  0  3  0  0  0  0  0  0
  191.1670  174.0730  141.5640 C   0  0  0  0  0  2  0  0  0  0  0  0
  192.1230  172.9740  142.0410 C   0  0  2  0  0  3  0  0  0  0  0  0
  189.7290  173.6380  141.2390 C   0  0  1  0  0  3  0  0  0  0  0  0
  189.4840  173.5530  139.7370 C   0  0  0  0  0  2  0  0  0  0  0  0
  188.7580  172.4150  139.3990 O   0  0  0  0  0  1  0  0  0  0  0  0
  185.7070  177.5640  141.8370 C   0  0  1  0  0  3  0  0  0  0  0  0
  185.1430  180.0890  144.4340 N   0  0  0  0  0  2  0  0  0  0  0  0
  185.8840  179.6310  143.2780 C   0  0  0  0  0  2  0  0  0  0  0  0
  184.1270  178.1940  143.6360 N   0  0  0  0  0  2  0  0  0  0  0  0
  184.0100  179.2500  144.5610 N   0  0  0  0  0  0  0  0  0  0  0  0
  184.0660  178.6620  145.8930 C   0  0  0  0  0  1  0  0  0  0  0  0
  184.9620  178.6970  142.5680 C   0  0  2  0  0  3  0  0  0  0  0  0
  185.7500  177.6400  140.2960 C   0  0  0  0  0  2  0  0  0  0  0  0
  186.7130  176.6930  139.5780 C   0  0  0  0  0  2  0  0  0  0  0  0
  184.8510  176.0410  136.0330 S   0  0  0  0  0  0  0  0  0  0  0  0
  187.1330  177.1340  134.9740 C   0  0  0  0  0  1  0  0  0  0  0  0
  186.3200  176.4360  138.1560 C   0  0  0  0  0  0  0  0  0  0  0  0
  187.2140  176.2780  137.2430 N   0  0  0  0  0  0  0  0  0  0  0  0
  186.6810  176.0310  135.9080 C   0  0  1  0  0  3  0  0  0  0  0  0
  185.0060  176.3930  137.7290 O   0  0  0  0  0  0  0  0  0  0  0  0
  1  2  2  0  0  0  0
  1  9  1  0  0  0  0
  2  7  1  0  0  0  0
  3  8  1  0  0  0  0
  5  3  1  0  0  0  0
  6  4  2  0  0  0  0
  7 15  1  0  0  0  0
  7  3  2  0  0  0  0
  8 16  1  0  0  0  0
  9  5  2  0  0  0  0
 10 13  1  0  0  0  0
 11 14  1  1  0  0  0
 11 12  1  0  0  0  0
 12 16  1  1  0  0  0
 12  6  1  0  0  0  0
 13 17  2  0  0  0  0
 14 13  1  0  0  0  0
 15 11  1  0  0  0  0
 17  6  1  0  0  0  0
 18 10  1  0  0  0  0
 19 18  2  0  0  0  0
 20 18  1  0  0  0  0
 21 20  1  0  0  0  0
 22 25  1  0  0  0  0
 23 22  1  0  0  0  0
 24 25  1  0  0  0  0
 25 21  1  0  0  0  0
 26 27  2  0  0  0  0
 27 23  1  0  0  0  0
 27 24  1  0  0  0  0
 28 19  1  0  0  0  0
 29 28  1  0  0  0  0
 30 29  1  0  0  0  0
 32 34  1  0  0  0  0
 33 34  1  0  0  0  0
 34 31  1  1  0  0  0
 35 36  1  0  0  0  0
 36 30  1  6  0  0  0
 36 33  1  0  0  0  0
 37 38  1  6  0  0  0
 37 35  1  0  0  0  0
 37 32  1  0  0  0  0
 39 38  1  0  0  0  0
 40 47  1  6  0  0  0
 40  9  1  0  0  0  0
 41 44  1  0  0  0  0
 42 41  1  0  0  0  0
 43 44  1  0  0  0  0
 44 45  1  0  0  0  0
 46 40  1  1  0  0  0
 46 42  1  0  0  0  0
 46 43  1  0  0  0  0
 48 47  1  0  0  0  0
 49 54  1  0  0  0  0
 51 48  1  0  0  0  0
 52 51  2  0  0  0  0
 53 50  1  6  0  0  0
 53 49  1  0  0  0  0
 53 52  1  0  0  0  0
 54 51  1  0  0  0  0
M  END
>  <MODEL>
8

>  <REMARK>
 VINA RESULT:      -7.4      3.130      5.722
  Name = 
  14 active torsions:
  status: ('A' for Active; 'I' for Inactive)
    1  A    between atoms: C_3  and  C_17
    2  A    between atoms: C_3  and  C_18
    3  A    between atoms: C_4  and  C_10
    4  A    between atoms: C_4  and  C_26
    5  A    between atoms: C_4  and  C_42
    6  A    between atoms: C_9  and  C_20
    7  A    between atoms: C_9  and  C_47
    8  A    between atoms: C_10  and  C_48
    9  A    between atoms: C_11  and  C_54
   10  A    between atoms: C_17  and  N_30
   11  A    between atoms: C_18  and  N_27
   12  A    between atoms: C_20  and  C_32
   13  A    between atoms: C_32  and  C_49
   14  A    between atoms: C_35  and  C_48
                            x       y       z     vdW  Elec       q    Type
                         _______ _______ _______ _____ _____    ______ ____

>  <TORSDO>
F 14

$$$$
=
 OpenBabel11062418323D

 54 60  0  0  1  0  0  0  0  0999 V2000
  195.5280  174.4490  141.1170 C   0  0  0  0  0  3  0  0  0  0  0  0
  194.3100  175.0670  141.3780 C   0  0  0  0  0  3  0  0  0  0  0  0
  193.1780  172.9280  141.1710 C   0  0  0  0  0  0  0  0  0  0  0  0
  188.3790  173.1490  139.0290 O   0  0  0  0  0  0  0  0  0  0  0  0
  194.4100  172.3130  140.9180 C   0  0  0  0  0  3  0  0  0  0  0  0
  188.8130  173.7070  140.0790 C   0  0  0  0  0  0  0  0  0  0  0  0
  193.1270  174.3250  141.4060 C   0  0  0  0  0  0  0  0  0  0  0  0
  191.9670  172.0550  141.2280 C   0  0  0  0  0  2  0  0  0  0  0  0
  195.5860  173.0690  140.8740 C   0  0  0  0  0  0  0  0  0  0  0  0
  187.2510  175.5560  142.8810 N   0  0  0  0  0  2  0  0  0  0  0  0
  190.6370  174.4590  141.6780 C   0  0  2  0  0  3  0  0  0  0  0  0
  190.3020  173.8140  140.3100 C   0  0  1  0  0  3  0  0  0  0  0  0
  188.2410  175.0510  141.9810 C   0  0  0  0  0  0  0  0  0  0  0  0
  189.6550  175.5580  142.0440 C   0  0  0  0  0  2  0  0  0  0  0  0
  191.9410  175.0280  141.6530 O   0  0  0  0  0  0  0  0  0  0  0  0
  190.9520  172.4270  140.1430 C   0  0  0  0  0  2  0  0  0  0  0  0
  187.8780  174.2550  141.0200 N   0  0  0  0  0  0  0  0  0  0  0  0
  187.5760  176.3970  143.9970 C   0  0  0  0  0  0  0  0  0  0  0  0
  188.4560  175.9450  144.8970 C   0  0  0  0  0  3  0  0  0  0  0  0
  186.9540  177.7660  144.0780 C   0  0  0  0  0  2  0  0  0  0  0  0
  185.4270  177.5840  144.2710 C   0  0  0  0  0  2  0  0  0  0  0  0
  185.1340  176.7680  146.6040 C   0  0  0  0  0  2  0  0  0  0  0  0
  185.7830  177.3510  147.7190 O   0  0  0  0  0  0  0  0  0  0  0  0
  185.5390  179.0510  146.1180 C   0  0  0  0  0  2  0  0  0  0  0  0
  184.8760  177.8440  145.6190 N   0  0  0  0  0  0  0  0  0  0  0  0
  186.6480  179.4460  148.2250 O   0  0  0  0  0  0  0  0  0  0  0  0
  186.0360  178.6680  147.4450 C   0  0  0  0  0  0  0  0  0  0  0  0
  188.8360  176.6700  146.1520 C   0  0  0  0  0  2  0  0  0  0  0  0
  190.0610  177.5520  145.9400 C   0  0  0  0  0  2  0  0  0  0  0  0
  191.0150  176.9480  144.9170 C   0  0  0  0  0  2  0  0  0  0  0  0
  194.9250  175.8740  146.5630 O   0  0  0  0  0  1  0  0  0  0  0  0
  194.1990  174.0430  145.1910 C   0  0  0  0  0  2  0  0  0  0  0  0
  193.4940  176.3940  144.6960 C   0  0  0  0  0  2  0  0  0  0  0  0
  194.6070  175.5140  145.2490 C   0  0  1  0  0  3  0  0  0  0  0  0
  191.9200  174.9370  146.1720 C   0  0  0  0  0  2  0  0  0  0  0  0
  192.2370  176.3130  145.5720 C   0  0  2  0  0  3  0  0  0  0  0  0
  192.7560  173.7550  145.6550 C   0  0  1  0  0  3  0  0  0  0  0  0
  191.9740  172.8860  144.6780 C   0  0  0  0  0  2  0  0  0  0  0  0
  190.6110  172.9010  144.9570 O   0  0  0  0  0  1  0  0  0  0  0  0
  196.9070  172.3690  140.7040 C   0  0  1  0  0  3  0  0  0  0  0  0
  197.3960  169.9960  143.4550 N   0  0  0  0  0  2  0  0  0  0  0  0
  197.6220  170.3720  142.0750 C   0  0  0  0  0  2  0  0  0  0  0  0
  196.5570  172.1070  143.1410 N   0  0  0  0  0  2  0  0  0  0  0  0
  196.8400  171.1220  144.1080 N   0  0  0  0  0  0  0  0  0  0  0  0
  195.5670  170.6980  144.6740 C   0  0  0  0  0  1  0  0  0  0  0  0
  197.4650  171.8550  142.0440 C   0  0  2  0  0  3  0  0  0  0  0  0
  196.7570  171.3340  139.5690 C   0  0  0  0  0  2  0  0  0  0  0  0
  196.8780  171.8500  138.1350 C   0  0  0  0  0  2  0  0  0  0  0  0
  193.2090  171.8220  136.4010 S   0  0  0  0  0  0  0  0  0  0  0  0
  192.9130  174.2270  137.6860 C   0  0  0  0  0  1  0  0  0  0  0  0
  195.5490  172.1540  137.5140 C   0  0  0  0  0  0  0  0  0  0  0  0
  195.1590  173.3700  137.3530 N   0  0  0  0  0  0  0  0  0  0  0  0
  193.8460  173.5100  136.7320 C   0  0  1  0  0  3  0  0  0  0  0  0
  194.6540  171.1760  137.1210 O   0  0  0  0  0  0  0  0  0  0  0  0
  1  2  1  0  0  0  0
  2  7  2  0  0  0  0
  3  8  1  0  0  0  0
  3  7  1  0  0  0  0
  4  6  2  0  0  0  0
  5  3  2  0  0  0  0
  6 12  1  0  0  0  0
  6 17  1  0  0  0  0
  7 15  1  0  0  0  0
  9  5  1  0  0  0  0
  9  1  2  0  0  0  0
 10 18  1  0  0  0  0
 11 14  1  6  0  0  0
 12 16  1  1  0  0  0
 12 11  1  0  0  0  0
 13 14  1  0  0  0  0
 13 10  1  0  0  0  0
 15 11  1  0  0  0  0
 16  8  1  0  0  0  0
 17 13  2  0  0  0  0
 18 20  1  0  0  0  0
 18 19  2  0  0  0  0
 19 28  1  0  0  0  0
 20 21  1  0  0  0  0
 21 25  1  0  0  0  0
 22 23  1  0  0  0  0
 24 27  1  0  0  0  0
 25 24  1  0  0  0  0
 25 22  1  0  0  0  0
 27 23  1  0  0  0  0
 27 26  2  0  0  0  0
 29 28  1  0  0  0  0
 30 29  1  0  0  0  0
 32 34  1  0  0  0  0
 32 37  1  0  0  0  0
 33 34  1  0  0  0  0
 33 36  1  0  0  0  0
 34 31  1  1  0  0  0
 36 30  1  6  0  0  0
 36 35  1  0  0  0  0
 37 38  1  6  0  0  0
 37 35  1  0  0  0  0
 38 39  1  0  0  0  0
 40 47  1  6  0  0  0
 40  9  1  0  0  0  0
 41 44  1  0  0  0  0
 42 41  1  0  0  0  0
 43 44  1  0  0  0  0
 44 45  1  0  0  0  0
 46 40  1  6  0  0  0
 46 42  1  0  0  0  0
 46 43  1  0  0  0  0
 48 47  1  0  0  0  0
 49 53  1  0  0  0  0
 49 54  1  0  0  0  0
 51 48  1  0  0  0  0
 52 51  2  0  0  0  0
 53 52  1  0  0  0  0
 53 50  1  1  0  0  0
 54 51  1  0  0  0  0
M  END
>  <MODEL>
9

>  <REMARK>
 VINA RESULT:      -7.3      3.207     10.522
  Name = 
  14 active torsions:
  status: ('A' for Active; 'I' for Inactive)
    1  A    between atoms: C_3  and  C_17
    2  A    between atoms: C_3  and  C_18
    3  A    between atoms: C_4  and  C_10
    4  A    between atoms: C_4  and  C_26
    5  A    between atoms: C_4  and  C_42
    6  A    between atoms: C_9  and  C_20
    7  A    between atoms: C_9  and  C_47
    8  A    between atoms: C_10  and  C_48
    9  A    between atoms: C_11  and  C_54
   10  A    between atoms: C_17  and  N_30
   11  A    between atoms: C_18  and  N_27
   12  A    between atoms: C_20  and  C_32
   13  A    between atoms: C_32  and  C_49
   14  A    between atoms: C_35  and  C_48
                            x       y       z     vdW  Elec       q    Type
                         _______ _______ _______ _____ _____    ______ ____

>  <TORSDO>
F 14

$$$$
