=
 OpenBabel11062422423D

 29 31  0  0  1  0  0  0  0  0999 V2000
  188.5950  174.7050  142.1190 C   0  0  0  0  0  0  0  0  0  0  0  0
  187.2950  174.7520  142.1910 N   0  0  0  0  0  0  0  0  0  0  0  0
  189.1800  178.3000  142.0300 O   0  0  0  0  0  0  0  0  0  0  0  0
  186.5800  175.9490  142.3940 N   0  0  0  0  0  0  0  0  0  0  0  0
  187.1630  177.1100  142.4100 C   0  0  0  0  0  0  0  0  0  0  0  0
  189.2320  173.4560  141.8720 N   0  0  0  0  0  1  0  0  0  0  0  0
  188.6170  177.1910  142.2260 C   0  0  0  0  0  0  0  0  0  0  0  0
  189.4400  175.9420  142.3320 C   0  0  1  0  0  3  0  0  0  0  0  0
  189.4230  175.2560  144.6510 O   0  0  0  0  0  1  0  0  0  0  0  0
  190.1730  175.9240  143.6790 C   0  0  1  0  0  3  0  0  0  0  0  0
  191.5540  175.3010  143.5440 C   0  0  0  0  0  2  0  0  0  0  0  0
  192.1980  177.4760  144.2700 O   0  0  0  0  0  1  0  0  0  0  0  0
  192.6040  176.1390  144.2640 C   0  0  1  0  0  3  0  0  0  0  0  0
  195.0150  174.0240  145.0240 C   0  0  0  0  0  2  0  0  0  0  0  0
  195.3720  175.2090  145.9160 C   0  0  0  0  0  2  0  0  0  0  0  0
  194.2690  177.0370  146.9130 O   0  0  0  0  0  0  0  0  0  0  0  0
  192.5810  174.1150  145.7930 C   0  0  0  0  0  2  0  0  0  0  0  0
  194.1550  176.0320  146.2310 C   0  0  0  0  0  0  0  0  0  0  0  0
  192.7970  175.6400  145.7010 C   0  0  1  0  0  3  0  0  0  0  0  0
  193.8460  173.2530  145.6290 C   0  0  0  0  0  2  0  0  0  0  0  0
  186.1840  178.5890  142.6620 S   0  0  0  0  0  0  0  0  0  0  0  0
  186.3140  178.6290  147.4330 C   0  0  0  0  0  0  0  0  0  0  0  0
  184.5740  178.1880  144.9210 C   0  0  0  0  0  3  0  0  0  0  0  0
  187.1810  179.2910  148.8030 Cl  0  0  0  0  0  0  0  0  0  0  0  0
  185.9570  178.2480  144.4040 C   0  0  0  0  0  0  0  0  0  0  0  0
  186.9960  177.6120  146.5800 C   0  0  0  0  0  2  0  0  0  0  0  0
  184.1720  178.4900  146.1620 C   0  0  0  0  0  3  0  0  0  0  0  0
  185.0300  178.9450  147.2730 C   0  0  0  0  0  3  0  0  0  0  0  0
  187.0420  178.0280  145.1490 C   0  0  0  0  0  3  0  0  0  0  0  0
  1  2  2  0  0  0  0
  1  8  1  0  0  0  0
  2  4  1  0  0  0  0
  3  7  2  0  0  0  0
  4  5  2  0  0  0  0
  5 21  1  0  0  0  0
  6  1  1  0  0  0  0
  7  8  1  0  0  0  0
  7  5  1  0  0  0  0
  8 10  1  1  0  0  0
 10  9  1  1  0  0  0
 11 10  1  0  0  0  0
 11 13  1  0  0  0  0
 13 12  1  1  0  0  0
 14 20  1  0  0  0  0
 14 15  1  0  0  0  0
 15 18  1  0  0  0  0
 18 16  2  0  0  0  0
 19 13  1  6  0  0  0
 19 17  1  0  0  0  0
 19 18  1  0  0  0  0
 20 17  1  0  0  0  0
 21 25  1  0  0  0  0
 22 24  1  0  0  0  0
 23 27  2  0  0  0  0
 25 23  1  0  0  0  0
 25 29  2  0  0  0  0
 26 22  1  0  0  0  0
 27 28  1  0  0  0  0
 28 22  2  0  0  0  0
 29 26  1  0  0  0  0
M  END
>  <MODEL>
1

>  <REMARK>
 VINA RESULT:      -7.7      0.000      0.000
  Name = 
  6 active torsions:
  status: ('A' for Active; 'I' for Inactive)
    1  A    between atoms: C_9  and  S_22
    2  A    between atoms: C_11  and  C_21
    3  A    between atoms: C_11  and  C_26
    4  A    between atoms: C_14  and  S_22
    5  A    between atoms: C_25  and  C_28
    6  A    between atoms: C_26  and  C_28
                            x       y       z     vdW  Elec       q    Type
                         _______ _______ _______ _____ _____    ______ ____

>  <TORSDO>
F 6

$$$$
=
 OpenBabel11062422423D

 29 31  0  0  1  0  0  0  0  0999 V2000
  189.7920  175.6560  146.7200 C   0  0  0  0  0  0  0  0  0  0  0  0
  190.8390  175.2280  147.3670 N   0  0  0  0  0  0  0  0  0  0  0  0
  191.5490  177.8680  144.4180 O   0  0  0  0  0  0  0  0  0  0  0  0
  192.1590  175.5040  146.9590 N   0  0  0  0  0  0  0  0  0  0  0  0
  192.4270  176.3040  145.9720 C   0  0  0  0  0  0  0  0  0  0  0  0
  188.4950  175.3610  147.2260 N   0  0  0  0  0  1  0  0  0  0  0  0
  191.3250  176.9360  145.2360 C   0  0  0  0  0  0  0  0  0  0  0  0
  189.9290  176.4240  145.4230 C   0  0  1  0  0  3  0  0  0  0  0  0
  189.6990  174.2230  144.4470 O   0  0  0  0  0  1  0  0  0  0  0  0
  189.5220  175.5890  144.2030 C   0  0  1  0  0  3  0  0  0  0  0  0
  188.0870  175.8800  143.7920 C   0  0  0  0  0  2  0  0  0  0  0  0
  188.3600  178.0170  142.7780 O   0  0  0  0  0  1  0  0  0  0  0  0
  187.7870  177.3710  143.8760 C   0  0  1  0  0  3  0  0  0  0  0  0
  186.2090  178.0090  146.6990 C   0  0  0  0  0  2  0  0  0  0  0  0
  185.8980  179.2700  145.8980 C   0  0  0  0  0  2  0  0  0  0  0  0
  185.7600  179.9080  143.6340 O   0  0  0  0  0  0  0  0  0  0  0  0
  185.5490  176.5300  144.7240 C   0  0  0  0  0  2  0  0  0  0  0  0
  185.9570  178.9970  144.4210 C   0  0  0  0  0  0  0  0  0  0  0  0
  186.2740  177.6160  143.9010 C   0  0  1  0  0  3  0  0  0  0  0  0
  185.3360  176.8570  146.2130 C   0  0  0  0  0  2  0  0  0  0  0  0
  194.1330  176.6160  145.5210 S   0  0  0  0  0  0  0  0  0  0  0  0
  194.5550  171.8730  145.1880 C   0  0  0  0  0  0  0  0  0  0  0  0
  193.5890  174.4620  143.8110 C   0  0  0  0  0  3  0  0  0  0  0  0
  194.7060  170.4120  146.1410 Cl  0  0  0  0  0  0  0  0  0  0  0  0
  194.3850  174.9340  144.9640 C   0  0  0  0  0  0  0  0  0  0  0  0
  195.7030  172.8260  145.1540 C   0  0  0  0  0  2  0  0  0  0  0  0
  193.1980  173.2050  143.5720 C   0  0  0  0  0  3  0  0  0  0  0  0
  193.4820  172.0260  144.4130 C   0  0  0  0  0  3  0  0  0  0  0  0
  195.3030  174.1950  145.5900 C   0  0  0  0  0  3  0  0  0  0  0  0
  1  6  1  0  0  0  0
  1  2  2  0  0  0  0
  3  7  2  0  0  0  0
  4  2  1  0  0  0  0
  5  4  2  0  0  0  0
  7  8  1  0  0  0  0
  7  5  1  0  0  0  0
  8 10  1  6  0  0  0
  8  1  1  0  0  0  0
 10  9  1  1  0  0  0
 11 13  1  0  0  0  0
 11 10  1  0  0  0  0
 13 12  1  6  0  0  0
 15 14  1  0  0  0  0
 16 18  2  0  0  0  0
 17 20  1  0  0  0  0
 18 15  1  0  0  0  0
 19 13  1  1  0  0  0
 19 18  1  0  0  0  0
 19 17  1  0  0  0  0
 20 14  1  0  0  0  0
 21  5  1  0  0  0  0
 22 24  1  0  0  0  0
 23 25  1  0  0  0  0
 25 21  1  0  0  0  0
 25 29  2  0  0  0  0
 26 22  1  0  0  0  0
 26 29  1  0  0  0  0
 27 23  2  0  0  0  0
 27 28  1  0  0  0  0
 28 22  2  0  0  0  0
M  END
>  <MODEL>
2

>  <REMARK>
 VINA RESULT:      -7.1      3.680      7.859
  Name = 
  6 active torsions:
  status: ('A' for Active; 'I' for Inactive)
    1  A    between atoms: C_9  and  S_22
    2  A    between atoms: C_11  and  C_21
    3  A    between atoms: C_11  and  C_26
    4  A    between atoms: C_14  and  S_22
    5  A    between atoms: C_25  and  C_28
    6  A    between atoms: C_26  and  C_28
                            x       y       z     vdW  Elec       q    Type
                         _______ _______ _______ _____ _____    ______ ____

>  <TORSDO>
F 6

$$$$
=
 OpenBabel11062422423D

 29 31  0  0  1  0  0  0  0  0999 V2000
  189.6570  176.0880  142.8990 C   0  0  0  0  0  0  0  0  0  0  0  0
  190.7700  175.6790  142.3590 N   0  0  0  0  0  0  0  0  0  0  0  0
  189.4920  173.5930  145.5500 O   0  0  0  0  0  0  0  0  0  0  0  0
  191.5930  174.6970  142.9450 N   0  0  0  0  0  0  0  0  0  0  0  0
  191.2410  174.0450  144.0120 C   0  0  0  0  0  0  0  0  0  0  0  0
  188.8690  177.0570  142.2160 N   0  0  0  0  0  1  0  0  0  0  0  0
  189.9510  174.3420  144.6470 C   0  0  0  0  0  0  0  0  0  0  0  0
  189.2080  175.5830  144.2530 C   0  0  1  0  0  3  0  0  0  0  0  0
  190.5090  177.4110  145.1530 O   0  0  0  0  0  1  0  0  0  0  0  0
  189.3590  176.6410  145.3510 C   0  0  1  0  0  3  0  0  0  0  0  0
  188.1260  177.5280  145.4320 C   0  0  0  0  0  2  0  0  0  0  0  0
  187.0320  177.8750  147.5190 O   0  0  0  0  0  1  0  0  0  0  0  0
  187.1280  176.9850  146.4470 C   0  0  1  0  0  3  0  0  0  0  0  0
  185.5610  179.4910  144.9890 C   0  0  0  0  0  2  0  0  0  0  0  0
  185.6940  178.5130  143.8270 C   0  0  0  0  0  2  0  0  0  0  0  0
  185.9420  176.1890  143.5210 O   0  0  0  0  0  0  0  0  0  0  0  0
  184.6780  177.6400  146.5120 C   0  0  0  0  0  2  0  0  0  0  0  0
  185.8000  177.0980  144.3230 C   0  0  0  0  0  0  0  0  0  0  0  0
  185.7520  176.7910  145.7990 C   0  0  1  0  0  3  0  0  0  0  0  0
  184.4400  179.0420  145.9210 C   0  0  0  0  0  2  0  0  0  0  0  0
  192.3370  172.8010  144.6910 S   0  0  0  0  0  0  0  0  0  0  0  0
  195.6960  176.1910  144.5850 C   0  0  0  0  0  0  0  0  0  0  0  0
  193.2580  175.0460  146.0950 C   0  0  0  0  0  3  0  0  0  0  0  0
  196.7740  177.0580  143.5130 Cl  0  0  0  0  0  0  0  0  0  0  0  0
  193.5950  174.0070  145.1000 C   0  0  0  0  0  0  0  0  0  0  0  0
  195.9630  174.7480  144.8540 C   0  0  0  0  0  2  0  0  0  0  0  0
  193.7580  176.2860  146.1550 C   0  0  0  0  0  3  0  0  0  0  0  0
  194.7550  176.8720  145.2380 C   0  0  0  0  0  3  0  0  0  0  0  0
  194.7900  173.8920  144.5160 C   0  0  0  0  0  3  0  0  0  0  0  0
  1  8  1  0  0  0  0
  2  1  2  0  0  0  0
  2  4  1  0  0  0  0
  4  5  2  0  0  0  0
  5  7  1  0  0  0  0
  5 21  1  0  0  0  0
  6  1  1  0  0  0  0
  7  3  2  0  0  0  0
  8  7  1  0  0  0  0
  8 10  1  1  0  0  0
 10  9  1  6  0  0  0
 10 11  1  0  0  0  0
 11 13  1  0  0  0  0
 13 12  1  1  0  0  0
 14 20  1  0  0  0  0
 15 18  1  0  0  0  0
 15 14  1  0  0  0  0
 16 18  2  0  0  0  0
 18 19  1  0  0  0  0
 19 13  1  1  0  0  0
 19 17  1  0  0  0  0
 20 17  1  0  0  0  0
 21 25  1  0  0  0  0
 22 26  1  0  0  0  0
 22 28  2  0  0  0  0
 23 27  2  0  0  0  0
 24 22  1  0  0  0  0
 25 23  1  0  0  0  0
 28 27  1  0  0  0  0
 29 26  1  0  0  0  0
 29 25  2  0  0  0  0
M  END
>  <MODEL>
3

>  <REMARK>
 VINA RESULT:      -7.0      3.193      7.680
  Name = 
  6 active torsions:
  status: ('A' for Active; 'I' for Inactive)
    1  A    between atoms: C_9  and  S_22
    2  A    between atoms: C_11  and  C_21
    3  A    between atoms: C_11  and  C_26
    4  A    between atoms: C_14  and  S_22
    5  A    between atoms: C_25  and  C_28
    6  A    between atoms: C_26  and  C_28
                            x       y       z     vdW  Elec       q    Type
                         _______ _______ _______ _____ _____    ______ ____

>  <TORSDO>
F 6

$$$$
=
 OpenBabel11062422423D

 29 31  0  0  1  0  0  0  0  0999 V2000
  191.4840  175.7960  146.6540 C   0  0  0  0  0  0  0  0  0  0  0  0
  192.4040  174.9720  146.2400 N   0  0  0  0  0  0  0  0  0  0  0  0
  191.3710  177.8930  143.6760 O   0  0  0  0  0  0  0  0  0  0  0  0
  192.8860  174.9630  144.9160 N   0  0  0  0  0  0  0  0  0  0  0  0
  192.5280  175.8540  144.0420 C   0  0  0  0  0  0  0  0  0  0  0  0
  191.0840  175.7610  148.0200 N   0  0  0  0  0  1  0  0  0  0  0  0
  191.5770  176.9030  144.4280 C   0  0  0  0  0  0  0  0  0  0  0  0
  190.8050  176.7590  145.7050 C   0  0  1  0  0  3  0  0  0  0  0  0
  189.0970  175.0520  145.8400 O   0  0  0  0  0  1  0  0  0  0  0  0
  189.3620  176.3490  145.3870 C   0  0  1  0  0  3  0  0  0  0  0  0
  188.3670  177.3380  145.9750 C   0  0  0  0  0  2  0  0  0  0  0  0
  188.1140  177.9160  143.6790 O   0  0  0  0  0  1  0  0  0  0  0  0
  187.4340  177.8790  144.8990 C   0  0  1  0  0  3  0  0  0  0  0  0
  184.4530  179.0420  145.6890 C   0  0  0  0  0  2  0  0  0  0  0  0
  184.2460  178.6730  144.2240 C   0  0  0  0  0  2  0  0  0  0  0  0
  185.1860  177.1980  142.6460 O   0  0  0  0  0  0  0  0  0  0  0  0
  185.5300  176.7740  146.1590 C   0  0  0  0  0  2  0  0  0  0  0  0
  185.1990  177.5920  143.8000 C   0  0  0  0  0  0  0  0  0  0  0  0
  186.1840  177.0010  144.7790 C   0  0  1  0  0  3  0  0  0  0  0  0
  184.4350  177.7820  146.5490 C   0  0  0  0  0  2  0  0  0  0  0  0
  193.1950  175.7820  142.3800 S   0  0  0  0  0  0  0  0  0  0  0  0
  190.6320  171.8130  141.7020 C   0  0  0  0  0  0  0  0  0  0  0  0
  190.5610  174.8800  142.0510 C   0  0  0  0  0  3  0  0  0  0  0  0
  190.6530  170.0780  141.9360 Cl  0  0  0  0  0  0  0  0  0  0  0  0
  191.9920  174.5650  141.8560 C   0  0  0  0  0  0  0  0  0  0  0  0
  191.5490  172.4080  140.6860 C   0  0  0  0  0  2  0  0  0  0  0  0
  189.5720  174.0020  142.2580 C   0  0  0  0  0  3  0  0  0  0  0  0
  189.7060  172.5350  142.3320 C   0  0  0  0  0  3  0  0  0  0  0  0
  192.4390  173.4470  141.2800 C   0  0  0  0  0  3  0  0  0  0  0  0
  1  6  1  0  0  0  0
  2  1  2  0  0  0  0
  3  7  2  0  0  0  0
  4  2  1  0  0  0  0
  5  7  1  0  0  0  0
  5  4  2  0  0  0  0
  7  8  1  0  0  0  0
  8 10  1  6  0  0  0
  8  1  1  0  0  0  0
 10  9  1  1  0  0  0
 10 11  1  0  0  0  0
 13 12  1  6  0  0  0
 13 11  1  0  0  0  0
 14 20  1  0  0  0  0
 15 14  1  0  0  0  0
 16 18  2  0  0  0  0
 17 20  1  0  0  0  0
 18 15  1  0  0  0  0
 18 19  1  0  0  0  0
 19 13  1  1  0  0  0
 19 17  1  0  0  0  0
 21  5  1  0  0  0  0
 22 24  1  0  0  0  0
 22 28  2  0  0  0  0
 23 27  2  0  0  0  0
 25 23  1  0  0  0  0
 25 21  1  0  0  0  0
 26 29  1  0  0  0  0
 26 22  1  0  0  0  0
 27 28  1  0  0  0  0
 29 25  2  0  0  0  0
M  END
>  <MODEL>
4

>  <REMARK>
 VINA RESULT:      -7.0      3.821      7.648
  Name = 
  6 active torsions:
  status: ('A' for Active; 'I' for Inactive)
    1  A    between atoms: C_9  and  S_22
    2  A    between atoms: C_11  and  C_21
    3  A    between atoms: C_11  and  C_26
    4  A    between atoms: C_14  and  S_22
    5  A    between atoms: C_25  and  C_28
    6  A    between atoms: C_26  and  C_28
                            x       y       z     vdW  Elec       q    Type
                         _______ _______ _______ _____ _____    ______ ____

>  <TORSDO>
F 6

$$$$
=
 OpenBabel11062422423D

 29 31  0  0  1  0  0  0  0  0999 V2000
  190.3170  174.5030  144.2100 C   0  0  0  0  0  0  0  0  0  0  0  0
  191.1010  175.2900  143.5290 N   0  0  0  0  0  0  0  0  0  0  0  0
  192.0340  174.8020  147.4100 O   0  0  0  0  0  0  0  0  0  0  0  0
  192.1020  176.0810  144.1270 N   0  0  0  0  0  0  0  0  0  0  0  0
  192.3900  175.9960  145.3900 C   0  0  0  0  0  0  0  0  0  0  0  0
  189.3580  173.7100  143.5180 N   0  0  0  0  0  1  0  0  0  0  0  0
  191.6450  175.0580  146.2390 C   0  0  0  0  0  0  0  0  0  0  0  0
  190.3780  174.4470  145.7210 C   0  0  1  0  0  3  0  0  0  0  0  0
  188.8910  174.5590  147.6250 O   0  0  0  0  0  1  0  0  0  0  0  0
  189.1740  175.1300  146.3800 C   0  0  1  0  0  3  0  0  0  0  0  0
  189.3970  176.6280  146.5140 C   0  0  0  0  0  2  0  0  0  0  0  0
  188.7240  177.5420  144.4200 O   0  0  0  0  0  1  0  0  0  0  0  0
  188.3320  177.4090  145.7550 C   0  0  1  0  0  3  0  0  0  0  0  0
  185.5160  179.1090  145.9670 C   0  0  0  0  0  2  0  0  0  0  0  0
  185.2900  178.3260  144.6770 C   0  0  0  0  0  2  0  0  0  0  0  0
  186.0570  176.3290  143.6920 O   0  0  0  0  0  0  0  0  0  0  0  0
  186.2740  176.9920  147.1780 C   0  0  0  0  0  2  0  0  0  0  0  0
  186.1000  177.0610  144.6660 C   0  0  0  0  0  0  0  0  0  0  0  0
  186.9780  176.6940  145.8370 C   0  0  1  0  0  3  0  0  0  0  0  0
  185.3140  178.1950  147.1710 C   0  0  0  0  0  2  0  0  0  0  0  0
  193.6860  177.0270  146.0750 S   0  0  0  0  0  0  0  0  0  0  0  0
  196.2980  173.4460  144.3060 C   0  0  0  0  0  0  0  0  0  0  0  0
  195.6260  176.4540  144.1350 C   0  0  0  0  0  3  0  0  0  0  0  0
  196.3460  171.7040  144.1290 Cl  0  0  0  0  0  0  0  0  0  0  0  0
  194.9840  176.0050  145.3880 C   0  0  0  0  0  0  0  0  0  0  0  0
  196.4830  174.0310  145.6660 C   0  0  0  0  0  2  0  0  0  0  0  0
  196.1680  175.6740  143.1910 C   0  0  0  0  0  3  0  0  0  0  0  0
  196.2380  174.2000  143.2100 C   0  0  0  0  0  3  0  0  0  0  0  0
  195.3380  174.9050  146.0550 C   0  0  0  0  0  3  0  0  0  0  0  0
  1  8  1  0  0  0  0
  2  4  1  0  0  0  0
  2  1  2  0  0  0  0
  4  5  2  0  0  0  0
  5 21  1  0  0  0  0
  5  7  1  0  0  0  0
  6  1  1  0  0  0  0
  7  3  2  0  0  0  0
  8  7  1  0  0  0  0
  8 10  1  1  0  0  0
 10 11  1  0  0  0  0
 10  9  1  1  0  0  0
 13 12  1  6  0  0  0
 13 11  1  0  0  0  0
 14 20  1  0  0  0  0
 15 14  1  0  0  0  0
 16 18  2  0  0  0  0
 18 15  1  0  0  0  0
 18 19  1  0  0  0  0
 19 13  1  6  0  0  0
 19 17  1  0  0  0  0
 20 17  1  0  0  0  0
 22 26  1  0  0  0  0
 23 25  1  0  0  0  0
 24 22  1  0  0  0  0
 25 29  2  0  0  0  0
 25 21  1  0  0  0  0
 26 29  1  0  0  0  0
 27 28  1  0  0  0  0
 27 23  2  0  0  0  0
 28 22  2  0  0  0  0
M  END
>  <MODEL>
5

>  <REMARK>
 VINA RESULT:      -7.0      3.541      8.120
  Name = 
  6 active torsions:
  status: ('A' for Active; 'I' for Inactive)
    1  A    between atoms: C_9  and  S_22
    2  A    between atoms: C_11  and  C_21
    3  A    between atoms: C_11  and  C_26
    4  A    between atoms: C_14  and  S_22
    5  A    between atoms: C_25  and  C_28
    6  A    between atoms: C_26  and  C_28
                            x       y       z     vdW  Elec       q    Type
                         _______ _______ _______ _____ _____    ______ ____

>  <TORSDO>
F 6

$$$$
=
 OpenBabel11062422423D

 29 31  0  0  1  0  0  0  0  0999 V2000
  190.8230  173.8840  144.1250 C   0  0  0  0  0  0  0  0  0  0  0  0
  189.5730  173.8480  143.7570 N   0  0  0  0  0  0  0  0  0  0  0  0
  191.6090  177.1700  142.7610 O   0  0  0  0  0  0  0  0  0  0  0  0
  188.9010  174.9620  143.2150 N   0  0  0  0  0  0  0  0  0  0  0  0
  189.5120  176.0730  142.9380 C   0  0  0  0  0  0  0  0  0  0  0  0
  191.4330  172.6990  144.6260 N   0  0  0  0  0  1  0  0  0  0  0  0
  190.9510  176.1930  143.2060 C   0  0  0  0  0  0  0  0  0  0  0  0
  191.6230  175.1670  144.0670 C   0  0  1  0  0  3  0  0  0  0  0  0
  191.0180  175.2050  146.4080 O   0  0  0  0  0  1  0  0  0  0  0  0
  191.8830  175.7570  145.4580 C   0  0  1  0  0  3  0  0  0  0  0  0
  193.3330  175.5630  145.8750 C   0  0  0  0  0  2  0  0  0  0  0  0
  194.5650  177.6010  145.8680 O   0  0  0  0  0  1  0  0  0  0  0  0
  194.2560  176.4840  145.0870 C   0  0  1  0  0  3  0  0  0  0  0  0
  194.4920  174.9140  142.1980 C   0  0  0  0  0  2  0  0  0  0  0  0
  195.6260  175.9270  142.0750 C   0  0  0  0  0  2  0  0  0  0  0  0
  197.0230  177.1650  143.5130 O   0  0  0  0  0  0  0  0  0  0  0  0
  195.2860  174.2340  144.5290 C   0  0  0  0  0  2  0  0  0  0  0  0
  196.1320  176.3360  143.4300 C   0  0  0  0  0  0  0  0  0  0  0  0
  195.5400  175.7480  144.6870 C   0  0  1  0  0  3  0  0  0  0  0  0
  194.9170  173.7670  143.1090 C   0  0  0  0  0  2  0  0  0  0  0  0
  188.5900  177.4410  142.2390 S   0  0  0  0  0  0  0  0  0  0  0  0
  185.7200  177.9370  146.0200 C   0  0  0  0  0  0  0  0  0  0  0  0
  188.6200  177.5390  145.0400 C   0  0  0  0  0  3  0  0  0  0  0  0
  184.0660  177.7310  146.5570 Cl  0  0  0  0  0  0  0  0  0  0  0  0
  187.8610  177.8700  143.8160 C   0  0  0  0  0  0  0  0  0  0  0  0
  186.0240  179.0250  145.0450 C   0  0  0  0  0  2  0  0  0  0  0  0
  188.1090  177.2540  146.2440 C   0  0  0  0  0  3  0  0  0  0  0  0
  186.6770  177.2140  146.5980 C   0  0  0  0  0  3  0  0  0  0  0  0
  186.6850  178.5000  143.8150 C   0  0  0  0  0  3  0  0  0  0  0  0
  1  6  1  0  0  0  0
  2  1  2  0  0  0  0
  3  7  2  0  0  0  0
  4  2  1  0  0  0  0
  5  7  1  0  0  0  0
  5  4  2  0  0  0  0
  7  8  1  0  0  0  0
  8  1  1  0  0  0  0
  8 10  1  1  0  0  0
 10 11  1  0  0  0  0
 10  9  1  1  0  0  0
 13 12  1  1  0  0  0
 13 11  1  0  0  0  0
 14 20  1  0  0  0  0
 15 14  1  0  0  0  0
 15 18  1  0  0  0  0
 17 19  1  0  0  0  0
 18 16  2  0  0  0  0
 18 19  1  0  0  0  0
 19 13  1  6  0  0  0
 20 17  1  0  0  0  0
 21  5  1  0  0  0  0
 21 25  1  0  0  0  0
 22 24  1  0  0  0  0
 22 28  2  0  0  0  0
 23 27  2  0  0  0  0
 25 23  1  0  0  0  0
 26 22  1  0  0  0  0
 27 28  1  0  0  0  0
 29 25  2  0  0  0  0
 29 26  1  0  0  0  0
M  END
>  <MODEL>
6

>  <REMARK>
 VINA RESULT:      -6.9      2.100      2.995
  Name = 
  6 active torsions:
  status: ('A' for Active; 'I' for Inactive)
    1  A    between atoms: C_9  and  S_22
    2  A    between atoms: C_11  and  C_21
    3  A    between atoms: C_11  and  C_26
    4  A    between atoms: C_14  and  S_22
    5  A    between atoms: C_25  and  C_28
    6  A    between atoms: C_26  and  C_28
                            x       y       z     vdW  Elec       q    Type
                         _______ _______ _______ _____ _____    ______ ____

>  <TORSDO>
F 6

$$$$
=
 OpenBabel11062422423D

 29 31  0  0  1  0  0  0  0  0999 V2000
  191.3320  176.7940  146.6930 C   0  0  0  0  0  0  0  0  0  0  0  0
  192.5710  176.3930  146.6450 N   0  0  0  0  0  0  0  0  0  0  0  0
  190.9050  177.3900  143.1240 O   0  0  0  0  0  0  0  0  0  0  0  0
  193.2470  176.1320  145.4360 N   0  0  0  0  0  0  0  0  0  0  0  0
  192.7170  176.3830  144.2780 C   0  0  0  0  0  0  0  0  0  0  0  0
  190.7410  177.0700  147.9580 N   0  0  0  0  0  1  0  0  0  0  0  0
  191.3620  176.9450  144.2090 C   0  0  0  0  0  0  0  0  0  0  0  0
  190.5000  176.9310  145.4360 C   0  0  1  0  0  3  0  0  0  0  0  0
  189.8120  174.6940  146.0430 O   0  0  0  0  0  1  0  0  0  0  0  0
  189.4460  175.8260  145.3090 C   0  0  1  0  0  3  0  0  0  0  0  0
  188.0740  176.3240  145.7380 C   0  0  0  0  0  2  0  0  0  0  0  0
  187.7330  176.3390  143.3810 O   0  0  0  0  0  1  0  0  0  0  0  0
  187.3330  176.9590  144.5680 C   0  0  1  0  0  3  0  0  0  0  0  0
  185.5650  179.3360  146.0110 C   0  0  0  0  0  2  0  0  0  0  0  0
  184.9050  179.2730  144.6380 C   0  0  0  0  0  2  0  0  0  0  0  0
  184.6370  177.7020  142.9020 O   0  0  0  0  0  0  0  0  0  0  0  0
  185.4380  176.7960  146.2460 C   0  0  0  0  0  2  0  0  0  0  0  0
  185.0810  177.9150  144.0180 C   0  0  0  0  0  0  0  0  0  0  0  0
  185.8180  176.8200  144.7500 C   0  0  1  0  0  3  0  0  0  0  0  0
  185.0980  178.1630  146.8670 C   0  0  0  0  0  2  0  0  0  0  0  0
  193.6450  176.0360  142.7850 S   0  0  0  0  0  0  0  0  0  0  0  0
  195.5180  172.2710  145.0430 C   0  0  0  0  0  0  0  0  0  0  0  0
  192.9980  173.4770  143.7290 C   0  0  0  0  0  3  0  0  0  0  0  0
  196.7970  171.7910  146.1380 Cl  0  0  0  0  0  0  0  0  0  0  0  0
  194.0900  174.3930  143.3390 C   0  0  0  0  0  0  0  0  0  0  0  0
  195.8830  172.6900  143.6580 C   0  0  0  0  0  2  0  0  0  0  0  0
  193.0670  172.4920  144.6340 C   0  0  0  0  0  3  0  0  0  0  0  0
  194.2520  172.1160  145.4280 C   0  0  0  0  0  3  0  0  0  0  0  0
  195.3820  174.0580  143.3410 C   0  0  0  0  0  3  0  0  0  0  0  0
  1  6  1  0  0  0  0
  2  1  2  0  0  0  0
  3  7  2  0  0  0  0
  4  2  1  0  0  0  0
  5  4  2  0  0  0  0
  7  5  1  0  0  0  0
  7  8  1  0  0  0  0
  8 10  1  6  0  0  0
  8  1  1  0  0  0  0
 10 11  1  0  0  0  0
 10  9  1  1  0  0  0
 13 12  1  6  0  0  0
 13 11  1  0  0  0  0
 14 20  1  0  0  0  0
 15 14  1  0  0  0  0
 16 18  2  0  0  0  0
 17 20  1  0  0  0  0
 18 15  1  0  0  0  0
 18 19  1  0  0  0  0
 19 13  1  1  0  0  0
 19 17  1  0  0  0  0
 21 25  1  0  0  0  0
 21  5  1  0  0  0  0
 22 28  2  0  0  0  0
 22 24  1  0  0  0  0
 23 27  2  0  0  0  0
 25 29  2  0  0  0  0
 25 23  1  0  0  0  0
 26 22  1  0  0  0  0
 27 28  1  0  0  0  0
 29 26  1  0  0  0  0
M  END
>  <MODEL>
7

>  <REMARK>
 VINA RESULT:      -6.9      3.992      8.227
  Name = 
  6 active torsions:
  status: ('A' for Active; 'I' for Inactive)
    1  A    between atoms: C_9  and  S_22
    2  A    between atoms: C_11  and  C_21
    3  A    between atoms: C_11  and  C_26
    4  A    between atoms: C_14  and  S_22
    5  A    between atoms: C_25  and  C_28
    6  A    between atoms: C_26  and  C_28
                            x       y       z     vdW  Elec       q    Type
                         _______ _______ _______ _____ _____    ______ ____

>  <TORSDO>
F 6

$$$$
=
 OpenBabel11062422423D

 29 31  0  0  1  0  0  0  0  0999 V2000
  189.4140  175.4640  142.3950 C   0  0  0  0  0  0  0  0  0  0  0  0
  190.6610  175.2480  142.0860 N   0  0  0  0  0  0  0  0  0  0  0  0
  189.9930  176.8040  145.7330 O   0  0  0  0  0  0  0  0  0  0  0  0
  191.7370  175.6960  142.8790 N   0  0  0  0  0  0  0  0  0  0  0  0
  191.5580  176.2590  144.0350 C   0  0  0  0  0  0  0  0  0  0  0  0
  188.3910  174.9400  141.5550 N   0  0  0  0  0  1  0  0  0  0  0  0
  190.1930  176.4550  144.5400 C   0  0  0  0  0  0  0  0  0  0  0  0
  189.0350  176.2930  143.6020 C   0  0  1  0  0  3  0  0  0  0  0  0
  189.0830  178.1360  142.0360 O   0  0  0  0  0  1  0  0  0  0  0  0
  188.4910  177.6740  143.2160 C   0  0  1  0  0  3  0  0  0  0  0  0
  186.9760  177.6510  143.0840 C   0  0  0  0  0  2  0  0  0  0  0  0
  185.6520  179.5830  143.5140 O   0  0  0  0  0  1  0  0  0  0  0  0
  186.3220  178.5300  144.1420 C   0  0  1  0  0  3  0  0  0  0  0  0
  186.6930  178.2780  147.4080 C   0  0  0  0  0  2  0  0  0  0  0  0
  185.3100  178.9150  147.3180 C   0  0  0  0  0  2  0  0  0  0  0  0
  183.5450  179.0400  145.7630 O   0  0  0  0  0  0  0  0  0  0  0  0
  186.0530  176.5210  145.6680 C   0  0  0  0  0  2  0  0  0  0  0  0
  184.6490  178.5850  146.0100 C   0  0  0  0  0  0  0  0  0  0  0  0
  185.3420  177.7130  144.9910 C   0  0  1  0  0  3  0  0  0  0  0  0
  186.6030  176.7910  147.0800 C   0  0  0  0  0  2  0  0  0  0  0  0
  192.9780  176.7920  144.9900 S   0  0  0  0  0  0  0  0  0  0  0  0
  193.9190  172.1450  144.4420 C   0  0  0  0  0  0  0  0  0  0  0  0
  194.9590  175.0290  144.0820 C   0  0  0  0  0  3  0  0  0  0  0  0
  193.1620  170.5770  144.2540 Cl  0  0  0  0  0  0  0  0  0  0  0  0
  193.7460  175.1770  144.9130 C   0  0  0  0  0  0  0  0  0  0  0  0
  193.8170  172.8340  145.7620 C   0  0  0  0  0  2  0  0  0  0  0  0
  195.3630  173.9210  143.4500 C   0  0  0  0  0  3  0  0  0  0  0  0
  194.6800  172.6130  143.4540 C   0  0  0  0  0  3  0  0  0  0  0  0
  193.2110  174.1910  145.6350 C   0  0  0  0  0  3  0  0  0  0  0  0
  1  8  1  0  0  0  0
  2  1  2  0  0  0  0
  2  4  1  0  0  0  0
  4  5  2  0  0  0  0
  5  7  1  0  0  0  0
  5 21  1  0  0  0  0
  6  1  1  0  0  0  0
  7  3  2  0  0  0  0
  8 10  1  6  0  0  0
  8  7  1  0  0  0  0
 10  9  1  6  0  0  0
 11 10  1  0  0  0  0
 11 13  1  0  0  0  0
 13 12  1  6  0  0  0
 15 14  1  0  0  0  0
 16 18  2  0  0  0  0
 17 20  1  0  0  0  0
 18 15  1  0  0  0  0
 19 13  1  1  0  0  0
 19 17  1  0  0  0  0
 19 18  1  0  0  0  0
 20 14  1  0  0  0  0
 22 26  1  0  0  0  0
 23 25  1  0  0  0  0
 24 22  1  0  0  0  0
 25 21  1  0  0  0  0
 25 29  2  0  0  0  0
 27 28  1  0  0  0  0
 27 23  2  0  0  0  0
 28 22  2  0  0  0  0
 29 26  1  0  0  0  0
M  END
>  <MODEL>
8

>  <REMARK>
 VINA RESULT:      -6.9      3.209      7.759
  Name = 
  6 active torsions:
  status: ('A' for Active; 'I' for Inactive)
    1  A    between atoms: C_9  and  S_22
    2  A    between atoms: C_11  and  C_21
    3  A    between atoms: C_11  and  C_26
    4  A    between atoms: C_14  and  S_22
    5  A    between atoms: C_25  and  C_28
    6  A    between atoms: C_26  and  C_28
                            x       y       z     vdW  Elec       q    Type
                         _______ _______ _______ _____ _____    ______ ____

>  <TORSDO>
F 6

$$$$
=
 OpenBabel11062422423D

 29 31  0  0  1  0  0  0  0  0999 V2000
  189.6610  175.3400  146.0560 C   0  0  0  0  0  0  0  0  0  0  0  0
  189.9160  174.1830  145.5140 N   0  0  0  0  0  0  0  0  0  0  0  0
  192.7220  177.0200  145.0130 O   0  0  0  0  0  0  0  0  0  0  0  0
  191.0030  173.9660  144.6430 N   0  0  0  0  0  0  0  0  0  0  0  0
  191.8960  174.8790  144.4080 C   0  0  0  0  0  0  0  0  0  0  0  0
  188.5640  175.4580  146.9550 N   0  0  0  0  0  1  0  0  0  0  0  0
  191.7730  176.1920  145.0540 C   0  0  0  0  0  0  0  0  0  0  0  0
  190.4820  176.5650  145.7170 C   0  0  1  0  0  3  0  0  0  0  0  0
  190.5930  178.4290  144.1800 O   0  0  0  0  0  1  0  0  0  0  0  0
  189.7170  177.5540  144.8280 C   0  0  1  0  0  3  0  0  0  0  0  0
  188.8430  176.8230  143.8200 C   0  0  0  0  0  2  0  0  0  0  0  0
  188.3360  177.8420  141.7290 O   0  0  0  0  0  1  0  0  0  0  0  0
  187.9440  177.7970  143.0690 C   0  0  1  0  0  3  0  0  0  0  0  0
  185.9180  179.1820  145.2690 C   0  0  0  0  0  2  0  0  0  0  0  0
  185.2070  179.5200  143.9630 C   0  0  0  0  0  2  0  0  0  0  0  0
  185.0880  178.6660  141.7700 O   0  0  0  0  0  0  0  0  0  0  0  0
  186.1790  176.7440  144.5550 C   0  0  0  0  0  2  0  0  0  0  0  0
  185.5510  178.5260  142.8900 C   0  0  0  0  0  0  0  0  0  0  0  0
  186.4760  177.3680  143.1750 C   0  0  1  0  0  3  0  0  0  0  0  0
  185.6720  177.7210  145.6310 C   0  0  0  0  0  2  0  0  0  0  0  0
  193.2560  174.5230  143.2970 S   0  0  0  0  0  0  0  0  0  0  0  0
  196.2030  171.6920  145.7620 C   0  0  0  0  0  0  0  0  0  0  0  0
  195.0140  174.5280  145.4800 C   0  0  0  0  0  3  0  0  0  0  0  0
  197.1690  170.2370  145.6440 Cl  0  0  0  0  0  0  0  0  0  0  0  0
  194.1960  173.6940  144.5730 C   0  0  0  0  0  0  0  0  0  0  0  0
  194.7160  171.5650  145.7630 C   0  0  0  0  0  2  0  0  0  0  0  0
  196.1480  174.1650  146.0920 C   0  0  0  0  0  3  0  0  0  0  0  0
  196.8160  172.8530  145.9900 C   0  0  0  0  0  3  0  0  0  0  0  0
  194.0890  172.3680  144.6730 C   0  0  0  0  0  3  0  0  0  0  0  0
  1  6  1  0  0  0  0
  2  1  2  0  0  0  0
  3  7  2  0  0  0  0
  4  2  1  0  0  0  0
  5  4  2  0  0  0  0
  5  7  1  0  0  0  0
  7  8  1  0  0  0  0
  8 10  1  6  0  0  0
  8  1  1  0  0  0  0
 10  9  1  6  0  0  0
 11 10  1  0  0  0  0
 13 12  1  6  0  0  0
 13 11  1  0  0  0  0
 14 20  1  0  0  0  0
 15 14  1  0  0  0  0
 16 18  2  0  0  0  0
 17 20  1  0  0  0  0
 18 19  1  0  0  0  0
 18 15  1  0  0  0  0
 19 13  1  1  0  0  0
 19 17  1  0  0  0  0
 21  5  1  0  0  0  0
 21 25  1  0  0  0  0
 22 26  1  0  0  0  0
 22 28  2  0  0  0  0
 23 27  2  0  0  0  0
 24 22  1  0  0  0  0
 25 29  2  0  0  0  0
 25 23  1  0  0  0  0
 28 27  1  0  0  0  0
 29 26  1  0  0  0  0
M  END
>  <MODEL>
9

>  <REMARK>
 VINA RESULT:      -6.8      3.649      8.338
  Name = 
  6 active torsions:
  status: ('A' for Active; 'I' for Inactive)
    1  A    between atoms: C_9  and  S_22
    2  A    between atoms: C_11  and  C_21
    3  A    between atoms: C_11  and  C_26
    4  A    between atoms: C_14  and  S_22
    5  A    between atoms: C_25  and  C_28
    6  A    between atoms: C_26  and  C_28
                            x       y       z     vdW  Elec       q    Type
                         _______ _______ _______ _____ _____    ______ ____

>  <TORSDO>
F 6

$$$$
