=
 OpenBabel11062422403D

 44 47  0  0  1  0  0  0  0  0999 V2000
  195.8740  175.7750  144.0910 C   0  0  0  0  0  0  0  0  0  0  0  0
  195.4220  173.2470  139.3100 C   0  0  0  0  0  2  0  0  0  0  0  0
  189.5010  174.9110  141.8670 C   0  0  2  0  0  3  0  0  0  0  0  0
  191.4660  175.3630  144.6470 S   0  0  0  0  0  0  0  0  0  0  0  0
  192.8650  172.9810  142.8520 O   0  0  0  0  0  1  0  0  0  0  0  0
  194.9460  173.0830  140.7230 C   0  0  2  0  0  3  0  0  0  0  0  0
  193.4790  172.6440  140.5620 C   0  0  1  0  0  3  0  0  0  0  0  0
  194.0200  175.2190  141.7040 O   0  0  0  0  0  0  0  0  0  0  0  0
  196.5180  175.8930  142.7460 C   0  0  0  0  0  2  0  0  0  0  0  0
  192.4360  176.7110  145.3880 C   0  0  0  0  0  2  0  0  0  0  0  0
  194.5910  176.3670  144.3130 N   0  0  0  0  0  2  0  0  0  0  0  0
  192.6960  174.8410  141.3540 C   0  0  0  0  0  2  0  0  0  0  0  0
  193.8790  176.2790  145.5820 C   0  0  1  0  0  3  0  0  0  0  0  0
  190.4540  176.5080  143.6420 C   0  0  1  0  0  3  0  0  0  0  0  0
  192.5110  173.3360  141.5430 C   0  0  2  0  0  0  0  0  0  0  0  0
  195.1170  174.3800  141.4720 C   0  0  0  0  0  0  0  0  0  0  0  0
  191.0320  172.9600  141.3010 C   0  0  2  0  0  3  0  0  0  0  0  0
  194.5340  177.1950  146.5980 C   0  0  0  0  0  1  0  0  0  0  0  0
  188.3770  175.1630  144.1140 C   0  0  0  0  0  1  0  0  0  0  0  0
  194.2710  172.7350  138.4790 C   0  0  0  0  0  2  0  0  0  0  0  0
  190.1280  173.6000  142.3550 C   0  0  0  0  0  2  0  0  0  0  0  0
  196.2820  174.6890  141.9540 N   0  0  0  0  0  0  0  0  0  0  0  0
  191.2510  177.1160  142.6670 O   0  0  0  0  0  1  0  0  0  0  0  0
  189.1610  175.9030  143.0270 C   0  0  2  0  0  0  0  0  0  0  0  0
  193.0930  172.8670  139.2270 O   0  0  0  0  0  0  0  0  0  0  0  0
  196.4480  175.1270  145.0050 O   0  0  0  0  0  0  0  0  0  0  0  0
  189.0340  178.1030  141.9440 O   0  0  0  0  0  1  0  0  0  0  0  0
  188.2670  177.0590  142.4690 C   0  0  2  0  0  3  0  0  0  0  0  0
  187.5970  177.9210  144.7630 C   0  0  0  0  0  2  0  0  0  0  0  0
  186.4730  178.0150  145.8010 C   0  0  1  0  0  0  0  0  0  0  0  0
  185.0410  178.8190  143.0730 O   0  0  0  0  0  0  0  0  0  0  0  0
  184.5960  178.9990  144.3840 C   0  0  0  0  0  0  0  0  0  0  0  0
  185.5510  179.2090  145.5240 C   0  0  0  0  0  2  0  0  0  0  0  0
  183.3610  178.9810  144.6200 O   0  0  0  0  0  0  0  0  0  0  0  0
  185.6950  176.7060  145.8710 C   0  0  0  0  0  1  0  0  0  0  0  0
  187.1280  177.6270  143.3390 C   0  0  1  0  0  3  0  0  0  0  0  0
  187.0680  178.2220  147.0440 O   0  0  0  0  0  1  0  0  0  0  0  0
  186.4170  178.8210  142.7160 C   0  0  0  0  0  2  0  0  0  0  0  0
  190.8090  171.4530  141.3560 C   0  0  0  0  0  2  0  0  0  0  0  0
  189.7730  171.1520  142.2380 O   0  0  0  0  0  1  0  0  0  0  0  0
  188.2780  174.5780  141.0080 C   0  0  0  0  0  2  0  0  0  0  0  0
  187.9660  172.3900  139.2170 O   0  0  0  0  0  0  0  0  0  0  0  0
  188.4510  173.4580  138.7600 C   0  0  0  0  0  3  0  0  0  0  0  0
  188.6360  174.5970  139.5990 N   0  0  0  0  0  2  0  0  0  0  0  0
  1 11  1  0  0  0  0
  1 26  2  0  0  0  0
  3 41  1  1  0  0  0
  3 21  1  0  0  0  0
  3 24  1  0  0  0  0
  4 10  1  0  0  0  0
  6  2  1  6  0  0  0
  6 16  1  0  0  0  0
  7 25  1  6  0  0  0
  7  6  1  0  0  0  0
  7 15  1  0  0  0  0
  9  1  1  0  0  0  0
 10 13  1  0  0  0  0
 11 13  1  0  0  0  0
 12 15  1  0  0  0  0
 12  8  1  0  0  0  0
 13 18  1  1  0  0  0
 14 23  1  6  0  0  0
 14  4  1  0  0  0  0
 15  5  1  1  0  0  0
 16  8  1  0  0  0  0
 16 22  2  0  0  0  0
 17 39  1  1  0  0  0
 17 15  1  0  0  0  0
 17 21  1  0  0  0  0
 20 25  1  0  0  0  0
 20  2  1  0  0  0  0
 22  9  1  0  0  0  0
 24 14  1  0  0  0  0
 24 19  1  1  0  0  0
 28 27  1  1  0  0  0
 28 24  1  0  0  0  0
 29 30  1  0  0  0  0
 30 35  1  1  0  0  0
 30 37  1  0  0  0  0
 31 32  1  0  0  0  0
 32 34  2  0  0  0  0
 32 33  1  0  0  0  0
 33 30  1  0  0  0  0
 36 28  1  6  0  0  0
 36 29  1  0  0  0  0
 38 31  1  0  0  0  0
 38 36  1  0  0  0  0
 39 40  1  0  0  0  0
 43 42  2  0  0  0  0
 43 44  1  0  0  0  0
 44 41  1  0  0  0  0
M  END
>  <MODEL>
1

>  <REMARK>
 VINA RESULT:      -8.7      0.000      0.000
  Name = 
  5 active torsions:
  status: ('A' for Active; 'I' for Inactive)
    1  A    between atoms: C_3  and  C_25
    2  A    between atoms: C_25  and  N_26
    3  A    between atoms: C_28  and  C_34
    4  A    between atoms: C_35  and  C_44
    5  A    between atoms: C_39  and  C_44
                            x       y       z     vdW  Elec       q    Type
                         _______ _______ _______ _____ _____    ______ ____

>  <TORSDO>
F 5

$$$$
=
 OpenBabel11062422403D

 44 47  0  0  1  0  0  0  0  0999 V2000
  190.5050  170.7650  140.8040 C   0  0  0  0  0  0  0  0  0  0  0  0
  194.2750  169.9190  144.6160 C   0  0  0  0  0  2  0  0  0  0  0  0
  191.4360  175.9220  145.1460 C   0  0  2  0  0  3  0  0  0  0  0  0
  190.3600  175.0620  142.0000 S   0  0  0  0  0  0  0  0  0  0  0  0
  193.2730  173.5930  142.4590 O   0  0  0  0  0  1  0  0  0  0  0  0
  193.9770  170.9010  143.5220 C   0  0  2  0  0  3  0  0  0  0  0  0
  194.3160  172.2620  144.1550 C   0  0  1  0  0  3  0  0  0  0  0  0
  191.5760  171.6880  143.5330 O   0  0  0  0  0  0  0  0  0  0  0  0
  190.8420  169.6650  141.7590 C   0  0  0  0  0  2  0  0  0  0  0  0
  188.9420  174.1880  141.2700 C   0  0  0  0  0  2  0  0  0  0  0  0
  189.7670  171.9000  141.2660 N   0  0  0  0  0  2  0  0  0  0  0  0
  191.9260  172.8390  144.2890 C   0  0  0  0  0  2  0  0  0  0  0  0
  189.4200  173.0290  140.4120 C   0  0  1  0  0  3  0  0  0  0  0  0
  189.4770  175.3940  143.5670 C   0  0  1  0  0  3  0  0  0  0  0  0
  193.2880  173.3680  143.8430 C   0  0  2  0  0  0  0  0  0  0  0  0
  192.5360  170.7680  143.0960 C   0  0  0  0  0  0  0  0  0  0  0  0
  193.5910  174.6990  144.5670 C   0  0  2  0  0  3  0  0  0  0  0  0
  188.3050  172.6270  139.4650 C   0  0  0  0  0  1  0  0  0  0  0  0
  190.4430  177.7170  143.6750 C   0  0  0  0  0  1  0  0  0  0  0  0
  194.9070  170.7620  145.6960 C   0  0  0  0  0  2  0  0  0  0  0  0
  192.5960  175.7830  144.1520 C   0  0  0  0  0  2  0  0  0  0  0  0
  192.2000  169.8240  142.2710 N   0  0  0  0  0  0  0  0  0  0  0  0
  189.2520  174.1940  144.2490 O   0  0  0  0  0  1  0  0  0  0  0  0
  190.1240  176.4630  144.4920 C   0  0  2  0  0  0  0  0  0  0  0  0
  194.4620  172.0820  145.5430 O   0  0  0  0  0  0  0  0  0  0  0  0
  190.9040  170.7030  139.6110 O   0  0  0  0  0  0  0  0  0  0  0  0
  189.0300  175.8640  146.6080 O   0  0  0  0  0  1  0  0  0  0  0  0
  189.1100  176.8490  145.6190 C   0  0  2  0  0  3  0  0  0  0  0  0
  187.0340  178.1040  146.3760 C   0  0  0  0  0  2  0  0  0  0  0  0
  185.5060  178.1900  146.2910 C   0  0  1  0  0  0  0  0  0  0  0  0
  186.4070  177.8410  143.2570 O   0  0  0  0  0  0  0  0  0  0  0  0
  185.1730  178.2520  143.7640 C   0  0  0  0  0  0  0  0  0  0  0  0
  185.0570  178.9950  145.0640 C   0  0  0  0  0  2  0  0  0  0  0  0
  184.1260  177.9900  143.1180 O   0  0  0  0  0  0  0  0  0  0  0  0
  184.8870  176.7980  146.3100 C   0  0  0  0  0  1  0  0  0  0  0  0
  187.6950  177.3270  145.2380 C   0  0  1  0  0  3  0  0  0  0  0  0
  185.0620  178.8680  147.4240 O   0  0  0  0  0  1  0  0  0  0  0  0
  187.6380  178.0910  143.9220 C   0  0  0  0  0  2  0  0  0  0  0  0
  194.9910  175.2140  144.2540 C   0  0  0  0  0  2  0  0  0  0  0  0
  195.0540  176.5920  144.4590 O   0  0  0  0  0  1  0  0  0  0  0  0
  191.9010  176.7860  146.3220 C   0  0  0  0  0  2  0  0  0  0  0  0
  191.3550  177.7200  148.9520 O   0  0  0  0  0  0  0  0  0  0  0  0
  191.7050  176.5180  148.8170 C   0  0  0  0  0  3  0  0  0  0  0  0
  191.9950  175.9800  147.5290 N   0  0  0  0  0  2  0  0  0  0  0  0
  1 11  1  0  0  0  0
  1  9  1  0  0  0  0
  2 20  1  0  0  0  0
  3 41  1  1  0  0  0
  4 14  1  0  0  0  0
  6  7  1  0  0  0  0
  6  2  1  1  0  0  0
  7 25  1  1  0  0  0
  8 12  1  0  0  0  0
  9 22  1  0  0  0  0
 10  4  1  0  0  0  0
 13 18  1  6  0  0  0
 13 11  1  0  0  0  0
 13 10  1  0  0  0  0
 14 23  1  1  0  0  0
 14 24  1  0  0  0  0
 15  5  1  6  0  0  0
 15  7  1  0  0  0  0
 15 12  1  0  0  0  0
 15 17  1  0  0  0  0
 16  6  1  0  0  0  0
 16  8  1  0  0  0  0
 17 39  1  6  0  0  0
 21 17  1  0  0  0  0
 21  3  1  0  0  0  0
 22 16  2  0  0  0  0
 24 19  1  6  0  0  0
 24  3  1  0  0  0  0
 24 28  1  0  0  0  0
 25 20  1  0  0  0  0
 26  1  2  0  0  0  0
 28 27  1  1  0  0  0
 30 35  1  6  0  0  0
 30 29  1  0  0  0  0
 30 37  1  0  0  0  0
 31 32  1  0  0  0  0
 31 38  1  0  0  0  0
 32 33  1  0  0  0  0
 33 30  1  0  0  0  0
 34 32  2  0  0  0  0
 36 28  1  1  0  0  0
 36 29  1  0  0  0  0
 38 36  1  0  0  0  0
 39 40  1  0  0  0  0
 41 44  1  0  0  0  0
 43 42  2  0  0  0  0
 44 43  1  0  0  0  0
M  END
>  <MODEL>
2

>  <REMARK>
 VINA RESULT:      -8.4      2.613      5.592
  Name = 
  5 active torsions:
  status: ('A' for Active; 'I' for Inactive)
    1  A    between atoms: C_3  and  C_25
    2  A    between atoms: C_25  and  N_26
    3  A    between atoms: C_28  and  C_34
    4  A    between atoms: C_35  and  C_44
    5  A    between atoms: C_39  and  C_44
                            x       y       z     vdW  Elec       q    Type
                         _______ _______ _______ _____ _____    ______ ____

>  <TORSDO>
F 5

$$$$
=
 OpenBabel11062422403D

 44 47  0  0  1  0  0  0  0  0999 V2000
  192.6540  175.7810  146.9020 C   0  0  0  0  0  0  0  0  0  0  0  0
  187.3420  176.8890  146.7980 C   0  0  0  0  0  2  0  0  0  0  0  0
  189.3650  173.6600  141.3340 C   0  0  2  0  0  3  0  0  0  0  0  0
  192.4170  174.5840  142.6100 S   0  0  0  0  0  0  0  0  0  0  0  0
  190.2500  176.8890  143.5270 O   0  0  0  0  0  1  0  0  0  0  0  0
  188.5650  177.1490  145.9700 C   0  0  2  0  0  3  0  0  0  0  0  0
  188.0740  176.9500  144.5250 C   0  0  1  0  0  3  0  0  0  0  0  0
  189.9620  175.0760  145.5980 O   0  0  0  0  0  0  0  0  0  0  0  0
  191.5070  175.6410  147.8500 C   0  0  0  0  0  2  0  0  0  0  0  0
  193.6420  173.8960  143.7640 C   0  0  0  0  0  2  0  0  0  0  0  0
  192.8430  174.8040  145.8740 N   0  0  0  0  0  2  0  0  0  0  0  0
  189.3280  174.8380  144.3490 C   0  0  0  0  0  2  0  0  0  0  0  0
  193.9170  174.8770  144.8900 C   0  0  1  0  0  3  0  0  0  0  0  0
  191.6390  172.9560  142.3070 C   0  0  1  0  0  3  0  0  0  0  0  0
  189.0570  176.1610  143.6360 C   0  0  2  0  0  0  0  0  0  0  0  0
  189.6670  176.2020  146.3760 C   0  0  0  0  0  0  0  0  0  0  0  0
  188.5040  175.8840  142.2200 C   0  0  2  0  0  3  0  0  0  0  0  0
  195.2340  174.5130  145.5480 C   0  0  0  0  0  1  0  0  0  0  0  0
  191.4020  173.4720  139.8530 C   0  0  0  0  0  1  0  0  0  0  0  0
  186.2400  176.7370  145.7780 C   0  0  0  0  0  2  0  0  0  0  0  0
  189.5510  175.1820  141.3550 C   0  0  0  0  0  2  0  0  0  0  0  0
  190.3820  176.4700  147.4260 N   0  0  0  0  0  0  0  0  0  0  0  0
  191.0020  172.5110  143.4700 O   0  0  0  0  0  1  0  0  0  0  0  0
  190.6950  172.8800  141.0750 C   0  0  2  0  0  0  0  0  0  0  0  0
  186.8140  176.3230  144.5670 O   0  0  0  0  0  0  0  0  0  0  0  0
  193.4230  176.7750  146.9910 O   0  0  0  0  0  0  0  0  0  0  0  0
  190.5800  170.5660  141.8900 O   0  0  0  0  0  1  0  0  0  0  0  0
  190.3590  171.3810  140.7770 C   0  0  2  0  0  3  0  0  0  0  0  0
  192.1950  169.9060  139.8210 C   0  0  0  0  0  2  0  0  0  0  0  0
  193.0880  169.6220  138.6080 C   0  0  1  0  0  0  0  0  0  0  0  0
  190.1850  169.9530  137.3410 O   0  0  0  0  0  0  0  0  0  0  0  0
  191.3360  169.4110  136.7670 C   0  0  0  0  0  0  0  0  0  0  0  0
  192.3810  168.7150  137.5910 C   0  0  0  0  0  2  0  0  0  0  0  0
  191.5070  169.5100  135.5250 O   0  0  0  0  0  0  0  0  0  0  0  0
  193.5580  170.9240  137.9710 C   0  0  0  0  0  1  0  0  0  0  0  0
  190.9330  170.7110  139.5120 C   0  0  1  0  0  3  0  0  0  0  0  0
  194.2140  168.9430  139.0670 O   0  0  0  0  0  1  0  0  0  0  0  0
  189.9130  169.8900  138.7350 C   0  0  0  0  0  2  0  0  0  0  0  0
  188.0980  177.1670  141.5030 C   0  0  0  0  0  2  0  0  0  0  0  0
  186.8010  177.0500  141.0040 O   0  0  0  0  0  1  0  0  0  0  0  0
  188.2770  173.3140  140.3140 C   0  0  0  0  0  2  0  0  0  0  0  0
  188.6180  172.9190  137.5180 O   0  0  0  0  0  0  0  0  0  0  0  0
  188.3680  174.0860  137.9200 C   0  0  0  0  0  3  0  0  0  0  0  0
  188.1840  174.3590  139.3070 N   0  0  0  0  0  2  0  0  0  0  0  0
  1 26  2  0  0  0  0
  1  9  1  0  0  0  0
  3 41  1  6  0  0  0
  3 21  1  0  0  0  0
  4 10  1  0  0  0  0
  6 16  1  0  0  0  0
  6  2  1  1  0  0  0
  7 25  1  1  0  0  0
  7  6  1  0  0  0  0
  8 16  1  0  0  0  0
 10 13  1  0  0  0  0
 11  1  1  0  0  0  0
 12  8  1  0  0  0  0
 13 18  1  1  0  0  0
 13 11  1  0  0  0  0
 14  4  1  0  0  0  0
 14 23  1  1  0  0  0
 15  5  1  6  0  0  0
 15 12  1  0  0  0  0
 15  7  1  0  0  0  0
 16 22  2  0  0  0  0
 17 39  1  6  0  0  0
 17 15  1  0  0  0  0
 20  2  1  0  0  0  0
 21 17  1  0  0  0  0
 22  9  1  0  0  0  0
 24 19  1  6  0  0  0
 24  3  1  0  0  0  0
 24 14  1  0  0  0  0
 25 20  1  0  0  0  0
 28 24  1  0  0  0  0
 28 27  1  1  0  0  0
 30 35  1  6  0  0  0
 30 37  1  0  0  0  0
 30 29  1  0  0  0  0
 31 38  1  0  0  0  0
 32 31  1  0  0  0  0
 32 33  1  0  0  0  0
 33 30  1  0  0  0  0
 34 32  2  0  0  0  0
 36 29  1  0  0  0  0
 36 28  1  1  0  0  0
 38 36  1  0  0  0  0
 40 39  1  0  0  0  0
 42 43  2  0  0  0  0
 43 44  1  0  0  0  0
 44 41  1  0  0  0  0
M  END
>  <MODEL>
3

>  <REMARK>
 VINA RESULT:      -8.2      2.566      7.904
  Name = 
  5 active torsions:
  status: ('A' for Active; 'I' for Inactive)
    1  A    between atoms: C_3  and  C_25
    2  A    between atoms: C_25  and  N_26
    3  A    between atoms: C_28  and  C_34
    4  A    between atoms: C_35  and  C_44
    5  A    between atoms: C_39  and  C_44
                            x       y       z     vdW  Elec       q    Type
                         _______ _______ _______ _____ _____    ______ ____

>  <TORSDO>
F 5

$$$$
=
 OpenBabel11062422403D

 44 47  0  0  1  0  0  0  0  0999 V2000
  196.8270  174.5120  143.1910 C   0  0  0  0  0  0  0  0  0  0  0  0
  195.9980  174.0450  137.8470 C   0  0  0  0  0  2  0  0  0  0  0  0
  190.3000  174.5240  141.2650 C   0  0  2  0  0  3  0  0  0  0  0  0
  192.4610  173.8730  143.8540 S   0  0  0  0  0  0  0  0  0  0  0  0
  193.6870  172.3930  141.1780 O   0  0  0  0  0  1  0  0  0  0  0  0
  195.6170  173.3380  139.1150 C   0  0  2  0  0  3  0  0  0  0  0  0
  194.1350  172.9830  138.9000 C   0  0  1  0  0  3  0  0  0  0  0  0
  194.8020  174.9140  140.9140 O   0  0  0  0  0  0  0  0  0  0  0  0
  197.3780  175.1500  141.9560 C   0  0  0  0  0  2  0  0  0  0  0  0
  193.5050  174.8340  144.9910 C   0  0  0  0  0  2  0  0  0  0  0  0
  195.5730  174.9580  143.7170 N   0  0  0  0  0  2  0  0  0  0  0  0
  193.4500  174.6890  140.5390 C   0  0  0  0  0  2  0  0  0  0  0  0
  194.9500  174.3740  144.8980 C   0  0  1  0  0  3  0  0  0  0  0  0
  191.4040  175.3100  143.4500 C   0  0  1  0  0  3  0  0  0  0  0  0
  193.2500  173.2280  140.1400 C   0  0  2  0  0  0  0  0  0  0  0  0
  195.8640  174.2420  140.2970 C   0  0  0  0  0  0  0  0  0  0  0  0
  191.7510  172.9630  139.8760 C   0  0  2  0  0  3  0  0  0  0  0  0
  195.6900  174.8280  146.1420 C   0  0  0  0  0  1  0  0  0  0  0  0
  189.3390  173.8680  143.5060 C   0  0  0  0  0  1  0  0  0  0  0  0
  194.7830  173.8870  136.9670 C   0  0  0  0  0  2  0  0  0  0  0  0
  190.9350  173.1320  141.1570 C   0  0  0  0  0  2  0  0  0  0  0  0
  197.0650  174.3490  140.7770 N   0  0  0  0  0  0  0  0  0  0  0  0
  192.1420  176.2570  142.7350 O   0  0  0  0  0  1  0  0  0  0  0  0
  190.0600  174.9800  142.7410 C   0  0  2  0  0  0  0  0  0  0  0  0
  193.6620  173.7060  137.7890 O   0  0  0  0  0  0  0  0  0  0  0  0
  197.4500  173.5630  143.7370 O   0  0  0  0  0  0  0  0  0  0  0  0
  189.8700  177.4060  142.4100 O   0  0  0  0  0  1  0  0  0  0  0  0
  189.1520  176.2540  142.7420 C   0  0  2  0  0  3  0  0  0  0  0  0
  188.9790  177.2780  145.0610 C   0  0  0  0  0  2  0  0  0  0  0  0
  188.3330  177.1700  146.4470 C   0  0  1  0  0  0  0  0  0  0  0  0
  185.8840  176.7870  144.4470 O   0  0  0  0  0  0  0  0  0  0  0  0
  185.8650  177.0660  145.8150 C   0  0  0  0  0  0  0  0  0  0  0  0
  186.9580  177.8520  146.4800 C   0  0  0  0  0  2  0  0  0  0  0  0
  184.9070  176.6450  146.5140 O   0  0  0  0  0  0  0  0  0  0  0  0
  188.2510  175.7140  146.8900 C   0  0  0  0  0  1  0  0  0  0  0  0
  188.2370  176.5340  143.9510 C   0  0  1  0  0  3  0  0  0  0  0  0
  189.1580  177.8420  147.3470 O   0  0  0  0  0  1  0  0  0  0  0  0
  186.9270  177.2200  143.5850 C   0  0  0  0  0  2  0  0  0  0  0  0
  191.5040  171.5510  139.3540 C   0  0  0  0  0  2  0  0  0  0  0  0
  190.9480  170.7590  140.3570 O   0  0  0  0  0  1  0  0  0  0  0  0
  189.0150  174.5400  140.4330 C   0  0  0  0  0  2  0  0  0  0  0  0
  188.2440  173.3640  137.9610 O   0  0  0  0  0  0  0  0  0  0  0  0
  188.1340  172.6650  139.0020 C   0  0  0  0  0  3  0  0  0  0  0  0
  188.5010  173.1880  140.2770 N   0  0  0  0  0  2  0  0  0  0  0  0
  1 11  1  0  0  0  0
  1 26  2  0  0  0  0
  3 41  1  6  0  0  0
  3 24  1  0  0  0  0
  4 10  1  0  0  0  0
  6  2  1  6  0  0  0
  6 16  1  0  0  0  0
  7 25  1  6  0  0  0
  7  6  1  0  0  0  0
  7 15  1  0  0  0  0
  9  1  1  0  0  0  0
 11 13  1  0  0  0  0
 12  8  1  0  0  0  0
 13 10  1  0  0  0  0
 13 18  1  1  0  0  0
 14 23  1  6  0  0  0
 14  4  1  0  0  0  0
 15 12  1  0  0  0  0
 15  5  1  1  0  0  0
 16 22  2  0  0  0  0
 16  8  1  0  0  0  0
 17 39  1  1  0  0  0
 17 15  1  0  0  0  0
 17 21  1  0  0  0  0
 20 25  1  0  0  0  0
 20  2  1  0  0  0  0
 21  3  1  0  0  0  0
 22  9  1  0  0  0  0
 24 28  1  0  0  0  0
 24 14  1  0  0  0  0
 24 19  1  1  0  0  0
 28 27  1  1  0  0  0
 29 30  1  0  0  0  0
 30 33  1  0  0  0  0
 30 35  1  1  0  0  0
 30 37  1  0  0  0  0
 31 32  1  0  0  0  0
 32 33  1  0  0  0  0
 32 34  2  0  0  0  0
 36 28  1  6  0  0  0
 36 29  1  0  0  0  0
 38 36  1  0  0  0  0
 38 31  1  0  0  0  0
 39 40  1  0  0  0  0
 42 43  2  0  0  0  0
 43 44  1  0  0  0  0
 44 41  1  0  0  0  0
M  END
>  <MODEL>
4

>  <REMARK>
 VINA RESULT:      -8.1      1.651      1.876
  Name = 
  5 active torsions:
  status: ('A' for Active; 'I' for Inactive)
    1  A    between atoms: C_3  and  C_25
    2  A    between atoms: C_25  and  N_26
    3  A    between atoms: C_28  and  C_34
    4  A    between atoms: C_35  and  C_44
    5  A    between atoms: C_39  and  C_44
                            x       y       z     vdW  Elec       q    Type
                         _______ _______ _______ _____ _____    ______ ____

>  <TORSDO>
F 5

$$$$
=
 OpenBabel11062422403D

 44 47  0  0  1  0  0  0  0  0999 V2000
  195.8370  175.9550  144.1640 C   0  0  0  0  0  0  0  0  0  0  0  0
  195.2520  173.6960  139.2640 C   0  0  0  0  0  2  0  0  0  0  0  0
  189.4060  174.8190  142.2520 C   0  0  2  0  0  3  0  0  0  0  0  0
  191.5040  175.2280  144.9400 S   0  0  0  0  0  0  0  0  0  0  0  0
  192.9340  173.0530  142.9210 O   0  0  0  0  0  1  0  0  0  0  0  0
  194.8720  173.4160  140.6880 C   0  0  2  0  0  3  0  0  0  0  0  0
  193.4280  172.8950  140.5830 C   0  0  1  0  0  3  0  0  0  0  0  0
  193.8800  175.4260  141.8550 O   0  0  0  0  0  0  0  0  0  0  0  0
  196.3900  176.1950  142.7960 C   0  0  0  0  0  2  0  0  0  0  0  0
  192.4330  176.5880  145.7100 C   0  0  0  0  0  2  0  0  0  0  0  0
  194.5360  176.4490  144.4960 N   0  0  0  0  0  2  0  0  0  0  0  0
  192.5620  174.9850  141.5560 C   0  0  0  0  0  2  0  0  0  0  0  0
  193.9090  176.2380  145.7950 C   0  0  1  0  0  3  0  0  0  0  0  0
  190.3650  176.3640  144.0700 C   0  0  1  0  0  3  0  0  0  0  0  0
  192.4810  173.4630  141.6590 C   0  0  2  0  0  0  0  0  0  0  0  0
  195.0100  174.6750  141.5090 C   0  0  0  0  0  0  0  0  0  0  0  0
  191.0150  173.0080  141.4770 C   0  0  2  0  0  3  0  0  0  0  0  0
  194.5660  177.1320  146.8290 C   0  0  0  0  0  1  0  0  0  0  0  0
  188.4060  174.8630  144.5700 C   0  0  0  0  0  1  0  0  0  0  0  0
  194.0870  173.1620  138.4680 C   0  0  0  0  0  2  0  0  0  0  0  0
  190.1400  173.5240  142.6190 C   0  0  0  0  0  2  0  0  0  0  0  0
  196.1800  175.0280  141.9430 N   0  0  0  0  0  0  0  0  0  0  0  0
  191.0630  177.0790  143.0920 O   0  0  0  0  0  1  0  0  0  0  0  0
  189.0770  175.7150  143.4910 C   0  0  2  0  0  0  0  0  0  0  0  0
  192.9500  173.1730  139.2890 O   0  0  0  0  0  0  0  0  0  0  0  0
  196.5040  175.2910  145.0020 O   0  0  0  0  0  0  0  0  0  0  0  0
  188.7060  177.8130  142.2700 O   0  0  0  0  0  1  0  0  0  0  0  0
  188.0830  176.8430  143.0580 C   0  0  2  0  0  3  0  0  0  0  0  0
  185.7490  177.6620  143.6410 C   0  0  0  0  0  2  0  0  0  0  0  0
  184.9280  178.7220  144.3830 C   0  0  1  0  0  0  0  0  0  0  0  0
  187.1260  177.8460  146.5150 O   0  0  0  0  0  0  0  0  0  0  0  0
  185.9440  178.5620  146.7170 C   0  0  0  0  0  0  0  0  0  0  0  0
  184.7310  178.3470  145.8580 C   0  0  0  0  0  2  0  0  0  0  0  0
  185.8930  179.4150  147.6400 O   0  0  0  0  0  0  0  0  0  0  0  0
  185.5650  180.0980  144.2320 C   0  0  0  0  0  1  0  0  0  0  0  0
  187.1930  177.5190  144.1200 C   0  0  1  0  0  3  0  0  0  0  0  0
  183.6690  178.7700  143.7890 O   0  0  0  0  0  1  0  0  0  0  0  0
  187.2730  176.8680  145.4950 C   0  0  0  0  0  2  0  0  0  0  0  0
  190.8880  171.4890  141.4480 C   0  0  0  0  0  2  0  0  0  0  0  0
  190.4580  171.0670  140.1900 O   0  0  0  0  0  1  0  0  0  0  0  0
  188.1560  174.4610  141.4440 C   0  0  0  0  0  2  0  0  0  0  0  0
  187.8850  172.6650  139.2540 O   0  0  0  0  0  0  0  0  0  0  0  0
  188.1910  173.8600  139.0000 C   0  0  0  0  0  3  0  0  0  0  0  0
  188.3440  174.8160  140.0460 N   0  0  0  0  0  2  0  0  0  0  0  0
  1 11  1  0  0  0  0
  1 26  2  0  0  0  0
  3 41  1  1  0  0  0
  3 21  1  0  0  0  0
  3 24  1  0  0  0  0
  4 10  1  0  0  0  0
  6  2  1  6  0  0  0
  6 16  1  0  0  0  0
  7 25  1  6  0  0  0
  7  6  1  0  0  0  0
  7 15  1  0  0  0  0
  9  1  1  0  0  0  0
 10 13  1  0  0  0  0
 11 13  1  0  0  0  0
 12 15  1  0  0  0  0
 12  8  1  0  0  0  0
 13 18  1  1  0  0  0
 14 23  1  6  0  0  0
 14  4  1  0  0  0  0
 15  5  1  1  0  0  0
 16  8  1  0  0  0  0
 16 22  2  0  0  0  0
 17 39  1  1  0  0  0
 17 15  1  0  0  0  0
 17 21  1  0  0  0  0
 20  2  1  0  0  0  0
 20 25  1  0  0  0  0
 22  9  1  0  0  0  0
 24 14  1  0  0  0  0
 24 19  1  1  0  0  0
 28 27  1  1  0  0  0
 28 24  1  0  0  0  0
 29 36  1  0  0  0  0
 29 30  1  0  0  0  0
 30 35  1  6  0  0  0
 30 33  1  0  0  0  0
 31 32  1  0  0  0  0
 32 34  2  0  0  0  0
 33 32  1  0  0  0  0
 36 28  1  6  0  0  0
 36 38  1  0  0  0  0
 37 30  1  0  0  0  0
 38 31  1  0  0  0  0
 40 39  1  0  0  0  0
 43 42  2  0  0  0  0
 43 44  1  0  0  0  0
 44 41  1  0  0  0  0
M  END
>  <MODEL>
5

>  <REMARK>
 VINA RESULT:      -7.9      0.730      1.584
  Name = 
  5 active torsions:
  status: ('A' for Active; 'I' for Inactive)
    1  A    between atoms: C_3  and  C_25
    2  A    between atoms: C_25  and  N_26
    3  A    between atoms: C_28  and  C_34
    4  A    between atoms: C_35  and  C_44
    5  A    between atoms: C_39  and  C_44
                            x       y       z     vdW  Elec       q    Type
                         _______ _______ _______ _____ _____    ______ ____

>  <TORSDO>
F 5

$$$$
=
 OpenBabel11062422403D

 44 47  0  0  1  0  0  0  0  0999 V2000
  195.9780  173.6270  142.9340 C   0  0  0  0  0  0  0  0  0  0  0  0
  193.6160  173.3050  138.0580 C   0  0  0  0  0  2  0  0  0  0  0  0
  189.4130  175.4130  142.7770 C   0  0  2  0  0  3  0  0  0  0  0  0
  191.9550  174.2380  144.7650 S   0  0  0  0  0  0  0  0  0  0  0  0
  191.9650  172.4250  142.0150 O   0  0  0  0  0  1  0  0  0  0  0  0
  193.4280  172.7560  139.4420 C   0  0  2  0  0  3  0  0  0  0  0  0
  191.9060  172.8230  139.6540 C   0  0  1  0  0  3  0  0  0  0  0  0
  193.5830  174.5310  141.2340 O   0  0  0  0  0  0  0  0  0  0  0  0
  196.3150  174.0630  141.5440 C   0  0  0  0  0  2  0  0  0  0  0  0
  193.4870  174.8930  145.4960 C   0  0  0  0  0  2  0  0  0  0  0  0
  195.0810  174.4130  143.7230 N   0  0  0  0  0  2  0  0  0  0  0  0
  192.1700  174.6830  141.2460 C   0  0  0  0  0  2  0  0  0  0  0  0
  194.6760  174.0480  145.0760 C   0  0  1  0  0  3  0  0  0  0  0  0
  191.2430  175.9040  144.5160 C   0  0  1  0  0  3  0  0  0  0  0  0
  191.4930  173.3280  141.0520 C   0  0  2  0  0  0  0  0  0  0  0  0
  194.2190  173.5790  140.4280 C   0  0  0  0  0  0  0  0  0  0  0  0
  189.9640  173.4840  141.2130 C   0  0  2  0  0  3  0  0  0  0  0  0
  195.8230  174.3030  146.0350 C   0  0  0  0  0  1  0  0  0  0  0  0
  188.9710  175.0940  145.2420 C   0  0  0  0  0  1  0  0  0  0  0  0
  192.2080  173.4740  137.5420 C   0  0  0  0  0  2  0  0  0  0  0  0
  189.6060  173.8980  142.6400 C   0  0  0  0  0  2  0  0  0  0  0  0
  195.4900  173.3570  140.5670 N   0  0  0  0  0  0  0  0  0  0  0  0
  191.9760  176.5950  143.5470 O   0  0  0  0  0  1  0  0  0  0  0  0
  189.7180  175.9460  144.2140 C   0  0  2  0  0  0  0  0  0  0  0  0
  191.3510  173.6270  138.6410 O   0  0  0  0  0  0  0  0  0  0  0  0
  196.4570  172.5530  143.3860 O   0  0  0  0  0  0  0  0  0  0  0  0
  190.2040  178.2770  144.8190 O   0  0  0  0  0  1  0  0  0  0  0  0
  189.2120  177.4220  144.3310 C   0  0  2  0  0  3  0  0  0  0  0  0
  188.0850  178.3100  146.4290 C   0  0  0  0  0  2  0  0  0  0  0  0
  186.8850  178.1780  147.3730 C   0  0  1  0  0  0  0  0  0  0  0  0
  185.5640  178.1600  144.4760 O   0  0  0  0  0  0  0  0  0  0  0  0
  184.9540  178.3530  145.7170 C   0  0  0  0  0  0  0  0  0  0  0  0
  185.6820  178.9850  146.8680 C   0  0  0  0  0  2  0  0  0  0  0  0
  183.7630  177.9830  145.8790 O   0  0  0  0  0  0  0  0  0  0  0  0
  186.5290  176.7120  147.5890 C   0  0  0  0  0  1  0  0  0  0  0  0
  187.8730  177.7130  145.0380 C   0  0  1  0  0  3  0  0  0  0  0  0
  187.2610  178.7090  148.6050 O   0  0  0  0  0  1  0  0  0  0  0  0
  186.9050  178.5440  144.2050 C   0  0  0  0  0  2  0  0  0  0  0  0
  189.2220  172.1870  140.9090 C   0  0  0  0  0  2  0  0  0  0  0  0
  188.3160  172.3840  139.8670 O   0  0  0  0  0  1  0  0  0  0  0  0
  188.0000  175.7700  142.3100 C   0  0  0  0  0  2  0  0  0  0  0  0
  185.8800  177.3180  141.2140 O   0  0  0  0  0  0  0  0  0  0  0  0
  186.9500  177.2380  140.5550 C   0  0  0  0  0  3  0  0  0  0  0  0
  188.0560  176.4800  141.0420 N   0  0  0  0  0  2  0  0  0  0  0  0
  1 26  2  0  0  0  0
  1 11  1  0  0  0  0
  3 41  1  1  0  0  0
  3 24  1  0  0  0  0
  4 10  1  0  0  0  0
  6  2  1  6  0  0  0
  6  7  1  0  0  0  0
  6 16  1  0  0  0  0
  7 25  1  6  0  0  0
  7 15  1  0  0  0  0
  8 12  1  0  0  0  0
  9  1  1  0  0  0  0
 11 13  1  0  0  0  0
 13 10  1  0  0  0  0
 13 18  1  1  0  0  0
 14 23  1  6  0  0  0
 14  4  1  0  0  0  0
 15 17  1  0  0  0  0
 15 12  1  0  0  0  0
 15  5  1  1  0  0  0
 16 22  2  0  0  0  0
 16  8  1  0  0  0  0
 17 39  1  1  0  0  0
 17 21  1  0  0  0  0
 20  2  1  0  0  0  0
 20 25  1  0  0  0  0
 21  3  1  0  0  0  0
 22  9  1  0  0  0  0
 24 28  1  0  0  0  0
 24 14  1  0  0  0  0
 24 19  1  1  0  0  0
 28 27  1  1  0  0  0
 29 30  1  0  0  0  0
 30 35  1  1  0  0  0
 30 37  1  0  0  0  0
 31 32  1  0  0  0  0
 32 34  2  0  0  0  0
 32 33  1  0  0  0  0
 33 30  1  0  0  0  0
 36 28  1  6  0  0  0
 36 29  1  0  0  0  0
 38 31  1  0  0  0  0
 38 36  1  0  0  0  0
 40 39  1  0  0  0  0
 43 44  1  0  0  0  0
 43 42  2  0  0  0  0
 44 41  1  0  0  0  0
M  END
>  <MODEL>
6

>  <REMARK>
 VINA RESULT:      -7.9      1.678      2.160
  Name = 
  5 active torsions:
  status: ('A' for Active; 'I' for Inactive)
    1  A    between atoms: C_3  and  C_25
    2  A    between atoms: C_25  and  N_26
    3  A    between atoms: C_28  and  C_34
    4  A    between atoms: C_35  and  C_44
    5  A    between atoms: C_39  and  C_44
                            x       y       z     vdW  Elec       q    Type
                         _______ _______ _______ _____ _____    ______ ____

>  <TORSDO>
F 5

$$$$
=
 OpenBabel11062422403D

 44 47  0  0  1  0  0  0  0  0999 V2000
  185.0940  178.5740  142.4460 C   0  0  0  0  0  0  0  0  0  0  0  0
  186.0320  179.6680  147.6790 C   0  0  0  0  0  2  0  0  0  0  0  0
  190.8460  175.9480  144.9650 C   0  0  2  0  0  3  0  0  0  0  0  0
  188.4390  175.6210  142.5360 S   0  0  0  0  0  0  0  0  0  0  0  0
  186.8680  176.0230  145.4040 O   0  0  0  0  0  1  0  0  0  0  0  0
  185.8840  178.4730  146.7850 C   0  0  2  0  0  3  0  0  0  0  0  0
  186.9870  177.5170  147.2720 C   0  0  1  0  0  3  0  0  0  0  0  0
  187.2300  178.6640  144.6540 O   0  0  0  0  0  0  0  0  0  0  0  0
  185.0590  179.7900  143.3140 C   0  0  0  0  0  2  0  0  0  0  0  0
  187.9390  176.5070  141.0280 C   0  0  0  0  0  2  0  0  0  0  0  0
  186.3480  178.1020  141.9420 N   0  0  0  0  0  2  0  0  0  0  0  0
  188.3030  177.9330  145.2330 C   0  0  0  0  0  2  0  0  0  0  0  0
  186.4780  176.9110  141.1120 C   0  0  1  0  0  3  0  0  0  0  0  0
  190.1140  176.3570  142.5340 C   0  0  1  0  0  3  0  0  0  0  0  0
  187.7600  176.8240  146.1320 C   0  0  2  0  0  0  0  0  0  0  0  0
  186.0320  178.8920  145.3430 C   0  0  0  0  0  0  0  0  0  0  0  0
  188.9280  175.9470  146.6360 C   0  0  2  0  0  3  0  0  0  0  0  0
  185.9690  177.2050  139.7140 C   0  0  0  0  0  1  0  0  0  0  0  0
  191.1340  174.1560  143.2100 C   0  0  0  0  0  1  0  0  0  0  0  0
  187.0660  179.2380  148.6900 C   0  0  0  0  0  2  0  0  0  0  0  0
  189.6000  175.2140  145.4750 C   0  0  0  0  0  2  0  0  0  0  0  0
  185.0190  179.4170  144.7250 N   0  0  0  0  0  0  0  0  0  0  0  0
  190.0310  177.7290  142.7910 O   0  0  0  0  0  1  0  0  0  0  0  0
  191.1550  175.6660  143.4590 C   0  0  2  0  0  0  0  0  0  0  0  0
  187.8590  178.2360  148.1110 O   0  0  0  0  0  0  0  0  0  0  0  0
  184.0280  177.9510  142.1960 O   0  0  0  0  0  0  0  0  0  0  0  0
  192.5300  177.3950  142.3860 O   0  0  0  0  0  1  0  0  0  0  0  0
  192.5830  176.2060  143.1190 C   0  0  2  0  0  3  0  0  0  0  0  0
  194.1260  175.7590  141.1500 C   0  0  0  0  0  2  0  0  0  0  0  0
  194.7660  174.6870  140.2610 C   0  0  1  0  0  0  0  0  0  0  0  0
  195.2330  173.5900  143.2140 O   0  0  0  0  0  0  0  0  0  0  0  0
  195.8390  173.1870  142.0220 C   0  0  0  0  0  0  0  0  0  0  0  0
  196.0580  174.1410  140.8830 C   0  0  0  0  0  2  0  0  0  0  0  0
  196.2100  171.9920  141.8960 O   0  0  0  0  0  0  0  0  0  0  0  0
  193.7700  173.5730  139.9610 C   0  0  0  0  0  1  0  0  0  0  0  0
  193.6290  175.2540  142.5030 C   0  0  1  0  0  3  0  0  0  0  0  0
  195.1030  175.2910  139.0520 O   0  0  0  0  0  1  0  0  0  0  0  0
  194.7810  174.9180  143.4410 C   0  0  0  0  0  2  0  0  0  0  0  0
  188.4620  174.8960  147.6380 C   0  0  0  0  0  2  0  0  0  0  0  0
  188.9410  173.6380  147.2730 O   0  0  0  0  0  1  0  0  0  0  0  0
  192.0250  175.6020  145.8770 C   0  0  0  0  0  2  0  0  0  0  0  0
  194.7360  176.1860  146.5140 O   0  0  0  0  0  0  0  0  0  0  0  0
  193.8570  177.0160  146.8670 C   0  0  0  0  0  3  0  0  0  0  0  0
  192.4780  176.7910  146.5820 N   0  0  0  0  0  2  0  0  0  0  0  0
  1  9  1  0  0  0  0
  2 20  1  0  0  0  0
  3 21  1  0  0  0  0
  3 41  1  1  0  0  0
  6  7  1  0  0  0  0
  6  2  1  1  0  0  0
  7 25  1  6  0  0  0
  8 12  1  0  0  0  0
  8 16  1  0  0  0  0
  9 22  1  0  0  0  0
 10 13  1  0  0  0  0
 10  4  1  0  0  0  0
 11  1  1  0  0  0  0
 12 15  1  0  0  0  0
 13 18  1  6  0  0  0
 13 11  1  0  0  0  0
 14  4  1  0  0  0  0
 14 23  1  1  0  0  0
 14 24  1  0  0  0  0
 15  5  1  6  0  0  0
 15 17  1  0  0  0  0
 15  7  1  0  0  0  0
 16  6  1  0  0  0  0
 17 39  1  1  0  0  0
 21 17  1  0  0  0  0
 22 16  2  0  0  0  0
 24 19  1  6  0  0  0
 24  3  1  0  0  0  0
 25 20  1  0  0  0  0
 26  1  2  0  0  0  0
 28 27  1  6  0  0  0
 28 24  1  0  0  0  0
 29 36  1  0  0  0  0
 30 35  1  6  0  0  0
 30 33  1  0  0  0  0
 30 29  1  0  0  0  0
 31 38  1  0  0  0  0
 32 31  1  0  0  0  0
 33 32  1  0  0  0  0
 34 32  2  0  0  0  0
 36 28  1  1  0  0  0
 36 38  1  0  0  0  0
 37 30  1  0  0  0  0
 40 39  1  0  0  0  0
 41 44  1  0  0  0  0
 42 43  2  0  0  0  0
 44 43  1  0  0  0  0
M  END
>  <MODEL>
7

>  <REMARK>
 VINA RESULT:      -7.3      2.614      9.313
  Name = 
  5 active torsions:
  status: ('A' for Active; 'I' for Inactive)
    1  A    between atoms: C_3  and  C_25
    2  A    between atoms: C_25  and  N_26
    3  A    between atoms: C_28  and  C_34
    4  A    between atoms: C_35  and  C_44
    5  A    between atoms: C_39  and  C_44
                            x       y       z     vdW  Elec       q    Type
                         _______ _______ _______ _____ _____    ______ ____

>  <TORSDO>
F 5

$$$$
=
 OpenBabel11062422403D

 44 47  0  0  1  0  0  0  0  0999 V2000
  194.5610  176.5570  145.6120 C   0  0  0  0  0  0  0  0  0  0  0  0
  189.3850  176.5220  147.2470 C   0  0  0  0  0  2  0  0  0  0  0  0
  190.2410  173.3190  141.4690 C   0  0  2  0  0  3  0  0  0  0  0  0
  193.2500  174.9650  141.6550 S   0  0  0  0  0  0  0  0  0  0  0  0
  191.0250  176.8410  143.2010 O   0  0  0  0  0  1  0  0  0  0  0  0
  190.1910  176.9570  146.0580 C   0  0  2  0  0  3  0  0  0  0  0  0
  189.3240  176.5340  144.8590 C   0  0  1  0  0  3  0  0  0  0  0  0
  191.8260  175.1950  145.2780 O   0  0  0  0  0  0  0  0  0  0  0  0
  193.8370  176.2650  146.8880 C   0  0  0  0  0  2  0  0  0  0  0  0
  194.9000  174.6510  142.3520 C   0  0  0  0  0  2  0  0  0  0  0  0
  194.6290  175.5540  144.5940 N   0  0  0  0  0  2  0  0  0  0  0  0
  190.8990  174.7220  144.3100 C   0  0  0  0  0  2  0  0  0  0  0  0
  195.2890  175.7620  143.3110 C   0  0  1  0  0  3  0  0  0  0  0  0
  192.8030  173.1910  141.6500 C   0  0  1  0  0  3  0  0  0  0  0  0
  190.1250  175.8930  143.7070 C   0  0  2  0  0  0  0  0  0  0  0  0
  191.5480  176.3000  146.0930 C   0  0  0  0  0  0  0  0  0  0  0  0
  189.2280  175.3830  142.5560 C   0  0  2  0  0  3  0  0  0  0  0  0
  196.7930  175.7400  143.5030 C   0  0  0  0  0  1  0  0  0  0  0  0
  191.6890  173.4290  139.4030 C   0  0  0  0  0  1  0  0  0  0  0  0
  188.0810  176.0550  146.6480 C   0  0  0  0  0  2  0  0  0  0  0  0
  190.0760  174.8420  141.4050 C   0  0  0  0  0  2  0  0  0  0  0  0
  192.4790  176.8010  146.8450 N   0  0  0  0  0  0  0  0  0  0  0  0
  192.6860  172.7270  142.9630 O   0  0  0  0  0  1  0  0  0  0  0  0
  191.5590  172.8120  140.7980 C   0  0  2  0  0  0  0  0  0  0  0  0
  188.3190  175.6660  145.3220 O   0  0  0  0  0  0  0  0  0  0  0  0
  195.0730  177.6930  145.4290 O   0  0  0  0  0  0  0  0  0  0  0  0
  192.2630  170.6070  141.6170 O   0  0  0  0  0  1  0  0  0  0  0  0
  191.4940  171.2560  140.6490 C   0  0  2  0  0  3  0  0  0  0  0  0
  193.1430  170.0340  139.1510 C   0  0  0  0  0  2  0  0  0  0  0  0
  193.6340  169.8260  137.7150 C   0  0  1  0  0  0  0  0  0  0  0  0
  190.4660  169.6310  137.4590 O   0  0  0  0  0  0  0  0  0  0  0  0
  191.4460  169.2430  136.5430 C   0  0  0  0  0  0  0  0  0  0  0  0
  192.8000  168.7650  136.9840 C   0  0  0  0  0  2  0  0  0  0  0  0
  191.1910  169.2980  135.3120 O   0  0  0  0  0  0  0  0  0  0  0  0
  193.6550  171.1470  136.9560 C   0  0  0  0  0  1  0  0  0  0  0  0
  191.7350  170.6140  139.2670 C   0  0  1  0  0  3  0  0  0  0  0  0
  194.9440  169.3560  137.7840 O   0  0  0  0  0  1  0  0  0  0  0  0
  190.6690  169.6030  138.8660 C   0  0  0  0  0  2  0  0  0  0  0  0
  188.3380  176.4860  141.9940 C   0  0  0  0  0  2  0  0  0  0  0  0
  186.9990  176.1020  142.0560 O   0  0  0  0  0  1  0  0  0  0  0  0
  188.9930  172.6660  140.8690 C   0  0  0  0  0  2  0  0  0  0  0  0
  188.7000  172.3960  138.0520 O   0  0  0  0  0  0  0  0  0  0  0  0
  188.1910  173.4090  138.6010 C   0  0  0  0  0  3  0  0  0  0  0  0
  188.2980  173.6110  140.0090 N   0  0  0  0  0  2  0  0  0  0  0  0
  1  9  1  0  0  0  0
  3 41  1  6  0  0  0
  4 10  1  0  0  0  0
  6 16  1  0  0  0  0
  6  2  1  1  0  0  0
  7 25  1  1  0  0  0
  7  6  1  0  0  0  0
  8 16  1  0  0  0  0
 10 13  1  0  0  0  0
 11  1  1  0  0  0  0
 12  8  1  0  0  0  0
 13 18  1  1  0  0  0
 13 11  1  0  0  0  0
 14  4  1  0  0  0  0
 14 23  1  1  0  0  0
 15  5  1  6  0  0  0
 15 12  1  0  0  0  0
 15  7  1  0  0  0  0
 16 22  2  0  0  0  0
 17 39  1  6  0  0  0
 17 15  1  0  0  0  0
 20  2  1  0  0  0  0
 21  3  1  0  0  0  0
 21 17  1  0  0  0  0
 22  9  1  0  0  0  0
 24 19  1  6  0  0  0
 24  3  1  0  0  0  0
 24 14  1  0  0  0  0
 25 20  1  0  0  0  0
 26  1  2  0  0  0  0
 28 24  1  0  0  0  0
 28 27  1  1  0  0  0
 29 36  1  0  0  0  0
 30 35  1  6  0  0  0
 30 37  1  0  0  0  0
 30 29  1  0  0  0  0
 31 38  1  0  0  0  0
 32 33  1  0  0  0  0
 32 31  1  0  0  0  0
 33 30  1  0  0  0  0
 34 32  2  0  0  0  0
 36 28  1  1  0  0  0
 38 36  1  0  0  0  0
 39 40  1  0  0  0  0
 42 43  2  0  0  0  0
 43 44  1  0  0  0  0
 44 41  1  0  0  0  0
M  END
>  <MODEL>
8

>  <REMARK>
 VINA RESULT:      -7.3      2.488      7.819
  Name = 
  5 active torsions:
  status: ('A' for Active; 'I' for Inactive)
    1  A    between atoms: C_3  and  C_25
    2  A    between atoms: C_25  and  N_26
    3  A    between atoms: C_28  and  C_34
    4  A    between atoms: C_35  and  C_44
    5  A    between atoms: C_39  and  C_44
                            x       y       z     vdW  Elec       q    Type
                         _______ _______ _______ _____ _____    ______ ____

>  <TORSDO>
F 5

$$$$
=
 OpenBabel11062422403D

 44 47  0  0  1  0  0  0  0  0999 V2000
  196.7260  171.6230  145.7320 C   0  0  0  0  0  0  0  0  0  0  0  0
  197.3850  176.2100  142.9070 C   0  0  0  0  0  2  0  0  0  0  0  0
  191.4750  173.3570  141.7660 C   0  0  2  0  0  3  0  0  0  0  0  0
  193.0730  170.7470  143.3240 S   0  0  0  0  0  0  0  0  0  0  0  0
  195.3830  172.4930  141.7530 O   0  0  0  0  0  1  0  0  0  0  0  0
  197.0910  174.7610  142.6540 C   0  0  2  0  0  3  0  0  0  0  0  0
  196.0090  174.7970  141.5600 C   0  0  1  0  0  3  0  0  0  0  0  0
  195.2880  173.8430  144.1680 O   0  0  0  0  0  0  0  0  0  0  0  0
  197.1910  173.0130  146.0290 C   0  0  0  0  0  2  0  0  0  0  0  0
  193.3040  170.1520  145.0270 C   0  0  0  0  0  2  0  0  0  0  0  0
  195.3240  171.3480  145.6600 N   0  0  0  0  0  2  0  0  0  0  0  0
  194.2960  174.0810  143.1780 C   0  0  0  0  0  2  0  0  0  0  0  0
  194.7830  170.0310  145.3490 C   0  0  1  0  0  3  0  0  0  0  0  0
  191.6040  171.7450  143.7650 C   0  0  1  0  0  3  0  0  0  0  0  0
  194.8590  173.7940  141.7880 C   0  0  2  0  0  0  0  0  0  0  0  0
  196.6450  174.1000  143.9340 C   0  0  0  0  0  0  0  0  0  0  0  0
  193.7330  173.9130  140.7370 C   0  0  2  0  0  3  0  0  0  0  0  0
  194.9510  169.1160  146.5470 C   0  0  0  0  0  1  0  0  0  0  0  0
  190.4400  171.0580  141.6390 C   0  0  0  0  0  1  0  0  0  0  0  0
  196.5930  176.9310  141.8440 C   0  0  0  0  0  2  0  0  0  0  0  0
  192.6680  172.8390  140.9560 C   0  0  0  0  0  2  0  0  0  0  0  0
  197.5350  173.7170  144.7970 N   0  0  0  0  0  0  0  0  0  0  0  0
  191.9810  172.8050  144.5940 O   0  0  0  0  0  1  0  0  0  0  0  0
  190.7400  172.2350  142.5690 C   0  0  2  0  0  0  0  0  0  0  0  0
  195.5200  176.1130  141.4620 O   0  0  0  0  0  0  0  0  0  0  0  0
  197.5700  170.7140  145.5110 O   0  0  0  0  0  0  0  0  0  0  0  0
  188.3570  172.6760  142.1730 O   0  0  0  0  0  1  0  0  0  0  0  0
  189.3840  172.7970  143.1120 C   0  0  2  0  0  3  0  0  0  0  0  0
  188.2210  175.0550  143.1800 C   0  0  0  0  0  2  0  0  0  0  0  0
  188.3980  176.5640  143.3830 C   0  0  1  0  0  0  0  0  0  0  0  0
  190.0200  175.2880  145.8070 O   0  0  0  0  0  0  0  0  0  0  0  0
  189.5930  176.6060  145.6350 C   0  0  0  0  0  0  0  0  0  0  0  0
  188.3450  176.9410  144.8690 C   0  0  0  0  0  2  0  0  0  0  0  0
  190.2730  177.5410  146.1300 O   0  0  0  0  0  0  0  0  0  0  0  0
  189.6840  177.0480  142.7240 C   0  0  0  0  0  1  0  0  0  0  0  0
  189.3460  174.1970  143.7570 C   0  0  1  0  0  3  0  0  0  0  0  0
  187.3320  177.2000  142.7500 O   0  0  0  0  0  1  0  0  0  0  0  0
  189.3160  174.1710  145.2800 C   0  0  0  0  0  2  0  0  0  0  0  0
  194.2610  173.7580  139.3140 C   0  0  0  0  0  2  0  0  0  0  0  0
  193.9950  174.9090  138.5750 O   0  0  0  0  0  1  0  0  0  0  0  0
  190.5330  174.1110  140.8230 C   0  0  0  0  0  2  0  0  0  0  0  0
  188.3110  173.8970  139.0600 O   0  0  0  0  0  0  0  0  0  0  0  0
  189.4190  173.4470  138.6650 C   0  0  0  0  0  3  0  0  0  0  0  0
  190.5770  173.5200  139.4950 N   0  0  0  0  0  2  0  0  0  0  0  0
  1  9  1  0  0  0  0
  3 41  1  6  0  0  0
  3 24  1  0  0  0  0
  4 14  1  0  0  0  0
  4 10  1  0  0  0  0
  6  2  1  1  0  0  0
  6 16  1  0  0  0  0
  7 25  1  1  0  0  0
  7 15  1  0  0  0  0
  7  6  1  0  0  0  0
 10 13  1  0  0  0  0
 11  1  1  0  0  0  0
 12  8  1  0  0  0  0
 13 11  1  0  0  0  0
 13 18  1  1  0  0  0
 14 23  1  6  0  0  0
 15  5  1  6  0  0  0
 15 12  1  0  0  0  0
 16  8  1  0  0  0  0
 16 22  2  0  0  0  0
 17 39  1  6  0  0  0
 17 21  1  0  0  0  0
 17 15  1  0  0  0  0
 20  2  1  0  0  0  0
 21  3  1  0  0  0  0
 22  9  1  0  0  0  0
 24 19  1  6  0  0  0
 24 28  1  0  0  0  0
 24 14  1  0  0  0  0
 25 20  1  0  0  0  0
 26  1  2  0  0  0  0
 28 27  1  6  0  0  0
 29 30  1  0  0  0  0
 29 36  1  0  0  0  0
 30 35  1  6  0  0  0
 30 33  1  0  0  0  0
 32 31  1  0  0  0  0
 32 34  2  0  0  0  0
 33 32  1  0  0  0  0
 36 28  1  6  0  0  0
 36 38  1  0  0  0  0
 37 30  1  0  0  0  0
 38 31  1  0  0  0  0
 40 39  1  0  0  0  0
 43 42  2  0  0  0  0
 43 44  1  0  0  0  0
 44 41  1  0  0  0  0
M  END
>  <MODEL>
9

>  <REMARK>
 VINA RESULT:      -7.2      2.738      4.586
  Name = 
  5 active torsions:
  status: ('A' for Active; 'I' for Inactive)
    1  A    between atoms: C_3  and  C_25
    2  A    between atoms: C_25  and  N_26
    3  A    between atoms: C_28  and  C_34
    4  A    between atoms: C_35  and  C_44
    5  A    between atoms: C_39  and  C_44
                            x       y       z     vdW  Elec       q    Type
                         _______ _______ _______ _____ _____    ______ ____

>  <TORSDO>
F 5

$$$$
