=
 OpenBabel11062419263D

 38 43  0  0  1  0  0  0  0  0999 V2000
  194.5570  175.0560  145.4960 C   0  0  0  0  0  0  0  0  0  0  0  0
  193.7730  175.4370  146.7210 C   0  0  0  0  0  2  0  0  0  0  0  0
  186.5650  176.6820  147.7840 O   0  0  0  0  0  0  0  0  0  0  0  0
  190.2100  175.2530  145.0980 C   0  0  2  0  0  3  0  0  0  0  0  0
  187.0990  177.7620  147.0630 C   0  0  2  0  0  0  0  0  0  0  0  0
  192.2770  175.4940  146.5050 C   0  0  0  0  0  0  0  0  0  0  0  0
  189.3350  177.0690  147.2770 C   0  0  0  0  0  0  0  0  0  0  0  0
  191.6990  175.0900  145.3410 C   0  0  0  0  0  0  0  0  0  0  0  0
  189.2660  174.8140  146.2090 C   0  0  0  0  0  2  0  0  0  0  0  0
  187.2080  176.3760  146.5590 C   0  0  1  0  0  3  0  0  0  0  0  0
  191.4790  175.8970  147.7130 C   0  0  0  0  0  2  0  0  0  0  0  0
  188.4740  178.2500  147.5120 C   0  0  0  0  0  2  0  0  0  0  0  0
  190.7220  177.0870  147.4900 O   0  0  0  0  0  0  0  0  0  0  0  0
  193.8720  174.6230  144.2760 C   0  0  0  0  0  3  0  0  0  0  0  0
  192.5450  174.6410  144.2110 C   0  0  0  0  0  3  0  0  0  0  0  0
  188.6450  176.0480  146.7770 C   0  0  0  0  0  0  0  0  0  0  0  0
  195.8160  175.1030  145.5200 O   0  0  0  0  0  0  0  0  0  0  0  0
  189.6490  173.7220  143.1690 C   0  0  0  0  0  3  0  0  0  0  0  0
  189.0500  173.4970  141.9300 C   0  0  0  0  0  0  0  0  0  0  0  0
  189.0480  172.2230  141.3810 O   0  0  0  0  0  1  0  0  0  0  0  0
  189.0640  176.0750  143.0260 C   0  0  0  0  0  0  0  0  0  0  0  0
  188.4520  174.5550  141.2430 C   0  0  0  0  0  3  0  0  0  0  0  0
  189.0630  177.3530  143.5740 O   0  0  0  0  0  1  0  0  0  0  0  0
  188.4570  175.8510  141.7780 C   0  0  0  0  0  0  0  0  0  0  0  0
  189.6620  175.0130  143.7230 C   0  0  0  0  0  0  0  0  0  0  0  0
  187.8100  176.9520  141.1190 N   0  0  0  0  0  2  0  0  0  0  0  0
  185.7330  177.6280  140.0160 C   0  0  0  0  0  0  0  0  0  0  0  0
  184.3930  178.0470  140.0840 C   0  0  0  0  0  3  0  0  0  0  0  0
  183.7580  178.1970  141.3180 C   0  0  0  0  0  3  0  0  0  0  0  0
  185.7880  177.5140  142.4420 C   0  0  0  0  0  3  0  0  0  0  0  0
  184.4530  177.9220  142.4980 C   0  0  0  0  0  3  0  0  0  0  0  0
  186.4390  177.3700  141.2060 C   0  0  0  0  0  0  0  0  0  0  0  0
  186.3980  177.4550  138.7880 O   0  0  0  0  0  0  0  0  0  0  0  0
  187.1950  175.4730  137.8520 O   0  0  0  0  0  0  0  0  0  0  0  0
  186.2910  176.3480  137.9330 C   0  0  0  0  0  3  0  0  0  0  0  0
  186.1140  178.6200  146.2940 C   0  0  0  0  0  2  0  0  0  0  0  0
  184.7560  178.5920  146.9670 C   0  0  0  0  0  2  0  0  0  0  0  0
  183.7520  178.6310  146.0010 O   0  0  0  0  0  1  0  0  0  0  0  0
  1 17  2  0  0  0  0
  1  2  1  0  0  0  0
  4 25  1  6  0  0  0
  4  8  1  0  0  0  0
  4  9  1  0  0  0  0
  5 36  1  6  0  0  0
  5 12  1  0  0  0  0
  5  3  1  0  0  0  0
  6  2  1  0  0  0  0
  6 11  1  0  0  0  0
  7 13  1  0  0  0  0
  7 12  1  0  0  0  0
  8  6  2  0  0  0  0
  9 16  1  0  0  0  0
 10 16  1  1  0  0  0
 10  5  1  0  0  0  0
 10  3  1  0  0  0  0
 13 11  1  0  0  0  0
 14  1  1  0  0  0  0
 15 14  2  0  0  0  0
 15  8  1  0  0  0  0
 16  7  2  0  0  0  0
 18 25  1  0  0  0  0
 19 18  2  0  0  0  0
 20 19  1  0  0  0  0
 21 23  1  0  0  0  0
 21 25  2  0  0  0  0
 22 24  2  0  0  0  0
 22 19  1  0  0  0  0
 24 21  1  0  0  0  0
 26 32  1  0  0  0  0
 26 24  1  0  0  0  0
 27 28  2  0  0  0  0
 27 32  1  0  0  0  0
 28 29  1  0  0  0  0
 29 31  2  0  0  0  0
 30 31  1  0  0  0  0
 32 30  2  0  0  0  0
 33 27  1  0  0  0  0
 34 35  2  0  0  0  0
 35 33  1  0  0  0  0
 36 37  1  0  0  0  0
 38 37  1  0  0  0  0
M  END
>  <MODEL>
1

>  <REMARK>
 VINA RESULT:      -8.3      0.000      0.000
  Name = 
  7 active torsions:
  status: ('A' for Active; 'I' for Inactive)
    1  A    between atoms: C_1  and  O_35
    2  A    between atoms: C_6  and  C_12
    3  A    between atoms: C_6  and  C_25
    4  A    between atoms: C_10  and  C_38
    5  A    between atoms: C_20  and  O_35
    6  A    between atoms: N_30  and  C_31
    7  A    between atoms: N_30  and  C_34
                            x       y       z     vdW  Elec       q    Type
                         _______ _______ _______ _____ _____    ______ ____

>  <TORSDO>
F 7

$$$$
=
 OpenBabel11062419263D

 38 43  0  0  1  0  0  0  0  0999 V2000
  190.6110  171.4650  141.3990 C   0  0  0  0  0  0  0  0  0  0  0  0
  189.4760  172.3340  140.9330 C   0  0  0  0  0  2  0  0  0  0  0  0
  186.8200  178.7570  143.4470 O   0  0  0  0  0  0  0  0  0  0  0  0
  190.0600  175.2860  143.4430 C   0  0  2  0  0  3  0  0  0  0  0  0
  186.4590  177.7450  144.3510 C   0  0  2  0  0  0  0  0  0  0  0  0
  189.3410  173.6350  141.6920 C   0  0  0  0  0  0  0  0  0  0  0  0
  187.2090  175.9780  142.9940 C   0  0  0  0  0  0  0  0  0  0  0  0
  190.2620  174.0340  142.6120 C   0  0  0  0  0  0  0  0  0  0  0  0
  189.6220  176.5490  142.7140 C   0  0  0  0  0  2  0  0  0  0  0  0
  187.8750  177.9910  144.0040 C   0  0  1  0  0  3  0  0  0  0  0  0
  188.1970  174.5060  141.2570 C   0  0  0  0  0  2  0  0  0  0  0  0
  186.0050  176.4260  143.7300 C   0  0  0  0  0  2  0  0  0  0  0  0
  187.2700  174.7510  142.3150 O   0  0  0  0  0  0  0  0  0  0  0  0
  191.5720  171.9580  142.3860 C   0  0  0  0  0  3  0  0  0  0  0  0
  191.4050  173.1510  142.9460 C   0  0  0  0  0  3  0  0  0  0  0  0
  188.2160  176.8360  143.1290 C   0  0  0  0  0  0  0  0  0  0  0  0
  190.7420  170.3020  140.9290 O   0  0  0  0  0  0  0  0  0  0  0  0
  190.5590  175.3240  145.9190 C   0  0  0  0  0  3  0  0  0  0  0  0
  191.4530  175.4870  146.9770 C   0  0  0  0  0  0  0  0  0  0  0  0
  191.0320  175.2690  148.2810 O   0  0  0  0  0  1  0  0  0  0  0  0
  192.3040  175.9440  144.3480 C   0  0  0  0  0  0  0  0  0  0  0  0
  192.7710  175.8700  146.7230 C   0  0  0  0  0  3  0  0  0  0  0  0
  192.7280  176.1620  143.0420 O   0  0  0  0  0  1  0  0  0  0  0  0
  193.2080  176.1060  145.4110 C   0  0  0  0  0  0  0  0  0  0  0  0
  190.9780  175.5550  144.5990 C   0  0  0  0  0  0  0  0  0  0  0  0
  194.5690  176.4550  145.1120 N   0  0  0  0  0  2  0  0  0  0  0  0
  196.5180  175.7830  143.7920 C   0  0  0  0  0  0  0  0  0  0  0  0
  197.6200  174.9370  143.5840 C   0  0  0  0  0  3  0  0  0  0  0  0
  197.9120  173.9170  144.4910 C   0  0  0  0  0  3  0  0  0  0  0  0
  196.0050  174.5640  145.8300 C   0  0  0  0  0  3  0  0  0  0  0  0
  197.1090  173.7350  145.6200 C   0  0  0  0  0  3  0  0  0  0  0  0
  195.6970  175.5870  144.9190 C   0  0  0  0  0  0  0  0  0  0  0  0
  196.2030  176.8290  142.9050 O   0  0  0  0  0  0  0  0  0  0  0  0
  195.2270  176.3170  140.8500 O   0  0  0  0  0  0  0  0  0  0  0  0
  196.2090  176.7610  141.5040 C   0  0  0  0  0  3  0  0  0  0  0  0
  186.0840  178.1860  145.7520 C   0  0  0  0  0  2  0  0  0  0  0  0
  184.5960  178.0040  145.9800 C   0  0  0  0  0  2  0  0  0  0  0  0
  183.8930  178.9900  145.2890 O   0  0  0  0  0  1  0  0  0  0  0  0
  1 14  1  0  0  0  0
  2  1  1  0  0  0  0
  2  6  1  0  0  0  0
  3 10  1  0  0  0  0
  3  5  1  0  0  0  0
  4 25  1  6  0  0  0
  5 36  1  1  0  0  0
  6  8  2  0  0  0  0
  7 16  2  0  0  0  0
  7 12  1  0  0  0  0
  8 15  1  0  0  0  0
  8  4  1  0  0  0  0
  9 16  1  0  0  0  0
  9  4  1  0  0  0  0
 10 16  1  6  0  0  0
 10  5  1  0  0  0  0
 11  6  1  0  0  0  0
 11 13  1  0  0  0  0
 12  5  1  0  0  0  0
 13  7  1  0  0  0  0
 14 15  2  0  0  0  0
 17  1  2  0  0  0  0
 18 19  1  0  0  0  0
 19 20  1  0  0  0  0
 21 25  1  0  0  0  0
 21 24  2  0  0  0  0
 22 19  2  0  0  0  0
 23 21  1  0  0  0  0
 24 22  1  0  0  0  0
 25 18  2  0  0  0  0
 26 24  1  0  0  0  0
 27 32  1  0  0  0  0
 28 27  2  0  0  0  0
 28 29  1  0  0  0  0
 29 31  2  0  0  0  0
 31 30  1  0  0  0  0
 32 26  1  0  0  0  0
 32 30  2  0  0  0  0
 33 27  1  0  0  0  0
 34 35  2  0  0  0  0
 35 33  1  0  0  0  0
 36 37  1  0  0  0  0
 38 37  1  0  0  0  0
M  END
>  <MODEL>
2

>  <REMARK>
 VINA RESULT:      -7.9      2.701      7.298
  Name = 
  7 active torsions:
  status: ('A' for Active; 'I' for Inactive)
    1  A    between atoms: C_1  and  O_35
    2  A    between atoms: C_6  and  C_12
    3  A    between atoms: C_6  and  C_25
    4  A    between atoms: C_10  and  C_38
    5  A    between atoms: C_20  and  O_35
    6  A    between atoms: N_30  and  C_31
    7  A    between atoms: N_30  and  C_34
                            x       y       z     vdW  Elec       q    Type
                         _______ _______ _______ _____ _____    ______ ____

>  <TORSDO>
F 7

$$$$
=
 OpenBabel11062419263D

 38 43  0  0  1  0  0  0  0  0999 V2000
  188.9460  173.7930  139.7740 C   0  0  0  0  0  0  0  0  0  0  0  0
  187.9200  174.8820  139.6240 C   0  0  0  0  0  2  0  0  0  0  0  0
  185.5630  180.1200  144.2750 O   0  0  0  0  0  0  0  0  0  0  0  0
  188.5230  176.6010  143.0940 C   0  0  2  0  0  3  0  0  0  0  0  0
  185.0560  178.8830  144.7080 C   0  0  2  0  0  0  0  0  0  0  0  0
  187.8230  175.8080  140.8150 C   0  0  0  0  0  0  0  0  0  0  0  0
  185.7770  177.6910  142.8150 C   0  0  0  0  0  0  0  0  0  0  0  0
  188.6960  175.7390  141.8570 C   0  0  0  0  0  0  0  0  0  0  0  0
  188.2410  178.0820  142.8820 C   0  0  0  0  0  2  0  0  0  0  0  0
  186.5100  179.1010  144.5450 C   0  0  1  0  0  3  0  0  0  0  0  0
  186.7850  176.8880  140.6940 C   0  0  0  0  0  2  0  0  0  0  0  0
  184.5560  177.9470  143.6110 C   0  0  0  0  0  2  0  0  0  0  0  0
  185.7990  176.8090  141.7230 O   0  0  0  0  0  0  0  0  0  0  0  0
  189.8610  173.7810  140.9160 C   0  0  0  0  0  3  0  0  0  0  0  0
  189.7400  174.6870  141.8800 C   0  0  0  0  0  3  0  0  0  0  0  0
  186.8320  178.3300  143.3110 C   0  0  0  0  0  0  0  0  0  0  0  0
  189.0260  172.8850  138.9030 O   0  0  0  0  0  0  0  0  0  0  0  0
  188.8480  175.5970  145.3880 C   0  0  0  0  0  3  0  0  0  0  0  0
  189.6690  175.2640  146.4650 C   0  0  0  0  0  0  0  0  0  0  0  0
  189.1520  174.5550  147.5390 O   0  0  0  0  0  1  0  0  0  0  0  0
  190.7150  176.7090  144.3060 C   0  0  0  0  0  0  0  0  0  0  0  0
  191.0120  175.6450  146.4600 C   0  0  0  0  0  3  0  0  0  0  0  0
  191.2370  177.4180  143.2290 O   0  0  0  0  0  1  0  0  0  0  0  0
  191.5470  176.3730  145.3870 C   0  0  0  0  0  0  0  0  0  0  0  0
  189.3650  176.3240  144.3040 C   0  0  0  0  0  0  0  0  0  0  0  0
  192.9340  176.7390  145.3300 N   0  0  0  0  0  2  0  0  0  0  0  0
  194.5740  175.6140  143.9040 C   0  0  0  0  0  0  0  0  0  0  0  0
  195.6920  174.7760  143.7520 C   0  0  0  0  0  3  0  0  0  0  0  0
  196.3220  174.2260  144.8690 C   0  0  0  0  0  3  0  0  0  0  0  0
  194.7310  175.3380  146.3120 C   0  0  0  0  0  3  0  0  0  0  0  0
  195.8480  174.5140  146.1510 C   0  0  0  0  0  3  0  0  0  0  0  0
  194.0830  175.8880  145.1940 C   0  0  0  0  0  0  0  0  0  0  0  0
  193.9230  176.1940  142.7990 O   0  0  0  0  0  0  0  0  0  0  0  0
  193.4460  175.2020  140.7430 O   0  0  0  0  0  0  0  0  0  0  0  0
  194.1910  175.9370  141.4460 C   0  0  0  0  0  3  0  0  0  0  0  0
  184.6060  178.8010  146.1540 C   0  0  0  0  0  2  0  0  0  0  0  0
  184.4550  177.3520  146.5750 C   0  0  0  0  0  2  0  0  0  0  0  0
  185.6800  176.8660  147.0300 O   0  0  0  0  0  1  0  0  0  0  0  0
  1 14  1  0  0  0  0
  2  1  1  0  0  0  0
  2  6  1  0  0  0  0
  3 10  1  0  0  0  0
  3  5  1  0  0  0  0
  4 25  1  1  0  0  0
  5 36  1  1  0  0  0
  6  8  2  0  0  0  0
  7 16  2  0  0  0  0
  7 12  1  0  0  0  0
  8 15  1  0  0  0  0
  8  4  1  0  0  0  0
  9  4  1  0  0  0  0
  9 16  1  0  0  0  0
 10 16  1  6  0  0  0
 10  5  1  0  0  0  0
 11  6  1  0  0  0  0
 11 13  1  0  0  0  0
 12  5  1  0  0  0  0
 13  7  1  0  0  0  0
 14 15  2  0  0  0  0
 17  1  2  0  0  0  0
 18 19  1  0  0  0  0
 19 20  1  0  0  0  0
 21 24  2  0  0  0  0
 22 19  2  0  0  0  0
 23 21  1  0  0  0  0
 24 22  1  0  0  0  0
 25 21  1  0  0  0  0
 25 18  2  0  0  0  0
 26 24  1  0  0  0  0
 27 32  1  0  0  0  0
 28 27  2  0  0  0  0
 28 29  1  0  0  0  0
 29 31  2  0  0  0  0
 31 30  1  0  0  0  0
 32 26  1  0  0  0  0
 32 30  2  0  0  0  0
 33 27  1  0  0  0  0
 34 35  2  0  0  0  0
 35 33  1  0  0  0  0
 36 37  1  0  0  0  0
 37 38  1  0  0  0  0
M  END
>  <MODEL>
3

>  <REMARK>
 VINA RESULT:      -7.7      2.229      6.920
  Name = 
  7 active torsions:
  status: ('A' for Active; 'I' for Inactive)
    1  A    between atoms: C_1  and  O_35
    2  A    between atoms: C_6  and  C_12
    3  A    between atoms: C_6  and  C_25
    4  A    between atoms: C_10  and  C_38
    5  A    between atoms: C_20  and  O_35
    6  A    between atoms: N_30  and  C_31
    7  A    between atoms: N_30  and  C_34
                            x       y       z     vdW  Elec       q    Type
                         _______ _______ _______ _____ _____    ______ ____

>  <TORSDO>
F 7

$$$$
=
 OpenBabel11062419263D

 38 43  0  0  1  0  0  0  0  0999 V2000
  186.6630  177.9850  143.1640 C   0  0  0  0  0  0  0  0  0  0  0  0
  186.5780  176.7150  142.3610 C   0  0  0  0  0  2  0  0  0  0  0  0
  190.9640  170.7760  142.0330 O   0  0  0  0  0  0  0  0  0  0  0  0
  189.6750  174.9210  143.9570 C   0  0  2  0  0  3  0  0  0  0  0  0
  191.6130  171.8410  141.3890 C   0  0  2  0  0  0  0  0  0  0  0  0
  187.6570  175.7070  142.6830 C   0  0  0  0  0  0  0  0  0  0  0  0
  189.7660  173.2930  141.4770 C   0  0  0  0  0  0  0  0  0  0  0  0
  188.5300  175.8860  143.7120 C   0  0  0  0  0  0  0  0  0  0  0  0
  189.3540  173.4320  143.9350 C   0  0  0  0  0  2  0  0  0  0  0  0
  191.1730  171.9520  142.7970 C   0  0  1  0  0  3  0  0  0  0  0  0
  187.6030  174.4420  141.8740 C   0  0  0  0  0  2  0  0  0  0  0  0
  190.7330  172.7260  140.5100 C   0  0  0  0  0  2  0  0  0  0  0  0
  188.7920  174.2350  141.1120 O   0  0  0  0  0  0  0  0  0  0  0  0
  187.6210  178.1100  144.2630 C   0  0  0  0  0  3  0  0  0  0  0  0
  188.4850  177.1320  144.5130 C   0  0  0  0  0  3  0  0  0  0  0  0
  189.9950  172.8590  142.7140 C   0  0  0  0  0  0  0  0  0  0  0  0
  185.8980  178.9490  142.8920 O   0  0  0  0  0  0  0  0  0  0  0  0
  190.5120  175.1570  146.3280 C   0  0  0  0  0  3  0  0  0  0  0  0
  191.5410  175.4070  147.2350 C   0  0  0  0  0  0  0  0  0  0  0  0
  191.3080  175.2920  148.5980 O   0  0  0  0  0  1  0  0  0  0  0  0
  192.0120  175.6560  144.4860 C   0  0  0  0  0  0  0  0  0  0  0  0
  192.8060  175.7720  146.7700 C   0  0  0  0  0  3  0  0  0  0  0  0
  192.2490  175.7710  143.1200 O   0  0  0  0  0  1  0  0  0  0  0  0
  193.0530  175.9050  145.3960 C   0  0  0  0  0  0  0  0  0  0  0  0
  190.7400  175.2840  144.9480 C   0  0  0  0  0  0  0  0  0  0  0  0
  194.3540  176.2340  144.8840 N   0  0  0  0  0  2  0  0  0  0  0  0
  196.5280  175.7080  143.8910 C   0  0  0  0  0  0  0  0  0  0  0  0
  197.6870  174.9160  143.8350 C   0  0  0  0  0  3  0  0  0  0  0  0
  197.8660  173.8570  144.7270 C   0  0  0  0  0  3  0  0  0  0  0  0
  195.7310  174.3590  145.7460 C   0  0  0  0  0  3  0  0  0  0  0  0
  196.8910  173.5830  145.6900 C   0  0  0  0  0  3  0  0  0  0  0  0
  195.5370  175.4200  144.8470 C   0  0  0  0  0  0  0  0  0  0  0  0
  196.3230  176.7900  143.0150 O   0  0  0  0  0  0  0  0  0  0  0  0
  194.8950  176.7890  141.1710 O   0  0  0  0  0  0  0  0  0  0  0  0
  196.0630  176.7090  141.6380 C   0  0  0  0  0  3  0  0  0  0  0  0
  193.1160  171.7220  141.2230 C   0  0  0  0  0  2  0  0  0  0  0  0
  193.7080  173.0600  140.8240 C   0  0  0  0  0  2  0  0  0  0  0  0
  194.5250  173.5340  141.8480 O   0  0  0  0  0  1  0  0  0  0  0  0
  1 14  1  0  0  0  0
  2  6  1  0  0  0  0
  2  1  1  0  0  0  0
  4 25  1  1  0  0  0
  5 36  1  6  0  0  0
  5  3  1  0  0  0  0
  5 10  1  0  0  0  0
  6  8  2  0  0  0  0
  7 16  2  0  0  0  0
  8  4  1  0  0  0  0
  8 15  1  0  0  0  0
  9  4  1  0  0  0  0
 10  3  1  6  0  0  0
 11  6  1  0  0  0  0
 12  5  1  0  0  0  0
 12  7  1  0  0  0  0
 13  7  1  0  0  0  0
 13 11  1  0  0  0  0
 14 15  2  0  0  0  0
 16 10  1  0  0  0  0
 16  9  1  0  0  0  0
 17  1  2  0  0  0  0
 18 19  1  0  0  0  0
 19 20  1  0  0  0  0
 21 25  1  0  0  0  0
 21 24  2  0  0  0  0
 22 19  2  0  0  0  0
 23 21  1  0  0  0  0
 24 22  1  0  0  0  0
 25 18  2  0  0  0  0
 26 24  1  0  0  0  0
 27 32  1  0  0  0  0
 28 27  2  0  0  0  0
 28 29  1  0  0  0  0
 29 31  2  0  0  0  0
 31 30  1  0  0  0  0
 32 26  1  0  0  0  0
 32 30  2  0  0  0  0
 33 27  1  0  0  0  0
 34 35  2  0  0  0  0
 35 33  1  0  0  0  0
 37 36  1  0  0  0  0
 37 38  1  0  0  0  0
M  END
>  <MODEL>
4

>  <REMARK>
 VINA RESULT:      -7.6      2.785      8.696
  Name = 
  7 active torsions:
  status: ('A' for Active; 'I' for Inactive)
    1  A    between atoms: C_1  and  O_35
    2  A    between atoms: C_6  and  C_12
    3  A    between atoms: C_6  and  C_25
    4  A    between atoms: C_10  and  C_38
    5  A    between atoms: C_20  and  O_35
    6  A    between atoms: N_30  and  C_31
    7  A    between atoms: N_30  and  C_34
                            x       y       z     vdW  Elec       q    Type
                         _______ _______ _______ _____ _____    ______ ____

>  <TORSDO>
F 7

$$$$
=
 OpenBabel11062419263D

 38 43  0  0  1  0  0  0  0  0999 V2000
  185.4320  178.0970  147.1430 C   0  0  0  0  0  0  0  0  0  0  0  0
  186.8260  178.2310  147.6920 C   0  0  0  0  0  2  0  0  0  0  0  0
  193.4260  176.4130  144.9060 O   0  0  0  0  0  0  0  0  0  0  0  0
  188.7270  176.9690  144.5060 C   0  0  2  0  0  3  0  0  0  0  0  0
  192.7570  175.2320  145.2670 C   0  0  2  0  0  0  0  0  0  0  0  0
  187.9120  177.8130  146.7280 C   0  0  0  0  0  0  0  0  0  0  0  0
  190.9720  176.3240  146.3380 C   0  0  0  0  0  0  0  0  0  0  0  0
  187.6450  177.4890  145.4330 C   0  0  0  0  0  0  0  0  0  0  0  0
  190.0520  177.7190  144.4850 C   0  0  0  0  0  2  0  0  0  0  0  0
  192.1570  176.1910  144.3140 C   0  0  1  0  0  3  0  0  0  0  0  0
  189.3110  177.9160  147.2670 C   0  0  0  0  0  2  0  0  0  0  0  0
  191.9880  175.2760  146.5850 C   0  0  0  0  0  2  0  0  0  0  0  0
  189.9820  176.6560  147.2760 O   0  0  0  0  0  0  0  0  0  0  0  0
  185.2130  177.7530  145.7380 C   0  0  0  0  0  3  0  0  0  0  0  0
  186.2440  177.4720  144.9490 C   0  0  0  0  0  3  0  0  0  0  0  0
  191.0750  176.8310  145.1130 C   0  0  0  0  0  0  0  0  0  0  0  0
  184.4410  178.2910  147.8990 O   0  0  0  0  0  0  0  0  0  0  0  0
  187.8090  177.2360  142.1690 C   0  0  0  0  0  3  0  0  0  0  0  0
  187.5440  176.7210  140.9010 C   0  0  0  0  0  0  0  0  0  0  0  0
  187.0080  177.5400  139.9170 O   0  0  0  0  0  1  0  0  0  0  0  0
  188.6090  175.0590  142.8870 C   0  0  0  0  0  0  0  0  0  0  0  0
  187.8160  175.3800  140.6220 C   0  0  0  0  0  3  0  0  0  0  0  0
  189.1460  174.2360  143.8710 O   0  0  0  0  0  1  0  0  0  0  0  0
  188.3450  174.5370  141.6090 C   0  0  0  0  0  0  0  0  0  0  0  0
  188.3410  176.4070  143.1700 C   0  0  0  0  0  0  0  0  0  0  0  0
  188.6810  173.1660  141.3420 N   0  0  0  0  0  2  0  0  0  0  0  0
  190.0090  172.4280  139.4240 C   0  0  0  0  0  0  0  0  0  0  0  0
  191.1940  171.8930  138.8910 C   0  0  0  0  0  3  0  0  0  0  0  0
  192.2660  171.5710  139.7250 C   0  0  0  0  0  3  0  0  0  0  0  0
  190.9900  172.3100  141.6430 C   0  0  0  0  0  3  0  0  0  0  0  0
  192.1680  171.7880  141.1020 C   0  0  0  0  0  3  0  0  0  0  0  0
  189.9030  172.6270  140.8130 C   0  0  0  0  0  0  0  0  0  0  0  0
  188.9160  172.7750  138.6090 O   0  0  0  0  0  0  0  0  0  0  0  0
  188.1910  174.5410  137.2690 O   0  0  0  0  0  0  0  0  0  0  0  0
  188.9600  173.5580  137.4450 C   0  0  0  0  0  3  0  0  0  0  0  0
  193.2460  173.9500  144.6220 C   0  0  0  0  0  2  0  0  0  0  0  0
  194.4340  173.3980  145.3850 C   0  0  0  0  0  2  0  0  0  0  0  0
  194.1860  172.0740  145.7440 O   0  0  0  0  0  1  0  0  0  0  0  0
  1  2  1  0  0  0  0
  1 17  2  0  0  0  0
  3  5  1  0  0  0  0
  4 25  1  6  0  0  0
  4  8  1  0  0  0  0
  5 36  1  6  0  0  0
  5 12  1  0  0  0  0
  6 11  1  0  0  0  0
  6  2  1  0  0  0  0
  7 12  1  0  0  0  0
  7 13  1  0  0  0  0
  8  6  2  0  0  0  0
  9  4  1  0  0  0  0
  9 16  1  0  0  0  0
 10  3  1  1  0  0  0
 10 16  1  0  0  0  0
 10  5  1  0  0  0  0
 11 13  1  0  0  0  0
 14  1  1  0  0  0  0
 15  8  1  0  0  0  0
 15 14  2  0  0  0  0
 16  7  2  0  0  0  0
 18 25  1  0  0  0  0
 19 18  2  0  0  0  0
 20 19  1  0  0  0  0
 21 25  2  0  0  0  0
 21 23  1  0  0  0  0
 22 19  1  0  0  0  0
 22 24  2  0  0  0  0
 24 21  1  0  0  0  0
 26 24  1  0  0  0  0
 27 32  1  0  0  0  0
 28 27  2  0  0  0  0
 28 29  1  0  0  0  0
 29 31  2  0  0  0  0
 31 30  1  0  0  0  0
 32 26  1  0  0  0  0
 32 30  2  0  0  0  0
 33 27  1  0  0  0  0
 34 35  2  0  0  0  0
 35 33  1  0  0  0  0
 36 37  1  0  0  0  0
 37 38  1  0  0  0  0
M  END
>  <MODEL>
5

>  <REMARK>
 VINA RESULT:      -7.6      2.188      6.493
  Name = 
  7 active torsions:
  status: ('A' for Active; 'I' for Inactive)
    1  A    between atoms: C_1  and  O_35
    2  A    between atoms: C_6  and  C_12
    3  A    between atoms: C_6  and  C_25
    4  A    between atoms: C_10  and  C_38
    5  A    between atoms: C_20  and  O_35
    6  A    between atoms: N_30  and  C_31
    7  A    between atoms: N_30  and  C_34
                            x       y       z     vdW  Elec       q    Type
                         _______ _______ _______ _____ _____    ______ ____

>  <TORSDO>
F 7

$$$$
=
 OpenBabel11062419263D

 38 43  0  0  1  0  0  0  0  0999 V2000
  194.9250  174.5850  140.6900 C   0  0  0  0  0  0  0  0  0  0  0  0
  195.3410  174.5280  142.1340 C   0  0  0  0  0  2  0  0  0  0  0  0
  191.4930  175.1630  148.4130 O   0  0  0  0  0  0  0  0  0  0  0  0
  191.7520  174.7780  143.6870 C   0  0  2  0  0  3  0  0  0  0  0  0
  191.5840  176.4320  147.8190 C   0  0  2  0  0  0  0  0  0  0  0  0
  194.1910  174.6100  143.1130 C   0  0  0  0  0  0  0  0  0  0  0  0
  193.0930  175.7690  146.1420 C   0  0  0  0  0  0  0  0  0  0  0  0
  192.8930  174.5870  142.7060 C   0  0  0  0  0  0  0  0  0  0  0  0
  191.7990  173.9780  144.9820 C   0  0  0  0  0  2  0  0  0  0  0  0
  190.9980  175.2860  147.0900 C   0  0  1  0  0  3  0  0  0  0  0  0
  194.5900  174.5800  144.5610 C   0  0  0  0  0  2  0  0  0  0  0  0
  192.9370  176.7870  147.2060 C   0  0  0  0  0  2  0  0  0  0  0  0
  194.1830  175.7560  145.2600 O   0  0  0  0  0  0  0  0  0  0  0  0
  193.5090  174.5490  140.3190 C   0  0  0  0  0  3  0  0  0  0  0  0
  192.5710  174.5500  141.2600 C   0  0  0  0  0  3  0  0  0  0  0  0
  192.0500  174.9460  146.0920 C   0  0  0  0  0  0  0  0  0  0  0  0
  195.8030  174.6560  139.7890 O   0  0  0  0  0  0  0  0  0  0  0  0
  189.6200  173.8990  142.6560 C   0  0  0  0  0  3  0  0  0  0  0  0
  188.2960  174.0810  142.2610 C   0  0  0  0  0  0  0  0  0  0  0  0
  187.5710  173.0150  141.7500 O   0  0  0  0  0  1  0  0  0  0  0  0
  189.7590  176.2430  143.2770 C   0  0  0  0  0  0  0  0  0  0  0  0
  187.6990  175.3380  142.3800 C   0  0  0  0  0  3  0  0  0  0  0  0
  190.4820  177.3130  143.7900 O   0  0  0  0  0  1  0  0  0  0  0  0
  188.4230  176.4290  142.8830 C   0  0  0  0  0  0  0  0  0  0  0  0
  190.3610  174.9790  143.1640 C   0  0  0  0  0  0  0  0  0  0  0  0
  187.8260  177.7230  143.0630 N   0  0  0  0  0  2  0  0  0  0  0  0
  185.7250  178.8230  143.6690 C   0  0  0  0  0  0  0  0  0  0  0  0
  184.8080  179.2560  144.6410 C   0  0  0  0  0  3  0  0  0  0  0  0
  185.0440  179.0140  145.9950 C   0  0  0  0  0  3  0  0  0  0  0  0
  187.1170  177.9030  145.4330 C   0  0  0  0  0  3  0  0  0  0  0  0
  186.1950  178.3290  146.3920 C   0  0  0  0  0  3  0  0  0  0  0  0
  186.8950  178.1510  144.0690 C   0  0  0  0  0  0  0  0  0  0  0  0
  185.5110  179.0400  142.2950 O   0  0  0  0  0  0  0  0  0  0  0  0
  183.4770  178.2900  141.4350 O   0  0  0  0  0  0  0  0  0  0  0  0
  184.7370  178.2450  141.4370 C   0  0  0  0  0  3  0  0  0  0  0  0
  190.5650  177.4640  148.2610 C   0  0  0  0  0  2  0  0  0  0  0  0
  191.1920  178.4310  149.2480 C   0  0  0  0  0  2  0  0  0  0  0  0
  191.5660  177.7450  150.4020 O   0  0  0  0  0  1  0  0  0  0  0  0
  1  2  1  0  0  0  0
  2  6  1  0  0  0  0
  4 25  1  6  0  0  0
  4  9  1  0  0  0  0
  5 36  1  1  0  0  0
  5  3  1  0  0  0  0
  6 11  1  0  0  0  0
  7 12  1  0  0  0  0
  8  6  2  0  0  0  0
  8  4  1  0  0  0  0
  9 16  1  0  0  0  0
 10 16  1  6  0  0  0
 10  5  1  0  0  0  0
 10  3  1  0  0  0  0
 11 13  1  0  0  0  0
 12  5  1  0  0  0  0
 13  7  1  0  0  0  0
 14  1  1  0  0  0  0
 14 15  2  0  0  0  0
 15  8  1  0  0  0  0
 16  7  2  0  0  0  0
 17  1  2  0  0  0  0
 18 25  1  0  0  0  0
 19 22  1  0  0  0  0
 19 18  2  0  0  0  0
 20 19  1  0  0  0  0
 21 23  1  0  0  0  0
 22 24  2  0  0  0  0
 24 26  1  0  0  0  0
 24 21  1  0  0  0  0
 25 21  2  0  0  0  0
 26 32  1  0  0  0  0
 27 32  2  0  0  0  0
 27 28  1  0  0  0  0
 28 29  2  0  0  0  0
 29 31  1  0  0  0  0
 30 31  2  0  0  0  0
 32 30  1  0  0  0  0
 33 27  1  0  0  0  0
 34 35  2  0  0  0  0
 35 33  1  0  0  0  0
 36 37  1  0  0  0  0
 37 38  1  0  0  0  0
M  END
>  <MODEL>
6

>  <REMARK>
 VINA RESULT:      -7.6      2.190      4.098
  Name = 
  7 active torsions:
  status: ('A' for Active; 'I' for Inactive)
    1  A    between atoms: C_1  and  O_35
    2  A    between atoms: C_6  and  C_12
    3  A    between atoms: C_6  and  C_25
    4  A    between atoms: C_10  and  C_38
    5  A    between atoms: C_20  and  O_35
    6  A    between atoms: N_30  and  C_31
    7  A    between atoms: N_30  and  C_34
                            x       y       z     vdW  Elec       q    Type
                         _______ _______ _______ _____ _____    ______ ____

>  <TORSDO>
F 7

$$$$
=
 OpenBabel11062419263D

 38 43  0  0  1  0  0  0  0  0999 V2000
  185.4200  178.1220  147.1910 C   0  0  0  0  0  0  0  0  0  0  0  0
  186.8220  178.2260  147.7240 C   0  0  0  0  0  2  0  0  0  0  0  0
  193.3710  176.4850  144.7730 O   0  0  0  0  0  0  0  0  0  0  0  0
  188.6710  177.0800  144.4640 C   0  0  2  0  0  3  0  0  0  0  0  0
  192.7010  175.2950  145.0970 C   0  0  2  0  0  0  0  0  0  0  0  0
  187.8930  177.8410  146.7280 C   0  0  0  0  0  0  0  0  0  0  0  0
  190.9380  176.3520  146.2360 C   0  0  0  0  0  0  0  0  0  0  0  0
  187.6040  177.5690  145.4260 C   0  0  0  0  0  0  0  0  0  0  0  0
  189.9990  177.8240  144.4520 C   0  0  0  0  0  2  0  0  0  0  0  0
  192.0930  176.2930  144.1910 C   0  0  1  0  0  3  0  0  0  0  0  0
  189.2990  177.9160  147.2500 C   0  0  0  0  0  2  0  0  0  0  0  0
  191.9520  175.2910  146.4270 C   0  0  0  0  0  2  0  0  0  0  0  0
  189.9640  176.6530  147.2000 O   0  0  0  0  0  0  0  0  0  0  0  0
  185.1790  177.8330  145.7760 C   0  0  0  0  0  3  0  0  0  0  0  0
  186.1970  177.5780  144.9620 C   0  0  0  0  0  3  0  0  0  0  0  0
  191.0260  176.9070  145.0300 C   0  0  0  0  0  0  0  0  0  0  0  0
  184.4410  178.2910  147.9670 O   0  0  0  0  0  0  0  0  0  0  0  0
  187.7280  177.4440  142.1490 C   0  0  0  0  0  3  0  0  0  0  0  0
  187.4420  176.9790  140.8660 C   0  0  0  0  0  0  0  0  0  0  0  0
  186.9050  177.8400  139.9190 O   0  0  0  0  0  1  0  0  0  0  0  0
  188.5100  175.2320  142.7770 C   0  0  0  0  0  0  0  0  0  0  0  0
  187.6950  175.6470  140.5350 C   0  0  0  0  0  3  0  0  0  0  0  0
  189.0490  174.3680  143.7230 O   0  0  0  0  0  1  0  0  0  0  0  0
  188.2260  174.7610  141.4840 C   0  0  0  0  0  0  0  0  0  0  0  0
  188.2620  176.5730  143.1130 C   0  0  0  0  0  0  0  0  0  0  0  0
  188.5410  173.3980  141.1620 N   0  0  0  0  0  2  0  0  0  0  0  0
  190.3940  171.8360  140.8180 C   0  0  0  0  0  0  0  0  0  0  0  0
  191.4400  171.3360  140.0240 C   0  0  0  0  0  3  0  0  0  0  0  0
  191.6870  171.8700  138.7590 C   0  0  0  0  0  3  0  0  0  0  0  0
  189.8510  173.4160  139.0560 C   0  0  0  0  0  3  0  0  0  0  0  0
  190.8880  172.9060  138.2700 C   0  0  0  0  0  3  0  0  0  0  0  0
  189.6010  172.8920  140.3340 C   0  0  0  0  0  0  0  0  0  0  0  0
  190.1100  171.3110  142.0930 O   0  0  0  0  0  0  0  0  0  0  0  0
  191.8790  170.7610  143.5100 O   0  0  0  0  0  0  0  0  0  0  0  0
  190.8780  171.4830  143.2540 C   0  0  0  0  0  3  0  0  0  0  0  0
  193.1730  174.0360  144.3950 C   0  0  0  0  0  2  0  0  0  0  0  0
  193.8310  173.0970  145.3880 C   0  0  0  0  0  2  0  0  0  0  0  0
  195.2000  173.3540  145.4400 O   0  0  0  0  0  1  0  0  0  0  0  0
  1  2  1  0  0  0  0
  1 17  2  0  0  0  0
  3  5  1  0  0  0  0
  4 25  1  6  0  0  0
  4  8  1  0  0  0  0
  5 36  1  6  0  0  0
  5 12  1  0  0  0  0
  6 11  1  0  0  0  0
  6  2  1  0  0  0  0
  7 12  1  0  0  0  0
  7 13  1  0  0  0  0
  8  6  2  0  0  0  0
  9  4  1  0  0  0  0
  9 16  1  0  0  0  0
 10  3  1  1  0  0  0
 10 16  1  0  0  0  0
 10  5  1  0  0  0  0
 13 11  1  0  0  0  0
 14  1  1  0  0  0  0
 15  8  1  0  0  0  0
 15 14  2  0  0  0  0
 16  7  2  0  0  0  0
 18 25  1  0  0  0  0
 19 18  2  0  0  0  0
 20 19  1  0  0  0  0
 21 25  2  0  0  0  0
 21 23  1  0  0  0  0
 22 19  1  0  0  0  0
 22 24  2  0  0  0  0
 24 21  1  0  0  0  0
 26 24  1  0  0  0  0
 27 33  1  0  0  0  0
 28 27  2  0  0  0  0
 29 28  1  0  0  0  0
 30 32  2  0  0  0  0
 31 29  2  0  0  0  0
 31 30  1  0  0  0  0
 32 27  1  0  0  0  0
 32 26  1  0  0  0  0
 33 35  1  0  0  0  0
 35 34  2  0  0  0  0
 36 37  1  0  0  0  0
 37 38  1  0  0  0  0
M  END
>  <MODEL>
7

>  <REMARK>
 VINA RESULT:      -7.6      2.145      6.803
  Name = 
  7 active torsions:
  status: ('A' for Active; 'I' for Inactive)
    1  A    between atoms: C_1  and  O_35
    2  A    between atoms: C_6  and  C_12
    3  A    between atoms: C_6  and  C_25
    4  A    between atoms: C_10  and  C_38
    5  A    between atoms: C_20  and  O_35
    6  A    between atoms: N_30  and  C_31
    7  A    between atoms: N_30  and  C_34
                            x       y       z     vdW  Elec       q    Type
                         _______ _______ _______ _____ _____    ______ ____

>  <TORSDO>
F 7

$$$$
=
 OpenBabel11062419263D

 38 43  0  0  1  0  0  0  0  0999 V2000
  189.0620  172.9380  139.4810 C   0  0  0  0  0  0  0  0  0  0  0  0
  190.1810  172.0360  139.9260 C   0  0  0  0  0  2  0  0  0  0  0  0
  194.9160  172.4620  145.5840 O   0  0  0  0  0  0  0  0  0  0  0  0
  191.0920  173.9710  143.2090 C   0  0  2  0  0  3  0  0  0  0  0  0
  195.2780  173.4280  144.6310 C   0  0  2  0  0  0  0  0  0  0  0  0
  190.8420  172.4610  141.2170 C   0  0  0  0  0  0  0  0  0  0  0  0
  193.7590  172.6860  142.9980 C   0  0  0  0  0  0  0  0  0  0  0  0
  190.3590  173.4850  141.9730 C   0  0  0  0  0  0  0  0  0  0  0  0
  191.5810  172.9180  144.1940 C   0  0  0  0  0  2  0  0  0  0  0  0
  193.9240  173.4090  145.2270 C   0  0  1  0  0  3  0  0  0  0  0  0
  191.9780  171.5860  141.6650 C   0  0  0  0  0  2  0  0  0  0  0  0
  195.1970  172.9880  143.1720 C   0  0  0  0  0  2  0  0  0  0  0  0
  193.2080  172.3040  141.7650 O   0  0  0  0  0  0  0  0  0  0  0  0
  188.5850  174.0180  140.3460 C   0  0  0  0  0  3  0  0  0  0  0  0
  189.1910  174.2670  141.5020 C   0  0  0  0  0  3  0  0  0  0  0  0
  193.0720  172.8970  144.1170 C   0  0  0  0  0  0  0  0  0  0  0  0
  188.5250  172.7590  138.3550 O   0  0  0  0  0  0  0  0  0  0  0  0
  191.2040  176.4790  143.4940 C   0  0  0  0  0  3  0  0  0  0  0  0
  190.7180  177.6620  144.0470 C   0  0  0  0  0  0  0  0  0  0  0  0
  191.2740  178.8790  143.6810 O   0  0  0  0  0  1  0  0  0  0  0  0
  189.6020  175.2070  144.8020 C   0  0  0  0  0  0  0  0  0  0  0  0
  189.6710  177.6220  144.9700 C   0  0  0  0  0  3  0  0  0  0  0  0
  189.0410  173.9890  145.1700 O   0  0  0  0  0  1  0  0  0  0  0  0
  189.1070  176.3980  145.3590 C   0  0  0  0  0  0  0  0  0  0  0  0
  190.6510  175.2440  143.8700 C   0  0  0  0  0  0  0  0  0  0  0  0
  187.9990  176.3250  146.2700 N   0  0  0  0  0  2  0  0  0  0  0  0
  185.9250  177.1760  145.2880 C   0  0  0  0  0  0  0  0  0  0  0  0
  184.7960  178.0110  145.3480 C   0  0  0  0  0  3  0  0  0  0  0  0
  184.5770  178.8280  146.4580 C   0  0  0  0  0  3  0  0  0  0  0  0
  186.6110  177.9950  147.4690 C   0  0  0  0  0  3  0  0  0  0  0  0
  185.4800  178.8150  147.5240 C   0  0  0  0  0  3  0  0  0  0  0  0
  186.8450  177.1770  146.3520 C   0  0  0  0  0  0  0  0  0  0  0  0
  186.1680  176.3310  144.1890 O   0  0  0  0  0  0  0  0  0  0  0  0
  187.3230  177.1950  142.3560 O   0  0  0  0  0  0  0  0  0  0  0  0
  186.2620  176.7200  142.8440 C   0  0  0  0  0  3  0  0  0  0  0  0
  196.1460  174.5720  145.1180 C   0  0  0  0  0  2  0  0  0  0  0  0
  196.6960  175.3520  143.9390 C   0  0  0  0  0  2  0  0  0  0  0  0
  196.0090  176.5580  143.8140 O   0  0  0  0  0  1  0  0  0  0  0  0
  1  2  1  0  0  0  0
  1 14  1  0  0  0  0
  2  6  1  0  0  0  0
  4 25  1  1  0  0  0
  4  9  1  0  0  0  0
  5 36  1  1  0  0  0
  5 10  1  0  0  0  0
  5  3  1  0  0  0  0
  6 11  1  0  0  0  0
  6  8  2  0  0  0  0
  7 12  1  0  0  0  0
  7 16  2  0  0  0  0
  8  4  1  0  0  0  0
 10 16  1  6  0  0  0
 10  3  1  0  0  0  0
 11 13  1  0  0  0  0
 12  5  1  0  0  0  0
 13  7  1  0  0  0  0
 14 15  2  0  0  0  0
 15  8  1  0  0  0  0
 16  9  1  0  0  0  0
 17  1  2  0  0  0  0
 18 25  2  0  0  0  0
 18 19  1  0  0  0  0
 19 22  2  0  0  0  0
 20 19  1  0  0  0  0
 21 23  1  0  0  0  0
 21 24  2  0  0  0  0
 22 24  1  0  0  0  0
 24 26  1  0  0  0  0
 25 21  1  0  0  0  0
 26 32  1  0  0  0  0
 27 28  2  0  0  0  0
 27 32  1  0  0  0  0
 28 29  1  0  0  0  0
 29 31  2  0  0  0  0
 30 31  1  0  0  0  0
 32 30  2  0  0  0  0
 33 27  1  0  0  0  0
 34 35  2  0  0  0  0
 35 33  1  0  0  0  0
 37 36  1  0  0  0  0
 38 37  1  0  0  0  0
M  END
>  <MODEL>
8

>  <REMARK>
 VINA RESULT:      -7.3      2.509      6.854
  Name = 
  7 active torsions:
  status: ('A' for Active; 'I' for Inactive)
    1  A    between atoms: C_1  and  O_35
    2  A    between atoms: C_6  and  C_12
    3  A    between atoms: C_6  and  C_25
    4  A    between atoms: C_10  and  C_38
    5  A    between atoms: C_20  and  O_35
    6  A    between atoms: N_30  and  C_31
    7  A    between atoms: N_30  and  C_34
                            x       y       z     vdW  Elec       q    Type
                         _______ _______ _______ _____ _____    ______ ____

>  <TORSDO>
F 7

$$$$
=
 OpenBabel11062419263D

 38 43  0  0  1  0  0  0  0  0999 V2000
  193.7590  176.3650  144.9910 C   0  0  0  0  0  0  0  0  0  0  0  0
  193.0180  176.5300  146.2890 C   0  0  0  0  0  2  0  0  0  0  0  0
  185.8000  176.7700  147.8630 O   0  0  0  0  0  0  0  0  0  0  0  0
  189.4030  176.0590  144.8520 C   0  0  2  0  0  3  0  0  0  0  0  0
  186.1540  177.9700  147.2260 C   0  0  2  0  0  0  0  0  0  0  0  0
  191.5150  176.4220  146.1620 C   0  0  0  0  0  0  0  0  0  0  0  0
  188.4660  177.5420  147.2470 C   0  0  0  0  0  0  0  0  0  0  0  0
  190.9130  176.0590  144.9970 C   0  0  0  0  0  0  0  0  0  0  0  0
  188.5920  175.4050  145.9630 C   0  0  0  0  0  2  0  0  0  0  0  0
  186.3930  176.6610  146.5800 C   0  0  1  0  0  3  0  0  0  0  0  0
  190.7560  176.6090  147.4460 C   0  0  0  0  0  2  0  0  0  0  0  0
  187.4890  178.5800  147.6460 C   0  0  0  0  0  2  0  0  0  0  0  0
  189.8520  177.7110  147.3840 O   0  0  0  0  0  0  0  0  0  0  0  0
  193.0510  175.9660  143.7730 C   0  0  0  0  0  3  0  0  0  0  0  0
  191.7300  175.8260  143.7820 C   0  0  0  0  0  3  0  0  0  0  0  0
  187.8690  176.4940  146.6850 C   0  0  0  0  0  0  0  0  0  0  0  0
  195.0020  176.5650  144.9510 O   0  0  0  0  0  0  0  0  0  0  0  0
  188.3220  176.9880  142.7670 C   0  0  0  0  0  3  0  0  0  0  0  0
  187.8490  176.8230  141.4660 C   0  0  0  0  0  0  0  0  0  0  0  0
  187.3710  177.9150  140.7570 O   0  0  0  0  0  1  0  0  0  0  0  0
  188.7970  174.6100  142.8980 C   0  0  0  0  0  0  0  0  0  0  0  0
  187.8560  175.5560  140.8770 C   0  0  0  0  0  3  0  0  0  0  0  0
  189.2770  173.5140  143.6060 O   0  0  0  0  0  1  0  0  0  0  0  0
  188.3240  174.4400  141.5860 C   0  0  0  0  0  0  0  0  0  0  0  0
  188.7960  175.8820  143.4920 C   0  0  0  0  0  0  0  0  0  0  0  0
  188.3890  173.1330  140.9940 N   0  0  0  0  0  2  0  0  0  0  0  0
  190.3540  172.0770  139.9880 C   0  0  0  0  0  0  0  0  0  0  0  0
  191.0750  171.6660  138.8550 C   0  0  0  0  0  3  0  0  0  0  0  0
  190.5610  171.8710  137.5740 C   0  0  0  0  0  3  0  0  0  0  0  0
  188.5950  172.9040  138.5320 C   0  0  0  0  0  3  0  0  0  0  0  0
  189.3150  172.4830  137.4110 C   0  0  0  0  0  3  0  0  0  0  0  0
  189.1090  172.7110  139.8250 C   0  0  0  0  0  0  0  0  0  0  0  0
  190.8390  171.8730  141.2940 O   0  0  0  0  0  0  0  0  0  0  0  0
  192.4120  172.4470  142.9170 O   0  0  0  0  0  0  0  0  0  0  0  0
  192.1520  172.0870  141.7370 C   0  0  0  0  0  3  0  0  0  0  0  0
  185.0260  178.7670  146.6010 C   0  0  0  0  0  2  0  0  0  0  0  0
  185.5660  179.6850  145.5220 C   0  0  0  0  0  2  0  0  0  0  0  0
  185.6400  178.9940  144.3130 O   0  0  0  0  0  1  0  0  0  0  0  0
  1  2  1  0  0  0  0
  4 25  1  6  0  0  0
  4  8  1  0  0  0  0
  4  9  1  0  0  0  0
  5 36  1  6  0  0  0
  5 12  1  0  0  0  0
  5  3  1  0  0  0  0
  6  2  1  0  0  0  0
  6 11  1  0  0  0  0
  7 13  1  0  0  0  0
  7 12  1  0  0  0  0
  8  6  2  0  0  0  0
  9 16  1  0  0  0  0
 10 16  1  1  0  0  0
 10  5  1  0  0  0  0
 10  3  1  0  0  0  0
 13 11  1  0  0  0  0
 14 15  2  0  0  0  0
 14  1  1  0  0  0  0
 15  8  1  0  0  0  0
 16  7  2  0  0  0  0
 17  1  2  0  0  0  0
 18 25  1  0  0  0  0
 19 18  2  0  0  0  0
 20 19  1  0  0  0  0
 21 25  2  0  0  0  0
 21 23  1  0  0  0  0
 22 19  1  0  0  0  0
 22 24  2  0  0  0  0
 24 21  1  0  0  0  0
 26 24  1  0  0  0  0
 27 33  1  0  0  0  0
 28 27  2  0  0  0  0
 29 28  1  0  0  0  0
 30 32  2  0  0  0  0
 31 29  2  0  0  0  0
 31 30  1  0  0  0  0
 32 27  1  0  0  0  0
 32 26  1  0  0  0  0
 33 35  1  0  0  0  0
 35 34  2  0  0  0  0
 37 36  1  0  0  0  0
 38 37  1  0  0  0  0
M  END
>  <MODEL>
9

>  <REMARK>
 VINA RESULT:      -7.2      2.154      4.338
  Name = 
  7 active torsions:
  status: ('A' for Active; 'I' for Inactive)
    1  A    between atoms: C_1  and  O_35
    2  A    between atoms: C_6  and  C_12
    3  A    between atoms: C_6  and  C_25
    4  A    between atoms: C_10  and  C_38
    5  A    between atoms: C_20  and  O_35
    6  A    between atoms: N_30  and  C_31
    7  A    between atoms: N_30  and  C_34
                            x       y       z     vdW  Elec       q    Type
                         _______ _______ _______ _____ _____    ______ ____

>  <TORSDO>
F 7

$$$$
