=
 OpenBabel11062421193D

 51 57  0  0  1  0  0  0  0  0999 V2000
  190.7690  173.4580  138.1970 C   0  0  1  0  0  3  0  0  0  0  0  0
  188.5320  172.4910  138.0650 O   0  0  0  0  0  0  0  0  0  0  0  0
  189.0670  173.9130  139.9490 C   0  0  2  0  0  3  0  0  0  0  0  0
  188.3650  172.6480  139.4610 C   0  0  0  0  0  2  0  0  0  0  0  0
  189.8990  172.2630  137.7690 C   0  0  2  0  0  3  0  0  0  0  0  0
  190.5600  173.7770  139.6690 C   0  0  0  0  0  2  0  0  0  0  0  0
  190.3960  170.9090  138.2880 C   0  0  0  0  0  3  0  0  0  0  0  0
  189.6180  169.7920  137.6120 C   0  0  0  0  0  2  0  0  0  0  0  0
  191.0170  170.1270  137.1400 C   0  0  0  0  0  2  0  0  0  0  0  0
  188.8460  174.0720  141.3220 O   0  0  0  0  0  0  0  0  0  0  0  0
  188.6640  175.4500  141.5050 C   0  0  2  0  0  3  0  0  0  0  0  0
  189.5160  173.8900  143.6850 O   0  0  0  0  0  0  0  0  0  0  0  0
  190.0450  177.2050  142.4820 O   0  0  0  0  0  1  0  0  0  0  0  0
  189.8920  175.0960  143.6650 C   0  0  0  0  0  0  0  0  0  0  0  0
  189.5770  175.9300  142.5390 N   0  0  0  0  0  0  0  0  0  0  0  0
  190.6580  175.6250  144.7460 N   0  0  0  0  0  2  0  0  0  0  0  0
  191.0070  174.8440  145.9220 C   0  0  0  0  0  2  0  0  0  0  0  0
  191.1540  175.1720  148.3030 O   0  0  0  0  0  1  0  0  0  0  0  0
  188.9840  174.7830  147.4050 C   0  0  0  0  0  1  0  0  0  0  0  0
  190.3510  175.3970  147.1860 C   0  0  2  0  0  3  0  0  0  0  0  0
  187.2120  175.7290  141.8840 C   0  0  0  0  0  2  0  0  0  0  0  0
  186.8730  177.2230  141.8190 C   0  0  1  0  0  3  0  0  0  0  0  0
  186.4270  177.5460  140.5380 O   0  0  0  0  0  0  0  0  0  0  0  0
  185.1680  178.1290  140.7240 C   0  0  0  0  0  1  0  0  0  0  0  0
  185.8280  177.6390  142.8650 C   0  0  0  0  0  2  0  0  0  0  0  0
  185.4750  179.2050  144.7750 C   0  0  0  0  0  2  0  0  0  0  0  0
  185.9410  177.8490  148.2330 N   0  0  0  0  0  1  0  0  0  0  0  0
  186.4380  178.1740  144.1690 C   0  0  1  0  0  3  0  0  0  0  0  0
  185.6460  176.7160  146.0800 C   0  0  0  0  0  2  0  0  0  0  0  0
  185.6210  179.2840  146.2990 C   0  0  0  0  0  2  0  0  0  0  0  0
  185.2780  177.9360  146.9470 C   0  0  2  0  0  3  0  0  0  0  0  0
  186.7940  177.0290  145.1230 C   0  0  0  0  0  2  0  0  0  0  0  0
  192.1480  173.2340  137.9350 O   0  0  0  0  0  0  0  0  0  0  0  0
  192.7930  173.8740  136.8740 C   0  0  0  0  0  0  0  0  0  0  0  0
  192.9640  173.2780  135.7770 O   0  0  0  0  0  0  0  0  0  0  0  0
  194.5820  175.2470  137.8120 N   0  0  2  0  0  0  0  0  0  0  0  0
  193.2950  175.2790  137.0410 C   0  0  1  0  0  3  0  0  0  0  0  0
  194.4710  175.4510  136.3370 C   0  0  0  0  0  2  0  0  0  0  0  0
  195.9620  175.6020  141.2050 C   0  0  1  0  0  3  0  0  0  0  0  0
  196.4340  174.3620  139.0540 C   0  0  0  0  0  2  0  0  0  0  0  0
  197.1620  174.3250  140.6800 S   0  0  0  0  0  0  0  0  0  0  0  0
  194.9740  175.6880  140.1950 O   0  0  0  0  0  0  0  0  0  0  0  0
  195.3260  175.0710  139.0130 C   0  0  1  0  0  3  0  0  0  0  0  0
  195.3830  175.2490  142.4350 O   0  0  0  0  0  0  0  0  0  0  0  0
  196.1520  175.8750  143.4440 C   0  0  1  0  0  0  0  0  0  0  0  0
  195.4600  176.1010  144.8110 C   0  0  2  0  0  0  0  0  0  0  0  0
  194.6760  175.3560  145.8510 C   0  0  0  0  0  2  0  0  0  0  0  0
  196.6550  175.0830  144.6070 C   0  0  1  0  0  3  0  0  0  0  0  0
  196.9310  176.9570  143.0530 O   0  0  0  0  0  1  0  0  0  0  0  0
  196.3040  173.5940  144.4450 C   0  0  0  0  0  1  0  0  0  0  0  0
  194.1400  175.6010  144.6030 O   0  0  0  0  0  0  0  0  0  0  0  0
  1 33  1  1  0  0  0
  1  6  1  0  0  0  0
  2  4  1  0  0  0  0
  3 10  1  1  0  0  0
  4  3  1  0  0  0  0
  5  2  1  0  0  0  0
  5  1  1  0  0  0  0
  5  7  1  1  0  0  0
  6  3  1  0  0  0  0
  8  7  1  0  0  0  0
  9  8  1  0  0  0  0
  9  7  1  0  0  0  0
 10 11  1  0  0  0  0
 11 21  1  1  0  0  0
 11 15  1  0  0  0  0
 13 15  1  0  0  0  0
 14 12  2  0  0  0  0
 14 16  1  0  0  0  0
 15 14  1  0  0  0  0
 16 17  1  0  0  0  0
 17 20  1  0  0  0  0
 20 19  1  1  0  0  0
 20 18  1  0  0  0  0
 22 21  1  6  0  0  0
 22 25  1  0  0  0  0
 23 24  1  0  0  0  0
 23 22  1  0  0  0  0
 26 30  1  0  0  0  0
 28 25  1  6  0  0  0
 28 26  1  0  0  0  0
 28 32  1  0  0  0  0
 29 31  1  0  0  0  0
 30 31  1  0  0  0  0
 31 27  1  1  0  0  0
 32 29  1  0  0  0  0
 34 33  1  0  0  0  0
 35 34  2  0  0  0  0
 36 38  1  6  0  0  0
 36 43  1  0  0  0  0
 37 34  1  6  0  0  0
 37 36  1  0  0  0  0
 38 37  1  0  0  0  0
 39 44  1  1  0  0  0
 40 41  1  0  0  0  0
 41 39  1  0  0  0  0
 42 39  1  0  0  0  0
 43 40  1  6  0  0  0
 43 42  1  0  0  0  0
 44 45  1  0  0  0  0
 45 49  1  6  0  0  0
 45 48  1  0  0  0  0
 45 46  1  0  0  0  0
 46 47  1  1  0  0  0
 48 50  1  6  0  0  0
 48 46  1  0  0  0  0
 51 46  1  0  0  0  0
 51 47  1  0  0  0  0
M  END
>  <MODEL>
1

>  <REMARK>
 VINA RESULT:      -7.2      0.000      0.000
  Name = 
  17 active torsions:
  status: ('A' for Active; 'I' for Inactive)
    1  A    between atoms: O_2  and  C_8
    2  A    between atoms: O_2  and  C_28
    3  A    between atoms: C_4  and  O_49
    4  A    between atoms: C_6  and  C_38
    5  A    between atoms: C_7  and  O_49
    6  A    between atoms: N_10  and  C_47
    7  A    between atoms: N_12  and  C_24
    8  A    between atoms: C_13  and  C_28
    9  A    between atoms: N_14  and  C_20
   10  A    between atoms: C_20  and  C_37
   11  A    between atoms: C_24  and  C_40
   12  A    between atoms: C_24  and  O_48
   13  A    between atoms: C_25  and  C_27
   14  A    between atoms: C_27  and  C_35
   15  A    between atoms: O_30  and  C_35
   16  A    between atoms: C_32  and  O_48
   17  A    between atoms: C_35  and  C_40
                            x       y       z     vdW  Elec       q    Type
                         _______ _______ _______ _____ _____    ______ ____

>  <TORSDO>
F 17

$$$$
=
 OpenBabel11062421193D

 51 57  0  0  1  0  0  0  0  0999 V2000
  193.9030  173.6790  144.5020 C   0  0  1  0  0  3  0  0  0  0  0  0
  194.9770  175.7060  145.3360 O   0  0  0  0  0  0  0  0  0  0  0  0
  192.6740  175.8360  144.6040 C   0  0  2  0  0  3  0  0  0  0  0  0
  194.0450  176.5070  144.6340 C   0  0  0  0  0  2  0  0  0  0  0  0
  195.2000  174.4990  144.6270 C   0  0  2  0  0  3  0  0  0  0  0  0
  192.8000  174.5090  143.8640 C   0  0  0  0  0  2  0  0  0  0  0  0
  195.9290  174.7220  143.2980 C   0  0  0  0  0  3  0  0  0  0  0  0
  197.2520  175.4240  143.5590 C   0  0  0  0  0  2  0  0  0  0  0  0
  197.2300  173.9320  143.2990 C   0  0  0  0  0  2  0  0  0  0  0  0
  191.7580  176.6680  143.9500 O   0  0  0  0  0  0  0  0  0  0  0  0
  190.4960  176.1920  144.3290 C   0  0  2  0  0  3  0  0  0  0  0  0
  189.3920  173.7180  143.5730 O   0  0  0  0  0  0  0  0  0  0  0  0
  189.4150  177.0580  142.3220 O   0  0  0  0  0  1  0  0  0  0  0  0
  189.2180  174.6870  142.7810 C   0  0  0  0  0  0  0  0  0  0  0  0
  189.6690  176.0020  143.1410 N   0  0  0  0  0  0  0  0  0  0  0  0
  188.5420  174.4840  141.5410 N   0  0  0  0  0  2  0  0  0  0  0  0
  188.0650  173.1800  141.1060 C   0  0  0  0  0  2  0  0  0  0  0  0
  189.9290  172.5800  139.7040 O   0  0  0  0  0  1  0  0  0  0  0  0
  188.2450  173.9490  138.7250 C   0  0  0  0  0  1  0  0  0  0  0  0
  188.5580  172.8350  139.7020 C   0  0  2  0  0  3  0  0  0  0  0  0
  189.8450  177.1780  145.2960 C   0  0  0  0  0  2  0  0  0  0  0  0
  188.8830  176.4860  146.2690 C   0  0  1  0  0  3  0  0  0  0  0  0
  189.6110  175.8620  147.2820 O   0  0  0  0  0  0  0  0  0  0  0  0
  189.0670  174.5760  147.3850 C   0  0  0  0  0  1  0  0  0  0  0  0
  187.8550  177.4540  146.8730 C   0  0  0  0  0  2  0  0  0  0  0  0
  185.5130  178.3080  146.9770 C   0  0  0  0  0  2  0  0  0  0  0  0
  183.7510  178.9220  143.7320 N   0  0  0  0  0  1  0  0  0  0  0  0
  186.4260  177.2400  146.3550 C   0  0  1  0  0  3  0  0  0  0  0  0
  186.1260  178.6030  144.2440 C   0  0  0  0  0  2  0  0  0  0  0  0
  184.3120  178.6140  146.0750 C   0  0  0  0  0  2  0  0  0  0  0  0
  184.7770  179.1730  144.7240 C   0  0  2  0  0  3  0  0  0  0  0  0
  186.3900  177.2150  144.8250 C   0  0  0  0  0  2  0  0  0  0  0  0
  194.1010  172.4790  143.7680 O   0  0  0  0  0  0  0  0  0  0  0  0
  193.3900  171.3170  144.0810 C   0  0  0  0  0  0  0  0  0  0  0  0
  193.7560  170.5830  145.0370 O   0  0  0  0  0  0  0  0  0  0  0  0
  192.6130  170.7010  141.8490 N   0  0  2  0  0  0  0  0  0  0  0  0
  192.1870  170.9340  143.2690 C   0  0  1  0  0  3  0  0  0  0  0  0
  192.3000  169.6270  142.8380 C   0  0  0  0  0  2  0  0  0  0  0  0
  193.9160  172.7460  139.0800 C   0  0  1  0  0  3  0  0  0  0  0  0
  192.7330  170.5450  139.4580 C   0  0  0  0  0  2  0  0  0  0  0  0
  193.4080  171.3470  138.0170 S   0  0  0  0  0  0  0  0  0  0  0  0
  193.7880  172.3180  140.4240 O   0  0  0  0  0  0  0  0  0  0  0  0
  193.0540  171.1610  140.5760 C   0  0  1  0  0  3  0  0  0  0  0  0
  195.2440  173.1110  138.8010 O   0  0  0  0  0  0  0  0  0  0  0  0
  195.2540  174.5160  138.6330 C   0  0  1  0  0  0  0  0  0  0  0  0
  196.4340  175.2870  139.2760 C   0  0  2  0  0  0  0  0  0  0  0  0
  197.9330  175.2690  139.3400 C   0  0  0  0  0  2  0  0  0  0  0  0
  196.2390  175.1560  137.7100 C   0  0  1  0  0  3  0  0  0  0  0  0
  194.0400  175.1710  138.7880 O   0  0  0  0  0  1  0  0  0  0  0  0
  197.0690  174.0900  136.9750 C   0  0  0  0  0  1  0  0  0  0  0  0
  197.1890  174.2640  139.9220 O   0  0  0  0  0  0  0  0  0  0  0  0
  1 33  1  6  0  0  0
  1  5  1  0  0  0  0
  3 10  1  6  0  0  0
  3  4  1  0  0  0  0
  4  2  1  0  0  0  0
  5  7  1  6  0  0  0
  5  2  1  0  0  0  0
  6  1  1  0  0  0  0
  6  3  1  0  0  0  0
  7  9  1  0  0  0  0
  7  8  1  0  0  0  0
  9  8  1  0  0  0  0
 10 11  1  0  0  0  0
 11 21  1  1  0  0  0
 13 15  1  0  0  0  0
 14 15  1  0  0  0  0
 14 12  2  0  0  0  0
 15 11  1  0  0  0  0
 16 14  1  0  0  0  0
 17 16  1  0  0  0  0
 20 19  1  6  0  0  0
 20 18  1  0  0  0  0
 20 17  1  0  0  0  0
 22 21  1  6  0  0  0
 22 25  1  0  0  0  0
 22 23  1  0  0  0  0
 23 24  1  0  0  0  0
 28 25  1  6  0  0  0
 28 26  1  0  0  0  0
 29 31  1  0  0  0  0
 29 32  1  0  0  0  0
 30 26  1  0  0  0  0
 31 27  1  6  0  0  0
 31 30  1  0  0  0  0
 32 28  1  0  0  0  0
 33 34  1  0  0  0  0
 34 35  2  0  0  0  0
 36 38  1  1  0  0  0
 36 37  1  0  0  0  0
 37 34  1  1  0  0  0
 38 37  1  0  0  0  0
 39 44  1  6  0  0  0
 39 42  1  0  0  0  0
 41 39  1  0  0  0  0
 41 40  1  0  0  0  0
 42 43  1  0  0  0  0
 43 40  1  6  0  0  0
 43 36  1  0  0  0  0
 45 49  1  1  0  0  0
 45 44  1  0  0  0  0
 45 46  1  0  0  0  0
 46 47  1  1  0  0  0
 46 51  1  0  0  0  0
 47 51  1  0  0  0  0
 48 50  1  1  0  0  0
 48 45  1  0  0  0  0
 48 46  1  0  0  0  0
M  END
>  <MODEL>
2

>  <REMARK>
 VINA RESULT:      -7.1      2.562      6.257
  Name = 
  17 active torsions:
  status: ('A' for Active; 'I' for Inactive)
    1  A    between atoms: O_2  and  C_8
    2  A    between atoms: O_2  and  C_28
    3  A    between atoms: C_4  and  O_49
    4  A    between atoms: C_6  and  C_38
    5  A    between atoms: C_7  and  O_49
    6  A    between atoms: N_10  and  C_47
    7  A    between atoms: N_12  and  C_24
    8  A    between atoms: C_13  and  C_28
    9  A    between atoms: N_14  and  C_20
   10  A    between atoms: C_20  and  C_37
   11  A    between atoms: C_24  and  C_40
   12  A    between atoms: C_24  and  O_48
   13  A    between atoms: C_25  and  C_27
   14  A    between atoms: C_27  and  C_35
   15  A    between atoms: O_30  and  C_35
   16  A    between atoms: C_32  and  O_48
   17  A    between atoms: C_35  and  C_40
                            x       y       z     vdW  Elec       q    Type
                         _______ _______ _______ _____ _____    ______ ____

>  <TORSDO>
F 17

$$$$
=
 OpenBabel11062421193D

 51 57  0  0  1  0  0  0  0  0999 V2000
  191.1650  171.4680  139.8440 C   0  0  1  0  0  3  0  0  0  0  0  0
  190.3460  173.2970  138.4500 O   0  0  0  0  0  0  0  0  0  0  0  0
  189.5100  173.1050  140.7130 C   0  0  2  0  0  3  0  0  0  0  0  0
  189.1850  173.4100  139.2520 C   0  0  0  0  0  2  0  0  0  0  0  0
  190.7870  171.9490  138.4320 C   0  0  2  0  0  3  0  0  0  0  0  0
  190.0070  171.6670  140.8100 C   0  0  0  0  0  2  0  0  0  0  0  0
  189.8150  171.0220  137.6940 C   0  0  0  0  0  3  0  0  0  0  0  0
  189.6600  171.4930  136.2570 C   0  0  0  0  0  2  0  0  0  0  0  0
  190.5540  170.3120  136.5700 C   0  0  0  0  0  2  0  0  0  0  0  0
  188.3590  173.2710  141.4930 O   0  0  0  0  0  0  0  0  0  0  0  0
  188.5190  174.5140  142.1200 C   0  0  2  0  0  3  0  0  0  0  0  0
  190.0550  176.5190  143.3570 O   0  0  0  0  0  0  0  0  0  0  0  0
  189.1580  173.1330  144.0250 O   0  0  0  0  0  1  0  0  0  0  0  0
  190.0520  175.3820  143.9070 C   0  0  0  0  0  0  0  0  0  0  0  0
  189.2180  174.3340  143.3890 N   0  0  0  0  0  0  0  0  0  0  0  0
  190.8530  175.1450  145.0640 N   0  0  0  0  0  2  0  0  0  0  0  0
  191.7280  176.1550  145.6390 C   0  0  0  0  0  2  0  0  0  0  0  0
  191.3300  175.3350  147.8670 O   0  0  0  0  0  1  0  0  0  0  0  0
  189.9910  177.1650  147.1420 C   0  0  0  0  0  1  0  0  0  0  0  0
  191.3440  176.4850  147.0790 C   0  0  2  0  0  3  0  0  0  0  0  0
  187.1530  175.1600  142.3350 C   0  0  0  0  0  2  0  0  0  0  0  0
  187.1460  176.6430  141.9480 C   0  0  1  0  0  3  0  0  0  0  0  0
  187.5140  176.7790  140.6090 O   0  0  0  0  0  0  0  0  0  0  0  0
  186.4580  177.4740  140.0080 C   0  0  0  0  0  1  0  0  0  0  0  0
  185.7860  177.3130  142.1950 C   0  0  0  0  0  2  0  0  0  0  0  0
  184.3360  178.5190  143.8280 C   0  0  0  0  0  2  0  0  0  0  0  0
  185.2690  178.3180  147.4480 N   0  0  0  0  0  1  0  0  0  0  0  0
  185.7860  178.2970  143.3730 C   0  0  1  0  0  3  0  0  0  0  0  0
  185.9690  176.9730  145.5220 C   0  0  0  0  0  2  0  0  0  0  0  0
  184.2630  178.8940  145.3120 C   0  0  0  0  0  2  0  0  0  0  0  0
  184.8240  177.7630  146.1850 C   0  0  2  0  0  3  0  0  0  0  0  0
  186.7150  177.8180  144.4920 C   0  0  0  0  0  2  0  0  0  0  0  0
  191.5810  170.1100  139.8500 O   0  0  0  0  0  0  0  0  0  0  0  0
  192.8950  169.7600  140.1710 C   0  0  0  0  0  0  0  0  0  0  0  0
  193.8620  170.4300  139.7220 O   0  0  0  0  0  0  0  0  0  0  0  0
  193.2160  169.0270  142.4790 N   0  0  2  0  0  0  0  0  0  0  0  0
  193.1600  168.5720  141.0500 C   0  0  1  0  0  3  0  0  0  0  0  0
  192.0630  168.3180  141.8500 C   0  0  0  0  0  2  0  0  0  0  0  0
  195.2300  171.3290  144.5270 C   0  0  1  0  0  3  0  0  0  0  0  0
  193.9900  169.1380  144.7470 C   0  0  0  0  0  2  0  0  0  0  0  0
  194.8380  170.1940  145.9060 S   0  0  0  0  0  0  0  0  0  0  0  0
  194.4310  170.9400  143.4240 O   0  0  0  0  0  0  0  0  0  0  0  0
  193.8540  169.6950  143.5630 C   0  0  1  0  0  3  0  0  0  0  0  0
  194.9520  172.6560  144.8950 O   0  0  0  0  0  0  0  0  0  0  0  0
  196.0050  173.4510  144.3840 C   0  0  1  0  0  0  0  0  0  0  0  0
  195.6070  174.6120  143.4390 C   0  0  2  0  0  0  0  0  0  0  0  0
  194.6700  175.7830  143.3710 C   0  0  0  0  0  2  0  0  0  0  0  0
  196.2070  174.8440  144.8860 C   0  0  1  0  0  3  0  0  0  0  0  0
  197.1420  172.7790  143.9570 O   0  0  0  0  0  1  0  0  0  0  0  0
  195.2220  175.1620  146.0240 C   0  0  0  0  0  1  0  0  0  0  0  0
  194.1900  174.4890  143.3380 O   0  0  0  0  0  0  0  0  0  0  0  0
  1 33  1  6  0  0  0
  1  6  1  0  0  0  0
  2  4  1  0  0  0  0
  3  6  1  0  0  0  0
  3 10  1  1  0  0  0
  4  3  1  0  0  0  0
  5  7  1  1  0  0  0
  5  2  1  0  0  0  0
  5  1  1  0  0  0  0
  8  9  1  0  0  0  0
  8  7  1  0  0  0  0
  9  7  1  0  0  0  0
 10 11  1  0  0  0  0
 11 21  1  1  0  0  0
 11 15  1  0  0  0  0
 12 14  2  0  0  0  0
 14 16  1  0  0  0  0
 15 14  1  0  0  0  0
 15 13  1  0  0  0  0
 16 17  1  0  0  0  0
 17 20  1  0  0  0  0
 20 19  1  6  0  0  0
 20 18  1  0  0  0  0
 22 25  1  6  0  0  0
 22 21  1  0  0  0  0
 23 22  1  0  0  0  0
 24 23  1  0  0  0  0
 26 30  1  0  0  0  0
 28 25  1  6  0  0  0
 28 26  1  0  0  0  0
 28 32  1  0  0  0  0
 29 31  1  0  0  0  0
 30 31  1  0  0  0  0
 31 27  1  1  0  0  0
 32 29  1  0  0  0  0
 33 34  1  0  0  0  0
 35 34  2  0  0  0  0
 36 38  1  6  0  0  0
 36 43  1  0  0  0  0
 37 34  1  6  0  0  0
 37 38  1  0  0  0  0
 37 36  1  0  0  0  0
 39 44  1  1  0  0  0
 39 41  1  0  0  0  0
 40 41  1  0  0  0  0
 42 43  1  0  0  0  0
 42 39  1  0  0  0  0
 43 40  1  6  0  0  0
 45 49  1  6  0  0  0
 45 48  1  0  0  0  0
 45 44  1  0  0  0  0
 46 47  1  6  0  0  0
 46 45  1  0  0  0  0
 46 48  1  0  0  0  0
 48 50  1  1  0  0  0
 51 47  1  0  0  0  0
 51 46  1  0  0  0  0
M  END
>  <MODEL>
3

>  <REMARK>
 VINA RESULT:      -7.1      2.580      3.577
  Name = 
  17 active torsions:
  status: ('A' for Active; 'I' for Inactive)
    1  A    between atoms: O_2  and  C_8
    2  A    between atoms: O_2  and  C_28
    3  A    between atoms: C_4  and  O_49
    4  A    between atoms: C_6  and  C_38
    5  A    between atoms: C_7  and  O_49
    6  A    between atoms: N_10  and  C_47
    7  A    between atoms: N_12  and  C_24
    8  A    between atoms: C_13  and  C_28
    9  A    between atoms: N_14  and  C_20
   10  A    between atoms: C_20  and  C_37
   11  A    between atoms: C_24  and  C_40
   12  A    between atoms: C_24  and  O_48
   13  A    between atoms: C_25  and  C_27
   14  A    between atoms: C_27  and  C_35
   15  A    between atoms: O_30  and  C_35
   16  A    between atoms: C_32  and  O_48
   17  A    between atoms: C_35  and  C_40
                            x       y       z     vdW  Elec       q    Type
                         _______ _______ _______ _____ _____    ______ ____

>  <TORSDO>
F 17

$$$$
=
 OpenBabel11062421193D

 51 57  0  0  1  0  0  0  0  0999 V2000
  191.0570  173.7680  137.9940 C   0  0  1  0  0  3  0  0  0  0  0  0
  188.7060  173.6910  137.3430 O   0  0  0  0  0  0  0  0  0  0  0  0
  189.2740  173.3340  139.6680 C   0  0  2  0  0  3  0  0  0  0  0  0
  188.3990  172.9190  138.4890 C   0  0  0  0  0  2  0  0  0  0  0  0
  190.0260  173.4030  136.9120 C   0  0  2  0  0  3  0  0  0  0  0  0
  190.7320  173.0720  139.3070 C   0  0  0  0  0  2  0  0  0  0  0  0
  190.1690  171.9780  136.3660 C   0  0  0  0  0  3  0  0  0  0  0  0
  189.3350  171.8350  135.1030 C   0  0  0  0  0  2  0  0  0  0  0  0
  190.8330  172.0290  134.9970 C   0  0  0  0  0  2  0  0  0  0  0  0
  188.9180  172.5910  140.8010 O   0  0  0  0  0  0  0  0  0  0  0  0
  189.2160  173.4210  141.8900 C   0  0  2  0  0  3  0  0  0  0  0  0
  191.9860  173.3850  142.3740 O   0  0  0  0  0  0  0  0  0  0  0  0
  189.0760  171.8470  143.7470 O   0  0  0  0  0  1  0  0  0  0  0  0
  191.2750  172.6050  143.0680 C   0  0  0  0  0  0  0  0  0  0  0  0
  189.8450  172.6330  142.9460 N   0  0  0  0  0  0  0  0  0  0  0  0
  191.8890  171.7160  144.0000 N   0  0  0  0  0  2  0  0  0  0  0  0
  193.3320  171.6250  144.1720 C   0  0  0  0  0  2  0  0  0  0  0  0
  192.7110  169.3020  144.2880 O   0  0  0  0  0  1  0  0  0  0  0  0
  194.5120  170.0030  145.6780 C   0  0  0  0  0  1  0  0  0  0  0  0
  193.7910  170.1810  144.3580 C   0  0  2  0  0  3  0  0  0  0  0  0
  187.9380  174.0880  142.3920 C   0  0  0  0  0  2  0  0  0  0  0  0
  188.0770  175.6110  142.4860 C   0  0  1  0  0  3  0  0  0  0  0  0
  188.4550  176.1240  141.2450 O   0  0  0  0  0  0  0  0  0  0  0  0
  187.3130  176.7650  140.7500 C   0  0  0  0  0  1  0  0  0  0  0  0
  186.7900  176.2940  142.9730 C   0  0  0  0  0  2  0  0  0  0  0  0
  186.0800  178.5080  143.8790 C   0  0  0  0  0  2  0  0  0  0  0  0
  185.1890  178.6850  147.5110 N   0  0  0  0  0  1  0  0  0  0  0  0
  187.0180  177.3120  144.0990 C   0  0  1  0  0  3  0  0  0  0  0  0
  185.4390  176.7710  146.0000 C   0  0  0  0  0  2  0  0  0  0  0  0
  185.7350  179.2030  145.2010 C   0  0  0  0  0  2  0  0  0  0  0  0
  185.0000  178.2410  146.1440 C   0  0  2  0  0  3  0  0  0  0  0  0
  186.8680  176.6570  145.4750 C   0  0  0  0  0  2  0  0  0  0  0  0
  192.3840  173.4590  137.5900 O   0  0  0  0  0  0  0  0  0  0  0  0
  193.3130  174.4700  137.3300 C   0  0  0  0  0  0  0  0  0  0  0  0
  192.9320  175.5970  136.9170 O   0  0  0  0  0  0  0  0  0  0  0  0
  195.0880  174.3110  139.0010 N   0  0  2  0  0  0  0  0  0  0  0  0
  194.7770  174.2110  137.5360 C   0  0  1  0  0  3  0  0  0  0  0  0
  194.9590  173.0350  138.2360 C   0  0  0  0  0  2  0  0  0  0  0  0
  194.5590  176.1450  142.1480 C   0  0  1  0  0  3  0  0  0  0  0  0
  196.3760  175.7350  140.4390 C   0  0  0  0  0  2  0  0  0  0  0  0
  196.3290  176.5830  142.0060 S   0  0  0  0  0  0  0  0  0  0  0  0
  194.2890  175.1700  141.1570 O   0  0  0  0  0  0  0  0  0  0  0  0
  195.2750  175.0550  140.2000 C   0  0  1  0  0  3  0  0  0  0  0  0
  194.2840  175.6390  143.4290 O   0  0  0  0  0  0  0  0  0  0  0  0
  193.1340  176.3170  143.8970 C   0  0  1  0  0  0  0  0  0  0  0  0
  192.4430  175.7320  145.1550 C   0  0  2  0  0  0  0  0  0  0  0  0
  192.7640  175.2800  146.5500 C   0  0  0  0  0  2  0  0  0  0  0  0
  193.1970  177.1250  145.1530 C   0  0  1  0  0  3  0  0  0  0  0  0
  192.2260  176.7420  142.9370 O   0  0  0  0  0  1  0  0  0  0  0  0
  194.6320  177.1600  145.7070 C   0  0  0  0  0  1  0  0  0  0  0  0
  193.2220  174.5750  145.4550 O   0  0  0  0  0  0  0  0  0  0  0  0
  1 33  1  6  0  0  0
  1  6  1  0  0  0  0
  2  4  1  0  0  0  0
  3 10  1  1  0  0  0
  4  3  1  0  0  0  0
  5  7  1  1  0  0  0
  5  2  1  0  0  0  0
  5  1  1  0  0  0  0
  6  3  1  0  0  0  0
  8  7  1  0  0  0  0
  9  8  1  0  0  0  0
  9  7  1  0  0  0  0
 10 11  1  0  0  0  0
 11 21  1  1  0  0  0
 11 15  1  0  0  0  0
 12 14  2  0  0  0  0
 14 16  1  0  0  0  0
 15 14  1  0  0  0  0
 15 13  1  0  0  0  0
 16 17  1  0  0  0  0
 17 20  1  0  0  0  0
 18 20  1  0  0  0  0
 20 19  1  1  0  0  0
 22 21  1  6  0  0  0
 22 25  1  0  0  0  0
 23 22  1  0  0  0  0
 24 23  1  0  0  0  0
 26 28  1  0  0  0  0
 26 30  1  0  0  0  0
 28 25  1  6  0  0  0
 28 32  1  0  0  0  0
 29 31  1  0  0  0  0
 30 31  1  0  0  0  0
 31 27  1  1  0  0  0
 32 29  1  0  0  0  0
 34 33  1  0  0  0  0
 35 34  2  0  0  0  0
 36 38  1  1  0  0  0
 36 43  1  0  0  0  0
 37 34  1  1  0  0  0
 37 38  1  0  0  0  0
 37 36  1  0  0  0  0
 39 44  1  1  0  0  0
 40 41  1  0  0  0  0
 41 39  1  0  0  0  0
 42 39  1  0  0  0  0
 43 40  1  6  0  0  0
 43 42  1  0  0  0  0
 44 45  1  0  0  0  0
 45 49  1  6  0  0  0
 45 48  1  0  0  0  0
 45 46  1  0  0  0  0
 46 51  1  0  0  0  0
 46 47  1  1  0  0  0
 48 46  1  0  0  0  0
 48 50  1  1  0  0  0
 51 47  1  0  0  0  0
M  END
>  <MODEL>
4

>  <REMARK>
 VINA RESULT:      -7.1      2.170      2.951
  Name = 
  17 active torsions:
  status: ('A' for Active; 'I' for Inactive)
    1  A    between atoms: O_2  and  C_8
    2  A    between atoms: O_2  and  C_28
    3  A    between atoms: C_4  and  O_49
    4  A    between atoms: C_6  and  C_38
    5  A    between atoms: C_7  and  O_49
    6  A    between atoms: N_10  and  C_47
    7  A    between atoms: N_12  and  C_24
    8  A    between atoms: C_13  and  C_28
    9  A    between atoms: N_14  and  C_20
   10  A    between atoms: C_20  and  C_37
   11  A    between atoms: C_24  and  C_40
   12  A    between atoms: C_24  and  O_48
   13  A    between atoms: C_25  and  C_27
   14  A    between atoms: C_27  and  C_35
   15  A    between atoms: O_30  and  C_35
   16  A    between atoms: C_32  and  O_48
   17  A    between atoms: C_35  and  C_40
                            x       y       z     vdW  Elec       q    Type
                         _______ _______ _______ _____ _____    ______ ____

>  <TORSDO>
F 17

$$$$
=
 OpenBabel11062421193D

 51 57  0  0  1  0  0  0  0  0999 V2000
  188.6030  174.1380  142.4210 C   0  0  1  0  0  3  0  0  0  0  0  0
  189.5220  171.9030  142.7630 O   0  0  0  0  0  0  0  0  0  0  0  0
  189.9510  173.5970  144.4370 C   0  0  2  0  0  3  0  0  0  0  0  0
  190.5080  172.4250  143.6330 C   0  0  0  0  0  2  0  0  0  0  0  0
  189.1920  172.8690  141.7790 C   0  0  2  0  0  3  0  0  0  0  0  0
  189.5510  174.7040  143.4670 C   0  0  0  0  0  2  0  0  0  0  0  0
  190.3450  173.1380  140.8060 C   0  0  0  0  0  3  0  0  0  0  0  0
  190.6120  171.8890  139.9820 C   0  0  0  0  0  2  0  0  0  0  0  0
  189.8310  173.0370  139.3770 C   0  0  0  0  0  2  0  0  0  0  0  0
  190.9270  174.0640  145.3240 O   0  0  0  0  0  0  0  0  0  0  0  0
  191.4750  175.1950  144.7030 C   0  0  2  0  0  3  0  0  0  0  0  0
  192.5800  176.4280  142.4300 O   0  0  0  0  0  0  0  0  0  0  0  0
  193.5380  173.8980  144.7520 O   0  0  0  0  0  1  0  0  0  0  0  0
  193.2400  175.4820  142.9440 C   0  0  0  0  0  0  0  0  0  0  0  0
  192.7890  174.8650  144.1600 N   0  0  0  0  0  0  0  0  0  0  0  0
  194.4540  175.0440  142.3350 N   0  0  0  0  0  2  0  0  0  0  0  0
  194.9680  175.6150  141.1000 C   0  0  0  0  0  2  0  0  0  0  0  0
  197.2950  174.9970  141.1440 O   0  0  0  0  0  1  0  0  0  0  0  0
  196.6320  176.7870  142.5670 C   0  0  0  0  0  1  0  0  0  0  0  0
  196.4170  176.0750  141.2470 C   0  0  2  0  0  3  0  0  0  0  0  0
  191.5700  176.3380  145.7100 C   0  0  0  0  0  2  0  0  0  0  0  0
  190.2290  176.6210  146.3960 C   0  0  1  0  0  3  0  0  0  0  0  0
  190.4560  177.1390  147.6710 O   0  0  0  0  0  0  0  0  0  0  0  0
  191.4770  176.3490  148.2120 C   0  0  0  0  0  1  0  0  0  0  0  0
  189.3390  177.5750  145.5860 C   0  0  0  0  0  2  0  0  0  0  0  0
  187.3660  176.6410  146.7940 C   0  0  0  0  0  2  0  0  0  0  0  0
  184.0530  178.2900  146.2320 N   0  0  0  0  0  1  0  0  0  0  0  0
  187.8940  177.0830  145.4220 C   0  0  1  0  0  3  0  0  0  0  0  0
  186.3350  179.0470  145.7580 C   0  0  0  0  0  2  0  0  0  0  0  0
  185.8420  176.7810  146.8830 C   0  0  0  0  0  2  0  0  0  0  0  0
  185.4220  178.2470  146.7060 C   0  0  2  0  0  3  0  0  0  0  0  0
  187.0240  178.1420  144.7390 C   0  0  0  0  0  2  0  0  0  0  0  0
  188.2930  175.1300  141.4520 O   0  0  0  0  0  0  0  0  0  0  0  0
  187.1480  175.9220  141.5720 C   0  0  0  0  0  0  0  0  0  0  0  0
  186.3840  175.7940  142.5650 O   0  0  0  0  0  0  0  0  0  0  0  0
  185.7490  177.8470  141.0200 N   0  0  2  0  0  0  0  0  0  0  0  0
  186.8200  176.9290  140.5080 C   0  0  1  0  0  3  0  0  0  0  0  0
  187.1970  178.1930  140.9160 C   0  0  0  0  0  2  0  0  0  0  0  0
  182.1920  178.7940  140.9950 C   0  0  1  0  0  3  0  0  0  0  0  0
  184.0510  178.3330  142.6440 C   0  0  0  0  0  2  0  0  0  0  0  0
  182.3110  178.6770  142.8160 S   0  0  0  0  0  0  0  0  0  0  0  0
  183.3960  178.2720  140.4630 O   0  0  0  0  0  0  0  0  0  0  0  0
  184.4030  178.1270  141.3930 C   0  0  1  0  0  3  0  0  0  0  0  0
  181.0870  178.0620  140.5310 O   0  0  0  0  0  0  0  0  0  0  0  0
  179.9940  178.9590  140.4810 C   0  0  1  0  0  0  0  0  0  0  0  0
  178.7770  178.5300  139.6230 C   0  0  2  0  0  0  0  0  0  0  0  0
  177.8500  177.3670  139.4250 C   0  0  0  0  0  2  0  0  0  0  0  0
  178.7250  178.6390  141.2020 C   0  0  1  0  0  3  0  0  0  0  0  0
  180.2990  180.3060  140.3410 O   0  0  0  0  0  1  0  0  0  0  0  0
  178.8710  177.3390  142.0120 C   0  0  0  0  0  1  0  0  0  0  0  0
  179.1820  177.2780  139.0740 O   0  0  0  0  0  0  0  0  0  0  0  0
  1 33  1  6  0  0  0
  1  6  1  0  0  0  0
  2  4  1  0  0  0  0
  3 10  1  1  0  0  0
  4  3  1  0  0  0  0
  5  7  1  1  0  0  0
  5  1  1  0  0  0  0
  5  2  1  0  0  0  0
  6  3  1  0  0  0  0
  8  7  1  0  0  0  0
  9  8  1  0  0  0  0
  9  7  1  0  0  0  0
 11 10  1  0  0  0  0
 11 21  1  1  0  0  0
 12 14  2  0  0  0  0
 14 15  1  0  0  0  0
 15 11  1  0  0  0  0
 15 13  1  0  0  0  0
 16 14  1  0  0  0  0
 17 20  1  0  0  0  0
 17 16  1  0  0  0  0
 18 20  1  0  0  0  0
 20 19  1  1  0  0  0
 21 22  1  0  0  0  0
 22 25  1  6  0  0  0
 22 23  1  0  0  0  0
 23 24  1  0  0  0  0
 26 30  1  0  0  0  0
 28 25  1  1  0  0  0
 28 26  1  0  0  0  0
 29 31  1  0  0  0  0
 31 27  1  6  0  0  0
 31 30  1  0  0  0  0
 32 28  1  0  0  0  0
 32 29  1  0  0  0  0
 33 34  1  0  0  0  0
 34 35  2  0  0  0  0
 36 38  1  1  0  0  0
 36 43  1  0  0  0  0
 37 38  1  0  0  0  0
 37 36  1  0  0  0  0
 37 34  1  1  0  0  0
 39 44  1  6  0  0  0
 39 41  1  0  0  0  0
 40 41  1  0  0  0  0
 42 39  1  0  0  0  0
 42 43  1  0  0  0  0
 43 40  1  6  0  0  0
 45 49  1  6  0  0  0
 45 44  1  0  0  0  0
 45 48  1  0  0  0  0
 46 47  1  6  0  0  0
 46 45  1  0  0  0  0
 46 48  1  0  0  0  0
 48 50  1  1  0  0  0
 51 47  1  0  0  0  0
 51 46  1  0  0  0  0
M  END
>  <MODEL>
5

>  <REMARK>
 VINA RESULT:      -7.1      3.868      9.442
  Name = 
  17 active torsions:
  status: ('A' for Active; 'I' for Inactive)
    1  A    between atoms: O_2  and  C_8
    2  A    between atoms: O_2  and  C_28
    3  A    between atoms: C_4  and  O_49
    4  A    between atoms: C_6  and  C_38
    5  A    between atoms: C_7  and  O_49
    6  A    between atoms: N_10  and  C_47
    7  A    between atoms: N_12  and  C_24
    8  A    between atoms: C_13  and  C_28
    9  A    between atoms: N_14  and  C_20
   10  A    between atoms: C_20  and  C_37
   11  A    between atoms: C_24  and  C_40
   12  A    between atoms: C_24  and  O_48
   13  A    between atoms: C_25  and  C_27
   14  A    between atoms: C_27  and  C_35
   15  A    between atoms: O_30  and  C_35
   16  A    between atoms: C_32  and  O_48
   17  A    between atoms: C_35  and  C_40
                            x       y       z     vdW  Elec       q    Type
                         _______ _______ _______ _____ _____    ______ ____

>  <TORSDO>
F 17

$$$$
=
 OpenBabel11062421193D

 51 57  0  0  1  0  0  0  0  0999 V2000
  193.6650  172.9430  144.0550 C   0  0  1  0  0  3  0  0  0  0  0  0
  194.2640  170.9840  142.7280 O   0  0  0  0  0  0  0  0  0  0  0  0
  192.1930  172.1310  142.2260 C   0  0  2  0  0  3  0  0  0  0  0  0
  192.9080  170.7900  142.3740 C   0  0  0  0  0  2  0  0  0  0  0  0
  194.3430  171.5630  144.0200 C   0  0  2  0  0  3  0  0  0  0  0  0
  192.2270  172.8500  143.5700 C   0  0  0  0  0  2  0  0  0  0  0  0
  193.8740  170.6070  145.1230 C   0  0  0  0  0  3  0  0  0  0  0  0
  194.6440  169.3000  145.0200 C   0  0  0  0  0  2  0  0  0  0  0  0
  195.0330  170.3220  146.0680 C   0  0  0  0  0  2  0  0  0  0  0  0
  190.8690  171.9150  141.8270 O   0  0  0  0  0  0  0  0  0  0  0  0
  190.6500  172.8210  140.7800 C   0  0  2  0  0  3  0  0  0  0  0  0
  189.9410  175.0980  142.2710 O   0  0  0  0  0  0  0  0  0  0  0  0
  188.2820  172.7070  140.2110 O   0  0  0  0  0  1  0  0  0  0  0  0
  189.0000  174.4620  141.7190 C   0  0  0  0  0  0  0  0  0  0  0  0
  189.2900  173.3450  140.8640 N   0  0  0  0  0  0  0  0  0  0  0  0
  187.6480  174.8720  141.9160 N   0  0  0  0  0  2  0  0  0  0  0  0
  187.2780  175.9870  142.7730 C   0  0  0  0  0  2  0  0  0  0  0  0
  186.7800  176.9800  140.6370 O   0  0  0  0  0  1  0  0  0  0  0  0
  188.2600  178.1840  142.0620 C   0  0  0  0  0  1  0  0  0  0  0  0
  187.0560  177.2690  141.9730 C   0  0  2  0  0  3  0  0  0  0  0  0
  190.8870  172.1260  139.4420 C   0  0  0  0  0  2  0  0  0  0  0  0
  191.8810  172.8890  138.5600 C   0  0  1  0  0  3  0  0  0  0  0  0
  191.1950  173.5240  137.5240 O   0  0  0  0  0  0  0  0  0  0  0  0
  190.1810  172.6320  137.1560 C   0  0  0  0  0  1  0  0  0  0  0  0
  192.7120  173.9110  139.3510 C   0  0  0  0  0  2  0  0  0  0  0  0
  194.7630  174.8790  138.3140 C   0  0  0  0  0  2  0  0  0  0  0  0
  197.7440  175.3840  140.5220 N   0  0  0  0  0  1  0  0  0  0  0  0
  194.2280  173.7350  139.1860 C   0  0  1  0  0  3  0  0  0  0  0  0
  195.3870  174.9820  141.0580 C   0  0  0  0  0  2  0  0  0  0  0  0
  196.2300  175.1890  138.6320 C   0  0  0  0  0  2  0  0  0  0  0  0
  196.3860  175.6440  140.0890 C   0  0  2  0  0  3  0  0  0  0  0  0
  194.9220  173.6210  140.5470 C   0  0  0  0  0  2  0  0  0  0  0  0
  193.7090  173.5260  145.3500 O   0  0  0  0  0  0  0  0  0  0  0  0
  194.0890  174.8580  145.5290 C   0  0  0  0  0  0  0  0  0  0  0  0
  194.9510  175.1660  146.3940 O   0  0  0  0  0  0  0  0  0  0  0  0
  192.2480  176.4590  145.4050 N   0  0  2  0  0  0  0  0  0  0  0  0
  193.4600  175.9350  144.6930 C   0  0  1  0  0  3  0  0  0  0  0  0
  193.5660  177.1560  145.3290 C   0  0  0  0  0  2  0  0  0  0  0  0
  188.8470  177.1520  146.6300 C   0  0  1  0  0  3  0  0  0  0  0  0
  190.4250  175.2020  146.3290 C   0  0  0  0  0  2  0  0  0  0  0  0
  188.7250  175.3400  146.8460 S   0  0  0  0  0  0  0  0  0  0  0  0
  190.0430  177.4100  145.9170 O   0  0  0  0  0  0  0  0  0  0  0  0
  190.9060  176.3350  145.8640 C   0  0  1  0  0  3  0  0  0  0  0  0
  187.7340  177.6340  145.9210 O   0  0  0  0  0  0  0  0  0  0  0  0
  186.8290  178.1460  146.8800 C   0  0  1  0  0  0  0  0  0  0  0  0
  185.7440  179.1250  146.3630 C   0  0  2  0  0  0  0  0  0  0  0  0
  184.6980  179.2360  145.2940 C   0  0  0  0  0  2  0  0  0  0  0  0
  185.4110  177.6740  146.9040 C   0  0  1  0  0  3  0  0  0  0  0  0
  187.3670  178.5390  148.0980 O   0  0  0  0  0  1  0  0  0  0  0  0
  185.1910  176.5600  145.8660 C   0  0  0  0  0  1  0  0  0  0  0  0
  186.0400  179.2460  144.9730 O   0  0  0  0  0  0  0  0  0  0  0  0
  1 33  1  1  0  0  0
  2  5  1  0  0  0  0
  3 10  1  1  0  0  0
  3  4  1  0  0  0  0
  3  6  1  0  0  0  0
  4  2  1  0  0  0  0
  5  1  1  0  0  0  0
  5  7  1  1  0  0  0
  6  1  1  0  0  0  0
  7  9  1  0  0  0  0
  8  7  1  0  0  0  0
  8  9  1  0  0  0  0
 11 21  1  6  0  0  0
 11 15  1  0  0  0  0
 11 10  1  0  0  0  0
 13 15  1  0  0  0  0
 14 16  1  0  0  0  0
 14 12  2  0  0  0  0
 15 14  1  0  0  0  0
 16 17  1  0  0  0  0
 18 20  1  0  0  0  0
 20 19  1  6  0  0  0
 20 17  1  0  0  0  0
 22 25  1  1  0  0  0
 22 21  1  0  0  0  0
 23 22  1  0  0  0  0
 24 23  1  0  0  0  0
 26 30  1  0  0  0  0
 26 28  1  0  0  0  0
 28 25  1  1  0  0  0
 28 32  1  0  0  0  0
 30 31  1  0  0  0  0
 31 27  1  1  0  0  0
 31 29  1  0  0  0  0
 32 29  1  0  0  0  0
 33 34  1  0  0  0  0
 34 35  2  0  0  0  0
 36 38  1  1  0  0  0
 36 43  1  0  0  0  0
 37 38  1  0  0  0  0
 37 36  1  0  0  0  0
 37 34  1  1  0  0  0
 39 44  1  6  0  0  0
 39 41  1  0  0  0  0
 40 41  1  0  0  0  0
 42 39  1  0  0  0  0
 43 42  1  0  0  0  0
 43 40  1  1  0  0  0
 44 45  1  0  0  0  0
 45 48  1  0  0  0  0
 45 49  1  1  0  0  0
 46 47  1  1  0  0  0
 46 45  1  0  0  0  0
 46 48  1  0  0  0  0
 48 50  1  6  0  0  0
 51 47  1  0  0  0  0
 51 46  1  0  0  0  0
M  END
>  <MODEL>
6

>  <REMARK>
 VINA RESULT:      -7.0      2.905      8.634
  Name = 
  17 active torsions:
  status: ('A' for Active; 'I' for Inactive)
    1  A    between atoms: O_2  and  C_8
    2  A    between atoms: O_2  and  C_28
    3  A    between atoms: C_4  and  O_49
    4  A    between atoms: C_6  and  C_38
    5  A    between atoms: C_7  and  O_49
    6  A    between atoms: N_10  and  C_47
    7  A    between atoms: N_12  and  C_24
    8  A    between atoms: C_13  and  C_28
    9  A    between atoms: N_14  and  C_20
   10  A    between atoms: C_20  and  C_37
   11  A    between atoms: C_24  and  C_40
   12  A    between atoms: C_24  and  O_48
   13  A    between atoms: C_25  and  C_27
   14  A    between atoms: C_27  and  C_35
   15  A    between atoms: O_30  and  C_35
   16  A    between atoms: C_32  and  O_48
   17  A    between atoms: C_35  and  C_40
                            x       y       z     vdW  Elec       q    Type
                         _______ _______ _______ _____ _____    ______ ____

>  <TORSDO>
F 17

$$$$
=
 OpenBabel11062421193D

 51 57  0  0  1  0  0  0  0  0999 V2000
  194.7300  175.6720  142.8050 C   0  0  1  0  0  3  0  0  0  0  0  0
  194.5620  175.6540  140.3700 O   0  0  0  0  0  0  0  0  0  0  0  0
  192.6290  174.9910  141.6670 C   0  0  2  0  0  3  0  0  0  0  0  0
  193.4930  174.7290  140.4350 C   0  0  0  0  0  2  0  0  0  0  0  0
  195.4430  175.4450  141.4610 C   0  0  2  0  0  3  0  0  0  0  0  0
  193.4880  174.8000  142.9120 C   0  0  0  0  0  2  0  0  0  0  0  0
  196.1900  174.1100  141.3680 C   0  0  0  0  0  3  0  0  0  0  0  0
  196.9880  174.0670  140.0740 C   0  0  0  0  0  2  0  0  0  0  0  0
  197.6900  174.3700  141.3810 C   0  0  0  0  0  2  0  0  0  0  0  0
  191.5520  174.0960  141.6830 O   0  0  0  0  0  0  0  0  0  0  0  0
  191.7530  173.2640  140.5730 C   0  0  2  0  0  3  0  0  0  0  0  0
  191.8530  172.7030  137.8190 O   0  0  0  0  0  0  0  0  0  0  0  0
  189.3910  173.7280  140.1870 O   0  0  0  0  0  1  0  0  0  0  0  0
  190.7540  173.1260  138.2760 C   0  0  0  0  0  0  0  0  0  0  0  0
  190.5960  173.3440  139.6860 N   0  0  0  0  0  0  0  0  0  0  0  0
  189.6550  173.3580  137.3960 N   0  0  0  0  0  2  0  0  0  0  0  0
  189.7430  173.1670  135.9560 C   0  0  0  0  0  2  0  0  0  0  0  0
  190.9320  175.1840  135.3950 O   0  0  0  0  0  1  0  0  0  0  0  0
  188.5710  175.3640  135.6460 C   0  0  0  0  0  1  0  0  0  0  0  0
  189.7330  174.4980  135.2060 C   0  0  2  0  0  3  0  0  0  0  0  0
  191.9830  171.8300  141.0430 C   0  0  0  0  0  2  0  0  0  0  0  0
  191.3440  171.5570  142.4090 C   0  0  1  0  0  3  0  0  0  0  0  0
  189.9980  171.2340  142.2400 O   0  0  0  0  0  0  0  0  0  0  0  0
  189.3270  171.9060  143.2690 C   0  0  0  0  0  1  0  0  0  0  0  0
  192.0630  170.4450  143.1880 C   0  0  0  0  0  2  0  0  0  0  0  0
  193.5050  171.7020  144.7890 C   0  0  0  0  0  2  0  0  0  0  0  0
  196.3380  169.8500  146.3870 N   0  0  0  0  0  1  0  0  0  0  0  0
  193.5130  170.7860  143.5560 C   0  0  1  0  0  3  0  0  0  0  0  0
  194.3540  169.0480  145.1920 C   0  0  0  0  0  2  0  0  0  0  0  0
  194.7910  171.5540  145.6090 C   0  0  0  0  0  2  0  0  0  0  0  0
  194.9370  170.1190  146.1350 C   0  0  2  0  0  3  0  0  0  0  0  0
  194.3500  169.5160  143.7390 C   0  0  0  0  0  2  0  0  0  0  0  0
  195.5900  175.4380  143.9120 O   0  0  0  0  0  0  0  0  0  0  0  0
  195.1910  175.7490  145.2140 C   0  0  0  0  0  0  0  0  0  0  0  0
  195.3680  174.9250  146.1500 O   0  0  0  0  0  0  0  0  0  0  0  0
  193.1020  176.8330  145.8680 N   0  0  2  0  0  0  0  0  0  0  0  0
  194.5380  177.0700  145.5010 C   0  0  1  0  0  3  0  0  0  0  0  0
  194.1930  177.1500  146.8360 C   0  0  0  0  0  2  0  0  0  0  0  0
  189.5850  176.9300  144.7860 C   0  0  1  0  0  3  0  0  0  0  0  0
  191.1890  175.3900  145.9870 C   0  0  0  0  0  2  0  0  0  0  0  0
  189.5040  175.2210  145.4340 S   0  0  0  0  0  0  0  0  0  0  0  0
  190.9470  177.3160  144.7940 O   0  0  0  0  0  0  0  0  0  0  0  0
  191.7600  176.4880  145.5410 C   0  0  1  0  0  3  0  0  0  0  0  0
  189.0630  176.9810  143.4830 O   0  0  0  0  0  0  0  0  0  0  0  0
  187.7230  177.4210  143.5970 C   0  0  1  0  0  0  0  0  0  0  0  0
  187.0620  177.9840  142.3140 C   0  0  2  0  0  0  0  0  0  0  0  0
  186.8400  177.6290  140.8720 C   0  0  0  0  0  2  0  0  0  0  0  0
  186.6150  176.6230  142.9880 C   0  0  1  0  0  3  0  0  0  0  0  0
  187.4020  178.1550  144.7300 O   0  0  0  0  0  1  0  0  0  0  0  0
  187.1550  175.3160  142.3820 C   0  0  0  0  0  1  0  0  0  0  0  0
  188.1050  177.9140  141.3430 O   0  0  0  0  0  0  0  0  0  0  0  0
  1  6  1  0  0  0  0
  1 33  1  1  0  0  0
  2  4  1  0  0  0  0
  2  5  1  0  0  0  0
  3 10  1  1  0  0  0
  3  6  1  0  0  0  0
  4  3  1  0  0  0  0
  5  7  1  1  0  0  0
  5  1  1  0  0  0  0
  7  9  1  0  0  0  0
  8  7  1  0  0  0  0
  8  9  1  0  0  0  0
 11 21  1  1  0  0  0
 11 10  1  0  0  0  0
 12 14  2  0  0  0  0
 14 15  1  0  0  0  0
 15 13  1  0  0  0  0
 15 11  1  0  0  0  0
 16 14  1  0  0  0  0
 17 16  1  0  0  0  0
 20 18  1  0  0  0  0
 20 19  1  1  0  0  0
 20 17  1  0  0  0  0
 22 21  1  6  0  0  0
 22 25  1  0  0  0  0
 23 22  1  0  0  0  0
 23 24  1  0  0  0  0
 26 30  1  0  0  0  0
 28 25  1  1  0  0  0
 28 32  1  0  0  0  0
 28 26  1  0  0  0  0
 29 31  1  0  0  0  0
 30 31  1  0  0  0  0
 31 27  1  6  0  0  0
 32 29  1  0  0  0  0
 33 34  1  0  0  0  0
 34 35  2  0  0  0  0
 36 38  1  1  0  0  0
 37 34  1  1  0  0  0
 37 36  1  0  0  0  0
 37 38  1  0  0  0  0
 39 44  1  6  0  0  0
 39 42  1  0  0  0  0
 39 41  1  0  0  0  0
 41 40  1  0  0  0  0
 42 43  1  0  0  0  0
 43 36  1  0  0  0  0
 43 40  1  1  0  0  0
 44 45  1  0  0  0  0
 45 49  1  1  0  0  0
 46 47  1  1  0  0  0
 46 48  1  0  0  0  0
 46 45  1  0  0  0  0
 47 51  1  0  0  0  0
 48 50  1  6  0  0  0
 48 45  1  0  0  0  0
 51 46  1  0  0  0  0
M  END
>  <MODEL>
7

>  <REMARK>
 VINA RESULT:      -6.8      3.152      8.719
  Name = 
  17 active torsions:
  status: ('A' for Active; 'I' for Inactive)
    1  A    between atoms: O_2  and  C_8
    2  A    between atoms: O_2  and  C_28
    3  A    between atoms: C_4  and  O_49
    4  A    between atoms: C_6  and  C_38
    5  A    between atoms: C_7  and  O_49
    6  A    between atoms: N_10  and  C_47
    7  A    between atoms: N_12  and  C_24
    8  A    between atoms: C_13  and  C_28
    9  A    between atoms: N_14  and  C_20
   10  A    between atoms: C_20  and  C_37
   11  A    between atoms: C_24  and  C_40
   12  A    between atoms: C_24  and  O_48
   13  A    between atoms: C_25  and  C_27
   14  A    between atoms: C_27  and  C_35
   15  A    between atoms: O_30  and  C_35
   16  A    between atoms: C_32  and  O_48
   17  A    between atoms: C_35  and  C_40
                            x       y       z     vdW  Elec       q    Type
                         _______ _______ _______ _____ _____    ______ ____

>  <TORSDO>
F 17

$$$$
=
 OpenBabel11062421193D

 51 57  0  0  1  0  0  0  0  0999 V2000
  192.7850  174.8320  144.5630 C   0  0  1  0  0  3  0  0  0  0  0  0
  190.6510  174.1610  145.5380 O   0  0  0  0  0  0  0  0  0  0  0  0
  190.7390  174.6330  143.1670 C   0  0  2  0  0  3  0  0  0  0  0  0
  189.9520  174.7680  144.4680 C   0  0  0  0  0  2  0  0  0  0  0  0
  191.8540  174.8680  145.7880 C   0  0  2  0  0  3  0  0  0  0  0  0
  192.0710  175.3580  143.3270 C   0  0  0  0  0  2  0  0  0  0  0  0
  191.6060  176.2740  146.3450 C   0  0  0  0  0  3  0  0  0  0  0  0
  190.7880  176.1740  147.6220 C   0  0  0  0  0  2  0  0  0  0  0  0
  192.2830  176.4040  147.7020 C   0  0  0  0  0  2  0  0  0  0  0  0
  190.0070  175.1960  142.1150 O   0  0  0  0  0  0  0  0  0  0  0  0
  189.0470  174.2320  141.7800 C   0  0  2  0  0  3  0  0  0  0  0  0
  190.0290  171.5970  141.7310 O   0  0  0  0  0  0  0  0  0  0  0  0
  189.3850  174.1870  139.3660 O   0  0  0  0  0  1  0  0  0  0  0  0
  190.0270  172.2250  140.6350 C   0  0  0  0  0  0  0  0  0  0  0  0
  189.4550  173.5400  140.5600 N   0  0  0  0  0  0  0  0  0  0  0  0
  190.5640  171.6180  139.4610 N   0  0  0  0  0  2  0  0  0  0  0  0
  191.1670  170.2940  139.4630 C   0  0  0  0  0  2  0  0  0  0  0  0
  193.5090  169.8290  139.7750 O   0  0  0  0  0  1  0  0  0  0  0  0
  192.9590  171.7050  138.4160 C   0  0  0  0  0  1  0  0  0  0  0  0
  192.5710  170.3100  138.8620 C   0  0  2  0  0  3  0  0  0  0  0  0
  187.6870  174.9010  141.6010 C   0  0  0  0  0  2  0  0  0  0  0  0
  187.6420  176.3000  142.2280 C   0  0  1  0  0  3  0  0  0  0  0  0
  187.8240  177.2630  141.2350 O   0  0  0  0  0  0  0  0  0  0  0  0
  186.6690  177.1990  140.4470 C   0  0  0  0  0  1  0  0  0  0  0  0
  186.3360  176.5640  142.9910 C   0  0  0  0  0  2  0  0  0  0  0  0
  185.2140  178.5610  143.9790 C   0  0  0  0  0  2  0  0  0  0  0  0
  184.8630  178.6820  147.7040 N   0  0  0  0  0  1  0  0  0  0  0  0
  186.4550  177.6610  144.0590 C   0  0  1  0  0  3  0  0  0  0  0  0
  185.3770  176.8250  146.1900 C   0  0  0  0  0  2  0  0  0  0  0  0
  184.9010  179.2090  145.3330 C   0  0  0  0  0  2  0  0  0  0  0  0
  184.5940  178.1380  146.3880 C   0  0  2  0  0  3  0  0  0  0  0  0
  186.6900  177.0580  145.4460 C   0  0  0  0  0  2  0  0  0  0  0  0
  193.9840  175.5620  144.7840 O   0  0  0  0  0  0  0  0  0  0  0  0
  195.2240  174.9190  144.8090 C   0  0  0  0  0  0  0  0  0  0  0  0
  195.3510  173.7960  145.3640 O   0  0  0  0  0  0  0  0  0  0  0  0
  196.2570  175.5460  142.6860 N   0  0  2  0  0  0  0  0  0  0  0  0
  196.4190  175.5740  144.1780 C   0  0  1  0  0  3  0  0  0  0  0  0
  196.0430  176.7450  143.5500 C   0  0  0  0  0  2  0  0  0  0  0  0
  195.7340  174.6400  139.1570 C   0  0  1  0  0  3  0  0  0  0  0  0
  196.4360  173.5710  141.3370 C   0  0  0  0  0  2  0  0  0  0  0  0
  196.3460  172.9900  139.6540 S   0  0  0  0  0  0  0  0  0  0  0  0
  195.9510  175.5140  140.2500 O   0  0  0  0  0  0  0  0  0  0  0  0
  196.2410  174.8680  141.4340 C   0  0  1  0  0  3  0  0  0  0  0  0
  196.4220  175.0910  138.0190 O   0  0  0  0  0  0  0  0  0  0  0  0
  195.4820  175.1290  136.9620 C   0  0  1  0  0  0  0  0  0  0  0  0
  195.8980  175.9020  135.6850 C   0  0  2  0  0  0  0  0  0  0  0  0
  197.0290  175.9950  134.7020 C   0  0  0  0  0  2  0  0  0  0  0  0
  195.7130  174.3300  135.7200 C   0  0  1  0  0  3  0  0  0  0  0  0
  194.1570  175.3510  137.3130 O   0  0  0  0  0  1  0  0  0  0  0  0
  196.9790  173.4660  135.8570 C   0  0  0  0  0  1  0  0  0  0  0  0
  197.1910  176.4090  136.0090 O   0  0  0  0  0  0  0  0  0  0  0  0
  1 33  1  1  0  0  0
  1  5  1  0  0  0  0
  2  5  1  0  0  0  0
  3 10  1  6  0  0  0
  3  6  1  0  0  0  0
  3  4  1  0  0  0  0
  4  2  1  0  0  0  0
  5  7  1  6  0  0  0
  6  1  1  0  0  0  0
  7  8  1  0  0  0  0
  7  9  1  0  0  0  0
  8  9  1  0  0  0  0
 11 21  1  6  0  0  0
 11 10  1  0  0  0  0
 13 15  1  0  0  0  0
 14 12  2  0  0  0  0
 15 14  1  0  0  0  0
 15 11  1  0  0  0  0
 16 17  1  0  0  0  0
 16 14  1  0  0  0  0
 20 19  1  1  0  0  0
 20 17  1  0  0  0  0
 20 18  1  0  0  0  0
 22 21  1  6  0  0  0
 22 25  1  0  0  0  0
 23 22  1  0  0  0  0
 24 23  1  0  0  0  0
 26 28  1  0  0  0  0
 26 30  1  0  0  0  0
 28 25  1  6  0  0  0
 28 32  1  0  0  0  0
 29 31  1  0  0  0  0
 30 31  1  0  0  0  0
 31 27  1  1  0  0  0
 32 29  1  0  0  0  0
 33 34  1  0  0  0  0
 34 35  2  0  0  0  0
 36 38  1  1  0  0  0
 36 37  1  0  0  0  0
 37 34  1  1  0  0  0
 38 37  1  0  0  0  0
 39 44  1  6  0  0  0
 39 41  1  0  0  0  0
 39 42  1  0  0  0  0
 41 40  1  0  0  0  0
 42 43  1  0  0  0  0
 43 40  1  1  0  0  0
 43 36  1  0  0  0  0
 45 49  1  1  0  0  0
 45 44  1  0  0  0  0
 46 47  1  6  0  0  0
 46 48  1  0  0  0  0
 46 51  1  0  0  0  0
 46 45  1  0  0  0  0
 47 51  1  0  0  0  0
 48 50  1  1  0  0  0
 48 45  1  0  0  0  0
M  END
>  <MODEL>
8

>  <REMARK>
 VINA RESULT:      -6.7      2.168      6.390
  Name = 
  17 active torsions:
  status: ('A' for Active; 'I' for Inactive)
    1  A    between atoms: O_2  and  C_8
    2  A    between atoms: O_2  and  C_28
    3  A    between atoms: C_4  and  O_49
    4  A    between atoms: C_6  and  C_38
    5  A    between atoms: C_7  and  O_49
    6  A    between atoms: N_10  and  C_47
    7  A    between atoms: N_12  and  C_24
    8  A    between atoms: C_13  and  C_28
    9  A    between atoms: N_14  and  C_20
   10  A    between atoms: C_20  and  C_37
   11  A    between atoms: C_24  and  C_40
   12  A    between atoms: C_24  and  O_48
   13  A    between atoms: C_25  and  C_27
   14  A    between atoms: C_27  and  C_35
   15  A    between atoms: O_30  and  C_35
   16  A    between atoms: C_32  and  O_48
   17  A    between atoms: C_35  and  C_40
                            x       y       z     vdW  Elec       q    Type
                         _______ _______ _______ _____ _____    ______ ____

>  <TORSDO>
F 17

$$$$
=
 OpenBabel11062421193D

 51 57  0  0  1  0  0  0  0  0999 V2000
  190.5050  171.9200  139.6940 C   0  0  1  0  0  3  0  0  0  0  0  0
  190.2610  173.7380  138.0830 O   0  0  0  0  0  0  0  0  0  0  0  0
  189.1680  173.9440  140.2330 C   0  0  2  0  0  3  0  0  0  0  0  0
  189.0750  174.1690  138.7260 C   0  0  0  0  0  2  0  0  0  0  0  0
  190.3940  172.3330  138.2150 C   0  0  2  0  0  3  0  0  0  0  0  0
  189.3230  172.4490  140.4920 C   0  0  0  0  0  2  0  0  0  0  0  0
  189.3260  171.5640  137.4300 C   0  0  0  0  0  3  0  0  0  0  0  0
  189.4480  171.8980  135.9510 C   0  0  0  0  0  2  0  0  0  0  0  0
  190.0050  170.5920  136.4770 C   0  0  0  0  0  2  0  0  0  0  0  0
  188.0060  174.4220  140.8510 O   0  0  0  0  0  0  0  0  0  0  0  0
  188.4440  175.0150  142.0420 C   0  0  2  0  0  3  0  0  0  0  0  0
  185.9340  175.6360  143.1500 O   0  0  0  0  0  0  0  0  0  0  0  0
  188.6390  177.4140  141.6530 O   0  0  0  0  0  1  0  0  0  0  0  0
  186.5840  176.5900  142.6370 C   0  0  0  0  0  0  0  0  0  0  0  0
  187.9120  176.3710  142.1370 N   0  0  0  0  0  0  0  0  0  0  0  0
  186.0130  177.8970  142.5830 N   0  0  0  0  0  2  0  0  0  0  0  0
  184.6710  178.1920  143.0620 C   0  0  0  0  0  2  0  0  0  0  0  0
  185.8500  179.7960  144.4170 O   0  0  0  0  0  1  0  0  0  0  0  0
  184.6050  178.1250  145.5690 C   0  0  0  0  0  1  0  0  0  0  0  0
  184.6960  179.0160  144.3480 C   0  0  2  0  0  3  0  0  0  0  0  0
  189.9690  175.0210  142.0830 C   0  0  0  0  0  2  0  0  0  0  0  0
  190.5150  174.6340  143.4620 C   0  0  1  0  0  3  0  0  0  0  0  0
  190.6790  173.2500  143.5280 O   0  0  0  0  0  0  0  0  0  0  0  0
  191.4750  173.0300  144.6580 C   0  0  0  0  0  1  0  0  0  0  0  0
  191.8370  175.3420  143.7960 C   0  0  0  0  0  2  0  0  0  0  0  0
  190.2490  176.5260  145.3110 C   0  0  0  0  0  2  0  0  0  0  0  0
  191.4430  177.3580  148.7610 N   0  0  0  0  0  1  0  0  0  0  0  0
  191.6750  176.5390  144.7420 C   0  0  1  0  0  3  0  0  0  0  0  0
  192.3210  175.8080  147.0770 C   0  0  0  0  0  2  0  0  0  0  0  0
  190.1860  177.1980  146.6880 C   0  0  0  0  0  2  0  0  0  0  0  0
  191.0640  176.4480  147.6980 C   0  0  2  0  0  3  0  0  0  0  0  0
  192.7660  176.5460  145.8170 C   0  0  0  0  0  2  0  0  0  0  0  0
  190.6090  170.5120  139.8470 O   0  0  0  0  0  0  0  0  0  0  0  0
  191.8510  169.8950  140.0160 C   0  0  0  0  0  0  0  0  0  0  0  0
  192.8510  170.2780  139.3530 O   0  0  0  0  0  0  0  0  0  0  0  0
  192.3020  169.3210  142.3470 N   0  0  2  0  0  0  0  0  0  0  0  0
  191.9970  168.7610  140.9890 C   0  0  1  0  0  3  0  0  0  0  0  0
  190.9730  168.7940  141.9160 C   0  0  0  0  0  2  0  0  0  0  0  0
  194.9280  171.3630  143.9240 C   0  0  1  0  0  3  0  0  0  0  0  0
  193.3400  169.4840  144.5040 C   0  0  0  0  0  2  0  0  0  0  0  0
  194.4960  170.4550  145.4510 S   0  0  0  0  0  0  0  0  0  0  0  0
  193.9490  171.0380  142.9530 O   0  0  0  0  0  0  0  0  0  0  0  0
  193.1720  169.9480  143.2840 C   0  0  1  0  0  3  0  0  0  0  0  0
  194.9430  172.7460  144.1680 O   0  0  0  0  0  0  0  0  0  0  0  0
  196.2980  173.1520  144.1350 C   0  0  1  0  0  0  0  0  0  0  0  0
  196.5860  174.5790  143.6040 C   0  0  2  0  0  0  0  0  0  0  0  0
  196.1490  176.0010  143.8040 C   0  0  0  0  0  2  0  0  0  0  0  0
  196.8060  174.1590  145.1150 C   0  0  1  0  0  3  0  0  0  0  0  0
  197.2180  172.2170  143.6810 O   0  0  0  0  0  1  0  0  0  0  0  0
  195.7090  174.5360  146.1260 C   0  0  0  0  0  1  0  0  0  0  0  0
  195.2950  175.0700  143.2500 O   0  0  0  0  0  0  0  0  0  0  0  0
  1 33  1  6  0  0  0
  1  6  1  0  0  0  0
  2  5  1  0  0  0  0
  2  4  1  0  0  0  0
  3  6  1  0  0  0  0
  3 10  1  1  0  0  0
  4  3  1  0  0  0  0
  5  7  1  1  0  0  0
  5  1  1  0  0  0  0
  8  9  1  0  0  0  0
  8  7  1  0  0  0  0
  9  7  1  0  0  0  0
 10 11  1  0  0  0  0
 11 21  1  6  0  0  0
 11 15  1  0  0  0  0
 13 15  1  0  0  0  0
 14 12  2  0  0  0  0
 15 14  1  0  0  0  0
 16 14  1  0  0  0  0
 16 17  1  0  0  0  0
 17 20  1  0  0  0  0
 20 18  1  0  0  0  0
 20 19  1  1  0  0  0
 22 21  1  6  0  0  0
 22 23  1  0  0  0  0
 22 25  1  0  0  0  0
 23 24  1  0  0  0  0
 26 30  1  0  0  0  0
 28 25  1  6  0  0  0
 28 26  1  0  0  0  0
 28 32  1  0  0  0  0
 29 31  1  0  0  0  0
 30 31  1  0  0  0  0
 31 27  1  1  0  0  0
 32 29  1  0  0  0  0
 33 34  1  0  0  0  0
 35 34  2  0  0  0  0
 36 38  1  6  0  0  0
 36 43  1  0  0  0  0
 37 34  1  6  0  0  0
 37 38  1  0  0  0  0
 37 36  1  0  0  0  0
 39 44  1  1  0  0  0
 39 41  1  0  0  0  0
 40 41  1  0  0  0  0
 42 43  1  0  0  0  0
 42 39  1  0  0  0  0
 43 40  1  6  0  0  0
 45 49  1  6  0  0  0
 45 44  1  0  0  0  0
 45 48  1  0  0  0  0
 46 47  1  6  0  0  0
 46 45  1  0  0  0  0
 46 48  1  0  0  0  0
 48 50  1  1  0  0  0
 51 46  1  0  0  0  0
 51 47  1  0  0  0  0
M  END
>  <MODEL>
9

>  <REMARK>
 VINA RESULT:      -6.7      2.814      5.027
  Name = 
  17 active torsions:
  status: ('A' for Active; 'I' for Inactive)
    1  A    between atoms: O_2  and  C_8
    2  A    between atoms: O_2  and  C_28
    3  A    between atoms: C_4  and  O_49
    4  A    between atoms: C_6  and  C_38
    5  A    between atoms: C_7  and  O_49
    6  A    between atoms: N_10  and  C_47
    7  A    between atoms: N_12  and  C_24
    8  A    between atoms: C_13  and  C_28
    9  A    between atoms: N_14  and  C_20
   10  A    between atoms: C_20  and  C_37
   11  A    between atoms: C_24  and  C_40
   12  A    between atoms: C_24  and  O_48
   13  A    between atoms: C_25  and  C_27
   14  A    between atoms: C_27  and  C_35
   15  A    between atoms: O_30  and  C_35
   16  A    between atoms: C_32  and  O_48
   17  A    between atoms: C_35  and  C_40
                            x       y       z     vdW  Elec       q    Type
                         _______ _______ _______ _____ _____    ______ ____

>  <TORSDO>
F 17

$$$$
