=
 OpenBabel11062422573D

 29 31  0  0  1  0  0  0  0  0999 V2000
  186.3790  178.7180  141.8070 C   0  0  2  0  0  3  0  0  0  0  0  0
  186.1340  178.8520  143.2290 N   0  0  0  0  0  0  0  0  0  0  0  0
  183.9360  178.2710  142.5740 C   0  0  0  0  0  2  0  0  0  0  0  0
  184.9230  178.6400  143.6130 C   0  0  0  0  0  0  0  0  0  0  0  0
  184.8690  178.0520  141.0280 S   0  0  0  0  0  0  0  0  0  0  0  0
  184.5430  178.7500  144.9860 N   0  0  0  0  0  2  0  0  0  0  0  0
  187.5480  177.8170  141.5630 C   0  0  0  0  0  0  0  0  0  0  0  0
  188.6900  178.2340  141.6900 O   0  0  0  0  0  0  0  0  0  0  0  0
  187.3140  176.4100  141.1310 C   0  0  0  0  0  2  0  0  0  0  0  0
  187.2800  175.5350  142.2920 N   0  0  0  0  0  2  0  0  0  0  0  0
  188.4710  174.3010  142.0530 S   0  0  0  0  0  0  0  0  0  0  0  0
  187.8160  172.9480  142.1000 O   0  0  0  0  0  0  0  0  0  0  0  0
  189.1310  174.4870  140.7150 O   0  0  0  0  0  0  0  0  0  0  0  0
  191.0690  174.7290  142.7510 C   0  0  0  0  0  1  0  0  0  0  0  0
  189.7090  174.3930  143.3370 C   0  0  2  0  0  3  0  0  0  0  0  0
  189.7640  173.1130  144.1630 C   0  0  0  0  0  2  0  0  0  0  0  0
  191.0810  172.7690  144.4750 O   0  0  0  0  0  1  0  0  0  0  0  0
  185.4970  179.0990  146.0250 C   0  0  0  0  0  2  0  0  0  0  0  0
  186.8050  177.0530  146.0760 N   0  0  0  0  0  0  0  0  0  0  0  0
  185.3840  176.6780  146.1190 C   0  0  0  0  0  2  0  0  0  0  0  0
  185.8380  177.8650  146.8320 C   0  0  2  0  0  3  0  0  0  0  0  0
  187.4870  176.2140  147.0460 C   0  0  0  0  0  2  0  0  0  0  0  0
  189.5050  177.1180  145.8710 C   0  0  0  0  0  3  0  0  0  0  0  0
  188.9460  176.1880  146.7520 C   0  0  0  0  0  0  0  0  0  0  0  0
  191.6480  176.1320  146.1380 C   0  0  0  0  0  0  0  0  0  0  0  0
  191.1250  175.1810  147.0180 C   0  0  0  0  0  3  0  0  0  0  0  0
  189.7630  175.2110  147.3220 C   0  0  0  0  0  3  0  0  0  0  0  0
  193.0330  176.1150  145.8180 N   0  0  0  0  0  1  0  0  0  0  0  0
  190.8340  177.0720  145.5860 N   0  0  0  0  0  0  0  0  0  0  0  0
  1  7  1  1  0  0  0
  1  2  1  0  0  0  0
  2  4  2  0  0  0  0
  3  4  1  0  0  0  0
  4  6  1  0  0  0  0
  5  1  1  0  0  0  0
  5  3  1  0  0  0  0
  6 18  1  0  0  0  0
  7  8  2  0  0  0  0
  9  7  1  0  0  0  0
  9 10  1  0  0  0  0
 11 12  2  0  0  0  0
 11 10  1  0  0  0  0
 11 15  1  0  0  0  0
 13 11  2  0  0  0  0
 15 14  1  6  0  0  0
 15 16  1  0  0  0  0
 16 17  1  0  0  0  0
 19 20  1  0  0  0  0
 19 21  1  0  0  0  0
 19 22  1  0  0  0  0
 20 21  1  0  0  0  0
 21 18  1  6  0  0  0
 23 24  1  0  0  0  0
 24 22  1  0  0  0  0
 24 27  2  0  0  0  0
 25 26  2  0  0  0  0
 26 27  1  0  0  0  0
 28 25  1  0  0  0  0
 29 23  2  0  0  0  0
 29 25  1  0  0  0  0
M  END
>  <MODEL>
1

>  <REMARK>
 VINA RESULT:      -6.4      0.000      0.000
  Name = 
  10 active torsions:
  status: ('A' for Active; 'I' for Inactive)
    1  A    between atoms: C_1  and  C_22
    2  A    between atoms: C_2  and  C_8
    3  A    between atoms: C_2  and  N_12
    4  A    between atoms: S_3  and  C_22
    5  A    between atoms: S_3  and  N_23
    6  A    between atoms: C_5  and  C_15
    7  A    between atoms: C_5  and  N_23
    8  A    between atoms: C_6  and  C_15
    9  A    between atoms: C_21  and  C_25
   10  A    between atoms: C_21  and  N_26
                            x       y       z     vdW  Elec       q    Type
                         _______ _______ _______ _____ _____    ______ ____

>  <TORSDO>
F 10

$$$$
=
 OpenBabel11062422573D

 29 31  0  0  1  0  0  0  0  0999 V2000
  185.4430  178.7890  144.4050 C   0  0  2  0  0  3  0  0  0  0  0  0
  186.6610  178.2700  144.9960 N   0  0  0  0  0  0  0  0  0  0  0  0
  185.3610  178.3770  146.9710 C   0  0  0  0  0  2  0  0  0  0  0  0
  186.6280  178.0730  146.2680 C   0  0  0  0  0  0  0  0  0  0  0  0
  184.1410  178.7850  145.6840 S   0  0  0  0  0  0  0  0  0  0  0  0
  187.7640  177.5750  146.9770 N   0  0  0  0  0  2  0  0  0  0  0  0
  185.0400  177.9560  143.2300 C   0  0  0  0  0  0  0  0  0  0  0  0
  184.1040  178.2950  142.5200 O   0  0  0  0  0  0  0  0  0  0  0  0
  185.7660  176.6860  142.9460 C   0  0  0  0  0  2  0  0  0  0  0  0
  186.5550  176.8290  141.7320 N   0  0  0  0  0  2  0  0  0  0  0  0
  187.8240  175.6520  141.7920 S   0  0  0  0  0  0  0  0  0  0  0  0
  187.3180  174.3920  142.4360 O   0  0  0  0  0  0  0  0  0  0  0  0
  188.2940  175.3430  140.3970 O   0  0  0  0  0  0  0  0  0  0  0  0
  189.4140  177.7600  142.4630 C   0  0  0  0  0  1  0  0  0  0  0  0
  189.1950  176.2850  142.7470 C   0  0  2  0  0  3  0  0  0  0  0  0
  190.4690  175.4810  142.5080 C   0  0  0  0  0  2  0  0  0  0  0  0
  191.6010  176.2040  142.8910 O   0  0  0  0  0  1  0  0  0  0  0  0
  189.0140  177.2570  146.3070 C   0  0  0  0  0  2  0  0  0  0  0  0
  190.7610  175.5750  146.4460 N   0  0  0  0  0  0  0  0  0  0  0  0
  189.5750  175.0470  147.1330 C   0  0  0  0  0  2  0  0  0  0  0  0
  189.9000  176.4630  147.2420 C   0  0  2  0  0  3  0  0  0  0  0  0
  191.9050  175.2520  147.2790 C   0  0  0  0  0  2  0  0  0  0  0  0
  193.9770  176.3460  146.3950 C   0  0  0  0  0  3  0  0  0  0  0  0
  193.1420  175.2270  146.4500 C   0  0  0  0  0  0  0  0  0  0  0  0
  195.4190  175.2350  144.8700 C   0  0  0  0  0  0  0  0  0  0  0  0
  194.6050  174.1000  144.8930 C   0  0  0  0  0  3  0  0  0  0  0  0
  193.4570  174.1010  145.6880 C   0  0  0  0  0  3  0  0  0  0  0  0
  196.5910  175.2500  144.0670 N   0  0  0  0  0  1  0  0  0  0  0  0
  195.0900  176.3260  145.6140 N   0  0  0  0  0  0  0  0  0  0  0  0
  1  7  1  6  0  0  0
  1  2  1  0  0  0  0
  1  5  1  0  0  0  0
  2  4  2  0  0  0  0
  4  3  1  0  0  0  0
  4  6  1  0  0  0  0
  5  3  1  0  0  0  0
  8  7  2  0  0  0  0
  9  7  1  0  0  0  0
 10 11  1  0  0  0  0
 10  9  1  0  0  0  0
 11 12  2  0  0  0  0
 11 15  1  0  0  0  0
 13 11  2  0  0  0  0
 15 14  1  6  0  0  0
 16 15  1  0  0  0  0
 16 17  1  0  0  0  0
 18  6  1  0  0  0  0
 19 20  1  0  0  0  0
 19 21  1  0  0  0  0
 19 22  1  0  0  0  0
 20 21  1  0  0  0  0
 21 18  1  6  0  0  0
 23 24  1  0  0  0  0
 24 22  1  0  0  0  0
 25 26  2  0  0  0  0
 25 29  1  0  0  0  0
 26 27  1  0  0  0  0
 27 24  2  0  0  0  0
 28 25  1  0  0  0  0
 29 23  2  0  0  0  0
M  END
>  <MODEL>
2

>  <REMARK>
 VINA RESULT:      -6.1      2.369      3.655
  Name = 
  10 active torsions:
  status: ('A' for Active; 'I' for Inactive)
    1  A    between atoms: C_1  and  C_22
    2  A    between atoms: C_2  and  C_8
    3  A    between atoms: C_2  and  N_12
    4  A    between atoms: S_3  and  C_22
    5  A    between atoms: S_3  and  N_23
    6  A    between atoms: C_5  and  C_15
    7  A    between atoms: C_5  and  N_23
    8  A    between atoms: C_6  and  C_15
    9  A    between atoms: C_21  and  C_25
   10  A    between atoms: C_21  and  N_26
                            x       y       z     vdW  Elec       q    Type
                         _______ _______ _______ _____ _____    ______ ____

>  <TORSDO>
F 10

$$$$
=
 OpenBabel11062422573D

 29 31  0  0  1  0  0  0  0  0999 V2000
  185.4360  178.9950  144.8100 C   0  0  2  0  0  3  0  0  0  0  0  0
  186.6760  178.3220  145.1470 N   0  0  0  0  0  0  0  0  0  0  0  0
  185.4530  177.7480  147.0900 C   0  0  0  0  0  2  0  0  0  0  0  0
  186.6910  177.7100  146.2810 C   0  0  0  0  0  0  0  0  0  0  0  0
  184.1850  178.5490  146.0610 S   0  0  0  0  0  0  0  0  0  0  0  0
  187.8530  177.0170  146.7400 N   0  0  0  0  0  2  0  0  0  0  0  0
  184.9870  178.5990  143.4390 C   0  0  0  0  0  0  0  0  0  0  0  0
  183.7970  178.5260  143.1720 O   0  0  0  0  0  0  0  0  0  0  0  0
  186.0030  178.2600  142.4030 C   0  0  0  0  0  2  0  0  0  0  0  0
  186.1020  176.8150  142.2610 N   0  0  0  0  0  2  0  0  0  0  0  0
  187.6990  176.4520  141.6990 S   0  0  0  0  0  0  0  0  0  0  0  0
  187.6500  176.0690  140.2460 O   0  0  0  0  0  0  0  0  0  0  0  0
  188.5800  177.6580  141.8650 O   0  0  0  0  0  0  0  0  0  0  0  0
  189.8740  175.2680  142.8340 C   0  0  0  0  0  1  0  0  0  0  0  0
  188.3790  175.0920  142.6370 C   0  0  2  0  0  3  0  0  0  0  0  0
  188.0610  173.7470  141.9930 C   0  0  0  0  0  2  0  0  0  0  0  0
  188.9580  172.7610  142.4130 O   0  0  0  0  0  1  0  0  0  0  0  0
  189.0750  176.9560  145.9570 C   0  0  0  0  0  2  0  0  0  0  0  0
  191.2000  175.8290  146.3020 N   0  0  0  0  0  0  0  0  0  0  0  0
  190.3010  175.4360  147.3960 C   0  0  0  0  0  2  0  0  0  0  0  0
  190.2610  176.8000  146.8850 C   0  0  2  0  0  3  0  0  0  0  0  0
  192.4960  176.0960  146.9000 C   0  0  0  0  0  2  0  0  0  0  0  0
  193.3590  176.3520  144.5640 C   0  0  0  0  0  3  0  0  0  0  0  0
  193.5660  175.9290  145.8790 C   0  0  0  0  0  0  0  0  0  0  0  0
  195.5160  175.5800  143.9410 C   0  0  0  0  0  0  0  0  0  0  0  0
  195.7580  175.1370  145.2440 C   0  0  0  0  0  3  0  0  0  0  0  0
  194.7720  175.3130  146.2170 C   0  0  0  0  0  3  0  0  0  0  0  0
  196.5100  175.4090  142.9390 N   0  0  0  0  0  1  0  0  0  0  0  0
  194.3310  176.1710  143.6300 N   0  0  0  0  0  0  0  0  0  0  0  0
  1  7  1  6  0  0  0
  1  2  1  0  0  0  0
  1  5  1  0  0  0  0
  2  4  2  0  0  0  0
  4  6  1  0  0  0  0
  4  3  1  0  0  0  0
  5  3  1  0  0  0  0
  8  7  2  0  0  0  0
  9  7  1  0  0  0  0
 10  9  1  0  0  0  0
 11 13  2  0  0  0  0
 11 10  1  0  0  0  0
 11 15  1  0  0  0  0
 12 11  2  0  0  0  0
 15 14  1  6  0  0  0
 16 17  1  0  0  0  0
 16 15  1  0  0  0  0
 18  6  1  0  0  0  0
 19 21  1  0  0  0  0
 19 22  1  0  0  0  0
 19 20  1  0  0  0  0
 21 18  1  6  0  0  0
 21 20  1  0  0  0  0
 23 24  1  0  0  0  0
 24 27  2  0  0  0  0
 24 22  1  0  0  0  0
 25 26  2  0  0  0  0
 26 27  1  0  0  0  0
 28 25  1  0  0  0  0
 29 25  1  0  0  0  0
 29 23  2  0  0  0  0
M  END
>  <MODEL>
3

>  <REMARK>
 VINA RESULT:      -6.1      2.458      3.935
  Name = 
  10 active torsions:
  status: ('A' for Active; 'I' for Inactive)
    1  A    between atoms: C_1  and  C_22
    2  A    between atoms: C_2  and  C_8
    3  A    between atoms: C_2  and  N_12
    4  A    between atoms: S_3  and  C_22
    5  A    between atoms: S_3  and  N_23
    6  A    between atoms: C_5  and  C_15
    7  A    between atoms: C_5  and  N_23
    8  A    between atoms: C_6  and  C_15
    9  A    between atoms: C_21  and  C_25
   10  A    between atoms: C_21  and  N_26
                            x       y       z     vdW  Elec       q    Type
                         _______ _______ _______ _____ _____    ______ ____

>  <TORSDO>
F 10

$$$$
=
 OpenBabel11062422573D

 29 31  0  0  1  0  0  0  0  0999 V2000
  193.2910  174.3500  145.1240 C   0  0  2  0  0  3  0  0  0  0  0  0
  191.9730  174.5280  145.7010 N   0  0  0  0  0  0  0  0  0  0  0  0
  193.0850  176.2460  146.8900 C   0  0  0  0  0  2  0  0  0  0  0  0
  191.8680  175.4610  146.5840 C   0  0  0  0  0  0  0  0  0  0  0  0
  194.3590  175.7090  145.7080 S   0  0  0  0  0  0  0  0  0  0  0  0
  190.6280  175.7350  147.2380 N   0  0  0  0  0  2  0  0  0  0  0  0
  193.2060  174.3390  143.6310 C   0  0  0  0  0  0  0  0  0  0  0  0
  194.0900  174.8450  142.9550 O   0  0  0  0  0  0  0  0  0  0  0  0
  192.0170  173.7360  142.9670 C   0  0  0  0  0  2  0  0  0  0  0  0
  191.5130  174.6360  141.9410 N   0  0  0  0  0  2  0  0  0  0  0  0
  189.9740  175.2260  142.4730 S   0  0  0  0  0  0  0  0  0  0  0  0
  188.9960  175.1930  141.3310 O   0  0  0  0  0  0  0  0  0  0  0  0
  189.4600  174.3620  143.5910 O   0  0  0  0  0  0  0  0  0  0  0  0
  189.1850  177.8270  142.3080 C   0  0  0  0  0  1  0  0  0  0  0  0
  190.1350  176.9070  143.0540 C   0  0  2  0  0  3  0  0  0  0  0  0
  191.5730  177.4030  142.9580 C   0  0  0  0  0  2  0  0  0  0  0  0
  192.0060  177.9340  144.1760 O   0  0  0  0  0  1  0  0  0  0  0  0
  189.4180  174.9860  146.9450 C   0  0  0  0  0  2  0  0  0  0  0  0
  187.7220  176.3640  145.8850 N   0  0  0  0  0  0  0  0  0  0  0  0
  188.5160  177.2300  146.7680 C   0  0  0  0  0  2  0  0  0  0  0  0
  188.2100  175.8660  147.1810 C   0  0  2  0  0  3  0  0  0  0  0  0
  186.3310  176.7310  146.0810 C   0  0  0  0  0  2  0  0  0  0  0  0
  184.7230  178.1330  144.7690 C   0  0  0  0  0  3  0  0  0  0  0  0
  185.7400  177.1750  144.7880 C   0  0  0  0  0  0  0  0  0  0  0  0
  184.5780  177.9790  142.4040 C   0  0  0  0  0  0  0  0  0  0  0  0
  185.5880  177.0140  142.3830 C   0  0  0  0  0  3  0  0  0  0  0  0
  186.1690  176.6090  143.5860 C   0  0  0  0  0  3  0  0  0  0  0  0
  183.9780  178.4030  141.1870 N   0  0  0  0  0  1  0  0  0  0  0  0
  184.1690  178.5130  143.5870 N   0  0  0  0  0  0  0  0  0  0  0  0
  1  7  1  6  0  0  0
  1  2  1  0  0  0  0
  1  5  1  0  0  0  0
  2  4  2  0  0  0  0
  4  3  1  0  0  0  0
  4  6  1  0  0  0  0
  5  3  1  0  0  0  0
  8  7  2  0  0  0  0
  9  7  1  0  0  0  0
 10 11  1  0  0  0  0
 10  9  1  0  0  0  0
 11 15  1  0  0  0  0
 11 13  2  0  0  0  0
 12 11  2  0  0  0  0
 15 14  1  6  0  0  0
 16 15  1  0  0  0  0
 16 17  1  0  0  0  0
 18  6  1  0  0  0  0
 19 22  1  0  0  0  0
 19 20  1  0  0  0  0
 19 21  1  0  0  0  0
 20 21  1  0  0  0  0
 21 18  1  6  0  0  0
 23 24  1  0  0  0  0
 24 22  1  0  0  0  0
 25 29  1  0  0  0  0
 26 25  2  0  0  0  0
 26 27  1  0  0  0  0
 27 24  2  0  0  0  0
 28 25  1  0  0  0  0
 29 23  2  0  0  0  0
M  END
>  <MODEL>
4

>  <REMARK>
 VINA RESULT:      -6.0      2.517      6.211
  Name = 
  10 active torsions:
  status: ('A' for Active; 'I' for Inactive)
    1  A    between atoms: C_1  and  C_22
    2  A    between atoms: C_2  and  C_8
    3  A    between atoms: C_2  and  N_12
    4  A    between atoms: S_3  and  C_22
    5  A    between atoms: S_3  and  N_23
    6  A    between atoms: C_5  and  C_15
    7  A    between atoms: C_5  and  N_23
    8  A    between atoms: C_6  and  C_15
    9  A    between atoms: C_21  and  C_25
   10  A    between atoms: C_21  and  N_26
                            x       y       z     vdW  Elec       q    Type
                         _______ _______ _______ _____ _____    ______ ____

>  <TORSDO>
F 10

$$$$
=
 OpenBabel11062422573D

 29 31  0  0  1  0  0  0  0  0999 V2000
  185.5490  179.2520  143.7890 C   0  0  2  0  0  3  0  0  0  0  0  0
  186.4000  178.8230  144.8820 N   0  0  0  0  0  0  0  0  0  0  0  0
  184.3100  178.3810  145.9010 C   0  0  0  0  0  2  0  0  0  0  0  0
  185.7900  178.3980  145.9340 C   0  0  0  0  0  0  0  0  0  0  0  0
  183.8250  178.8260  144.2050 S   0  0  0  0  0  0  0  0  0  0  0  0
  186.5080  177.9560  147.0870 N   0  0  0  0  0  2  0  0  0  0  0  0
  185.9700  178.5920  142.5140 C   0  0  0  0  0  0  0  0  0  0  0  0
  185.2810  178.6870  141.5090 O   0  0  0  0  0  0  0  0  0  0  0  0
  187.2230  177.7860  142.4830 C   0  0  0  0  0  2  0  0  0  0  0  0
  186.8980  176.3680  142.4760 N   0  0  0  0  0  2  0  0  0  0  0  0
  188.2210  175.5310  141.7340 S   0  0  0  0  0  0  0  0  0  0  0  0
  188.0020  175.4540  140.2490 O   0  0  0  0  0  0  0  0  0  0  0  0
  189.5030  176.2660  142.0100 O   0  0  0  0  0  0  0  0  0  0  0  0
  189.5070  173.7610  143.3560 C   0  0  0  0  0  1  0  0  0  0  0  0
  188.3390  173.8750  142.3930 C   0  0  2  0  0  3  0  0  0  0  0  0
  188.4320  172.8320  141.2850 C   0  0  0  0  0  2  0  0  0  0  0  0
  189.7600  172.6030  140.9170 O   0  0  0  0  0  1  0  0  0  0  0  0
  187.9600  177.9540  147.1380 C   0  0  0  0  0  2  0  0  0  0  0  0
  189.9460  176.6190  146.7180 N   0  0  0  0  0  0  0  0  0  0  0  0
  189.1680  176.6690  145.4720 C   0  0  0  0  0  2  0  0  0  0  0  0
  188.4760  176.5840  146.7520 C   0  0  2  0  0  3  0  0  0  0  0  0
  190.3960  175.2480  146.8750 C   0  0  0  0  0  2  0  0  0  0  0  0
  192.7190  176.1820  146.8630 C   0  0  0  0  0  3  0  0  0  0  0  0
  191.8410  175.1490  146.5270 C   0  0  0  0  0  0  0  0  0  0  0  0
  194.5230  175.0220  145.8440 C   0  0  0  0  0  0  0  0  0  0  0  0
  193.6740  173.9720  145.4840 C   0  0  0  0  0  3  0  0  0  0  0  0
  192.3230  174.0410  145.8280 C   0  0  0  0  0  3  0  0  0  0  0  0
  195.9020  174.9660  145.5020 N   0  0  0  0  0  1  0  0  0  0  0  0
  194.0330  176.0970  146.5180 N   0  0  0  0  0  0  0  0  0  0  0  0
  1  7  1  6  0  0  0
  1  5  1  0  0  0  0
  1  2  1  0  0  0  0
  2  4  2  0  0  0  0
  3  4  1  0  0  0  0
  4  6  1  0  0  0  0
  5  3  1  0  0  0  0
  6 18  1  0  0  0  0
  8  7  2  0  0  0  0
  9  7  1  0  0  0  0
 10  9  1  0  0  0  0
 11 13  2  0  0  0  0
 11 15  1  0  0  0  0
 11 10  1  0  0  0  0
 12 11  2  0  0  0  0
 15 14  1  1  0  0  0
 16 15  1  0  0  0  0
 17 16  1  0  0  0  0
 19 21  1  0  0  0  0
 19 22  1  0  0  0  0
 20 19  1  0  0  0  0
 20 21  1  0  0  0  0
 21 18  1  1  0  0  0
 24 23  1  0  0  0  0
 24 22  1  0  0  0  0
 25 29  1  0  0  0  0
 26 27  1  0  0  0  0
 26 25  2  0  0  0  0
 27 24  2  0  0  0  0
 28 25  1  0  0  0  0
 29 23  2  0  0  0  0
M  END
>  <MODEL>
5

>  <REMARK>
 VINA RESULT:      -5.8      1.877      2.873
  Name = 
  10 active torsions:
  status: ('A' for Active; 'I' for Inactive)
    1  A    between atoms: C_1  and  C_22
    2  A    between atoms: C_2  and  C_8
    3  A    between atoms: C_2  and  N_12
    4  A    between atoms: S_3  and  C_22
    5  A    between atoms: S_3  and  N_23
    6  A    between atoms: C_5  and  C_15
    7  A    between atoms: C_5  and  N_23
    8  A    between atoms: C_6  and  C_15
    9  A    between atoms: C_21  and  C_25
   10  A    between atoms: C_21  and  N_26
                            x       y       z     vdW  Elec       q    Type
                         _______ _______ _______ _____ _____    ______ ____

>  <TORSDO>
F 10

$$$$
=
 OpenBabel11062422573D

 29 31  0  0  1  0  0  0  0  0999 V2000
  190.0050  173.7580  143.2480 C   0  0  2  0  0  3  0  0  0  0  0  0
  191.2900  174.3290  143.6020 N   0  0  0  0  0  0  0  0  0  0  0  0
  192.0740  172.2670  142.7450 C   0  0  0  0  0  2  0  0  0  0  0  0
  192.3180  173.5900  143.3630 C   0  0  0  0  0  0  0  0  0  0  0  0
  190.3020  172.2020  142.3420 S   0  0  0  0  0  0  0  0  0  0  0  0
  193.6420  174.0260  143.6740 N   0  0  0  0  0  2  0  0  0  0  0  0
  189.2210  174.7220  142.4140 C   0  0  0  0  0  0  0  0  0  0  0  0
  189.2640  174.6650  141.1940 O   0  0  0  0  0  0  0  0  0  0  0  0
  188.4100  175.7790  143.0810 C   0  0  0  0  0  2  0  0  0  0  0  0
  187.1430  175.9430  142.3850 N   0  0  0  0  0  2  0  0  0  0  0  0
  187.1590  177.5020  141.6310 S   0  0  0  0  0  0  0  0  0  0  0  0
  188.5080  178.1400  141.8120 O   0  0  0  0  0  0  0  0  0  0  0  0
  186.8720  177.3560  140.1620 O   0  0  0  0  0  0  0  0  0  0  0  0
  186.2840  178.8890  143.8060 C   0  0  0  0  0  1  0  0  0  0  0  0
  185.9150  178.5480  142.3730 C   0  0  2  0  0  3  0  0  0  0  0  0
  184.5280  177.9210  142.2920 C   0  0  0  0  0  2  0  0  0  0  0  0
  183.8780  178.2820  141.1100 O   0  0  0  0  0  1  0  0  0  0  0  0
  193.9060  175.3260  144.2700 C   0  0  0  0  0  2  0  0  0  0  0  0
  192.6850  176.4000  146.0750 N   0  0  0  0  0  0  0  0  0  0  0  0
  194.1170  176.4660  146.4000 C   0  0  0  0  0  2  0  0  0  0  0  0
  193.5800  175.2790  145.7470 C   0  0  2  0  0  3  0  0  0  0  0  0
  191.9950  176.0350  147.2980 C   0  0  0  0  0  2  0  0  0  0  0  0
  189.6670  175.1150  147.3640 C   0  0  0  0  0  3  0  0  0  0  0  0
  190.5250  176.1880  147.1130 C   0  0  0  0  0  0  0  0  0  0  0  0
  187.7920  176.4230  146.7210 C   0  0  0  0  0  0  0  0  0  0  0  0
  188.6190  177.5160  146.4520 C   0  0  0  0  0  3  0  0  0  0  0  0
  189.9960  177.3930  146.6480 C   0  0  0  0  0  3  0  0  0  0  0  0
  186.3880  176.5320  146.5280 N   0  0  0  0  0  1  0  0  0  0  0  0
  188.3280  175.2540  147.1660 N   0  0  0  0  0  0  0  0  0  0  0  0
  1  7  1  6  0  0  0
  1  2  1  0  0  0  0
  3  4  1  0  0  0  0
  4  2  2  0  0  0  0
  4  6  1  0  0  0  0
  5  3  1  0  0  0  0
  5  1  1  0  0  0  0
  6 18  1  0  0  0  0
  7  9  1  0  0  0  0
  8  7  2  0  0  0  0
 10  9  1  0  0  0  0
 11 12  2  0  0  0  0
 11 15  1  0  0  0  0
 11 10  1  0  0  0  0
 13 11  2  0  0  0  0
 15 14  1  1  0  0  0
 16 15  1  0  0  0  0
 17 16  1  0  0  0  0
 19 20  1  0  0  0  0
 19 22  1  0  0  0  0
 21 18  1  6  0  0  0
 21 19  1  0  0  0  0
 21 20  1  0  0  0  0
 24 22  1  0  0  0  0
 24 23  2  0  0  0  0
 25 29  2  0  0  0  0
 26 27  2  0  0  0  0
 26 25  1  0  0  0  0
 27 24  1  0  0  0  0
 28 25  1  0  0  0  0
 29 23  1  0  0  0  0
M  END
>  <MODEL>
6

>  <REMARK>
 VINA RESULT:      -5.8      2.004      6.255
  Name = 
  10 active torsions:
  status: ('A' for Active; 'I' for Inactive)
    1  A    between atoms: C_1  and  C_22
    2  A    between atoms: C_2  and  C_8
    3  A    between atoms: C_2  and  N_12
    4  A    between atoms: S_3  and  C_22
    5  A    between atoms: S_3  and  N_23
    6  A    between atoms: C_5  and  C_15
    7  A    between atoms: C_5  and  N_23
    8  A    between atoms: C_6  and  C_15
    9  A    between atoms: C_21  and  C_25
   10  A    between atoms: C_21  and  N_26
                            x       y       z     vdW  Elec       q    Type
                         _______ _______ _______ _____ _____    ______ ____

>  <TORSDO>
F 10

$$$$
=
 OpenBabel11062422573D

 29 31  0  0  1  0  0  0  0  0999 V2000
  185.8130  178.9660  146.0040 C   0  0  2  0  0  3  0  0  0  0  0  0
  186.8750  177.9800  145.9520 N   0  0  0  0  0  0  0  0  0  0  0  0
  185.7280  177.1260  147.8380 C   0  0  0  0  0  2  0  0  0  0  0  0
  186.8420  177.0710  146.8650 C   0  0  0  0  0  0  0  0  0  0  0  0
  184.6080  178.4410  147.2690 S   0  0  0  0  0  0  0  0  0  0  0  0
  187.8350  176.0470  146.9360 N   0  0  0  0  0  2  0  0  0  0  0  0
  185.1600  179.0960  144.6640 C   0  0  0  0  0  0  0  0  0  0  0  0
  183.9620  178.8950  144.5350 O   0  0  0  0  0  0  0  0  0  0  0  0
  185.9880  179.4390  143.4740 C   0  0  0  0  0  2  0  0  0  0  0  0
  185.7010  178.5150  142.3880 N   0  0  0  0  0  2  0  0  0  0  0  0
  186.9340  177.2990  142.3950 S   0  0  0  0  0  0  0  0  0  0  0  0
  188.1270  177.7910  143.1670 O   0  0  0  0  0  0  0  0  0  0  0  0
  186.4070  176.0480  143.0390 O   0  0  0  0  0  0  0  0  0  0  0  0
  186.3510  177.3290  139.7340 C   0  0  0  0  0  1  0  0  0  0  0  0
  187.4360  176.9330  140.7200 C   0  0  2  0  0  3  0  0  0  0  0  0
  187.8240  175.4680  140.5540 C   0  0  0  0  0  2  0  0  0  0  0  0
  188.9660  175.1610  141.2980 O   0  0  0  0  0  1  0  0  0  0  0  0
  188.9310  175.9660  145.9850 C   0  0  0  0  0  2  0  0  0  0  0  0
  191.3300  175.6330  146.1710 N   0  0  0  0  0  0  0  0  0  0  0  0
  190.7420  175.4090  147.4990 C   0  0  0  0  0  2  0  0  0  0  0  0
  190.2040  176.4560  146.6400 C   0  0  2  0  0  3  0  0  0  0  0  0
  192.5320  176.4220  146.3740 C   0  0  0  0  0  2  0  0  0  0  0  0
  194.8140  176.4700  145.3440 C   0  0  0  0  0  3  0  0  0  0  0  0
  193.4380  176.2710  145.2030 C   0  0  0  0  0  0  0  0  0  0  0  0
  195.1450  176.0560  143.0300 C   0  0  0  0  0  0  0  0  0  0  0  0
  193.7740  175.8570  142.8470 C   0  0  0  0  0  3  0  0  0  0  0  0
  192.9170  175.9690  143.9430 C   0  0  0  0  0  3  0  0  0  0  0  0
  196.0310  175.9440  141.9240 N   0  0  0  0  0  1  0  0  0  0  0  0
  195.6320  176.3570  144.2640 N   0  0  0  0  0  0  0  0  0  0  0  0
  1  7  1  6  0  0  0
  1  5  1  0  0  0  0
  2  1  1  0  0  0  0
  2  4  2  0  0  0  0
  4  6  1  0  0  0  0
  4  3  1  0  0  0  0
  5  3  1  0  0  0  0
  8  7  2  0  0  0  0
  9  7  1  0  0  0  0
 10 11  1  0  0  0  0
 10  9  1  0  0  0  0
 11 13  2  0  0  0  0
 11 12  2  0  0  0  0
 15 14  1  6  0  0  0
 15 11  1  0  0  0  0
 16 15  1  0  0  0  0
 16 17  1  0  0  0  0
 18  6  1  0  0  0  0
 19 22  1  0  0  0  0
 19 21  1  0  0  0  0
 19 20  1  0  0  0  0
 21 18  1  6  0  0  0
 21 20  1  0  0  0  0
 24 23  1  0  0  0  0
 24 22  1  0  0  0  0
 25 29  1  0  0  0  0
 26 25  2  0  0  0  0
 26 27  1  0  0  0  0
 27 24  2  0  0  0  0
 28 25  1  0  0  0  0
 29 23  2  0  0  0  0
M  END
>  <MODEL>
7

>  <REMARK>
 VINA RESULT:      -5.7      2.602      4.756
  Name = 
  10 active torsions:
  status: ('A' for Active; 'I' for Inactive)
    1  A    between atoms: C_1  and  C_22
    2  A    between atoms: C_2  and  C_8
    3  A    between atoms: C_2  and  N_12
    4  A    between atoms: S_3  and  C_22
    5  A    between atoms: S_3  and  N_23
    6  A    between atoms: C_5  and  C_15
    7  A    between atoms: C_5  and  N_23
    8  A    between atoms: C_6  and  C_15
    9  A    between atoms: C_21  and  C_25
   10  A    between atoms: C_21  and  N_26
                            x       y       z     vdW  Elec       q    Type
                         _______ _______ _______ _____ _____    ______ ____

>  <TORSDO>
F 10

$$$$
=
 OpenBabel11062422573D

 29 31  0  0  1  0  0  0  0  0999 V2000
  194.1640  172.3070  143.5160 C   0  0  2  0  0  3  0  0  0  0  0  0
  192.9890  172.9960  144.0120 N   0  0  0  0  0  0  0  0  0  0  0  0
  192.1000  170.8020  143.9990 C   0  0  0  0  0  2  0  0  0  0  0  0
  191.9610  172.2560  144.2440 C   0  0  0  0  0  0  0  0  0  0  0  0
  193.8500  170.5110  143.5960 S   0  0  0  0  0  0  0  0  0  0  0  0
  190.7340  172.8090  144.7240 N   0  0  0  0  0  2  0  0  0  0  0  0
  195.3640  172.6770  144.3300 C   0  0  0  0  0  0  0  0  0  0  0  0
  195.4310  172.3740  145.5120 O   0  0  0  0  0  0  0  0  0  0  0  0
  196.4700  173.4500  143.6980 C   0  0  0  0  0  2  0  0  0  0  0  0
  196.7480  174.6450  144.4800 N   0  0  0  0  0  2  0  0  0  0  0  0
  195.9180  175.9670  143.7300 S   0  0  0  0  0  0  0  0  0  0  0  0
  196.8800  177.0970  143.4870 O   0  0  0  0  0  0  0  0  0  0  0  0
  195.3360  175.5200  142.4180 O   0  0  0  0  0  0  0  0  0  0  0  0
  194.6240  175.8040  146.1210 C   0  0  0  0  0  1  0  0  0  0  0  0
  194.6020  176.5400  144.7930 C   0  0  2  0  0  3  0  0  0  0  0  0
  193.2400  176.4230  144.1180 C   0  0  0  0  0  2  0  0  0  0  0  0
  192.3930  177.4650  144.5060 O   0  0  0  0  0  1  0  0  0  0  0  0
  190.5780  174.2300  144.9830 C   0  0  0  0  0  2  0  0  0  0  0  0
  189.1950  175.8370  146.1690 N   0  0  0  0  0  0  0  0  0  0  0  0
  190.2150  175.3460  147.1060 C   0  0  0  0  0  2  0  0  0  0  0  0
  189.6220  174.4300  146.1400 C   0  0  2  0  0  3  0  0  0  0  0  0
  187.9400  175.8740  146.8980 C   0  0  0  0  0  2  0  0  0  0  0  0
  187.4420  177.6560  145.2110 C   0  0  0  0  0  3  0  0  0  0  0  0
  186.9950  176.8100  146.2290 C   0  0  0  0  0  0  0  0  0  0  0  0
  185.2760  178.6040  145.0030 C   0  0  0  0  0  0  0  0  0  0  0  0
  184.7930  177.7800  146.0230 C   0  0  0  0  0  3  0  0  0  0  0  0
  185.6630  176.8790  146.6390 C   0  0  0  0  0  3  0  0  0  0  0  0
  184.4020  179.5260  144.3650 N   0  0  0  0  0  1  0  0  0  0  0  0
  186.5800  178.5270  144.6230 N   0  0  0  0  0  0  0  0  0  0  0  0
  1  5  1  0  0  0  0
  1  2  1  0  0  0  0
  1  7  1  1  0  0  0
  2  4  2  0  0  0  0
  3  4  1  0  0  0  0
  4  6  1  0  0  0  0
  5  3  1  0  0  0  0
  6 18  1  0  0  0  0
  7  8  2  0  0  0  0
  9  7  1  0  0  0  0
  9 10  1  0  0  0  0
 11 10  1  0  0  0  0
 11 15  1  0  0  0  0
 12 11  2  0  0  0  0
 13 11  2  0  0  0  0
 15 14  1  1  0  0  0
 16 17  1  0  0  0  0
 16 15  1  0  0  0  0
 19 22  1  0  0  0  0
 19 20  1  0  0  0  0
 21 18  1  6  0  0  0
 21 19  1  0  0  0  0
 21 20  1  0  0  0  0
 23 24  1  0  0  0  0
 24 27  2  0  0  0  0
 24 22  1  0  0  0  0
 25 26  2  0  0  0  0
 26 27  1  0  0  0  0
 28 25  1  0  0  0  0
 29 25  1  0  0  0  0
 29 23  2  0  0  0  0
M  END
>  <MODEL>
8

>  <REMARK>
 VINA RESULT:      -5.7      3.811      7.558
  Name = 
  10 active torsions:
  status: ('A' for Active; 'I' for Inactive)
    1  A    between atoms: C_1  and  C_22
    2  A    between atoms: C_2  and  C_8
    3  A    between atoms: C_2  and  N_12
    4  A    between atoms: S_3  and  C_22
    5  A    between atoms: S_3  and  N_23
    6  A    between atoms: C_5  and  C_15
    7  A    between atoms: C_5  and  N_23
    8  A    between atoms: C_6  and  C_15
    9  A    between atoms: C_21  and  C_25
   10  A    between atoms: C_21  and  N_26
                            x       y       z     vdW  Elec       q    Type
                         _______ _______ _______ _____ _____    ______ ____

>  <TORSDO>
F 10

$$$$
=
 OpenBabel11062422573D

 29 31  0  0  1  0  0  0  0  0999 V2000
  193.2520  174.6820  145.2980 C   0  0  2  0  0  3  0  0  0  0  0  0
  191.9110  174.7740  145.8430 N   0  0  0  0  0  0  0  0  0  0  0  0
  192.9450  176.3760  147.2460 C   0  0  0  0  0  2  0  0  0  0  0  0
  191.7570  175.6060  146.8150 C   0  0  0  0  0  0  0  0  0  0  0  0
  194.2700  175.9910  146.0600 S   0  0  0  0  0  0  0  0  0  0  0  0
  190.4900  175.7860  147.4500 N   0  0  0  0  0  2  0  0  0  0  0  0
  193.2180  174.8300  143.8090 C   0  0  0  0  0  0  0  0  0  0  0  0
  193.7750  175.7720  143.2660 O   0  0  0  0  0  0  0  0  0  0  0  0
  192.4690  173.8360  142.9900 C   0  0  0  0  0  2  0  0  0  0  0  0
  191.6680  174.5230  141.9890 N   0  0  0  0  0  2  0  0  0  0  0  0
  190.0580  174.6600  142.6110 S   0  0  0  0  0  0  0  0  0  0  0  0
  189.8500  173.6520  143.7070 O   0  0  0  0  0  0  0  0  0  0  0  0
  189.8430  176.0430  143.1600 O   0  0  0  0  0  0  0  0  0  0  0  0
  187.7580  173.4490  141.7950 C   0  0  0  0  0  1  0  0  0  0  0  0
  188.8750  174.3550  141.3070 C   0  0  2  0  0  3  0  0  0  0  0  0
  189.5420  173.7860  140.0600 C   0  0  0  0  0  2  0  0  0  0  0  0
  188.7920  172.7400  139.5180 O   0  0  0  0  0  1  0  0  0  0  0  0
  189.3070  175.0500  147.0360 C   0  0  0  0  0  2  0  0  0  0  0  0
  187.7120  176.4130  145.8110 N   0  0  0  0  0  0  0  0  0  0  0  0
  188.4400  177.2950  146.7340 C   0  0  0  0  0  2  0  0  0  0  0  0
  188.0910  175.9430  147.1530 C   0  0  2  0  0  3  0  0  0  0  0  0
  186.3130  176.7930  145.8850 C   0  0  0  0  0  2  0  0  0  0  0  0
  186.3740  176.5960  143.3900 C   0  0  0  0  0  3  0  0  0  0  0  0
  185.8230  177.1790  144.5340 C   0  0  0  0  0  0  0  0  0  0  0  0
  184.9750  177.9200  142.0010 C   0  0  0  0  0  0  0  0  0  0  0  0
  184.4050  178.5310  143.1210 C   0  0  0  0  0  3  0  0  0  0  0  0
  184.8360  178.1570  144.3950 C   0  0  0  0  0  3  0  0  0  0  0  0
  184.5460  178.2880  140.6970 N   0  0  0  0  0  1  0  0  0  0  0  0
  185.9410  176.9740  142.1570 N   0  0  0  0  0  0  0  0  0  0  0  0
  1  7  1  6  0  0  0
  1  2  1  0  0  0  0
  1  5  1  0  0  0  0
  2  4  2  0  0  0  0
  4  3  1  0  0  0  0
  4  6  1  0  0  0  0
  5  3  1  0  0  0  0
  8  7  2  0  0  0  0
  9  7  1  0  0  0  0
 10 11  1  0  0  0  0
 10  9  1  0  0  0  0
 11 13  2  0  0  0  0
 11 12  2  0  0  0  0
 15 14  1  1  0  0  0
 15 11  1  0  0  0  0
 16 15  1  0  0  0  0
 17 16  1  0  0  0  0
 18  6  1  0  0  0  0
 19 22  1  0  0  0  0
 19 20  1  0  0  0  0
 19 21  1  0  0  0  0
 20 21  1  0  0  0  0
 21 18  1  6  0  0  0
 23 24  1  0  0  0  0
 24 22  1  0  0  0  0
 25 29  1  0  0  0  0
 25 26  2  0  0  0  0
 26 27  1  0  0  0  0
 27 24  2  0  0  0  0
 28 25  1  0  0  0  0
 29 23  2  0  0  0  0
M  END
>  <MODEL>
9

>  <REMARK>
 VINA RESULT:      -5.7      2.531      6.157
  Name = 
  10 active torsions:
  status: ('A' for Active; 'I' for Inactive)
    1  A    between atoms: C_1  and  C_22
    2  A    between atoms: C_2  and  C_8
    3  A    between atoms: C_2  and  N_12
    4  A    between atoms: S_3  and  C_22
    5  A    between atoms: S_3  and  N_23
    6  A    between atoms: C_5  and  C_15
    7  A    between atoms: C_5  and  N_23
    8  A    between atoms: C_6  and  C_15
    9  A    between atoms: C_21  and  C_25
   10  A    between atoms: C_21  and  N_26
                            x       y       z     vdW  Elec       q    Type
                         _______ _______ _______ _____ _____    ______ ____

>  <TORSDO>
F 10

$$$$
