=
 OpenBabel11062422083D

 27 30  0  0  1  0  0  0  0  0999 V2000
  192.0240  176.0500  145.5710 C   0  0  2  0  0  3  0  0  0  0  0  0
  184.3650  177.9110  145.5970 O   0  0  0  0  0  0  0  0  0  0  0  0
  189.6290  175.8210  143.9310 C   0  0  2  0  0  3  0  0  0  0  0  0
  188.2750  176.8550  145.6860 C   0  0  2  0  0  3  0  0  0  0  0  0
  190.7010  176.5250  146.1770 C   0  0  1  0  0  3  0  0  0  0  0  0
  190.8100  176.4470  143.4260 O   0  0  0  0  0  0  0  0  0  0  0  0
  187.3930  176.5080  146.8620 C   0  0  0  0  0  3  0  0  0  0  0  0
  187.5420  176.8600  144.3920 C   0  0  0  0  0  0  0  0  0  0  0  0
  193.0810  176.7980  143.5730 O   0  0  0  0  0  0  0  0  0  0  0  0
  186.2600  177.2360  144.3290 C   0  0  0  0  0  3  0  0  0  0  0  0
  188.3970  176.4270  143.2440 C   0  0  2  0  0  3  0  0  0  0  0  0
  185.5150  177.3990  145.5930 C   0  0  0  0  0  0  0  0  0  0  0  0
  189.4630  175.9430  145.4730 C   0  0  2  0  0  3  0  0  0  0  0  0
  186.0950  176.8420  146.8340 C   0  0  0  0  0  3  0  0  0  0  0  0
  192.0140  176.4330  144.1330 C   0  0  0  0  0  0  0  0  0  0  0  0
  187.9260  172.8470  141.6190 C   0  0  0  0  0  2  0  0  0  0  0  0
  188.4710  173.9420  139.3730 C   0  0  0  0  0  0  0  0  0  0  0  0
  189.0550  173.9870  138.0740 N   0  0  0  0  0  1  0  0  0  0  0  0
  188.7060  172.7600  140.2780 C   0  0  0  0  0  2  0  0  0  0  0  0
  188.1030  175.0320  139.9620 C   0  0  0  0  0  0  0  0  0  0  0  0
  187.7470  175.8720  140.8800 C   0  0  0  0  0  3  0  0  0  0  0  0
  188.4340  173.9940  142.5200 C   0  0  0  0  0  2  0  0  0  0  0  0
  187.7390  175.3830  142.3160 C   0  0  1  0  0  3  0  0  0  0  0  0
  191.7170  177.0640  148.2900 O   0  0  0  0  0  1  0  0  0  0  0  0
  190.6550  176.3780  147.6970 C   0  0  0  0  0  2  0  0  0  0  0  0
  192.1580  174.6620  145.6850 O   0  0  0  0  0  0  0  0  0  0  0  0
  193.4980  174.4610  146.0180 C   0  0  0  0  0  1  0  0  0  0  0  0
  1 26  1  6  0  0  0
  1  5  1  0  0  0  0
  3  6  1  6  0  0  0
  3 13  1  0  0  0  0
  4  7  1  1  0  0  0
  5 25  1  1  0  0  0
  6 15  1  0  0  0  0
  8  4  1  0  0  0  0
  9 15  2  0  0  0  0
 10  8  2  0  0  0  0
 10 12  1  0  0  0  0
 11  3  1  0  0  0  0
 11  8  1  1  0  0  0
 12  2  2  0  0  0  0
 12 14  1  0  0  0  0
 13  4  1  0  0  0  0
 13  5  1  0  0  0  0
 14  7  2  0  0  0  0
 15  1  1  0  0  0  0
 16 22  1  0  0  0  0
 17 20  2  0  0  0  0
 17 19  1  0  0  0  0
 18 17  1  0  0  0  0
 19 16  1  0  0  0  0
 20 21  2  0  0  0  0
 21 23  1  0  0  0  0
 23 22  1  0  0  0  0
 23 11  1  0  0  0  0
 25 24  1  0  0  0  0
 26 27  1  0  0  0  0
M  END
>  <MODEL>
1

>  <REMARK>
 VINA RESULT:      -7.2      0.000      0.000
  Name = 
  3 active torsions:
  status: ('A' for Active; 'I' for Inactive)
    1  A    between atoms: C_5  and  O_8
    2  A    between atoms: C_11  and  C_14
    3  A    between atoms: C_20  and  C_26
                            x       y       z     vdW  Elec       q    Type
                         _______ _______ _______ _____ _____    ______ ____

>  <TORSDO>
F 3

$$$$
=
 OpenBabel11062422083D

 27 30  0  0  1  0  0  0  0  0999 V2000
  191.6990  175.6790  145.0930 C   0  0  2  0  0  3  0  0  0  0  0  0
  184.7790  178.8190  147.1850 O   0  0  0  0  0  0  0  0  0  0  0  0
  189.1660  176.5480  143.9520 C   0  0  2  0  0  3  0  0  0  0  0  0
  188.2960  177.0820  146.1750 C   0  0  2  0  0  3  0  0  0  0  0  0
  190.6030  176.1340  146.0620 C   0  0  1  0  0  3  0  0  0  0  0  0
  190.4060  177.0800  143.4820 O   0  0  0  0  0  0  0  0  0  0  0  0
  187.4820  176.4920  147.3030 C   0  0  0  0  0  3  0  0  0  0  0  0
  187.4580  177.7140  145.1220 C   0  0  0  0  0  0  0  0  0  0  0  0
  192.6960  176.9090  143.3150 O   0  0  0  0  0  0  0  0  0  0  0  0
  186.3080  178.3250  145.4330 C   0  0  0  0  0  3  0  0  0  0  0  0
  188.0560  177.5920  143.7570 C   0  0  2  0  0  3  0  0  0  0  0  0
  185.7610  178.1380  146.7910 C   0  0  0  0  0  0  0  0  0  0  0  0
  189.1940  176.1080  145.4440 C   0  0  2  0  0  3  0  0  0  0  0  0
  186.3110  177.0530  147.6330 C   0  0  0  0  0  3  0  0  0  0  0  0
  191.6360  176.5710  143.9040 C   0  0  0  0  0  0  0  0  0  0  0  0
  186.1750  177.7900  140.2790 C   0  0  0  0  0  2  0  0  0  0  0  0
  184.0050  178.0030  141.6170 C   0  0  0  0  0  0  0  0  0  0  0  0
  182.6980  178.5080  141.8720 N   0  0  0  0  0  1  0  0  0  0  0  0
  184.8090  178.5130  140.4490 C   0  0  0  0  0  2  0  0  0  0  0  0
  184.6870  177.4460  142.5640 C   0  0  0  0  0  0  0  0  0  0  0  0
  185.6760  176.9670  143.2460 C   0  0  0  0  0  3  0  0  0  0  0  0
  187.1460  178.0930  141.4410 C   0  0  0  0  0  2  0  0  0  0  0  0
  187.0700  177.1220  142.6670 C   0  0  1  0  0  3  0  0  0  0  0  0
  191.2410  176.2810  148.3760 O   0  0  0  0  0  1  0  0  0  0  0  0
  190.6800  175.4360  147.4180 C   0  0  0  0  0  2  0  0  0  0  0  0
  191.4990  174.3520  144.6960 O   0  0  0  0  0  0  0  0  0  0  0  0
  192.7400  173.7390  144.8650 C   0  0  0  0  0  1  0  0  0  0  0  0
  1 26  1  6  0  0  0
  1  5  1  0  0  0  0
  3  6  1  1  0  0  0
  3 13  1  0  0  0  0
  4  7  1  1  0  0  0
  5 25  1  1  0  0  0
  6 15  1  0  0  0  0
  7 14  2  0  0  0  0
  8 10  2  0  0  0  0
  8  4  1  0  0  0  0
  9 15  2  0  0  0  0
 10 12  1  0  0  0  0
 11  3  1  0  0  0  0
 11  8  1  1  0  0  0
 12  2  2  0  0  0  0
 12 14  1  0  0  0  0
 13  5  1  0  0  0  0
 13  4  1  0  0  0  0
 15  1  1  0  0  0  0
 16 19  1  0  0  0  0
 16 22  1  0  0  0  0
 17 18  1  0  0  0  0
 17 20  2  0  0  0  0
 19 17  1  0  0  0  0
 20 21  2  0  0  0  0
 22 23  1  0  0  0  0
 23 21  1  0  0  0  0
 23 11  1  0  0  0  0
 25 24  1  0  0  0  0
 26 27  1  0  0  0  0
M  END
>  <MODEL>
2

>  <REMARK>
 VINA RESULT:      -6.9      2.663      3.182
  Name = 
  3 active torsions:
  status: ('A' for Active; 'I' for Inactive)
    1  A    between atoms: C_5  and  O_8
    2  A    between atoms: C_11  and  C_14
    3  A    between atoms: C_20  and  C_26
                            x       y       z     vdW  Elec       q    Type
                         _______ _______ _______ _____ _____    ______ ____

>  <TORSDO>
F 3

$$$$
=
 OpenBabel11062422083D

 27 30  0  0  1  0  0  0  0  0999 V2000
  190.6930  172.7770  142.0960 C   0  0  2  0  0  3  0  0  0  0  0  0
  189.6700  178.1840  147.7390 O   0  0  0  0  0  0  0  0  0  0  0  0
  188.9530  174.9950  142.8220 C   0  0  2  0  0  3  0  0  0  0  0  0
  190.1520  175.3030  144.9330 C   0  0  2  0  0  3  0  0  0  0  0  0
  190.9170  173.4380  143.4590 C   0  0  1  0  0  3  0  0  0  0  0  0
  189.6340  174.9740  141.5670 O   0  0  0  0  0  0  0  0  0  0  0  0
  190.1060  174.9090  146.3900 C   0  0  0  0  0  3  0  0  0  0  0  0
  189.3190  176.4970  144.6270 C   0  0  0  0  0  0  0  0  0  0  0  0
  190.7530  173.7870  139.9410 O   0  0  0  0  0  0  0  0  0  0  0  0
  189.1710  177.4790  145.5230 C   0  0  0  0  0  3  0  0  0  0  0  0
  188.7250  176.4510  143.2550 C   0  0  2  0  0  3  0  0  0  0  0  0
  189.6320  177.2420  146.9050 C   0  0  0  0  0  0  0  0  0  0  0  0
  189.7010  174.2370  143.9570 C   0  0  2  0  0  3  0  0  0  0  0  0
  189.9330  175.8550  147.3230 C   0  0  0  0  0  3  0  0  0  0  0  0
  190.3500  173.8560  141.1320 C   0  0  0  0  0  0  0  0  0  0  0  0
  185.5890  178.8380  142.8830 C   0  0  0  0  0  2  0  0  0  0  0  0
  184.9590  178.1620  145.2680 C   0  0  0  0  0  0  0  0  0  0  0  0
  184.4490  178.3960  146.5770 N   0  0  0  0  0  1  0  0  0  0  0  0
  185.0940  179.2950  144.2840 C   0  0  0  0  0  2  0  0  0  0  0  0
  185.6920  177.1240  145.0290 C   0  0  0  0  0  0  0  0  0  0  0  0
  186.5220  176.3120  144.4570 C   0  0  0  0  0  3  0  0  0  0  0  0
  187.0450  178.3220  142.9160 C   0  0  0  0  0  2  0  0  0  0  0  0
  187.2210  176.7920  143.1990 C   0  0  1  0  0  3  0  0  0  0  0  0
  192.7540  172.8640  144.9030 O   0  0  0  0  0  1  0  0  0  0  0  0
  191.4740  172.4730  144.5050 C   0  0  0  0  0  2  0  0  0  0  0  0
  189.6460  171.8500  142.1550 O   0  0  0  0  0  0  0  0  0  0  0  0
  190.1870  170.6700  141.6450 C   0  0  0  0  0  1  0  0  0  0  0  0
  1 26  1  1  0  0  0
  1  5  1  0  0  0  0
  3  6  1  6  0  0  0
  3 11  1  0  0  0  0
  3 13  1  0  0  0  0
  4  7  1  1  0  0  0
  5 13  1  0  0  0  0
  5 25  1  1  0  0  0
  7 14  2  0  0  0  0
  8  4  1  0  0  0  0
  8 10  2  0  0  0  0
  9 15  2  0  0  0  0
 10 12  1  0  0  0  0
 11  8  1  1  0  0  0
 12 14  1  0  0  0  0
 12  2  2  0  0  0  0
 13  4  1  0  0  0  0
 15  6  1  0  0  0  0
 15  1  1  0  0  0  0
 16 22  1  0  0  0  0
 16 19  1  0  0  0  0
 17 18  1  0  0  0  0
 19 17  1  0  0  0  0
 20 17  2  0  0  0  0
 21 20  2  0  0  0  0
 22 23  1  0  0  0  0
 23 11  1  0  0  0  0
 23 21  1  0  0  0  0
 25 24  1  0  0  0  0
 27 26  1  0  0  0  0
M  END
>  <MODEL>
3

>  <REMARK>
 VINA RESULT:      -6.8      3.066      5.070
  Name = 
  3 active torsions:
  status: ('A' for Active; 'I' for Inactive)
    1  A    between atoms: C_5  and  O_8
    2  A    between atoms: C_11  and  C_14
    3  A    between atoms: C_20  and  C_26
                            x       y       z     vdW  Elec       q    Type
                         _______ _______ _______ _____ _____    ______ ____

>  <TORSDO>
F 3

$$$$
=
 OpenBabel11062422083D

 27 30  0  0  1  0  0  0  0  0999 V2000
  188.4740  176.8870  146.8880 C   0  0  2  0  0  3  0  0  0  0  0  0
  184.7880  178.6660  140.1520 O   0  0  0  0  0  0  0  0  0  0  0  0
  188.5330  176.2780  144.0420 C   0  0  2  0  0  3  0  0  0  0  0  0
  186.5640  177.6780  143.6560 C   0  0  2  0  0  3  0  0  0  0  0  0
  187.3670  177.4820  146.0120 C   0  0  1  0  0  3  0  0  0  0  0  0
  189.6910  176.7780  144.7120 O   0  0  0  0  0  0  0  0  0  0  0  0
  185.0600  177.6050  143.5480 C   0  0  0  0  0  3  0  0  0  0  0  0
  187.2540  177.3840  142.3720 C   0  0  0  0  0  0  0  0  0  0  0  0
  190.8290  177.1660  146.6760 O   0  0  0  0  0  0  0  0  0  0  0  0
  186.7050  177.7300  141.2010 C   0  0  0  0  0  3  0  0  0  0  0  0
  188.5720  176.7040  142.5670 C   0  0  2  0  0  3  0  0  0  0  0  0
  185.2970  178.1730  141.1920 C   0  0  0  0  0  0  0  0  0  0  0  0
  187.1900  176.7470  144.6720 C   0  0  2  0  0  3  0  0  0  0  0  0
  184.4660  177.9160  142.3880 C   0  0  0  0  0  3  0  0  0  0  0  0
  189.7350  176.9320  146.0990 C   0  0  0  0  0  0  0  0  0  0  0  0
  187.9580  172.9970  141.3210 C   0  0  0  0  0  2  0  0  0  0  0  0
  190.4040  172.5350  141.9130 C   0  0  0  0  0  0  0  0  0  0  0  0
  191.4780  171.7410  142.4070 N   0  0  0  0  0  1  0  0  0  0  0  0
  188.9850  172.0340  141.9800 C   0  0  0  0  0  2  0  0  0  0  0  0
  190.5380  173.8160  141.7970 C   0  0  0  0  0  0  0  0  0  0  0  0
  190.2600  175.0740  141.6680 C   0  0  0  0  0  3  0  0  0  0  0  0
  187.8210  174.3260  142.0960 C   0  0  0  0  0  2  0  0  0  0  0  0
  188.7960  175.4730  141.6640 C   0  0  1  0  0  3  0  0  0  0  0  0
  185.7270  179.0410  146.8280 O   0  0  0  0  0  1  0  0  0  0  0  0
  186.0550  177.6850  146.7670 C   0  0  0  0  0  2  0  0  0  0  0  0
  188.1840  175.5630  147.2330 O   0  0  0  0  0  0  0  0  0  0  0  0
  189.4280  174.9680  147.4390 C   0  0  0  0  0  1  0  0  0  0  0  0
  1 26  1  6  0  0  0
  2 12  2  0  0  0  0
  3 13  1  0  0  0  0
  3  6  1  1  0  0  0
  4  7  1  6  0  0  0
  4 13  1  0  0  0  0
  5 25  1  1  0  0  0
  5  1  1  0  0  0  0
  6 15  1  0  0  0  0
  8  4  1  0  0  0  0
 10  8  2  0  0  0  0
 11  8  1  6  0  0  0
 11  3  1  0  0  0  0
 12 10  1  0  0  0  0
 12 14  1  0  0  0  0
 13  5  1  0  0  0  0
 14  7  2  0  0  0  0
 15  9  2  0  0  0  0
 15  1  1  0  0  0  0
 16 19  1  0  0  0  0
 16 22  1  0  0  0  0
 17 19  1  0  0  0  0
 17 18  1  0  0  0  0
 20 17  2  0  0  0  0
 21 20  2  0  0  0  0
 23 21  1  0  0  0  0
 23 22  1  0  0  0  0
 23 11  1  0  0  0  0
 25 24  1  0  0  0  0
 26 27  1  0  0  0  0
M  END
>  <MODEL>
4

>  <REMARK>
 VINA RESULT:      -6.8      2.325      3.581
  Name = 
  3 active torsions:
  status: ('A' for Active; 'I' for Inactive)
    1  A    between atoms: C_5  and  O_8
    2  A    between atoms: C_11  and  C_14
    3  A    between atoms: C_20  and  C_26
                            x       y       z     vdW  Elec       q    Type
                         _______ _______ _______ _____ _____    ______ ____

>  <TORSDO>
F 3

$$$$
=
 OpenBabel11062422083D

 27 30  0  0  1  0  0  0  0  0999 V2000
  193.6520  175.9160  144.2980 C   0  0  2  0  0  3  0  0  0  0  0  0
  186.4000  178.2890  146.2740 O   0  0  0  0  0  0  0  0  0  0  0  0
  190.8830  175.7160  143.4210 C   0  0  2  0  0  3  0  0  0  0  0  0
  190.1270  176.9810  145.3740 C   0  0  2  0  0  3  0  0  0  0  0  0
  192.5760  176.5290  145.2000 C   0  0  1  0  0  3  0  0  0  0  0  0
  191.8980  176.2170  142.5480 O   0  0  0  0  0  0  0  0  0  0  0  0
  189.6010  176.7930  146.7770 C   0  0  0  0  0  3  0  0  0  0  0  0
  189.0590  176.9290  144.3410 C   0  0  0  0  0  0  0  0  0  0  0  0
  194.1300  176.4240  142.0220 O   0  0  0  0  0  0  0  0  0  0  0  0
  187.8270  177.3860  144.6010 C   0  0  0  0  0  3  0  0  0  0  0  0
  189.5330  176.3460  143.0480 C   0  0  2  0  0  3  0  0  0  0  0  0
  187.4790  177.7020  146.0000 C   0  0  0  0  0  0  0  0  0  0  0  0
  191.1660  175.9750  144.9290 C   0  0  2  0  0  3  0  0  0  0  0  0
  188.3640  177.2100  147.0790 C   0  0  0  0  0  3  0  0  0  0  0  0
  193.2510  176.1790  142.8900 C   0  0  0  0  0  0  0  0  0  0  0  0
  188.4960  172.6950  141.9210 C   0  0  0  0  0  2  0  0  0  0  0  0
  188.3500  173.6160  139.5390 C   0  0  0  0  0  0  0  0  0  0  0  0
  188.5070  173.5500  138.1250 N   0  0  0  0  0  1  0  0  0  0  0  0
  188.8230  172.4860  140.4160 C   0  0  0  0  0  2  0  0  0  0  0  0
  188.2090  174.7580  140.1280 C   0  0  0  0  0  0  0  0  0  0  0  0
  188.1740  175.6710  141.0450 C   0  0  0  0  0  3  0  0  0  0  0  0
  189.2850  173.8730  142.5340 C   0  0  0  0  0  2  0  0  0  0  0  0
  188.5960  175.2760  142.4470 C   0  0  1  0  0  3  0  0  0  0  0  0
  194.1860  177.1420  146.8780 O   0  0  0  0  0  1  0  0  0  0  0  0
  192.9580  176.5100  146.6790 C   0  0  0  0  0  2  0  0  0  0  0  0
  193.7550  174.5360  144.5060 O   0  0  0  0  0  0  0  0  0  0  0  0
  195.1200  174.3020  144.6700 C   0  0  0  0  0  1  0  0  0  0  0  0
  1 26  1  6  0  0  0
  1  5  1  0  0  0  0
  3  6  1  6  0  0  0
  3 13  1  0  0  0  0
  4  7  1  1  0  0  0
  5 25  1  1  0  0  0
  6 15  1  0  0  0  0
  7 14  2  0  0  0  0
  8 10  2  0  0  0  0
  8  4  1  0  0  0  0
  9 15  2  0  0  0  0
 10 12  1  0  0  0  0
 11  3  1  0  0  0  0
 11  8  1  1  0  0  0
 12  2  2  0  0  0  0
 12 14  1  0  0  0  0
 13  5  1  0  0  0  0
 13  4  1  0  0  0  0
 15  1  1  0  0  0  0
 16 22  1  0  0  0  0
 17 20  2  0  0  0  0
 17 19  1  0  0  0  0
 18 17  1  0  0  0  0
 19 16  1  0  0  0  0
 20 21  2  0  0  0  0
 21 23  1  0  0  0  0
 23 22  1  0  0  0  0
 23 11  1  0  0  0  0
 25 24  1  0  0  0  0
 26 27  1  0  0  0  0
M  END
>  <MODEL>
5

>  <REMARK>
 VINA RESULT:      -6.6      1.386      1.694
  Name = 
  3 active torsions:
  status: ('A' for Active; 'I' for Inactive)
    1  A    between atoms: C_5  and  O_8
    2  A    between atoms: C_11  and  C_14
    3  A    between atoms: C_20  and  C_26
                            x       y       z     vdW  Elec       q    Type
                         _______ _______ _______ _____ _____    ______ ____

>  <TORSDO>
F 3

$$$$
=
 OpenBabel11062422083D

 27 30  0  0  1  0  0  0  0  0999 V2000
  186.6900  176.5810  141.1650 C   0  0  2  0  0  3  0  0  0  0  0  0
  185.9360  178.5330  148.7640 O   0  0  0  0  0  0  0  0  0  0  0  0
  188.2240  176.7110  143.6350 C   0  0  2  0  0  3  0  0  0  0  0  0
  186.3130  177.6710  144.8240 C   0  0  2  0  0  3  0  0  0  0  0  0
  186.0070  177.1880  142.3930 C   0  0  1  0  0  3  0  0  0  0  0  0
  188.1170  175.4920  142.8990 O   0  0  0  0  0  0  0  0  0  0  0  0
  185.7150  178.9960  145.2320 C   0  0  0  0  0  3  0  0  0  0  0  0
  187.3290  177.1700  145.7880 C   0  0  0  0  0  0  0  0  0  0  0  0
  187.6300  174.4060  140.9270 O   0  0  0  0  0  0  0  0  0  0  0  0
  187.2110  177.4110  147.0990 C   0  0  0  0  0  3  0  0  0  0  0  0
  188.4210  176.3930  145.1250 C   0  0  2  0  0  3  0  0  0  0  0  0
  186.2020  178.3940  147.5420 C   0  0  0  0  0  0  0  0  0  0  0  0
  186.9970  177.6540  143.4740 C   0  0  2  0  0  3  0  0  0  0  0  0
  185.6000  179.2940  146.5340 C   0  0  0  0  0  3  0  0  0  0  0  0
  187.5180  175.4390  141.6390 C   0  0  0  0  0  0  0  0  0  0  0  0
  192.1710  177.5390  144.5800 C   0  0  0  0  0  2  0  0  0  0  0  0
  192.8640  175.3170  145.6420 C   0  0  0  0  0  0  0  0  0  0  0  0
  193.6830  174.1600  145.7810 N   0  0  0  0  0  1  0  0  0  0  0  0
  193.1080  176.3000  144.5260 C   0  0  0  0  0  2  0  0  0  0  0  0
  191.6810  175.3460  146.1630 C   0  0  0  0  0  0  0  0  0  0  0  0
  190.4590  175.6880  146.4160 C   0  0  0  0  0  3  0  0  0  0  0  0
  190.6960  177.1700  144.3100 C   0  0  0  0  0  2  0  0  0  0  0  0
  189.8460  176.7870  145.5680 C   0  0  1  0  0  3  0  0  0  0  0  0
  183.7200  177.9130  142.5670 O   0  0  0  0  0  1  0  0  0  0  0  0
  184.9650  178.2460  142.0330 C   0  0  0  0  0  2  0  0  0  0  0  0
  187.5080  177.5210  140.5290 O   0  0  0  0  0  0  0  0  0  0  0  0
  187.0650  177.5420  139.2070 C   0  0  0  0  0  1  0  0  0  0  0  0
  1 26  1  1  0  0  0
  1 15  1  0  0  0  0
  1  5  1  0  0  0  0
  3  6  1  6  0  0  0
  3 11  1  0  0  0  0
  4  7  1  1  0  0  0
  4  8  1  0  0  0  0
  5 25  1  6  0  0  0
  5 13  1  0  0  0  0
  7 14  2  0  0  0  0
  8 10  2  0  0  0  0
  9 15  2  0  0  0  0
 10 12  1  0  0  0  0
 11 23  1  0  0  0  0
 11  8  1  1  0  0  0
 12  2  2  0  0  0  0
 13  3  1  0  0  0  0
 13  4  1  0  0  0  0
 14 12  1  0  0  0  0
 15  6  1  0  0  0  0
 17 18  1  0  0  0  0
 17 20  2  0  0  0  0
 19 16  1  0  0  0  0
 19 17  1  0  0  0  0
 20 21  2  0  0  0  0
 22 16  1  0  0  0  0
 22 23  1  0  0  0  0
 23 21  1  0  0  0  0
 25 24  1  0  0  0  0
 27 26  1  0  0  0  0
M  END
>  <MODEL>
6

>  <REMARK>
 VINA RESULT:      -6.6      2.961      5.833
  Name = 
  3 active torsions:
  status: ('A' for Active; 'I' for Inactive)
    1  A    between atoms: C_5  and  O_8
    2  A    between atoms: C_11  and  C_14
    3  A    between atoms: C_20  and  C_26
                            x       y       z     vdW  Elec       q    Type
                         _______ _______ _______ _____ _____    ______ ____

>  <TORSDO>
F 3

$$$$
=
 OpenBabel11062422083D

 27 30  0  0  1  0  0  0  0  0999 V2000
  189.5860  172.8450  141.8280 C   0  0  2  0  0  3  0  0  0  0  0  0
  190.7670  177.3670  148.1740 O   0  0  0  0  0  0  0  0  0  0  0  0
  188.9900  175.5000  142.8630 C   0  0  2  0  0  3  0  0  0  0  0  0
  190.0690  174.9610  144.9910 C   0  0  2  0  0  3  0  0  0  0  0  0
  190.0020  173.1540  143.2690 C   0  0  1  0  0  3  0  0  0  0  0  0
  189.6640  175.3300  141.6150 O   0  0  0  0  0  0  0  0  0  0  0  0
  189.7640  174.4510  146.3800 C   0  0  0  0  0  3  0  0  0  0  0  0
  189.8840  176.4300  144.8580 C   0  0  0  0  0  0  0  0  0  0  0  0
  190.2250  173.9790  139.8350 O   0  0  0  0  0  0  0  0  0  0  0  0
  190.1390  177.2520  145.8840 C   0  0  0  0  0  3  0  0  0  0  0  0
  189.4160  176.8320  143.4960 C   0  0  2  0  0  3  0  0  0  0  0  0
  190.3590  176.6590  147.2180 C   0  0  0  0  0  0  0  0  0  0  0  0
  189.2470  174.3490  143.8780 C   0  0  2  0  0  3  0  0  0  0  0  0
  189.9790  175.2460  147.4360 C   0  0  0  0  0  3  0  0  0  0  0  0
  189.8250  174.0740  141.0250 C   0  0  0  0  0  0  0  0  0  0  0  0
  185.7210  178.0280  144.2650 C   0  0  0  0  0  2  0  0  0  0  0  0
  185.4000  178.2230  141.7350 C   0  0  0  0  0  0  0  0  0  0  0  0
  184.6620  178.1170  140.5220 N   0  0  0  0  0  1  0  0  0  0  0  0
  184.8050  177.7590  143.0380 C   0  0  0  0  0  2  0  0  0  0  0  0
  186.6910  178.3070  141.7080 C   0  0  0  0  0  0  0  0  0  0  0  0
  187.9310  178.2810  142.0780 C   0  0  0  0  0  3  0  0  0  0  0  0
  187.0110  177.1790  144.2290 C   0  0  0  0  0  2  0  0  0  0  0  0
  188.2330  177.8240  143.4920 C   0  0  1  0  0  3  0  0  0  0  0  0
  191.2990  171.4390  144.3480 O   0  0  0  0  0  1  0  0  0  0  0  0
  190.0000  171.9190  144.1680 C   0  0  0  0  0  2  0  0  0  0  0  0
  188.2330  172.4950  141.7600 O   0  0  0  0  0  0  0  0  0  0  0  0
  187.9380  172.4770  140.3970 C   0  0  0  0  0  1  0  0  0  0  0  0
  1 26  1  1  0  0  0
  1  5  1  0  0  0  0
  3  6  1  6  0  0  0
  3 11  1  0  0  0  0
  3 13  1  0  0  0  0
  4  7  1  1  0  0  0
  5 13  1  0  0  0  0
  5 25  1  1  0  0  0
  7 14  2  0  0  0  0
  8  4  1  0  0  0  0
  8 10  2  0  0  0  0
  9 15  2  0  0  0  0
 10 12  1  0  0  0  0
 11  8  1  1  0  0  0
 12 14  1  0  0  0  0
 12  2  2  0  0  0  0
 13  4  1  0  0  0  0
 15  6  1  0  0  0  0
 15  1  1  0  0  0  0
 17 19  1  0  0  0  0
 18 17  1  0  0  0  0
 19 16  1  0  0  0  0
 20 17  2  0  0  0  0
 20 21  2  0  0  0  0
 21 23  1  0  0  0  0
 22 16  1  0  0  0  0
 23 11  1  0  0  0  0
 23 22  1  0  0  0  0
 25 24  1  0  0  0  0
 27 26  1  0  0  0  0
M  END
>  <MODEL>
7

>  <REMARK>
 VINA RESULT:      -6.6      2.711      4.860
  Name = 
  3 active torsions:
  status: ('A' for Active; 'I' for Inactive)
    1  A    between atoms: C_5  and  O_8
    2  A    between atoms: C_11  and  C_14
    3  A    between atoms: C_20  and  C_26
                            x       y       z     vdW  Elec       q    Type
                         _______ _______ _______ _____ _____    ______ ____

>  <TORSDO>
F 3

$$$$
=
 OpenBabel11062422083D

 27 30  0  0  1  0  0  0  0  0999 V2000
  190.9850  175.5000  147.0310 C   0  0  2  0  0  3  0  0  0  0  0  0
  192.7500  173.6290  139.5810 O   0  0  0  0  0  0  0  0  0  0  0  0
  189.8260  175.4890  144.3610 C   0  0  2  0  0  3  0  0  0  0  0  0
  191.9350  174.7030  143.4010 C   0  0  2  0  0  3  0  0  0  0  0  0
  191.8960  175.1080  145.8640 C   0  0  1  0  0  3  0  0  0  0  0  0
  189.1920  174.8040  145.4420 O   0  0  0  0  0  0  0  0  0  0  0  0
  193.2020  175.2070  142.7500 C   0  0  0  0  0  3  0  0  0  0  0  0
  190.8200  174.5160  142.4340 C   0  0  0  0  0  0  0  0  0  0  0  0
  188.9410  174.4860  147.7090 O   0  0  0  0  0  0  0  0  0  0  0  0
  191.0590  174.1290  141.1760 C   0  0  0  0  0  3  0  0  0  0  0  0
  189.4800  174.7880  143.0390 C   0  0  2  0  0  3  0  0  0  0  0  0
  192.4540  174.1400  140.6920 C   0  0  0  0  0  0  0  0  0  0  0  0
  191.3730  175.5820  144.4970 C   0  0  2  0  0  3  0  0  0  0  0  0
  193.4710  174.8670  141.4820 C   0  0  0  0  0  3  0  0  0  0  0  0
  189.6430  174.9210  146.7580 C   0  0  0  0  0  0  0  0  0  0  0  0
  188.1130  178.2290  141.6380 C   0  0  0  0  0  2  0  0  0  0  0  0
  185.8740  177.6270  142.7180 C   0  0  0  0  0  0  0  0  0  0  0  0
  184.6640  177.9150  143.4120 N   0  0  0  0  0  1  0  0  0  0  0  0
  186.8970  178.7070  142.4810 C   0  0  0  0  0  2  0  0  0  0  0  0
  186.3160  176.4130  142.6520 C   0  0  0  0  0  0  0  0  0  0  0  0
  187.1060  175.4020  142.4860 C   0  0  0  0  0  3  0  0  0  0  0  0
  188.9730  177.1880  142.3870 C   0  0  0  0  0  2  0  0  0  0  0  0
  188.5650  175.6910  142.1840 C   0  0  1  0  0  3  0  0  0  0  0  0
  193.6140  176.7880  145.7400 O   0  0  0  0  0  1  0  0  0  0  0  0
  193.3620  175.4650  146.1060 C   0  0  0  0  0  2  0  0  0  0  0  0
  190.8830  176.8910  147.1420 O   0  0  0  0  0  0  0  0  0  0  0  0
  191.1910  177.1650  148.4740 C   0  0  0  0  0  1  0  0  0  0  0  0
  1 26  1  6  0  0  0
  2 12  2  0  0  0  0
  3 13  1  0  0  0  0
  3  6  1  1  0  0  0
  4  7  1  6  0  0  0
  4 13  1  0  0  0  0
  5 25  1  1  0  0  0
  5  1  1  0  0  0  0
  6 15  1  0  0  0  0
  8  4  1  0  0  0  0
 10  8  2  0  0  0  0
 11  8  1  6  0  0  0
 11  3  1  0  0  0  0
 12 10  1  0  0  0  0
 12 14  1  0  0  0  0
 13  5  1  0  0  0  0
 14  7  2  0  0  0  0
 15  1  1  0  0  0  0
 15  9  2  0  0  0  0
 16 22  1  0  0  0  0
 16 19  1  0  0  0  0
 17 18  1  0  0  0  0
 19 17  1  0  0  0  0
 20 17  2  0  0  0  0
 21 20  2  0  0  0  0
 23 22  1  0  0  0  0
 23 21  1  0  0  0  0
 23 11  1  0  0  0  0
 24 25  1  0  0  0  0
 26 27  1  0  0  0  0
M  END
>  <MODEL>
8

>  <REMARK>
 VINA RESULT:      -6.6      2.801      5.288
  Name = 
  3 active torsions:
  status: ('A' for Active; 'I' for Inactive)
    1  A    between atoms: C_5  and  O_8
    2  A    between atoms: C_11  and  C_14
    3  A    between atoms: C_20  and  C_26
                            x       y       z     vdW  Elec       q    Type
                         _______ _______ _______ _____ _____    ______ ____

>  <TORSDO>
F 3

$$$$
=
 OpenBabel11062422083D

 27 30  0  0  1  0  0  0  0  0999 V2000
  190.1190  173.3150  141.2990 C   0  0  2  0  0  3  0  0  0  0  0  0
  187.2930  177.6030  147.2780 O   0  0  0  0  0  0  0  0  0  0  0  0
  190.7760  174.1260  144.0160 C   0  0  2  0  0  3  0  0  0  0  0  0
  188.7700  175.5220  144.1320 C   0  0  2  0  0  3  0  0  0  0  0  0
  189.1870  174.3180  141.9840 C   0  0  1  0  0  3  0  0  0  0  0  0
  190.7100  172.7450  143.6550 O   0  0  0  0  0  0  0  0  0  0  0  0
  188.3000  176.9420  143.9190 C   0  0  0  0  0  3  0  0  0  0  0  0
  189.3240  175.2910  145.4930 C   0  0  0  0  0  0  0  0  0  0  0  0
  190.7110  171.1250  142.0190 O   0  0  0  0  0  0  0  0  0  0  0  0
  188.8310  175.9400  146.5550 C   0  0  0  0  0  3  0  0  0  0  0  0
  190.4270  174.2820  145.5040 C   0  0  2  0  0  3  0  0  0  0  0  0
  187.9120  177.0710  146.3200 C   0  0  0  0  0  0  0  0  0  0  0  0
  189.8400  175.0410  143.1750 C   0  0  2  0  0  3  0  0  0  0  0  0
  187.8230  177.6410  144.9580 C   0  0  0  0  0  3  0  0  0  0  0  0
  190.5490  172.3340  142.3310 C   0  0  0  0  0  0  0  0  0  0  0  0
  193.2310  176.7980  146.7190 C   0  0  0  0  0  2  0  0  0  0  0  0
  194.9280  175.2230  145.6330 C   0  0  0  0  0  0  0  0  0  0  0  0
  196.1140  174.9160  144.9060 N   0  0  0  0  0  1  0  0  0  0  0  0
  194.5010  176.6530  145.8340 C   0  0  0  0  0  2  0  0  0  0  0  0
  193.9950  174.3370  145.7630 C   0  0  0  0  0  0  0  0  0  0  0  0
  192.8430  173.7910  145.9890 C   0  0  0  0  0  3  0  0  0  0  0  0
  191.9710  176.2250  146.0330 C   0  0  0  0  0  2  0  0  0  0  0  0
  191.6770  174.7100  146.3000 C   0  0  1  0  0  3  0  0  0  0  0  0
  188.1910  174.6060  139.8140 O   0  0  0  0  0  1  0  0  0  0  0  0
  188.5070  175.2690  141.0010 C   0  0  0  0  0  2  0  0  0  0  0  0
  191.2410  173.9570  140.7650 O   0  0  0  0  0  0  0  0  0  0  0  0
  191.4180  173.3790  139.5080 C   0  0  0  0  0  1  0  0  0  0  0  0
  1 26  1  1  0  0  0
  1  5  1  0  0  0  0
  1 15  1  0  0  0  0
  3  6  1  6  0  0  0
  3 11  1  0  0  0  0
  4  7  1  6  0  0  0
  4  8  1  0  0  0  0
  5 25  1  6  0  0  0
  5 13  1  0  0  0  0
  7 14  2  0  0  0  0
  8 10  2  0  0  0  0
  9 15  2  0  0  0  0
 11  8  1  6  0  0  0
 11 23  1  0  0  0  0
 12 10  1  0  0  0  0
 12  2  2  0  0  0  0
 13  3  1  0  0  0  0
 13  4  1  0  0  0  0
 14 12  1  0  0  0  0
 15  6  1  0  0  0  0
 17 20  2  0  0  0  0
 17 19  1  0  0  0  0
 18 17  1  0  0  0  0
 19 16  1  0  0  0  0
 20 21  2  0  0  0  0
 21 23  1  0  0  0  0
 22 23  1  0  0  0  0
 22 16  1  0  0  0  0
 24 25  1  0  0  0  0
 27 26  1  0  0  0  0
M  END
>  <MODEL>
9

>  <REMARK>
 VINA RESULT:      -6.5      2.948      5.914
  Name = 
  3 active torsions:
  status: ('A' for Active; 'I' for Inactive)
    1  A    between atoms: C_5  and  O_8
    2  A    between atoms: C_11  and  C_14
    3  A    between atoms: C_20  and  C_26
                            x       y       z     vdW  Elec       q    Type
                         _______ _______ _______ _____ _____    ______ ____

>  <TORSDO>
F 3

$$$$
