=
 OpenBabel11062419523D

 30 34  0  0  1  0  0  0  0  0999 V2000
  185.1070  178.6780  146.5890 N   0  0  0  0  0  2  0  0  0  0  0  0
  186.2930  176.3950  145.2280 N   0  0  0  0  0  2  0  0  0  0  0  0
  186.6930  178.1420  148.2010 O   0  0  0  0  0  0  0  0  0  0  0  0
  183.3470  179.3610  145.2510 O   0  0  0  0  0  0  0  0  0  0  0  0
  189.4290  177.6010  146.8870 C   0  0  0  0  0  1  0  0  0  0  0  0
  188.1490  175.7530  147.6380 O   0  0  0  0  0  1  0  0  0  0  0  0
  189.2940  176.2590  144.1740 C   0  0  2  0  0  3  0  0  0  0  0  0
  184.4030  178.6770  145.3250 C   0  0  0  0  0  0  0  0  0  0  0  0
  188.4310  176.5130  146.5020 C   0  0  1  0  0  0  0  0  0  0  0  0
  184.8190  177.9160  144.1130 C   0  0  0  0  0  0  0  0  0  0  0  0
  190.2260  175.3190  144.8270 N   0  0  2  0  0  0  0  0  0  0  0  0
  187.1450  177.2360  146.0360 C   0  0  2  0  0  3  0  0  0  0  0  0
  186.1270  177.1950  144.0420 C   0  0  2  0  0  3  0  0  0  0  0  0
  187.6210  176.5820  142.3270 C   0  0  1  0  0  3  0  0  0  0  0  0
  186.2750  176.3570  142.8590 N   0  0  0  0  0  2  0  0  0  0  0  0
  184.0660  177.9250  143.1000 O   0  0  0  0  0  0  0  0  0  0  0  0
  188.8460  175.5180  145.3560 C   0  0  2  0  0  3  0  0  0  0  0  0
  188.6470  175.6280  142.9480 C   0  0  0  0  0  2  0  0  0  0  0  0
  186.3160  178.0190  147.0070 C   0  0  0  0  0  0  0  0  0  0  0  0
  191.2650  176.0780  145.5070 C   0  0  2  0  0  3  0  0  0  0  0  0
  192.1490  176.7790  144.4970 C   0  0  0  0  0  2  0  0  0  0  0  0
  194.2170  175.4490  144.8550 C   0  0  2  0  0  3  0  0  0  0  0  0
  193.5490  176.7910  145.0830 C   0  0  2  0  0  3  0  0  0  0  0  0
  193.5730  175.7550  146.1940 C   0  0  1  0  0  3  0  0  0  0  0  0
  192.1870  175.1390  146.2540 C   0  0  0  0  0  2  0  0  0  0  0  0
  195.5990  175.5970  144.9640 O   0  0  0  0  0  0  0  0  0  0  0  0
  195.9510  176.4090  143.8860 C   0  0  0  0  0  1  0  0  0  0  0  0
  187.6090  176.4150  140.8440 C   0  0  0  0  0  0  0  0  0  0  0  0
  188.1910  175.2910  140.2750 O   0  0  0  0  0  1  0  0  0  0  0  0
  187.0670  177.2810  140.1070 O   0  0  0  0  0  0  0  0  0  0  0  0
  1 19  1  0  0  0  0
  4  8  2  0  0  0  0
  7 18  1  6  0  0  0
  7 11  1  0  0  0  0
  7 17  1  0  0  0  0
  8  1  1  0  0  0  0
  9  5  1  1  0  0  0
  9  6  1  0  0  0  0
 10  8  1  0  0  0  0
 11 17  1  0  0  0  0
 11 20  1  1  0  0  0
 12  2  1  1  0  0  0
 12  9  1  0  0  0  0
 12 19  1  0  0  0  0
 13 15  1  6  0  0  0
 13 10  1  0  0  0  0
 13  2  1  0  0  0  0
 14 28  1  6  0  0  0
 14 15  1  0  0  0  0
 14 18  1  0  0  0  0
 16 10  2  0  0  0  0
 17  9  1  0  0  0  0
 19  3  2  0  0  0  0
 20 25  1  0  0  0  0
 21 23  1  0  0  0  0
 21 20  1  0  0  0  0
 22 26  1  0  0  0  0
 22 23  1  0  0  0  0
 22 24  1  0  0  0  0
 23 24  1  0  0  0  0
 24 25  1  0  0  0  0
 27 26  1  0  0  0  0
 29 28  1  0  0  0  0
 30 28  2  0  0  0  0
M  END
>  <MODEL>
1

>  <REMARK>
 VINA RESULT:      -8.1      0.000      0.000
  Name = 
  3 active torsions:
  status: ('A' for Active; 'I' for Inactive)
    1  A    between atoms: C_1  and  N_17
    2  A    between atoms: O_5  and  C_8
    3  A    between atoms: C_6  and  CA_22
                            x       y       z     vdW  Elec       q    Type
                         _______ _______ _______ _____ _____    ______ ____

>  <TORSDO>
F 3

$$$$
=
 OpenBabel11062419523D

 30 34  0  0  1  0  0  0  0  0999 V2000
  184.5860  177.9160  140.4060 N   0  0  0  0  0  2  0  0  0  0  0  0
  186.1280  178.8520  142.6900 N   0  0  0  0  0  2  0  0  0  0  0  0
  186.7000  177.4040  139.5870 O   0  0  0  0  0  0  0  0  0  0  0  0
  182.3830  178.4390  140.8820 O   0  0  0  0  0  0  0  0  0  0  0  0
  188.3930  176.0160  141.7580 C   0  0  0  0  0  1  0  0  0  0  0  0
  188.8320  178.2910  141.2630 O   0  0  0  0  0  1  0  0  0  0  0  0
  187.8940  176.9960  144.5800 C   0  0  2  0  0  3  0  0  0  0  0  0
  183.5480  178.2990  141.3390 C   0  0  0  0  0  0  0  0  0  0  0  0
  188.1260  177.4680  142.1410 C   0  0  1  0  0  0  0  0  0  0  0  0
  183.7550  178.5590  142.7920 C   0  0  0  0  0  0  0  0  0  0  0  0
  189.3610  177.1620  144.5570 N   0  0  2  0  0  0  0  0  0  0  0  0
  186.6080  177.7040  141.9570 C   0  0  2  0  0  3  0  0  0  0  0  0
  185.0600  178.2800  143.4680 C   0  0  2  0  0  3  0  0  0  0  0  0
  185.7380  177.7160  145.6510 C   0  0  1  0  0  3  0  0  0  0  0  0
  185.1310  178.7710  144.8380 N   0  0  0  0  0  2  0  0  0  0  0  0
  182.7830  178.9780  143.4800 O   0  0  0  0  0  0  0  0  0  0  0  0
  188.4910  177.9120  143.6050 C   0  0  2  0  0  3  0  0  0  0  0  0
  187.2650  177.8310  145.6880 C   0  0  0  0  0  2  0  0  0  0  0  0
  185.9930  177.6770  140.5920 C   0  0  0  0  0  0  0  0  0  0  0  0
  189.9660  175.9520  144.0200 C   0  0  2  0  0  3  0  0  0  0  0  0
  189.8760  174.8270  145.0310 C   0  0  0  0  0  2  0  0  0  0  0  0
  192.2940  174.6510  145.5770 C   0  0  2  0  0  3  0  0  0  0  0  0
  191.1310  173.9920  144.8590 C   0  0  2  0  0  3  0  0  0  0  0  0
  192.1240  174.8390  144.0810 C   0  0  1  0  0  3  0  0  0  0  0  0
  191.4480  176.1680  143.8000 C   0  0  0  0  0  2  0  0  0  0  0  0
  193.2880  173.7020  145.8120 O   0  0  0  0  0  0  0  0  0  0  0  0
  193.0840  172.7300  144.8340 C   0  0  0  0  0  1  0  0  0  0  0  0
  185.1930  177.7750  147.0390 C   0  0  0  0  0  0  0  0  0  0  0  0
  185.9410  177.2680  148.0930 O   0  0  0  0  0  1  0  0  0  0  0  0
  184.0660  178.2910  147.2630 O   0  0  0  0  0  0  0  0  0  0  0  0
  1 19  1  0  0  0  0
  1  8  1  0  0  0  0
  3 19  2  0  0  0  0
  4  8  2  0  0  0  0
  6  9  1  0  0  0  0
  7 18  1  1  0  0  0
  8 10  1  0  0  0  0
  9  5  1  6  0  0  0
  9 17  1  0  0  0  0
 10 13  1  0  0  0  0
 10 16  2  0  0  0  0
 11 20  1  6  0  0  0
 11  7  1  0  0  0  0
 12 19  1  6  0  0  0
 12  9  1  0  0  0  0
 12  2  1  0  0  0  0
 13  2  1  6  0  0  0
 13 15  1  0  0  0  0
 14 18  1  0  0  0  0
 14 28  1  1  0  0  0
 15 14  1  0  0  0  0
 17 11  1  0  0  0  0
 17  7  1  0  0  0  0
 20 21  1  0  0  0  0
 22 26  1  0  0  0  0
 23 21  1  0  0  0  0
 23 22  1  0  0  0  0
 24 23  1  0  0  0  0
 24 22  1  0  0  0  0
 25 20  1  0  0  0  0
 25 24  1  0  0  0  0
 27 26  1  0  0  0  0
 28 30  2  0  0  0  0
 28 29  1  0  0  0  0
M  END
>  <MODEL>
2

>  <REMARK>
 VINA RESULT:      -8.0      1.951      4.627
  Name = 
  3 active torsions:
  status: ('A' for Active; 'I' for Inactive)
    1  A    between atoms: C_1  and  N_17
    2  A    between atoms: O_5  and  C_8
    3  A    between atoms: C_6  and  CA_22
                            x       y       z     vdW  Elec       q    Type
                         _______ _______ _______ _____ _____    ______ ____

>  <TORSDO>
F 3

$$$$
=
 OpenBabel11062419523D

 30 34  0  0  1  0  0  0  0  0999 V2000
  192.6910  174.7220  146.0080 N   0  0  0  0  0  2  0  0  0  0  0  0
  191.7430  175.3890  143.3390 N   0  0  0  0  0  2  0  0  0  0  0  0
  191.7640  176.7920  146.5140 O   0  0  0  0  0  0  0  0  0  0  0  0
  193.8190  172.7140  145.7890 O   0  0  0  0  0  0  0  0  0  0  0  0
  188.9770  177.0720  145.2250 C   0  0  0  0  0  1  0  0  0  0  0  0
  190.8020  178.2130  144.2340 O   0  0  0  0  0  1  0  0  0  0  0  0
  188.6850  175.7330  142.5240 C   0  0  2  0  0  3  0  0  0  0  0  0
  193.0100  173.5240  145.2630 C   0  0  0  0  0  0  0  0  0  0  0  0
  190.0580  177.0360  144.1490 C   0  0  1  0  0  0  0  0  0  0  0  0
  192.4710  173.1830  143.9160 C   0  0  0  0  0  0  0  0  0  0  0  0
  188.2050  177.0760  142.1450 N   0  0  2  0  0  0  0  0  0  0  0  0
  190.9690  175.8290  144.4760 C   0  0  2  0  0  3  0  0  0  0  0  0
  191.3950  173.9930  143.2660 C   0  0  2  0  0  3  0  0  0  0  0  0
  189.6790  173.5740  141.7080 C   0  0  1  0  0  3  0  0  0  0  0  0
  191.1320  173.6230  141.8810 N   0  0  0  0  0  2  0  0  0  0  0  0
  192.9010  172.1510  143.3300 O   0  0  0  0  0  0  0  0  0  0  0  0
  189.5920  176.8760  142.6550 C   0  0  2  0  0  3  0  0  0  0  0  0
  189.1060  174.9340  141.2970 C   0  0  0  0  0  2  0  0  0  0  0  0
  191.8240  175.8300  145.7050 C   0  0  0  0  0  0  0  0  0  0  0  0
  187.2410  177.5320  143.1350 C   0  0  2  0  0  3  0  0  0  0  0  0
  186.0490  176.5980  143.1760 C   0  0  0  0  0  2  0  0  0  0  0  0
  184.3580  178.1440  142.2140 C   0  0  2  0  0  3  0  0  0  0  0  0
  184.8370  177.4590  143.4790 C   0  0  2  0  0  3  0  0  0  0  0  0
  185.2330  178.8980  143.1970 C   0  0  1  0  0  3  0  0  0  0  0  0
  186.6760  178.8760  142.7280 C   0  0  0  0  0  2  0  0  0  0  0  0
  183.0320  178.5420  142.3780 O   0  0  0  0  0  0  0  0  0  0  0  0
  182.4000  178.1570  141.1960 C   0  0  0  0  0  1  0  0  0  0  0  0
  189.3300  172.5480  140.6820 C   0  0  0  0  0  0  0  0  0  0  0  0
  190.1580  171.4480  140.5030 O   0  0  0  0  0  1  0  0  0  0  0  0
  188.2860  172.6660  139.9880 O   0  0  0  0  0  0  0  0  0  0  0  0
  7 18  1  6  0  0  0
  7 17  1  0  0  0  0
  8  4  2  0  0  0  0
  8  1  1  0  0  0  0
  9  6  1  0  0  0  0
  9 12  1  0  0  0  0
  9  5  1  1  0  0  0
 10  8  1  0  0  0  0
 11  7  1  0  0  0  0
 11 17  1  0  0  0  0
 11 20  1  1  0  0  0
 12  2  1  6  0  0  0
 12 19  1  0  0  0  0
 13 15  1  6  0  0  0
 13  2  1  0  0  0  0
 13 10  1  0  0  0  0
 14 28  1  6  0  0  0
 14 15  1  0  0  0  0
 16 10  2  0  0  0  0
 17  9  1  0  0  0  0
 18 14  1  0  0  0  0
 19  1  1  0  0  0  0
 19  3  2  0  0  0  0
 20 21  1  0  0  0  0
 21 23  1  0  0  0  0
 22 26  1  0  0  0  0
 22 24  1  0  0  0  0
 22 23  1  0  0  0  0
 24 23  1  0  0  0  0
 25 20  1  0  0  0  0
 25 24  1  0  0  0  0
 27 26  1  0  0  0  0
 29 28  1  0  0  0  0
 30 28  2  0  0  0  0
M  END
>  <MODEL>
3

>  <REMARK>
 VINA RESULT:      -7.2      2.747      7.344
  Name = 
  3 active torsions:
  status: ('A' for Active; 'I' for Inactive)
    1  A    between atoms: C_1  and  N_17
    2  A    between atoms: O_5  and  C_8
    3  A    between atoms: C_6  and  CA_22
                            x       y       z     vdW  Elec       q    Type
                         _______ _______ _______ _____ _____    ______ ____

>  <TORSDO>
F 3

$$$$
=
 OpenBabel11062419523D

 30 34  0  0  1  0  0  0  0  0999 V2000
  184.9710  177.8490  144.9740 N   0  0  0  0  0  2  0  0  0  0  0  0
  187.8650  177.9280  144.6790 N   0  0  0  0  0  2  0  0  0  0  0  0
  185.0770  177.1660  142.7550 O   0  0  0  0  0  0  0  0  0  0  0  0
  184.5370  178.6390  147.1060 O   0  0  0  0  0  0  0  0  0  0  0  0
  187.2650  175.0250  142.3880 C   0  0  0  0  0  1  0  0  0  0  0  0
  187.7080  177.2330  141.6530 O   0  0  0  0  0  1  0  0  0  0  0  0
  189.7120  175.3930  144.1350 C   0  0  2  0  0  3  0  0  0  0  0  0
  185.4050  178.1860  146.3120 C   0  0  0  0  0  0  0  0  0  0  0  0
  187.8930  176.3710  142.7340 C   0  0  1  0  0  0  0  0  0  0  0  0
  186.8010  178.0580  146.8190 C   0  0  0  0  0  0  0  0  0  0  0  0
  190.3980  175.2900  142.8320 N   0  0  2  0  0  0  0  0  0  0  0  0
  187.1260  176.9160  143.9620 C   0  0  2  0  0  3  0  0  0  0  0  0
  187.8760  177.3960  146.0160 C   0  0  2  0  0  3  0  0  0  0  0  0
  189.8600  176.2240  146.5020 C   0  0  1  0  0  3  0  0  0  0  0  0
  189.2090  177.5320  146.5900 N   0  0  0  0  0  2  0  0  0  0  0  0
  187.0690  178.4750  147.9800 O   0  0  0  0  0  0  0  0  0  0  0  0
  189.4230  176.3870  143.0980 C   0  0  2  0  0  3  0  0  0  0  0  0
  190.6100  176.0460  145.1780 C   0  0  0  0  0  2  0  0  0  0  0  0
  185.6890  177.3210  143.8440 C   0  0  0  0  0  0  0  0  0  0  0  0
  189.8620  174.1490  142.1040 C   0  0  2  0  0  3  0  0  0  0  0  0
  189.8800  172.9130  142.9790 C   0  0  0  0  0  2  0  0  0  0  0  0
  191.6410  171.6480  141.7650 C   0  0  2  0  0  3  0  0  0  0  0  0
  190.1560  171.7380  142.0590 C   0  0  2  0  0  3  0  0  0  0  0  0
  190.7110  172.3080  140.7650 C   0  0  1  0  0  3  0  0  0  0  0  0
  190.7590  173.8160  140.9310 C   0  0  0  0  0  2  0  0  0  0  0  0
  191.9480  170.3600  141.3280 O   0  0  0  0  0  0  0  0  0  0  0  0
  190.8160  169.6060  141.6380 C   0  0  0  0  0  1  0  0  0  0  0  0
  190.8050  176.0560  147.6450 C   0  0  0  0  0  0  0  0  0  0  0  0
  191.1920  177.1660  148.3840 O   0  0  0  0  0  1  0  0  0  0  0  0
  191.2450  174.9160  147.9490 O   0  0  0  0  0  0  0  0  0  0  0  0
  1  8  1  0  0  0  0
  3 19  2  0  0  0  0
  6  9  1  0  0  0  0
  7 18  1  1  0  0  0
  8 10  1  0  0  0  0
  8  4  2  0  0  0  0
  9  5  1  6  0  0  0
  9 17  1  0  0  0  0
  9 12  1  0  0  0  0
 10 16  2  0  0  0  0
 11 20  1  6  0  0  0
 11 17  1  0  0  0  0
 11  7  1  0  0  0  0
 12 19  1  6  0  0  0
 12  2  1  0  0  0  0
 13  2  1  6  0  0  0
 13 15  1  0  0  0  0
 13 10  1  0  0  0  0
 14 15  1  0  0  0  0
 14 28  1  1  0  0  0
 17  7  1  0  0  0  0
 18 14  1  0  0  0  0
 19  1  1  0  0  0  0
 20 21  1  0  0  0  0
 22 23  1  0  0  0  0
 23 21  1  0  0  0  0
 24 25  1  0  0  0  0
 24 22  1  0  0  0  0
 24 23  1  0  0  0  0
 25 20  1  0  0  0  0
 26 27  1  0  0  0  0
 26 22  1  0  0  0  0
 28 30  2  0  0  0  0
 28 29  1  0  0  0  0
M  END
>  <MODEL>
4

>  <REMARK>
 VINA RESULT:      -7.1      2.837      5.215
  Name = 
  3 active torsions:
  status: ('A' for Active; 'I' for Inactive)
    1  A    between atoms: C_1  and  N_17
    2  A    between atoms: O_5  and  C_8
    3  A    between atoms: C_6  and  CA_22
                            x       y       z     vdW  Elec       q    Type
                         _______ _______ _______ _____ _____    ______ ____

>  <TORSDO>
F 3

$$$$
=
 OpenBabel11062419523D

 30 34  0  0  1  0  0  0  0  0999 V2000
  195.4580  174.7480  146.0700 N   0  0  0  0  0  2  0  0  0  0  0  0
  193.4370  174.9070  143.9820 N   0  0  0  0  0  2  0  0  0  0  0  0
  194.5830  176.8250  146.6390 O   0  0  0  0  0  0  0  0  0  0  0  0
  196.6240  172.7910  145.6660 O   0  0  0  0  0  0  0  0  0  0  0  0
  191.5010  176.7430  146.6120 C   0  0  0  0  0  1  0  0  0  0  0  0
  192.6210  177.7910  144.8060 O   0  0  0  0  0  1  0  0  0  0  0  0
  190.2950  174.9540  144.4860 C   0  0  2  0  0  3  0  0  0  0  0  0
  195.5830  173.4590  145.4260 C   0  0  0  0  0  0  0  0  0  0  0  0
  192.0490  176.5800  145.1980 C   0  0  1  0  0  0  0  0  0  0  0  0
  194.5870  172.8700  144.4870 C   0  0  0  0  0  0  0  0  0  0  0  0
  189.5500  176.1890  144.1690 N   0  0  2  0  0  0  0  0  0  0  0  0
  193.1470  175.4930  145.2690 C   0  0  2  0  0  3  0  0  0  0  0  0
  193.2540  173.5040  144.2470 C   0  0  2  0  0  3  0  0  0  0  0  0
  191.1150  172.7420  143.6220 C   0  0  1  0  0  3  0  0  0  0  0  0
  192.4970  172.8920  143.1620 N   0  0  0  0  0  2  0  0  0  0  0  0
  194.8590  171.7760  143.9170 O   0  0  0  0  0  0  0  0  0  0  0  0
  191.0380  176.1470  144.0730 C   0  0  2  0  0  3  0  0  0  0  0  0
  190.2710  173.9830  143.3130 C   0  0  0  0  0  2  0  0  0  0  0  0
  194.4200  175.7440  146.0150 C   0  0  0  0  0  0  0  0  0  0  0  0
  189.0250  176.7560  145.4020 C   0  0  2  0  0  3  0  0  0  0  0  0
  188.1910  175.7290  146.1390 C   0  0  0  0  0  2  0  0  0  0  0  0
  185.9670  176.7910  145.8250 C   0  0  2  0  0  3  0  0  0  0  0  0
  187.0710  176.4920  146.8200 C   0  0  2  0  0  3  0  0  0  0  0  0
  186.9950  177.8560  146.1560 C   0  0  1  0  0  3  0  0  0  0  0  0
  188.0710  177.8870  145.0870 C   0  0  0  0  0  2  0  0  0  0  0  0
  184.7850  177.0610  146.5130 O   0  0  0  0  0  0  0  0  0  0  0  0
  184.4870  178.3850  146.1930 C   0  0  0  0  0  1  0  0  0  0  0  0
  190.5010  171.5410  142.9830 C   0  0  0  0  0  0  0  0  0  0  0  0
  191.2770  170.4120  142.7560 O   0  0  0  0  0  1  0  0  0  0  0  0
  189.2840  171.5410  142.6590 O   0  0  0  0  0  0  0  0  0  0  0  0
  2 13  1  0  0  0  0
  6  9  1  0  0  0  0
  7 18  1  6  0  0  0
  8  4  2  0  0  0  0
  8  1  1  0  0  0  0
  9 12  1  0  0  0  0
  9  5  1  1  0  0  0
 10  8  1  0  0  0  0
 11  7  1  0  0  0  0
 11 20  1  1  0  0  0
 12  2  1  6  0  0  0
 12 19  1  0  0  0  0
 13 15  1  6  0  0  0
 13 10  1  0  0  0  0
 14 28  1  6  0  0  0
 15 14  1  0  0  0  0
 16 10  2  0  0  0  0
 17 11  1  0  0  0  0
 17  7  1  0  0  0  0
 17  9  1  0  0  0  0
 18 14  1  0  0  0  0
 19  1  1  0  0  0  0
 19  3  2  0  0  0  0
 20 21  1  0  0  0  0
 21 23  1  0  0  0  0
 22 24  1  0  0  0  0
 22 26  1  0  0  0  0
 22 23  1  0  0  0  0
 24 23  1  0  0  0  0
 25 20  1  0  0  0  0
 25 24  1  0  0  0  0
 27 26  1  0  0  0  0
 29 28  1  0  0  0  0
 30 28  2  0  0  0  0
M  END
>  <MODEL>
5

>  <REMARK>
 VINA RESULT:      -6.8      2.850      7.774
  Name = 
  3 active torsions:
  status: ('A' for Active; 'I' for Inactive)
    1  A    between atoms: C_1  and  N_17
    2  A    between atoms: O_5  and  C_8
    3  A    between atoms: C_6  and  CA_22
                            x       y       z     vdW  Elec       q    Type
                         _______ _______ _______ _____ _____    ______ ____

>  <TORSDO>
F 3

$$$$
=
 OpenBabel11062419523D

 30 34  0  0  1  0  0  0  0  0999 V2000
  192.7780  171.1880  142.6010 N   0  0  0  0  0  2  0  0  0  0  0  0
  192.5390  172.8440  144.9820 N   0  0  0  0  0  2  0  0  0  0  0  0
  190.4660  171.0930  142.8180 O   0  0  0  0  0  0  0  0  0  0  0  0
  195.0490  170.9770  142.2100 O   0  0  0  0  0  0  0  0  0  0  0  0
  189.3170  173.8970  143.3860 C   0  0  0  0  0  1  0  0  0  0  0  0
  189.4760  172.3550  145.1770 O   0  0  0  0  0  1  0  0  0  0  0  0
  191.0780  175.6700  145.0980 C   0  0  2  0  0  3  0  0  0  0  0  0
  194.1450  171.6100  142.8170 C   0  0  0  0  0  0  0  0  0  0  0  0
  190.1500  173.4150  144.5690 C   0  0  1  0  0  0  0  0  0  0  0  0
  194.5670  172.7220  143.7160 C   0  0  0  0  0  0  0  0  0  0  0  0
  189.8340  175.7860  145.8850 N   0  0  2  0  0  0  0  0  0  0  0  0
  191.4910  172.9050  143.9910 C   0  0  2  0  0  3  0  0  0  0  0  0
  193.5750  173.6330  144.3670 C   0  0  2  0  0  3  0  0  0  0  0  0
  193.5830  175.8610  145.1300 C   0  0  1  0  0  3  0  0  0  0  0  0
  194.1590  174.5330  145.3520 N   0  0  0  0  0  2  0  0  0  0  0  0
  195.8000  172.9300  143.8910 O   0  0  0  0  0  0  0  0  0  0  0  0
  190.4940  174.4630  145.6900 C   0  0  2  0  0  3  0  0  0  0  0  0
  192.2920  176.0640  145.9290 C   0  0  0  0  0  2  0  0  0  0  0  0
  191.5330  171.6830  143.1270 C   0  0  0  0  0  0  0  0  0  0  0  0
  188.7260  176.0640  144.9820 C   0  0  2  0  0  3  0  0  0  0  0  0
  188.8390  177.4700  144.4310 C   0  0  0  0  0  2  0  0  0  0  0  0
  186.8850  178.4640  145.6020 C   0  0  2  0  0  3  0  0  0  0  0  0
  187.4200  177.9830  144.2670 C   0  0  2  0  0  3  0  0  0  0  0  0
  186.5230  177.0800  145.0960 C   0  0  1  0  0  3  0  0  0  0  0  0
  187.4190  176.0410  145.7440 C   0  0  0  0  0  2  0  0  0  0  0  0
  185.8130  179.3280  145.3850 O   0  0  0  0  0  0  0  0  0  0  0  0
  185.5630  179.2410  144.0160 C   0  0  0  0  0  1  0  0  0  0  0  0
  194.5780  176.9090  145.5030 C   0  0  0  0  0  0  0  0  0  0  0  0
  195.6240  177.2000  144.6380 O   0  0  0  0  0  0  0  0  0  0  0  0
  194.4690  177.5380  146.5880 O   0  0  0  0  0  1  0  0  0  0  0  0
  1  8  1  0  0  0  0
  1 19  1  0  0  0  0
  3 19  2  0  0  0  0
  4  8  2  0  0  0  0
  7 17  1  0  0  0  0
  7 11  1  0  0  0  0
  7 18  1  1  0  0  0
  8 10  1  0  0  0  0
  9  5  1  6  0  0  0
  9  6  1  0  0  0  0
  9 17  1  0  0  0  0
 10 16  2  0  0  0  0
 11 20  1  6  0  0  0
 12 19  1  1  0  0  0
 12  9  1  0  0  0  0
 12  2  1  0  0  0  0
 13 10  1  1  0  0  0
 13  2  1  0  0  0  0
 13 15  1  0  0  0  0
 14 15  1  0  0  0  0
 14 28  1  1  0  0  0
 14 18  1  0  0  0  0
 17 11  1  0  0  0  0
 20 25  1  0  0  0  0
 21 20  1  0  0  0  0
 23 21  1  0  0  0  0
 23 24  1  0  0  0  0
 23 22  1  0  0  0  0
 24 22  1  0  0  0  0
 24 25  1  0  0  0  0
 26 22  1  0  0  0  0
 27 26  1  0  0  0  0
 28 30  1  0  0  0  0
 29 28  2  0  0  0  0
M  END
>  <MODEL>
6

>  <REMARK>
 VINA RESULT:      -6.7      2.906      8.163
  Name = 
  3 active torsions:
  status: ('A' for Active; 'I' for Inactive)
    1  A    between atoms: C_1  and  N_17
    2  A    between atoms: O_5  and  C_8
    3  A    between atoms: C_6  and  CA_22
                            x       y       z     vdW  Elec       q    Type
                         _______ _______ _______ _____ _____    ______ ____

>  <TORSDO>
F 3

$$$$
=
 OpenBabel11062419523D

 30 34  0  0  1  0  0  0  0  0999 V2000
  193.4410  173.1240  145.3890 N   0  0  0  0  0  2  0  0  0  0  0  0
  192.1710  174.5890  143.2190 N   0  0  0  0  0  2  0  0  0  0  0  0
  192.6860  174.9360  146.6340 O   0  0  0  0  0  0  0  0  0  0  0  0
  194.4380  171.2830  144.4040 O   0  0  0  0  0  0  0  0  0  0  0  0
  189.7660  175.6050  145.9060 C   0  0  0  0  0  1  0  0  0  0  0  0
  191.4900  176.9960  145.0640 O   0  0  0  0  0  1  0  0  0  0  0  0
  189.0500  175.1720  142.9950 C   0  0  2  0  0  3  0  0  0  0  0  0
  193.6020  172.2170  144.2740 C   0  0  0  0  0  0  0  0  0  0  0  0
  190.6880  175.9040  144.7280 C   0  0  1  0  0  0  0  0  0  0  0  0
  192.8700  172.3120  142.9790 C   0  0  0  0  0  0  0  0  0  0  0  0
  188.5840  176.5670  143.1200 N   0  0  2  0  0  0  0  0  0  0  0  0
  191.5800  174.6540  144.5340 C   0  0  2  0  0  3  0  0  0  0  0  0
  191.7540  173.2850  142.7710 C   0  0  2  0  0  3  0  0  0  0  0  0
  189.8260  173.3720  141.4220 C   0  0  1  0  0  3  0  0  0  0  0  0
  191.2890  173.3640  141.3920 N   0  0  0  0  0  2  0  0  0  0  0  0
  193.1700  171.5120  142.0490 O   0  0  0  0  0  0  0  0  0  0  0  0
  190.0170  176.2160  143.3400 C   0  0  2  0  0  3  0  0  0  0  0  0
  189.2640  174.7940  141.5350 C   0  0  0  0  0  2  0  0  0  0  0  0
  192.5920  174.2730  145.5690 C   0  0  0  0  0  0  0  0  0  0  0  0
  187.7850  176.6940  144.3300 C   0  0  2  0  0  3  0  0  0  0  0  0
  186.3720  176.2110  144.0770 C   0  0  0  0  0  2  0  0  0  0  0  0
  185.2180  178.4070  144.2280 C   0  0  2  0  0  3  0  0  0  0  0  0
  185.4610  177.0810  144.9240 C   0  0  2  0  0  3  0  0  0  0  0  0
  186.2650  178.3070  145.3220 C   0  0  1  0  0  3  0  0  0  0  0  0
  187.6430  178.1520  144.7070 C   0  0  0  0  0  2  0  0  0  0  0  0
  184.0650  178.9950  144.7460 O   0  0  0  0  0  0  0  0  0  0  0  0
  184.0830  178.6680  146.1020 C   0  0  0  0  0  1  0  0  0  0  0  0
  189.2940  172.7160  140.1910 C   0  0  0  0  0  0  0  0  0  0  0  0
  188.1930  173.2600  139.5440 O   0  0  0  0  0  0  0  0  0  0  0  0
  189.8440  171.6810  139.7300 O   0  0  0  0  0  1  0  0  0  0  0  0
  1 19  1  0  0  0  0
  7 18  1  6  0  0  0
  7 11  1  0  0  0  0
  7 17  1  0  0  0  0
  8  4  2  0  0  0  0
  8  1  1  0  0  0  0
  9  6  1  0  0  0  0
  9  5  1  1  0  0  0
 10  8  1  0  0  0  0
 11 17  1  0  0  0  0
 11 20  1  1  0  0  0
 12  2  1  6  0  0  0
 12  9  1  0  0  0  0
 12 19  1  0  0  0  0
 13 15  1  6  0  0  0
 13 10  1  0  0  0  0
 13  2  1  0  0  0  0
 14 28  1  6  0  0  0
 14 18  1  0  0  0  0
 15 14  1  0  0  0  0
 16 10  2  0  0  0  0
 17  9  1  0  0  0  0
 19  3  2  0  0  0  0
 20 25  1  0  0  0  0
 21 20  1  0  0  0  0
 21 23  1  0  0  0  0
 22 26  1  0  0  0  0
 22 23  1  0  0  0  0
 22 24  1  0  0  0  0
 23 24  1  0  0  0  0
 25 24  1  0  0  0  0
 26 27  1  0  0  0  0
 29 28  2  0  0  0  0
 30 28  1  0  0  0  0
M  END
>  <MODEL>
7

>  <REMARK>
 VINA RESULT:      -6.6      2.812      7.350
  Name = 
  3 active torsions:
  status: ('A' for Active; 'I' for Inactive)
    1  A    between atoms: C_1  and  N_17
    2  A    between atoms: O_5  and  C_8
    3  A    between atoms: C_6  and  CA_22
                            x       y       z     vdW  Elec       q    Type
                         _______ _______ _______ _____ _____    ______ ____

>  <TORSDO>
F 3

$$$$
=
 OpenBabel11062419523D

 30 34  0  0  1  0  0  0  0  0999 V2000
  195.8290  173.3200  145.1410 N   0  0  0  0  0  2  0  0  0  0  0  0
  193.7430  174.2600  143.3430 N   0  0  0  0  0  2  0  0  0  0  0  0
  195.3200  175.2940  146.2580 O   0  0  0  0  0  0  0  0  0  0  0  0
  196.6530  171.3800  144.1850 O   0  0  0  0  0  0  0  0  0  0  0  0
  192.2670  175.6430  146.4970 C   0  0  0  0  0  1  0  0  0  0  0  0
  193.4320  176.9380  144.8910 O   0  0  0  0  0  1  0  0  0  0  0  0
  190.6790  174.6120  144.1320 C   0  0  2  0  0  3  0  0  0  0  0  0
  195.7170  172.2230  144.2050 C   0  0  0  0  0  0  0  0  0  0  0  0
  192.7010  175.7580  145.0390 C   0  0  1  0  0  0  0  0  0  0  0  0
  194.5900  172.0230  143.2500 C   0  0  0  0  0  0  0  0  0  0  0  0
  190.1180  175.9770  144.1830 N   0  0  2  0  0  0  0  0  0  0  0  0
  193.6200  174.5470  144.7530 C   0  0  2  0  0  3  0  0  0  0  0  0
  193.3600  172.8730  143.2890 C   0  0  2  0  0  3  0  0  0  0  0  0
  191.0960  172.5880  142.7040 C   0  0  1  0  0  3  0  0  0  0  0  0
  192.4560  172.6560  142.1660 N   0  0  0  0  0  2  0  0  0  0  0  0
  194.6560  171.0760  142.4180 O   0  0  0  0  0  0  0  0  0  0  0  0
  191.5740  175.7570  143.9430 C   0  0  2  0  0  3  0  0  0  0  0  0
  190.4390  173.9700  142.7730 C   0  0  0  0  0  2  0  0  0  0  0  0
  194.9570  174.4310  145.4160 C   0  0  0  0  0  0  0  0  0  0  0  0
  189.7580  176.2910  145.5570 C   0  0  2  0  0  3  0  0  0  0  0  0
  188.8130  175.2420  146.1050 C   0  0  0  0  0  2  0  0  0  0  0  0
  186.7720  176.6520  146.2540 C   0  0  2  0  0  3  0  0  0  0  0  0
  187.8670  175.9650  147.0470 C   0  0  2  0  0  3  0  0  0  0  0  0
  187.9730  177.4470  146.7310 C   0  0  1  0  0  3  0  0  0  0  0  0
  188.9800  177.5880  145.6050 C   0  0  0  0  0  2  0  0  0  0  0  0
  185.6880  176.9090  147.0920 O   0  0  0  0  0  0  0  0  0  0  0  0
  184.7820  177.6030  146.2920 C   0  0  0  0  0  1  0  0  0  0  0  0
  190.2680  171.6750  141.8610 C   0  0  0  0  0  0  0  0  0  0  0  0
  190.4160  170.3010  141.9890 O   0  0  0  0  0  1  0  0  0  0  0  0
  189.4310  172.1430  141.0450 O   0  0  0  0  0  0  0  0  0  0  0  0
  1 19  1  0  0  0  0
  4  8  2  0  0  0  0
  6  9  1  0  0  0  0
  7 18  1  6  0  0  0
  7 11  1  0  0  0  0
  8  1  1  0  0  0  0
  9  5  1  1  0  0  0
 10 13  1  0  0  0  0
 10  8  1  0  0  0  0
 11 20  1  1  0  0  0
 12  2  1  6  0  0  0
 12  9  1  0  0  0  0
 12 19  1  0  0  0  0
 13 15  1  6  0  0  0
 13  2  1  0  0  0  0
 14 28  1  6  0  0  0
 14 18  1  0  0  0  0
 15 14  1  0  0  0  0
 16 10  2  0  0  0  0
 17  7  1  0  0  0  0
 17 11  1  0  0  0  0
 17  9  1  0  0  0  0
 19  3  2  0  0  0  0
 20 25  1  0  0  0  0
 20 21  1  0  0  0  0
 21 23  1  0  0  0  0
 22 24  1  0  0  0  0
 22 23  1  0  0  0  0
 22 26  1  0  0  0  0
 24 23  1  0  0  0  0
 25 24  1  0  0  0  0
 27 26  1  0  0  0  0
 28 29  1  0  0  0  0
 30 28  2  0  0  0  0
M  END
>  <MODEL>
8

>  <REMARK>
 VINA RESULT:      -6.6      3.019      7.918
  Name = 
  3 active torsions:
  status: ('A' for Active; 'I' for Inactive)
    1  A    between atoms: C_1  and  N_17
    2  A    between atoms: O_5  and  C_8
    3  A    between atoms: C_6  and  CA_22
                            x       y       z     vdW  Elec       q    Type
                         _______ _______ _______ _____ _____    ______ ____

>  <TORSDO>
F 3

$$$$
=
 OpenBabel11062419523D

 30 34  0  0  1  0  0  0  0  0999 V2000
  192.2790  173.7620  140.2000 N   0  0  0  0  0  2  0  0  0  0  0  0
  191.8730  173.7750  143.0820 N   0  0  0  0  0  2  0  0  0  0  0  0
  189.9630  173.5660  140.1910 O   0  0  0  0  0  0  0  0  0  0  0  0
  194.5710  173.8040  139.8890 O   0  0  0  0  0  0  0  0  0  0  0  0
  188.7020  175.5560  142.1800 C   0  0  0  0  0  1  0  0  0  0  0  0
  188.8200  173.2690  142.7890 O   0  0  0  0  0  1  0  0  0  0  0  0
  190.3220  176.0400  144.6940 C   0  0  2  0  0  3  0  0  0  0  0  0
  193.6190  173.9830  140.6950 C   0  0  0  0  0  0  0  0  0  0  0  0
  189.4900  174.4850  142.9280 C   0  0  1  0  0  0  0  0  0  0  0  0
  193.9630  174.3880  142.0880 C   0  0  0  0  0  0  0  0  0  0  0  0
  189.0380  175.6930  145.3350 N   0  0  2  0  0  0  0  0  0  0  0  0
  190.8730  174.3900  142.2420 C   0  0  2  0  0  3  0  0  0  0  0  0
  192.9130  174.7710  143.0820 C   0  0  2  0  0  3  0  0  0  0  0  0
  192.8160  176.1730  144.9720 C   0  0  1  0  0  3  0  0  0  0  0  0
  193.4210  174.9530  144.4360 N   0  0  0  0  0  2  0  0  0  0  0  0
  195.1790  174.4580  142.4210 O   0  0  0  0  0  0  0  0  0  0  0  0
  189.7480  174.7120  144.4630 C   0  0  2  0  0  3  0  0  0  0  0  0
  191.4810  175.8900  145.6700 C   0  0  0  0  0  2  0  0  0  0  0  0
  190.9950  173.8740  140.8420 C   0  0  0  0  0  0  0  0  0  0  0  0
  187.9680  176.4360  144.6860 C   0  0  2  0  0  3  0  0  0  0  0  0
  188.1070  177.9160  144.9770 C   0  0  0  0  0  2  0  0  0  0  0  0
  186.1110  178.1760  146.4350 C   0  0  2  0  0  3  0  0  0  0  0  0
  186.6970  178.4710  145.0680 C   0  0  2  0  0  3  0  0  0  0  0  0
  185.7650  177.2860  145.2570 C   0  0  1  0  0  3  0  0  0  0  0  0
  186.6320  176.0410  145.2770 C   0  0  0  0  0  2  0  0  0  0  0  0
  185.0520  179.0480  146.6810 O   0  0  0  0  0  0  0  0  0  0  0  0
  184.0660  178.6690  145.7700 C   0  0  0  0  0  1  0  0  0  0  0  0
  193.7590  176.8230  145.9290 C   0  0  0  0  0  0  0  0  0  0  0  0
  194.8830  177.4780  145.4460 O   0  0  0  0  0  0  0  0  0  0  0  0
  193.5370  176.7910  147.1680 O   0  0  0  0  0  1  0  0  0  0  0  0
  1  8  1  0  0  0  0
  1 19  1  0  0  0  0
  2 13  1  0  0  0  0
  3 19  2  0  0  0  0
  4  8  2  0  0  0  0
  6  9  1  0  0  0  0
  7 11  1  0  0  0  0
  7 18  1  1  0  0  0
  8 10  1  0  0  0  0
  9  5  1  6  0  0  0
  9 17  1  0  0  0  0
 10 16  2  0  0  0  0
 11 20  1  6  0  0  0
 12 19  1  6  0  0  0
 12  9  1  0  0  0  0
 12  2  1  0  0  0  0
 13 10  1  6  0  0  0
 13 15  1  0  0  0  0
 14 18  1  0  0  0  0
 14 28  1  1  0  0  0
 15 14  1  0  0  0  0
 17  7  1  0  0  0  0
 17 11  1  0  0  0  0
 20 21  1  0  0  0  0
 20 25  1  0  0  0  0
 21 23  1  0  0  0  0
 22 26  1  0  0  0  0
 23 24  1  0  0  0  0
 23 22  1  0  0  0  0
 24 25  1  0  0  0  0
 24 22  1  0  0  0  0
 27 26  1  0  0  0  0
 28 30  1  0  0  0  0
 29 28  2  0  0  0  0
M  END
>  <MODEL>
9

>  <REMARK>
 VINA RESULT:      -6.6      2.563      7.993
  Name = 
  3 active torsions:
  status: ('A' for Active; 'I' for Inactive)
    1  A    between atoms: C_1  and  N_17
    2  A    between atoms: O_5  and  C_8
    3  A    between atoms: C_6  and  CA_22
                            x       y       z     vdW  Elec       q    Type
                         _______ _______ _______ _____ _____    ______ ____

>  <TORSDO>
F 3

$$$$
