=
 OpenBabel11062421073D

 27 30  0  0  1  0  0  0  0  0999 V2000
  184.9240  178.2470  144.0420 C   0  0  0  0  0  3  0  0  0  0  0  0
  186.2160  177.7200  144.0130 C   0  0  0  0  0  0  0  0  0  0  0  0
  186.1000  177.5570  141.6490 C   0  0  0  0  0  0  0  0  0  0  0  0
  184.8010  178.0860  141.6800 C   0  0  0  0  0  0  0  0  0  0  0  0
  184.0600  178.2820  140.4800 N   0  0  0  0  0  1  0  0  0  0  0  0
  184.2470  178.4200  142.8760 N   0  0  0  0  0  0  0  0  0  0  0  0
  186.7740  177.3880  142.8170 N   0  0  0  0  0  0  0  0  0  0  0  0
  186.9660  177.5220  145.2900 C   0  0  2  0  0  3  0  0  0  0  0  0
  190.1040  177.9480  143.9240 C   0  0  0  0  0  1  0  0  0  0  0  0
  188.3780  175.5900  145.9260 N   0  0  0  0  0  2  0  0  0  0  0  0
  188.2620  176.7350  145.0420 C   0  0  2  0  0  3  0  0  0  0  0  0
  189.4880  177.5860  145.2600 C   0  0  1  0  0  3  0  0  0  0  0  0
  189.8010  175.4860  146.2100 C   0  0  0  0  0  2  0  0  0  0  0  0
  190.4250  176.7910  146.0350 N   0  0  0  0  0  2  0  0  0  0  0  0
  186.0550  176.8960  146.3470 C   0  0  0  0  0  2  0  0  0  0  0  0
  184.7950  178.5050  147.6950 C   0  0  0  0  0  2  0  0  0  0  0  0
  185.9990  179.0880  147.2660 O   0  0  0  0  0  0  0  0  0  0  0  0
  186.0490  177.7260  147.6150 C   0  0  2  0  0  3  0  0  0  0  0  0
  186.8900  177.1020  140.1060 S   0  0  0  0  0  0  0  0  0  0  0  0
  187.9200  175.8780  140.8990 C   0  0  0  0  0  3  0  0  0  0  0  0
  188.2680  174.8100  140.2560 N   0  0  0  0  0  0  0  0  0  0  0  0
  190.0700  171.5890  142.1830 C   0  0  0  0  0  3  0  0  0  0  0  0
  189.6780  173.9520  142.2230 C   0  0  0  0  0  2  0  0  0  0  0  0
  190.2310  171.6750  140.6900 C   0  0  0  0  0  2  0  0  0  0  0  0
  189.3550  172.7200  140.1570 N   0  0  0  0  0  0  0  0  0  0  0  0
  189.0950  173.7980  140.8360 C   0  0  0  0  0  0  0  0  0  0  0  0
  189.8080  172.6540  142.8620 N   0  0  0  0  0  0  0  0  0  0  0  0
  2  1  1  0  0  0  0
  2  8  1  0  0  0  0
  3  4  2  0  0  0  0
  3  7  1  0  0  0  0
  4  6  1  0  0  0  0
  5  4  1  0  0  0  0
  6  1  2  0  0  0  0
  7  2  2  0  0  0  0
  8 15  1  1  0  0  0
 10 13  1  0  0  0  0
 11 12  1  0  0  0  0
 11  8  1  1  0  0  0
 11 10  1  0  0  0  0
 12  9  1  6  0  0  0
 12 14  1  0  0  0  0
 14 13  1  0  0  0  0
 17 18  1  0  0  0  0
 17 16  1  0  0  0  0
 18 15  1  6  0  0  0
 18 16  1  0  0  0  0
 19 20  1  0  0  0  0
 19  3  1  0  0  0  0
 21 26  1  0  0  0  0
 21 20  2  0  0  0  0
 22 27  2  0  0  0  0
 23 27  1  0  0  0  0
 24 22  1  0  0  0  0
 25 24  1  0  0  0  0
 25 26  2  0  0  0  0
 26 23  1  0  0  0  0
M  END
>  <MODEL>
1

>  <REMARK>
 VINA RESULT:      -6.3      0.000      0.000
  Name = 
  7 active torsions:
  status: ('A' for Active; 'I' for Inactive)
    1  A    between atoms: C_7  and  C_8
    2  A    between atoms: C_8  and  C_9
    3  A    between atoms: C_8  and  C_12
    4  A    between atoms: C_9  and  C_27
    5  A    between atoms: C_10  and  S_23
    6  A    between atoms: C_16  and  N_26
    7  A    between atoms: C_21  and  S_23
                            x       y       z     vdW  Elec       q    Type
                         _______ _______ _______ _____ _____    ______ ____

>  <TORSDO>
F 7

$$$$
=
 OpenBabel11062421073D

 27 30  0  0  1  0  0  0  0  0999 V2000
  186.5500  178.3240  142.9990 C   0  0  0  0  0  3  0  0  0  0  0  0
  187.2820  177.2970  143.5960 C   0  0  0  0  0  0  0  0  0  0  0  0
  187.5360  176.2460  141.4840 C   0  0  0  0  0  0  0  0  0  0  0  0
  186.7990  177.2790  140.8860 C   0  0  0  0  0  0  0  0  0  0  0  0
  186.5450  177.2830  139.4840 N   0  0  0  0  0  1  0  0  0  0  0  0
  186.3270  178.2940  141.6590 N   0  0  0  0  0  0  0  0  0  0  0  0
  187.7590  176.2820  142.8240 N   0  0  0  0  0  0  0  0  0  0  0  0
  187.5270  177.3190  145.0700 C   0  0  2  0  0  3  0  0  0  0  0  0
  190.9570  177.4420  144.7210 C   0  0  0  0  0  1  0  0  0  0  0  0
  188.5350  175.5860  146.5230 N   0  0  0  0  0  2  0  0  0  0  0  0
  188.7790  176.5030  145.4240 C   0  0  2  0  0  3  0  0  0  0  0  0
  189.9310  177.3860  145.8350 C   0  0  1  0  0  3  0  0  0  0  0  0
  189.7880  175.5550  147.2610 C   0  0  0  0  0  2  0  0  0  0  0  0
  190.5220  176.7900  147.0200 N   0  0  0  0  0  2  0  0  0  0  0  0
  186.2700  176.8820  145.8220 C   0  0  0  0  0  2  0  0  0  0  0  0
  184.4420  178.2880  146.6430 C   0  0  0  0  0  2  0  0  0  0  0  0
  185.4840  179.1000  146.1640 O   0  0  0  0  0  0  0  0  0  0  0  0
  185.8610  177.9260  146.8420 C   0  0  2  0  0  3  0  0  0  0  0  0
  188.1920  174.8840  140.5210 S   0  0  0  0  0  0  0  0  0  0  0  0
  189.2990  174.3850  141.8310 C   0  0  0  0  0  3  0  0  0  0  0  0
  190.5420  174.7410  141.7980 N   0  0  0  0  0  0  0  0  0  0  0  0
  193.1830  174.3480  144.9930 C   0  0  0  0  0  3  0  0  0  0  0  0
  192.9660  174.5130  142.6130 C   0  0  0  0  0  2  0  0  0  0  0  0
  191.9470  173.4900  145.0120 C   0  0  0  0  0  2  0  0  0  0  0  0
  191.0320  173.9160  143.9510 N   0  0  0  0  0  0  0  0  0  0  0  0
  191.4740  174.3770  142.8190 C   0  0  0  0  0  0  0  0  0  0  0  0
  193.6240  174.8110  143.8720 N   0  0  0  0  0  0  0  0  0  0  0  0
  1  2  1  0  0  0  0
  2  8  1  0  0  0  0
  3  7  1  0  0  0  0
  4  3  2  0  0  0  0
  4  6  1  0  0  0  0
  5  4  1  0  0  0  0
  6  1  2  0  0  0  0
  7  2  2  0  0  0  0
  8 15  1  1  0  0  0
 10 13  1  0  0  0  0
 11  8  1  1  0  0  0
 11 12  1  0  0  0  0
 11 10  1  0  0  0  0
 12  9  1  6  0  0  0
 12 14  1  0  0  0  0
 14 13  1  0  0  0  0
 16 18  1  0  0  0  0
 17 16  1  0  0  0  0
 17 18  1  0  0  0  0
 18 15  1  6  0  0  0
 19  3  1  0  0  0  0
 19 20  1  0  0  0  0
 21 20  2  0  0  0  0
 21 26  1  0  0  0  0
 22 24  1  0  0  0  0
 23 26  1  0  0  0  0
 23 27  1  0  0  0  0
 25 24  1  0  0  0  0
 26 25  2  0  0  0  0
 27 22  2  0  0  0  0
M  END
>  <MODEL>
2

>  <REMARK>
 VINA RESULT:      -6.3      1.948      2.504
  Name = 
  7 active torsions:
  status: ('A' for Active; 'I' for Inactive)
    1  A    between atoms: C_7  and  C_8
    2  A    between atoms: C_8  and  C_9
    3  A    between atoms: C_8  and  C_12
    4  A    between atoms: C_9  and  C_27
    5  A    between atoms: C_10  and  S_23
    6  A    between atoms: C_16  and  N_26
    7  A    between atoms: C_21  and  S_23
                            x       y       z     vdW  Elec       q    Type
                         _______ _______ _______ _____ _____    ______ ____

>  <TORSDO>
F 7

$$$$
=
 OpenBabel11062421073D

 27 30  0  0  1  0  0  0  0  0999 V2000
  188.4250  175.6670  146.8840 C   0  0  0  0  0  3  0  0  0  0  0  0
  188.3900  176.3870  145.6890 C   0  0  0  0  0  0  0  0  0  0  0  0
  190.7580  176.3110  145.5710 C   0  0  0  0  0  0  0  0  0  0  0  0
  190.7910  175.5880  146.7730 C   0  0  0  0  0  0  0  0  0  0  0  0
  192.0280  175.1670  147.3420 N   0  0  0  0  0  1  0  0  0  0  0  0
  189.6230  175.2830  147.3980 N   0  0  0  0  0  0  0  0  0  0  0  0
  189.5580  176.6910  145.0600 N   0  0  0  0  0  0  0  0  0  0  0  0
  187.0780  176.8190  145.1200 C   0  0  2  0  0  3  0  0  0  0  0  0
  187.6540  175.5320  141.9720 C   0  0  0  0  0  1  0  0  0  0  0  0
  186.6530  178.5930  143.4470 N   0  0  0  0  0  2  0  0  0  0  0  0
  187.2440  177.2860  143.6660 C   0  0  2  0  0  3  0  0  0  0  0  0
  186.5920  176.3380  142.6910 C   0  0  1  0  0  3  0  0  0  0  0  0
  186.1260  178.5370  142.0920 C   0  0  0  0  0  2  0  0  0  0  0  0
  185.8590  177.1490  141.7350 N   0  0  0  0  0  2  0  0  0  0  0  0
  186.4200  177.8550  146.0320 C   0  0  0  0  0  2  0  0  0  0  0  0
  184.0990  178.6280  145.9700 C   0  0  0  0  0  2  0  0  0  0  0  0
  184.4710  178.3570  147.2970 O   0  0  0  0  0  0  0  0  0  0  0  0
  184.9760  177.4890  146.3120 C   0  0  2  0  0  3  0  0  0  0  0  0
  192.2620  176.7400  144.6940 S   0  0  0  0  0  0  0  0  0  0  0  0
  191.7800  175.8100  143.2470 C   0  0  0  0  0  3  0  0  0  0  0  0
  191.4880  174.5540  143.3520 N   0  0  0  0  0  0  0  0  0  0  0  0
  189.7570  172.6550  140.0760 C   0  0  0  0  0  3  0  0  0  0  0  0
  190.2810  172.4930  142.4080 C   0  0  0  0  0  2  0  0  0  0  0  0
  191.0840  173.3290  139.8580 C   0  0  0  0  0  2  0  0  0  0  0  0
  191.4310  174.1310  141.0340 N   0  0  0  0  0  0  0  0  0  0  0  0
  191.0900  173.7590  142.2320 C   0  0  0  0  0  0  0  0  0  0  0  0
  189.4110  172.2880  141.2640 N   0  0  0  0  0  0  0  0  0  0  0  0
  1  6  1  0  0  0  0
  2  1  2  0  0  0  0
  3  4  1  0  0  0  0
  4  5  1  0  0  0  0
  4  6  2  0  0  0  0
  7  3  2  0  0  0  0
  7  2  1  0  0  0  0
  8  2  1  0  0  0  0
  8 15  1  1  0  0  0
 10 11  1  0  0  0  0
 11  8  1  1  0  0  0
 12  9  1  6  0  0  0
 12 11  1  0  0  0  0
 13 10  1  0  0  0  0
 14 13  1  0  0  0  0
 14 12  1  0  0  0  0
 16 18  1  0  0  0  0
 16 17  1  0  0  0  0
 18 15  1  6  0  0  0
 18 17  1  0  0  0  0
 19  3  1  0  0  0  0
 20 21  2  0  0  0  0
 20 19  1  0  0  0  0
 22 27  2  0  0  0  0
 24 22  1  0  0  0  0
 24 25  1  0  0  0  0
 25 26  2  0  0  0  0
 26 23  1  0  0  0  0
 26 21  1  0  0  0  0
 27 23  1  0  0  0  0
M  END
>  <MODEL>
3

>  <REMARK>
 VINA RESULT:      -6.2      2.111      4.707
  Name = 
  7 active torsions:
  status: ('A' for Active; 'I' for Inactive)
    1  A    between atoms: C_7  and  C_8
    2  A    between atoms: C_8  and  C_9
    3  A    between atoms: C_8  and  C_12
    4  A    between atoms: C_9  and  C_27
    5  A    between atoms: C_10  and  S_23
    6  A    between atoms: C_16  and  N_26
    7  A    between atoms: C_21  and  S_23
                            x       y       z     vdW  Elec       q    Type
                         _______ _______ _______ _____ _____    ______ ____

>  <TORSDO>
F 7

$$$$
=
 OpenBabel11062421073D

 27 30  0  0  1  0  0  0  0  0999 V2000
  189.2650  177.0980  146.8930 C   0  0  0  0  0  3  0  0  0  0  0  0
  189.0360  177.3800  145.5450 C   0  0  0  0  0  0  0  0  0  0  0  0
  191.2660  176.7530  145.0330 C   0  0  0  0  0  0  0  0  0  0  0  0
  191.4940  176.4710  146.3870 C   0  0  0  0  0  0  0  0  0  0  0  0
  192.7610  175.9970  146.8350 N   0  0  0  0  0  1  0  0  0  0  0  0
  190.4870  176.6490  147.2830 N   0  0  0  0  0  0  0  0  0  0  0  0
  190.0420  177.2000  144.6470 N   0  0  0  0  0  0  0  0  0  0  0  0
  187.6980  177.8810  145.1080 C   0  0  2  0  0  3  0  0  0  0  0  0
  186.3110  179.6090  147.7520 C   0  0  0  0  0  1  0  0  0  0  0  0
  185.7100  176.6420  145.9120 N   0  0  0  0  0  2  0  0  0  0  0  0
  186.6590  177.6950  146.2240 C   0  0  2  0  0  3  0  0  0  0  0  0
  185.8580  178.9510  146.4640 C   0  0  1  0  0  3  0  0  0  0  0  0
  184.4510  177.1000  146.4780 C   0  0  0  0  0  2  0  0  0  0  0  0
  184.4660  178.5530  146.5770 N   0  0  0  0  0  2  0  0  0  0  0  0
  187.3000  177.2390  143.7790 C   0  0  0  0  0  2  0  0  0  0  0  0
  186.7160  177.6450  141.4370 C   0  0  0  0  0  2  0  0  0  0  0  0
  188.0060  178.1390  141.6950 O   0  0  0  0  0  0  0  0  0  0  0  0
  187.0550  178.2950  142.7210 C   0  0  2  0  0  3  0  0  0  0  0  0
  192.5490  176.5330  143.8010 S   0  0  0  0  0  0  0  0  0  0  0  0
  191.3870  175.9520  142.5750 C   0  0  0  0  0  3  0  0  0  0  0  0
  191.1900  174.6820  142.4220 N   0  0  0  0  0  0  0  0  0  0  0  0
  188.7540  173.6610  139.2030 C   0  0  0  0  0  3  0  0  0  0  0  0
  188.8420  174.6520  141.3830 C   0  0  0  0  0  2  0  0  0  0  0  0
  189.7470  172.6310  139.6680 C   0  0  0  0  0  2  0  0  0  0  0  0
  190.6640  173.2310  140.6400 N   0  0  0  0  0  0  0  0  0  0  0  0
  190.2690  174.1560  141.4620 C   0  0  0  0  0  0  0  0  0  0  0  0
  188.3610  174.5850  140.0140 N   0  0  0  0  0  0  0  0  0  0  0  0
  1  6  1  0  0  0  0
  2  1  2  0  0  0  0
  3  4  1  0  0  0  0
  4  5  1  0  0  0  0
  4  6  2  0  0  0  0
  7  3  2  0  0  0  0
  7  2  1  0  0  0  0
  8 15  1  6  0  0  0
  8  2  1  0  0  0  0
 10 11  1  0  0  0  0
 10 13  1  0  0  0  0
 11  8  1  6  0  0  0
 11 12  1  0  0  0  0
 12 14  1  0  0  0  0
 12  9  1  1  0  0  0
 13 14  1  0  0  0  0
 16 17  1  0  0  0  0
 16 18  1  0  0  0  0
 17 18  1  0  0  0  0
 18 15  1  1  0  0  0
 19  3  1  0  0  0  0
 20 19  1  0  0  0  0
 21 20  2  0  0  0  0
 22 24  1  0  0  0  0
 22 27  2  0  0  0  0
 23 26  1  0  0  0  0
 24 25  1  0  0  0  0
 25 26  2  0  0  0  0
 26 21  1  0  0  0  0
 27 23  1  0  0  0  0
M  END
>  <MODEL>
4

>  <REMARK>
 VINA RESULT:      -6.1      2.709      5.093
  Name = 
  7 active torsions:
  status: ('A' for Active; 'I' for Inactive)
    1  A    between atoms: C_7  and  C_8
    2  A    between atoms: C_8  and  C_9
    3  A    between atoms: C_8  and  C_12
    4  A    between atoms: C_9  and  C_27
    5  A    between atoms: C_10  and  S_23
    6  A    between atoms: C_16  and  N_26
    7  A    between atoms: C_21  and  S_23
                            x       y       z     vdW  Elec       q    Type
                         _______ _______ _______ _____ _____    ______ ____

>  <TORSDO>
F 7

$$$$
=
 OpenBabel11062421073D

 27 30  0  0  1  0  0  0  0  0999 V2000
  187.3920  176.4140  141.1770 C   0  0  0  0  0  3  0  0  0  0  0  0
  187.4670  176.0860  142.5320 C   0  0  0  0  0  0  0  0  0  0  0  0
  188.6120  174.0810  141.9850 C   0  0  0  0  0  0  0  0  0  0  0  0
  188.5340  174.4130  140.6240 C   0  0  0  0  0  0  0  0  0  0  0  0
  189.0850  173.5560  139.6280 N   0  0  0  0  0  1  0  0  0  0  0  0
  187.9280  175.5730  140.2550 N   0  0  0  0  0  0  0  0  0  0  0  0
  188.0760  174.9270  142.9030 N   0  0  0  0  0  0  0  0  0  0  0  0
  186.8750  177.0030  143.5520 C   0  0  2  0  0  3  0  0  0  0  0  0
  189.6420  176.8900  145.6090 C   0  0  0  0  0  1  0  0  0  0  0  0
  186.1290  176.5020  145.8590 N   0  0  0  0  0  2  0  0  0  0  0  0
  187.2740  176.5670  144.9700 C   0  0  2  0  0  3  0  0  0  0  0  0
  188.2630  177.5190  145.5950 C   0  0  1  0  0  3  0  0  0  0  0  0
  186.6430  176.9240  147.1530 C   0  0  0  0  0  2  0  0  0  0  0  0
  187.8190  177.7610  146.9560 N   0  0  0  0  0  2  0  0  0  0  0  0
  185.3650  177.1230  143.3440 C   0  0  0  0  0  2  0  0  0  0  0  0
  184.0460  179.0110  144.1730 C   0  0  0  0  0  2  0  0  0  0  0  0
  183.5740  178.6240  142.9080 O   0  0  0  0  0  0  0  0  0  0  0  0
  184.9660  178.5650  143.1050 C   0  0  2  0  0  3  0  0  0  0  0  0
  189.4030  172.5710  142.5380 S   0  0  0  0  0  0  0  0  0  0  0  0
  190.4160  173.4410  143.7250 C   0  0  0  0  0  3  0  0  0  0  0  0
  191.4950  174.0410  143.3380 N   0  0  0  0  0  0  0  0  0  0  0  0
  193.4010  176.5460  146.0640 C   0  0  0  0  0  3  0  0  0  0  0  0
  193.2210  175.8930  143.7660 C   0  0  0  0  0  2  0  0  0  0  0  0
  193.2430  175.1010  146.4520 C   0  0  0  0  0  2  0  0  0  0  0  0
  192.3610  174.4260  145.4970 N   0  0  0  0  0  0  0  0  0  0  0  0
  192.3420  174.7570  144.2400 C   0  0  0  0  0  0  0  0  0  0  0  0
  193.3790  176.8820  144.8180 N   0  0  0  0  0  0  0  0  0  0  0  0
  1  2  1  0  0  0  0
  2  7  2  0  0  0  0
  2  8  1  0  0  0  0
  3 19  1  0  0  0  0
  3  7  1  0  0  0  0
  4  3  2  0  0  0  0
  5  4  1  0  0  0  0
  6  4  1  0  0  0  0
  6  1  2  0  0  0  0
  8 15  1  1  0  0  0
 10 13  1  0  0  0  0
 11  8  1  6  0  0  0
 11 12  1  0  0  0  0
 11 10  1  0  0  0  0
 12  9  1  1  0  0  0
 12 14  1  0  0  0  0
 14 13  1  0  0  0  0
 17 18  1  0  0  0  0
 17 16  1  0  0  0  0
 18 15  1  1  0  0  0
 18 16  1  0  0  0  0
 19 20  1  0  0  0  0
 21 20  2  0  0  0  0
 21 26  1  0  0  0  0
 22 24  1  0  0  0  0
 23 26  1  0  0  0  0
 23 27  1  0  0  0  0
 25 24  1  0  0  0  0
 26 25  2  0  0  0  0
 27 22  2  0  0  0  0
M  END
>  <MODEL>
5

>  <REMARK>
 VINA RESULT:      -5.9      2.521      4.547
  Name = 
  7 active torsions:
  status: ('A' for Active; 'I' for Inactive)
    1  A    between atoms: C_7  and  C_8
    2  A    between atoms: C_8  and  C_9
    3  A    between atoms: C_8  and  C_12
    4  A    between atoms: C_9  and  C_27
    5  A    between atoms: C_10  and  S_23
    6  A    between atoms: C_16  and  N_26
    7  A    between atoms: C_21  and  S_23
                            x       y       z     vdW  Elec       q    Type
                         _______ _______ _______ _____ _____    ______ ____

>  <TORSDO>
F 7

$$$$
=
 OpenBabel11062421073D

 27 30  0  0  1  0  0  0  0  0999 V2000
  190.2430  177.2950  145.0090 C   0  0  0  0  0  3  0  0  0  0  0  0
  189.1870  176.6990  144.3170 C   0  0  0  0  0  0  0  0  0  0  0  0
  190.2590  174.5900  144.4920 C   0  0  0  0  0  0  0  0  0  0  0  0
  191.3190  175.1910  145.1870 C   0  0  0  0  0  0  0  0  0  0  0  0
  192.4260  174.4200  145.6440 N   0  0  0  0  0  1  0  0  0  0  0  0
  191.2830  176.5280  145.4290 N   0  0  0  0  0  0  0  0  0  0  0  0
  189.2200  175.3600  144.0760 N   0  0  0  0  0  0  0  0  0  0  0  0
  188.0420  177.5360  143.8460 C   0  0  2  0  0  3  0  0  0  0  0  0
  185.5530  179.7870  144.6430 C   0  0  0  0  0  1  0  0  0  0  0  0
  186.9930  176.8380  145.9780 N   0  0  0  0  0  2  0  0  0  0  0  0
  187.1320  177.9220  145.0220 C   0  0  2  0  0  3  0  0  0  0  0  0
  185.7420  178.2860  144.5630 C   0  0  1  0  0  3  0  0  0  0  0  0
  185.6260  176.9470  146.4620 C   0  0  0  0  0  2  0  0  0  0  0  0
  184.8120  177.6240  145.4610 N   0  0  0  0  0  2  0  0  0  0  0  0
  187.3100  176.8350  142.7010 C   0  0  0  0  0  2  0  0  0  0  0  0
  186.2080  177.8030  140.7410 C   0  0  0  0  0  2  0  0  0  0  0  0
  187.0640  176.7660  140.3370 O   0  0  0  0  0  0  0  0  0  0  0  0
  187.5140  177.5770  141.3950 C   0  0  2  0  0  3  0  0  0  0  0  0
  190.2420  172.8310  144.1460 S   0  0  0  0  0  0  0  0  0  0  0  0
  190.3370  173.0950  142.3820 C   0  0  0  0  0  3  0  0  0  0  0  0
  189.4430  172.5780  141.6020 N   0  0  0  0  0  0  0  0  0  0  0  0
  189.3980  173.7890  137.6180 C   0  0  0  0  0  3  0  0  0  0  0  0
  188.2020  172.6530  139.3550 C   0  0  0  0  0  2  0  0  0  0  0  0
  190.6680  173.1710  138.1350 C   0  0  0  0  0  2  0  0  0  0  0  0
  190.5900  173.0200  139.5890 N   0  0  0  0  0  0  0  0  0  0  0  0
  189.4630  172.7590  140.1840 C   0  0  0  0  0  0  0  0  0  0  0  0
  188.2770  173.5380  138.2070 N   0  0  0  0  0  0  0  0  0  0  0  0
  1  6  1  0  0  0  0
  2  1  2  0  0  0  0
  3  4  1  0  0  0  0
  4  6  2  0  0  0  0
  4  5  1  0  0  0  0
  7  2  1  0  0  0  0
  7  3  2  0  0  0  0
  8 15  1  6  0  0  0
  8  2  1  0  0  0  0
 10 13  1  0  0  0  0
 11  8  1  6  0  0  0
 11 10  1  0  0  0  0
 12  9  1  1  0  0  0
 12 11  1  0  0  0  0
 12 14  1  0  0  0  0
 14 13  1  0  0  0  0
 16 18  1  0  0  0  0
 17 16  1  0  0  0  0
 17 18  1  0  0  0  0
 18 15  1  1  0  0  0
 19  3  1  0  0  0  0
 20 19  1  0  0  0  0
 21 20  2  0  0  0  0
 22 24  1  0  0  0  0
 22 27  2  0  0  0  0
 23 26  1  0  0  0  0
 24 25  1  0  0  0  0
 25 26  2  0  0  0  0
 26 21  1  0  0  0  0
 27 23  1  0  0  0  0
M  END
>  <MODEL>
6

>  <REMARK>
 VINA RESULT:      -5.8      2.644      5.192
  Name = 
  7 active torsions:
  status: ('A' for Active; 'I' for Inactive)
    1  A    between atoms: C_7  and  C_8
    2  A    between atoms: C_8  and  C_9
    3  A    between atoms: C_8  and  C_12
    4  A    between atoms: C_9  and  C_27
    5  A    between atoms: C_10  and  S_23
    6  A    between atoms: C_16  and  N_26
    7  A    between atoms: C_21  and  S_23
                            x       y       z     vdW  Elec       q    Type
                         _______ _______ _______ _____ _____    ______ ____

>  <TORSDO>
F 7

$$$$
=
 OpenBabel11062421073D

 27 30  0  0  1  0  0  0  0  0999 V2000
  188.9290  177.7620  144.7100 C   0  0  0  0  0  3  0  0  0  0  0  0
  188.1700  176.5980  144.5700 C   0  0  0  0  0  0  0  0  0  0  0  0
  190.1570  175.3020  144.5540 C   0  0  0  0  0  0  0  0  0  0  0  0
  190.9180  176.4720  144.6940 C   0  0  0  0  0  0  0  0  0  0  0  0
  192.3400  176.4190  144.7620 N   0  0  0  0  0  1  0  0  0  0  0  0
  190.2840  177.6730  144.7710 N   0  0  0  0  0  0  0  0  0  0  0  0
  188.8030  175.3950  144.4960 N   0  0  0  0  0  0  0  0  0  0  0  0
  186.6810  176.6870  144.4960 C   0  0  2  0  0  3  0  0  0  0  0  0
  184.2650  178.0580  142.4520 C   0  0  0  0  0  1  0  0  0  0  0  0
  187.2500  176.1760  142.1410 N   0  0  0  0  0  2  0  0  0  0  0  0
  186.2060  176.6420  143.0360 C   0  0  2  0  0  3  0  0  0  0  0  0
  185.7760  178.0000  142.5410 C   0  0  1  0  0  3  0  0  0  0  0  0
  187.0470  176.9290  140.9140 C   0  0  0  0  0  2  0  0  0  0  0  0
  186.3540  178.1740  141.2200 N   0  0  0  0  0  2  0  0  0  0  0  0
  186.1840  177.9080  145.2710 C   0  0  0  0  0  2  0  0  0  0  0  0
  183.9780  178.6210  146.0570 C   0  0  0  0  0  2  0  0  0  0  0  0
  184.8580  178.5210  147.1470 O   0  0  0  0  0  0  0  0  0  0  0  0
  184.9940  177.5500  146.1380 C   0  0  2  0  0  3  0  0  0  0  0  0
  190.9310  173.6880  144.4530 S   0  0  0  0  0  0  0  0  0  0  0  0
  190.8130  173.6530  142.6710 C   0  0  0  0  0  3  0  0  0  0  0  0
  189.8450  173.0110  142.1000 N   0  0  0  0  0  0  0  0  0  0  0  0
  188.7860  172.5280  138.1020 C   0  0  0  0  0  3  0  0  0  0  0  0
  190.2070  171.7750  139.8780 C   0  0  0  0  0  2  0  0  0  0  0  0
  188.9640  173.9360  138.6010 C   0  0  0  0  0  2  0  0  0  0  0  0
  189.1050  173.9300  140.0590 N   0  0  0  0  0  0  0  0  0  0  0  0
  189.6940  172.9520  140.6790 C   0  0  0  0  0  0  0  0  0  0  0  0
  189.3650  171.5520  138.7160 N   0  0  0  0  0  0  0  0  0  0  0  0
  1  6  1  0  0  0  0
  2  1  2  0  0  0  0
  3  4  1  0  0  0  0
  4  5  1  0  0  0  0
  4  6  2  0  0  0  0
  7  3  2  0  0  0  0
  7  2  1  0  0  0  0
  8  2  1  0  0  0  0
  8 15  1  6  0  0  0
 10 11  1  0  0  0  0
 11  8  1  1  0  0  0
 12  9  1  6  0  0  0
 12 11  1  0  0  0  0
 13 14  1  0  0  0  0
 13 10  1  0  0  0  0
 14 12  1  0  0  0  0
 16 18  1  0  0  0  0
 16 17  1  0  0  0  0
 18 15  1  6  0  0  0
 18 17  1  0  0  0  0
 19  3  1  0  0  0  0
 20 19  1  0  0  0  0
 21 20  2  0  0  0  0
 22 24  1  0  0  0  0
 22 27  2  0  0  0  0
 23 26  1  0  0  0  0
 24 25  1  0  0  0  0
 25 26  2  0  0  0  0
 26 21  1  0  0  0  0
 27 23  1  0  0  0  0
M  END
>  <MODEL>
7

>  <REMARK>
 VINA RESULT:      -5.7      1.996      4.516
  Name = 
  7 active torsions:
  status: ('A' for Active; 'I' for Inactive)
    1  A    between atoms: C_7  and  C_8
    2  A    between atoms: C_8  and  C_9
    3  A    between atoms: C_8  and  C_12
    4  A    between atoms: C_9  and  C_27
    5  A    between atoms: C_10  and  S_23
    6  A    between atoms: C_16  and  N_26
    7  A    between atoms: C_21  and  S_23
                            x       y       z     vdW  Elec       q    Type
                         _______ _______ _______ _____ _____    ______ ____

>  <TORSDO>
F 7

$$$$
=
 OpenBabel11062421073D

 27 30  0  0  1  0  0  0  0  0999 V2000
  191.1640  173.7090  143.1180 C   0  0  0  0  0  3  0  0  0  0  0  0
  190.9330  175.0510  143.4270 C   0  0  0  0  0  0  0  0  0  0  0  0
  189.0910  175.0790  141.9310 C   0  0  0  0  0  0  0  0  0  0  0  0
  189.3250  173.7310  141.6230 C   0  0  0  0  0  0  0  0  0  0  0  0
  188.4990  173.0360  140.6930 N   0  0  0  0  0  1  0  0  0  0  0  0
  190.3550  173.0790  142.2260 N   0  0  0  0  0  0  0  0  0  0  0  0
  189.9010  175.7030  142.8260 N   0  0  0  0  0  0  0  0  0  0  0  0
  191.8210  175.7520  144.4020 C   0  0  2  0  0  3  0  0  0  0  0  0
  194.6520  175.4720  142.4520 C   0  0  0  0  0  1  0  0  0  0  0  0
  193.6460  174.8090  145.7840 N   0  0  0  0  0  2  0  0  0  0  0  0
  193.2140  175.1050  144.4300 C   0  0  2  0  0  3  0  0  0  0  0  0
  194.2630  175.9990  143.8180 C   0  0  1  0  0  3  0  0  0  0  0  0
  195.0830  175.0340  145.7690 C   0  0  0  0  0  2  0  0  0  0  0  0
  195.4140  175.9710  144.7030 N   0  0  0  0  0  2  0  0  0  0  0  0
  191.1460  175.8300  145.7720 C   0  0  0  0  0  2  0  0  0  0  0  0
  189.7020  177.1640  147.2300 C   0  0  0  0  0  2  0  0  0  0  0  0
  189.0720  176.9710  145.9890 O   0  0  0  0  0  0  0  0  0  0  0  0
  190.4650  177.1700  145.9630 C   0  0  2  0  0  3  0  0  0  0  0  0
  187.7470  175.9930  141.1760 S   0  0  0  0  0  0  0  0  0  0  0  0
  187.2990  176.7700  142.7200 C   0  0  0  0  0  3  0  0  0  0  0  0
  186.0570  176.8380  143.0740 N   0  0  0  0  0  0  0  0  0  0  0  0
  184.2160  178.2880  146.5160 C   0  0  0  0  0  3  0  0  0  0  0  0
  185.0390  178.8310  144.3330 C   0  0  0  0  0  2  0  0  0  0  0  0
  185.4010  177.3800  146.7000 C   0  0  0  0  0  2  0  0  0  0  0  0
  185.7760  176.7870  145.4140 N   0  0  0  0  0  0  0  0  0  0  0  0
  185.6380  177.4430  144.3000 C   0  0  0  0  0  0  0  0  0  0  0  0
  184.0710  178.9380  145.4110 N   0  0  0  0  0  0  0  0  0  0  0  0
  1  2  1  0  0  0  0
  2  8  1  0  0  0  0
  3  7  1  0  0  0  0
  4  3  2  0  0  0  0
  4  6  1  0  0  0  0
  5  4  1  0  0  0  0
  6  1  2  0  0  0  0
  7  2  2  0  0  0  0
  8 15  1  1  0  0  0
 11  8  1  1  0  0  0
 11 10  1  0  0  0  0
 12  9  1  6  0  0  0
 12 11  1  0  0  0  0
 12 14  1  0  0  0  0
 13 10  1  0  0  0  0
 14 13  1  0  0  0  0
 17 16  1  0  0  0  0
 18 15  1  1  0  0  0
 18 17  1  0  0  0  0
 18 16  1  0  0  0  0
 19  3  1  0  0  0  0
 19 20  1  0  0  0  0
 20 21  2  0  0  0  0
 21 26  1  0  0  0  0
 22 24  1  0  0  0  0
 23 27  1  0  0  0  0
 25 24  1  0  0  0  0
 26 23  1  0  0  0  0
 26 25  2  0  0  0  0
 27 22  2  0  0  0  0
M  END
>  <MODEL>
8

>  <REMARK>
 VINA RESULT:      -5.7      2.790      6.071
  Name = 
  7 active torsions:
  status: ('A' for Active; 'I' for Inactive)
    1  A    between atoms: C_7  and  C_8
    2  A    between atoms: C_8  and  C_9
    3  A    between atoms: C_8  and  C_12
    4  A    between atoms: C_9  and  C_27
    5  A    between atoms: C_10  and  S_23
    6  A    between atoms: C_16  and  N_26
    7  A    between atoms: C_21  and  S_23
                            x       y       z     vdW  Elec       q    Type
                         _______ _______ _______ _____ _____    ______ ____

>  <TORSDO>
F 7

$$$$
=
 OpenBabel11062421073D

 27 30  0  0  1  0  0  0  0  0999 V2000
  189.1690  177.5360  146.2650 C   0  0  0  0  0  3  0  0  0  0  0  0
  188.7580  176.8690  145.1090 C   0  0  0  0  0  0  0  0  0  0  0  0
  190.4410  175.2330  145.4530 C   0  0  0  0  0  0  0  0  0  0  0  0
  190.8530  175.9050  146.6130 C   0  0  0  0  0  0  0  0  0  0  0  0
  191.9340  175.4140  147.4000 N   0  0  0  0  0  1  0  0  0  0  0  0
  190.2050  177.0390  146.9910 N   0  0  0  0  0  0  0  0  0  0  0  0
  189.4040  175.7320  144.7320 N   0  0  0  0  0  0  0  0  0  0  0  0
  187.6240  177.4120  144.3020 C   0  0  2  0  0  3  0  0  0  0  0  0
  185.5480  180.1660  144.2940 C   0  0  0  0  0  1  0  0  0  0  0  0
  186.0700  177.2400  146.2220 N   0  0  0  0  0  2  0  0  0  0  0  0
  186.6080  178.1260  145.2060 C   0  0  2  0  0  3  0  0  0  0  0  0
  185.4350  178.6610  144.4230 C   0  0  1  0  0  3  0  0  0  0  0  0
  184.6880  177.6640  146.3870 C   0  0  0  0  0  2  0  0  0  0  0  0
  184.2350  178.3190  145.1660 N   0  0  0  0  0  2  0  0  0  0  0  0
  187.0140  176.3090  143.4360 C   0  0  0  0  0  2  0  0  0  0  0  0
  187.9140  175.6690  141.2520 C   0  0  0  0  0  2  0  0  0  0  0  0
  188.4380  176.9150  141.6320 O   0  0  0  0  0  0  0  0  0  0  0  0
  187.0940  176.6700  141.9670 C   0  0  2  0  0  3  0  0  0  0  0  0
  191.2490  173.7300  144.9040 S   0  0  0  0  0  0  0  0  0  0  0  0
  192.4950  174.6330  143.9990 C   0  0  0  0  0  3  0  0  0  0  0  0
  193.7490  174.3730  144.1870 N   0  0  0  0  0  0  0  0  0  0  0  0
  196.2670  176.7930  141.9200 C   0  0  0  0  0  3  0  0  0  0  0  0
  195.2070  174.6510  142.0920 C   0  0  0  0  0  2  0  0  0  0  0  0
  196.4990  176.7600  143.4060 C   0  0  0  0  0  2  0  0  0  0  0  0
  195.3970  176.0540  144.0640 N   0  0  0  0  0  0  0  0  0  0  0  0
  194.7910  175.0590  143.4880 C   0  0  0  0  0  0  0  0  0  0  0  0
  195.6610  175.8090  141.3430 N   0  0  0  0  0  0  0  0  0  0  0  0
  1  6  1  0  0  0  0
  2  1  2  0  0  0  0
  3  4  1  0  0  0  0
  4  6  2  0  0  0  0
  4  5  1  0  0  0  0
  7  2  1  0  0  0  0
  7  3  2  0  0  0  0
  8 15  1  1  0  0  0
  8  2  1  0  0  0  0
 10 13  1  0  0  0  0
 11  8  1  6  0  0  0
 11 10  1  0  0  0  0
 12  9  1  1  0  0  0
 12 14  1  0  0  0  0
 12 11  1  0  0  0  0
 14 13  1  0  0  0  0
 16 17  1  0  0  0  0
 16 18  1  0  0  0  0
 17 18  1  0  0  0  0
 18 15  1  1  0  0  0
 19  3  1  0  0  0  0
 20 21  2  0  0  0  0
 20 19  1  0  0  0  0
 22 24  1  0  0  0  0
 23 26  1  0  0  0  0
 24 25  1  0  0  0  0
 26 25  2  0  0  0  0
 26 21  1  0  0  0  0
 27 22  2  0  0  0  0
 27 23  1  0  0  0  0
M  END
>  <MODEL>
9

>  <REMARK>
 VINA RESULT:      -5.7      3.801      6.233
  Name = 
  7 active torsions:
  status: ('A' for Active; 'I' for Inactive)
    1  A    between atoms: C_7  and  C_8
    2  A    between atoms: C_8  and  C_9
    3  A    between atoms: C_8  and  C_12
    4  A    between atoms: C_9  and  C_27
    5  A    between atoms: C_10  and  S_23
    6  A    between atoms: C_16  and  N_26
    7  A    between atoms: C_21  and  S_23
                            x       y       z     vdW  Elec       q    Type
                         _______ _______ _______ _____ _____    ______ ____

>  <TORSDO>
F 7

$$$$
