=
 OpenBabel11062419433D

 30 32  0  0  0  0  0  0  0  0999 V2000
  186.1840  177.9870  144.4540 C   0  0  0  0  0  0  0  0  0  0  0  0
  187.3300  177.8380  146.9790 N   0  0  0  0  0  0  0  0  0  0  0  0
  187.7810  176.3250  143.6690 O   0  0  0  0  0  1  0  0  0  0  0  0
  185.7190  178.7870  145.5070 C   0  0  0  0  0  3  0  0  0  0  0  0
  187.2640  177.1040  144.6990 C   0  0  0  0  0  0  0  0  0  0  0  0
  187.8280  177.0380  145.9950 C   0  0  0  0  0  0  0  0  0  0  0  0
  185.8270  179.5130  147.8280 N   0  0  0  0  0  1  0  0  0  0  0  0
  186.3050  178.7000  146.7650 C   0  0  0  0  0  0  0  0  0  0  0  0
  185.6220  178.2590  140.6950 C   0  0  0  0  0  3  0  0  0  0  0  0
  184.2280  178.2940  140.6300 C   0  0  0  0  0  3  0  0  0  0  0  0
  184.1160  178.1360  143.0400 C   0  0  0  0  0  3  0  0  0  0  0  0
  186.2610  178.1630  141.9330 C   0  0  0  0  0  3  0  0  0  0  0  0
  185.5190  178.1070  143.1240 C   0  0  0  0  0  0  0  0  0  0  0  0
  183.4660  178.2320  141.7990 C   0  0  0  0  0  0  0  0  0  0  0  0
  182.0720  178.2660  141.7020 O   0  0  0  0  0  0  0  0  0  0  0  0
  181.3890  178.2040  140.4570 C   0  0  0  0  0  1  0  0  0  0  0  0
  191.4180  175.5420  146.0630 C   0  0  0  0  0  0  0  0  0  0  0  0
  188.9510  176.1350  146.3380 C   0  0  0  0  0  0  0  0  0  0  0  0
  191.3370  174.5390  146.8240 O   0  0  0  0  0  0  0  0  0  0  0  0
  190.2630  176.3520  145.8010 N   0  0  0  0  0  2  0  0  0  0  0  0
  188.7400  175.1610  147.1100 O   0  0  0  0  0  0  0  0  0  0  0  0
  193.7660  176.3860  146.1990 C   0  0  0  0  0  3  0  0  0  0  0  0
  194.9250  176.6930  145.6270 O   0  0  0  0  0  0  0  0  0  0  0  0
  192.9030  175.7180  144.0660 C   0  0  0  0  0  3  0  0  0  0  0  0
  192.7060  175.8850  145.4370 C   0  0  0  0  0  0  0  0  0  0  0  0
  195.1470  176.5460  144.3220 C   0  0  0  0  0  0  0  0  0  0  0  0
  196.2740  176.8610  143.8610 O   0  0  0  0  0  0  0  0  0  0  0  0
  194.1260  176.0450  143.4820 C   0  0  0  0  0  0  0  0  0  0  0  0
  193.4080  175.0430  141.3070 C   0  0  0  0  0  1  0  0  0  0  0  0
  194.2640  175.8550  142.0990 O   0  0  0  0  0  0  0  0  0  0  0  0
  1  5  2  0  0  0  0
  1  4  1  0  0  0  0
  3  5  1  0  0  0  0
  4  8  2  0  0  0  0
  5  6  1  0  0  0  0
  6 18  1  0  0  0  0
  6  2  2  0  0  0  0
  8  2  1  0  0  0  0
  8  7  1  0  0  0  0
  9 12  1  0  0  0  0
 10  9  2  0  0  0  0
 10 14  1  0  0  0  0
 11 13  1  0  0  0  0
 12 13  2  0  0  0  0
 13  1  1  0  0  0  0
 14 11  2  0  0  0  0
 15 14  1  0  0  0  0
 16 15  1  0  0  0  0
 17 19  2  0  0  0  0
 18 21  2  0  0  0  0
 20 17  1  0  0  0  0
 20 18  1  0  0  0  0
 23 22  1  0  0  0  0
 24 25  1  0  0  0  0
 25 17  1  0  0  0  0
 25 22  2  0  0  0  0
 26 23  1  0  0  0  0
 27 26  2  0  0  0  0
 28 24  2  0  0  0  0
 28 26  1  0  0  0  0
 29 30  1  0  0  0  0
 30 28  1  0  0  0  0
M  END
>  <MODEL>
1

>  <REMARK>
 VINA RESULT:      -7.7      0.000      0.000
  Name = 
  5 active torsions:
  status: ('A' for Active; 'I' for Inactive)
    1  A    between atoms: C_1  and  C_19
    2  A    between atoms: C_3  and  C_28
    3  A    between atoms: C_4  and  C_24
    4  A    between atoms: O_6  and  C_29
    5  A    between atoms: O_16  and  C_30
                            x       y       z     vdW  Elec       q    Type
                         _______ _______ _______ _____ _____    ______ ____

>  <TORSDO>
F 5

$$$$
=
 OpenBabel11062419433D

 30 32  0  0  0  0  0  0  0  0999 V2000
  193.1130  175.0870  145.7950 C   0  0  0  0  0  0  0  0  0  0  0  0
  191.0330  176.9040  146.0840 N   0  0  0  0  0  0  0  0  0  0  0  0
  192.7990  175.1630  143.3820 O   0  0  0  0  0  1  0  0  0  0  0  0
  192.6960  175.5130  147.0640 C   0  0  0  0  0  3  0  0  0  0  0  0
  192.4420  175.5940  144.6550 C   0  0  0  0  0  0  0  0  0  0  0  0
  191.3900  176.5250  144.8250 C   0  0  0  0  0  0  0  0  0  0  0  0
  191.2370  176.8510  148.4810 N   0  0  0  0  0  1  0  0  0  0  0  0
  191.6530  176.4220  147.1900 C   0  0  0  0  0  0  0  0  0  0  0  0
  196.6280  173.6180  145.7100 C   0  0  0  0  0  3  0  0  0  0  0  0
  196.3510  172.2560  145.5770 C   0  0  0  0  0  3  0  0  0  0  0  0
  193.9830  172.7430  145.5800 C   0  0  0  0  0  3  0  0  0  0  0  0
  195.5810  174.5400  145.7780 C   0  0  0  0  0  3  0  0  0  0  0  0
  194.2440  174.1180  145.7070 C   0  0  0  0  0  0  0  0  0  0  0  0
  195.0300  171.8090  145.5120 C   0  0  0  0  0  0  0  0  0  0  0  0
  194.7840  170.4400  145.3820 O   0  0  0  0  0  0  0  0  0  0  0  0
  194.8790  169.5360  146.4750 C   0  0  0  0  0  1  0  0  0  0  0  0
  188.4320  177.9850  142.7630 C   0  0  0  0  0  0  0  0  0  0  0  0
  190.6440  177.1110  143.6870 C   0  0  0  0  0  0  0  0  0  0  0  0
  188.9260  178.2570  141.6350 O   0  0  0  0  0  0  0  0  0  0  0  0
  189.2480  177.4210  143.7980 N   0  0  0  0  0  2  0  0  0  0  0  0
  191.2530  177.3320  142.6050 O   0  0  0  0  0  0  0  0  0  0  0  0
  186.0890  178.3360  141.9700 C   0  0  0  0  0  3  0  0  0  0  0  0
  184.8030  178.5740  142.2110 O   0  0  0  0  0  0  0  0  0  0  0  0
  186.5340  178.4160  144.3230 C   0  0  0  0  0  3  0  0  0  0  0  0
  187.0060  178.2480  143.0210 C   0  0  0  0  0  0  0  0  0  0  0  0
  184.3190  178.7390  143.4390 C   0  0  0  0  0  0  0  0  0  0  0  0
  183.0880  178.9600  143.5800 O   0  0  0  0  0  0  0  0  0  0  0  0
  185.1810  178.6650  144.5580 C   0  0  0  0  0  0  0  0  0  0  0  0
  185.6430  178.9660  146.9960 C   0  0  0  0  0  1  0  0  0  0  0  0
  184.7650  178.8240  145.8880 O   0  0  0  0  0  0  0  0  0  0  0  0
  1  4  1  0  0  0  0
  2  8  1  0  0  0  0
  3  5  1  0  0  0  0
  4  8  2  0  0  0  0
  5  6  1  0  0  0  0
  5  1  2  0  0  0  0
  6  2  2  0  0  0  0
  8  7  1  0  0  0  0
  9 12  1  0  0  0  0
 10  9  2  0  0  0  0
 11 13  1  0  0  0  0
 13 12  2  0  0  0  0
 13  1  1  0  0  0  0
 14 10  1  0  0  0  0
 14 11  2  0  0  0  0
 15 14  1  0  0  0  0
 15 16  1  0  0  0  0
 17 25  1  0  0  0  0
 17 20  1  0  0  0  0
 18 20  1  0  0  0  0
 18  6  1  0  0  0  0
 19 17  2  0  0  0  0
 21 18  2  0  0  0  0
 22 23  1  0  0  0  0
 22 25  2  0  0  0  0
 23 26  1  0  0  0  0
 24 28  2  0  0  0  0
 25 24  1  0  0  0  0
 26 27  2  0  0  0  0
 26 28  1  0  0  0  0
 28 30  1  0  0  0  0
 30 29  1  0  0  0  0
M  END
>  <MODEL>
2

>  <REMARK>
 VINA RESULT:      -7.7      2.920      9.554
  Name = 
  5 active torsions:
  status: ('A' for Active; 'I' for Inactive)
    1  A    between atoms: C_1  and  C_19
    2  A    between atoms: C_3  and  C_28
    3  A    between atoms: C_4  and  C_24
    4  A    between atoms: O_6  and  C_29
    5  A    between atoms: O_16  and  C_30
                            x       y       z     vdW  Elec       q    Type
                         _______ _______ _______ _____ _____    ______ ____

>  <TORSDO>
F 5

$$$$
=
 OpenBabel11062419433D

 30 32  0  0  0  0  0  0  0  0999 V2000
  188.3770  176.3350  144.4520 C   0  0  0  0  0  0  0  0  0  0  0  0
  190.5320  175.4410  142.9460 N   0  0  0  0  0  0  0  0  0  0  0  0
  189.9310  177.0860  146.1690 O   0  0  0  0  0  1  0  0  0  0  0  0
  188.1830  175.7030  143.2160 C   0  0  0  0  0  3  0  0  0  0  0  0
  189.7010  176.5000  144.9280 C   0  0  0  0  0  0  0  0  0  0  0  0
  190.7850  176.0440  144.1410 C   0  0  0  0  0  0  0  0  0  0  0  0
  189.0680  174.6200  141.2230 N   0  0  0  0  0  1  0  0  0  0  0  0
  189.2740  175.2600  142.4760 C   0  0  0  0  0  0  0  0  0  0  0  0
  185.9240  177.0400  147.2820 C   0  0  0  0  0  3  0  0  0  0  0  0
  184.9190  177.7330  146.6050 C   0  0  0  0  0  3  0  0  0  0  0  0
  186.1600  177.5080  144.5420 C   0  0  0  0  0  3  0  0  0  0  0  0
  187.0460  176.5810  146.5860 C   0  0  0  0  0  3  0  0  0  0  0  0
  187.1780  176.8030  145.2060 C   0  0  0  0  0  0  0  0  0  0  0  0
  185.0300  177.9730  145.2330 C   0  0  0  0  0  0  0  0  0  0  0  0
  184.0080  178.6720  144.5840 O   0  0  0  0  0  0  0  0  0  0  0  0
  183.8240  178.6260  143.1750 C   0  0  0  0  0  1  0  0  0  0  0  0
  194.3850  175.0600  145.2370 C   0  0  0  0  0  0  0  0  0  0  0  0
  192.1980  176.1880  144.5610 C   0  0  0  0  0  0  0  0  0  0  0  0
  194.9860  176.1570  145.3980 O   0  0  0  0  0  0  0  0  0  0  0  0
  193.0120  175.0370  144.8240 N   0  0  0  0  0  2  0  0  0  0  0  0
  192.6840  177.3440  144.6910 O   0  0  0  0  0  0  0  0  0  0  0  0
  196.4520  173.7800  145.8140 C   0  0  0  0  0  3  0  0  0  0  0  0
  197.0880  172.6330  146.0270 O   0  0  0  0  0  0  0  0  0  0  0  0
  194.4340  172.5690  145.3690 C   0  0  0  0  0  3  0  0  0  0  0  0
  195.0960  173.7920  145.4750 C   0  0  0  0  0  0  0  0  0  0  0  0
  196.4870  171.4490  145.9340 C   0  0  0  0  0  0  0  0  0  0  0  0
  197.1610  170.4090  146.1510 O   0  0  0  0  0  0  0  0  0  0  0  0
  195.1160  171.3740  145.5950 C   0  0  0  0  0  0  0  0  0  0  0  0
  193.4370  169.9100  144.4610 C   0  0  0  0  0  1  0  0  0  0  0  0
  194.3960  170.1750  145.4740 O   0  0  0  0  0  0  0  0  0  0  0  0
  1  5  1  0  0  0  0
  1 13  1  0  0  0  0
  2  6  1  0  0  0  0
  4  1  2  0  0  0  0
  5  3  1  0  0  0  0
  6 18  1  0  0  0  0
  6  5  2  0  0  0  0
  7  8  1  0  0  0  0
  8  2  2  0  0  0  0
  8  4  1  0  0  0  0
 10  9  1  0  0  0  0
 11 13  2  0  0  0  0
 11 14  1  0  0  0  0
 12  9  2  0  0  0  0
 13 12  1  0  0  0  0
 14 10  2  0  0  0  0
 15 14  1  0  0  0  0
 16 15  1  0  0  0  0
 17 19  2  0  0  0  0
 17 25  1  0  0  0  0
 18 21  2  0  0  0  0
 18 20  1  0  0  0  0
 20 17  1  0  0  0  0
 22 23  1  0  0  0  0
 24 25  1  0  0  0  0
 24 28  2  0  0  0  0
 25 22  2  0  0  0  0
 26 23  1  0  0  0  0
 26 27  2  0  0  0  0
 28 26  1  0  0  0  0
 29 30  1  0  0  0  0
 30 28  1  0  0  0  0
M  END
>  <MODEL>
3

>  <REMARK>
 VINA RESULT:      -7.5      3.320      4.807
  Name = 
  5 active torsions:
  status: ('A' for Active; 'I' for Inactive)
    1  A    between atoms: C_1  and  C_19
    2  A    between atoms: C_3  and  C_28
    3  A    between atoms: C_4  and  C_24
    4  A    between atoms: O_6  and  C_29
    5  A    between atoms: O_16  and  C_30
                            x       y       z     vdW  Elec       q    Type
                         _______ _______ _______ _____ _____    ______ ____

>  <TORSDO>
F 5

$$$$
=
 OpenBabel11062419433D

 30 32  0  0  0  0  0  0  0  0999 V2000
  186.1210  177.8790  144.2240 C   0  0  0  0  0  0  0  0  0  0  0  0
  187.3810  177.6290  146.6870 N   0  0  0  0  0  0  0  0  0  0  0  0
  187.6770  176.2490  143.3020 O   0  0  0  0  0  1  0  0  0  0  0  0
  185.7070  178.6370  145.3290 C   0  0  0  0  0  3  0  0  0  0  0  0
  187.2100  176.9870  144.3850 C   0  0  0  0  0  0  0  0  0  0  0  0
  187.8320  176.8690  145.6500 C   0  0  0  0  0  0  0  0  0  0  0  0
  185.9220  179.2710  147.6700 N   0  0  0  0  0  1  0  0  0  0  0  0
  186.3500  178.5000  146.5540 C   0  0  0  0  0  0  0  0  0  0  0  0
  185.3870  178.2770  140.5060 C   0  0  0  0  0  3  0  0  0  0  0  0
  183.9920  178.3390  140.5100 C   0  0  0  0  0  3  0  0  0  0  0  0
  183.9920  178.1090  142.9170 C   0  0  0  0  0  3  0  0  0  0  0  0
  186.0820  178.1320  141.7100 C   0  0  0  0  0  3  0  0  0  0  0  0
  185.3960  178.0520  142.9320 C   0  0  0  0  0  0  0  0  0  0  0  0
  183.2860  178.2550  141.7120 C   0  0  0  0  0  0  0  0  0  0  0  0
  181.8900  178.3170  141.6820 O   0  0  0  0  0  0  0  0  0  0  0  0
  181.1490  178.3360  140.4700 C   0  0  0  0  0  1  0  0  0  0  0  0
  191.3690  175.2760  145.3710 C   0  0  0  0  0  0  0  0  0  0  0  0
  188.9680  175.9530  145.9050 C   0  0  0  0  0  0  0  0  0  0  0  0
  191.3580  174.3160  146.1890 O   0  0  0  0  0  0  0  0  0  0  0  0
  190.2110  176.1040  145.2060 N   0  0  0  0  0  2  0  0  0  0  0  0
  188.8290  175.0250  146.7470 O   0  0  0  0  0  0  0  0  0  0  0  0
  192.5010  176.1960  143.3420 C   0  0  0  0  0  3  0  0  0  0  0  0
  193.5990  176.4400  142.6330 O   0  0  0  0  0  0  0  0  0  0  0  0
  193.8400  175.1720  145.0440 C   0  0  0  0  0  3  0  0  0  0  0  0
  192.5810  175.5500  144.5790 C   0  0  0  0  0  0  0  0  0  0  0  0
  194.8150  176.0930  143.0470 C   0  0  0  0  0  0  0  0  0  0  0  0
  195.8030  176.3610  142.3140 O   0  0  0  0  0  0  0  0  0  0  0  0
  194.9820  175.4360  144.2880 C   0  0  0  0  0  0  0  0  0  0  0  0
  196.3860  174.0960  145.8630 C   0  0  0  0  0  1  0  0  0  0  0  0
  196.2210  175.0320  144.8080 O   0  0  0  0  0  0  0  0  0  0  0  0
  1  5  2  0  0  0  0
  1  4  1  0  0  0  0
  3  5  1  0  0  0  0
  4  8  2  0  0  0  0
  5  6  1  0  0  0  0
  6 18  1  0  0  0  0
  6  2  2  0  0  0  0
  8  2  1  0  0  0  0
  8  7  1  0  0  0  0
  9 10  2  0  0  0  0
  9 12  1  0  0  0  0
 10 14  1  0  0  0  0
 11 13  1  0  0  0  0
 12 13  2  0  0  0  0
 13  1  1  0  0  0  0
 14 11  2  0  0  0  0
 15 14  1  0  0  0  0
 16 15  1  0  0  0  0
 17 19  2  0  0  0  0
 18 21  2  0  0  0  0
 20 17  1  0  0  0  0
 20 18  1  0  0  0  0
 22 25  2  0  0  0  0
 23 26  1  0  0  0  0
 23 22  1  0  0  0  0
 25 24  1  0  0  0  0
 25 17  1  0  0  0  0
 26 28  1  0  0  0  0
 27 26  2  0  0  0  0
 28 30  1  0  0  0  0
 28 24  2  0  0  0  0
 30 29  1  0  0  0  0
M  END
>  <MODEL>
4

>  <REMARK>
 VINA RESULT:      -7.5      0.935      1.588
  Name = 
  5 active torsions:
  status: ('A' for Active; 'I' for Inactive)
    1  A    between atoms: C_1  and  C_19
    2  A    between atoms: C_3  and  C_28
    3  A    between atoms: C_4  and  C_24
    4  A    between atoms: O_6  and  C_29
    5  A    between atoms: O_16  and  C_30
                            x       y       z     vdW  Elec       q    Type
                         _______ _______ _______ _____ _____    ______ ____

>  <TORSDO>
F 5

$$$$
=
 OpenBabel11062419433D

 30 32  0  0  0  0  0  0  0  0999 V2000
  188.9320  176.9020  145.0070 C   0  0  0  0  0  0  0  0  0  0  0  0
  190.7320  175.4290  146.5250 N   0  0  0  0  0  0  0  0  0  0  0  0
  190.8070  178.0570  143.9690 O   0  0  0  0  0  1  0  0  0  0  0  0
  188.4860  175.9590  145.9430 C   0  0  0  0  0  3  0  0  0  0  0  0
  190.3270  177.1000  144.8570 C   0  0  0  0  0  0  0  0  0  0  0  0
  191.2260  176.3330  145.6350 C   0  0  0  0  0  0  0  0  0  0  0  0
  188.9400  174.2740  147.6420 N   0  0  0  0  0  1  0  0  0  0  0  0
  189.4010  175.2310  146.6950 C   0  0  0  0  0  0  0  0  0  0  0  0
  187.0520  178.4800  142.0920 C   0  0  0  0  0  3  0  0  0  0  0  0
  185.9560  179.0430  142.7480 C   0  0  0  0  0  3  0  0  0  0  0  0
  186.8020  178.2190  144.8580 C   0  0  0  0  0  3  0  0  0  0  0  0
  188.0220  177.7870  142.8220 C   0  0  0  0  0  3  0  0  0  0  0  0
  187.9150  177.6520  144.2150 C   0  0  0  0  0  0  0  0  0  0  0  0
  185.8220  178.9160  144.1330 C   0  0  0  0  0  0  0  0  0  0  0  0
  184.7120  179.4880  144.7610 O   0  0  0  0  0  0  0  0  0  0  0  0
  184.0610  178.8810  145.8700 C   0  0  0  0  0  1  0  0  0  0  0  0
  194.7890  176.3650  144.0740 C   0  0  0  0  0  0  0  0  0  0  0  0
  192.6970  176.4720  145.5320 C   0  0  0  0  0  0  0  0  0  0  0  0
  195.5570  176.6690  145.0260 O   0  0  0  0  0  0  0  0  0  0  0  0
  193.3740  176.2600  144.2850 N   0  0  0  0  0  2  0  0  0  0  0  0
  193.3570  176.7770  146.5620 O   0  0  0  0  0  0  0  0  0  0  0  0
  196.7140  176.2610  142.4840 C   0  0  0  0  0  3  0  0  0  0  0  0
  197.2090  176.0350  141.2710 O   0  0  0  0  0  0  0  0  0  0  0  0
  194.5220  175.7260  141.6770 C   0  0  0  0  0  3  0  0  0  0  0  0
  195.3460  176.1150  142.7330 C   0  0  0  0  0  0  0  0  0  0  0  0
  196.4520  175.6620  140.2420 C   0  0  0  0  0  0  0  0  0  0  0  0
  197.0010  175.4670  139.1260 O   0  0  0  0  0  0  0  0  0  0  0  0
  195.0590  175.4920  140.4110 C   0  0  0  0  0  0  0  0  0  0  0  0
  193.1240  174.1650  139.5470 C   0  0  0  0  0  1  0  0  0  0  0  0
  194.1800  175.1020  139.3890 O   0  0  0  0  0  0  0  0  0  0  0  0
  1  4  1  0  0  0  0
  2  8  1  0  0  0  0
  3  5  1  0  0  0  0
  4  8  2  0  0  0  0
  5  1  2  0  0  0  0
  5  6  1  0  0  0  0
  6  2  2  0  0  0  0
  8  7  1  0  0  0  0
  9 10  2  0  0  0  0
  9 12  1  0  0  0  0
 10 14  1  0  0  0  0
 12 13  2  0  0  0  0
 13 11  1  0  0  0  0
 13  1  1  0  0  0  0
 14 15  1  0  0  0  0
 14 11  2  0  0  0  0
 15 16  1  0  0  0  0
 17 20  1  0  0  0  0
 17 19  2  0  0  0  0
 18  6  1  0  0  0  0
 18 21  2  0  0  0  0
 20 18  1  0  0  0  0
 22 25  2  0  0  0  0
 23 22  1  0  0  0  0
 24 25  1  0  0  0  0
 25 17  1  0  0  0  0
 26 28  1  0  0  0  0
 26 23  1  0  0  0  0
 27 26  2  0  0  0  0
 28 24  2  0  0  0  0
 30 29  1  0  0  0  0
 30 28  1  0  0  0  0
M  END
>  <MODEL>
5

>  <REMARK>
 VINA RESULT:      -7.5      2.568      3.932
  Name = 
  5 active torsions:
  status: ('A' for Active; 'I' for Inactive)
    1  A    between atoms: C_1  and  C_19
    2  A    between atoms: C_3  and  C_28
    3  A    between atoms: C_4  and  C_24
    4  A    between atoms: O_6  and  C_29
    5  A    between atoms: O_16  and  C_30
                            x       y       z     vdW  Elec       q    Type
                         _______ _______ _______ _____ _____    ______ ____

>  <TORSDO>
F 5

$$$$
=
 OpenBabel11062419433D

 30 32  0  0  0  0  0  0  0  0999 V2000
  188.5440  176.9920  145.2560 C   0  0  0  0  0  0  0  0  0  0  0  0
  190.4640  175.4400  146.5260 N   0  0  0  0  0  0  0  0  0  0  0  0
  190.3190  178.1340  144.0420 O   0  0  0  0  0  1  0  0  0  0  0  0
  188.1820  176.0340  146.2130 C   0  0  0  0  0  3  0  0  0  0  0  0
  189.9170  177.1640  144.9550 C   0  0  0  0  0  0  0  0  0  0  0  0
  190.8780  176.3570  145.6090 C   0  0  0  0  0  0  0  0  0  0  0  0
  188.7810  174.2950  147.8090 N   0  0  0  0  0  1  0  0  0  0  0  0
  189.1570  175.2660  146.8400 C   0  0  0  0  0  0  0  0  0  0  0  0
  185.6160  179.3690  144.7140 C   0  0  0  0  0  3  0  0  0  0  0  0
  185.4590  179.2980  143.3280 C   0  0  0  0  0  3  0  0  0  0  0  0
  187.2970  177.7300  143.2070 C   0  0  0  0  0  3  0  0  0  0  0  0
  186.6130  178.6200  145.3430 C   0  0  0  0  0  3  0  0  0  0  0  0
  187.4630  177.7850  144.6010 C   0  0  0  0  0  0  0  0  0  0  0  0
  186.2980  178.4800  142.5660 C   0  0  0  0  0  0  0  0  0  0  0  0
  186.1190  178.4320  141.1810 O   0  0  0  0  0  0  0  0  0  0  0  0
  184.8430  178.2550  140.5780 C   0  0  0  0  0  1  0  0  0  0  0  0
  194.2540  176.2760  143.6770 C   0  0  0  0  0  0  0  0  0  0  0  0
  192.3320  176.4670  145.3450 C   0  0  0  0  0  0  0  0  0  0  0  0
  195.1240  176.5970  144.5320 O   0  0  0  0  0  0  0  0  0  0  0  0
  192.8690  176.2030  144.0420 N   0  0  0  0  0  2  0  0  0  0  0  0
  193.1030  176.7930  146.2880 O   0  0  0  0  0  0  0  0  0  0  0  0
  195.8700  176.4500  141.7790 C   0  0  0  0  0  3  0  0  0  0  0  0
  196.2310  176.1740  140.5300 O   0  0  0  0  0  0  0  0  0  0  0  0
  193.8500  175.2040  141.4620 C   0  0  0  0  0  3  0  0  0  0  0  0
  194.6610  175.9740  142.2940 C   0  0  0  0  0  0  0  0  0  0  0  0
  195.4810  175.4420  139.7090 C   0  0  0  0  0  0  0  0  0  0  0  0
  195.8960  175.2260  138.5410 O   0  0  0  0  0  0  0  0  0  0  0  0
  194.2430  174.9220  140.1540 C   0  0  0  0  0  0  0  0  0  0  0  0
  192.7360  172.9580  139.8070 C   0  0  0  0  0  1  0  0  0  0  0  0
  193.3850  174.1420  139.3640 O   0  0  0  0  0  0  0  0  0  0  0  0
  1  4  1  0  0  0  0
  2  8  1  0  0  0  0
  3  5  1  0  0  0  0
  4  8  2  0  0  0  0
  5  1  2  0  0  0  0
  5  6  1  0  0  0  0
  6  2  2  0  0  0  0
  8  7  1  0  0  0  0
  9 12  1  0  0  0  0
 10  9  2  0  0  0  0
 11 13  1  0  0  0  0
 13  1  1  0  0  0  0
 13 12  2  0  0  0  0
 14 11  2  0  0  0  0
 14 10  1  0  0  0  0
 15 14  1  0  0  0  0
 16 15  1  0  0  0  0
 17 20  1  0  0  0  0
 17 19  2  0  0  0  0
 18  6  1  0  0  0  0
 18 21  2  0  0  0  0
 20 18  1  0  0  0  0
 22 25  2  0  0  0  0
 23 22  1  0  0  0  0
 24 25  1  0  0  0  0
 25 17  1  0  0  0  0
 26 28  1  0  0  0  0
 26 23  1  0  0  0  0
 27 26  2  0  0  0  0
 28 24  2  0  0  0  0
 30 29  1  0  0  0  0
 30 28  1  0  0  0  0
M  END
>  <MODEL>
6

>  <REMARK>
 VINA RESULT:      -7.5      2.266      3.888
  Name = 
  5 active torsions:
  status: ('A' for Active; 'I' for Inactive)
    1  A    between atoms: C_1  and  C_19
    2  A    between atoms: C_3  and  C_28
    3  A    between atoms: C_4  and  C_24
    4  A    between atoms: O_6  and  C_29
    5  A    between atoms: O_16  and  C_30
                            x       y       z     vdW  Elec       q    Type
                         _______ _______ _______ _____ _____    ______ ____

>  <TORSDO>
F 5

$$$$
=
 OpenBabel11062419433D

 30 32  0  0  0  0  0  0  0  0999 V2000
  193.2200  173.5240  144.7580 C   0  0  0  0  0  0  0  0  0  0  0  0
  190.4820  173.1910  144.4330 N   0  0  0  0  0  0  0  0  0  0  0  0
  192.7780  175.2510  146.4160 O   0  0  0  0  0  1  0  0  0  0  0  0
  192.7080  172.6030  143.8340 C   0  0  0  0  0  3  0  0  0  0  0  0
  192.3090  174.2970  145.5200 C   0  0  0  0  0  0  0  0  0  0  0  0
  190.9180  174.1040  145.3440 C   0  0  0  0  0  0  0  0  0  0  0  0
  190.8230  171.5110  142.7450 N   0  0  0  0  0  1  0  0  0  0  0  0
  191.3340  172.4500  143.6840 C   0  0  0  0  0  0  0  0  0  0  0  0
  196.8220  172.9180  145.8410 C   0  0  0  0  0  3  0  0  0  0  0  0
  197.4980  173.8840  145.0920 C   0  0  0  0  0  3  0  0  0  0  0  0
  195.3960  174.6090  144.1410 C   0  0  0  0  0  3  0  0  0  0  0  0
  195.4340  172.8000  145.7380 C   0  0  0  0  0  3  0  0  0  0  0  0
  194.7000  173.6480  144.8930 C   0  0  0  0  0  0  0  0  0  0  0  0
  196.7920  174.7340  144.2380 C   0  0  0  0  0  0  0  0  0  0  0  0
  197.4960  175.6890  143.4990 O   0  0  0  0  0  0  0  0  0  0  0  0
  196.9390  176.9470  143.1440 C   0  0  0  0  0  1  0  0  0  0  0  0
  187.8070  176.3240  146.0750 C   0  0  0  0  0  0  0  0  0  0  0  0
  189.8990  174.8630  146.1070 C   0  0  0  0  0  0  0  0  0  0  0  0
  187.7720  176.4290  147.3310 O   0  0  0  0  0  0  0  0  0  0  0  0
  188.8400  175.5600  145.4380 N   0  0  0  0  0  2  0  0  0  0  0  0
  189.9770  174.8960  147.3660 O   0  0  0  0  0  0  0  0  0  0  0  0
  185.4780  177.1600  145.7300 C   0  0  0  0  0  3  0  0  0  0  0  0
  184.5580  177.7620  144.9840 O   0  0  0  0  0  0  0  0  0  0  0  0
  187.0850  177.4710  143.9810 C   0  0  0  0  0  3  0  0  0  0  0  0
  186.7820  176.9900  145.2550 C   0  0  0  0  0  0  0  0  0  0  0  0
  184.8130  178.2320  143.7650 C   0  0  0  0  0  0  0  0  0  0  0  0
  183.8840  178.7900  143.1250 O   0  0  0  0  0  0  0  0  0  0  0  0
  186.1070  178.1000  143.2110 C   0  0  0  0  0  0  0  0  0  0  0  0
  186.3380  177.8140  140.7390 C   0  0  0  0  0  1  0  0  0  0  0  0
  186.4720  178.5630  141.9380 O   0  0  0  0  0  0  0  0  0  0  0  0
  1 13  1  0  0  0  0
  1  5  1  0  0  0  0
  2  6  1  0  0  0  0
  4  1  2  0  0  0  0
  5  3  1  0  0  0  0
  6  5  2  0  0  0  0
  6 18  1  0  0  0  0
  7  8  1  0  0  0  0
  8  4  1  0  0  0  0
  8  2  2  0  0  0  0
 10  9  2  0  0  0  0
 11 14  2  0  0  0  0
 11 13  1  0  0  0  0
 12  9  1  0  0  0  0
 13 12  2  0  0  0  0
 14 10  1  0  0  0  0
 15 14  1  0  0  0  0
 16 15  1  0  0  0  0
 17 19  2  0  0  0  0
 18 21  2  0  0  0  0
 20 17  1  0  0  0  0
 20 18  1  0  0  0  0
 23 22  1  0  0  0  0
 24 25  1  0  0  0  0
 25 22  2  0  0  0  0
 25 17  1  0  0  0  0
 26 23  1  0  0  0  0
 27 26  2  0  0  0  0
 28 26  1  0  0  0  0
 28 24  2  0  0  0  0
 29 30  1  0  0  0  0
 30 28  1  0  0  0  0
M  END
>  <MODEL>
7

>  <REMARK>
 VINA RESULT:      -7.4      2.584      9.468
  Name = 
  5 active torsions:
  status: ('A' for Active; 'I' for Inactive)
    1  A    between atoms: C_1  and  C_19
    2  A    between atoms: C_3  and  C_28
    3  A    between atoms: C_4  and  C_24
    4  A    between atoms: O_6  and  C_29
    5  A    between atoms: O_16  and  C_30
                            x       y       z     vdW  Elec       q    Type
                         _______ _______ _______ _____ _____    ______ ____

>  <TORSDO>
F 5

$$$$
=
 OpenBabel11062419433D

 30 32  0  0  0  0  0  0  0  0999 V2000
  188.4950  177.0000  145.1940 C   0  0  0  0  0  0  0  0  0  0  0  0
  190.4740  175.4750  146.4070 N   0  0  0  0  0  0  0  0  0  0  0  0
  190.2050  178.0740  143.8340 O   0  0  0  0  0  1  0  0  0  0  0  0
  188.1830  176.0830  146.2070 C   0  0  0  0  0  3  0  0  0  0  0  0
  189.8500  177.1450  144.8060 C   0  0  0  0  0  0  0  0  0  0  0  0
  190.8410  176.3520  145.4310 C   0  0  0  0  0  0  0  0  0  0  0  0
  188.8610  174.4000  147.8300 N   0  0  0  0  0  1  0  0  0  0  0  0
  189.1860  175.3290  146.8040 C   0  0  0  0  0  0  0  0  0  0  0  0
  185.5720  179.4000  144.7320 C   0  0  0  0  0  3  0  0  0  0  0  0
  185.3220  179.2650  143.3650 C   0  0  0  0  0  3  0  0  0  0  0  0
  187.1250  177.6620  143.1990 C   0  0  0  0  0  3  0  0  0  0  0  0
  186.5980  178.6640  145.3300 C   0  0  0  0  0  3  0  0  0  0  0  0
  187.3850  177.7800  144.5750 C   0  0  0  0  0  0  0  0  0  0  0  0
  186.0960  178.3980  142.5900 C   0  0  0  0  0  0  0  0  0  0  0  0
  185.8240  178.2870  141.2230 O   0  0  0  0  0  0  0  0  0  0  0  0
  186.6450  177.5380  140.3370 C   0  0  0  0  0  1  0  0  0  0  0  0
  194.5450  175.2740  144.9290 C   0  0  0  0  0  0  0  0  0  0  0  0
  192.2780  176.4350  145.0770 C   0  0  0  0  0  0  0  0  0  0  0  0
  195.1220  176.2990  144.4730 O   0  0  0  0  0  0  0  0  0  0  0  0
  193.1450  175.3040  145.2370 N   0  0  0  0  0  2  0  0  0  0  0  0
  192.7370  177.5230  144.6340 O   0  0  0  0  0  0  0  0  0  0  0  0
  196.6900  174.0770  145.3850 C   0  0  0  0  0  3  0  0  0  0  0  0
  197.3770  172.9570  145.5810 O   0  0  0  0  0  0  0  0  0  0  0  0
  194.6860  172.7920  145.1230 C   0  0  0  0  0  3  0  0  0  0  0  0
  195.3140  174.0370  145.1470 C   0  0  0  0  0  0  0  0  0  0  0  0
  196.8110  171.7520  145.5640 C   0  0  0  0  0  0  0  0  0  0  0  0
  197.5340  170.7410  145.7590 O   0  0  0  0  0  0  0  0  0  0  0  0
  195.4220  171.6250  145.3310 C   0  0  0  0  0  0  0  0  0  0  0  0
  193.4860  170.1970  144.6520 C   0  0  0  0  0  1  0  0  0  0  0  0
  194.7350  170.4020  145.2950 O   0  0  0  0  0  0  0  0  0  0  0  0
  1  4  1  0  0  0  0
  2  8  1  0  0  0  0
  3  5  1  0  0  0  0
  4  8  2  0  0  0  0
  5  1  2  0  0  0  0
  5  6  1  0  0  0  0
  6  2  2  0  0  0  0
  8  7  1  0  0  0  0
  9 12  1  0  0  0  0
 10  9  2  0  0  0  0
 11 13  1  0  0  0  0
 13  1  1  0  0  0  0
 13 12  2  0  0  0  0
 14 11  2  0  0  0  0
 14 10  1  0  0  0  0
 15 14  1  0  0  0  0
 16 15  1  0  0  0  0
 17 25  1  0  0  0  0
 17 20  1  0  0  0  0
 18 20  1  0  0  0  0
 18  6  1  0  0  0  0
 19 17  2  0  0  0  0
 21 18  2  0  0  0  0
 22 23  1  0  0  0  0
 24 25  1  0  0  0  0
 24 28  2  0  0  0  0
 25 22  2  0  0  0  0
 26 23  1  0  0  0  0
 26 27  2  0  0  0  0
 28 26  1  0  0  0  0
 29 30  1  0  0  0  0
 30 28  1  0  0  0  0
M  END
>  <MODEL>
8

>  <REMARK>
 VINA RESULT:      -7.4      3.035      4.213
  Name = 
  5 active torsions:
  status: ('A' for Active; 'I' for Inactive)
    1  A    between atoms: C_1  and  C_19
    2  A    between atoms: C_3  and  C_28
    3  A    between atoms: C_4  and  C_24
    4  A    between atoms: O_6  and  C_29
    5  A    between atoms: O_16  and  C_30
                            x       y       z     vdW  Elec       q    Type
                         _______ _______ _______ _____ _____    ______ ____

>  <TORSDO>
F 5

$$$$
=
 OpenBabel11062419433D

 30 32  0  0  0  0  0  0  0  0999 V2000
  194.2930  174.0190  145.3150 C   0  0  0  0  0  0  0  0  0  0  0  0
  192.9790  176.4560  145.1050 N   0  0  0  0  0  0  0  0  0  0  0  0
  192.5890  173.0170  143.8930 O   0  0  0  0  0  1  0  0  0  0  0  0
  194.7680  175.1560  145.9820 C   0  0  0  0  0  3  0  0  0  0  0  0
  193.1150  174.1330  144.5360 C   0  0  0  0  0  0  0  0  0  0  0  0
  192.4660  175.3860  144.4370 C   0  0  0  0  0  0  0  0  0  0  0  0
  194.5870  177.5180  146.5460 N   0  0  0  0  0  1  0  0  0  0  0  0
  194.0970  176.3680  145.8670 C   0  0  0  0  0  0  0  0  0  0  0  0
  197.1440  171.4950  145.4650 C   0  0  0  0  0  3  0  0  0  0  0  0
  196.4530  170.3220  145.7760 C   0  0  0  0  0  3  0  0  0  0  0  0
  194.3720  171.5540  145.7780 C   0  0  0  0  0  3  0  0  0  0  0  0
  196.4460  172.6960  145.3110 C   0  0  0  0  0  3  0  0  0  0  0  0
  195.0500  172.7420  145.4590 C   0  0  0  0  0  0  0  0  0  0  0  0
  195.0650  170.3430  145.9350 C   0  0  0  0  0  0  0  0  0  0  0  0
  194.4020  169.1530  146.2490 O   0  0  0  0  0  0  0  0  0  0  0  0
  194.5340  168.5110  147.5100 C   0  0  0  0  0  1  0  0  0  0  0  0
  188.7570  176.1950  143.5840 C   0  0  0  0  0  0  0  0  0  0  0  0
  191.2360  175.5930  143.6360 C   0  0  0  0  0  0  0  0  0  0  0  0
  188.6760  176.0640  142.3330 O   0  0  0  0  0  0  0  0  0  0  0  0
  190.0020  175.9720  144.2600 N   0  0  0  0  0  2  0  0  0  0  0  0
  191.2840  175.4250  142.3870 O   0  0  0  0  0  0  0  0  0  0  0  0
  187.4920  176.3370  145.7340 C   0  0  0  0  0  3  0  0  0  0  0  0
  186.4130  176.6870  146.4270 O   0  0  0  0  0  0  0  0  0  0  0  0
  186.4790  177.1980  143.7410 C   0  0  0  0  0  3  0  0  0  0  0  0
  187.5650  176.5800  144.3590 C   0  0  0  0  0  0  0  0  0  0  0  0
  185.3590  177.2780  145.8690 C   0  0  0  0  0  0  0  0  0  0  0  0
  184.3770  177.5770  146.5970 O   0  0  0  0  0  0  0  0  0  0  0  0
  185.3540  177.5590  144.4830 C   0  0  0  0  0  0  0  0  0  0  0  0
  184.1100  178.1520  142.3980 C   0  0  0  0  0  1  0  0  0  0  0  0
  184.2930  178.1780  143.8060 O   0  0  0  0  0  0  0  0  0  0  0  0
  1 13  1  0  0  0  0
  1  4  1  0  0  0  0
  2  8  1  0  0  0  0
  3  5  1  0  0  0  0
  5  1  2  0  0  0  0
  6  5  1  0  0  0  0
  6  2  2  0  0  0  0
  8  4  2  0  0  0  0
  8  7  1  0  0  0  0
  9 10  1  0  0  0  0
 10 14  2  0  0  0  0
 11 14  1  0  0  0  0
 12 13  1  0  0  0  0
 12  9  2  0  0  0  0
 13 11  2  0  0  0  0
 14 15  1  0  0  0  0
 15 16  1  0  0  0  0
 17 20  1  0  0  0  0
 17 25  1  0  0  0  0
 18 20  1  0  0  0  0
 18  6  1  0  0  0  0
 19 17  2  0  0  0  0
 21 18  2  0  0  0  0
 22 23  1  0  0  0  0
 24 25  1  0  0  0  0
 24 28  2  0  0  0  0
 25 22  2  0  0  0  0
 26 23  1  0  0  0  0
 26 27  2  0  0  0  0
 28 26  1  0  0  0  0
 29 30  1  0  0  0  0
 30 28  1  0  0  0  0
M  END
>  <MODEL>
9

>  <REMARK>
 VINA RESULT:      -7.4      3.580      9.877
  Name = 
  5 active torsions:
  status: ('A' for Active; 'I' for Inactive)
    1  A    between atoms: C_1  and  C_19
    2  A    between atoms: C_3  and  C_28
    3  A    between atoms: C_4  and  C_24
    4  A    between atoms: O_6  and  C_29
    5  A    between atoms: O_16  and  C_30
                            x       y       z     vdW  Elec       q    Type
                         _______ _______ _______ _____ _____    ______ ____

>  <TORSDO>
F 5

$$$$
