=
 OpenBabel11062421253D

 31 38  0  0  1  0  0  0  0  0999 V2000
  186.9660  176.7530  145.7180 C   0  0  1  0  0  3  0  0  0  0  0  0
  186.8450  178.0980  143.8070 C   0  0  2  0  0  3  0  0  0  0  0  0
  190.5490  173.9160  144.8480 C   0  0  2  0  0  3  0  0  0  0  0  0
  188.3210  176.6920  145.1760 C   0  0  1  0  0  0  0  0  0  0  0  0
  192.3690  175.5760  144.7300 N   0  0  2  0  0  0  0  0  0  0  0  0
  191.2410  176.2290  145.4250 C   0  0  2  0  0  3  0  0  0  0  0  0
  193.4410  172.8660  142.7770 C   0  0  0  0  0  1  0  0  0  0  0  0
  192.5870  176.1550  143.5110 O   0  0  0  0  0  0  0  0  0  0  0  0
  190.2880  175.1030  145.7560 C   0  0  1  0  0  0  0  0  0  0  0  0
  186.5790  178.1650  146.0950 C   0  0  1  0  0  3  0  0  0  0  0  0
  192.0310  174.1810  144.4520 C   0  0  2  0  0  0  0  0  0  0  0  0
  192.4860  174.0350  142.9940 C   0  0  0  0  0  0  0  0  0  0  0  0
  187.1580  176.7350  144.2530 N   0  0  1  0  0  0  0  0  0  0  0  0
  186.1760  178.8360  144.8730 N   0  0  0  0  0  2  0  0  0  0  0  0
  191.3870  173.9020  141.9470 C   0  0  0  0  0  1  0  0  0  0  0  0
  190.1870  176.7750  144.4280 C   0  0  2  0  0  3  0  0  0  0  0  0
  189.2580  177.7910  144.9740 N   0  0  0  0  0  2  0  0  0  0  0  0
  189.2680  175.6100  144.8030 C   0  0  2  0  0  0  0  0  0  0  0  0
  189.8490  174.8640  147.1920 C   0  0  0  0  0  1  0  0  0  0  0  0
  193.1840  175.2280  142.7620 O   0  0  0  0  0  0  0  0  0  0  0  0
  189.4180  174.4230  143.8940 C   0  0  0  0  0  2  0  0  0  0  0  0
  192.8190  173.3840  145.2930 O   0  0  0  0  0  1  0  0  0  0  0  0
  185.9960  178.0530  142.5760 C   0  0  0  0  0  0  0  0  0  0  0  0
  185.7620  177.8600  140.1660 C   0  0  0  0  0  3  0  0  0  0  0  0
  186.5690  177.8610  141.3100 C   0  0  0  0  0  3  0  0  0  0  0  0
  184.3830  178.0520  140.2850 C   0  0  0  0  0  3  0  0  0  0  0  0
  183.8100  178.2510  141.5450 C   0  0  0  0  0  3  0  0  0  0  0  0
  184.6160  178.2540  142.6890 C   0  0  0  0  0  3  0  0  0  0  0  0
  185.7010  178.0470  148.3220 O   0  0  0  0  0  0  0  0  0  0  0  0
  184.1230  178.3320  146.6370 N   0  0  0  0  0  1  0  0  0  0  0  0
  185.4650  178.1600  147.0880 C   0  0  0  0  0  0  0  0  0  0  0  0
  1 10  1  0  0  0  0
  2 13  1  0  0  0  0
  2 14  1  0  0  0  0
  3  9  1  0  0  0  0
  4  1  1  0  0  0  0
  5  6  1  0  0  0  0
  6  9  1  0  0  0  0
  7 12  1  0  0  0  0
  8  5  1  0  0  0  0
  9 19  1  0  0  0  0
 10 31  1  0  0  0  0
 11  5  1  0  0  0  0
 11  3  1  0  0  0  0
 11 22  1  0  0  0  0
 12 11  1  0  0  0  0
 13  4  1  0  0  0  0
 13  1  1  0  0  0  0
 14 10  1  0  0  0  0
 15 12  1  0  0  0  0
 16 18  1  0  0  0  0
 16 17  1  0  0  0  0
 16  6  1  0  0  0  0
 17  4  1  0  0  0  0
 18  4  1  0  0  0  0
 18  9  1  0  0  0  0
 20 12  1  0  0  0  0
 20  8  1  0  0  0  0
 21 18  1  0  0  0  0
 21  3  1  0  0  0  0
 23 28  1  0  0  0  0
 23  2  1  0  0  0  0
 24 26  2  0  0  0  0
 24 25  1  0  0  0  0
 25 23  2  0  0  0  0
 26 27  1  0  0  0  0
 27 28  2  0  0  0  0
 30 31  1  0  0  0  0
 31 29  2  0  0  0  0
M  END
>  <MODEL>
1

>  <REMARK>
 VINA RESULT:      -8.8      0.000      0.000
  Name = 
  2 active torsions:
  status: ('A' for Active; 'I' for Inactive)
    1  A    between atoms: C_1  and  C_3
    2  A    between atoms: C_15  and  C_29
                            x       y       z     vdW  Elec       q    Type
                         _______ _______ _______ _____ _____    ______ ____

>  <TORSDO>
F 2

$$$$
=
 OpenBabel11062421253D

 31 38  0  0  1  0  0  0  0  0999 V2000
  189.8040  175.2880  145.3250 C   0  0  1  0  0  3  0  0  0  0  0  0
  189.0670  177.1940  144.1870 C   0  0  2  0  0  3  0  0  0  0  0  0
  189.7560  171.9660  142.0680 C   0  0  2  0  0  3  0  0  0  0  0  0
  190.1270  174.9940  143.9320 C   0  0  1  0  0  0  0  0  0  0  0  0
  191.4540  172.8760  140.5280 N   0  0  2  0  0  0  0  0  0  0  0  0
  191.6430  173.5600  141.8240 C   0  0  2  0  0  3  0  0  0  0  0  0
  189.3690  170.8650  138.5480 C   0  0  0  0  0  1  0  0  0  0  0  0
  191.0080  173.7530  139.5790 O   0  0  0  0  0  0  0  0  0  0  0  0
  190.8170  172.7610  142.8060 C   0  0  1  0  0  0  0  0  0  0  0  0
  190.5380  176.5120  145.8230 C   0  0  1  0  0  3  0  0  0  0  0  0
  190.4060  171.8640  140.6570 C   0  0  2  0  0  0  0  0  0  0  0  0
  189.5710  172.1170  139.3950 C   0  0  0  0  0  0  0  0  0  0  0  0
  188.8850  175.7390  144.2610 N   0  0  1  0  0  0  0  0  0  0  0  0
  189.8020  177.6700  145.3540 N   0  0  0  0  0  2  0  0  0  0  0  0
  188.1930  172.7330  139.6010 C   0  0  0  0  0  1  0  0  0  0  0  0
  190.6520  174.7370  142.0070 C   0  0  2  0  0  3  0  0  0  0  0  0
  191.0220  175.7280  143.0430 N   0  0  0  0  0  2  0  0  0  0  0  0
  189.8550  173.8770  142.9900 C   0  0  2  0  0  0  0  0  0  0  0  0
  191.4590  172.1740  144.0530 C   0  0  0  0  0  1  0  0  0  0  0  0
  190.3620  173.0200  138.6710 O   0  0  0  0  0  0  0  0  0  0  0  0
  188.7330  173.1180  142.3390 C   0  0  0  0  0  2  0  0  0  0  0  0
  191.0260  170.6090  140.5910 O   0  0  0  0  0  1  0  0  0  0  0  0
  187.7380  177.8720  144.0800 C   0  0  0  0  0  0  0  0  0  0  0  0
  186.0080  178.9550  142.7630 C   0  0  0  0  0  3  0  0  0  0  0  0
  187.2370  178.2880  142.8370 C   0  0  0  0  0  3  0  0  0  0  0  0
  185.2810  179.2100  143.9280 C   0  0  0  0  0  3  0  0  0  0  0  0
  185.7810  178.8030  145.1690 C   0  0  0  0  0  3  0  0  0  0  0  0
  187.0100  178.1380  145.2450 C   0  0  0  0  0  3  0  0  0  0  0  0
  190.3980  177.5560  147.9750 O   0  0  0  0  0  0  0  0  0  0  0  0
  190.9240  175.2910  147.9930 N   0  0  0  0  0  1  0  0  0  0  0  0
  190.6250  176.5070  147.3130 C   0  0  0  0  0  0  0  0  0  0  0  0
  1 10  1  0  0  0  0
  2 13  1  0  0  0  0
  2 14  1  0  0  0  0
  3 21  1  0  0  0  0
  3  9  1  0  0  0  0
  4 13  1  0  0  0  0
  4  1  1  0  0  0  0
  5 11  1  0  0  0  0
  5  6  1  0  0  0  0
  6 16  1  0  0  0  0
  6  9  1  0  0  0  0
  7 12  1  0  0  0  0
  8  5  1  0  0  0  0
  9 18  1  0  0  0  0
  9 19  1  0  0  0  0
 10 31  1  0  0  0  0
 11  3  1  0  0  0  0
 12 15  1  0  0  0  0
 12 11  1  0  0  0  0
 13  1  1  0  0  0  0
 14 10  1  0  0  0  0
 16 18  1  0  0  0  0
 16 17  1  0  0  0  0
 17  4  1  0  0  0  0
 18  4  1  0  0  0  0
 20 12  1  0  0  0  0
 20  8  1  0  0  0  0
 21 18  1  0  0  0  0
 22 11  1  0  0  0  0
 23  2  1  0  0  0  0
 23 28  1  0  0  0  0
 24 25  1  0  0  0  0
 24 26  2  0  0  0  0
 25 23  2  0  0  0  0
 26 27  1  0  0  0  0
 27 28  2  0  0  0  0
 31 29  2  0  0  0  0
 31 30  1  0  0  0  0
M  END
>  <MODEL>
2

>  <REMARK>
 VINA RESULT:      -7.9      2.812      4.196
  Name = 
  2 active torsions:
  status: ('A' for Active; 'I' for Inactive)
    1  A    between atoms: C_1  and  C_3
    2  A    between atoms: C_15  and  C_29
                            x       y       z     vdW  Elec       q    Type
                         _______ _______ _______ _____ _____    ______ ____

>  <TORSDO>
F 2

$$$$
=
 OpenBabel11062421253D

 31 38  0  0  1  0  0  0  0  0999 V2000
  186.5210  176.7550  143.4150 C   0  0  1  0  0  3  0  0  0  0  0  0
  187.4150  177.1720  141.2940 C   0  0  2  0  0  3  0  0  0  0  0  0
  190.0290  174.7430  145.7170 C   0  0  2  0  0  3  0  0  0  0  0  0
  187.9600  176.8090  143.6610 C   0  0  1  0  0  0  0  0  0  0  0  0
  191.6470  176.6040  145.7100 N   0  0  2  0  0  0  0  0  0  0  0  0
  190.3230  177.1890  145.4140 C   0  0  2  0  0  3  0  0  0  0  0  0
  193.5740  173.6830  145.9680 C   0  0  0  0  0  1  0  0  0  0  0  0
  192.4680  176.6920  144.6210 O   0  0  0  0  0  0  0  0  0  0  0  0
  189.3350  176.0920  145.7400 C   0  0  1  0  0  0  0  0  0  0  0  0
  185.9970  178.0650  142.8740 C   0  0  1  0  0  3  0  0  0  0  0  0
  191.5000  175.1750  145.9820 C   0  0  2  0  0  0  0  0  0  0  0  0
  192.6470  174.5810  145.1530 C   0  0  0  0  0  0  0  0  0  0  0  0
  187.4470  176.2090  142.4020 N   0  0  1  0  0  0  0  0  0  0  0  0
  186.2900  178.0870  141.4540 N   0  0  0  0  0  2  0  0  0  0  0  0
  192.2540  173.7920  143.9120 C   0  0  0  0  0  1  0  0  0  0  0  0
  189.9430  177.0330  143.9200 C   0  0  2  0  0  3  0  0  0  0  0  0
  188.8670  177.9300  143.4370 N   0  0  0  0  0  2  0  0  0  0  0  0
  188.9610  175.9260  144.3120 C   0  0  2  0  0  0  0  0  0  0  0  0
  188.2120  176.3380  146.7350 C   0  0  0  0  0  1  0  0  0  0  0  0
  193.3670  175.7160  144.7540 O   0  0  0  0  0  0  0  0  0  0  0  0
  189.5600  174.5500  144.2360 C   0  0  0  0  0  2  0  0  0  0  0  0
  191.7340  174.9830  147.3500 O   0  0  0  0  0  1  0  0  0  0  0  0
  187.3310  176.4480  139.9880 C   0  0  0  0  0  0  0  0  0  0  0  0
  187.9520  174.5950  138.5450 C   0  0  0  0  0  3  0  0  0  0  0  0
  188.0130  175.2380  139.7870 C   0  0  0  0  0  3  0  0  0  0  0  0
  187.2140  175.1600  137.5020 C   0  0  0  0  0  3  0  0  0  0  0  0
  186.5390  176.3690  137.6970 C   0  0  0  0  0  3  0  0  0  0  0  0
  186.6010  177.0140  138.9370 C   0  0  0  0  0  3  0  0  0  0  0  0
  183.7010  177.8870  142.2100 O   0  0  0  0  0  0  0  0  0  0  0  0
  184.0600  178.6020  144.3940 N   0  0  0  0  0  1  0  0  0  0  0  0
  184.5290  178.1860  143.1140 C   0  0  0  0  0  0  0  0  0  0  0  0
  1  4  1  0  0  0  0
  2 14  1  0  0  0  0
  2 13  1  0  0  0  0
  3  9  1  0  0  0  0
  3 11  1  0  0  0  0
  4 18  1  0  0  0  0
  5 11  1  0  0  0  0
  6  5  1  0  0  0  0
  6  9  1  0  0  0  0
  8 20  1  0  0  0  0
  8  5  1  0  0  0  0
  9 19  1  0  0  0  0
 10 31  1  0  0  0  0
 10  1  1  0  0  0  0
 11 22  1  0  0  0  0
 12  7  1  0  0  0  0
 12 11  1  0  0  0  0
 13  1  1  0  0  0  0
 13  4  1  0  0  0  0
 14 10  1  0  0  0  0
 15 12  1  0  0  0  0
 16 18  1  0  0  0  0
 16  6  1  0  0  0  0
 17  4  1  0  0  0  0
 17 16  1  0  0  0  0
 18  9  1  0  0  0  0
 20 12  1  0  0  0  0
 21 18  1  0  0  0  0
 21  3  1  0  0  0  0
 23  2  1  0  0  0  0
 24 25  2  0  0  0  0
 25 23  1  0  0  0  0
 26 27  2  0  0  0  0
 26 24  1  0  0  0  0
 27 28  1  0  0  0  0
 28 23  2  0  0  0  0
 29 31  2  0  0  0  0
 31 30  1  0  0  0  0
M  END
>  <MODEL>
3

>  <REMARK>
 VINA RESULT:      -7.7      2.266      2.949
  Name = 
  2 active torsions:
  status: ('A' for Active; 'I' for Inactive)
    1  A    between atoms: C_1  and  C_3
    2  A    between atoms: C_15  and  C_29
                            x       y       z     vdW  Elec       q    Type
                         _______ _______ _______ _____ _____    ______ ____

>  <TORSDO>
F 2

$$$$
=
 OpenBabel11062421253D

 31 38  0  0  1  0  0  0  0  0999 V2000
  187.6080  175.9790  144.5670 C   0  0  1  0  0  3  0  0  0  0  0  0
  187.0430  177.4570  142.8460 C   0  0  2  0  0  3  0  0  0  0  0  0
  189.3160  172.2740  142.3290 C   0  0  2  0  0  3  0  0  0  0  0  0
  188.4680  175.5560  143.4650 C   0  0  1  0  0  0  0  0  0  0  0  0
  191.2890  173.3070  141.2700 N   0  0  2  0  0  0  0  0  0  0  0  0
  190.8700  174.2090  142.3620 C   0  0  2  0  0  3  0  0  0  0  0  0
  190.4460  170.5810  139.2290 C   0  0  0  0  0  1  0  0  0  0  0  0
  191.0880  173.8970  140.0530 O   0  0  0  0  0  0  0  0  0  0  0  0
  189.8820  173.4010  143.1730 C   0  0  1  0  0  0  0  0  0  0  0  0
  187.8950  177.4020  144.9850 C   0  0  1  0  0  3  0  0  0  0  0  0
  190.4490  172.1110  141.2740 C   0  0  2  0  0  0  0  0  0  0  0  0
  190.1110  171.9610  139.7850 C   0  0  0  0  0  0  0  0  0  0  0  0
  187.0880  176.0300  143.1860 N   0  0  1  0  0  0  0  0  0  0  0  0
  187.2040  178.2680  144.0480 N   0  0  0  0  0  2  0  0  0  0  0  0
  188.6740  172.2600  139.3780 C   0  0  0  0  0  1  0  0  0  0  0  0
  189.7030  175.1340  141.9340 C   0  0  2  0  0  3  0  0  0  0  0  0
  189.4940  176.3320  142.7780 N   0  0  0  0  0  2  0  0  0  0  0  0
  188.7510  174.2740  142.7690 C   0  0  2  0  0  0  0  0  0  0  0  0
  190.1040  173.1820  144.6600 C   0  0  0  0  0  1  0  0  0  0  0  0
  190.9540  172.9010  139.1760 O   0  0  0  0  0  0  0  0  0  0  0  0
  188.0910  173.1820  141.9760 C   0  0  0  0  0  2  0  0  0  0  0  0
  191.2460  171.0420  141.7060 O   0  0  0  0  0  1  0  0  0  0  0  0
  185.7560  177.7790  142.1540 C   0  0  0  0  0  0  0  0  0  0  0  0
  184.5000  178.2910  140.1390 C   0  0  0  0  0  3  0  0  0  0  0  0
  185.7070  177.9530  140.7630 C   0  0  0  0  0  3  0  0  0  0  0  0
  183.3420  178.4590  140.9040 C   0  0  0  0  0  3  0  0  0  0  0  0
  183.3900  178.2930  142.2910 C   0  0  0  0  0  3  0  0  0  0  0  0
  184.5960  177.9570  142.9160 C   0  0  0  0  0  3  0  0  0  0  0  0
  188.2430  177.9160  147.3000 O   0  0  0  0  0  0  0  0  0  0  0  0
  186.0260  177.6290  146.6600 N   0  0  0  0  0  1  0  0  0  0  0  0
  187.4230  177.6500  146.3790 C   0  0  0  0  0  0  0  0  0  0  0  0
  1 10  1  0  0  0  0
  2 13  1  0  0  0  0
  2 14  1  0  0  0  0
  3  9  1  0  0  0  0
  4  1  1  0  0  0  0
  5 11  1  0  0  0  0
  5  6  1  0  0  0  0
  6  9  1  0  0  0  0
  7 12  1  0  0  0  0
  8  5  1  0  0  0  0
  9 19  1  0  0  0  0
 10 31  1  0  0  0  0
 11 22  1  0  0  0  0
 11  3  1  0  0  0  0
 12 11  1  0  0  0  0
 13  4  1  0  0  0  0
 13  1  1  0  0  0  0
 14 10  1  0  0  0  0
 15 12  1  0  0  0  0
 16  6  1  0  0  0  0
 16 18  1  0  0  0  0
 16 17  1  0  0  0  0
 17  4  1  0  0  0  0
 18  9  1  0  0  0  0
 18  4  1  0  0  0  0
 20 12  1  0  0  0  0
 20  8  1  0  0  0  0
 21  3  1  0  0  0  0
 21 18  1  0  0  0  0
 23  2  1  0  0  0  0
 23 28  1  0  0  0  0
 24 25  1  0  0  0  0
 24 26  2  0  0  0  0
 25 23  2  0  0  0  0
 26 27  1  0  0  0  0
 27 28  2  0  0  0  0
 31 30  1  0  0  0  0
 31 29  2  0  0  0  0
M  END
>  <MODEL>
4

>  <REMARK>
 VINA RESULT:      -7.5      2.418      2.961
  Name = 
  2 active torsions:
  status: ('A' for Active; 'I' for Inactive)
    1  A    between atoms: C_1  and  C_3
    2  A    between atoms: C_15  and  C_29
                            x       y       z     vdW  Elec       q    Type
                         _______ _______ _______ _____ _____    ______ ____

>  <TORSDO>
F 2

$$$$
=
 OpenBabel11062421253D

 31 38  0  0  1  0  0  0  0  0999 V2000
  188.8820  176.7170  142.1390 C   0  0  1  0  0  3  0  0  0  0  0  0
  187.6040  176.3790  144.0690 C   0  0  2  0  0  3  0  0  0  0  0  0
  193.2270  175.7740  143.5100 C   0  0  2  0  0  3  0  0  0  0  0  0
  189.7000  175.8000  142.9280 C   0  0  1  0  0  0  0  0  0  0  0  0
  192.9700  173.3890  144.0820 N   0  0  2  0  0  0  0  0  0  0  0  0
  191.8220  173.7480  143.2240 C   0  0  2  0  0  3  0  0  0  0  0  0
  195.6480  174.5410  146.0340 C   0  0  0  0  0  1  0  0  0  0  0  0
  192.5530  173.1090  145.3540 O   0  0  0  0  0  0  0  0  0  0  0  0
  192.1810  175.0980  142.6440 C   0  0  1  0  0  0  0  0  0  0  0  0
  187.5460  176.1070  141.7820 C   0  0  1  0  0  3  0  0  0  0  0  0
  193.8680  174.5360  144.2020 C   0  0  2  0  0  0  0  0  0  0  0  0
  194.1570  174.5490  145.7090 C   0  0  0  0  0  0  0  0  0  0  0  0
  188.9120  176.8600  143.6080 N   0  0  1  0  0  0  0  0  0  0  0  0
  186.6860  176.2570  142.9410 N   0  0  0  0  0  2  0  0  0  0  0  0
  193.5410  175.6870  146.5120 C   0  0  0  0  0  1  0  0  0  0  0  0
  190.6920  174.4380  144.0280 C   0  0  2  0  0  3  0  0  0  0  0  0
  189.3620  174.4530  143.3770 N   0  0  0  0  0  2  0  0  0  0  0  0
  191.1050  175.7760  143.4110 C   0  0  2  0  0  0  0  0  0  0  0  0
  192.2090  175.3060  141.1390 C   0  0  0  0  0  1  0  0  0  0  0  0
  193.6010  173.3390  146.1460 O   0  0  0  0  0  0  0  0  0  0  0  0
  192.0840  176.5400  144.2560 C   0  0  0  0  0  2  0  0  0  0  0  0
  195.0320  174.2340  143.4830 O   0  0  0  0  0  1  0  0  0  0  0  0
  187.0530  177.3050  145.1060 C   0  0  0  0  0  0  0  0  0  0  0  0
  186.6920  177.9150  147.4300 C   0  0  0  0  0  3  0  0  0  0  0  0
  187.2470  177.0560  146.4740 C   0  0  0  0  0  3  0  0  0  0  0  0
  185.9400  179.0200  147.0230 C   0  0  0  0  0  3  0  0  0  0  0  0
  185.7390  179.2660  145.6610 C   0  0  0  0  0  3  0  0  0  0  0  0
  186.2920  178.4080  144.7040 C   0  0  0  0  0  3  0  0  0  0  0  0
  187.1090  176.3130  139.4350 O   0  0  0  0  0  0  0  0  0  0  0  0
  186.1680  177.9620  140.7780 N   0  0  0  0  0  1  0  0  0  0  0  0
  186.9540  176.7880  140.5930 C   0  0  0  0  0  0  0  0  0  0  0  0
  1  4  1  0  0  0  0
  1 13  1  0  0  0  0
  2 23  1  0  0  0  0
  3 11  1  0  0  0  0
  3 21  1  0  0  0  0
  4 17  1  0  0  0  0
  4 18  1  0  0  0  0
  4 13  1  0  0  0  0
  5 11  1  0  0  0  0
  5  8  1  0  0  0  0
  6 16  1  0  0  0  0
  6  5  1  0  0  0  0
  8 20  1  0  0  0  0
  9  6  1  0  0  0  0
  9 18  1  0  0  0  0
  9  3  1  0  0  0  0
 10  1  1  0  0  0  0
 10 14  1  0  0  0  0
 11 12  1  0  0  0  0
 12  7  1  0  0  0  0
 12 20  1  0  0  0  0
 12 15  1  0  0  0  0
 13  2  1  0  0  0  0
 14  2  1  0  0  0  0
 17 16  1  0  0  0  0
 18 16  1  0  0  0  0
 18 21  1  0  0  0  0
 19  9  1  0  0  0  0
 22 11  1  0  0  0  0
 23 25  1  0  0  0  0
 25 24  2  0  0  0  0
 26 24  1  0  0  0  0
 27 26  2  0  0  0  0
 28 23  2  0  0  0  0
 28 27  1  0  0  0  0
 29 31  2  0  0  0  0
 31 30  1  0  0  0  0
 31 10  1  0  0  0  0
M  END
>  <MODEL>
5

>  <REMARK>
 VINA RESULT:      -7.4      2.653      4.475
  Name = 
  2 active torsions:
  status: ('A' for Active; 'I' for Inactive)
    1  A    between atoms: C_1  and  C_3
    2  A    between atoms: C_15  and  C_29
                            x       y       z     vdW  Elec       q    Type
                         _______ _______ _______ _____ _____    ______ ____

>  <TORSDO>
F 2

$$$$
=
 OpenBabel11062421253D

 31 38  0  0  1  0  0  0  0  0999 V2000
  190.1790  175.0310  145.4810 C   0  0  1  0  0  3  0  0  0  0  0  0
  188.9550  176.8480  144.6620 C   0  0  2  0  0  3  0  0  0  0  0  0
  190.1780  172.0110  141.9410 C   0  0  2  0  0  3  0  0  0  0  0  0
  190.3210  174.9060  144.0320 C   0  0  1  0  0  0  0  0  0  0  0  0
  191.4270  173.3310  140.2740 N   0  0  2  0  0  0  0  0  0  0  0  0
  191.7020  173.9390  141.5920 C   0  0  2  0  0  3  0  0  0  0  0  0
  189.4270  171.1250  138.4190 C   0  0  0  0  0  1  0  0  0  0  0  0
  190.6920  174.1800  139.4940 O   0  0  0  0  0  0  0  0  0  0  0  0
  191.1920  172.9300  142.5960 C   0  0  1  0  0  0  0  0  0  0  0  0
  190.7640  176.3280  145.9900 C   0  0  1  0  0  3  0  0  0  0  0  0
  190.6020  172.1370  140.4490 C   0  0  2  0  0  0  0  0  0  0  0  0
  189.5440  172.3260  139.3530 C   0  0  0  0  0  0  0  0  0  0  0  0
  189.0380  175.3840  144.6120 N   0  0  1  0  0  0  0  0  0  0  0  0
  189.7750  177.3630  145.7540 N   0  0  0  0  0  2  0  0  0  0  0  0
  188.1330  172.6600  139.8160 C   0  0  0  0  0  1  0  0  0  0  0  0
  190.5670  174.8960  142.0360 C   0  0  2  0  0  3  0  0  0  0  0  0
  190.9230  175.8570  143.1040 N   0  0  0  0  0  2  0  0  0  0  0  0
  190.0960  173.8330  143.0310 C   0  0  2  0  0  0  0  0  0  0  0  0
  192.1150  172.3790  143.6710 C   0  0  0  0  0  1  0  0  0  0  0  0
  190.0440  173.4110  138.6190 O   0  0  0  0  0  0  0  0  0  0  0  0
  189.0300  172.9320  142.4730 C   0  0  0  0  0  2  0  0  0  0  0  0
  191.4070  171.0260  140.1660 O   0  0  0  0  0  1  0  0  0  0  0  0
  187.5310  177.2770  144.8170 C   0  0  0  0  0  0  0  0  0  0  0  0
  185.4020  177.1830  145.9820 C   0  0  0  0  0  3  0  0  0  0  0  0
  186.7440  176.7990  145.8760 C   0  0  0  0  0  3  0  0  0  0  0  0
  184.8430  178.0400  145.0310 C   0  0  0  0  0  3  0  0  0  0  0  0
  185.6230  178.5120  143.9700 C   0  0  0  0  0  3  0  0  0  0  0  0
  186.9640  178.1280  143.8620 C   0  0  0  0  0  3  0  0  0  0  0  0
  191.6290  177.1910  148.0520 O   0  0  0  0  0  0  0  0  0  0  0  0
  190.7370  175.0460  148.1590 N   0  0  0  0  0  1  0  0  0  0  0  0
  191.0870  176.2280  147.4440 C   0  0  0  0  0  0  0  0  0  0  0  0
  1 10  1  0  0  0  0
  2 23  1  0  0  0  0
  2 14  1  0  0  0  0
  3 21  1  0  0  0  0
  3  9  1  0  0  0  0
  4 13  1  0  0  0  0
  4  1  1  0  0  0  0
  5 11  1  0  0  0  0
  5  6  1  0  0  0  0
  6 16  1  0  0  0  0
  6  9  1  0  0  0  0
  7 12  1  0  0  0  0
  8  5  1  0  0  0  0
  9 18  1  0  0  0  0
  9 19  1  0  0  0  0
 10 31  1  0  0  0  0
 11  3  1  0  0  0  0
 12 15  1  0  0  0  0
 12 11  1  0  0  0  0
 13  2  1  0  0  0  0
 13  1  1  0  0  0  0
 14 10  1  0  0  0  0
 16 18  1  0  0  0  0
 16 17  1  0  0  0  0
 17  4  1  0  0  0  0
 18  4  1  0  0  0  0
 20 12  1  0  0  0  0
 20  8  1  0  0  0  0
 21 18  1  0  0  0  0
 22 11  1  0  0  0  0
 23 25  1  0  0  0  0
 25 24  2  0  0  0  0
 26 24  1  0  0  0  0
 27 26  2  0  0  0  0
 28 27  1  0  0  0  0
 28 23  2  0  0  0  0
 31 29  2  0  0  0  0
 31 30  1  0  0  0  0
M  END
>  <MODEL>
6

>  <REMARK>
 VINA RESULT:      -7.3      2.793      4.473
  Name = 
  2 active torsions:
  status: ('A' for Active; 'I' for Inactive)
    1  A    between atoms: C_1  and  C_3
    2  A    between atoms: C_15  and  C_29
                            x       y       z     vdW  Elec       q    Type
                         _______ _______ _______ _____ _____    ______ ____

>  <TORSDO>
F 2

$$$$
=
 OpenBabel11062421253D

 31 38  0  0  1  0  0  0  0  0999 V2000
  188.9820  176.2000  145.5480 C   0  0  1  0  0  3  0  0  0  0  0  0
  188.8630  177.3000  143.4870 C   0  0  2  0  0  3  0  0  0  0  0  0
  193.2150  174.2690  145.5290 C   0  0  2  0  0  3  0  0  0  0  0  0
  190.3840  176.4270  145.2070 C   0  0  1  0  0  0  0  0  0  0  0  0
  194.5980  176.3100  145.4540 N   0  0  2  0  0  0  0  0  0  0  0  0
  193.2520  176.7220  145.9030 C   0  0  2  0  0  3  0  0  0  0  0  0
  196.5660  173.7880  144.0140 C   0  0  0  0  0  1  0  0  0  0  0  0
  194.8700  176.8160  144.2140 O   0  0  0  0  0  0  0  0  0  0  0  0
  192.5440  175.4290  146.2390 C   0  0  1  0  0  0  0  0  0  0  0  0
  188.2240  177.4990  145.6910 C   0  0  1  0  0  3  0  0  0  0  0  0
  194.6400  174.8560  145.3080 C   0  0  2  0  0  0  0  0  0  0  0  0
  195.3450  174.6990  143.9530 C   0  0  0  0  0  0  0  0  0  0  0  0
  189.4060  176.1010  144.1370 N   0  0  1  0  0  0  0  0  0  0  0  0
  187.8790  177.9410  144.3530 N   0  0  0  0  0  2  0  0  0  0  0  0
  194.4900  174.2090  142.7920 C   0  0  0  0  0  1  0  0  0  0  0  0
  192.2760  176.9020  144.7140 C   0  0  2  0  0  3  0  0  0  0  0  0
  191.0620  177.7020  144.9990 N   0  0  0  0  0  2  0  0  0  0  0  0
  191.6030  175.5840  145.1010 C   0  0  2  0  0  0  0  0  0  0  0  0
  191.9470  175.2160  147.6210 C   0  0  0  0  0  1  0  0  0  0  0  0
  195.7770  176.0030  143.6730 O   0  0  0  0  0  0  0  0  0  0  0  0
  192.1660  174.3950  144.3750 C   0  0  0  0  0  2  0  0  0  0  0  0
  195.4450  174.3540  146.3390 O   0  0  0  0  0  1  0  0  0  0  0  0
  188.2580  176.9400  142.1680 C   0  0  0  0  0  0  0  0  0  0  0  0
  186.8660  177.4820  140.2530 C   0  0  0  0  0  3  0  0  0  0  0  0
  187.4540  177.8520  141.4680 C   0  0  0  0  0  3  0  0  0  0  0  0
  187.0780  176.2010  139.7360 C   0  0  0  0  0  3  0  0  0  0  0  0
  187.8740  175.2880  140.4350 C   0  0  0  0  0  3  0  0  0  0  0  0
  188.4600  175.6560  141.6510 C   0  0  0  0  0  3  0  0  0  0  0  0
  186.8880  176.3160  147.2910 O   0  0  0  0  0  0  0  0  0  0  0  0
  185.9560  178.2800  146.4640 N   0  0  0  0  0  1  0  0  0  0  0  0
  186.9960  177.3070  146.5180 C   0  0  0  0  0  0  0  0  0  0  0  0
  1 10  1  0  0  0  0
  2 13  1  0  0  0  0
  2 14  1  0  0  0  0
  3  9  1  0  0  0  0
  4  1  1  0  0  0  0
  5  6  1  0  0  0  0
  6  9  1  0  0  0  0
  8  5  1  0  0  0  0
  9 19  1  0  0  0  0
 10 31  1  0  0  0  0
 11  5  1  0  0  0  0
 11  3  1  0  0  0  0
 11 22  1  0  0  0  0
 12  7  1  0  0  0  0
 12 11  1  0  0  0  0
 13  4  1  0  0  0  0
 13  1  1  0  0  0  0
 14 10  1  0  0  0  0
 15 12  1  0  0  0  0
 16 17  1  0  0  0  0
 16 18  1  0  0  0  0
 16  6  1  0  0  0  0
 17  4  1  0  0  0  0
 18  4  1  0  0  0  0
 18  9  1  0  0  0  0
 20 12  1  0  0  0  0
 20  8  1  0  0  0  0
 21 18  1  0  0  0  0
 21  3  1  0  0  0  0
 23  2  1  0  0  0  0
 24 25  1  0  0  0  0
 25 23  2  0  0  0  0
 26 24  2  0  0  0  0
 26 27  1  0  0  0  0
 27 28  2  0  0  0  0
 28 23  1  0  0  0  0
 30 31  1  0  0  0  0
 31 29  2  0  0  0  0
M  END
>  <MODEL>
7

>  <REMARK>
 VINA RESULT:      -7.3      2.045      2.665
  Name = 
  2 active torsions:
  status: ('A' for Active; 'I' for Inactive)
    1  A    between atoms: C_1  and  C_3
    2  A    between atoms: C_15  and  C_29
                            x       y       z     vdW  Elec       q    Type
                         _______ _______ _______ _____ _____    ______ ____

>  <TORSDO>
F 2

$$$$
=
 OpenBabel11062421253D

 31 38  0  0  1  0  0  0  0  0999 V2000
  193.4130  175.4030  144.5140 C   0  0  1  0  0  3  0  0  0  0  0  0
  193.4480  174.3330  142.4340 C   0  0  2  0  0  3  0  0  0  0  0  0
  189.4810  177.8890  144.4120 C   0  0  2  0  0  3  0  0  0  0  0  0
  192.0050  175.3740  144.1260 C   0  0  1  0  0  0  0  0  0  0  0  0
  187.8390  176.0560  144.2510 N   0  0  2  0  0  0  0  0  0  0  0  0
  189.1020  175.4570  144.7310 C   0  0  2  0  0  3  0  0  0  0  0  0
  186.2770  178.8470  142.8090 C   0  0  0  0  0  1  0  0  0  0  0  0
  187.5420  175.6130  142.9920 O   0  0  0  0  0  0  0  0  0  0  0  0
  189.9660  176.6360  145.1160 C   0  0  1  0  0  0  0  0  0  0  0  0
  193.9830  174.0110  144.6510 C   0  0  1  0  0  3  0  0  0  0  0  0
  187.9980  177.5050  144.1350 C   0  0  2  0  0  0  0  0  0  0  0  0
  187.3650  177.7790  142.7640 C   0  0  0  0  0  0  0  0  0  0  0  0
  193.0520  175.5830  143.0930 N   0  0  1  0  0  0  0  0  0  0  0  0
  194.3080  173.5500  143.3150 N   0  0  0  0  0  2  0  0  0  0  0  0
  188.3150  178.1700  141.6400 C   0  0  0  0  0  1  0  0  0  0  0  0
  190.0830  175.1680  143.5670 C   0  0  2  0  0  3  0  0  0  0  0  0
  191.1680  174.2060  143.8700 N   0  0  0  0  0  2  0  0  0  0  0  0
  190.9150  176.3760  144.0030 C   0  0  2  0  0  0  0  0  0  0  0  0
  190.5420  176.7430  146.5190 C   0  0  0  0  0  1  0  0  0  0  0  0
  186.7700  176.5510  142.4420 O   0  0  0  0  0  0  0  0  0  0  0  0
  190.5400  177.6420  143.2860 C   0  0  0  0  0  2  0  0  0  0  0  0
  187.2360  178.0930  145.1530 O   0  0  0  0  0  1  0  0  0  0  0  0
  194.1390  174.6310  141.1410 C   0  0  0  0  0  0  0  0  0  0  0  0
  194.1650  174.6900  138.7130 C   0  0  0  0  0  3  0  0  0  0  0  0
  193.4880  174.4410  139.9130 C   0  0  0  0  0  3  0  0  0  0  0  0
  195.4920  175.1260  138.7380 C   0  0  0  0  0  3  0  0  0  0  0  0
  196.1450  175.3100  139.9600 C   0  0  0  0  0  3  0  0  0  0  0  0
  195.4710  175.0600  141.1600 C   0  0  0  0  0  3  0  0  0  0  0  0
  195.5510  175.0690  146.1230 O   0  0  0  0  0  0  0  0  0  0  0  0
  195.9400  172.8160  145.6970 N   0  0  0  0  0  1  0  0  0  0  0  0
  195.1990  174.0200  145.5180 C   0  0  0  0  0  0  0  0  0  0  0  0
  1 10  1  0  0  0  0
  2 13  1  0  0  0  0
  2 14  1  0  0  0  0
  3  9  1  0  0  0  0
  4  1  1  0  0  0  0
  5  6  1  0  0  0  0
  6  9  1  0  0  0  0
  8  5  1  0  0  0  0
  9 19  1  0  0  0  0
 10 31  1  0  0  0  0
 11  5  1  0  0  0  0
 11  3  1  0  0  0  0
 11 22  1  0  0  0  0
 12  7  1  0  0  0  0
 12 11  1  0  0  0  0
 13  4  1  0  0  0  0
 13  1  1  0  0  0  0
 14 10  1  0  0  0  0
 15 12  1  0  0  0  0
 16 17  1  0  0  0  0
 16 18  1  0  0  0  0
 16  6  1  0  0  0  0
 17  4  1  0  0  0  0
 18  4  1  0  0  0  0
 18  9  1  0  0  0  0
 20 12  1  0  0  0  0
 20  8  1  0  0  0  0
 21 18  1  0  0  0  0
 21  3  1  0  0  0  0
 23 28  1  0  0  0  0
 23  2  1  0  0  0  0
 24 26  2  0  0  0  0
 24 25  1  0  0  0  0
 25 23  2  0  0  0  0
 26 27  1  0  0  0  0
 27 28  2  0  0  0  0
 31 30  1  0  0  0  0
 31 29  2  0  0  0  0
M  END
>  <MODEL>
8

>  <REMARK>
 VINA RESULT:      -7.2      2.858      7.557
  Name = 
  2 active torsions:
  status: ('A' for Active; 'I' for Inactive)
    1  A    between atoms: C_1  and  C_3
    2  A    between atoms: C_15  and  C_29
                            x       y       z     vdW  Elec       q    Type
                         _______ _______ _______ _____ _____    ______ ____

>  <TORSDO>
F 2

$$$$
=
 OpenBabel11062421253D

 31 38  0  0  1  0  0  0  0  0999 V2000
  192.7050  174.5430  141.9040 C   0  0  1  0  0  3  0  0  0  0  0  0
  194.3660  174.9330  143.5040 C   0  0  2  0  0  3  0  0  0  0  0  0
  188.7380  175.2340  144.2350 C   0  0  2  0  0  3  0  0  0  0  0  0
  192.0390  175.4070  142.8760 C   0  0  1  0  0  0  0  0  0  0  0  0
  188.9940  177.6240  144.7840 N   0  0  2  0  0  0  0  0  0  0  0  0
  189.9360  177.3360  143.6820 C   0  0  2  0  0  3  0  0  0  0  0  0
  186.8880  176.3110  147.2630 C   0  0  0  0  0  1  0  0  0  0  0  0
  189.6720  177.9160  145.9350 O   0  0  0  0  0  0  0  0  0  0  0  0
  189.5260  175.9740  143.1700 C   0  0  1  0  0  0  0  0  0  0  0  0
  193.8930  175.2280  141.2690 C   0  0  1  0  0  3  0  0  0  0  0  0
  188.2060  176.4290  145.0790 C   0  0  2  0  0  0  0  0  0  0  0  0
  188.2650  176.3870  146.6110 C   0  0  0  0  0  0  0  0  0  0  0  0
  193.0140  174.3860  143.3390 N   0  0  1  0  0  0  0  0  0  0  0  0
  194.9980  175.1150  142.2020 N   0  0  0  0  0  2  0  0  0  0  0  0
  189.1040  175.2780  147.2320 C   0  0  0  0  0  1  0  0  0  0  0  0
  191.2520  176.7030  144.1980 C   0  0  2  0  0  3  0  0  0  0  0  0
  192.4000  176.7660  143.2640 N   0  0  0  0  0  2  0  0  0  0  0  0
  190.7800  175.3500  143.6620 C   0  0  2  0  0  0  0  0  0  0  0  0
  189.1700  175.7780  141.7050 C   0  0  0  0  0  1  0  0  0  0  0  0
  188.8430  177.6220  146.9370 O   0  0  0  0  0  0  0  0  0  0  0  0
  190.0570  174.5260  144.6890 C   0  0  0  0  0  2  0  0  0  0  0  0
  186.8960  176.6740  144.6450 O   0  0  0  0  0  1  0  0  0  0  0  0
  195.1830  174.0300  144.3720 C   0  0  0  0  0  0  0  0  0  0  0  0
  196.8160  173.6900  146.1380 C   0  0  0  0  0  3  0  0  0  0  0  0
  196.0310  174.5510  145.3610 C   0  0  0  0  0  3  0  0  0  0  0  0
  196.7570  172.3100  145.9270 C   0  0  0  0  0  3  0  0  0  0  0  0
  195.9170  171.7890  144.9370 C   0  0  0  0  0  3  0  0  0  0  0  0
  195.1340  172.6480  144.1590 C   0  0  0  0  0  3  0  0  0  0  0  0
  194.3440  175.2850  138.9160 O   0  0  0  0  0  0  0  0  0  0  0  0
  194.4880  173.1890  139.9130 N   0  0  0  0  0  1  0  0  0  0  0  0
  194.2360  174.5910  139.9640 C   0  0  0  0  0  0  0  0  0  0  0  0
  1  4  1  0  0  0  0
  1 13  1  0  0  0  0
  2 23  1  0  0  0  0
  3 21  1  0  0  0  0
  3 11  1  0  0  0  0
  4 17  1  0  0  0  0
  4 13  1  0  0  0  0
  4 18  1  0  0  0  0
  5 11  1  0  0  0  0
  5  8  1  0  0  0  0
  6 16  1  0  0  0  0
  6  5  1  0  0  0  0
  8 20  1  0  0  0  0
  9 18  1  0  0  0  0
  9  6  1  0  0  0  0
  9  3  1  0  0  0  0
 10  1  1  0  0  0  0
 10 14  1  0  0  0  0
 11 12  1  0  0  0  0
 12 20  1  0  0  0  0
 12 15  1  0  0  0  0
 12  7  1  0  0  0  0
 13  2  1  0  0  0  0
 14  2  1  0  0  0  0
 17 16  1  0  0  0  0
 18 16  1  0  0  0  0
 18 21  1  0  0  0  0
 19  9  1  0  0  0  0
 22 11  1  0  0  0  0
 23 25  1  0  0  0  0
 25 24  2  0  0  0  0
 26 24  1  0  0  0  0
 27 26  2  0  0  0  0
 28 23  2  0  0  0  0
 28 27  1  0  0  0  0
 29 31  2  0  0  0  0
 30 31  1  0  0  0  0
 31 10  1  0  0  0  0
M  END
>  <MODEL>
9

>  <REMARK>
 VINA RESULT:      -7.2      3.055      8.369
  Name = 
  2 active torsions:
  status: ('A' for Active; 'I' for Inactive)
    1  A    between atoms: C_1  and  C_3
    2  A    between atoms: C_15  and  C_29
                            x       y       z     vdW  Elec       q    Type
                         _______ _______ _______ _____ _____    ______ ____

>  <TORSDO>
F 2

$$$$
