=
 OpenBabel11062419063D

 32 35  0  0  1  0  0  0  0  0999 V2000
  188.6680  174.7370  141.3580 C   0  0  0  0  0  0  0  0  0  0  0  0
  191.3850  177.6750  148.1500 C   0  0  0  0  0  1  0  0  0  0  0  0
  191.0330  173.8700  143.9710 N   0  0  0  0  0  0  0  0  0  0  0  0
  190.4870  175.4240  147.5270 C   0  0  0  0  0  0  0  0  0  0  0  0
  191.6250  173.2770  142.9780 C   0  0  0  0  0  0  0  0  0  0  0  0
  188.2870  176.6510  146.1620 C   0  0  2  0  0  3  0  0  0  0  0  0
  188.5530  174.4920  139.9630 N   0  0  0  0  0  1  0  0  0  0  0  0
  186.7800  176.5340  144.1180 C   0  0  0  0  0  2  0  0  0  0  0  0
  187.8320  175.7620  143.4070 C   0  0  0  0  0  0  0  0  0  0  0  0
  189.8520  174.4580  143.4480 C   0  0  0  0  0  0  0  0  0  0  0  0
  190.9100  173.4160  141.6610 C   0  0  2  0  0  0  0  0  0  0  0  0
  188.9070  175.2330  144.1430 C   0  0  0  0  0  0  0  0  0  0  0  0
  187.4040  177.4510  145.1710 C   0  0  1  0  0  3  0  0  0  0  0  0
  189.3310  177.5720  146.7740 C   0  0  0  0  0  2  0  0  0  0  0  0
  191.3050  174.8290  148.2180 O   0  0  0  0  0  0  0  0  0  0  0  0
  187.7050  175.5060  142.0280 C   0  0  0  0  0  3  0  0  0  0  0  0
  190.1330  176.8590  147.8680 C   0  0  2  0  0  3  0  0  0  0  0  0
  190.5000  172.0670  141.1050 C   0  0  0  0  0  1  0  0  0  0  0  0
  191.6940  174.1200  140.7450 O   0  0  0  0  0  1  0  0  0  0  0  0
  189.7370  174.2230  142.0990 C   0  0  0  0  0  0  0  0  0  0  0  0
  189.0180  175.5330  145.5490 N   0  0  0  0  0  0  0  0  0  0  0  0
  189.7710  174.6540  146.4430 C   0  0  0  0  0  2  0  0  0  0  0  0
  185.7620  177.5020  147.0590 C   0  0  0  0  0  1  0  0  0  0  0  0
  186.2690  178.2630  145.8360 C   0  0  2  0  0  3  0  0  0  0  0  0
  183.9450  178.9320  145.6090 O   0  0  0  0  0  1  0  0  0  0  0  0
  185.1180  178.6660  144.8960 C   0  0  1  0  0  3  0  0  0  0  0  0
  185.4970  179.9220  144.1360 C   0  0  0  0  0  1  0  0  0  0  0  0
  192.8280  172.5800  143.1220 O   0  0  0  0  0  0  0  0  0  0  0  0
  193.0690  171.7440  144.2130 C   0  0  0  0  0  3  0  0  0  0  0  0
  193.8810  172.1100  145.2020 C   0  0  0  0  0  3  0  0  0  0  0  0
  194.5580  173.4410  145.2240 C   0  0  0  0  0  2  0  0  0  0  0  0
  193.7770  174.3480  145.9450 O   0  0  0  0  0  1  0  0  0  0  0  0
  1 16  2  0  0  0  0
  1 20  1  0  0  0  0
  4 17  1  0  0  0  0
  4 15  2  0  0  0  0
  5 28  1  0  0  0  0
  5  3  2  0  0  0  0
  6 14  1  6  0  0  0
  7  1  1  0  0  0  0
  8 13  1  0  0  0  0
  9  8  1  0  0  0  0
  9 12  2  0  0  0  0
 10  3  1  0  0  0  0
 10 12  1  0  0  0  0
 11 18  1  6  0  0  0
 11 20  1  0  0  0  0
 11  5  1  0  0  0  0
 12 21  1  0  0  0  0
 13 24  1  1  0  0  0
 13  6  1  0  0  0  0
 14 17  1  0  0  0  0
 16  9  1  0  0  0  0
 17  2  1  6  0  0  0
 19 11  1  0  0  0  0
 20 10  2  0  0  0  0
 21  6  1  0  0  0  0
 21 22  1  0  0  0  0
 22  4  1  0  0  0  0
 24 23  1  1  0  0  0
 26 27  1  1  0  0  0
 26 25  1  0  0  0  0
 26 24  1  0  0  0  0
 28 29  1  0  0  0  0
 29 30  2  0  0  0  0
 30 31  1  0  0  0  0
 31 32  1  0  0  0  0
M  END
>  <MODEL>
1

>  <REMARK>
 VINA RESULT:      -7.1      0.000      0.000
  Name = 
  5 active torsions:
  status: ('A' for Active; 'I' for Inactive)
    1  A    between atoms: C_1  and  C_30
    2  A    between atoms: C_6  and  O_9
    3  A    between atoms: C_7  and  O_9
    4  A    between atoms: C_16  and  C_28
    5  A    between atoms: C_25  and  C_28
                            x       y       z     vdW  Elec       q    Type
                         _______ _______ _______ _____ _____    ______ ____

>  <TORSDO>
F 5

$$$$
=
 OpenBabel11062419063D

 32 35  0  0  1  0  0  0  0  0999 V2000
  189.8900  173.8840  144.2810 C   0  0  0  0  0  0  0  0  0  0  0  0
  183.6790  177.8510  141.4830 C   0  0  0  0  0  1  0  0  0  0  0  0
  188.5430  174.9770  141.0940 N   0  0  0  0  0  0  0  0  0  0  0  0
  186.1400  178.0720  141.0840 C   0  0  0  0  0  0  0  0  0  0  0  0
  189.1510  173.9050  140.6820 C   0  0  0  0  0  0  0  0  0  0  0  0
  186.6370  177.9040  143.9000 C   0  0  2  0  0  3  0  0  0  0  0  0
  190.6820  172.7940  144.7360 N   0  0  0  0  0  1  0  0  0  0  0  0
  188.1860  176.9700  145.6880 C   0  0  0  0  0  2  0  0  0  0  0  0
  188.6280  175.9210  144.7340 C   0  0  0  0  0  0  0  0  0  0  0  0
  188.7860  175.0730  142.4890 C   0  0  0  0  0  0  0  0  0  0  0  0
  189.8620  173.1440  141.7680 C   0  0  2  0  0  0  0  0  0  0  0  0
  188.3010  176.0530  143.3720 C   0  0  0  0  0  0  0  0  0  0  0  0
  186.7600  177.4220  145.3690 C   0  0  1  0  0  3  0  0  0  0  0  0
  185.1960  177.7640  143.4360 C   0  0  0  0  0  2  0  0  0  0  0  0
  185.9950  178.3070  139.8910 O   0  0  0  0  0  0  0  0  0  0  0  0
  189.4280  174.8520  145.1840 C   0  0  0  0  0  3  0  0  0  0  0  0
  184.9980  178.3630  142.0400 C   0  0  2  0  0  3  0  0  0  0  0  0
  191.3520  173.0560  141.5010 C   0  0  0  0  0  1  0  0  0  0  0  0
  189.3050  171.8740  141.9290 O   0  0  0  0  0  1  0  0  0  0  0  0
  189.5520  174.0210  142.9310 C   0  0  0  0  0  0  0  0  0  0  0  0
  187.4630  177.1470  142.9490 N   0  0  0  0  0  0  0  0  0  0  0  0
  187.4990  177.6240  141.5660 C   0  0  0  0  0  2  0  0  0  0  0  0
  187.3670  178.4810  147.5540 C   0  0  0  0  0  1  0  0  0  0  0  0
  186.3390  178.4700  146.4240 C   0  0  2  0  0  3  0  0  0  0  0  0
  183.9910  179.0480  146.1960 O   0  0  0  0  0  1  0  0  0  0  0  0
  184.9040  178.3170  146.9610 C   0  0  1  0  0  3  0  0  0  0  0  0
  184.4940  176.8590  146.9100 C   0  0  0  0  0  1  0  0  0  0  0  0
  189.1340  173.4910  139.3480 O   0  0  0  0  0  0  0  0  0  0  0  0
  188.2500  174.0390  138.4180 C   0  0  0  0  0  3  0  0  0  0  0  0
  188.6410  174.3390  137.1810 C   0  0  0  0  0  3  0  0  0  0  0  0
  190.0320  174.0830  136.7030 C   0  0  0  0  0  2  0  0  0  0  0  0
  190.1220  172.7800  136.2070 O   0  0  0  0  0  1  0  0  0  0  0  0
  1  7  1  0  0  0  0
  1 16  1  0  0  0  0
  3 10  1  0  0  0  0
  4 22  1  0  0  0  0
  4 17  1  0  0  0  0
  5  3  2  0  0  0  0
  5 11  1  0  0  0  0
  6 14  1  6  0  0  0
  6 13  1  0  0  0  0
  9 16  2  0  0  0  0
  9  8  1  0  0  0  0
 10 20  1  0  0  0  0
 10 12  2  0  0  0  0
 11 18  1  6  0  0  0
 11 19  1  0  0  0  0
 11 20  1  0  0  0  0
 12  9  1  0  0  0  0
 13  8  1  0  0  0  0
 13 24  1  1  0  0  0
 15  4  2  0  0  0  0
 17  2  1  6  0  0  0
 17 14  1  0  0  0  0
 20  1  2  0  0  0  0
 21 12  1  0  0  0  0
 21  6  1  0  0  0  0
 22 21  1  0  0  0  0
 24 26  1  0  0  0  0
 24 23  1  1  0  0  0
 25 26  1  0  0  0  0
 26 27  1  6  0  0  0
 28  5  1  0  0  0  0
 29 28  1  0  0  0  0
 30 29  2  0  0  0  0
 31 30  1  0  0  0  0
 32 31  1  0  0  0  0
M  END
>  <MODEL>
2

>  <REMARK>
 VINA RESULT:      -7.1      2.777      5.474
  Name = 
  5 active torsions:
  status: ('A' for Active; 'I' for Inactive)
    1  A    between atoms: C_1  and  C_30
    2  A    between atoms: C_6  and  O_9
    3  A    between atoms: C_7  and  O_9
    4  A    between atoms: C_16  and  C_28
    5  A    between atoms: C_25  and  C_28
                            x       y       z     vdW  Elec       q    Type
                         _______ _______ _______ _____ _____    ______ ____

>  <TORSDO>
F 5

$$$$
=
 OpenBabel11062419063D

 32 35  0  0  1  0  0  0  0  0999 V2000
  189.7120  176.8170  146.4330 C   0  0  0  0  0  0  0  0  0  0  0  0
  192.2610  173.5850  139.7100 C   0  0  0  0  0  1  0  0  0  0  0  0
  188.3510  175.3290  143.4160 N   0  0  0  0  0  0  0  0  0  0  0  0
  190.6120  172.8190  141.4290 C   0  0  0  0  0  0  0  0  0  0  0  0
  187.3770  176.1500  143.6750 C   0  0  0  0  0  0  0  0  0  0  0  0
  192.4410  173.5020  143.5250 C   0  0  2  0  0  3  0  0  0  0  0  0
  189.2940  177.8090  147.3610 N   0  0  0  0  0  1  0  0  0  0  0  0
  192.6570  174.4920  145.8570 C   0  0  0  0  0  2  0  0  0  0  0  0
  191.3690  175.2050  145.6570 C   0  0  0  0  0  0  0  0  0  0  0  0
  189.3110  175.4960  144.4480 C   0  0  0  0  0  0  0  0  0  0  0  0
  187.5850  176.9810  144.9120 C   0  0  2  0  0  0  0  0  0  0  0  0
  190.5490  174.8420  144.5730 C   0  0  0  0  0  0  0  0  0  0  0  0
  193.3590  174.2600  144.5180 C   0  0  1  0  0  3  0  0  0  0  0  0
  192.8680  173.8070  142.0980 C   0  0  0  0  0  2  0  0  0  0  0  0
  189.8460  172.3610  140.5900 O   0  0  0  0  0  0  0  0  0  0  0  0
  190.9490  176.1740  146.5880 C   0  0  0  0  0  3  0  0  0  0  0  0
  192.0830  172.9660  141.0870 C   0  0  2  0  0  3  0  0  0  0  0  0
  186.5020  176.7240  145.9430 C   0  0  0  0  0  1  0  0  0  0  0  0
  187.6610  178.3370  144.5900 O   0  0  0  0  0  1  0  0  0  0  0  0
  188.9090  176.4550  145.3470 C   0  0  0  0  0  0  0  0  0  0  0  0
  191.0190  173.8620  143.6260 N   0  0  0  0  0  0  0  0  0  0  0  0
  190.0750  173.0970  142.8130 C   0  0  0  0  0  2  0  0  0  0  0  0
  194.4620  172.2900  145.5960 C   0  0  0  0  0  1  0  0  0  0  0  0
  194.7120  173.5670  144.7960 C   0  0  2  0  0  3  0  0  0  0  0  0
  196.7470  173.6940  146.1160 O   0  0  0  0  0  1  0  0  0  0  0  0
  195.7770  174.4580  145.4620 C   0  0  1  0  0  3  0  0  0  0  0  0
  196.4740  175.2930  144.4060 C   0  0  0  0  0  1  0  0  0  0  0  0
  186.2440  176.2580  142.8660 O   0  0  0  0  0  0  0  0  0  0  0  0
  186.1390  177.2290  141.8700 C   0  0  0  0  0  3  0  0  0  0  0  0
  185.1850  178.1580  141.9040 C   0  0  0  0  0  3  0  0  0  0  0  0
  184.1920  178.2390  143.0160 C   0  0  0  0  0  2  0  0  0  0  0  0
  184.5520  179.2710  143.8860 O   0  0  0  0  0  1  0  0  0  0  0  0
  1 16  1  0  0  0  0
  1  7  1  0  0  0  0
  3  5  2  0  0  0  0
  3 10  1  0  0  0  0
  4 22  1  0  0  0  0
  5 11  1  0  0  0  0
  6 14  1  6  0  0  0
  6 21  1  0  0  0  0
  6 13  1  0  0  0  0
  9  8  1  0  0  0  0
  9 16  2  0  0  0  0
 10 12  2  0  0  0  0
 10 20  1  0  0  0  0
 11 20  1  0  0  0  0
 11 18  1  1  0  0  0
 12  9  1  0  0  0  0
 13 24  1  1  0  0  0
 13  8  1  0  0  0  0
 15  4  2  0  0  0  0
 17  2  1  6  0  0  0
 17  4  1  0  0  0  0
 17 14  1  0  0  0  0
 19 11  1  0  0  0  0
 20  1  2  0  0  0  0
 21 12  1  0  0  0  0
 22 21  1  0  0  0  0
 24 26  1  0  0  0  0
 24 23  1  1  0  0  0
 26 27  1  6  0  0  0
 26 25  1  0  0  0  0
 28  5  1  0  0  0  0
 29 30  2  0  0  0  0
 29 28  1  0  0  0  0
 30 31  1  0  0  0  0
 31 32  1  0  0  0  0
M  END
>  <MODEL>
3

>  <REMARK>
 VINA RESULT:      -6.9      2.089      7.880
  Name = 
  5 active torsions:
  status: ('A' for Active; 'I' for Inactive)
    1  A    between atoms: C_1  and  C_30
    2  A    between atoms: C_6  and  O_9
    3  A    between atoms: C_7  and  O_9
    4  A    between atoms: C_16  and  C_28
    5  A    between atoms: C_25  and  C_28
                            x       y       z     vdW  Elec       q    Type
                         _______ _______ _______ _____ _____    ______ ____

>  <TORSDO>
F 5

$$$$
=
 OpenBabel11062419063D

 32 35  0  0  1  0  0  0  0  0999 V2000
  191.0770  173.3940  140.5860 C   0  0  0  0  0  0  0  0  0  0  0  0
  191.1910  175.5560  148.1670 C   0  0  0  0  0  1  0  0  0  0  0  0
  189.0440  175.2710  142.9350 N   0  0  0  0  0  0  0  0  0  0  0  0
  190.8240  176.8430  146.0520 C   0  0  0  0  0  0  0  0  0  0  0  0
  188.0900  174.8390  142.1650 C   0  0  0  0  0  0  0  0  0  0  0  0
  193.0850  175.5600  144.8480 C   0  0  2  0  0  3  0  0  0  0  0  0
  190.8350  172.6060  139.4280 N   0  0  0  0  0  1  0  0  0  0  0  0
  194.0070  174.5500  142.7050 C   0  0  0  0  0  2  0  0  0  0  0  0
  192.6170  174.3310  142.2290 C   0  0  0  0  0  0  0  0  0  0  0  0
  190.2600  174.7770  142.3930 C   0  0  0  0  0  0  0  0  0  0  0  0
  188.5620  173.9840  141.0190 C   0  0  2  0  0  0  0  0  0  0  0  0
  191.5560  174.9590  142.9060 C   0  0  0  0  0  0  0  0  0  0  0  0
  194.0630  174.5270  144.2330 C   0  0  1  0  0  3  0  0  0  0  0  0
  192.7050  175.1300  146.2560 C   0  0  0  0  0  2  0  0  0  0  0  0
  189.9480  177.5410  146.5480 O   0  0  0  0  0  0  0  0  0  0  0  0
  192.3820  173.5650  141.0700 C   0  0  0  0  0  3  0  0  0  0  0  0
  191.8550  176.1940  146.9570 C   0  0  2  0  0  3  0  0  0  0  0  0
  188.1990  174.5990  139.6810 C   0  0  0  0  0  1  0  0  0  0  0  0
  188.0570  172.6870  141.1300 O   0  0  0  0  0  1  0  0  0  0  0  0
  190.0290  174.0160  141.2720 C   0  0  0  0  0  0  0  0  0  0  0  0
  191.8290  175.7170  144.1010 N   0  0  0  0  0  0  0  0  0  0  0  0
  190.9110  176.7650  144.5470 C   0  0  0  0  0  2  0  0  0  0  0  0
  196.3010  175.4120  143.5460 C   0  0  0  0  0  1  0  0  0  0  0  0
  195.5370  174.7050  144.6640 C   0  0  2  0  0  3  0  0  0  0  0  0
  196.9840  173.6160  146.2820 O   0  0  0  0  0  1  0  0  0  0  0  0
  196.2470  173.4150  145.1120 C   0  0  1  0  0  3  0  0  0  0  0  0
  195.2170  172.3370  145.3880 C   0  0  0  0  0  1  0  0  0  0  0  0
  186.7440  175.1350  142.3910 O   0  0  0  0  0  0  0  0  0  0  0  0
  186.3480  176.2450  143.1380 C   0  0  0  0  0  3  0  0  0  0  0  0
  185.9920  177.3850  142.5500 C   0  0  0  0  0  3  0  0  0  0  0  0
  185.9630  177.5400  141.0650 C   0  0  0  0  0  2  0  0  0  0  0  0
  187.2300  177.9160  140.6120 O   0  0  0  0  0  1  0  0  0  0  0  0
  1 16  2  0  0  0  0
  1 20  1  0  0  0  0
  4 15  2  0  0  0  0
  4 17  1  0  0  0  0
  5 28  1  0  0  0  0
  5  3  2  0  0  0  0
  6 14  1  1  0  0  0
  7  1  1  0  0  0  0
  8 13  1  0  0  0  0
  9  8  1  0  0  0  0
  9 12  2  0  0  0  0
 10 12  1  0  0  0  0
 10  3  1  0  0  0  0
 11 18  1  6  0  0  0
 11 19  1  0  0  0  0
 11 20  1  0  0  0  0
 11  5  1  0  0  0  0
 12 21  1  0  0  0  0
 13 24  1  6  0  0  0
 13  6  1  0  0  0  0
 14 17  1  0  0  0  0
 16  9  1  0  0  0  0
 17  2  1  1  0  0  0
 20 10  2  0  0  0  0
 21 22  1  0  0  0  0
 21  6  1  0  0  0  0
 22  4  1  0  0  0  0
 24 23  1  6  0  0  0
 24 26  1  0  0  0  0
 26 27  1  1  0  0  0
 26 25  1  0  0  0  0
 28 29  1  0  0  0  0
 30 29  2  0  0  0  0
 31 30  1  0  0  0  0
 32 31  1  0  0  0  0
M  END
>  <MODEL>
4

>  <REMARK>
 VINA RESULT:      -6.8      2.630      6.778
  Name = 
  5 active torsions:
  status: ('A' for Active; 'I' for Inactive)
    1  A    between atoms: C_1  and  C_30
    2  A    between atoms: C_6  and  O_9
    3  A    between atoms: C_7  and  O_9
    4  A    between atoms: C_16  and  C_28
    5  A    between atoms: C_25  and  C_28
                            x       y       z     vdW  Elec       q    Type
                         _______ _______ _______ _____ _____    ______ ____

>  <TORSDO>
F 5

$$$$
=
 OpenBabel11062419063D

 32 35  0  0  1  0  0  0  0  0999 V2000
  188.8280  177.0480  146.6110 C   0  0  0  0  0  0  0  0  0  0  0  0
  192.6800  174.2630  140.3220 C   0  0  0  0  0  1  0  0  0  0  0  0
  188.0960  175.6230  143.3540 N   0  0  0  0  0  0  0  0  0  0  0  0
  190.8120  173.3320  141.7030 C   0  0  0  0  0  0  0  0  0  0  0  0
  187.0430  176.3780  143.4690 C   0  0  0  0  0  0  0  0  0  0  0  0
  192.2110  174.0200  144.1060 C   0  0  2  0  0  3  0  0  0  0  0  0
  188.1970  177.9740  147.4860 N   0  0  0  0  0  1  0  0  0  0  0  0
  191.9660  174.9160  146.4730 C   0  0  0  0  0  2  0  0  0  0  0  0
  190.6890  175.5650  146.0780 C   0  0  0  0  0  0  0  0  0  0  0  0
  188.8530  175.7970  144.5420 C   0  0  0  0  0  0  0  0  0  0  0  0
  186.9850  177.1630  144.7520 C   0  0  2  0  0  0  0  0  0  0  0  0
  190.0890  175.2070  144.8570 C   0  0  0  0  0  0  0  0  0  0  0  0
  192.8980  174.7830  145.2680 C   0  0  1  0  0  3  0  0  0  0  0  0
  192.8560  174.4110  142.7860 C   0  0  0  0  0  2  0  0  0  0  0  0
  190.2300  172.8710  140.7290 O   0  0  0  0  0  0  0  0  0  0  0  0
  190.0570  176.4680  146.9550 C   0  0  0  0  0  3  0  0  0  0  0  0
  192.3080  173.5750  141.6260 C   0  0  2  0  0  3  0  0  0  0  0  0
  185.7610  176.8020  145.5700 C   0  0  0  0  0  1  0  0  0  0  0  0
  187.0310  178.5340  144.4950 O   0  0  0  0  0  1  0  0  0  0  0  0
  188.2450  176.6910  145.3900 C   0  0  0  0  0  0  0  0  0  0  0  0
  190.7740  174.2970  143.9720 N   0  0  0  0  0  0  0  0  0  0  0  0
  190.0310  173.5180  142.9820 C   0  0  0  0  0  2  0  0  0  0  0  0
  195.2810  175.2490  145.8750 C   0  0  0  0  0  1  0  0  0  0  0  0
  194.2240  174.1530  145.7520 C   0  0  2  0  0  3  0  0  0  0  0  0
  196.0600  173.1430  144.5230 O   0  0  0  0  0  1  0  0  0  0  0  0
  194.7290  172.9660  144.9120 C   0  0  1  0  0  3  0  0  0  0  0  0
  194.6460  171.6920  145.7290 C   0  0  0  0  0  1  0  0  0  0  0  0
  186.0600  176.4590  142.4810 O   0  0  0  0  0  0  0  0  0  0  0  0
  186.0060  177.5240  141.5800 C   0  0  0  0  0  3  0  0  0  0  0  0
  184.9380  178.3150  141.5030 C   0  0  0  0  0  3  0  0  0  0  0  0
  183.7490  178.1350  142.3880 C   0  0  0  0  0  2  0  0  0  0  0  0
  183.8820  178.9470  143.5170 O   0  0  0  0  0  1  0  0  0  0  0  0
  1 16  1  0  0  0  0
  1  7  1  0  0  0  0
  3  5  2  0  0  0  0
  3 10  1  0  0  0  0
  4 22  1  0  0  0  0
  5 11  1  0  0  0  0
  6 14  1  6  0  0  0
  6 13  1  0  0  0  0
  9  8  1  0  0  0  0
  9 16  2  0  0  0  0
 10 12  2  0  0  0  0
 10 20  1  0  0  0  0
 11 20  1  0  0  0  0
 11 18  1  1  0  0  0
 12  9  1  0  0  0  0
 13 24  1  1  0  0  0
 13  8  1  0  0  0  0
 15  4  2  0  0  0  0
 17  2  1  6  0  0  0
 17  4  1  0  0  0  0
 17 14  1  0  0  0  0
 19 11  1  0  0  0  0
 20  1  2  0  0  0  0
 21  6  1  0  0  0  0
 21 12  1  0  0  0  0
 22 21  1  0  0  0  0
 24 23  1  6  0  0  0
 25 26  1  0  0  0  0
 26 27  1  1  0  0  0
 26 24  1  0  0  0  0
 28  5  1  0  0  0  0
 29 28  1  0  0  0  0
 30 29  2  0  0  0  0
 30 31  1  0  0  0  0
 31 32  1  0  0  0  0
M  END
>  <MODEL>
5

>  <REMARK>
 VINA RESULT:      -6.8      2.098      7.815
  Name = 
  5 active torsions:
  status: ('A' for Active; 'I' for Inactive)
    1  A    between atoms: C_1  and  C_30
    2  A    between atoms: C_6  and  O_9
    3  A    between atoms: C_7  and  O_9
    4  A    between atoms: C_16  and  C_28
    5  A    between atoms: C_25  and  C_28
                            x       y       z     vdW  Elec       q    Type
                         _______ _______ _______ _____ _____    ______ ____

>  <TORSDO>
F 5

$$$$
=
 OpenBabel11062419063D

 32 35  0  0  1  0  0  0  0  0999 V2000
  191.3810  176.3910  146.9200 C   0  0  0  0  0  0  0  0  0  0  0  0
  193.5360  174.4000  139.6030 C   0  0  0  0  0  1  0  0  0  0  0  0
  189.8760  175.1620  143.8550 N   0  0  0  0  0  0  0  0  0  0  0  0
  192.1670  173.2230  141.3350 C   0  0  0  0  0  0  0  0  0  0  0  0
  188.8530  175.8200  144.3150 C   0  0  0  0  0  0  0  0  0  0  0  0
  194.1240  173.8370  143.3350 C   0  0  2  0  0  3  0  0  0  0  0  0
  190.9610  177.1960  148.0130 N   0  0  0  0  0  1  0  0  0  0  0  0
  194.4790  174.5300  145.7560 C   0  0  0  0  0  2  0  0  0  0  0  0
  193.1080  175.1040  145.7760 C   0  0  0  0  0  0  0  0  0  0  0  0
  190.9150  175.3050  144.8100 C   0  0  0  0  0  0  0  0  0  0  0  0
  189.1010  176.5000  145.6340 C   0  0  2  0  0  0  0  0  0  0  0  0
  192.2220  174.7930  144.7290 C   0  0  0  0  0  0  0  0  0  0  0  0
  195.0560  174.5610  144.3400 C   0  0  1  0  0  3  0  0  0  0  0  0
  194.3640  174.3760  141.9340 C   0  0  0  0  0  2  0  0  0  0  0  0
  191.3700  172.7920  140.5120 O   0  0  0  0  0  0  0  0  0  0  0  0
  192.6880  175.8860  146.8700 C   0  0  0  0  0  3  0  0  0  0  0  0
  193.5700  173.5880  140.8880 C   0  0  2  0  0  3  0  0  0  0  0  0
  188.1660  175.9830  146.7100 C   0  0  0  0  0  1  0  0  0  0  0  0
  188.9990  177.8860  145.5040 O   0  0  0  0  0  1  0  0  0  0  0  0
  190.5110  176.0820  145.8690 C   0  0  0  0  0  0  0  0  0  0  0  0
  192.6910  174.0080  143.6140 N   0  0  0  0  0  0  0  0  0  0  0  0
  191.7520  173.2500  142.7870 C   0  0  0  0  0  2  0  0  0  0  0  0
  196.8560  173.6930  145.8460 C   0  0  0  0  0  1  0  0  0  0  0  0
  196.4960  174.0040  144.3940 C   0  0  2  0  0  3  0  0  0  0  0  0
  197.9410  174.3680  142.4760 O   0  0  0  0  0  1  0  0  0  0  0  0
  197.5640  174.8840  143.7190 C   0  0  1  0  0  3  0  0  0  0  0  0
  197.0080  176.2770  143.4970 C   0  0  0  0  0  1  0  0  0  0  0  0
  187.6360  175.8980  143.6340 O   0  0  0  0  0  0  0  0  0  0  0  0
  187.5210  175.5520  142.2880 C   0  0  0  0  0  3  0  0  0  0  0  0
  187.4850  176.4790  141.3330 C   0  0  0  0  0  3  0  0  0  0  0  0
  187.5960  177.9370  141.6360 C   0  0  0  0  0  2  0  0  0  0  0  0
  188.9440  178.2920  141.7280 O   0  0  0  0  0  1  0  0  0  0  0  0
  1  7  1  0  0  0  0
  3  5  2  0  0  0  0
  3 10  1  0  0  0  0
  4 22  1  0  0  0  0
  5 11  1  0  0  0  0
  6 14  1  6  0  0  0
  6 21  1  0  0  0  0
  6 13  1  0  0  0  0
  8  9  1  0  0  0  0
  9 16  2  0  0  0  0
 10 20  1  0  0  0  0
 11 20  1  0  0  0  0
 11 18  1  1  0  0  0
 12 10  2  0  0  0  0
 12  9  1  0  0  0  0
 13 24  1  1  0  0  0
 13  8  1  0  0  0  0
 15  4  2  0  0  0  0
 16  1  1  0  0  0  0
 17  2  1  6  0  0  0
 17  4  1  0  0  0  0
 17 14  1  0  0  0  0
 19 11  1  0  0  0  0
 20  1  2  0  0  0  0
 21 12  1  0  0  0  0
 22 21  1  0  0  0  0
 24 23  1  1  0  0  0
 25 26  1  0  0  0  0
 26 27  1  6  0  0  0
 26 24  1  0  0  0  0
 28  5  1  0  0  0  0
 29 28  1  0  0  0  0
 30 31  1  0  0  0  0
 30 29  2  0  0  0  0
 31 32  1  0  0  0  0
M  END
>  <MODEL>
6

>  <REMARK>
 VINA RESULT:      -6.6      2.735      7.978
  Name = 
  5 active torsions:
  status: ('A' for Active; 'I' for Inactive)
    1  A    between atoms: C_1  and  C_30
    2  A    between atoms: C_6  and  O_9
    3  A    between atoms: C_7  and  O_9
    4  A    between atoms: C_16  and  C_28
    5  A    between atoms: C_25  and  C_28
                            x       y       z     vdW  Elec       q    Type
                         _______ _______ _______ _____ _____    ______ ____

>  <TORSDO>
F 5

$$$$
=
 OpenBabel11062419063D

 32 35  0  0  1  0  0  0  0  0999 V2000
  188.8820  176.2540  145.8570 C   0  0  0  0  0  0  0  0  0  0  0  0
  190.8170  173.4320  138.7550 C   0  0  0  0  0  1  0  0  0  0  0  0
  187.3040  175.5290  142.6700 N   0  0  0  0  0  0  0  0  0  0  0  0
  188.9860  172.8490  140.3590 C   0  0  0  0  0  0  0  0  0  0  0  0
  186.5380  176.5120  143.0390 C   0  0  0  0  0  0  0  0  0  0  0  0
  190.8620  172.8100  142.5240 C   0  0  2  0  0  3  0  0  0  0  0  0
  188.6750  177.1860  146.9110 N   0  0  0  0  0  1  0  0  0  0  0  0
  191.2320  173.4090  144.9670 C   0  0  0  0  0  2  0  0  0  0  0  0
  190.1470  174.4200  144.8680 C   0  0  0  0  0  0  0  0  0  0  0  0
  188.2470  175.3340  143.7130 C   0  0  0  0  0  0  0  0  0  0  0  0
  186.8940  177.1030  144.3770 C   0  0  2  0  0  0  0  0  0  0  0  0
  189.2980  174.4020  143.7470 C   0  0  0  0  0  0  0  0  0  0  0  0
  191.9000  173.1990  143.6070 C   0  0  1  0  0  3  0  0  0  0  0  0
  191.3890  173.1930  141.1500 C   0  0  0  0  0  2  0  0  0  0  0  0
  188.1610  172.6940  139.4680 O   0  0  0  0  0  0  0  0  0  0  0  0
  189.9340  175.3290  145.9210 C   0  0  0  0  0  3  0  0  0  0  0  0
  190.4610  172.6960  140.0370 C   0  0  2  0  0  3  0  0  0  0  0  0
  185.7520  176.9710  145.3650 C   0  0  0  0  0  1  0  0  0  0  0  0
  187.2880  178.4350  144.2390 O   0  0  0  0  0  1  0  0  0  0  0  0
  188.0490  176.2330  144.7340 C   0  0  0  0  0  0  0  0  0  0  0  0
  189.5580  173.4720  142.6760 N   0  0  0  0  0  0  0  0  0  0  0  0
  188.4880  173.0590  141.7690 C   0  0  0  0  0  2  0  0  0  0  0  0
  192.4620  170.7750  143.8740 C   0  0  0  0  0  1  0  0  0  0  0  0
  193.0500  172.1820  143.7880 C   0  0  2  0  0  3  0  0  0  0  0  0
  194.1930  171.3460  145.7610 O   0  0  0  0  0  1  0  0  0  0  0  0
  194.0030  172.4750  144.9600 C   0  0  1  0  0  3  0  0  0  0  0  0
  195.3560  172.8990  144.4220 C   0  0  0  0  0  1  0  0  0  0  0  0
  185.4820  176.9840  142.2550 O   0  0  0  0  0  0  0  0  0  0  0  0
  185.6800  177.9200  141.2390 C   0  0  0  0  0  3  0  0  0  0  0  0
  184.6680  178.3640  140.4980 C   0  0  0  0  0  3  0  0  0  0  0  0
  183.2610  177.9160  140.7210 C   0  0  0  0  0  2  0  0  0  0  0  0
  182.7800  178.4680  141.9110 O   0  0  0  0  0  1  0  0  0  0  0  0
  1 16  1  0  0  0  0
  1  7  1  0  0  0  0
  3  5  2  0  0  0  0
  3 10  1  0  0  0  0
  4 22  1  0  0  0  0
  5 11  1  0  0  0  0
  6 14  1  6  0  0  0
  6 21  1  0  0  0  0
  6 13  1  0  0  0  0
  9  8  1  0  0  0  0
  9 16  2  0  0  0  0
 10 12  2  0  0  0  0
 10 20  1  0  0  0  0
 11 20  1  0  0  0  0
 11 18  1  1  0  0  0
 12  9  1  0  0  0  0
 13 24  1  1  0  0  0
 13  8  1  0  0  0  0
 15  4  2  0  0  0  0
 17  2  1  6  0  0  0
 17  4  1  0  0  0  0
 17 14  1  0  0  0  0
 19 11  1  0  0  0  0
 20  1  2  0  0  0  0
 21 12  1  0  0  0  0
 22 21  1  0  0  0  0
 24 23  1  1  0  0  0
 24 26  1  0  0  0  0
 26 27  1  6  0  0  0
 26 25  1  0  0  0  0
 28  5  1  0  0  0  0
 29 28  1  0  0  0  0
 30 31  1  0  0  0  0
 30 29  2  0  0  0  0
 31 32  1  0  0  0  0
M  END
>  <MODEL>
7

>  <REMARK>
 VINA RESULT:      -6.5      2.325      8.152
  Name = 
  5 active torsions:
  status: ('A' for Active; 'I' for Inactive)
    1  A    between atoms: C_1  and  C_30
    2  A    between atoms: C_6  and  O_9
    3  A    between atoms: C_7  and  O_9
    4  A    between atoms: C_16  and  C_28
    5  A    between atoms: C_25  and  C_28
                            x       y       z     vdW  Elec       q    Type
                         _______ _______ _______ _____ _____    ______ ____

>  <TORSDO>
F 5

$$$$
=
 OpenBabel11062419063D

 32 35  0  0  1  0  0  0  0  0999 V2000
  189.6220  174.8990  145.5990 C   0  0  0  0  0  0  0  0  0  0  0  0
  190.8760  173.8380  137.8880 C   0  0  0  0  0  1  0  0  0  0  0  0
  188.1700  175.8850  142.4220 N   0  0  0  0  0  0  0  0  0  0  0  0
  188.8340  173.5930  139.3130 C   0  0  0  0  0  0  0  0  0  0  0  0
  187.8320  176.9310  143.1150 C   0  0  0  0  0  0  0  0  0  0  0  0
  190.3400  172.1390  141.2680 C   0  0  2  0  0  3  0  0  0  0  0  0
  189.7140  175.4650  146.8990 N   0  0  0  0  0  1  0  0  0  0  0  0
  190.7040  171.7610  143.7560 C   0  0  0  0  0  2  0  0  0  0  0  0
  190.1280  173.1040  144.0280 C   0  0  0  0  0  0  0  0  0  0  0  0
  188.8610  175.0160  143.3060 C   0  0  0  0  0  0  0  0  0  0  0  0
  188.2770  176.8890  144.5520 C   0  0  2  0  0  0  0  0  0  0  0  0
  189.4440  173.7750  142.9980 C   0  0  0  0  0  0  0  0  0  0  0  0
  191.3490  171.7220  142.3690 C   0  0  1  0  0  3  0  0  0  0  0  0
  191.0940  172.6710  140.0600 C   0  0  0  0  0  2  0  0  0  0  0  0
  188.0960  174.0660  138.4580 O   0  0  0  0  0  0  0  0  0  0  0  0
  190.2050  173.6540  145.3220 C   0  0  0  0  0  3  0  0  0  0  0  0
  190.1460  172.9580  138.8910 C   0  0  2  0  0  3  0  0  0  0  0  0
  187.0960  176.9390  145.5010 C   0  0  0  0  0  1  0  0  0  0  0  0
  189.1810  177.9180  144.8200 O   0  0  0  0  0  1  0  0  0  0  0  0
  188.9510  175.5610  144.5650 C   0  0  0  0  0  0  0  0  0  0  0  0
  189.4020  173.1930  141.6790 N   0  0  0  0  0  0  0  0  0  0  0  0
  188.3400  173.5480  140.7390 C   0  0  0  0  0  2  0  0  0  0  0  0
  193.4790  170.4770  141.9510 C   0  0  0  0  0  1  0  0  0  0  0  0
  191.9750  170.3240  142.1690 C   0  0  2  0  0  3  0  0  0  0  0  0
  192.2370  169.1500  140.0580 O   0  0  0  0  0  1  0  0  0  0  0  0
  191.3240  169.4680  141.0670 C   0  0  1  0  0  3  0  0  0  0  0  0
  190.8170  168.1700  141.6630 C   0  0  0  0  0  1  0  0  0  0  0  0
  187.1260  178.0050  142.5670 O   0  0  0  0  0  0  0  0  0  0  0  0
  185.7750  177.9060  142.2340 C   0  0  0  0  0  3  0  0  0  0  0  0
  184.8540  178.6520  142.8400 C   0  0  0  0  0  3  0  0  0  0  0  0
  185.2070  179.6570  143.8870 C   0  0  0  0  0  2  0  0  0  0  0  0
  184.4680  179.4010  145.0450 O   0  0  0  0  0  1  0  0  0  0  0  0
  1  7  1  0  0  0  0
  3  5  2  0  0  0  0
  3 10  1  0  0  0  0
  4 22  1  0  0  0  0
  5 11  1  0  0  0  0
  6 14  1  6  0  0  0
  6 21  1  0  0  0  0
  6 13  1  0  0  0  0
  8  9  1  0  0  0  0
  9 16  2  0  0  0  0
 10 20  1  0  0  0  0
 11 20  1  0  0  0  0
 11 19  1  0  0  0  0
 11 18  1  1  0  0  0
 12 10  2  0  0  0  0
 12  9  1  0  0  0  0
 13 24  1  6  0  0  0
 13  8  1  0  0  0  0
 15  4  2  0  0  0  0
 16  1  1  0  0  0  0
 17  2  1  6  0  0  0
 17  4  1  0  0  0  0
 17 14  1  0  0  0  0
 20  1  2  0  0  0  0
 21 12  1  0  0  0  0
 22 21  1  0  0  0  0
 24 23  1  6  0  0  0
 25 26  1  0  0  0  0
 26 27  1  1  0  0  0
 26 24  1  0  0  0  0
 28  5  1  0  0  0  0
 29 28  1  0  0  0  0
 29 30  2  0  0  0  0
 30 31  1  0  0  0  0
 31 32  1  0  0  0  0
M  END
>  <MODEL>
8

>  <REMARK>
 VINA RESULT:      -6.3      2.626      8.335
  Name = 
  5 active torsions:
  status: ('A' for Active; 'I' for Inactive)
    1  A    between atoms: C_1  and  C_30
    2  A    between atoms: C_6  and  O_9
    3  A    between atoms: C_7  and  O_9
    4  A    between atoms: C_16  and  C_28
    5  A    between atoms: C_25  and  C_28
                            x       y       z     vdW  Elec       q    Type
                         _______ _______ _______ _____ _____    ______ ____

>  <TORSDO>
F 5

$$$$
=
 OpenBabel11062419063D

 32 35  0  0  1  0  0  0  0  0999 V2000
  188.7450  174.2880  140.1660 C   0  0  0  0  0  0  0  0  0  0  0  0
  193.2350  176.5710  146.2290 C   0  0  0  0  0  1  0  0  0  0  0  0
  191.7520  173.2330  141.9030 N   0  0  0  0  0  0  0  0  0  0  0  0
  192.2130  174.3690  145.6250 C   0  0  0  0  0  0  0  0  0  0  0  0
  192.0470  172.7740  140.7230 C   0  0  0  0  0  0  0  0  0  0  0  0
  189.7120  175.6520  145.0740 C   0  0  2  0  0  3  0  0  0  0  0  0
  188.2460  174.1920  138.8380 N   0  0  0  0  0  1  0  0  0  0  0  0
  187.6940  175.7000  143.5280 C   0  0  0  0  0  2  0  0  0  0  0  0
  188.5090  175.0510  142.4690 C   0  0  0  0  0  0  0  0  0  0  0  0
  190.4680  173.8290  141.7990 C   0  0  0  0  0  0  0  0  0  0  0  0
  190.9910  173.0290  139.6810 C   0  0  2  0  0  0  0  0  0  0  0  0
  189.7510  174.4860  142.8130 C   0  0  0  0  0  0  0  0  0  0  0  0
  188.5810  176.5210  144.4650 C   0  0  1  0  0  3  0  0  0  0  0  0
  190.8790  176.5400  145.4740 C   0  0  0  0  0  2  0  0  0  0  0  0
  193.1960  173.7350  145.9880 O   0  0  0  0  0  0  0  0  0  0  0  0
  188.0030  174.9420  141.1590 C   0  0  0  0  0  3  0  0  0  0  0  0
  191.9590  175.7440  146.2130 C   0  0  2  0  0  3  0  0  0  0  0  0
  190.4510  171.7330  139.1090 C   0  0  0  0  0  1  0  0  0  0  0  0
  191.4830  173.8580  138.6710 O   0  0  0  0  0  1  0  0  0  0  0  0
  189.9820  173.7370  140.5160 C   0  0  0  0  0  0  0  0  0  0  0  0
  190.2490  174.6360  144.1580 N   0  0  0  0  0  0  0  0  0  0  0  0
  191.2270  173.6940  144.7010 C   0  0  0  0  0  2  0  0  0  0  0  0
  187.7000  176.4070  146.8050 C   0  0  0  0  0  1  0  0  0  0  0  0
  187.6730  177.2120  145.5070 C   0  0  2  0  0  3  0  0  0  0  0  0
  185.2960  176.8600  145.8640 O   0  0  0  0  0  1  0  0  0  0  0  0
  186.2320  177.4870  145.0380 C   0  0  1  0  0  3  0  0  0  0  0  0
  185.9620  178.9780  145.0730 C   0  0  0  0  0  1  0  0  0  0  0  0
  193.2460  172.1130  140.4470 O   0  0  0  0  0  0  0  0  0  0  0  0
  193.6790  171.0240  141.2050 C   0  0  0  0  0  3  0  0  0  0  0  0
  194.7460  171.1100  141.9960 C   0  0  0  0  0  3  0  0  0  0  0  0
  195.5260  172.3740  142.1460 C   0  0  0  0  0  2  0  0  0  0  0  0
  194.9780  173.1390  143.1790 O   0  0  0  0  0  1  0  0  0  0  0  0
  1 20  2  0  0  0  0
  1 16  1  0  0  0  0
  4 15  2  0  0  0  0
  4 17  1  0  0  0  0
  5  3  2  0  0  0  0
  6 14  1  6  0  0  0
  7  1  1  0  0  0  0
  8 13  1  0  0  0  0
  9 12  1  0  0  0  0
  9  8  1  0  0  0  0
 10  3  1  0  0  0  0
 10 12  2  0  0  0  0
 11 18  1  6  0  0  0
 11 20  1  0  0  0  0
 11  5  1  0  0  0  0
 12 21  1  0  0  0  0
 13  6  1  0  0  0  0
 13 24  1  1  0  0  0
 14 17  1  0  0  0  0
 16  9  2  0  0  0  0
 17  2  1  6  0  0  0
 19 11  1  0  0  0  0
 20 10  1  0  0  0  0
 21 22  1  0  0  0  0
 21  6  1  0  0  0  0
 22  4  1  0  0  0  0
 24 23  1  1  0  0  0
 26 27  1  1  0  0  0
 26 24  1  0  0  0  0
 26 25  1  0  0  0  0
 28  5  1  0  0  0  0
 28 29  1  0  0  0  0
 29 30  2  0  0  0  0
 30 31  1  0  0  0  0
 31 32  1  0  0  0  0
M  END
>  <MODEL>
9

>  <REMARK>
 VINA RESULT:      -6.3      1.851      2.283
  Name = 
  5 active torsions:
  status: ('A' for Active; 'I' for Inactive)
    1  A    between atoms: C_1  and  C_30
    2  A    between atoms: C_6  and  O_9
    3  A    between atoms: C_7  and  O_9
    4  A    between atoms: C_16  and  C_28
    5  A    between atoms: C_25  and  C_28
                            x       y       z     vdW  Elec       q    Type
                         _______ _______ _______ _____ _____    ______ ____

>  <TORSDO>
F 5

$$$$
