=
 OpenBabel11062422353D

 67 74  0  0  1  0  0  0  0  0999 V2000
  194.4700  175.5640  144.5760 C   0  0  1  0  0  3  0  0  0  0  0  0
  193.7350  176.5820  146.7000 O   0  0  0  0  0  0  0  0  0  0  0  0
  192.9680  174.3650  145.8290 C   0  0  0  0  0  2  0  0  0  0  0  0
  194.3440  174.3350  145.3140 N   0  0  0  0  0  2  0  0  0  0  0  0
  194.5570  176.7540  145.5380 C   0  0  0  0  0  2  0  0  0  0  0  0
  192.6210  175.7170  146.4920 C   0  0  2  0  0  3  0  0  0  0  0  0
  195.3280  175.4840  143.2950 C   0  0  1  0  0  0  0  0  0  0  0  0
  196.7520  175.8380  143.3910 C   0  0  0  0  0  2  0  0  0  0  0  0
  196.3130  174.4940  143.3220 O   0  0  0  0  0  0  0  0  0  0  0  0
  194.7530  175.6260  142.0030 O   0  0  0  0  0  0  0  0  0  0  0  0
  195.4460  174.8040  141.0870 C   0  0  2  0  0  3  0  0  0  0  0  0
  195.2520  172.4810  138.6270 C   0  0  2  0  0  3  0  0  0  0  0  0
  195.9090  173.6150  137.8270 C   0  0  1  0  0  3  0  0  0  0  0  0
  195.0330  175.1170  139.6680 C   0  0  2  0  0  3  0  0  0  0  0  0
  194.5340  173.8270  140.3540 C   0  0  1  0  0  3  0  0  0  0  0  0
  195.3180  172.6870  140.0310 O   0  0  0  0  0  0  0  0  0  0  0  0
  194.9960  173.9960  136.6820 C   0  0  0  0  0  1  0  0  0  0  0  0
  196.1910  174.8330  138.7070 C   0  0  0  0  0  2  0  0  0  0  0  0
  195.7180  171.2120  138.2070 O   0  0  0  0  0  0  0  0  0  0  0  0
  195.8890  170.4340  135.8840 C   0  0  2  0  0  3  0  0  0  0  0  0
  197.0040  170.0930  136.6640 O   0  0  0  0  0  0  0  0  0  0  0  0
  196.3990  171.3310  136.9700 C   0  0  2  0  0  3  0  0  0  0  0  0
  194.7070  169.5570  136.2730 C   0  0  0  0  0  2  0  0  0  0  0  0
  193.4310  170.1370  135.6850 C   0  0  1  0  0  3  0  0  0  0  0  0
  192.6280  169.0520  134.9740 C   0  0  0  0  0  1  0  0  0  0  0  0
  192.5860  170.7950  136.7340 C   0  0  0  0  0  0  0  0  0  0  0  0
  191.9610  171.9820  136.5100 N   0  0  0  0  0  0  0  0  0  0  0  0
  190.4140  171.6830  139.7340 N   0  0  0  0  0  2  0  0  0  0  0  0
  191.1880  172.3650  137.5310 N   0  0  0  0  0  0  0  0  0  0  0  0
  191.1960  171.4910  138.5590 C   0  0  0  0  0  0  0  0  0  0  0  0
  192.1690  170.1510  138.2460 S   0  0  0  0  0  0  0  0  0  0  0  0
  190.3610  170.7300  140.7170 O   0  0  0  0  0  0  0  0  0  0  0  0
  193.2310  170.6360  143.0420 C   0  0  0  0  0  3  0  0  0  0  0  0
  192.4730  170.4740  141.8810 C   0  0  0  0  0  3  0  0  0  0  0  0
  191.3490  171.5560  144.1800 C   0  0  0  0  0  3  0  0  0  0  0  0
  189.1390  171.8490  143.0730 C   0  0  0  0  0  1  0  0  0  0  0  0
  191.1230  170.8570  141.8790 C   0  0  0  0  0  0  0  0  0  0  0  0
  190.5540  171.3990  143.0420 C   0  0  0  0  0  0  0  0  0  0  0  0
  192.6610  171.1740  144.1580 N   0  0  0  0  0  0  0  0  0  0  0  0
  191.2880  176.3810  146.0380 C   0  0  2  0  0  3  0  0  0  0  0  0
  190.8170  177.5280  146.9680 C   0  0  2  0  0  3  0  0  0  0  0  0
  191.1190  177.1330  148.4060 C   0  0  0  0  0  1  0  0  0  0  0  0
  189.0300  178.3600  148.0070 C   0  0  0  0  0  1  0  0  0  0  0  0
  189.4290  177.7070  146.8490 O   0  0  0  0  0  0  0  0  0  0  0  0
  190.1540  175.5310  145.4730 C   0  0  2  0  0  3  0  0  0  0  0  0
  189.9540  174.2840  146.3290 C   0  0  0  0  0  2  0  0  0  0  0  0
  188.9700  174.4510  147.4730 C   0  0  0  0  0  1  0  0  0  0  0  0
  190.5120  175.2170  144.0220 C   0  0  0  0  0  2  0  0  0  0  0  0
  189.7950  176.1020  143.0160 C   0  0  0  0  0  2  0  0  0  0  0  0
  188.4630  175.6250  140.8600 N   0  0  0  0  0  2  0  0  0  0  0  0
  187.4560  176.6440  141.0130 C   0  0  0  0  0  0  0  0  0  0  0  0
  189.5550  175.3310  141.7560 C   0  0  0  0  0  0  0  0  0  0  0  0
  190.3410  174.3940  141.4520 O   0  0  0  0  0  0  0  0  0  0  0  0
  186.8920  177.0870  139.9750 O   0  0  0  0  0  0  0  0  0  0  0  0
  187.1440  177.2630  142.3310 C   0  0  1  0  0  3  0  0  0  0  0  0
  187.3180  178.7750  142.2540 C   0  0  0  0  0  1  0  0  0  0  0  0
  185.7210  175.6310  143.4680 O   0  0  0  0  0  1  0  0  0  0  0  0
  185.7660  176.9130  142.8980 C   0  0  1  0  0  3  0  0  0  0  0  0
  185.1960  177.9940  143.8360 C   0  0  2  0  0  3  0  0  0  0  0  0
  185.5810  179.2320  146.0970 C   0  0  0  0  0  2  0  0  0  0  0  0
  184.3510  178.3890  146.3520 C   0  0  0  0  0  2  0  0  0  0  0  0
  185.3970  177.9100  145.3710 C   0  0  0  0  0  0  0  0  0  0  0  0
  186.2000  176.8940  145.8710 O   0  0  0  0  0  1  0  0  0  0  0  0
  183.9150  178.6610  143.2790 C   0  0  0  0  0  2  0  0  0  0  0  0
  184.3750  178.7030  140.8290 O   0  0  0  0  0  0  0  0  0  0  0  0
  182.5130  177.6150  141.6490 O   0  0  0  0  0  1  0  0  0  0  0  0
  183.5720  178.2580  141.8810 C   0  0  0  0  0  0  0  0  0  0  0  0
  1  4  1  0  0  0  0
  1  5  1  1  0  0  0
  3  6  1  0  0  0  0
  4  3  1  0  0  0  0
  5  2  1  0  0  0  0
  6 40  1  6  0  0  0
  6  2  1  0  0  0  0
  7 10  1  6  0  0  0
  7  9  1  0  0  0  0
  7  8  1  0  0  0  0
  7  1  1  0  0  0  0
  9  8  1  0  0  0  0
 11 10  1  1  0  0  0
 12 19  1  1  0  0  0
 12 16  1  0  0  0  0
 13 17  1  6  0  0  0
 13 12  1  0  0  0  0
 13 18  1  0  0  0  0
 14 18  1  6  0  0  0
 14 15  1  0  0  0  0
 14 11  1  0  0  0  0
 15 16  1  6  0  0  0
 15 11  1  0  0  0  0
 20 23  1  1  0  0  0
 20 21  1  0  0  0  0
 20 22  1  0  0  0  0
 21 22  1  0  0  0  0
 22 19  1  1  0  0  0
 24 25  1  1  0  0  0
 24 23  1  0  0  0  0
 24 26  1  0  0  0  0
 26 31  1  0  0  0  0
 27 26  2  0  0  0  0
 27 29  1  0  0  0  0
 28 32  1  0  0  0  0
 29 30  2  0  0  0  0
 30 28  1  0  0  0  0
 31 30  1  0  0  0  0
 32 37  1  0  0  0  0
 33 39  1  0  0  0  0
 34 33  2  0  0  0  0
 37 34  1  0  0  0  0
 37 38  2  0  0  0  0
 38 36  1  0  0  0  0
 38 35  1  0  0  0  0
 39 35  2  0  0  0  0
 40 45  1  1  0  0  0
 40 41  1  0  0  0  0
 41 42  1  1  0  0  0
 44 41  1  0  0  0  0
 44 43  1  0  0  0  0
 45 48  1  6  0  0  0
 45 46  1  0  0  0  0
 46 47  1  0  0  0  0
 49 48  1  0  0  0  0
 50 51  1  0  0  0  0
 50 52  1  0  0  0  0
 51 55  1  0  0  0  0
 52 49  1  0  0  0  0
 53 52  2  0  0  0  0
 54 51  2  0  0  0  0
 55 56  1  6  0  0  0
 55 58  1  0  0  0  0
 58 57  1  1  0  0  0
 58 59  1  0  0  0  0
 59 64  1  1  0  0  0
 59 62  1  0  0  0  0
 60 61  1  0  0  0  0
 62 63  1  0  0  0  0
 62 60  1  0  0  0  0
 62 61  1  0  0  0  0
 65 67  2  0  0  0  0
 66 67  1  0  0  0  0
 67 64  1  0  0  0  0
M  END
>  <MODEL>
1

>  <REMARK>
 VINA RESULT:      -5.8      0.000      0.000
  Name = 
  24 active torsions:
  status: ('A' for Active; 'I' for Inactive)
    1  A    between atoms: C_1  and  C_18
    2  A    between atoms: C_3  and  C_31
    3  A    between atoms: C_3  and  C_55
    4  A    between atoms: C_5  and  C_30
    5  A    between atoms: C_5  and  C_33
    6  A    between atoms: C_5  and  C_40
    7  A    between atoms: C_6  and  C_12
    8  A    between atoms: C_6  and  C_42
    9  A    between atoms: C_6  and  C_44
   10  A    between atoms: C_7  and  O_17
   11  A    between atoms: C_10  and  C_31
   12  A    between atoms: C_11  and  O_54
   13  A    between atoms: C_12  and  C_26
   14  A    between atoms: C_12  and  C_67
   15  A    between atoms: N_15  and  O_62
   16  A    between atoms: O_17  and  C_18
   17  A    between atoms: C_26  and  O_61
   18  A    between atoms: C_30  and  C_35
   19  A    between atoms: C_33  and  C_34
   20  A    between atoms: C_35  and  C_39
   21  A    between atoms: C_41  and  C_42
   22  A    between atoms: C_41  and  C_59
   23  A    between atoms: C_46  and  O_62
   24  A    between atoms: O_54  and  C_63
                            x       y       z     vdW  Elec       q    Type
                         _______ _______ _______ _____ _____    ______ ____

>  <TORSDO>
F 24

$$$$
=
 OpenBabel11062422353D

 67 74  0  0  1  0  0  0  0  0999 V2000
  190.7090  176.3510  144.6210 C   0  0  1  0  0  3  0  0  0  0  0  0
  193.0440  177.0720  144.9600 O   0  0  0  0  0  0  0  0  0  0  0  0
  192.0260  176.4950  142.7480 C   0  0  0  0  0  2  0  0  0  0  0  0
  190.8390  177.0790  143.3870 N   0  0  0  0  0  2  0  0  0  0  0  0
  191.7980  176.7820  145.6080 C   0  0  0  0  0  2  0  0  0  0  0  0
  193.2200  176.3850  143.7230 C   0  0  2  0  0  3  0  0  0  0  0  0
  189.2610  176.0660  145.0750 C   0  0  1  0  0  0  0  0  0  0  0  0
  189.0470  175.5830  146.4470 C   0  0  0  0  0  2  0  0  0  0  0  0
  188.7900  176.9240  146.0730 O   0  0  0  0  0  0  0  0  0  0  0  0
  188.2420  175.7240  144.1450 O   0  0  0  0  0  0  0  0  0  0  0  0
  187.5170  176.8840  143.7930 C   0  0  2  0  0  3  0  0  0  0  0  0
  184.5110  178.2450  143.0190 C   0  0  2  0  0  3  0  0  0  0  0  0
  184.8030  179.0360  144.3020 C   0  0  1  0  0  3  0  0  0  0  0  0
  186.4390  177.1710  144.8110 C   0  0  2  0  0  3  0  0  0  0  0  0
  186.0660  176.5940  143.4290 C   0  0  1  0  0  3  0  0  0  0  0  0
  185.6610  177.5910  142.5010 O   0  0  0  0  0  0  0  0  0  0  0  0
  183.7120  178.7490  145.3110 C   0  0  0  0  0  1  0  0  0  0  0  0
  186.1700  178.6780  144.8840 C   0  0  0  0  0  2  0  0  0  0  0  0
  183.8170  179.0320  142.0700 O   0  0  0  0  0  0  0  0  0  0  0  0
  181.8180  178.3660  140.8100 C   0  0  2  0  0  3  0  0  0  0  0  0
  182.3290  177.3390  141.6170 O   0  0  0  0  0  0  0  0  0  0  0  0
  183.2880  178.2060  141.0490 C   0  0  2  0  0  3  0  0  0  0  0  0
  181.1320  179.4070  141.6840 C   0  0  0  0  0  2  0  0  0  0  0  0
  179.7030  179.6080  141.2060 C   0  0  1  0  0  3  0  0  0  0  0  0
  179.6420  180.7000  140.1430 C   0  0  0  0  0  1  0  0  0  0  0  0
  179.1130  178.3380  140.6710 C   0  0  0  0  0  0  0  0  0  0  0  0
  178.3510  177.5200  141.4450 N   0  0  0  0  0  0  0  0  0  0  0  0
  177.7470  175.4820  138.5530 N   0  0  0  0  0  2  0  0  0  0  0  0
  177.8460  176.4830  140.7680 N   0  0  0  0  0  0  0  0  0  0  0  0
  178.2030  176.4760  139.4670 C   0  0  0  0  0  0  0  0  0  0  0  0
  179.1700  177.7970  139.0650 S   0  0  0  0  0  0  0  0  0  0  0  0
  178.0400  175.5570  137.2170 O   0  0  0  0  0  0  0  0  0  0  0  0
  181.5460  174.4850  136.7530 C   0  0  0  0  0  3  0  0  0  0  0  0
  180.4300  175.1500  137.2660 C   0  0  0  0  0  3  0  0  0  0  0  0
  180.1840  173.3790  135.1410 C   0  0  0  0  0  3  0  0  0  0  0  0
  177.7240  173.7390  135.0060 C   0  0  0  0  0  1  0  0  0  0  0  0
  179.1690  174.9240  136.6940 C   0  0  0  0  0  0  0  0  0  0  0  0
  179.0440  174.0320  135.6170 C   0  0  0  0  0  0  0  0  0  0  0  0
  181.4020  173.6160  135.7120 N   0  0  0  0  0  0  0  0  0  0  0  0
  193.9340  175.0030  143.7790 C   0  0  2  0  0  3  0  0  0  0  0  0
  193.9290  174.3570  145.1890 C   0  0  2  0  0  3  0  0  0  0  0  0
  195.3540  173.9450  145.5310 C   0  0  0  0  0  1  0  0  0  0  0  0
  194.0120  172.1320  145.2630 C   0  0  0  0  0  1  0  0  0  0  0  0
  193.1310  173.2020  145.1880 O   0  0  0  0  0  0  0  0  0  0  0  0
  195.2160  174.7630  142.9880 C   0  0  2  0  0  3  0  0  0  0  0  0
  196.0850  176.0170  142.9980 C   0  0  0  0  0  2  0  0  0  0  0  0
  197.3020  175.9520  142.0930 C   0  0  0  0  0  1  0  0  0  0  0  0
  194.7980  174.3280  141.5850 C   0  0  0  0  0  2  0  0  0  0  0  0
  193.9680  173.0550  141.5670 C   0  0  0  0  0  2  0  0  0  0  0  0
  195.0310  171.5840  139.7350 N   0  0  0  0  0  2  0  0  0  0  0  0
  194.4760  172.2540  138.5870 C   0  0  0  0  0  0  0  0  0  0  0  0
  194.8230  171.9080  141.1260 C   0  0  0  0  0  0  0  0  0  0  0  0
  195.3970  171.2020  141.9960 O   0  0  0  0  0  0  0  0  0  0  0  0
  195.0980  172.1790  137.4930 O   0  0  0  0  0  0  0  0  0  0  0  0
  193.2650  173.1150  138.6780 C   0  0  1  0  0  3  0  0  0  0  0  0
  193.5760  174.5140  138.1580 C   0  0  0  0  0  1  0  0  0  0  0  0
  192.2420  172.2510  136.6320 O   0  0  0  0  0  1  0  0  0  0  0  0
  192.0210  172.5540  137.9840 C   0  0  1  0  0  3  0  0  0  0  0  0
  191.3670  171.3880  138.7490 C   0  0  2  0  0  3  0  0  0  0  0  0
  190.6570  168.8910  138.9790 C   0  0  0  0  0  2  0  0  0  0  0  0
  190.3490  169.2220  137.5340 C   0  0  0  0  0  2  0  0  0  0  0  0
  191.4850  169.9290  138.2390 C   0  0  0  0  0  0  0  0  0  0  0  0
  192.7400  169.4650  137.8680 O   0  0  0  0  0  1  0  0  0  0  0  0
  190.0970  171.8130  139.5260 C   0  0  0  0  0  2  0  0  0  0  0  0
  190.3210  172.0150  142.0010 O   0  0  0  0  0  1  0  0  0  0  0  0
  190.5390  173.8740  140.6550 O   0  0  0  0  0  0  0  0  0  0  0  0
  190.3710  172.6300  140.7490 C   0  0  0  0  0  0  0  0  0  0  0  0
  1  7  1  0  0  0  0
  1  5  1  1  0  0  0
  2  5  1  0  0  0  0
  3  4  1  0  0  0  0
  3  6  1  0  0  0  0
  4  1  1  0  0  0  0
  6 40  1  1  0  0  0
  6  2  1  0  0  0  0
  7 10  1  6  0  0  0
  7  9  1  0  0  0  0
  7  8  1  0  0  0  0
  9  8  1  0  0  0  0
 11 10  1  1  0  0  0
 11 14  1  0  0  0  0
 12 19  1  6  0  0  0
 12 13  1  0  0  0  0
 13 18  1  0  0  0  0
 13 17  1  1  0  0  0
 14 18  1  6  0  0  0
 15 16  1  6  0  0  0
 15 11  1  0  0  0  0
 15 14  1  0  0  0  0
 16 12  1  0  0  0  0
 20 22  1  0  0  0  0
 20 21  1  0  0  0  0
 20 23  1  1  0  0  0
 22 21  1  0  0  0  0
 22 19  1  1  0  0  0
 24 25  1  6  0  0  0
 24 23  1  0  0  0  0
 26 24  1  0  0  0  0
 26 27  2  0  0  0  0
 28 30  1  0  0  0  0
 29 27  1  0  0  0  0
 30 29  2  0  0  0  0
 31 30  1  0  0  0  0
 31 26  1  0  0  0  0
 32 28  1  0  0  0  0
 33 34  1  0  0  0  0
 35 38  2  0  0  0  0
 35 39  1  0  0  0  0
 36 38  1  0  0  0  0
 37 32  1  0  0  0  0
 37 34  2  0  0  0  0
 38 37  1  0  0  0  0
 39 33  2  0  0  0  0
 40 45  1  1  0  0  0
 40 41  1  0  0  0  0
 41 42  1  6  0  0  0
 44 41  1  0  0  0  0
 44 43  1  0  0  0  0
 45 48  1  6  0  0  0
 45 46  1  0  0  0  0
 47 46  1  0  0  0  0
 49 48  1  0  0  0  0
 50 52  1  0  0  0  0
 51 55  1  0  0  0  0
 51 50  1  0  0  0  0
 52 49  1  0  0  0  0
 52 53  2  0  0  0  0
 54 51  2  0  0  0  0
 55 56  1  6  0  0  0
 58 57  1  6  0  0  0
 58 55  1  0  0  0  0
 58 59  1  0  0  0  0
 59 64  1  6  0  0  0
 61 62  1  0  0  0  0
 61 60  1  0  0  0  0
 62 59  1  0  0  0  0
 62 60  1  0  0  0  0
 63 62  1  0  0  0  0
 64 67  1  0  0  0  0
 66 67  2  0  0  0  0
 67 65  1  0  0  0  0
M  END
>  <MODEL>
2

>  <REMARK>
 VINA RESULT:      -5.6      4.570     11.241
  Name = 
  24 active torsions:
  status: ('A' for Active; 'I' for Inactive)
    1  A    between atoms: C_1  and  C_18
    2  A    between atoms: C_3  and  C_31
    3  A    between atoms: C_3  and  C_55
    4  A    between atoms: C_5  and  C_30
    5  A    between atoms: C_5  and  C_33
    6  A    between atoms: C_5  and  C_40
    7  A    between atoms: C_6  and  C_12
    8  A    between atoms: C_6  and  C_42
    9  A    between atoms: C_6  and  C_44
   10  A    between atoms: C_7  and  O_17
   11  A    between atoms: C_10  and  C_31
   12  A    between atoms: C_11  and  O_54
   13  A    between atoms: C_12  and  C_26
   14  A    between atoms: C_12  and  C_67
   15  A    between atoms: N_15  and  O_62
   16  A    between atoms: O_17  and  C_18
   17  A    between atoms: C_26  and  O_61
   18  A    between atoms: C_30  and  C_35
   19  A    between atoms: C_33  and  C_34
   20  A    between atoms: C_35  and  C_39
   21  A    between atoms: C_41  and  C_42
   22  A    between atoms: C_41  and  C_59
   23  A    between atoms: C_46  and  O_62
   24  A    between atoms: O_54  and  C_63
                            x       y       z     vdW  Elec       q    Type
                         _______ _______ _______ _____ _____    ______ ____

>  <TORSDO>
F 24

$$$$
=
 OpenBabel11062422353D

 67 74  0  0  1  0  0  0  0  0999 V2000
  189.8660  172.3900  141.2400 C   0  0  1  0  0  3  0  0  0  0  0  0
  190.7230  173.9300  139.5140 O   0  0  0  0  0  0  0  0  0  0  0  0
  188.7540  172.4120  139.2340 C   0  0  0  0  0  2  0  0  0  0  0  0
  188.5900  172.7170  140.6620 N   0  0  0  0  0  2  0  0  0  0  0  0
  190.9110  173.4390  140.8490 C   0  0  0  0  0  2  0  0  0  0  0  0
  190.0550  173.0100  138.6540 C   0  0  2  0  0  3  0  0  0  0  0  0
  189.8140  171.7760  142.6560 C   0  0  1  0  0  0  0  0  0  0  0  0
  189.5920  172.6790  143.7950 C   0  0  0  0  0  2  0  0  0  0  0  0
  188.5630  171.8570  143.2750 O   0  0  0  0  0  0  0  0  0  0  0  0
  190.4830  170.5600  142.9670 O   0  0  0  0  0  0  0  0  0  0  0  0
  191.8780  170.7740  142.9560 C   0  0  2  0  0  3  0  0  0  0  0  0
  194.5620  172.1740  144.4810 C   0  0  2  0  0  3  0  0  0  0  0  0
  194.9720  170.7000  144.5930 C   0  0  1  0  0  3  0  0  0  0  0  0
  192.5150  170.2220  144.2090 C   0  0  2  0  0  3  0  0  0  0  0  0
  192.3420  171.7450  144.0350 C   0  0  1  0  0  3  0  0  0  0  0  0
  193.5120  172.3850  143.5460 O   0  0  0  0  0  0  0  0  0  0  0  0
  195.1110  170.3430  146.0570 C   0  0  0  0  0  1  0  0  0  0  0  0
  193.9530  169.7800  143.9200 C   0  0  0  0  0  2  0  0  0  0  0  0
  195.6860  173.0120  144.2850 O   0  0  0  0  0  0  0  0  0  0  0  0
  194.9740  175.3620  144.3160 C   0  0  2  0  0  3  0  0  0  0  0  0
  193.9870  174.4930  143.8270 O   0  0  0  0  0  0  0  0  0  0  0  0
  195.3190  174.1430  143.5160 C   0  0  2  0  0  3  0  0  0  0  0  0
  195.0960  175.2000  145.8240 C   0  0  0  0  0  2  0  0  0  0  0  0
  194.3340  176.3180  146.5170 C   0  0  1  0  0  3  0  0  0  0  0  0
  194.5610  177.6450  145.8010 C   0  0  0  0  0  1  0  0  0  0  0  0
  192.8660  176.0230  146.5960 C   0  0  0  0  0  0  0  0  0  0  0  0
  192.3110  175.4320  147.6870 N   0  0  0  0  0  0  0  0  0  0  0  0
  189.0830  175.8630  146.1800 N   0  0  0  0  0  2  0  0  0  0  0  0
  190.9810  175.3290  147.6060 N   0  0  0  0  0  0  0  0  0  0  0  0
  190.4800  175.8350  146.4590 C   0  0  0  0  0  0  0  0  0  0  0  0
  191.6840  176.4720  145.4660 S   0  0  0  0  0  0  0  0  0  0  0  0
  188.5950  176.4750  145.0560 O   0  0  0  0  0  0  0  0  0  0  0  0
  185.1140  177.2310  146.0370 C   0  0  0  0  0  3  0  0  0  0  0  0
  186.4070  176.7040  146.0740 C   0  0  0  0  0  3  0  0  0  0  0  0
  185.5680  178.2780  143.9450 C   0  0  0  0  0  3  0  0  0  0  0  0
  187.7790  178.0920  142.8170 C   0  0  0  0  0  1  0  0  0  0  0  0
  187.2900  176.9680  145.0170 C   0  0  0  0  0  0  0  0  0  0  0  0
  186.8650  177.7600  143.9380 C   0  0  0  0  0  0  0  0  0  0  0  0
  184.7240  178.0050  144.9840 N   0  0  0  0  0  0  0  0  0  0  0  0
  190.9490  172.0380  137.8310 C   0  0  2  0  0  3  0  0  0  0  0  0
  190.9990  172.3700  136.3170 C   0  0  2  0  0  3  0  0  0  0  0  0
  192.1410  173.3480  136.0800 C   0  0  0  0  0  1  0  0  0  0  0  0
  190.1800  174.0450  135.0970 C   0  0  0  0  0  1  0  0  0  0  0  0
  189.8040  172.9940  135.9200 O   0  0  0  0  0  0  0  0  0  0  0  0
  190.9560  170.5440  138.1410 C   0  0  2  0  0  3  0  0  0  0  0  0
  191.9280  170.2460  139.2790 C   0  0  0  0  0  2  0  0  0  0  0  0
  191.6750  168.9360  140.0020 C   0  0  0  0  0  1  0  0  0  0  0  0
  191.3060  169.8210  136.8420 C   0  0  0  0  0  2  0  0  0  0  0  0
  192.7730  169.4360  136.7390 C   0  0  0  0  0  2  0  0  0  0  0  0
  194.4140  168.7260  134.8800 N   0  0  0  0  0  2  0  0  0  0  0  0
  195.6390  168.8710  135.6240 C   0  0  0  0  0  0  0  0  0  0  0  0
  193.0710  168.9800  135.3450 C   0  0  0  0  0  0  0  0  0  0  0  0
  192.1180  168.7960  134.5420 O   0  0  0  0  0  0  0  0  0  0  0  0
  196.6360  168.1830  135.2730 O   0  0  0  0  0  0  0  0  0  0  0  0
  195.7310  169.7130  136.8490 C   0  0  1  0  0  3  0  0  0  0  0  0
  196.2370  168.8810  138.0210 C   0  0  0  0  0  1  0  0  0  0  0  0
  197.2140  171.0650  135.4510 O   0  0  0  0  0  1  0  0  0  0  0  0
  196.5720  170.9830  136.6960 C   0  0  1  0  0  3  0  0  0  0  0  0
  195.8050  172.2720  137.0480 C   0  0  2  0  0  3  0  0  0  0  0  0
  195.9300  174.3200  135.4410 C   0  0  0  0  0  2  0  0  0  0  0  0
  195.5670  174.9310  136.7770 C   0  0  0  0  0  2  0  0  0  0  0  0
  196.3980  173.6690  136.7320 C   0  0  0  0  0  0  0  0  0  0  0  0
  197.7440  173.8840  136.9970 O   0  0  0  0  0  1  0  0  0  0  0  0
  194.8820  172.1070  138.2790 C   0  0  0  0  0  2  0  0  0  0  0  0
  195.2330  173.7720  140.1020 O   0  0  0  0  0  0  0  0  0  0  0  0
  196.3580  171.7590  140.1280 O   0  0  0  0  0  1  0  0  0  0  0  0
  195.5100  172.5090  139.5760 C   0  0  0  0  0  0  0  0  0  0  0  0
  1  5  1  1  0  0  0
  1  7  1  0  0  0  0
  2  5  1  0  0  0  0
  3  4  1  0  0  0  0
  4  1  1  0  0  0  0
  6 40  1  1  0  0  0
  6  3  1  0  0  0  0
  6  2  1  0  0  0  0
  7 10  1  1  0  0  0
  7  9  1  0  0  0  0
  7  8  1  0  0  0  0
  9  8  1  0  0  0  0
 11 10  1  1  0  0  0
 11 15  1  0  0  0  0
 11 14  1  0  0  0  0
 12 19  1  6  0  0  0
 12 13  1  0  0  0  0
 13 17  1  1  0  0  0
 14 18  1  6  0  0  0
 15 16  1  6  0  0  0
 15 14  1  0  0  0  0
 16 12  1  0  0  0  0
 18 13  1  0  0  0  0
 20 23  1  1  0  0  0
 21 20  1  0  0  0  0
 22 21  1  0  0  0  0
 22 19  1  1  0  0  0
 22 20  1  0  0  0  0
 23 24  1  0  0  0  0
 24 25  1  6  0  0  0
 24 26  1  0  0  0  0
 26 27  2  0  0  0  0
 28 30  1  0  0  0  0
 29 27  1  0  0  0  0
 30 29  2  0  0  0  0
 31 30  1  0  0  0  0
 31 26  1  0  0  0  0
 32 28  1  0  0  0  0
 33 34  1  0  0  0  0
 35 39  1  0  0  0  0
 36 38  1  0  0  0  0
 37 32  1  0  0  0  0
 37 34  2  0  0  0  0
 38 35  2  0  0  0  0
 38 37  1  0  0  0  0
 39 33  2  0  0  0  0
 40 41  1  6  0  0  0
 40 45  1  0  0  0  0
 41 42  1  1  0  0  0
 43 44  1  0  0  0  0
 44 41  1  0  0  0  0
 45 48  1  6  0  0  0
 45 46  1  0  0  0  0
 46 47  1  0  0  0  0
 49 48  1  0  0  0  0
 50 52  1  0  0  0  0
 50 51  1  0  0  0  0
 51 55  1  0  0  0  0
 52 49  1  0  0  0  0
 53 52  2  0  0  0  0
 54 51  2  0  0  0  0
 55 56  1  1  0  0  0
 58 57  1  6  0  0  0
 58 55  1  0  0  0  0
 58 59  1  0  0  0  0
 59 64  1  1  0  0  0
 60 62  1  0  0  0  0
 60 61  1  0  0  0  0
 62 61  1  0  0  0  0
 62 63  1  0  0  0  0
 62 59  1  0  0  0  0
 64 67  1  0  0  0  0
 67 65  2  0  0  0  0
 67 66  1  0  0  0  0
M  END
>  <MODEL>
3

>  <REMARK>
 VINA RESULT:      -5.3      2.708     10.435
  Name = 
  24 active torsions:
  status: ('A' for Active; 'I' for Inactive)
    1  A    between atoms: C_1  and  C_18
    2  A    between atoms: C_3  and  C_31
    3  A    between atoms: C_3  and  C_55
    4  A    between atoms: C_5  and  C_30
    5  A    between atoms: C_5  and  C_33
    6  A    between atoms: C_5  and  C_40
    7  A    between atoms: C_6  and  C_12
    8  A    between atoms: C_6  and  C_42
    9  A    between atoms: C_6  and  C_44
   10  A    between atoms: C_7  and  O_17
   11  A    between atoms: C_10  and  C_31
   12  A    between atoms: C_11  and  O_54
   13  A    between atoms: C_12  and  C_26
   14  A    between atoms: C_12  and  C_67
   15  A    between atoms: N_15  and  O_62
   16  A    between atoms: O_17  and  C_18
   17  A    between atoms: C_26  and  O_61
   18  A    between atoms: C_30  and  C_35
   19  A    between atoms: C_33  and  C_34
   20  A    between atoms: C_35  and  C_39
   21  A    between atoms: C_41  and  C_42
   22  A    between atoms: C_41  and  C_59
   23  A    between atoms: C_46  and  O_62
   24  A    between atoms: O_54  and  C_63
                            x       y       z     vdW  Elec       q    Type
                         _______ _______ _______ _____ _____    ______ ____

>  <TORSDO>
F 24

$$$$
=
 OpenBabel11062422353D

 67 74  0  0  1  0  0  0  0  0999 V2000
  190.9080  175.9200  144.9670 C   0  0  1  0  0  3  0  0  0  0  0  0
  193.3670  175.9430  144.7600 O   0  0  0  0  0  0  0  0  0  0  0  0
  191.7630  175.9630  142.8390 C   0  0  0  0  0  2  0  0  0  0  0  0
  190.9680  176.7490  143.7930 N   0  0  0  0  0  2  0  0  0  0  0  0
  192.2650  175.9090  145.6780 C   0  0  0  0  0  2  0  0  0  0  0  0
  193.0580  175.4090  143.4750 C   0  0  2  0  0  3  0  0  0  0  0  0
  189.5780  175.9700  145.7480 C   0  0  1  0  0  0  0  0  0  0  0  0
  189.6170  175.7450  147.2000 C   0  0  0  0  0  2  0  0  0  0  0  0
  189.4740  177.0390  146.6430 O   0  0  0  0  0  0  0  0  0  0  0  0
  188.3340  175.6790  145.1220 O   0  0  0  0  0  0  0  0  0  0  0  0
  187.6650  176.8860  144.8210 C   0  0  2  0  0  3  0  0  0  0  0  0
  184.7880  178.3840  143.8400 C   0  0  2  0  0  3  0  0  0  0  0  0
  184.9180  179.0150  145.2330 C   0  0  1  0  0  3  0  0  0  0  0  0
  186.4670  177.0730  145.7210 C   0  0  2  0  0  3  0  0  0  0  0  0
  186.2710  176.6680  144.2450 C   0  0  1  0  0  3  0  0  0  0  0  0
  185.9920  177.7730  143.3970 O   0  0  0  0  0  0  0  0  0  0  0  0
  183.7060  178.6330  146.0560 C   0  0  0  0  0  1  0  0  0  0  0  0
  186.1980  178.5650  145.9380 C   0  0  0  0  0  2  0  0  0  0  0  0
  184.2250  179.2900  142.9100 O   0  0  0  0  0  0  0  0  0  0  0  0
  182.5130  178.5090  141.3330 C   0  0  2  0  0  3  0  0  0  0  0  0
  183.2140  177.4610  141.9500 O   0  0  0  0  0  0  0  0  0  0  0  0
  183.9640  178.6280  141.6860 C   0  0  2  0  0  3  0  0  0  0  0  0
  181.5520  179.1380  142.3310 C   0  0  0  0  0  2  0  0  0  0  0  0
  180.1620  178.5570  142.1320 C   0  0  1  0  0  3  0  0  0  0  0  0
  179.2220  179.0240  143.2390 C   0  0  0  0  0  1  0  0  0  0  0  0
  179.5960  178.9200  140.7910 C   0  0  0  0  0  0  0  0  0  0  0  0
  179.3060  177.9760  139.8570 N   0  0  0  0  0  0  0  0  0  0  0  0
  177.9400  180.5670  137.7830 N   0  0  0  0  0  2  0  0  0  0  0  0
  178.7310  178.4850  138.7630 N   0  0  0  0  0  0  0  0  0  0  0  0
  178.5650  179.8230  138.8250 C   0  0  0  0  0  0  0  0  0  0  0  0
  179.1150  180.4640  140.2840 S   0  0  0  0  0  0  0  0  0  0  0  0
  177.6920  181.9070  137.9170 O   0  0  0  0  0  0  0  0  0  0  0  0
  180.7390  183.6840  136.8160 C   0  0  0  0  0  3  0  0  0  0  0  0
  179.7230  182.7270  136.8780 C   0  0  0  0  0  3  0  0  0  0  0  0
  179.7940  184.8510  138.6670 C   0  0  0  0  0  3  0  0  0  0  0  0
  177.7180  184.0820  139.8050 C   0  0  0  0  0  1  0  0  0  0  0  0
  178.7310  182.8380  137.8630 C   0  0  0  0  0  0  0  0  0  0  0  0
  178.7680  183.9090  138.7700 C   0  0  0  0  0  0  0  0  0  0  0  0
  180.7520  184.7210  137.7010 N   0  0  0  0  0  0  0  0  0  0  0  0
  193.3350  173.8930  143.2550 C   0  0  2  0  0  3  0  0  0  0  0  0
  192.4610  172.9680  144.1400 C   0  0  2  0  0  3  0  0  0  0  0  0
  193.3730  171.9630  144.8290 C   0  0  0  0  0  1  0  0  0  0  0  0
  191.8850  170.9140  143.4930 C   0  0  0  0  0  1  0  0  0  0  0  0
  191.5530  172.2530  143.3410 O   0  0  0  0  0  0  0  0  0  0  0  0
  194.7600  173.3900  143.0440 C   0  0  2  0  0  3  0  0  0  0  0  0
  195.7510  174.2940  143.7700 C   0  0  0  0  0  2  0  0  0  0  0  0
  197.1620  174.2660  143.2110 C   0  0  0  0  0  1  0  0  0  0  0  0
  194.9910  173.3270  141.5360 C   0  0  0  0  0  2  0  0  0  0  0  0
  194.4050  172.0850  140.8850 C   0  0  0  0  0  2  0  0  0  0  0  0
  195.7540  171.7670  138.7100 N   0  0  0  0  0  2  0  0  0  0  0  0
  195.1110  172.7840  137.9200 C   0  0  0  0  0  0  0  0  0  0  0  0
  195.4620  171.4010  140.0750 C   0  0  0  0  0  0  0  0  0  0  0  0
  196.1370  170.4770  140.6030 O   0  0  0  0  0  0  0  0  0  0  0  0
  195.7580  173.3010  136.9690 O   0  0  0  0  0  0  0  0  0  0  0  0
  193.7620  173.3180  138.2570 C   0  0  1  0  0  3  0  0  0  0  0  0
  193.7770  174.8420  138.2190 C   0  0  0  0  0  1  0  0  0  0  0  0
  192.8290  171.4500  136.9840 O   0  0  0  0  0  1  0  0  0  0  0  0
  192.6190  172.7760  137.3940 C   0  0  1  0  0  3  0  0  0  0  0  0
  191.2270  172.9850  138.0180 C   0  0  2  0  0  3  0  0  0  0  0  0
  189.9910  172.2090  140.1780 C   0  0  0  0  0  2  0  0  0  0  0  0
  189.0310  171.8510  139.0640 C   0  0  0  0  0  2  0  0  0  0  0  0
  190.5200  171.8490  138.8000 C   0  0  0  0  0  0  0  0  0  0  0  0
  191.0680  170.5740  138.7400 O   0  0  0  0  0  1  0  0  0  0  0  0
  190.3680  174.0140  137.2440 C   0  0  0  0  0  2  0  0  0  0  0  0
  189.7510  172.5370  135.3330 O   0  0  0  0  0  1  0  0  0  0  0  0
  190.7580  174.5770  134.9530 O   0  0  0  0  0  0  0  0  0  0  0  0
  190.2740  173.7540  135.7750 C   0  0  0  0  0  0  0  0  0  0  0  0
  1  5  1  1  0  0  0
  1  7  1  0  0  0  0
  2  5  1  0  0  0  0
  3  6  1  0  0  0  0
  3  4  1  0  0  0  0
  4  1  1  0  0  0  0
  6 40  1  1  0  0  0
  6  2  1  0  0  0  0
  7 10  1  6  0  0  0
  7  9  1  0  0  0  0
  7  8  1  0  0  0  0
  9  8  1  0  0  0  0
 11 10  1  1  0  0  0
 11 14  1  0  0  0  0
 12 19  1  6  0  0  0
 12 13  1  0  0  0  0
 13 18  1  0  0  0  0
 13 17  1  1  0  0  0
 14 18  1  6  0  0  0
 15 16  1  6  0  0  0
 15 11  1  0  0  0  0
 15 14  1  0  0  0  0
 16 12  1  0  0  0  0
 20 22  1  0  0  0  0
 20 21  1  0  0  0  0
 20 23  1  1  0  0  0
 22 21  1  0  0  0  0
 22 19  1  1  0  0  0
 24 23  1  0  0  0  0
 24 25  1  1  0  0  0
 26 24  1  0  0  0  0
 27 26  2  0  0  0  0
 28 32  1  0  0  0  0
 28 30  1  0  0  0  0
 29 30  2  0  0  0  0
 29 27  1  0  0  0  0
 30 31  1  0  0  0  0
 31 26  1  0  0  0  0
 33 34  2  0  0  0  0
 33 39  1  0  0  0  0
 34 37  1  0  0  0  0
 35 38  1  0  0  0  0
 37 32  1  0  0  0  0
 37 38  2  0  0  0  0
 38 36  1  0  0  0  0
 39 35  2  0  0  0  0
 40 45  1  1  0  0  0
 40 41  1  0  0  0  0
 41 42  1  6  0  0  0
 44 43  1  0  0  0  0
 44 41  1  0  0  0  0
 45 48  1  6  0  0  0
 45 46  1  0  0  0  0
 47 46  1  0  0  0  0
 49 48  1  0  0  0  0
 50 52  1  0  0  0  0
 51 55  1  0  0  0  0
 51 50  1  0  0  0  0
 52 53  2  0  0  0  0
 52 49  1  0  0  0  0
 54 51  2  0  0  0  0
 55 56  1  6  0  0  0
 58 57  1  1  0  0  0
 58 59  1  0  0  0  0
 58 55  1  0  0  0  0
 59 64  1  6  0  0  0
 59 62  1  0  0  0  0
 61 60  1  0  0  0  0
 62 61  1  0  0  0  0
 62 60  1  0  0  0  0
 63 62  1  0  0  0  0
 65 67  1  0  0  0  0
 66 67  2  0  0  0  0
 67 64  1  0  0  0  0
M  END
>  <MODEL>
4

>  <REMARK>
 VINA RESULT:      -5.3      4.866     11.942
  Name = 
  24 active torsions:
  status: ('A' for Active; 'I' for Inactive)
    1  A    between atoms: C_1  and  C_18
    2  A    between atoms: C_3  and  C_31
    3  A    between atoms: C_3  and  C_55
    4  A    between atoms: C_5  and  C_30
    5  A    between atoms: C_5  and  C_33
    6  A    between atoms: C_5  and  C_40
    7  A    between atoms: C_6  and  C_12
    8  A    between atoms: C_6  and  C_42
    9  A    between atoms: C_6  and  C_44
   10  A    between atoms: C_7  and  O_17
   11  A    between atoms: C_10  and  C_31
   12  A    between atoms: C_11  and  O_54
   13  A    between atoms: C_12  and  C_26
   14  A    between atoms: C_12  and  C_67
   15  A    between atoms: N_15  and  O_62
   16  A    between atoms: O_17  and  C_18
   17  A    between atoms: C_26  and  O_61
   18  A    between atoms: C_30  and  C_35
   19  A    between atoms: C_33  and  C_34
   20  A    between atoms: C_35  and  C_39
   21  A    between atoms: C_41  and  C_42
   22  A    between atoms: C_41  and  C_59
   23  A    between atoms: C_46  and  O_62
   24  A    between atoms: O_54  and  C_63
                            x       y       z     vdW  Elec       q    Type
                         _______ _______ _______ _____ _____    ______ ____

>  <TORSDO>
F 24

$$$$
=
 OpenBabel11062422353D

 67 74  0  0  1  0  0  0  0  0999 V2000
  194.6220  175.1810  144.6060 C   0  0  1  0  0  3  0  0  0  0  0  0
  193.7350  175.8260  146.8160 O   0  0  0  0  0  0  0  0  0  0  0  0
  193.2990  173.6420  145.6750 C   0  0  0  0  0  2  0  0  0  0  0  0
  194.6680  173.8680  145.1930 N   0  0  0  0  0  2  0  0  0  0  0  0
  194.5320  176.2480  145.7010 C   0  0  0  0  0  2  0  0  0  0  0  0
  192.7580  174.8430  146.4820 C   0  0  2  0  0  3  0  0  0  0  0  0
  195.4910  175.3750  143.3450 C   0  0  1  0  0  0  0  0  0  0  0  0
  194.8290  175.8100  142.1060 C   0  0  0  0  0  2  0  0  0  0  0  0
  195.5850  176.6990  142.9070 O   0  0  0  0  0  0  0  0  0  0  0  0
  196.7120  174.6690  143.1640 O   0  0  0  0  0  0  0  0  0  0  0  0
  196.4510  173.4290  142.5420 C   0  0  2  0  0  3  0  0  0  0  0  0
  197.7200  170.5980  141.1780 C   0  0  2  0  0  3  0  0  0  0  0  0
  196.9460  169.9690  142.3450 C   0  0  1  0  0  3  0  0  0  0  0  0
  197.0250  172.2910  143.3520 C   0  0  2  0  0  3  0  0  0  0  0  0
  197.7120  172.7340  142.0430 C   0  0  1  0  0  3  0  0  0  0  0  0
  197.3380  171.9430  140.9240 O   0  0  0  0  0  0  0  0  0  0  0  0
  197.9230  169.2330  143.2360 C   0  0  0  0  0  1  0  0  0  0  0  0
  196.1880  171.0240  143.1500 C   0  0  0  0  0  2  0  0  0  0  0  0
  197.7000  169.7660  140.0330 O   0  0  0  0  0  0  0  0  0  0  0  0
  195.9280  169.4680  138.3590 C   0  0  2  0  0  3  0  0  0  0  0  0
  195.6070  170.4180  139.3400 O   0  0  0  0  0  0  0  0  0  0  0  0
  196.3790  169.3220  139.7800 C   0  0  2  0  0  3  0  0  0  0  0  0
  196.9670  170.0460  137.4090 C   0  0  0  0  0  2  0  0  0  0  0  0
  196.3740  170.1510  136.0130 C   0  0  1  0  0  3  0  0  0  0  0  0
  195.8030  168.8070  135.5720 C   0  0  0  0  0  1  0  0  0  0  0  0
  195.3140  171.2090  135.9380 C   0  0  0  0  0  0  0  0  0  0  0  0
  195.5620  172.4350  135.4060 N   0  0  0  0  0  0  0  0  0  0  0  0
  192.0900  173.2330  135.8350 N   0  0  0  0  0  2  0  0  0  0  0  0
  194.4740  173.2090  135.3500 N   0  0  0  0  0  0  0  0  0  0  0  0
  193.3680  172.6040  135.8330 C   0  0  0  0  0  0  0  0  0  0  0  0
  193.6800  171.0300  136.3500 S   0  0  0  0  0  0  0  0  0  0  0  0
  190.9670  172.5590  136.2350 O   0  0  0  0  0  0  0  0  0  0  0  0
  188.2700  174.2690  138.0940 C   0  0  0  0  0  3  0  0  0  0  0  0
  189.0610  173.8300  137.0300 C   0  0  0  0  0  3  0  0  0  0  0  0
  189.6720  173.1310  139.6480 C   0  0  0  0  0  3  0  0  0  0  0  0
  191.6550  171.8090  138.9300 C   0  0  0  0  0  1  0  0  0  0  0  0
  190.1840  173.0310  137.2910 C   0  0  0  0  0  0  0  0  0  0  0  0
  190.4960  172.6810  138.6140 C   0  0  0  0  0  0  0  0  0  0  0  0
  188.5850  173.9100  139.3700 N   0  0  0  0  0  0  0  0  0  0  0  0
  191.3470  175.3610  146.0780 C   0  0  2  0  0  3  0  0  0  0  0  0
  191.0580  175.2550  144.5580 C   0  0  2  0  0  3  0  0  0  0  0  0
  191.2980  176.6200  143.9290 C   0  0  0  0  0  1  0  0  0  0  0  0
  189.7350  173.6810  143.6990 C   0  0  0  0  0  1  0  0  0  0  0  0
  189.7130  174.9090  144.3450 O   0  0  0  0  0  0  0  0  0  0  0  0
  190.7610  176.6060  146.7380 C   0  0  2  0  0  3  0  0  0  0  0  0
  191.5200  176.9270  148.0230 C   0  0  0  0  0  2  0  0  0  0  0  0
  190.9610  178.0960  148.8130 C   0  0  0  0  0  1  0  0  0  0  0  0
  189.2760  176.3320  146.9650 C   0  0  0  0  0  2  0  0  0  0  0  0
  188.3640  177.3340  146.2750 C   0  0  0  0  0  2  0  0  0  0  0  0
  186.2810  178.5380  147.2040 N   0  0  0  0  0  2  0  0  0  0  0  0
  185.3620  178.2010  146.1480 C   0  0  0  0  0  0  0  0  0  0  0  0
  187.6730  178.1710  147.3070 C   0  0  0  0  0  0  0  0  0  0  0  0
  188.3210  178.5630  148.3130 O   0  0  0  0  0  0  0  0  0  0  0  0
  184.1300  178.1700  146.4140 O   0  0  0  0  0  0  0  0  0  0  0  0
  185.8240  177.7820  144.7950 C   0  0  1  0  0  3  0  0  0  0  0  0
  185.3790  176.3530  144.5080 C   0  0  0  0  0  1  0  0  0  0  0  0
  185.7900  180.0440  143.8640 O   0  0  0  0  0  1  0  0  0  0  0  0
  185.4020  178.7110  143.6530 C   0  0  1  0  0  3  0  0  0  0  0  0
  185.8080  178.1940  142.2610 C   0  0  2  0  0  3  0  0  0  0  0  0
  187.4610  176.1930  142.0140 C   0  0  0  0  0  2  0  0  0  0  0  0
  187.6180  176.9540  140.7150 C   0  0  0  0  0  2  0  0  0  0  0  0
  187.2500  177.6980  141.9790 C   0  0  0  0  0  0  0  0  0  0  0  0
  188.3070  178.4120  142.5280 O   0  0  0  0  0  1  0  0  0  0  0  0
  185.0010  178.8500  141.1140 C   0  0  0  0  0  2  0  0  0  0  0  0
  182.6870  177.9590  141.3810 O   0  0  0  0  0  1  0  0  0  0  0  0
  183.9850  177.3160  139.5860 O   0  0  0  0  0  0  0  0  0  0  0  0
  183.8550  178.0240  140.6200 C   0  0  0  0  0  0  0  0  0  0  0  0
  1  4  1  0  0  0  0
  1  5  1  1  0  0  0
  3  6  1  0  0  0  0
  4  3  1  0  0  0  0
  5  2  1  0  0  0  0
  6 40  1  6  0  0  0
  6  2  1  0  0  0  0
  7 10  1  6  0  0  0
  7  1  1  0  0  0  0
  8  9  1  0  0  0  0
  8  7  1  0  0  0  0
  9  7  1  0  0  0  0
 11 10  1  1  0  0  0
 11 14  1  0  0  0  0
 12 19  1  6  0  0  0
 12 13  1  0  0  0  0
 13 18  1  0  0  0  0
 13 17  1  1  0  0  0
 14 18  1  6  0  0  0
 15 16  1  6  0  0  0
 15 11  1  0  0  0  0
 15 14  1  0  0  0  0
 16 12  1  0  0  0  0
 20 23  1  6  0  0  0
 20 21  1  0  0  0  0
 20 22  1  0  0  0  0
 21 22  1  0  0  0  0
 22 19  1  6  0  0  0
 24 25  1  1  0  0  0
 24 23  1  0  0  0  0
 26 24  1  0  0  0  0
 26 31  1  0  0  0  0
 27 26  2  0  0  0  0
 28 32  1  0  0  0  0
 29 27  1  0  0  0  0
 29 30  2  0  0  0  0
 30 28  1  0  0  0  0
 30 31  1  0  0  0  0
 32 37  1  0  0  0  0
 33 39  1  0  0  0  0
 34 37  1  0  0  0  0
 34 33  2  0  0  0  0
 37 38  2  0  0  0  0
 38 36  1  0  0  0  0
 38 35  1  0  0  0  0
 39 35  2  0  0  0  0
 40 41  1  6  0  0  0
 40 45  1  0  0  0  0
 41 42  1  6  0  0  0
 43 44  1  0  0  0  0
 44 41  1  0  0  0  0
 45 48  1  1  0  0  0
 45 46  1  0  0  0  0
 46 47  1  0  0  0  0
 49 48  1  0  0  0  0
 49 52  1  0  0  0  0
 50 52  1  0  0  0  0
 51 54  2  0  0  0  0
 51 50  1  0  0  0  0
 52 53  2  0  0  0  0
 55 56  1  6  0  0  0
 55 51  1  0  0  0  0
 58 57  1  1  0  0  0
 58 55  1  0  0  0  0
 59 64  1  6  0  0  0
 59 58  1  0  0  0  0
 61 62  1  0  0  0  0
 61 60  1  0  0  0  0
 62 60  1  0  0  0  0
 62 59  1  0  0  0  0
 62 63  1  0  0  0  0
 66 67  2  0  0  0  0
 67 64  1  0  0  0  0
 67 65  1  0  0  0  0
M  END
>  <MODEL>
5

>  <REMARK>
 VINA RESULT:      -4.8      2.379      4.264
  Name = 
  24 active torsions:
  status: ('A' for Active; 'I' for Inactive)
    1  A    between atoms: C_1  and  C_18
    2  A    between atoms: C_3  and  C_31
    3  A    between atoms: C_3  and  C_55
    4  A    between atoms: C_5  and  C_30
    5  A    between atoms: C_5  and  C_33
    6  A    between atoms: C_5  and  C_40
    7  A    between atoms: C_6  and  C_12
    8  A    between atoms: C_6  and  C_42
    9  A    between atoms: C_6  and  C_44
   10  A    between atoms: C_7  and  O_17
   11  A    between atoms: C_10  and  C_31
   12  A    between atoms: C_11  and  O_54
   13  A    between atoms: C_12  and  C_26
   14  A    between atoms: C_12  and  C_67
   15  A    between atoms: N_15  and  O_62
   16  A    between atoms: O_17  and  C_18
   17  A    between atoms: C_26  and  O_61
   18  A    between atoms: C_30  and  C_35
   19  A    between atoms: C_33  and  C_34
   20  A    between atoms: C_35  and  C_39
   21  A    between atoms: C_41  and  C_42
   22  A    between atoms: C_41  and  C_59
   23  A    between atoms: C_46  and  O_62
   24  A    between atoms: O_54  and  C_63
                            x       y       z     vdW  Elec       q    Type
                         _______ _______ _______ _____ _____    ______ ____

>  <TORSDO>
F 24

$$$$
=
 OpenBabel11062422353D

 67 74  0  0  1  0  0  0  0  0999 V2000
  191.7390  172.4040  142.5910 C   0  0  1  0  0  3  0  0  0  0  0  0
  193.0370  172.2900  144.6870 O   0  0  0  0  0  0  0  0  0  0  0  0
  193.9990  172.7620  142.4250 C   0  0  0  0  0  2  0  0  0  0  0  0
  192.6980  173.4210  142.2480 N   0  0  0  0  0  2  0  0  0  0  0  0
  191.7310  172.1720  144.1050 C   0  0  0  0  0  2  0  0  0  0  0  0
  194.0970  172.0140  143.7740 C   0  0  2  0  0  3  0  0  0  0  0  0
  190.4400  172.4100  141.7580 C   0  0  1  0  0  0  0  0  0  0  0  0
  189.7590  171.1270  141.5260 C   0  0  0  0  0  2  0  0  0  0  0  0
  189.2920  172.0650  142.4780 O   0  0  0  0  0  0  0  0  0  0  0  0
  190.1770  173.4190  140.7920 O   0  0  0  0  0  0  0  0  0  0  0  0
  188.9150  173.9990  141.0490 C   0  0  2  0  0  3  0  0  0  0  0  0
  187.1780  176.7570  141.9760 C   0  0  2  0  0  3  0  0  0  0  0  0
  186.6110  176.5880  140.5600 C   0  0  1  0  0  3  0  0  0  0  0  0
  188.6760  175.1840  140.1440 C   0  0  2  0  0  3  0  0  0  0  0  0
  189.0110  175.4030  141.6340 C   0  0  1  0  0  3  0  0  0  0  0  0
  187.8570  175.5980  142.4400 O   0  0  0  0  0  0  0  0  0  0  0  0
  186.9360  177.8280  139.7540 C   0  0  0  0  0  1  0  0  0  0  0  0
  187.1770  175.3470  139.8720 C   0  0  0  0  0  2  0  0  0  0  0  0
  186.2000  177.2510  142.8730 O   0  0  0  0  0  0  0  0  0  0  0  0
  185.9250  178.9250  144.6470 C   0  0  2  0  0  3  0  0  0  0  0  0
  185.4670  179.3660  143.3960 O   0  0  0  0  0  0  0  0  0  0  0  0
  186.5940  178.5170  143.3710 C   0  0  2  0  0  3  0  0  0  0  0  0
  184.9480  177.9070  145.2180 C   0  0  0  0  0  2  0  0  0  0  0  0
  185.4170  177.4730  146.5970 C   0  0  1  0  0  3  0  0  0  0  0  0
  184.8980  176.0760  146.9240 C   0  0  0  0  0  1  0  0  0  0  0  0
  186.9120  177.5040  146.7100 C   0  0  0  0  0  0  0  0  0  0  0  0
  187.5450  178.2830  147.6260 N   0  0  0  0  0  0  0  0  0  0  0  0
  190.6590  176.8350  146.5850 N   0  0  0  0  0  2  0  0  0  0  0  0
  188.8710  178.1100  147.6310 N   0  0  0  0  0  0  0  0  0  0  0  0
  189.2890  177.2010  146.7250 C   0  0  0  0  0  0  0  0  0  0  0  0
  188.0080  176.5280  145.8620 S   0  0  0  0  0  0  0  0  0  0  0  0
  191.0440  175.8350  145.7300 O   0  0  0  0  0  0  0  0  0  0  0  0
  192.8780  176.7930  142.6690 C   0  0  0  0  0  3  0  0  0  0  0  0
  191.8220  176.5740  143.5560 C   0  0  0  0  0  3  0  0  0  0  0  0
  194.4350  175.9590  144.2700 C   0  0  0  0  0  3  0  0  0  0  0  0
  193.7310  175.1690  146.5230 C   0  0  0  0  0  1  0  0  0  0  0  0
  192.0850  176.0300  144.8210 C   0  0  0  0  0  0  0  0  0  0  0  0
  193.4050  175.7150  145.1810 C   0  0  0  0  0  0  0  0  0  0  0  0
  194.1540  176.4880  143.0420 N   0  0  0  0  0  0  0  0  0  0  0  0
  194.6060  170.5450  143.7080 C   0  0  2  0  0  3  0  0  0  0  0  0
  194.2600  169.7090  144.9670 C   0  0  2  0  0  3  0  0  0  0  0  0
  195.5160  169.5790  145.8160 C   0  0  0  0  0  1  0  0  0  0  0  0
  192.7260  168.5890  143.8010 C   0  0  0  0  0  1  0  0  0  0  0  0
  193.8530  168.4180  144.5920 O   0  0  0  0  0  0  0  0  0  0  0  0
  195.9710  170.2260  143.1050 C   0  0  2  0  0  3  0  0  0  0  0  0
  196.7180  171.5170  142.7790 C   0  0  0  0  0  2  0  0  0  0  0  0
  197.2700  172.2520  143.9860 C   0  0  0  0  0  1  0  0  0  0  0  0
  195.7240  169.3450  141.8830 C   0  0  0  0  0  2  0  0  0  0  0  0
  195.7250  170.1140  140.5720 C   0  0  0  0  0  2  0  0  0  0  0  0
  197.2460  170.3430  138.5010 N   0  0  0  0  0  2  0  0  0  0  0  0
  196.4790  171.3350  137.7930 C   0  0  0  0  0  0  0  0  0  0  0  0
  196.9400  169.7440  139.7780 C   0  0  0  0  0  0  0  0  0  0  0  0
  197.7370  168.8870  140.2420 O   0  0  0  0  0  0  0  0  0  0  0  0
  197.0800  172.0850  136.9760 O   0  0  0  0  0  0  0  0  0  0  0  0
  195.0360  171.5750  138.0750 C   0  0  1  0  0  3  0  0  0  0  0  0
  194.8130  173.0320  138.4610 C   0  0  0  0  0  1  0  0  0  0  0  0
  194.6100  170.1640  136.1230 O   0  0  0  0  0  1  0  0  0  0  0  0
  194.0830  171.1700  136.9470 C   0  0  1  0  0  3  0  0  0  0  0  0
  192.6590  170.8450  137.4350 C   0  0  2  0  0  3  0  0  0  0  0  0
  190.6500  171.0970  135.7940 C   0  0  0  0  0  2  0  0  0  0  0  0
  190.0140  171.2110  137.1630 C   0  0  0  0  0  2  0  0  0  0  0  0
  191.4390  171.6740  136.9580 C   0  0  0  0  0  0  0  0  0  0  0  0
  191.5680  173.0550  136.9000 O   0  0  0  0  0  1  0  0  0  0  0  0
  192.6350  170.2180  138.8510 C   0  0  0  0  0  2  0  0  0  0  0  0
  191.8170  168.1660  137.6950 O   0  0  0  0  0  0  0  0  0  0  0  0
  191.8180  168.2860  139.9980 O   0  0  0  0  0  1  0  0  0  0  0  0
  192.1020  168.8210  138.8940 C   0  0  0  0  0  0  0  0  0  0  0  0
  1  5  1  1  0  0  0
  3  6  1  0  0  0  0
  4  3  1  0  0  0  0
  4  1  1  0  0  0  0
  5  2  1  0  0  0  0
  6 40  1  6  0  0  0
  6  2  1  0  0  0  0
  7 10  1  6  0  0  0
  7  9  1  0  0  0  0
  7  1  1  0  0  0  0
  8  7  1  0  0  0  0
  8  9  1  0  0  0  0
 11 10  1  6  0  0  0
 11 15  1  0  0  0  0
 12 16  1  0  0  0  0
 12 19  1  1  0  0  0
 13 17  1  6  0  0  0
 13 12  1  0  0  0  0
 14 18  1  1  0  0  0
 14 11  1  0  0  0  0
 14 15  1  0  0  0  0
 15 16  1  1  0  0  0
 18 13  1  0  0  0  0
 20 23  1  6  0  0  0
 21 20  1  0  0  0  0
 22 19  1  6  0  0  0
 22 21  1  0  0  0  0
 22 20  1  0  0  0  0
 23 24  1  0  0  0  0
 24 26  1  0  0  0  0
 24 25  1  6  0  0  0
 26 27  2  0  0  0  0
 27 29  1  0  0  0  0
 28 30  1  0  0  0  0
 30 29  2  0  0  0  0
 31 26  1  0  0  0  0
 31 30  1  0  0  0  0
 32 28  1  0  0  0  0
 33 39  2  0  0  0  0
 33 34  1  0  0  0  0
 34 37  2  0  0  0  0
 35 38  2  0  0  0  0
 37 38  1  0  0  0  0
 37 32  1  0  0  0  0
 38 36  1  0  0  0  0
 39 35  1  0  0  0  0
 40 45  1  1  0  0  0
 40 41  1  0  0  0  0
 41 42  1  1  0  0  0
 43 44  1  0  0  0  0
 44 41  1  0  0  0  0
 45 48  1  6  0  0  0
 46 45  1  0  0  0  0
 46 47  1  0  0  0  0
 49 48  1  0  0  0  0
 50 52  1  0  0  0  0
 51 55  1  0  0  0  0
 51 50  1  0  0  0  0
 52 53  2  0  0  0  0
 52 49  1  0  0  0  0
 54 51  2  0  0  0  0
 55 56  1  6  0  0  0
 58 57  1  1  0  0  0
 58 59  1  0  0  0  0
 58 55  1  0  0  0  0
 59 64  1  1  0  0  0
 60 62  1  0  0  0  0
 60 61  1  0  0  0  0
 62 61  1  0  0  0  0
 62 59  1  0  0  0  0
 63 62  1  0  0  0  0
 64 67  1  0  0  0  0
 65 67  2  0  0  0  0
 67 66  1  0  0  0  0
M  END
>  <MODEL>
6

>  <REMARK>
 VINA RESULT:      -4.6      3.070     10.151
  Name = 
  24 active torsions:
  status: ('A' for Active; 'I' for Inactive)
    1  A    between atoms: C_1  and  C_18
    2  A    between atoms: C_3  and  C_31
    3  A    between atoms: C_3  and  C_55
    4  A    between atoms: C_5  and  C_30
    5  A    between atoms: C_5  and  C_33
    6  A    between atoms: C_5  and  C_40
    7  A    between atoms: C_6  and  C_12
    8  A    between atoms: C_6  and  C_42
    9  A    between atoms: C_6  and  C_44
   10  A    between atoms: C_7  and  O_17
   11  A    between atoms: C_10  and  C_31
   12  A    between atoms: C_11  and  O_54
   13  A    between atoms: C_12  and  C_26
   14  A    between atoms: C_12  and  C_67
   15  A    between atoms: N_15  and  O_62
   16  A    between atoms: O_17  and  C_18
   17  A    between atoms: C_26  and  O_61
   18  A    between atoms: C_30  and  C_35
   19  A    between atoms: C_33  and  C_34
   20  A    between atoms: C_35  and  C_39
   21  A    between atoms: C_41  and  C_42
   22  A    between atoms: C_41  and  C_59
   23  A    between atoms: C_46  and  O_62
   24  A    between atoms: O_54  and  C_63
                            x       y       z     vdW  Elec       q    Type
                         _______ _______ _______ _____ _____    ______ ____

>  <TORSDO>
F 24

$$$$
=
 OpenBabel11062422353D

 67 74  0  0  1  0  0  0  0  0999 V2000
  192.0850  172.6710  143.2570 C   0  0  1  0  0  3  0  0  0  0  0  0
  193.5990  171.8100  145.0040 O   0  0  0  0  0  0  0  0  0  0  0  0
  194.3000  172.4770  142.6960 C   0  0  0  0  0  2  0  0  0  0  0  0
  193.2290  173.4630  142.8900 N   0  0  0  0  0  2  0  0  0  0  0  0
  192.2410  172.1450  144.6870 C   0  0  0  0  0  2  0  0  0  0  0  0
  194.3860  171.4700  143.8660 C   0  0  2  0  0  3  0  0  0  0  0  0
  190.7290  173.1710  142.7140 C   0  0  1  0  0  0  0  0  0  0  0  0
  189.7790  172.1760  142.1960 C   0  0  0  0  0  2  0  0  0  0  0  0
  189.6220  172.7730  143.4700 O   0  0  0  0  0  0  0  0  0  0  0  0
  190.5720  174.4860  142.1960 O   0  0  0  0  0  0  0  0  0  0  0  0
  189.2190  174.8760  142.3040 C   0  0  2  0  0  3  0  0  0  0  0  0
  186.9800  177.4190  142.3690 C   0  0  2  0  0  3  0  0  0  0  0  0
  186.4840  176.7030  141.1050 C   0  0  1  0  0  3  0  0  0  0  0  0
  188.7840  175.6430  141.0770 C   0  0  2  0  0  3  0  0  0  0  0  0
  189.0390  176.3860  142.4060 C   0  0  1  0  0  3  0  0  0  0  0  0
  187.8520  176.6160  143.1520 O   0  0  0  0  0  0  0  0  0  0  0  0
  186.5900  177.6550  139.9330 C   0  0  0  0  0  1  0  0  0  0  0  0
  187.2870  175.4320  140.8270 C   0  0  0  0  0  2  0  0  0  0  0  0
  185.9080  177.9860  143.0980 O   0  0  0  0  0  0  0  0  0  0  0  0
  185.7130  179.4270  145.0770 C   0  0  2  0  0  3  0  0  0  0  0  0
  185.2150  180.0240  143.9090 O   0  0  0  0  0  0  0  0  0  0  0  0
  186.3320  179.1770  143.7360 C   0  0  2  0  0  3  0  0  0  0  0  0
  184.7470  178.3510  145.5520 C   0  0  0  0  0  2  0  0  0  0  0  0
  185.2010  177.8210  146.9020 C   0  0  1  0  0  3  0  0  0  0  0  0
  184.6890  176.4010  147.1210 C   0  0  0  0  0  1  0  0  0  0  0  0
  186.6940  177.8550  147.0380 C   0  0  0  0  0  0  0  0  0  0  0  0
  187.3110  178.6280  147.9710 N   0  0  0  0  0  0  0  0  0  0  0  0
  190.4450  177.1980  146.9640 N   0  0  0  0  0  2  0  0  0  0  0  0
  188.6370  178.4590  147.9940 N   0  0  0  0  0  0  0  0  0  0  0  0
  189.0720  177.5590  147.0870 C   0  0  0  0  0  0  0  0  0  0  0  0
  187.8060  176.8900  146.1980 S   0  0  0  0  0  0  0  0  0  0  0  0
  190.8450  176.2070  146.1070 O   0  0  0  0  0  0  0  0  0  0  0  0
  194.3400  175.0090  146.1160 C   0  0  0  0  0  3  0  0  0  0  0  0
  193.0050  175.1750  146.4910 C   0  0  0  0  0  3  0  0  0  0  0  0
  194.0600  176.5510  144.3210 C   0  0  0  0  0  3  0  0  0  0  0  0
  191.8860  177.6690  143.8540 C   0  0  0  0  0  1  0  0  0  0  0  0
  192.1890  176.0550  145.7640 C   0  0  0  0  0  0  0  0  0  0  0  0
  192.7230  176.7540  144.6700 C   0  0  0  0  0  0  0  0  0  0  0  0
  194.8360  175.6910  145.0450 N   0  0  0  0  0  0  0  0  0  0  0  0
  194.4420  169.9650  143.4710 C   0  0  2  0  0  3  0  0  0  0  0  0
  194.4850  169.0050  144.6880 C   0  0  2  0  0  3  0  0  0  0  0  0
  193.0540  168.6680  145.0810 C   0  0  0  0  0  1  0  0  0  0  0  0
  194.5720  169.0340  146.9140 C   0  0  0  0  0  1  0  0  0  0  0  0
  195.0980  169.6380  145.7820 O   0  0  0  0  0  0  0  0  0  0  0  0
  195.2870  169.5070  142.2860 C   0  0  2  0  0  3  0  0  0  0  0  0
  196.4080  170.5080  142.0200 C   0  0  0  0  0  2  0  0  0  0  0  0
  197.7600  169.8830  141.7280 C   0  0  0  0  0  1  0  0  0  0  0  0
  194.3380  169.3330  141.1030 C   0  0  0  0  0  2  0  0  0  0  0  0
  194.7570  170.1160  139.8700 C   0  0  0  0  0  2  0  0  0  0  0  0
  194.9920  169.5050  137.3750 N   0  0  0  0  0  2  0  0  0  0  0  0
  196.1510  170.3070  137.0770 C   0  0  0  0  0  0  0  0  0  0  0  0
  194.3090  169.3880  138.6410 C   0  0  0  0  0  0  0  0  0  0  0  0
  193.3040  168.6310  138.7090 O   0  0  0  0  0  0  0  0  0  0  0  0
  196.8930  169.9530  136.1200 O   0  0  0  0  0  0  0  0  0  0  0  0
  196.5570  171.4630  137.9230 C   0  0  1  0  0  3  0  0  0  0  0  0
  197.9070  171.1870  138.5750 C   0  0  0  0  0  1  0  0  0  0  0  0
  196.2900  172.7050  135.8330 O   0  0  0  0  0  1  0  0  0  0  0  0
  196.5810  172.8140  137.2020 C   0  0  1  0  0  3  0  0  0  0  0  0
  195.7350  173.8950  137.9000 C   0  0  2  0  0  3  0  0  0  0  0  0
  193.2450  173.1230  137.8900 C   0  0  0  0  0  2  0  0  0  0  0  0
  193.1870  174.5210  138.4670 C   0  0  0  0  0  2  0  0  0  0  0  0
  194.2690  174.1650  137.4730 C   0  0  0  0  0  0  0  0  0  0  0  0
  194.0420  174.6780  136.2020 O   0  0  0  0  0  1  0  0  0  0  0  0
  196.5860  175.0650  138.4500 C   0  0  0  0  0  2  0  0  0  0  0  0
  196.2200  175.7020  140.8330 O   0  0  0  0  0  1  0  0  0  0  0  0
  197.9170  174.2480  140.2600 O   0  0  0  0  0  0  0  0  0  0  0  0
  196.9310  174.9440  139.9000 C   0  0  0  0  0  0  0  0  0  0  0  0
  1  5  1  1  0  0  0
  3  4  1  0  0  0  0
  3  6  1  0  0  0  0
  4  1  1  0  0  0  0
  5  2  1  0  0  0  0
  6 40  1  6  0  0  0
  6  2  1  0  0  0  0
  7 10  1  6  0  0  0
  7  1  1  0  0  0  0
  7  9  1  0  0  0  0
  8  7  1  0  0  0  0
  8  9  1  0  0  0  0
 11 10  1  6  0  0  0
 11 15  1  0  0  0  0
 12 19  1  1  0  0  0
 12 16  1  0  0  0  0
 13 17  1  6  0  0  0
 13 12  1  0  0  0  0
 14 18  1  1  0  0  0
 14 11  1  0  0  0  0
 14 15  1  0  0  0  0
 15 16  1  1  0  0  0
 18 13  1  0  0  0  0
 20 23  1  6  0  0  0
 21 20  1  0  0  0  0
 22 19  1  6  0  0  0
 22 21  1  0  0  0  0
 22 20  1  0  0  0  0
 23 24  1  0  0  0  0
 24 26  1  0  0  0  0
 24 25  1  6  0  0  0
 26 27  2  0  0  0  0
 27 29  1  0  0  0  0
 28 30  1  0  0  0  0
 30 29  2  0  0  0  0
 31 26  1  0  0  0  0
 31 30  1  0  0  0  0
 32 28  1  0  0  0  0
 33 34  1  0  0  0  0
 35 38  2  0  0  0  0
 35 39  1  0  0  0  0
 36 38  1  0  0  0  0
 37 32  1  0  0  0  0
 37 34  2  0  0  0  0
 38 37  1  0  0  0  0
 39 33  2  0  0  0  0
 40 45  1  6  0  0  0
 40 41  1  0  0  0  0
 41 42  1  1  0  0  0
 41 44  1  0  0  0  0
 44 43  1  0  0  0  0
 45 48  1  6  0  0  0
 46 45  1  0  0  0  0
 47 46  1  0  0  0  0
 49 48  1  0  0  0  0
 50 52  1  0  0  0  0
 51 50  1  0  0  0  0
 51 55  1  0  0  0  0
 52 53  2  0  0  0  0
 52 49  1  0  0  0  0
 54 51  2  0  0  0  0
 55 56  1  6  0  0  0
 58 57  1  6  0  0  0
 58 59  1  0  0  0  0
 58 55  1  0  0  0  0
 59 64  1  6  0  0  0
 60 61  1  0  0  0  0
 62 60  1  0  0  0  0
 62 59  1  0  0  0  0
 62 61  1  0  0  0  0
 63 62  1  0  0  0  0
 64 67  1  0  0  0  0
 67 66  2  0  0  0  0
 67 65  1  0  0  0  0
M  END
>  <MODEL>
7

>  <REMARK>
 VINA RESULT:      -4.6      3.010     10.501
  Name = 
  24 active torsions:
  status: ('A' for Active; 'I' for Inactive)
    1  A    between atoms: C_1  and  C_18
    2  A    between atoms: C_3  and  C_31
    3  A    between atoms: C_3  and  C_55
    4  A    between atoms: C_5  and  C_30
    5  A    between atoms: C_5  and  C_33
    6  A    between atoms: C_5  and  C_40
    7  A    between atoms: C_6  and  C_12
    8  A    between atoms: C_6  and  C_42
    9  A    between atoms: C_6  and  C_44
   10  A    between atoms: C_7  and  O_17
   11  A    between atoms: C_10  and  C_31
   12  A    between atoms: C_11  and  O_54
   13  A    between atoms: C_12  and  C_26
   14  A    between atoms: C_12  and  C_67
   15  A    between atoms: N_15  and  O_62
   16  A    between atoms: O_17  and  C_18
   17  A    between atoms: C_26  and  O_61
   18  A    between atoms: C_30  and  C_35
   19  A    between atoms: C_33  and  C_34
   20  A    between atoms: C_35  and  C_39
   21  A    between atoms: C_41  and  C_42
   22  A    between atoms: C_41  and  C_59
   23  A    between atoms: C_46  and  O_62
   24  A    between atoms: O_54  and  C_63
                            x       y       z     vdW  Elec       q    Type
                         _______ _______ _______ _____ _____    ______ ____

>  <TORSDO>
F 24

$$$$
=
 OpenBabel11062422353D

 67 74  0  0  1  0  0  0  0  0999 V2000
  189.5560  173.4790  141.1280 C   0  0  1  0  0  3  0  0  0  0  0  0
  189.7190  173.9870  138.7190 O   0  0  0  0  0  0  0  0  0  0  0  0
  188.9080  171.8230  139.6790 C   0  0  0  0  0  2  0  0  0  0  0  0
  188.4000  172.7260  140.7210 N   0  0  0  0  0  2  0  0  0  0  0  0
  189.9380  174.4920  140.0440 C   0  0  0  0  0  2  0  0  0  0  0  0
  189.7690  172.5650  138.6320 C   0  0  2  0  0  3  0  0  0  0  0  0
  189.6280  173.8250  142.6310 C   0  0  1  0  0  0  0  0  0  0  0  0
  188.9600  172.9240  143.5820 C   0  0  0  0  0  2  0  0  0  0  0  0
  190.3640  172.9170  143.3970 O   0  0  0  0  0  0  0  0  0  0  0  0
  189.8000  175.1620  143.0810 O   0  0  0  0  0  0  0  0  0  0  0  0
  188.5370  175.7700  143.2480 C   0  0  2  0  0  3  0  0  0  0  0  0
  186.6210  178.5330  142.8220 C   0  0  2  0  0  3  0  0  0  0  0  0
  185.8340  177.5630  141.9290 C   0  0  1  0  0  3  0  0  0  0  0  0
  187.9690  176.2010  141.9160 C   0  0  2  0  0  3  0  0  0  0  0  0
  188.5350  177.2520  142.8930 C   0  0  1  0  0  3  0  0  0  0  0  0
  187.5320  177.8700  143.6870 O   0  0  0  0  0  0  0  0  0  0  0  0
  185.8250  178.1010  140.5140 C   0  0  0  0  0  1  0  0  0  0  0  0
  186.4380  176.1580  141.9560 C   0  0  0  0  0  2  0  0  0  0  0  0
  185.7620  179.4470  143.4780 O   0  0  0  0  0  0  0  0  0  0  0  0
  184.8950  178.6030  145.6140 C   0  0  2  0  0  3  0  0  0  0  0  0
  185.2550  177.5810  144.7230 O   0  0  0  0  0  0  0  0  0  0  0  0
  184.7200  178.7470  144.1340 C   0  0  2  0  0  3  0  0  0  0  0  0
  186.1500  179.2500  146.1820 C   0  0  0  0  0  2  0  0  0  0  0  0
  186.5200  178.5750  147.4920 C   0  0  1  0  0  3  0  0  0  0  0  0
  185.2760  178.0190  148.1790 C   0  0  0  0  0  1  0  0  0  0  0  0
  187.5260  177.4810  147.2880 C   0  0  0  0  0  0  0  0  0  0  0  0
  187.1490  176.1990  147.0390 N   0  0  0  0  0  0  0  0  0  0  0  0
  190.6090  175.3530  146.6040 N   0  0  0  0  0  2  0  0  0  0  0  0
  188.1850  175.3880  146.8020 N   0  0  0  0  0  0  0  0  0  0  0  0
  189.3760  176.0190  146.8610 C   0  0  0  0  0  0  0  0  0  0  0  0
  189.2090  177.6620  147.1980 S   0  0  0  0  0  0  0  0  0  0  0  0
  191.7940  176.0400  146.5690 O   0  0  0  0  0  0  0  0  0  0  0  0
  194.2270  173.3400  145.9030 C   0  0  0  0  0  3  0  0  0  0  0  0
  193.0160  173.9860  146.1600 C   0  0  0  0  0  3  0  0  0  0  0  0
  195.3900  175.4180  145.9940 C   0  0  0  0  0  3  0  0  0  0  0  0
  194.2250  177.5770  146.4170 C   0  0  0  0  0  1  0  0  0  0  0  0
  193.0010  175.3760  146.3430 C   0  0  0  0  0  0  0  0  0  0  0  0
  194.2010  176.1000  146.2640 C   0  0  0  0  0  0  0  0  0  0  0  0
  195.3800  174.0630  145.8210 N   0  0  0  0  0  0  0  0  0  0  0  0
  191.1500  171.9270  138.3040 C   0  0  2  0  0  3  0  0  0  0  0  0
  191.5380  172.0200  136.8060 C   0  0  2  0  0  3  0  0  0  0  0  0
  192.2260  173.3570  136.5720 C   0  0  0  0  0  1  0  0  0  0  0  0
  190.8290  171.7660  134.7080 C   0  0  0  0  0  1  0  0  0  0  0  0
  190.3840  171.9800  136.0050 O   0  0  0  0  0  0  0  0  0  0  0  0
  191.5820  170.6290  138.9800 C   0  0  2  0  0  3  0  0  0  0  0  0
  191.5780  170.7980  140.4960 C   0  0  0  0  0  2  0  0  0  0  0  0
  191.6560  169.5000  141.2790 C   0  0  0  0  0  1  0  0  0  0  0  0
  192.9540  170.2680  138.4150 C   0  0  0  0  0  2  0  0  0  0  0  0
  194.0820  170.4160  139.4240 C   0  0  0  0  0  2  0  0  0  0  0  0
  196.4890  169.5400  139.7250 N   0  0  0  0  0  2  0  0  0  0  0  0
  196.8450  170.3170  140.8850 C   0  0  0  0  0  0  0  0  0  0  0  0
  195.2350  169.5540  139.0120 C   0  0  0  0  0  0  0  0  0  0  0  0
  195.1090  168.7980  138.0120 O   0  0  0  0  0  0  0  0  0  0  0  0
  197.7400  169.8700  141.6530 O   0  0  0  0  0  0  0  0  0  0  0  0
  196.1200  171.5630  141.2610 C   0  0  1  0  0  3  0  0  0  0  0  0
  196.0940  171.7170  142.7760 C   0  0  0  0  0  1  0  0  0  0  0  0
  197.5240  172.5820  139.5370 O   0  0  0  0  0  1  0  0  0  0  0  0
  196.6500  172.8410  140.6050 C   0  0  1  0  0  3  0  0  0  0  0  0
  195.5410  173.8410  140.2290 C   0  0  2  0  0  3  0  0  0  0  0  0
  195.0610  174.9560  142.5350 C   0  0  0  0  0  2  0  0  0  0  0  0
  194.2470  175.7790  141.5600 C   0  0  0  0  0  2  0  0  0  0  0  0
  194.5010  174.3160  141.2760 C   0  0  0  0  0  0  0  0  0  0  0  0
  193.3990  173.5060  141.5170 O   0  0  0  0  0  1  0  0  0  0  0  0
  195.1230  173.7470  138.7410 C   0  0  0  0  0  2  0  0  0  0  0  0
  194.4730  175.6020  137.2070 O   0  0  0  0  0  0  0  0  0  0  0  0
  196.6790  175.3060  137.8110 O   0  0  0  0  0  1  0  0  0  0  0  0
  195.4760  174.9510  137.9270 C   0  0  0  0  0  0  0  0  0  0  0  0
  1  5  1  6  0  0  0
  1  7  1  0  0  0  0
  2  5  1  0  0  0  0
  3  4  1  0  0  0  0
  4  1  1  0  0  0  0
  6 40  1  1  0  0  0
  6  2  1  0  0  0  0
  6  3  1  0  0  0  0
  7 10  1  1  0  0  0
  7  9  1  0  0  0  0
  7  8  1  0  0  0  0
  9  8  1  0  0  0  0
 11 10  1  6  0  0  0
 12 19  1  1  0  0  0
 12 16  1  0  0  0  0
 13 17  1  6  0  0  0
 13 18  1  0  0  0  0
 13 12  1  0  0  0  0
 14 18  1  1  0  0  0
 14 15  1  0  0  0  0
 14 11  1  0  0  0  0
 15 11  1  0  0  0  0
 15 16  1  1  0  0  0
 20 23  1  6  0  0  0
 21 20  1  0  0  0  0
 22 19  1  6  0  0  0
 22 21  1  0  0  0  0
 22 20  1  0  0  0  0
 23 24  1  0  0  0  0
 24 25  1  6  0  0  0
 26 24  1  0  0  0  0
 27 26  2  0  0  0  0
 28 30  1  0  0  0  0
 29 30  2  0  0  0  0
 29 27  1  0  0  0  0
 30 31  1  0  0  0  0
 31 26  1  0  0  0  0
 32 28  1  0  0  0  0
 33 34  1  0  0  0  0
 34 37  2  0  0  0  0
 35 38  2  0  0  0  0
 37 32  1  0  0  0  0
 38 37  1  0  0  0  0
 38 36  1  0  0  0  0
 39 33  2  0  0  0  0
 39 35  1  0  0  0  0
 40 41  1  6  0  0  0
 40 45  1  0  0  0  0
 41 42  1  1  0  0  0
 43 44  1  0  0  0  0
 44 41  1  0  0  0  0
 45 48  1  6  0  0  0
 45 46  1  0  0  0  0
 46 47  1  0  0  0  0
 48 49  1  0  0  0  0
 50 51  1  0  0  0  0
 51 55  1  0  0  0  0
 51 54  2  0  0  0  0
 52 49  1  0  0  0  0
 52 50  1  0  0  0  0
 53 52  2  0  0  0  0
 55 56  1  1  0  0  0
 58 57  1  6  0  0  0
 58 55  1  0  0  0  0
 59 64  1  6  0  0  0
 59 58  1  0  0  0  0
 59 62  1  0  0  0  0
 61 60  1  0  0  0  0
 62 63  1  0  0  0  0
 62 61  1  0  0  0  0
 62 60  1  0  0  0  0
 65 67  2  0  0  0  0
 66 67  1  0  0  0  0
 67 64  1  0  0  0  0
M  END
>  <MODEL>
8

>  <REMARK>
 VINA RESULT:      -4.5      2.883     10.639
  Name = 
  24 active torsions:
  status: ('A' for Active; 'I' for Inactive)
    1  A    between atoms: C_1  and  C_18
    2  A    between atoms: C_3  and  C_31
    3  A    between atoms: C_3  and  C_55
    4  A    between atoms: C_5  and  C_30
    5  A    between atoms: C_5  and  C_33
    6  A    between atoms: C_5  and  C_40
    7  A    between atoms: C_6  and  C_12
    8  A    between atoms: C_6  and  C_42
    9  A    between atoms: C_6  and  C_44
   10  A    between atoms: C_7  and  O_17
   11  A    between atoms: C_10  and  C_31
   12  A    between atoms: C_11  and  O_54
   13  A    between atoms: C_12  and  C_26
   14  A    between atoms: C_12  and  C_67
   15  A    between atoms: N_15  and  O_62
   16  A    between atoms: O_17  and  C_18
   17  A    between atoms: C_26  and  O_61
   18  A    between atoms: C_30  and  C_35
   19  A    between atoms: C_33  and  C_34
   20  A    between atoms: C_35  and  C_39
   21  A    between atoms: C_41  and  C_42
   22  A    between atoms: C_41  and  C_59
   23  A    between atoms: C_46  and  O_62
   24  A    between atoms: O_54  and  C_63
                            x       y       z     vdW  Elec       q    Type
                         _______ _______ _______ _____ _____    ______ ____

>  <TORSDO>
F 24

$$$$
=
 OpenBabel11062422353D

 67 74  0  0  1  0  0  0  0  0999 V2000
  190.1910  172.5130  139.9190 C   0  0  1  0  0  3  0  0  0  0  0  0
  189.9030  173.5890  137.7180 O   0  0  0  0  0  0  0  0  0  0  0  0
  189.4210  171.1840  138.2160 C   0  0  0  0  0  2  0  0  0  0  0  0
  189.0380  171.7540  139.5140 N   0  0  0  0  0  2  0  0  0  0  0  0
  190.3100  173.7880  139.0780 C   0  0  0  0  0  2  0  0  0  0  0  0
  190.0360  172.2410  137.2710 C   0  0  2  0  0  3  0  0  0  0  0  0
  190.4960  172.5010  141.4330 C   0  0  1  0  0  0  0  0  0  0  0  0
  189.8490  171.4740  142.2620 C   0  0  0  0  0  2  0  0  0  0  0  0
  191.2060  171.3790  141.8700 O   0  0  0  0  0  0  0  0  0  0  0  0
  190.8880  173.6800  142.1240 O   0  0  0  0  0  0  0  0  0  0  0  0
  189.7500  174.2940  142.6910 C   0  0  2  0  0  3  0  0  0  0  0  0
  188.0120  177.1570  143.2060 C   0  0  2  0  0  3  0  0  0  0  0  0
  186.9650  176.3920  142.3840 C   0  0  1  0  0  3  0  0  0  0  0  0
  188.9240  174.9770  141.6280 C   0  0  2  0  0  3  0  0  0  0  0  0
  189.7830  175.8150  142.5980 C   0  0  1  0  0  3  0  0  0  0  0  0
  189.0450  176.3170  143.7030 O   0  0  0  0  0  0  0  0  0  0  0  0
  186.6690  177.1750  141.1230 C   0  0  0  0  0  1  0  0  0  0  0  0
  187.4460  174.9850  142.0320 C   0  0  0  0  0  2  0  0  0  0  0  0
  187.4040  177.9700  144.1930 O   0  0  0  0  0  0  0  0  0  0  0  0
  187.0520  176.9480  146.3980 C   0  0  2  0  0  3  0  0  0  0  0  0
  187.2290  176.0040  145.3740 O   0  0  0  0  0  0  0  0  0  0  0  0
  186.5500  177.1870  145.0070 C   0  0  2  0  0  3  0  0  0  0  0  0
  188.3870  177.6030  146.7230 C   0  0  0  0  0  2  0  0  0  0  0  0
  189.3450  176.5570  147.2680 C   0  0  1  0  0  3  0  0  0  0  0  0
  188.6860  175.1810  147.2790 C   0  0  0  0  0  1  0  0  0  0  0  0
  190.6200  176.5090  146.4810 C   0  0  0  0  0  0  0  0  0  0  0  0
  190.9170  177.4440  145.5400 N   0  0  0  0  0  0  0  0  0  0  0  0
  194.1240  175.8880  145.1230 N   0  0  0  0  0  2  0  0  0  0  0  0
  192.1330  177.2800  145.0080 N   0  0  0  0  0  0  0  0  0  0  0  0
  192.7980  176.2240  145.5210 C   0  0  0  0  0  0  0  0  0  0  0  0
  191.9050  175.4250  146.7070 S   0  0  0  0  0  0  0  0  0  0  0  0
  194.8130  174.8740  145.7340 O   0  0  0  0  0  0  0  0  0  0  0  0
  194.0870  171.9090  143.6520 C   0  0  0  0  0  3  0  0  0  0  0  0
  193.9290  173.1450  144.2810 C   0  0  0  0  0  3  0  0  0  0  0  0
  196.2280  171.6330  144.6610 C   0  0  0  0  0  3  0  0  0  0  0  0
  197.2150  173.3460  146.1740 C   0  0  0  0  0  1  0  0  0  0  0  0
  194.9430  173.6250  145.1230 C   0  0  0  0  0  0  0  0  0  0  0  0
  196.1030  172.8600  145.3190 C   0  0  0  0  0  0  0  0  0  0  0  0
  195.2250  171.1850  143.8480 N   0  0  0  0  0  0  0  0  0  0  0  0
  191.3820  171.8540  136.5910 C   0  0  2  0  0  3  0  0  0  0  0  0
  191.5630  172.4650  135.1780 C   0  0  2  0  0  3  0  0  0  0  0  0
  192.1420  173.8630  135.3320 C   0  0  0  0  0  1  0  0  0  0  0  0
  190.0200  173.9340  134.5250 C   0  0  0  0  0  1  0  0  0  0  0  0
  190.3170  172.5790  134.5380 O   0  0  0  0  0  0  0  0  0  0  0  0
  191.9430  170.4420  136.7370 C   0  0  2  0  0  3  0  0  0  0  0  0
  192.3670  170.1900  138.1800 C   0  0  0  0  0  2  0  0  0  0  0  0
  192.6050  168.7310  138.5250 C   0  0  0  0  0  1  0  0  0  0  0  0
  193.0900  170.3140  135.7380 C   0  0  0  0  0  2  0  0  0  0  0  0
  194.3290  171.1020  136.1340 C   0  0  0  0  0  2  0  0  0  0  0  0
  196.5640  170.0250  136.8370 N   0  0  0  0  0  2  0  0  0  0  0  0
  196.5900  170.4820  138.2030 C   0  0  0  0  0  0  0  0  0  0  0  0
  195.5510  170.2870  135.8430 C   0  0  0  0  0  0  0  0  0  0  0  0
  195.7030  169.7990  134.6920 O   0  0  0  0  0  0  0  0  0  0  0  0
  197.2430  169.8080  139.0460 O   0  0  0  0  0  0  0  0  0  0  0  0
  195.7880  171.6480  138.6660 C   0  0  1  0  0  3  0  0  0  0  0  0
  195.1780  171.3550  140.0320 C   0  0  0  0  0  1  0  0  0  0  0  0
  197.9350  172.8180  138.6060 O   0  0  0  0  0  1  0  0  0  0  0  0
  196.5430  172.9790  138.6950 C   0  0  1  0  0  3  0  0  0  0  0  0
  196.0050  174.0110  137.6860 C   0  0  2  0  0  3  0  0  0  0  0  0
  197.1940  173.3790  135.4550 C   0  0  0  0  0  2  0  0  0  0  0  0
  196.2870  174.5270  135.0680 C   0  0  0  0  0  2  0  0  0  0  0  0
  196.8530  174.4590  136.4680 C   0  0  0  0  0  0  0  0  0  0  0  0
  197.8940  175.3510  136.6880 O   0  0  0  0  0  1  0  0  0  0  0  0
  195.0130  175.0150  138.3220 C   0  0  0  0  0  2  0  0  0  0  0  0
  196.3470  175.8780  140.2430 O   0  0  0  0  0  0  0  0  0  0  0  0
  194.3920  174.7100  140.6110 O   0  0  0  0  0  1  0  0  0  0  0  0
  195.2020  175.2190  139.7910 C   0  0  0  0  0  0  0  0  0  0  0  0
  1  5  1  1  0  0  0
  1  7  1  0  0  0  0
  2  5  1  0  0  0  0
  3  4  1  0  0  0  0
  4  1  1  0  0  0  0
  6 40  1  1  0  0  0
  6  2  1  0  0  0  0
  6  3  1  0  0  0  0
  7  9  1  0  0  0  0
  7 10  1  1  0  0  0
  7  8  1  0  0  0  0
  9  8  1  0  0  0  0
 11 10  1  6  0  0  0
 12 16  1  0  0  0  0
 12 19  1  1  0  0  0
 13 17  1  6  0  0  0
 13 12  1  0  0  0  0
 14 18  1  1  0  0  0
 14 15  1  0  0  0  0
 14 11  1  0  0  0  0
 15 11  1  0  0  0  0
 15 16  1  1  0  0  0
 18 13  1  0  0  0  0
 20 23  1  6  0  0  0
 21 20  1  0  0  0  0
 22 19  1  6  0  0  0
 22 21  1  0  0  0  0
 22 20  1  0  0  0  0
 23 24  1  0  0  0  0
 24 25  1  6  0  0  0
 26 31  1  0  0  0  0
 26 24  1  0  0  0  0
 27 26  2  0  0  0  0
 28 30  1  0  0  0  0
 28 32  1  0  0  0  0
 29 30  2  0  0  0  0
 29 27  1  0  0  0  0
 30 31  1  0  0  0  0
 33 39  2  0  0  0  0
 33 34  1  0  0  0  0
 34 37  2  0  0  0  0
 35 38  2  0  0  0  0
 37 38  1  0  0  0  0
 37 32  1  0  0  0  0
 38 36  1  0  0  0  0
 39 35  1  0  0  0  0
 40 41  1  6  0  0  0
 40 45  1  0  0  0  0
 41 42  1  1  0  0  0
 43 44  1  0  0  0  0
 44 41  1  0  0  0  0
 45 48  1  6  0  0  0
 45 46  1  0  0  0  0
 46 47  1  0  0  0  0
 48 49  1  0  0  0  0
 50 51  1  0  0  0  0
 51 55  1  0  0  0  0
 51 54  2  0  0  0  0
 52 49  1  0  0  0  0
 52 50  1  0  0  0  0
 53 52  2  0  0  0  0
 55 58  1  0  0  0  0
 55 56  1  1  0  0  0
 58 57  1  6  0  0  0
 59 64  1  1  0  0  0
 59 58  1  0  0  0  0
 60 62  1  0  0  0  0
 61 60  1  0  0  0  0
 61 62  1  0  0  0  0
 62 63  1  0  0  0  0
 62 59  1  0  0  0  0
 64 67  1  0  0  0  0
 67 65  2  0  0  0  0
 67 66  1  0  0  0  0
M  END
>  <MODEL>
9

>  <REMARK>
 VINA RESULT:      -4.4      2.671     10.738
  Name = 
  24 active torsions:
  status: ('A' for Active; 'I' for Inactive)
    1  A    between atoms: C_1  and  C_18
    2  A    between atoms: C_3  and  C_31
    3  A    between atoms: C_3  and  C_55
    4  A    between atoms: C_5  and  C_30
    5  A    between atoms: C_5  and  C_33
    6  A    between atoms: C_5  and  C_40
    7  A    between atoms: C_6  and  C_12
    8  A    between atoms: C_6  and  C_42
    9  A    between atoms: C_6  and  C_44
   10  A    between atoms: C_7  and  O_17
   11  A    between atoms: C_10  and  C_31
   12  A    between atoms: C_11  and  O_54
   13  A    between atoms: C_12  and  C_26
   14  A    between atoms: C_12  and  C_67
   15  A    between atoms: N_15  and  O_62
   16  A    between atoms: O_17  and  C_18
   17  A    between atoms: C_26  and  O_61
   18  A    between atoms: C_30  and  C_35
   19  A    between atoms: C_33  and  C_34
   20  A    between atoms: C_35  and  C_39
   21  A    between atoms: C_41  and  C_42
   22  A    between atoms: C_41  and  C_59
   23  A    between atoms: C_46  and  O_62
   24  A    between atoms: O_54  and  C_63
                            x       y       z     vdW  Elec       q    Type
                         _______ _______ _______ _____ _____    ______ ____

>  <TORSDO>
F 24

$$$$
