=
 OpenBabel11062420173D

 25 28  0  0  1  0  0  0  0  0999 V2000
  186.9920  177.6600  145.4360 C   0  0  2  0  0  3  0  0  0  0  0  0
  185.6680  178.3680  145.1220 C   0  0  2  0  0  3  0  0  0  0  0  0
  187.5360  176.8610  144.2410 C   0  0  2  0  0  0  0  0  0  0  0  0
  186.6990  176.6670  142.9480 C   0  0  2  0  0  3  0  0  0  0  0  0
  185.3650  180.5780  144.2710 O   0  0  0  0  0  0  0  0  0  0  0  0
  187.3850  175.7390  141.9490 C   0  0  0  0  0  1  0  0  0  0  0  0
  186.6720  179.2150  142.8720 C   0  0  0  0  0  2  0  0  0  0  0  0
  185.8720  179.4790  144.1130 C   0  0  0  0  0  0  0  0  0  0  0  0
  186.2810  177.9270  142.3000 N   0  0  0  0  0  0  0  0  0  0  0  0
  186.8460  176.1520  145.3910 C   0  0  0  0  0  2  0  0  0  0  0  0
  189.0460  176.5740  144.2410 C   0  0  2  0  0  3  0  0  0  0  0  0
  189.7920  177.4570  145.2410 C   0  0  1  0  0  3  0  0  0  0  0  0
  191.0240  176.6970  145.7410 C   0  0  0  0  0  2  0  0  0  0  0  0
  192.0870  176.5780  143.8010 C   0  0  0  0  0  2  0  0  0  0  0  0
  192.1810  177.1300  145.0830 O   0  0  0  0  0  0  0  0  0  0  0  0
  191.0850  177.3800  142.9720 C   0  0  0  0  0  2  0  0  0  0  0  0
  189.8130  177.7880  143.7430 C   0  0  1  0  0  3  0  0  0  0  0  0
  185.6200  177.7740  139.9760 C   0  0  0  0  0  2  0  0  0  0  0  0
  183.8330  178.0440  141.5800 C   0  0  0  0  0  1  0  0  0  0  0  0
  185.2840  177.9230  141.2540 C   0  0  0  0  0  0  0  0  0  0  0  0
  184.9230  178.8140  146.3910 C   0  0  1  0  0  3  0  0  0  0  0  0
  183.8070  178.0020  146.6090 O   0  0  0  0  0  1  0  0  0  0  0  0
  186.4440  180.0550  148.0040 N   0  0  0  0  0  1  0  0  0  0  0  0
  185.7860  178.8520  147.6160 C   0  0  0  0  0  0  0  0  0  0  0  0
  185.9240  177.8150  148.3160 O   0  0  0  0  0  0  0  0  0  0  0  0
  1 10  1  1  0  0  0
  2  1  1  0  0  0  0
  2 21  1  1  0  0  0
  3 10  1  1  0  0  0
  3  1  1  0  0  0  0
  4  6  1  6  0  0  0
  4  3  1  0  0  0  0
  7  8  1  0  0  0  0
  8  5  2  0  0  0  0
  8  2  1  0  0  0  0
  9  7  1  0  0  0  0
  9  4  1  0  0  0  0
 11  3  1  1  0  0  0
 11 12  1  0  0  0  0
 12 13  1  6  0  0  0
 14 15  1  0  0  0  0
 15 13  1  0  0  0  0
 16 14  1  0  0  0  0
 17 16  1  6  0  0  0
 17 11  1  0  0  0  0
 17 12  1  0  0  0  0
 18 20  2  0  0  0  0
 20 19  1  0  0  0  0
 20  9  1  0  0  0  0
 21 22  1  1  0  0  0
 21 24  1  0  0  0  0
 24 23  1  0  0  0  0
 24 25  2  0  0  0  0
M  END
>  <MODEL>
1

>  <REMARK>
 VINA RESULT:      -7.0      0.000      0.000
  Name = 
  4 active torsions:
  status: ('A' for Active; 'I' for Inactive)
    1  A    between atoms: C_1  and  C_5
    2  A    between atoms: C_3  and  C_22
    3  A    between atoms: N_15  and  C_20
    4  A    between atoms: C_19  and  C_22
                            x       y       z     vdW  Elec       q    Type
                         _______ _______ _______ _____ _____    ______ ____

>  <TORSDO>
F 4

$$$$
=
 OpenBabel11062420173D

 25 28  0  0  1  0  0  0  0  0999 V2000
  189.4570  175.2420  144.1160 C   0  0  2  0  0  3  0  0  0  0  0  0
  190.7700  174.6170  143.6290 C   0  0  2  0  0  3  0  0  0  0  0  0
  189.6370  176.0890  145.3860 C   0  0  2  0  0  0  0  0  0  0  0  0
  190.9830  176.1140  146.1580 C   0  0  2  0  0  3  0  0  0  0  0  0
  192.3310  175.5370  142.0740 O   0  0  0  0  0  0  0  0  0  0  0  0
  190.8930  176.9210  147.4500 C   0  0  0  0  0  1  0  0  0  0  0  0
  191.9600  176.9130  143.9420 C   0  0  0  0  0  2  0  0  0  0  0  0
  191.7220  175.6800  143.1220 C   0  0  0  0  0  0  0  0  0  0  0  0
  192.1410  176.5420  145.3460 N   0  0  0  0  0  0  0  0  0  0  0  0
  189.0430  174.6950  145.4690 C   0  0  0  0  0  2  0  0  0  0  0  0
  188.5680  177.1610  145.6500 C   0  0  2  0  0  3  0  0  0  0  0  0
  187.5340  176.6920  146.6730 C   0  0  1  0  0  3  0  0  0  0  0  0
  187.0010  177.9140  147.4270 C   0  0  0  0  0  2  0  0  0  0  0  0
  186.0470  178.9170  145.6970 C   0  0  0  0  0  2  0  0  0  0  0  0
  185.7560  178.3110  146.9230 O   0  0  0  0  0  0  0  0  0  0  0  0
  186.3410  177.8410  144.6520 C   0  0  0  0  0  2  0  0  0  0  0  0
  187.2080  176.6770  145.1730 C   0  0  1  0  0  3  0  0  0  0  0  0
  193.9300  175.1740  146.2330 C   0  0  0  0  0  2  0  0  0  0  0  0
  194.4500  177.5050  145.8630 C   0  0  0  0  0  1  0  0  0  0  0  0
  193.4900  176.3630  145.8330 C   0  0  0  0  0  0  0  0  0  0  0  0
  190.5420  173.4660  142.6350 C   0  0  1  0  0  3  0  0  0  0  0  0
  190.5440  172.2390  143.3040 O   0  0  0  0  0  1  0  0  0  0  0  0
  188.1570  172.7910  142.0760 N   0  0  0  0  0  1  0  0  0  0  0  0
  189.2930  173.6120  141.8180 C   0  0  0  0  0  0  0  0  0  0  0  0
  189.2420  174.4740  140.9030 O   0  0  0  0  0  0  0  0  0  0  0  0
  1  3  1  0  0  0  0
  1 10  1  1  0  0  0
  2 21  1  6  0  0  0
  2  1  1  0  0  0  0
  3 10  1  1  0  0  0
  3  4  1  0  0  0  0
  4  6  1  1  0  0  0
  5  8  2  0  0  0  0
  7  9  1  0  0  0  0
  8  2  1  0  0  0  0
  8  7  1  0  0  0  0
  9 20  1  0  0  0  0
  9  4  1  0  0  0  0
 11  3  1  6  0  0  0
 11 12  1  0  0  0  0
 12 13  1  1  0  0  0
 14 15  1  0  0  0  0
 15 13  1  0  0  0  0
 16 14  1  0  0  0  0
 17 16  1  1  0  0  0
 17 11  1  0  0  0  0
 17 12  1  0  0  0  0
 20 19  1  0  0  0  0
 20 18  2  0  0  0  0
 21 22  1  1  0  0  0
 24 23  1  0  0  0  0
 24 21  1  0  0  0  0
 25 24  2  0  0  0  0
M  END
>  <MODEL>
2

>  <REMARK>
 VINA RESULT:      -6.7      3.033      7.073
  Name = 
  4 active torsions:
  status: ('A' for Active; 'I' for Inactive)
    1  A    between atoms: C_1  and  C_5
    2  A    between atoms: C_3  and  C_22
    3  A    between atoms: N_15  and  C_20
    4  A    between atoms: C_19  and  C_22
                            x       y       z     vdW  Elec       q    Type
                         _______ _______ _______ _____ _____    ______ ____

>  <TORSDO>
F 4

$$$$
=
 OpenBabel11062420173D

 25 28  0  0  1  0  0  0  0  0999 V2000
  189.5360  176.7020  145.2580 C   0  0  2  0  0  3  0  0  0  0  0  0
  190.5470  175.5910  144.9530 C   0  0  2  0  0  3  0  0  0  0  0  0
  188.7340  177.1340  144.0200 C   0  0  2  0  0  0  0  0  0  0  0  0
  189.0870  176.6070  142.6030 C   0  0  2  0  0  3  0  0  0  0  0  0
  190.2050  173.2310  145.0900 O   0  0  0  0  0  0  0  0  0  0  0  0
  188.2420  177.2630  141.5150 C   0  0  0  0  0  1  0  0  0  0  0  0
  188.7090  174.3040  143.6290 C   0  0  0  0  0  2  0  0  0  0  0  0
  189.8430  174.2940  144.6100 C   0  0  0  0  0  0  0  0  0  0  0  0
  189.0630  175.1350  142.4780 N   0  0  0  0  0  0  0  0  0  0  0  0
  189.8790  177.9880  144.5320 C   0  0  0  0  0  2  0  0  0  0  0  0
  187.3800  177.8090  144.2840 C   0  0  2  0  0  3  0  0  0  0  0  0
  186.6140  177.1230  145.4150 C   0  0  1  0  0  3  0  0  0  0  0  0
  185.7350  178.1650  146.1130 C   0  0  0  0  0  2  0  0  0  0  0  0
  184.4180  178.6210  144.3920 C   0  0  0  0  0  2  0  0  0  0  0  0
  184.4080  178.0740  145.6780 O   0  0  0  0  0  0  0  0  0  0  0  0
  185.0090  177.6100  143.4110 C   0  0  0  0  0  2  0  0  0  0  0  0
  186.2430  176.8570  143.9500 C   0  0  1  0  0  3  0  0  0  0  0  0
  190.9280  174.2510  141.2130 C   0  0  0  0  0  2  0  0  0  0  0  0
  188.7430  174.0110  140.2060 C   0  0  0  0  0  1  0  0  0  0  0  0
  189.6220  174.4840  141.3160 C   0  0  0  0  0  0  0  0  0  0  0  0
  191.6140  175.4450  146.0510 C   0  0  1  0  0  3  0  0  0  0  0  0
  192.7210  176.2470  145.7630 O   0  0  0  0  0  1  0  0  0  0  0  0
  191.5410  176.8960  148.1350 N   0  0  0  0  0  1  0  0  0  0  0  0
  191.1030  175.7380  147.4300 C   0  0  0  0  0  0  0  0  0  0  0  0
  190.2730  174.9600  147.9670 O   0  0  0  0  0  0  0  0  0  0  0  0
  1 10  1  6  0  0  0
  2  1  1  0  0  0  0
  2 21  1  1  0  0  0
  3 10  1  6  0  0  0
  3  1  1  0  0  0  0
  4  6  1  6  0  0  0
  4  3  1  0  0  0  0
  7  8  1  0  0  0  0
  8  2  1  0  0  0  0
  8  5  2  0  0  0  0
  9  4  1  0  0  0  0
  9  7  1  0  0  0  0
 11  3  1  6  0  0  0
 11 12  1  0  0  0  0
 12 13  1  1  0  0  0
 14 15  1  0  0  0  0
 15 13  1  0  0  0  0
 16 14  1  0  0  0  0
 17 16  1  1  0  0  0
 17 11  1  0  0  0  0
 17 12  1  0  0  0  0
 18 20  2  0  0  0  0
 19 20  1  0  0  0  0
 20  9  1  0  0  0  0
 21 22  1  6  0  0  0
 21 24  1  0  0  0  0
 24 25  2  0  0  0  0
 24 23  1  0  0  0  0
M  END
>  <MODEL>
3

>  <REMARK>
 VINA RESULT:      -6.6      2.488      5.673
  Name = 
  4 active torsions:
  status: ('A' for Active; 'I' for Inactive)
    1  A    between atoms: C_1  and  C_5
    2  A    between atoms: C_3  and  C_22
    3  A    between atoms: N_15  and  C_20
    4  A    between atoms: C_19  and  C_22
                            x       y       z     vdW  Elec       q    Type
                         _______ _______ _______ _____ _____    ______ ____

>  <TORSDO>
F 4

$$$$
=
 OpenBabel11062420173D

 25 28  0  0  1  0  0  0  0  0999 V2000
  189.8200  176.7750  145.2900 C   0  0  2  0  0  3  0  0  0  0  0  0
  191.1260  176.0830  144.8830 C   0  0  2  0  0  3  0  0  0  0  0  0
  188.6510  176.4420  144.3500 C   0  0  2  0  0  0  0  0  0  0  0  0
  188.8710  175.6440  143.0370 C   0  0  2  0  0  3  0  0  0  0  0  0
  191.9330  173.9550  145.6050 O   0  0  0  0  0  0  0  0  0  0  0  0
  187.5960  175.5390  142.2040 C   0  0  0  0  0  1  0  0  0  0  0  0
  189.8250  173.8470  144.5730 C   0  0  0  0  0  2  0  0  0  0  0  0
  191.0300  174.5840  145.0770 C   0  0  0  0  0  0  0  0  0  0  0  0
  189.4890  174.3160  143.2290 N   0  0  0  0  0  0  0  0  0  0  0  0
  189.3660  177.7760  144.2460 C   0  0  0  0  0  2  0  0  0  0  0  0
  187.2380  176.6150  144.9270 C   0  0  2  0  0  3  0  0  0  0  0  0
  186.6320  177.9660  144.5490 C   0  0  1  0  0  3  0  0  0  0  0  0
  185.1100  177.8150  144.4690 C   0  0  0  0  0  2  0  0  0  0  0  0
  184.7630  177.3310  146.6030 C   0  0  0  0  0  2  0  0  0  0  0  0
  184.4960  178.2990  145.6300 O   0  0  0  0  0  0  0  0  0  0  0  0
  186.2080  177.4700  147.0790 C   0  0  0  0  0  2  0  0  0  0  0  0
  187.2210  177.7420  145.9480 C   0  0  1  0  0  3  0  0  0  0  0  0
  190.9610  174.0640  141.3230 C   0  0  0  0  0  2  0  0  0  0  0  0
  189.4980  172.1990  141.7980 C   0  0  0  0  0  1  0  0  0  0  0  0
  190.0020  173.5710  142.1010 C   0  0  0  0  0  0  0  0  0  0  0  0
  192.3610  176.7160  145.5450 C   0  0  1  0  0  3  0  0  0  0  0  0
  192.4070  176.3860  146.9020 O   0  0  0  0  0  1  0  0  0  0  0  0
  194.8100  176.0470  145.6520 N   0  0  0  0  0  1  0  0  0  0  0  0
  193.6550  176.3550  144.8780 C   0  0  0  0  0  0  0  0  0  0  0  0
  193.7190  176.3120  143.6220 O   0  0  0  0  0  0  0  0  0  0  0  0
  1 10  1  6  0  0  0
  2  8  1  0  0  0  0
  2  1  1  0  0  0  0
  2 21  1  1  0  0  0
  3 10  1  6  0  0  0
  3  1  1  0  0  0  0
  4  6  1  1  0  0  0
  4  9  1  0  0  0  0
  4  3  1  0  0  0  0
  7  8  1  0  0  0  0
  8  5  2  0  0  0  0
  9  7  1  0  0  0  0
 11  3  1  6  0  0  0
 11 17  1  0  0  0  0
 12 13  1  1  0  0  0
 12 11  1  0  0  0  0
 12 17  1  0  0  0  0
 13 15  1  0  0  0  0
 14 16  1  0  0  0  0
 15 14  1  0  0  0  0
 17 16  1  1  0  0  0
 18 20  2  0  0  0  0
 19 20  1  0  0  0  0
 20  9  1  0  0  0  0
 21 22  1  1  0  0  0
 24 21  1  0  0  0  0
 24 23  1  0  0  0  0
 25 24  2  0  0  0  0
M  END
>  <MODEL>
4

>  <REMARK>
 VINA RESULT:      -6.6      2.870      6.440
  Name = 
  4 active torsions:
  status: ('A' for Active; 'I' for Inactive)
    1  A    between atoms: C_1  and  C_5
    2  A    between atoms: C_3  and  C_22
    3  A    between atoms: N_15  and  C_20
    4  A    between atoms: C_19  and  C_22
                            x       y       z     vdW  Elec       q    Type
                         _______ _______ _______ _____ _____    ______ ____

>  <TORSDO>
F 4

$$$$
=
 OpenBabel11062420173D

 25 28  0  0  1  0  0  0  0  0999 V2000
  187.3510  177.2010  144.0780 C   0  0  2  0  0  3  0  0  0  0  0  0
  187.0080  177.6940  145.4890 C   0  0  2  0  0  3  0  0  0  0  0  0
  188.8500  176.9130  143.8970 C   0  0  2  0  0  0  0  0  0  0  0  0
  189.8840  177.2840  144.9940 C   0  0  2  0  0  3  0  0  0  0  0  0
  186.3730  176.3780  147.3770 O   0  0  0  0  0  0  0  0  0  0  0  0
  191.3190  177.0210  144.5480 C   0  0  0  0  0  1  0  0  0  0  0  0
  188.4680  175.7860  146.4950 C   0  0  0  0  0  2  0  0  0  0  0  0
  187.2060  176.5950  146.5120 C   0  0  0  0  0  0  0  0  0  0  0  0
  189.6180  176.6720  146.3120 N   0  0  0  0  0  0  0  0  0  0  0  0
  188.2380  178.1840  143.3400 C   0  0  0  0  0  2  0  0  0  0  0  0
  189.2280  175.9410  142.7690 C   0  0  2  0  0  3  0  0  0  0  0  0
  188.0750  175.0010  142.4180 C   0  0  1  0  0  3  0  0  0  0  0  0
  188.1830  174.6240  140.9380 C   0  0  0  0  0  2  0  0  0  0  0  0
  190.1130  173.5410  141.0640 C   0  0  0  0  0  2  0  0  0  0  0  0
  188.7550  173.3550  140.7850 O   0  0  0  0  0  0  0  0  0  0  0  0
  190.3110  173.6580  142.5750 C   0  0  0  0  0  2  0  0  0  0  0  0
  189.2420  174.5120  143.2870 C   0  0  1  0  0  3  0  0  0  0  0  0
  190.0210  178.2820  148.0740 C   0  0  0  0  0  2  0  0  0  0  0  0
  191.3810  176.2840  148.1200 C   0  0  0  0  0  1  0  0  0  0  0  0
  190.3210  177.1250  147.4910 C   0  0  0  0  0  0  0  0  0  0  0  0
  185.6250  178.3640  145.5590 C   0  0  1  0  0  3  0  0  0  0  0  0
  185.6050  179.3320  146.5660 O   0  0  0  0  0  1  0  0  0  0  0  0
  184.3420  178.2130  143.3710 N   0  0  0  0  0  1  0  0  0  0  0  0
  185.1740  178.9560  144.2580 C   0  0  0  0  0  0  0  0  0  0  0  0
  185.5250  180.1240  143.9490 O   0  0  0  0  0  0  0  0  0  0  0  0
  1 10  1  6  0  0  0
  1  2  1  0  0  0  0
  2 21  1  6  0  0  0
  2  8  1  0  0  0  0
  3 10  1  6  0  0  0
  3  1  1  0  0  0  0
  3  4  1  0  0  0  0
  4  6  1  6  0  0  0
  4  9  1  0  0  0  0
  7  8  1  0  0  0  0
  8  5  2  0  0  0  0
  9  7  1  0  0  0  0
  9 20  1  0  0  0  0
 11 17  1  0  0  0  0
 11  3  1  1  0  0  0
 12 13  1  6  0  0  0
 12 11  1  0  0  0  0
 12 17  1  0  0  0  0
 14 16  1  0  0  0  0
 15 13  1  0  0  0  0
 15 14  1  0  0  0  0
 17 16  1  6  0  0  0
 20 18  2  0  0  0  0
 20 19  1  0  0  0  0
 21 22  1  1  0  0  0
 23 24  1  0  0  0  0
 24 21  1  0  0  0  0
 25 24  2  0  0  0  0
M  END
>  <MODEL>
5

>  <REMARK>
 VINA RESULT:      -6.6      2.449      5.008
  Name = 
  4 active torsions:
  status: ('A' for Active; 'I' for Inactive)
    1  A    between atoms: C_1  and  C_5
    2  A    between atoms: C_3  and  C_22
    3  A    between atoms: N_15  and  C_20
    4  A    between atoms: C_19  and  C_22
                            x       y       z     vdW  Elec       q    Type
                         _______ _______ _______ _____ _____    ______ ____

>  <TORSDO>
F 4

$$$$
=
 OpenBabel11062420173D

 25 28  0  0  1  0  0  0  0  0999 V2000
  189.8980  174.3340  144.2070 C   0  0  2  0  0  3  0  0  0  0  0  0
  191.2640  174.0980  143.5530 C   0  0  2  0  0  3  0  0  0  0  0  0
  190.0090  174.9340  145.6180 C   0  0  2  0  0  0  0  0  0  0  0  0
  191.3810  175.0810  146.3290 C   0  0  2  0  0  3  0  0  0  0  0  0
  192.4960  175.6030  142.1680 O   0  0  0  0  0  0  0  0  0  0  0  0
  191.2380  175.5820  147.7630 C   0  0  0  0  0  1  0  0  0  0  0  0
  192.0130  176.4800  144.2940 C   0  0  0  0  0  2  0  0  0  0  0  0
  191.9530  175.4100  143.2450 C   0  0  0  0  0  0  0  0  0  0  0  0
  192.3700  175.8860  145.5820 N   0  0  0  0  0  0  0  0  0  0  0  0
  189.7020  173.4600  145.4310 C   0  0  0  0  0  2  0  0  0  0  0  0
  188.7790  175.6930  146.1380 C   0  0  2  0  0  3  0  0  0  0  0  0
  188.1450  176.5590  145.0500 C   0  0  1  0  0  3  0  0  0  0  0  0
  186.6430  176.6720  145.3270 C   0  0  0  0  0  2  0  0  0  0  0  0
  186.7930  177.7570  147.2530 C   0  0  0  0  0  2  0  0  0  0  0  0
  186.3360  177.8940  145.9390 O   0  0  0  0  0  0  0  0  0  0  0  0
  188.3130  177.9050  147.2830 C   0  0  0  0  0  2  0  0  0  0  0  0
  189.0400  177.1910  146.1250 C   0  0  1  0  0  3  0  0  0  0  0  0
  194.5150  174.8020  145.8700 C   0  0  0  0  0  2  0  0  0  0  0  0
  194.4120  177.1430  146.4640 C   0  0  0  0  0  1  0  0  0  0  0  0
  193.7610  175.8930  145.9720 C   0  0  0  0  0  0  0  0  0  0  0  0
  191.1860  173.1420  142.3510 C   0  0  1  0  0  3  0  0  0  0  0  0
  191.5330  171.8450  142.7380 O   0  0  0  0  0  1  0  0  0  0  0  0
  189.4990  174.1840  140.7620 N   0  0  0  0  0  1  0  0  0  0  0  0
  189.8510  173.1410  141.6670 C   0  0  0  0  0  0  0  0  0  0  0  0
  189.0380  172.2060  141.8850 O   0  0  0  0  0  0  0  0  0  0  0  0
  1 10  1  1  0  0  0
  1  3  1  0  0  0  0
  2 21  1  6  0  0  0
  2  1  1  0  0  0  0
  3 10  1  1  0  0  0
  3  4  1  0  0  0  0
  4  6  1  1  0  0  0
  5  8  2  0  0  0  0
  7  9  1  0  0  0  0
  8  2  1  0  0  0  0
  8  7  1  0  0  0  0
  9 20  1  0  0  0  0
  9  4  1  0  0  0  0
 11  3  1  6  0  0  0
 12 13  1  1  0  0  0
 12 17  1  0  0  0  0
 12 11  1  0  0  0  0
 13 15  1  0  0  0  0
 14 16  1  0  0  0  0
 15 14  1  0  0  0  0
 17 11  1  0  0  0  0
 17 16  1  1  0  0  0
 18 20  2  0  0  0  0
 20 19  1  0  0  0  0
 21 22  1  1  0  0  0
 23 24  1  0  0  0  0
 24 25  2  0  0  0  0
 24 21  1  0  0  0  0
M  END
>  <MODEL>
6

>  <REMARK>
 VINA RESULT:      -6.5      3.397      7.396
  Name = 
  4 active torsions:
  status: ('A' for Active; 'I' for Inactive)
    1  A    between atoms: C_1  and  C_5
    2  A    between atoms: C_3  and  C_22
    3  A    between atoms: N_15  and  C_20
    4  A    between atoms: C_19  and  C_22
                            x       y       z     vdW  Elec       q    Type
                         _______ _______ _______ _____ _____    ______ ____

>  <TORSDO>
F 4

$$$$
=
 OpenBabel11062420173D

 25 28  0  0  1  0  0  0  0  0999 V2000
  190.5290  176.6990  145.1310 C   0  0  2  0  0  3  0  0  0  0  0  0
  191.4220  175.6250  144.4980 C   0  0  2  0  0  3  0  0  0  0  0  0
  189.2270  176.9270  144.3480 C   0  0  2  0  0  0  0  0  0  0  0  0
  188.9840  176.2580  142.9680 C   0  0  2  0  0  3  0  0  0  0  0  0
  191.4340  173.2820  144.9610 O   0  0  0  0  0  0  0  0  0  0  0  0
  187.6830  176.7240  142.3210 C   0  0  0  0  0  1  0  0  0  0  0  0
  189.3440  174.0750  144.2360 C   0  0  0  0  0  2  0  0  0  0  0  0
  190.7860  174.2550  144.6090 C   0  0  0  0  0  0  0  0  0  0  0  0
  189.0680  174.7830  142.9850 N   0  0  0  0  0  0  0  0  0  0  0  0
  190.3780  177.9070  144.2280 C   0  0  0  0  0  2  0  0  0  0  0  0
  188.0570  177.5420  145.1310 C   0  0  2  0  0  3  0  0  0  0  0  0
  187.9020  176.9080  146.5130 C   0  0  1  0  0  3  0  0  0  0  0  0
  187.3130  177.9510  147.4670 C   0  0  0  0  0  2  0  0  0  0  0  0
  185.3580  178.1880  146.4520 C   0  0  0  0  0  2  0  0  0  0  0  0
  185.9390  177.7480  147.6460 O   0  0  0  0  0  0  0  0  0  0  0  0
  185.5660  177.1360  145.3650 C   0  0  0  0  0  2  0  0  0  0  0  0
  186.9730  176.5020  145.3620 C   0  0  1  0  0  3  0  0  0  0  0  0
  190.1600  174.1660  140.9140 C   0  0  0  0  0  2  0  0  0  0  0  0
  188.0700  173.0500  141.3950 C   0  0  0  0  0  1  0  0  0  0  0  0
  189.1340  174.0330  141.7510 C   0  0  0  0  0  0  0  0  0  0  0  0
  192.8690  175.6790  145.0160 C   0  0  1  0  0  3  0  0  0  0  0  0
  193.6300  176.5560  144.2390 O   0  0  0  0  0  1  0  0  0  0  0  0
  193.8080  177.1200  146.8870 N   0  0  0  0  0  1  0  0  0  0  0  0
  192.9760  176.0420  146.4670 C   0  0  0  0  0  0  0  0  0  0  0  0
  192.3180  175.3960  147.3230 O   0  0  0  0  0  0  0  0  0  0  0  0
  1 10  1  6  0  0  0
  2  8  1  0  0  0  0
  2 21  1  1  0  0  0
  2  1  1  0  0  0  0
  3 10  1  6  0  0  0
  3  1  1  0  0  0  0
  4  6  1  1  0  0  0
  4  9  1  0  0  0  0
  4  3  1  0  0  0  0
  7  8  1  0  0  0  0
  8  5  2  0  0  0  0
  9  7  1  0  0  0  0
 11  3  1  6  0  0  0
 11 17  1  0  0  0  0
 11 12  1  0  0  0  0
 12 13  1  1  0  0  0
 13 15  1  0  0  0  0
 14 15  1  0  0  0  0
 16 14  1  0  0  0  0
 17 16  1  1  0  0  0
 17 12  1  0  0  0  0
 18 20  2  0  0  0  0
 19 20  1  0  0  0  0
 20  9  1  0  0  0  0
 21 22  1  6  0  0  0
 21 24  1  0  0  0  0
 24 23  1  0  0  0  0
 24 25  2  0  0  0  0
M  END
>  <MODEL>
7

>  <REMARK>
 VINA RESULT:      -6.5      2.640      6.040
  Name = 
  4 active torsions:
  status: ('A' for Active; 'I' for Inactive)
    1  A    between atoms: C_1  and  C_5
    2  A    between atoms: C_3  and  C_22
    3  A    between atoms: N_15  and  C_20
    4  A    between atoms: C_19  and  C_22
                            x       y       z     vdW  Elec       q    Type
                         _______ _______ _______ _____ _____    ______ ____

>  <TORSDO>
F 4

$$$$
=
 OpenBabel11062420173D

 25 28  0  0  1  0  0  0  0  0999 V2000
  190.2940  177.5840  142.9150 C   0  0  2  0  0  3  0  0  0  0  0  0
  188.7960  177.4120  143.1900 C   0  0  2  0  0  3  0  0  0  0  0  0
  191.1670  177.2100  144.1240 C   0  0  2  0  0  0  0  0  0  0  0  0
  190.5390  176.8880  145.5070 C   0  0  2  0  0  3  0  0  0  0  0  0
  187.4560  175.4740  142.8010 O   0  0  0  0  0  0  0  0  0  0  0  0
  191.5970  176.6680  146.5840 C   0  0  0  0  0  1  0  0  0  0  0  0
  189.2710  175.0760  144.2390 C   0  0  0  0  0  2  0  0  0  0  0  0
  188.4370  175.9500  143.3510 C   0  0  0  0  0  0  0  0  0  0  0  0
  189.5630  175.7800  145.4880 N   0  0  0  0  0  0  0  0  0  0  0  0
  190.9040  178.6660  143.7860 C   0  0  0  0  0  2  0  0  0  0  0  0
  192.6240  176.8270  143.8230 C   0  0  2  0  0  3  0  0  0  0  0  0
  192.7200  175.7950  142.7010 C   0  0  1  0  0  3  0  0  0  0  0  0
  194.0460  175.9960  141.9620 C   0  0  0  0  0  2  0  0  0  0  0  0
  195.3880  175.4950  143.6520 C   0  0  0  0  0  2  0  0  0  0  0  0
  195.0010  175.0610  142.3810 O   0  0  0  0  0  0  0  0  0  0  0  0
  194.3070  175.1310  144.6680 C   0  0  0  0  0  2  0  0  0  0  0  0
  192.8670  175.3670  144.1670 C   0  0  1  0  0  3  0  0  0  0  0  0
  188.9370  174.5410  147.4710 C   0  0  0  0  0  2  0  0  0  0  0  0
  187.5360  176.4260  146.9020 C   0  0  0  0  0  1  0  0  0  0  0  0
  188.7010  175.5370  146.6220 C   0  0  0  0  0  0  0  0  0  0  0  0
  187.9190  178.1560  142.1670 C   0  0  1  0  0  3  0  0  0  0  0  0
  187.8500  177.4350  140.9730 O   0  0  0  0  0  1  0  0  0  0  0  0
  186.3220  178.7850  144.0400 N   0  0  0  0  0  1  0  0  0  0  0  0
  186.5410  178.4680  142.6680 C   0  0  0  0  0  0  0  0  0  0  0  0
  185.5700  178.4620  141.8680 O   0  0  0  0  0  0  0  0  0  0  0  0
  1  2  1  0  0  0  0
  1 10  1  1  0  0  0
  1  3  1  0  0  0  0
  2 21  1  6  0  0  0
  2  8  1  0  0  0  0
  3 10  1  1  0  0  0
  3  4  1  0  0  0  0
  4  6  1  1  0  0  0
  5  8  2  0  0  0  0
  7  9  1  0  0  0  0
  8  7  1  0  0  0  0
  9  4  1  0  0  0  0
  9 20  1  0  0  0  0
 11  3  1  1  0  0  0
 11 17  1  0  0  0  0
 12 13  1  6  0  0  0
 12 11  1  0  0  0  0
 12 17  1  0  0  0  0
 13 15  1  0  0  0  0
 14 16  1  0  0  0  0
 15 14  1  0  0  0  0
 17 16  1  6  0  0  0
 20 19  1  0  0  0  0
 20 18  2  0  0  0  0
 21 22  1  6  0  0  0
 21 24  1  0  0  0  0
 24 23  1  0  0  0  0
 25 24  2  0  0  0  0
M  END
>  <MODEL>
8

>  <REMARK>
 VINA RESULT:      -6.4      2.756      5.231
  Name = 
  4 active torsions:
  status: ('A' for Active; 'I' for Inactive)
    1  A    between atoms: C_1  and  C_5
    2  A    between atoms: C_3  and  C_22
    3  A    between atoms: N_15  and  C_20
    4  A    between atoms: C_19  and  C_22
                            x       y       z     vdW  Elec       q    Type
                         _______ _______ _______ _____ _____    ______ ____

>  <TORSDO>
F 4

$$$$
=
 OpenBabel11062420173D

 25 28  0  0  1  0  0  0  0  0999 V2000
  190.1240  175.2880  143.0200 C   0  0  2  0  0  3  0  0  0  0  0  0
  191.3860  174.8770  143.7870 C   0  0  2  0  0  3  0  0  0  0  0  0
  189.0430  175.8910  143.9320 C   0  0  2  0  0  0  0  0  0  0  0  0
  189.1900  175.8790  145.4770 C   0  0  2  0  0  3  0  0  0  0  0  0
  193.3280  176.1990  144.2110 O   0  0  0  0  0  0  0  0  0  0  0  0
  187.9460  176.4160  146.1800 C   0  0  0  0  0  1  0  0  0  0  0  0
  191.3500  177.1610  145.0400 C   0  0  0  0  0  2  0  0  0  0  0  0
  192.1170  176.0900  144.3210 C   0  0  0  0  0  0  0  0  0  0  0  0
  190.4100  176.5460  145.9770 N   0  0  0  0  0  0  0  0  0  0  0  0
  188.9210  174.4630  143.4340 C   0  0  0  0  0  2  0  0  0  0  0  0
  188.0080  176.8030  143.2560 C   0  0  2  0  0  3  0  0  0  0  0  0
  186.6270  176.1510  143.2010 C   0  0  1  0  0  3  0  0  0  0  0  0
  185.5630  177.2520  143.2410 C   0  0  0  0  0  2  0  0  0  0  0  0
  186.0890  178.2210  141.3190 C   0  0  0  0  0  2  0  0  0  0  0  0
  185.0650  177.5160  141.9590 O   0  0  0  0  0  0  0  0  0  0  0  0
  187.1920  177.2500  140.8990 C   0  0  0  0  0  2  0  0  0  0  0  0
  187.5250  176.1780  141.9570 C   0  0  1  0  0  3  0  0  0  0  0  0
  191.2140  175.2080  147.8270 C   0  0  0  0  0  2  0  0  0  0  0  0
  190.8750  177.5590  148.2750 C   0  0  0  0  0  1  0  0  0  0  0  0
  190.8270  176.3880  147.3520 C   0  0  0  0  0  0  0  0  0  0  0  0
  192.2800  173.9200  142.9800 C   0  0  1  0  0  3  0  0  0  0  0  0
  191.9100  172.5940  143.2170 O   0  0  0  0  0  1  0  0  0  0  0  0
  191.4510  173.4710  140.6210 N   0  0  0  0  0  1  0  0  0  0  0  0
  192.2930  174.2030  141.5080 C   0  0  0  0  0  0  0  0  0  0  0  0
  193.0460  175.1020  141.0510 O   0  0  0  0  0  0  0  0  0  0  0  0
  1 10  1  1  0  0  0
  1  2  1  0  0  0  0
  1  3  1  0  0  0  0
  2 21  1  6  0  0  0
  2  8  1  0  0  0  0
  3 10  1  6  0  0  0
  3  4  1  0  0  0  0
  4  9  1  0  0  0  0
  4  6  1  1  0  0  0
  5  8  2  0  0  0  0
  7  9  1  0  0  0  0
  8  7  1  0  0  0  0
  9 20  1  0  0  0  0
 11  3  1  1  0  0  0
 12 13  1  6  0  0  0
 12 11  1  0  0  0  0
 14 15  1  0  0  0  0
 15 13  1  0  0  0  0
 16 14  1  0  0  0  0
 17 16  1  6  0  0  0
 17 12  1  0  0  0  0
 17 11  1  0  0  0  0
 20 18  2  0  0  0  0
 20 19  1  0  0  0  0
 21 22  1  6  0  0  0
 23 24  1  0  0  0  0
 24 21  1  0  0  0  0
 25 24  2  0  0  0  0
M  END
>  <MODEL>
9

>  <REMARK>
 VINA RESULT:      -6.2      2.931      7.201
  Name = 
  4 active torsions:
  status: ('A' for Active; 'I' for Inactive)
    1  A    between atoms: C_1  and  C_5
    2  A    between atoms: C_3  and  C_22
    3  A    between atoms: N_15  and  C_20
    4  A    between atoms: C_19  and  C_22
                            x       y       z     vdW  Elec       q    Type
                         _______ _______ _______ _____ _____    ______ ____

>  <TORSDO>
F 4

$$$$
