=
 OpenBabel11062418543D

 33 36  0  0  1  0  0  0  0  0999 V2000
  186.7940  176.8900  146.8430 C   0  0  0  0  0  2  0  0  0  0  0  0
  189.7490  174.6740  142.1240 C   0  0  0  0  0  0  0  0  0  0  0  0
  185.3430  177.3840  146.8630 C   0  0  0  0  0  2  0  0  0  0  0  0
  192.0160  173.7580  141.9280 O   0  0  0  0  0  1  0  0  0  0  0  0
  189.9070  177.5870  145.5220 C   0  0  0  0  0  1  0  0  0  0  0  0
  187.4860  177.1320  145.5060 C   0  0  1  0  0  3  0  0  0  0  0  0
  188.2700  174.3890  140.2350 N   0  0  0  0  0  0  0  0  0  0  0  0
  187.6750  176.0370  143.4280 C   0  0  0  0  0  0  0  0  0  0  0  0
  185.1280  178.6520  146.0400 C   0  0  0  0  0  2  0  0  0  0  0  0
  188.8870  175.8700  144.0630 C   0  0  0  0  0  0  0  0  0  0  0  0
  188.8680  176.4820  145.4230 C   0  0  1  0  0  3  0  0  0  0  0  0
  189.9410  175.1560  143.4490 C   0  0  0  0  0  0  0  0  0  0  0  0
  185.9210  177.8690  143.7210 C   0  0  1  0  0  3  0  0  0  0  0  0
  190.7510  173.9870  141.3980 C   0  0  0  0  0  0  0  0  0  0  0  0
  189.2330  173.7330  139.5390 C   0  0  0  0  0  3  0  0  0  0  0  0
  186.6530  176.6550  144.3150 C   0  0  2  0  0  3  0  0  0  0  0  0
  188.4870  174.8620  141.4910 C   0  0  0  0  0  0  0  0  0  0  0  0
  184.1040  179.4030  144.0280 O   0  0  0  0  0  1  0  0  0  0  0  0
  185.4390  177.5700  142.4440 O   0  0  0  0  0  1  0  0  0  0  0  0
  184.7360  178.3000  144.6030 C   0  0  2  0  0  3  0  0  0  0  0  0
  190.4860  173.5220  140.1090 C   0  0  0  0  0  3  0  0  0  0  0  0
  187.4500  175.5180  142.1550 C   0  0  0  0  0  3  0  0  0  0  0  0
  191.1670  174.8830  144.1480 N   0  0  0  0  0  2  0  0  0  0  0  0
  191.2970  173.9110  145.0820 O   0  0  0  0  0  0  0  0  0  0  0  0
  192.4970  174.2010  145.7370 C   0  0  0  0  0  2  0  0  0  0  0  0
  192.2340  175.1050  146.9260 C   0  0  0  0  0  2  0  0  0  0  0  0
  193.1150  176.3410  146.8480 C   0  0  0  0  0  2  0  0  0  0  0  0
  194.4760  175.9850  146.2780 C   0  0  0  0  0  2  0  0  0  0  0  0
  194.9050  177.0200  145.2510 C   0  0  0  0  0  2  0  0  0  0  0  0
  194.1970  175.9620  143.2430 O   0  0  0  0  0  0  0  0  0  0  0  0
  195.1660  176.3590  143.9400 C   0  0  0  0  0  0  0  0  0  0  0  0
  196.5340  176.1400  143.4640 C   0  0  0  0  0  3  0  0  0  0  0  0
  197.3100  177.1100  143.2540 O   0  0  0  0  0  0  0  0  0  0  0  0
  1  3  1  0  0  0  0
  2 12  1  0  0  0  0
  6  1  1  1  0  0  0
  7 17  1  0  0  0  0
  8 10  1  0  0  0  0
  9  3  1  0  0  0  0
 10 11  1  0  0  0  0
 11  6  1  0  0  0  0
 11  5  1  6  0  0  0
 12 10  2  0  0  0  0
 12 23  1  0  0  0  0
 13 19  1  6  0  0  0
 13 16  1  0  0  0  0
 13 20  1  0  0  0  0
 14  4  1  0  0  0  0
 14  2  1  0  0  0  0
 15 21  1  0  0  0  0
 15  7  2  0  0  0  0
 16  8  1  6  0  0  0
 16  6  1  0  0  0  0
 17  2  2  0  0  0  0
 17 22  1  0  0  0  0
 20 18  1  6  0  0  0
 20  9  1  0  0  0  0
 21 14  2  0  0  0  0
 22  8  2  0  0  0  0
 23 24  1  0  0  0  0
 24 25  1  0  0  0  0
 25 26  1  0  0  0  0
 27 26  1  0  0  0  0
 28 27  1  0  0  0  0
 29 28  1  0  0  0  0
 30 31  2  0  0  0  0
 31 29  1  0  0  0  0
 32 31  1  0  0  0  0
 33 32  2  0  0  0  0
M  END
>  <MODEL>
1

>  <REMARK>
 VINA RESULT:      -7.6      0.000      0.000
  Name = 
  9 active torsions:
  status: ('A' for Active; 'I' for Inactive)
    1  A    between atoms: N_6  and  C_17
    2  A    between atoms: N_6  and  O_21
    3  A    between atoms: C_9  and  O_21
    4  A    between atoms: C_9  and  C_33
    5  A    between atoms: C_14  and  C_18
    6  A    between atoms: C_14  and  C_28
    7  A    between atoms: C_16  and  C_18
    8  A    between atoms: C_24  and  C_28
    9  A    between atoms: C_24  and  C_33
                            x       y       z     vdW  Elec       q    Type
                         _______ _______ _______ _____ _____    ______ ____

>  <TORSDO>
F 9

$$$$
=
 OpenBabel11062418543D

 33 36  0  0  1  0  0  0  0  0999 V2000
  187.9070  177.5890  146.3370 C   0  0  0  0  0  2  0  0  0  0  0  0
  190.0310  174.5020  141.6600 C   0  0  0  0  0  0  0  0  0  0  0  0
  186.4370  177.9140  146.6260 C   0  0  0  0  0  2  0  0  0  0  0  0
  192.3140  173.8100  141.0900 O   0  0  0  0  0  1  0  0  0  0  0  0
  190.4660  178.2250  144.1090 C   0  0  0  0  0  1  0  0  0  0  0  0
  188.2210  177.5310  144.8460 C   0  0  1  0  0  3  0  0  0  0  0  0
  188.2280  173.5610  140.3560 N   0  0  0  0  0  0  0  0  0  0  0  0
  188.1110  175.9400  143.1110 C   0  0  0  0  0  0  0  0  0  0  0  0
  185.8250  178.8820  145.6150 C   0  0  0  0  0  2  0  0  0  0  0  0
  189.4460  176.0810  143.4210 C   0  0  0  0  0  0  0  0  0  0  0  0
  189.6360  177.0330  144.5530 C   0  0  1  0  0  3  0  0  0  0  0  0
  190.4370  175.3420  142.7350 C   0  0  0  0  0  0  0  0  0  0  0  0
  186.1850  177.5880  143.4210 C   0  0  1  0  0  3  0  0  0  0  0  0
  190.9410  173.7530  140.8760 C   0  0  0  0  0  0  0  0  0  0  0  0
  189.1030  172.8460  139.6040 C   0  0  0  0  0  3  0  0  0  0  0  0
  187.2300  176.6640  144.0670 C   0  0  2  0  0  3  0  0  0  0  0  0
  188.6440  174.3760  141.3610 C   0  0  0  0  0  0  0  0  0  0  0  0
  184.2530  178.9470  143.8300 O   0  0  0  0  0  1  0  0  0  0  0  0
  185.4800  176.9040  142.4260 O   0  0  0  0  0  1  0  0  0  0  0  0
  185.1790  178.1140  144.4600 C   0  0  2  0  0  3  0  0  0  0  0  0
  190.4700  172.9310  139.8520 C   0  0  0  0  0  3  0  0  0  0  0  0
  187.6910  175.0750  142.1040 C   0  0  0  0  0  3  0  0  0  0  0  0
  191.8190  175.3990  143.1260 N   0  0  0  0  0  2  0  0  0  0  0  0
  192.6660  176.3840  142.7440 O   0  0  0  0  0  0  0  0  0  0  0  0
  193.9160  175.9910  143.2300 C   0  0  0  0  0  2  0  0  0  0  0  0
  193.7690  175.3910  144.6160 C   0  0  0  0  0  2  0  0  0  0  0  0
  194.2450  176.3800  145.6670 C   0  0  0  0  0  2  0  0  0  0  0  0
  193.2860  176.4030  146.8440 C   0  0  0  0  0  2  0  0  0  0  0  0
  192.2200  175.3340  146.6770 C   0  0  0  0  0  2  0  0  0  0  0  0
  190.9940  176.7700  148.1230 O   0  0  0  0  0  0  0  0  0  0  0  0
  191.0050  175.7000  147.4610 C   0  0  0  0  0  0  0  0  0  0  0  0
  189.8350  174.8200  147.4950 C   0  0  0  0  0  3  0  0  0  0  0  0
  189.4640  174.1950  146.4670 O   0  0  0  0  0  0  0  0  0  0  0  0
  1  3  1  0  0  0  0
  2 12  1  0  0  0  0
  6  1  1  1  0  0  0
  7 17  1  0  0  0  0
  8 10  1  0  0  0  0
  9  3  1  0  0  0  0
 10 11  1  0  0  0  0
 11  5  1  6  0  0  0
 11  6  1  0  0  0  0
 12 23  1  0  0  0  0
 12 10  2  0  0  0  0
 13 19  1  6  0  0  0
 13 16  1  0  0  0  0
 13 20  1  0  0  0  0
 14  4  1  0  0  0  0
 14  2  1  0  0  0  0
 15 21  1  0  0  0  0
 15  7  2  0  0  0  0
 16  8  1  6  0  0  0
 16  6  1  0  0  0  0
 17  2  2  0  0  0  0
 17 22  1  0  0  0  0
 20 18  1  6  0  0  0
 20  9  1  0  0  0  0
 21 14  2  0  0  0  0
 22  8  2  0  0  0  0
 24 23  1  0  0  0  0
 24 25  1  0  0  0  0
 25 26  1  0  0  0  0
 26 27  1  0  0  0  0
 27 28  1  0  0  0  0
 29 28  1  0  0  0  0
 29 31  1  0  0  0  0
 31 32  1  0  0  0  0
 31 30  2  0  0  0  0
 33 32  2  0  0  0  0
M  END
>  <MODEL>
2

>  <REMARK>
 VINA RESULT:      -7.2      1.351      2.894
  Name = 
  9 active torsions:
  status: ('A' for Active; 'I' for Inactive)
    1  A    between atoms: N_6  and  C_17
    2  A    between atoms: N_6  and  O_21
    3  A    between atoms: C_9  and  O_21
    4  A    between atoms: C_9  and  C_33
    5  A    between atoms: C_14  and  C_18
    6  A    between atoms: C_14  and  C_28
    7  A    between atoms: C_16  and  C_18
    8  A    between atoms: C_24  and  C_28
    9  A    between atoms: C_24  and  C_33
                            x       y       z     vdW  Elec       q    Type
                         _______ _______ _______ _____ _____    ______ ____

>  <TORSDO>
F 9

$$$$
=
 OpenBabel11062418543D

 33 36  0  0  1  0  0  0  0  0999 V2000
  186.5490  176.9860  146.8430 C   0  0  0  0  0  2  0  0  0  0  0  0
  189.8590  174.7510  142.3760 C   0  0  0  0  0  0  0  0  0  0  0  0
  185.0730  177.3930  146.7720 C   0  0  0  0  0  2  0  0  0  0  0  0
  192.1820  173.9630  142.3300 O   0  0  0  0  0  1  0  0  0  0  0  0
  189.6780  177.8100  145.6410 C   0  0  0  0  0  1  0  0  0  0  0  0
  187.2920  177.2110  145.5310 C   0  0  1  0  0  3  0  0  0  0  0  0
  188.4940  174.2960  140.4340 N   0  0  0  0  0  0  0  0  0  0  0  0
  187.6470  176.0420  143.5160 C   0  0  0  0  0  0  0  0  0  0  0  0
  184.8270  178.6100  145.8830 C   0  0  0  0  0  2  0  0  0  0  0  0
  188.8330  175.9750  144.2150 C   0  0  0  0  0  0  0  0  0  0  0  0
  188.7110  176.6430  145.5430 C   0  0  1  0  0  3  0  0  0  0  0  0
  189.9560  175.2990  143.6850 C   0  0  0  0  0  0  0  0  0  0  0  0
  185.7780  177.7760  143.6420 C   0  0  1  0  0  3  0  0  0  0  0  0
  190.9340  174.0940  141.7300 C   0  0  0  0  0  0  0  0  0  0  0  0
  189.5270  173.6700  139.8150 C   0  0  0  0  0  3  0  0  0  0  0  0
  186.5480  176.6350  144.3250 C   0  0  2  0  0  3  0  0  0  0  0  0
  188.6210  174.8350  141.6760 C   0  0  0  0  0  0  0  0  0  0  0  0
  183.8620  179.2110  143.7920 O   0  0  0  0  0  1  0  0  0  0  0  0
  185.3780  177.3940  142.3590 O   0  0  0  0  0  1  0  0  0  0  0  0
  184.5270  178.1730  144.4470 C   0  0  2  0  0  3  0  0  0  0  0  0
  190.7610  173.5590  140.4530 C   0  0  0  0  0  3  0  0  0  0  0  0
  187.5160  175.4560  142.2600 C   0  0  0  0  0  3  0  0  0  0  0  0
  191.1590  175.1300  144.4530 N   0  0  0  0  0  2  0  0  0  0  0  0
  191.2460  174.3360  145.5470 O   0  0  0  0  0  0  0  0  0  0  0  0
  192.0530  175.0430  146.4410 C   0  0  0  0  0  2  0  0  0  0  0  0
  192.9530  176.0010  145.6830 C   0  0  0  0  0  2  0  0  0  0  0  0
  194.2940  176.1250  146.3870 C   0  0  0  0  0  2  0  0  0  0  0  0
  195.1830  174.9430  146.0450 C   0  0  0  0  0  2  0  0  0  0  0  0
  195.0880  174.6220  144.5630 C   0  0  0  0  0  2  0  0  0  0  0  0
  195.4690  172.6140  143.3470 O   0  0  0  0  0  0  0  0  0  0  0  0
  194.9640  173.1490  144.3680 C   0  0  0  0  0  0  0  0  0  0  0  0
  194.2400  172.3170  145.3320 C   0  0  0  0  0  3  0  0  0  0  0  0
  193.7250  171.2210  144.9850 O   0  0  0  0  0  0  0  0  0  0  0  0
  2 12  1  0  0  0  0
  3  1  1  0  0  0  0
  6 11  1  0  0  0  0
  6  1  1  1  0  0  0
  7 17  1  0  0  0  0
  8 10  1  0  0  0  0
  9  3  1  0  0  0  0
 10 11  1  0  0  0  0
 11  5  1  6  0  0  0
 12 10  2  0  0  0  0
 12 23  1  0  0  0  0
 13 19  1  6  0  0  0
 13 16  1  0  0  0  0
 13 20  1  0  0  0  0
 14  4  1  0  0  0  0
 14  2  1  0  0  0  0
 15  7  2  0  0  0  0
 15 21  1  0  0  0  0
 16  8  1  6  0  0  0
 16  6  1  0  0  0  0
 17 22  1  0  0  0  0
 17  2  2  0  0  0  0
 20 18  1  6  0  0  0
 20  9  1  0  0  0  0
 21 14  2  0  0  0  0
 22  8  2  0  0  0  0
 23 24  1  0  0  0  0
 24 25  1  0  0  0  0
 26 27  1  0  0  0  0
 26 25  1  0  0  0  0
 28 27  1  0  0  0  0
 29 28  1  0  0  0  0
 30 31  2  0  0  0  0
 31 29  1  0  0  0  0
 31 32  1  0  0  0  0
 33 32  2  0  0  0  0
M  END
>  <MODEL>
3

>  <REMARK>
 VINA RESULT:      -7.1      1.245      1.855
  Name = 
  9 active torsions:
  status: ('A' for Active; 'I' for Inactive)
    1  A    between atoms: N_6  and  C_17
    2  A    between atoms: N_6  and  O_21
    3  A    between atoms: C_9  and  O_21
    4  A    between atoms: C_9  and  C_33
    5  A    between atoms: C_14  and  C_18
    6  A    between atoms: C_14  and  C_28
    7  A    between atoms: C_16  and  C_18
    8  A    between atoms: C_24  and  C_28
    9  A    between atoms: C_24  and  C_33
                            x       y       z     vdW  Elec       q    Type
                         _______ _______ _______ _____ _____    ______ ____

>  <TORSDO>
F 9

$$$$
=
 OpenBabel11062418543D

 33 36  0  0  1  0  0  0  0  0999 V2000
  191.9880  173.1570  142.3670 C   0  0  0  0  0  2  0  0  0  0  0  0
  187.7570  176.8600  144.4410 C   0  0  0  0  0  0  0  0  0  0  0  0
  192.2710  172.8240  140.8980 C   0  0  0  0  0  2  0  0  0  0  0  0
  187.2240  177.5790  146.7250 O   0  0  0  0  0  1  0  0  0  0  0  0
  189.6130  172.8050  144.8470 C   0  0  0  0  0  1  0  0  0  0  0  0
  190.5130  173.4300  142.6420 C   0  0  1  0  0  3  0  0  0  0  0  0
  186.6630  178.0220  142.6270 N   0  0  0  0  0  0  0  0  0  0  0  0
  189.0370  175.2620  142.5250 C   0  0  0  0  0  0  0  0  0  0  0  0
  191.1480  172.0300  140.2340 C   0  0  0  0  0  2  0  0  0  0  0  0
  189.2810  175.0490  143.8650 C   0  0  0  0  0  0  0  0  0  0  0  0
  190.2540  173.9350  144.0610 C   0  0  1  0  0  3  0  0  0  0  0  0
  188.6820  175.8610  144.8550 C   0  0  0  0  0  0  0  0  0  0  0  0
  189.1590  173.6290  140.5670 C   0  0  1  0  0  3  0  0  0  0  0  0
  187.0650  177.6970  145.3480 C   0  0  0  0  0  0  0  0  0  0  0  0
  185.9980  178.8220  143.4990 C   0  0  0  0  0  3  0  0  0  0  0  0
  189.9030  174.4230  141.6520 C   0  0  2  0  0  3  0  0  0  0  0  0
  187.5220  177.0570  143.0500 C   0  0  0  0  0  0  0  0  0  0  0  0
  189.4230  172.2650  138.6120 O   0  0  0  0  0  1  0  0  0  0  0  0
  188.2990  174.4670  139.8530 O   0  0  0  0  0  1  0  0  0  0  0  0
  190.1390  172.9750  139.5760 C   0  0  2  0  0  3  0  0  0  0  0  0
  186.1880  178.6720  144.8710 C   0  0  0  0  0  3  0  0  0  0  0  0
  188.1830  176.2770  142.1000 C   0  0  0  0  0  3  0  0  0  0  0  0
  189.0170  175.7170  146.2440 N   0  0  0  0  0  2  0  0  0  0  0  0
  190.0990  176.2950  146.8190 O   0  0  0  0  0  0  0  0  0  0  0  0
  190.7500  175.2540  147.4860 C   0  0  0  0  0  2  0  0  0  0  0  0
  192.1660  175.1050  146.9600 C   0  0  0  0  0  2  0  0  0  0  0  0
  192.9100  176.4240  147.0820 C   0  0  0  0  0  2  0  0  0  0  0  0
  193.7080  176.7000  145.8210 C   0  0  0  0  0  2  0  0  0  0  0  0
  193.2120  175.8280  144.6800 C   0  0  0  0  0  2  0  0  0  0  0  0
  192.9450  176.4900  142.4130 O   0  0  0  0  0  0  0  0  0  0  0  0
  192.6140  176.6780  143.6110 C   0  0  0  0  0  0  0  0  0  0  0  0
  191.6680  177.7470  143.9380 C   0  0  0  0  0  3  0  0  0  0  0  0
  190.9170  178.2400  143.0550 O   0  0  0  0  0  0  0  0  0  0  0  0
  2 12  1  0  0  0  0
  2 14  2  0  0  0  0
  3  1  1  0  0  0  0
  6  1  1  6  0  0  0
  6 11  1  0  0  0  0
  7 17  2  0  0  0  0
  7 15  1  0  0  0  0
  8 10  1  0  0  0  0
  9  3  1  0  0  0  0
 10 11  1  0  0  0  0
 10 12  2  0  0  0  0
 11  5  1  1  0  0  0
 12 23  1  0  0  0  0
 13 19  1  6  0  0  0
 13 16  1  0  0  0  0
 14  4  1  0  0  0  0
 15 21  2  0  0  0  0
 16  8  1  1  0  0  0
 16  6  1  0  0  0  0
 17  2  1  0  0  0  0
 20 18  1  6  0  0  0
 20  9  1  0  0  0  0
 20 13  1  0  0  0  0
 21 14  1  0  0  0  0
 22  8  2  0  0  0  0
 22 17  1  0  0  0  0
 23 24  1  0  0  0  0
 24 25  1  0  0  0  0
 26 27  1  0  0  0  0
 26 25  1  0  0  0  0
 28 27  1  0  0  0  0
 29 28  1  0  0  0  0
 30 31  2  0  0  0  0
 31 32  1  0  0  0  0
 31 29  1  0  0  0  0
 33 32  2  0  0  0  0
M  END
>  <MODEL>
4

>  <REMARK>
 VINA RESULT:      -7.0      2.283      5.527
  Name = 
  9 active torsions:
  status: ('A' for Active; 'I' for Inactive)
    1  A    between atoms: N_6  and  C_17
    2  A    between atoms: N_6  and  O_21
    3  A    between atoms: C_9  and  O_21
    4  A    between atoms: C_9  and  C_33
    5  A    between atoms: C_14  and  C_18
    6  A    between atoms: C_14  and  C_28
    7  A    between atoms: C_16  and  C_18
    8  A    between atoms: C_24  and  C_28
    9  A    between atoms: C_24  and  C_33
                            x       y       z     vdW  Elec       q    Type
                         _______ _______ _______ _____ _____    ______ ____

>  <TORSDO>
F 9

$$$$
=
 OpenBabel11062418543D

 33 36  0  0  1  0  0  0  0  0999 V2000
  190.7210  174.9660  142.8070 C   0  0  0  0  0  2  0  0  0  0  0  0
  186.2170  177.9960  145.3460 C   0  0  0  0  0  0  0  0  0  0  0  0
  191.8420  174.2140  143.5350 C   0  0  0  0  0  2  0  0  0  0  0  0
  184.3020  179.1660  144.3540 O   0  0  0  0  0  1  0  0  0  0  0  0
  189.4540  178.1300  142.2550 C   0  0  0  0  0  1  0  0  0  0  0  0
  190.2420  176.1990  143.5660 C   0  0  1  0  0  3  0  0  0  0  0  0
  186.2050  177.6790  147.7410 N   0  0  0  0  0  0  0  0  0  0  0  0
  188.6970  176.6920  145.2760 C   0  0  0  0  0  0  0  0  0  0  0  0
  192.7930  175.1390  144.2920 C   0  0  0  0  0  2  0  0  0  0  0  0
  188.1360  177.1530  144.1050 C   0  0  0  0  0  0  0  0  0  0  0  0
  189.0090  176.8460  142.9350 C   0  0  1  0  0  3  0  0  0  0  0  0
  186.8690  177.7810  144.1000 C   0  0  0  0  0  0  0  0  0  0  0  0
  191.1530  176.3350  145.8740 C   0  0  1  0  0  3  0  0  0  0  0  0
  184.9690  178.6540  145.4620 C   0  0  0  0  0  0  0  0  0  0  0  0
  185.0100  178.3140  147.8510 C   0  0  0  0  0  3  0  0  0  0  0  0
  189.9390  175.9060  145.0360 C   0  0  2  0  0  3  0  0  0  0  0  0
  186.8200  177.5100  146.5410 C   0  0  0  0  0  0  0  0  0  0  0  0
  193.3950  175.7650  146.5070 O   0  0  0  0  0  1  0  0  0  0  0  0
  190.8060  176.4240  147.2250 O   0  0  0  0  0  1  0  0  0  0  0  0
  192.3160  175.3360  145.7330 C   0  0  2  0  0  3  0  0  0  0  0  0
  184.3750  178.8100  146.7150 C   0  0  0  0  0  3  0  0  0  0  0  0
  188.0430  176.8380  146.4960 C   0  0  0  0  0  3  0  0  0  0  0  0
  186.2290  178.1640  142.8720 N   0  0  0  0  0  2  0  0  0  0  0  0
  185.5120  177.3110  142.1010 O   0  0  0  0  0  0  0  0  0  0  0  0
  185.6400  177.8070  140.8020 C   0  0  0  0  0  2  0  0  0  0  0  0
  184.3650  178.5180  140.3890 C   0  0  0  0  0  2  0  0  0  0  0  0
  183.2140  178.0900  141.2830 C   0  0  0  0  0  2  0  0  0  0  0  0
  181.8860  178.3280  140.5870 C   0  0  0  0  0  2  0  0  0  0  0  0
  180.8900  178.9520  141.5500 C   0  0  0  0  0  2  0  0  0  0  0  0
  180.1110  180.8290  140.3160 O   0  0  0  0  0  0  0  0  0  0  0  0
  179.8440  179.6950  140.7900 C   0  0  0  0  0  0  0  0  0  0  0  0
  178.5020  179.1370  140.6110 C   0  0  0  0  0  3  0  0  0  0  0  0
  178.3220  177.8940  140.5300 O   0  0  0  0  0  0  0  0  0  0  0  0
  1  3  1  0  0  0  0
  2 14  2  0  0  0  0
  2 17  1  0  0  0  0
  3  9  1  0  0  0  0
  4 14  1  0  0  0  0
  6  1  1  6  0  0  0
  6 16  1  0  0  0  0
  7 15  1  0  0  0  0
  8 22  2  0  0  0  0
  9 20  1  0  0  0  0
 10  8  1  0  0  0  0
 11  5  1  1  0  0  0
 11  6  1  0  0  0  0
 11 10  1  0  0  0  0
 12 10  2  0  0  0  0
 12  2  1  0  0  0  0
 13 19  1  1  0  0  0
 14 21  1  0  0  0  0
 16  8  1  1  0  0  0
 16 13  1  0  0  0  0
 17  7  2  0  0  0  0
 20 13  1  0  0  0  0
 20 18  1  1  0  0  0
 21 15  2  0  0  0  0
 22 17  1  0  0  0  0
 23 12  1  0  0  0  0
 24 23  1  0  0  0  0
 25 24  1  0  0  0  0
 26 25  1  0  0  0  0
 26 27  1  0  0  0  0
 28 27  1  0  0  0  0
 28 29  1  0  0  0  0
 30 31  2  0  0  0  0
 31 29  1  0  0  0  0
 32 31  1  0  0  0  0
 33 32  2  0  0  0  0
M  END
>  <MODEL>
5

>  <REMARK>
 VINA RESULT:      -6.9      3.436      9.653
  Name = 
  9 active torsions:
  status: ('A' for Active; 'I' for Inactive)
    1  A    between atoms: N_6  and  C_17
    2  A    between atoms: N_6  and  O_21
    3  A    between atoms: C_9  and  O_21
    4  A    between atoms: C_9  and  C_33
    5  A    between atoms: C_14  and  C_18
    6  A    between atoms: C_14  and  C_28
    7  A    between atoms: C_16  and  C_18
    8  A    between atoms: C_24  and  C_28
    9  A    between atoms: C_24  and  C_33
                            x       y       z     vdW  Elec       q    Type
                         _______ _______ _______ _____ _____    ______ ____

>  <TORSDO>
F 9

$$$$
=
 OpenBabel11062418543D

 33 36  0  0  1  0  0  0  0  0999 V2000
  188.1040  178.0790  143.6100 C   0  0  0  0  0  2  0  0  0  0  0  0
  191.9950  173.5630  144.2220 C   0  0  0  0  0  0  0  0  0  0  0  0
  186.8070  178.0640  142.7930 C   0  0  0  0  0  2  0  0  0  0  0  0
  194.0500  173.3760  145.5490 O   0  0  0  0  0  1  0  0  0  0  0  0
  191.5390  177.9210  143.3000 C   0  0  0  0  0  1  0  0  0  0  0  0
  189.2000  177.2100  143.0030 C   0  0  1  0  0  3  0  0  0  0  0  0
  191.1380  171.5430  143.2110 N   0  0  0  0  0  0  0  0  0  0  0  0
  189.8490  174.9460  143.0630 C   0  0  0  0  0  0  0  0  0  0  0  0
  187.0460  177.9690  141.2880 C   0  0  0  0  0  2  0  0  0  0  0  0
  190.7700  175.6310  143.8260 C   0  0  0  0  0  0  0  0  0  0  0  0
  190.4270  177.0800  143.9050 C   0  0  1  0  0  3  0  0  0  0  0  0
  191.8420  174.9580  144.4560 C   0  0  0  0  0  0  0  0  0  0  0  0
  188.3830  175.7760  141.1440 C   0  0  1  0  0  3  0  0  0  0  0  0
  193.0570  172.8000  144.7640 C   0  0  0  0  0  0  0  0  0  0  0  0
  192.1590  170.8130  143.7290 C   0  0  0  0  0  3  0  0  0  0  0  0
  188.7080  175.8060  142.6460 C   0  0  2  0  0  3  0  0  0  0  0  0
  191.0290  172.8800  143.4280 C   0  0  0  0  0  0  0  0  0  0  0  0
  186.8100  176.4550  139.4670 O   0  0  0  0  0  1  0  0  0  0  0  0
  188.2750  174.4570  140.6960 O   0  0  0  0  0  1  0  0  0  0  0  0
  187.0630  176.5060  140.8390 C   0  0  2  0  0  3  0  0  0  0  0  0
  193.1320  171.4290  144.5120 C   0  0  0  0  0  3  0  0  0  0  0  0
  189.9490  173.5690  142.8750 C   0  0  0  0  0  3  0  0  0  0  0  0
  192.7400  175.6460  145.3410 N   0  0  0  0  0  2  0  0  0  0  0  0
  192.3300  176.3970  146.3920 O   0  0  0  0  0  0  0  0  0  0  0  0
  191.7140  175.4930  147.2600 C   0  0  0  0  0  2  0  0  0  0  0  0
  190.3330  175.9940  147.6390 C   0  0  0  0  0  2  0  0  0  0  0  0
  189.2740  175.0040  147.1840 C   0  0  0  0  0  2  0  0  0  0  0  0
  188.1910  175.7150  146.3920 C   0  0  0  0  0  2  0  0  0  0  0  0
  187.5070  176.7620  147.2550 C   0  0  0  0  0  2  0  0  0  0  0  0
  185.6940  176.4240  145.7550 O   0  0  0  0  0  0  0  0  0  0  0  0
  186.2030  177.1510  146.6460 C   0  0  0  0  0  0  0  0  0  0  0  0
  185.5190  178.3810  147.0500 C   0  0  0  0  0  3  0  0  0  0  0  0
  186.1410  179.3090  147.6320 O   0  0  0  0  0  0  0  0  0  0  0  0
  2 12  1  0  0  0  0
  2 14  2  0  0  0  0
  3  1  1  0  0  0  0
  6  1  1  1  0  0  0
  6 11  1  0  0  0  0
  7 17  2  0  0  0  0
  7 15  1  0  0  0  0
  8 10  1  0  0  0  0
  9  3  1  0  0  0  0
 10 11  1  0  0  0  0
 10 12  2  0  0  0  0
 11  5  1  6  0  0  0
 12 23  1  0  0  0  0
 13 19  1  1  0  0  0
 13 16  1  0  0  0  0
 14  4  1  0  0  0  0
 15 21  2  0  0  0  0
 16  6  1  0  0  0  0
 16  8  1  6  0  0  0
 17  2  1  0  0  0  0
 20 18  1  6  0  0  0
 20 13  1  0  0  0  0
 20  9  1  0  0  0  0
 21 14  1  0  0  0  0
 22  8  2  0  0  0  0
 22 17  1  0  0  0  0
 23 24  1  0  0  0  0
 24 25  1  0  0  0  0
 25 26  1  0  0  0  0
 27 26  1  0  0  0  0
 28 27  1  0  0  0  0
 28 29  1  0  0  0  0
 30 31  2  0  0  0  0
 31 32  1  0  0  0  0
 31 29  1  0  0  0  0
 32 33  2  0  0  0  0
M  END
>  <MODEL>
6

>  <REMARK>
 VINA RESULT:      -6.9      2.687      5.381
  Name = 
  9 active torsions:
  status: ('A' for Active; 'I' for Inactive)
    1  A    between atoms: N_6  and  C_17
    2  A    between atoms: N_6  and  O_21
    3  A    between atoms: C_9  and  O_21
    4  A    between atoms: C_9  and  C_33
    5  A    between atoms: C_14  and  C_18
    6  A    between atoms: C_14  and  C_28
    7  A    between atoms: C_16  and  C_18
    8  A    between atoms: C_24  and  C_28
    9  A    between atoms: C_24  and  C_33
                            x       y       z     vdW  Elec       q    Type
                         _______ _______ _______ _____ _____    ______ ____

>  <TORSDO>
F 9

$$$$
=
 OpenBabel11062418543D

 33 36  0  0  1  0  0  0  0  0999 V2000
  192.0080  173.6800  142.4360 C   0  0  0  0  0  2  0  0  0  0  0  0
  187.5890  177.1670  144.4900 C   0  0  0  0  0  0  0  0  0  0  0  0
  192.2860  173.3250  140.9710 C   0  0  0  0  0  2  0  0  0  0  0  0
  187.0510  177.9150  146.7640 O   0  0  0  0  0  1  0  0  0  0  0  0
  189.7020  173.2480  144.9690 C   0  0  0  0  0  1  0  0  0  0  0  0
  190.5240  173.8670  142.7310 C   0  0  1  0  0  3  0  0  0  0  0  0
  186.3930  178.2090  142.6680 N   0  0  0  0  0  0  0  0  0  0  0  0
  188.9340  175.6010  142.5940 C   0  0  0  0  0  0  0  0  0  0  0  0
  191.2040  172.4450  140.3500 C   0  0  0  0  0  2  0  0  0  0  0  0
  189.2140  175.4400  143.9340 C   0  0  0  0  0  0  0  0  0  0  0  0
  190.2580  174.3950  144.1410 C   0  0  1  0  0  3  0  0  0  0  0  0
  188.5820  176.2400  144.9130 C   0  0  0  0  0  0  0  0  0  0  0  0
  189.1250  173.9250  140.6780 C   0  0  1  0  0  3  0  0  0  0  0  0
  186.8610  177.9850  145.3880 C   0  0  0  0  0  0  0  0  0  0  0  0
  185.6940  178.9900  143.5310 C   0  0  0  0  0  3  0  0  0  0  0  0
  189.8350  174.7930  141.7270 C   0  0  2  0  0  3  0  0  0  0  0  0
  187.3190  177.3120  143.0990 C   0  0  0  0  0  0  0  0  0  0  0  0
  189.4390  172.5270  138.7550 O   0  0  0  0  0  1  0  0  0  0  0  0
  188.2010  174.6880  139.9580 O   0  0  0  0  0  1  0  0  0  0  0  0
  190.1270  173.3060  139.6860 C   0  0  2  0  0  3  0  0  0  0  0  0
  185.9170  178.8890  144.9020 C   0  0  0  0  0  3  0  0  0  0  0  0
  188.0100  176.5480  142.1590 C   0  0  0  0  0  3  0  0  0  0  0  0
  188.9490  176.1550  146.3000 N   0  0  0  0  0  2  0  0  0  0  0  0
  190.0960  176.6680  146.8050 O   0  0  0  0  0  0  0  0  0  0  0  0
  190.5830  175.6800  147.6650 C   0  0  0  0  0  2  0  0  0  0  0  0
  191.9940  175.2920  147.2660 C   0  0  0  0  0  2  0  0  0  0  0  0
  192.5380  176.2770  146.2450 C   0  0  0  0  0  2  0  0  0  0  0  0
  193.5910  175.6110  145.3760 C   0  0  0  0  0  2  0  0  0  0  0  0
  193.8330  176.4300  144.1200 C   0  0  0  0  0  2  0  0  0  0  0  0
  196.1850  176.0810  144.1620 O   0  0  0  0  0  0  0  0  0  0  0  0
  195.1230  176.0270  143.4900 C   0  0  0  0  0  0  0  0  0  0  0  0
  195.1780  175.5940  142.0910 C   0  0  0  0  0  3  0  0  0  0  0  0
  194.6410  176.2770  141.1800 O   0  0  0  0  0  0  0  0  0  0  0  0
  2 12  1  0  0  0  0
  2 14  2  0  0  0  0
  3  1  1  0  0  0  0
  6  1  1  6  0  0  0
  6 11  1  0  0  0  0
  7 17  2  0  0  0  0
  7 15  1  0  0  0  0
  8 10  1  0  0  0  0
  9  3  1  0  0  0  0
 10 11  1  0  0  0  0
 10 12  2  0  0  0  0
 11  5  1  1  0  0  0
 12 23  1  0  0  0  0
 13 19  1  6  0  0  0
 13 16  1  0  0  0  0
 14  4  1  0  0  0  0
 15 21  2  0  0  0  0
 16  8  1  1  0  0  0
 16  6  1  0  0  0  0
 17  2  1  0  0  0  0
 20 18  1  6  0  0  0
 20  9  1  0  0  0  0
 20 13  1  0  0  0  0
 21 14  1  0  0  0  0
 22  8  2  0  0  0  0
 22 17  1  0  0  0  0
 23 24  1  0  0  0  0
 24 25  1  0  0  0  0
 26 25  1  0  0  0  0
 27 26  1  0  0  0  0
 28 27  1  0  0  0  0
 29 28  1  0  0  0  0
 31 29  1  0  0  0  0
 31 30  2  0  0  0  0
 32 31  1  0  0  0  0
 33 32  2  0  0  0  0
M  END
>  <MODEL>
7

>  <REMARK>
 VINA RESULT:      -6.7      2.149      5.332
  Name = 
  9 active torsions:
  status: ('A' for Active; 'I' for Inactive)
    1  A    between atoms: N_6  and  C_17
    2  A    between atoms: N_6  and  O_21
    3  A    between atoms: C_9  and  O_21
    4  A    between atoms: C_9  and  C_33
    5  A    between atoms: C_14  and  C_18
    6  A    between atoms: C_14  and  C_28
    7  A    between atoms: C_16  and  C_18
    8  A    between atoms: C_24  and  C_28
    9  A    between atoms: C_24  and  C_33
                            x       y       z     vdW  Elec       q    Type
                         _______ _______ _______ _____ _____    ______ ____

>  <TORSDO>
F 9

$$$$
=
 OpenBabel11062418543D

 33 36  0  0  1  0  0  0  0  0999 V2000
  186.7090  177.1910  140.9510 C   0  0  0  0  0  2  0  0  0  0  0  0
  190.4750  175.5600  145.3170 C   0  0  0  0  0  0  0  0  0  0  0  0
  185.6810  178.3280  141.0070 C   0  0  0  0  0  2  0  0  0  0  0  0
  192.2320  173.8490  145.3740 O   0  0  0  0  0  1  0  0  0  0  0  0
  187.4700  174.1180  142.3260 C   0  0  0  0  0  1  0  0  0  0  0  0
  186.9270  176.5200  142.3020 C   0  0  1  0  0  3  0  0  0  0  0  0
  190.3800  177.1150  147.1650 N   0  0  0  0  0  0  0  0  0  0  0  0
  188.2530  176.8690  144.2190 C   0  0  0  0  0  0  0  0  0  0  0  0
  184.5430  178.0610  141.9900 C   0  0  0  0  0  2  0  0  0  0  0  0
  188.8070  175.7940  143.5580 C   0  0  0  0  0  0  0  0  0  0  0  0
  188.0750  175.5110  142.2890 C   0  0  1  0  0  3  0  0  0  0  0  0
  189.9500  175.1360  144.0640 C   0  0  0  0  0  0  0  0  0  0  0  0
  185.8550  177.7450  144.1810 C   0  0  1  0  0  3  0  0  0  0  0  0
  191.5860  174.9430  145.9400 C   0  0  0  0  0  0  0  0  0  0  0  0
  191.4440  176.5190  147.7610 C   0  0  0  0  0  3  0  0  0  0  0  0
  187.1760  177.5250  143.4270 C   0  0  2  0  0  3  0  0  0  0  0  0
  189.8820  176.6730  145.9790 C   0  0  0  0  0  0  0  0  0  0  0  0
  183.7010  178.7950  144.0910 O   0  0  0  0  0  1  0  0  0  0  0  0
  186.0920  178.3620  145.4110 O   0  0  0  0  0  1  0  0  0  0  0  0
  184.8840  178.6240  143.3720 C   0  0  2  0  0  3  0  0  0  0  0  0
  192.0620  175.4260  147.1590 C   0  0  0  0  0  3  0  0  0  0  0  0
  188.7920  177.3370  145.4140 C   0  0  0  0  0  3  0  0  0  0  0  0
  190.5990  174.0870  143.3260 N   0  0  0  0  0  2  0  0  0  0  0  0
  191.3520  174.3020  142.2220 O   0  0  0  0  0  0  0  0  0  0  0  0
  191.1820  173.1560  141.4420 C   0  0  0  0  0  2  0  0  0  0  0  0
  190.3540  173.4800  140.2130 C   0  0  0  0  0  2  0  0  0  0  0  0
  189.5240  172.2740  139.8080 C   0  0  0  0  0  2  0  0  0  0  0  0
  188.4860  172.6680  138.7730 C   0  0  0  0  0  2  0  0  0  0  0  0
  188.2980  174.1760  138.7620 C   0  0  0  0  0  2  0  0  0  0  0  0
  189.1330  174.3730  136.5440 O   0  0  0  0  0  0  0  0  0  0  0  0
  188.2200  174.6690  137.3560 C   0  0  0  0  0  0  0  0  0  0  0  0
  187.1100  175.5160  136.9140 C   0  0  0  0  0  3  0  0  0  0  0  0
  186.7330  176.5020  137.6000 O   0  0  0  0  0  0  0  0  0  0  0  0
  1  3  1  0  0  0  0
  2 14  2  0  0  0  0
  2 17  1  0  0  0  0
  3  9  1  0  0  0  0
  4 14  1  0  0  0  0
  6  1  1  6  0  0  0
  6 16  1  0  0  0  0
  7 15  1  0  0  0  0
  8 22  2  0  0  0  0
  9 20  1  0  0  0  0
 10 12  2  0  0  0  0
 10  8  1  0  0  0  0
 11  6  1  0  0  0  0
 11  5  1  1  0  0  0
 11 10  1  0  0  0  0
 12  2  1  0  0  0  0
 13 19  1  1  0  0  0
 14 21  1  0  0  0  0
 16 13  1  0  0  0  0
 16  8  1  1  0  0  0
 17  7  2  0  0  0  0
 20 18  1  1  0  0  0
 20 13  1  0  0  0  0
 21 15  2  0  0  0  0
 22 17  1  0  0  0  0
 23 12  1  0  0  0  0
 24 23  1  0  0  0  0
 25 24  1  0  0  0  0
 26 25  1  0  0  0  0
 27 26  1  0  0  0  0
 28 27  1  0  0  0  0
 29 28  1  0  0  0  0
 30 31  2  0  0  0  0
 31 29  1  0  0  0  0
 32 31  1  0  0  0  0
 32 33  2  0  0  0  0
M  END
>  <MODEL>
8

>  <REMARK>
 VINA RESULT:      -6.7      2.402      6.128
  Name = 
  9 active torsions:
  status: ('A' for Active; 'I' for Inactive)
    1  A    between atoms: N_6  and  C_17
    2  A    between atoms: N_6  and  O_21
    3  A    between atoms: C_9  and  O_21
    4  A    between atoms: C_9  and  C_33
    5  A    between atoms: C_14  and  C_18
    6  A    between atoms: C_14  and  C_28
    7  A    between atoms: C_16  and  C_18
    8  A    between atoms: C_24  and  C_28
    9  A    between atoms: C_24  and  C_33
                            x       y       z     vdW  Elec       q    Type
                         _______ _______ _______ _____ _____    ______ ____

>  <TORSDO>
F 9

$$$$
=
 OpenBabel11062418543D

 33 36  0  0  1  0  0  0  0  0999 V2000
  191.5960  175.7270  145.4390 C   0  0  0  0  0  2  0  0  0  0  0  0
  186.3630  178.2380  143.9490 C   0  0  0  0  0  0  0  0  0  0  0  0
  192.1090  175.4570  146.8580 C   0  0  0  0  0  2  0  0  0  0  0  0
  185.3440  178.6570  141.7570 O   0  0  0  0  0  1  0  0  0  0  0  0
  190.7870  178.2770  143.2570 C   0  0  0  0  0  1  0  0  0  0  0  0
  190.7280  176.9770  145.3480 C   0  0  1  0  0  3  0  0  0  0  0  0
  184.9740  178.5610  145.8990 N   0  0  0  0  0  0  0  0  0  0  0  0
  188.4630  177.5430  145.6710 C   0  0  0  0  0  0  0  0  0  0  0  0
  192.4160  176.7330  147.6390 C   0  0  0  0  0  2  0  0  0  0  0  0
  188.6710  177.5480  144.3080 C   0  0  0  0  0  0  0  0  0  0  0  0
  190.0700  177.1480  143.9790 C   0  0  1  0  0  3  0  0  0  0  0  0
  187.6240  177.8560  143.4110 C   0  0  0  0  0  0  0  0  0  0  0  0
  190.1260  177.9060  147.5740 C   0  0  1  0  0  3  0  0  0  0  0  0
  185.2600  178.6120  143.1440 C   0  0  0  0  0  0  0  0  0  0  0  0
  183.9180  178.9220  145.1260 C   0  0  0  0  0  3  0  0  0  0  0  0
  189.6370  177.0170  146.4200 C   0  0  2  0  0  3  0  0  0  0  0  0
  186.1770  178.2260  145.3610 C   0  0  0  0  0  0  0  0  0  0  0  0
  191.6010  178.0310  149.4600 O   0  0  0  0  0  1  0  0  0  0  0  0
  189.0570  178.2650  148.3990 O   0  0  0  0  0  1  0  0  0  0  0  0
  191.1850  177.1880  148.4290 C   0  0  2  0  0  3  0  0  0  0  0  0
  184.0450  178.9520  143.7390 C   0  0  0  0  0  3  0  0  0  0  0  0
  187.2180  177.8530  146.2110 C   0  0  0  0  0  3  0  0  0  0  0  0
  187.8030  177.7560  141.9890 N   0  0  0  0  0  2  0  0  0  0  0  0
  188.1280  176.6050  141.3530 O   0  0  0  0  0  0  0  0  0  0  0  0
  187.4280  175.6070  142.0360 C   0  0  0  0  0  2  0  0  0  0  0  0
  188.1940  174.2990  141.9740 C   0  0  0  0  0  2  0  0  0  0  0  0
  189.5770  174.5300  141.3880 C   0  0  0  0  0  2  0  0  0  0  0  0
  190.6470  174.0540  142.3550 C   0  0  0  0  0  2  0  0  0  0  0  0
  190.0480  173.1090  143.3820 C   0  0  0  0  0  2  0  0  0  0  0  0
  191.7750  172.0420  144.6210 O   0  0  0  0  0  0  0  0  0  0  0  0
  190.9870  171.9790  143.6420 C   0  0  0  0  0  0  0  0  0  0  0  0
  191.0240  170.8100  142.7620 C   0  0  0  0  0  3  0  0  0  0  0  0
  190.4580  170.8270  141.6370 O   0  0  0  0  0  0  0  0  0  0  0  0
  1  3  1  0  0  0  0
  2 17  1  0  0  0  0
  3  9  1  0  0  0  0
  4 14  1  0  0  0  0
  6  1  1  6  0  0  0
  6 16  1  0  0  0  0
  8 22  1  0  0  0  0
  9 20  1  0  0  0  0
 10  8  2  0  0  0  0
 11  5  1  6  0  0  0
 11 10  1  0  0  0  0
 11  6  1  0  0  0  0
 12  2  2  0  0  0  0
 12 10  1  0  0  0  0
 13 19  1  1  0  0  0
 13 20  1  0  0  0  0
 14 21  2  0  0  0  0
 14  2  1  0  0  0  0
 15  7  2  0  0  0  0
 16  8  1  6  0  0  0
 16 13  1  0  0  0  0
 17  7  1  0  0  0  0
 17 22  2  0  0  0  0
 20 18  1  1  0  0  0
 21 15  1  0  0  0  0
 23 12  1  0  0  0  0
 24 23  1  0  0  0  0
 24 25  1  0  0  0  0
 26 25  1  0  0  0  0
 27 26  1  0  0  0  0
 27 28  1  0  0  0  0
 28 29  1  0  0  0  0
 29 31  1  0  0  0  0
 31 30  2  0  0  0  0
 32 31  1  0  0  0  0
 33 32  2  0  0  0  0
M  END
>  <MODEL>
9

>  <REMARK>
 VINA RESULT:      -6.7      2.710      6.332
  Name = 
  9 active torsions:
  status: ('A' for Active; 'I' for Inactive)
    1  A    between atoms: N_6  and  C_17
    2  A    between atoms: N_6  and  O_21
    3  A    between atoms: C_9  and  O_21
    4  A    between atoms: C_9  and  C_33
    5  A    between atoms: C_14  and  C_18
    6  A    between atoms: C_14  and  C_28
    7  A    between atoms: C_16  and  C_18
    8  A    between atoms: C_24  and  C_28
    9  A    between atoms: C_24  and  C_33
                            x       y       z     vdW  Elec       q    Type
                         _______ _______ _______ _____ _____    ______ ____

>  <TORSDO>
F 9

$$$$
