=
 OpenBabel11062420013D

 42 48  0  0  1  0  0  0  0  0999 V2000
  194.2270  174.8990  145.0110 C   0  0  2  0  0  0  0  0  0  0  0  0
  196.4690  173.7370  145.3580 C   0  0  0  0  0  0  0  0  0  0  0  0
  193.4780  174.1150  144.0120 N   0  0  0  0  0  0  0  0  0  0  0  0
  196.3130  172.6550  144.5470 O   0  0  0  0  0  0  0  0  0  0  0  0
  196.3930  176.0610  144.5560 F   0  0  0  0  0  0  0  0  0  0  0  0
  194.8820  174.4040  143.7010 C   0  0  1  0  0  0  0  0  0  0  0  0
  197.1950  173.7360  146.3880 O   0  0  0  0  0  0  0  0  0  0  0  0
  195.7120  174.8960  144.8750 C   0  0  2  0  0  0  0  0  0  0  0  0
  195.4460  172.9740  143.4790 C   0  0  0  0  0  2  0  0  0  0  0  0
  192.6720  174.9290  143.1010 C   0  0  0  0  0  2  0  0  0  0  0  0
  190.4660  176.0490  143.5240 C   0  0  2  0  0  3  0  0  0  0  0  0
  191.0160  177.2570  143.5210 C   0  0  0  0  0  3  0  0  0  0  0  0
  189.1410  177.4020  142.2480 C   0  0  0  0  0  2  0  0  0  0  0  0
  191.1980  174.7600  143.4380 C   0  0  1  0  0  3  0  0  0  0  0  0
  190.5410  174.0220  142.3530 N   0  0  0  0  0  2  0  0  0  0  0  0
  190.1390  178.1250  142.7470 C   0  0  0  0  0  3  0  0  0  0  0  0
  189.5630  174.9380  141.7360 C   0  0  2  0  0  3  0  0  0  0  0  0
  189.2250  176.0040  142.7620 C   0  0  1  0  0  3  0  0  0  0  0  0
  188.3140  174.1860  141.2780 C   0  0  0  0  0  2  0  0  0  0  0  0
  189.0700  173.6630  138.9760 C   0  0  0  0  0  1  0  0  0  0  0  0
  188.6440  173.0700  140.3000 C   0  0  0  0  0  2  0  0  0  0  0  0
  193.8280  176.2470  144.9780 O   0  0  0  0  0  0  0  0  0  0  0  0
  193.3210  176.5230  146.2540 C   0  0  0  0  0  2  0  0  0  0  0  0
  191.4800  175.1750  147.2840 C   0  0  0  0  0  3  0  0  0  0  0  0
  192.7490  175.2800  146.8720 C   0  0  0  0  0  3  0  0  0  0  0  0
  190.4970  176.2940  147.1630 C   0  0  0  0  0  2  0  0  0  0  0  0
  188.5590  174.9920  147.6360 O   0  0  0  0  0  1  0  0  0  0  0  0
  189.1630  175.7760  146.6520 C   0  0  1  0  0  3  0  0  0  0  0  0
  188.2550  176.9460  146.3050 C   0  0  0  0  0  2  0  0  0  0  0  0
  185.5320  177.6940  142.4830 C   0  0  0  0  0  2  0  0  0  0  0  0
  186.5260  178.1940  147.6760 C   0  0  0  0  0  2  0  0  0  0  0  0
  185.8810  176.7670  143.6540 C   0  0  0  0  0  2  0  0  0  0  0  0
  184.3190  179.0080  147.1780 O   0  0  0  0  0  1  0  0  0  0  0  0
  185.8240  176.2980  146.1280 C   0  0  0  0  0  2  0  0  0  0  0  0
  183.8610  179.3260  143.6820 C   0  0  0  0  0  2  0  0  0  0  0  0
  185.1250  179.8050  144.4070 C   0  0  0  0  0  2  0  0  0  0  0  0
  185.4020  177.2780  145.0190 C   0  0  1  0  0  3  0  0  0  0  0  0
  185.8050  178.7470  145.2990 C   0  0  2  0  0  3  0  0  0  0  0  0
  186.9220  176.8460  147.0460 C   0  0  1  0  0  3  0  0  0  0  0  0
  185.6590  179.0990  146.7820 C   0  0  2  0  0  3  0  0  0  0  0  0
  183.2600  177.9130  141.8940 O   0  0  0  0  0  0  0  0  0  0  0  0
  184.1590  178.2950  142.6240 C   0  0  0  0  0  0  0  0  0  0  0  0
  1 22  1  6  0  0  0
  2  7  2  0  0  0  0
  3  1  1  0  0  0  0
  4  2  1  0  0  0  0
  6  9  1  1  0  0  0
  6  3  1  0  0  0  0
  6  8  1  0  0  0  0
  6  1  1  0  0  0  0
  8  5  1  6  0  0  0
  8  1  1  0  0  0  0
  8  2  1  0  0  0  0
  9  4  1  0  0  0  0
 10  3  1  0  0  0  0
 11 12  1  6  0  0  0
 13 16  1  0  0  0  0
 14 10  1  6  0  0  0
 14 11  1  0  0  0  0
 15 14  1  0  0  0  0
 16 12  2  0  0  0  0
 17 19  1  1  0  0  0
 17 15  1  0  0  0  0
 17 18  1  0  0  0  0
 18 13  1  6  0  0  0
 18 11  1  0  0  0  0
 20 21  1  0  0  0  0
 21 19  1  0  0  0  0
 22 23  1  0  0  0  0
 23 25  1  0  0  0  0
 25 24  2  0  0  0  0
 26 24  1  0  0  0  0
 28 26  1  0  0  0  0
 28 27  1  1  0  0  0
 29 28  1  0  0  0  0
 30 42  1  0  0  0  0
 30 32  1  0  0  0  0
 34 39  1  0  0  0  0
 35 36  1  0  0  0  0
 37 32  1  6  0  0  0
 37 38  1  0  0  0  0
 37 34  1  0  0  0  0
 38 36  1  6  0  0  0
 38 40  1  0  0  0  0
 39 29  1  6  0  0  0
 39 31  1  0  0  0  0
 40 33  1  1  0  0  0
 40 31  1  0  0  0  0
 41 42  2  0  0  0  0
 42 35  1  0  0  0  0
M  END
>  <MODEL>
1

>  <REMARK>
 VINA RESULT:      -8.2      0.000      0.000
  Name = 
  11 active torsions:
  status: ('A' for Active; 'I' for Inactive)
    1  A    between atoms: C_2  and  O_41
    2  A    between atoms: C_4  and  C_9
    3  A    between atoms: C_7  and  N_16
    4  A    between atoms: C_7  and  C_31
    5  A    between atoms: C_9  and  C_23
    6  A    between atoms: C_10  and  C_14
    7  A    between atoms: C_14  and  O_41
    8  A    between atoms: C_15  and  C_34
    9  A    between atoms: C_15  and  C_42
   10  A    between atoms: C_20  and  C_23
   11  A    between atoms: C_20  and  C_24
                            x       y       z     vdW  Elec       q    Type
                         _______ _______ _______ _____ _____    ______ ____

>  <TORSDO>
F 11

$$$$
=
 OpenBabel11062420013D

 42 48  0  0  1  0  0  0  0  0999 V2000
  190.7040  174.6350  141.8940 C   0  0  2  0  0  0  0  0  0  0  0  0
  189.0180  173.7410  140.2050 C   0  0  0  0  0  0  0  0  0  0  0  0
  191.7070  173.5780  142.1120 N   0  0  0  0  0  0  0  0  0  0  0  0
  189.5700  172.5290  139.9250 O   0  0  0  0  0  0  0  0  0  0  0  0
  188.2770  174.4120  142.4520 F   0  0  0  0  0  0  0  0  0  0  0  0
  190.3010  173.1620  142.1360 C   0  0  1  0  0  0  0  0  0  0  0  0
  188.3150  174.3920  139.3860 O   0  0  0  0  0  0  0  0  0  0  0  0
  189.3210  174.1770  141.5710 C   0  0  2  0  0  0  0  0  0  0  0  0
  190.2910  172.0580  141.0430 C   0  0  0  0  0  2  0  0  0  0  0  0
  192.1910  173.4920  143.4910 C   0  0  0  0  0  2  0  0  0  0  0  0
  194.4740  174.2960  144.1540 C   0  0  2  0  0  3  0  0  0  0  0  0
  194.0070  175.4750  144.5450 C   0  0  0  0  0  3  0  0  0  0  0  0
  195.4280  174.7740  146.1730 C   0  0  0  0  0  2  0  0  0  0  0  0
  193.6890  173.2260  143.4890 C   0  0  1  0  0  3  0  0  0  0  0  0
  193.9610  172.0140  144.2700 N   0  0  0  0  0  2  0  0  0  0  0  0
  194.6570  175.7950  145.8090 C   0  0  0  0  0  3  0  0  0  0  0  0
  194.7550  172.4240  145.4430 C   0  0  2  0  0  3  0  0  0  0  0  0
  195.4320  173.7390  145.1000 C   0  0  1  0  0  3  0  0  0  0  0  0
  195.7760  171.3500  145.8210 C   0  0  0  0  0  2  0  0  0  0  0  0
  197.4920  170.8190  144.1130 C   0  0  0  0  0  1  0  0  0  0  0  0
  197.1700  171.6800  145.3130 C   0  0  0  0  0  2  0  0  0  0  0  0
  190.5950  175.4520  143.0340 O   0  0  0  0  0  0  0  0  0  0  0  0
  191.2640  176.6400  142.7130 C   0  0  0  0  0  2  0  0  0  0  0  0
  190.2970  177.9530  144.6130 C   0  0  0  0  0  3  0  0  0  0  0  0
  190.5510  177.8210  143.3050 C   0  0  0  0  0  3  0  0  0  0  0  0
  190.7080  176.9300  145.6220 C   0  0  0  0  0  2  0  0  0  0  0  0
  189.8900  175.6830  147.4800 O   0  0  0  0  0  1  0  0  0  0  0  0
  189.4880  176.3690  146.3340 C   0  0  1  0  0  3  0  0  0  0  0  0
  188.5510  177.5030  146.7210 C   0  0  0  0  0  2  0  0  0  0  0  0
  186.6510  178.2180  142.4250 C   0  0  0  0  0  2  0  0  0  0  0  0
  186.2910  178.0670  147.7220 C   0  0  0  0  0  2  0  0  0  0  0  0
  186.9650  177.2180  143.5440 C   0  0  0  0  0  2  0  0  0  0  0  0
  184.1150  178.4120  146.7590 O   0  0  0  0  0  1  0  0  0  0  0  0
  186.4850  176.3440  145.8570 C   0  0  0  0  0  2  0  0  0  0  0  0
  184.3800  179.1920  143.3160 C   0  0  0  0  0  2  0  0  0  0  0  0
  185.2750  179.8250  144.3880 C   0  0  0  0  0  2  0  0  0  0  0  0
  186.0740  177.3680  144.7840 C   0  0  1  0  0  3  0  0  0  0  0  0
  185.9970  178.8220  145.3100 C   0  0  2  0  0  3  0  0  0  0  0  0
  187.1630  176.9720  147.0790 C   0  0  1  0  0  3  0  0  0  0  0  0
  185.4360  178.8790  146.7330 C   0  0  2  0  0  3  0  0  0  0  0  0
  184.5930  177.9950  141.2960 O   0  0  0  0  0  0  0  0  0  0  0  0
  185.1710  178.4490  142.2690 C   0  0  0  0  0  0  0  0  0  0  0  0
  1  3  1  0  0  0  0
  1  6  1  0  0  0  0
  1 22  1  1  0  0  0
  2  8  1  0  0  0  0
  3  6  1  0  0  0  0
  3 10  1  0  0  0  0
  4  2  1  0  0  0  0
  4  9  1  0  0  0  0
  6  9  1  6  0  0  0
  7  2  2  0  0  0  0
  8  1  1  0  0  0  0
  8  6  1  0  0  0  0
  8  5  1  1  0  0  0
 11 12  1  1  0  0  0
 11 18  1  0  0  0  0
 12 16  2  0  0  0  0
 14 10  1  1  0  0  0
 14 11  1  0  0  0  0
 14 15  1  0  0  0  0
 15 17  1  0  0  0  0
 16 13  1  0  0  0  0
 17 19  1  6  0  0  0
 18 17  1  0  0  0  0
 18 13  1  1  0  0  0
 20 21  1  0  0  0  0
 21 19  1  0  0  0  0
 23 22  1  0  0  0  0
 23 25  1  0  0  0  0
 24 26  1  0  0  0  0
 25 24  2  0  0  0  0
 26 28  1  0  0  0  0
 28 29  1  0  0  0  0
 28 27  1  1  0  0  0
 30 32  1  0  0  0  0
 34 39  1  0  0  0  0
 35 36  1  0  0  0  0
 37 32  1  6  0  0  0
 37 38  1  0  0  0  0
 37 34  1  0  0  0  0
 38 36  1  6  0  0  0
 38 40  1  0  0  0  0
 39 29  1  6  0  0  0
 39 31  1  0  0  0  0
 40 33  1  6  0  0  0
 40 31  1  0  0  0  0
 41 42  2  0  0  0  0
 42 30  1  0  0  0  0
 42 35  1  0  0  0  0
M  END
>  <MODEL>
2

>  <REMARK>
 VINA RESULT:      -8.0      2.492      5.170
  Name = 
  11 active torsions:
  status: ('A' for Active; 'I' for Inactive)
    1  A    between atoms: C_2  and  O_41
    2  A    between atoms: C_4  and  C_9
    3  A    between atoms: C_7  and  N_16
    4  A    between atoms: C_7  and  C_31
    5  A    between atoms: C_9  and  C_23
    6  A    between atoms: C_10  and  C_14
    7  A    between atoms: C_14  and  O_41
    8  A    between atoms: C_15  and  C_34
    9  A    between atoms: C_15  and  C_42
   10  A    between atoms: C_20  and  C_23
   11  A    between atoms: C_20  and  C_24
                            x       y       z     vdW  Elec       q    Type
                         _______ _______ _______ _____ _____    ______ ____

>  <TORSDO>
F 11

$$$$
=
 OpenBabel11062420013D

 42 48  0  0  1  0  0  0  0  0999 V2000
  189.6590  174.3900  141.5100 C   0  0  2  0  0  0  0  0  0  0  0  0
  189.8120  172.2050  140.2070 C   0  0  0  0  0  0  0  0  0  0  0  0
  191.0140  174.7040  141.9980 N   0  0  0  0  0  0  0  0  0  0  0  0
  191.1510  171.9700  140.2780 O   0  0  0  0  0  0  0  0  0  0  0  0
  188.3520  172.3670  142.1790 F   0  0  0  0  0  0  0  0  0  0  0  0
  190.5530  173.3250  142.1840 C   0  0  1  0  0  0  0  0  0  0  0  0
  189.0870  171.8130  139.2540 O   0  0  0  0  0  0  0  0  0  0  0  0
  189.3240  172.9430  141.3750 C   0  0  2  0  0  0  0  0  0  0  0  0
  191.6760  172.5280  141.4640 C   0  0  0  0  0  2  0  0  0  0  0  0
  191.0390  175.3180  143.3270 C   0  0  0  0  0  2  0  0  0  0  0  0
  192.7460  176.5450  144.6980 C   0  0  2  0  0  3  0  0  0  0  0  0
  192.3400  175.9670  145.8220 C   0  0  0  0  0  3  0  0  0  0  0  0
  194.6090  175.8660  145.8310 C   0  0  0  0  0  2  0  0  0  0  0  0
  192.1050  176.4020  143.3670 C   0  0  1  0  0  3  0  0  0  0  0  0
  193.1970  176.0330  142.4580 N   0  0  0  0  0  2  0  0  0  0  0  0
  193.5350  175.5820  146.5610 C   0  0  0  0  0  3  0  0  0  0  0  0
  194.3970  175.8170  143.2890 C   0  0  2  0  0  3  0  0  0  0  0  0
  194.1980  176.5790  144.5860 C   0  0  1  0  0  3  0  0  0  0  0  0
  195.6620  176.2730  142.5600 C   0  0  0  0  0  2  0  0  0  0  0  0
  197.4870  175.0370  143.6950 C   0  0  0  0  0  1  0  0  0  0  0  0
  196.6790  175.1510  142.4220 C   0  0  0  0  0  2  0  0  0  0  0  0
  188.6870  174.9450  142.3620 O   0  0  0  0  0  0  0  0  0  0  0  0
  187.7520  175.5580  141.5210 C   0  0  0  0  0  2  0  0  0  0  0  0
  187.2630  177.8980  140.7770 C   0  0  0  0  0  3  0  0  0  0  0  0
  188.1050  177.0010  141.3040 C   0  0  0  0  0  3  0  0  0  0  0  0
  185.8730  177.5480  140.3530 C   0  0  0  0  0  2  0  0  0  0  0  0
  183.6070  178.2680  140.5110 O   0  0  0  0  0  1  0  0  0  0  0  0
  184.8600  178.3880  141.1130 C   0  0  1  0  0  3  0  0  0  0  0  0
  184.7780  177.9140  142.5570 C   0  0  0  0  0  2  0  0  0  0  0  0
  188.4970  176.8230  145.3060 C   0  0  0  0  0  2  0  0  0  0  0  0
  183.6030  178.7710  144.6330 C   0  0  0  0  0  2  0  0  0  0  0  0
  187.8180  177.8700  144.4150 C   0  0  0  0  0  2  0  0  0  0  0  0
  184.3390  179.1570  146.8890 O   0  0  0  0  0  1  0  0  0  0  0  0
  185.9650  179.5410  144.0750 C   0  0  0  0  0  2  0  0  0  0  0  0
  187.2760  177.3070  147.5800 C   0  0  0  0  0  2  0  0  0  0  0  0
  186.0650  176.7110  146.8540 C   0  0  0  0  0  2  0  0  0  0  0  0
  186.5910  178.5330  145.0540 C   0  0  1  0  0  3  0  0  0  0  0  0
  185.5760  177.5150  145.6320 C   0  0  2  0  0  3  0  0  0  0  0  0
  184.6110  179.0940  143.5140 C   0  0  1  0  0  3  0  0  0  0  0  0
  184.2180  178.1660  145.9070 C   0  0  2  0  0  3  0  0  0  0  0  0
  189.5940  177.5800  147.2500 O   0  0  0  0  0  0  0  0  0  0  0  0
  188.5340  177.2450  146.7510 C   0  0  0  0  0  0  0  0  0  0  0  0
  1  3  1  0  0  0  0
  1  6  1  0  0  0  0
  1 22  1  1  0  0  0
  2  4  1  0  0  0  0
  2  8  1  0  0  0  0
  3  6  1  0  0  0  0
  3 10  1  0  0  0  0
  4  9  1  0  0  0  0
  6  9  1  6  0  0  0
  7  2  2  0  0  0  0
  8  1  1  0  0  0  0
  8  5  1  1  0  0  0
  8  6  1  0  0  0  0
 11 12  1  1  0  0  0
 12 16  2  0  0  0  0
 13 16  1  0  0  0  0
 14 10  1  1  0  0  0
 14 11  1  0  0  0  0
 15 17  1  0  0  0  0
 15 14  1  0  0  0  0
 17 19  1  6  0  0  0
 17 18  1  0  0  0  0
 18 11  1  0  0  0  0
 18 13  1  1  0  0  0
 21 19  1  0  0  0  0
 21 20  1  0  0  0  0
 23 22  1  0  0  0  0
 24 25  2  0  0  0  0
 25 23  1  0  0  0  0
 26 24  1  0  0  0  0
 26 28  1  0  0  0  0
 28 27  1  6  0  0  0
 28 29  1  0  0  0  0
 30 42  1  0  0  0  0
 31 40  1  0  0  0  0
 32 37  1  0  0  0  0
 32 30  1  0  0  0  0
 36 35  1  0  0  0  0
 37 34  1  6  0  0  0
 37 38  1  0  0  0  0
 38 40  1  0  0  0  0
 38 36  1  1  0  0  0
 39 29  1  1  0  0  0
 39 34  1  0  0  0  0
 39 31  1  0  0  0  0
 40 33  1  1  0  0  0
 42 41  2  0  0  0  0
 42 35  1  0  0  0  0
M  END
>  <MODEL>
3

>  <REMARK>
 VINA RESULT:      -7.9      2.798      6.075
  Name = 
  11 active torsions:
  status: ('A' for Active; 'I' for Inactive)
    1  A    between atoms: C_2  and  O_41
    2  A    between atoms: C_4  and  C_9
    3  A    between atoms: C_7  and  N_16
    4  A    between atoms: C_7  and  C_31
    5  A    between atoms: C_9  and  C_23
    6  A    between atoms: C_10  and  C_14
    7  A    between atoms: C_14  and  O_41
    8  A    between atoms: C_15  and  C_34
    9  A    between atoms: C_15  and  C_42
   10  A    between atoms: C_20  and  C_23
   11  A    between atoms: C_20  and  C_24
                            x       y       z     vdW  Elec       q    Type
                         _______ _______ _______ _____ _____    ______ ____

>  <TORSDO>
F 11

$$$$
=
 OpenBabel11062420013D

 42 48  0  0  1  0  0  0  0  0999 V2000
  194.0410  175.2050  141.7650 C   0  0  2  0  0  0  0  0  0  0  0  0
  196.2930  175.6000  140.6400 C   0  0  0  0  0  0  0  0  0  0  0  0
  194.0480  175.9560  143.0330 N   0  0  0  0  0  0  0  0  0  0  0  0
  196.8590  176.4680  141.5220 O   0  0  0  0  0  0  0  0  0  0  0  0
  195.5930  173.3180  141.2350 F   0  0  0  0  0  0  0  0  0  0  0  0
  195.2400  175.1550  142.7390 C   0  0  1  0  0  0  0  0  0  0  0  0
  196.5640  175.5830  139.4090 O   0  0  0  0  0  0  0  0  0  0  0  0
  195.3580  174.6830  141.2990 C   0  0  2  0  0  0  0  0  0  0  0  0
  196.3580  176.2300  142.8210 C   0  0  0  0  0  2  0  0  0  0  0  0
  193.3510  175.2780  144.1280 C   0  0  0  0  0  2  0  0  0  0  0  0
  190.8910  175.1930  144.6180 C   0  0  2  0  0  3  0  0  0  0  0  0
  190.8100  173.9130  144.2730 C   0  0  0  0  0  3  0  0  0  0  0  0
  189.6610  174.1280  146.2210 C   0  0  0  0  0  2  0  0  0  0  0  0
  192.0930  176.0540  144.4870 C   0  0  1  0  0  3  0  0  0  0  0  0
  192.2670  176.6650  145.8100 N   0  0  0  0  0  2  0  0  0  0  0  0
  189.9830  173.2520  145.2740 C   0  0  0  0  0  3  0  0  0  0  0  0
  191.2810  176.0380  146.7100 C   0  0  2  0  0  3  0  0  0  0  0  0
  190.1630  175.4820  145.8460 C   0  0  1  0  0  3  0  0  0  0  0  0
  190.7510  177.0430  147.7330 C   0  0  0  0  0  2  0  0  0  0  0  0
  191.3770  178.3610  149.7370 C   0  0  0  0  0  1  0  0  0  0  0  0
  191.5760  177.0510  149.0100 C   0  0  0  0  0  2  0  0  0  0  0  0
  193.1830  174.0930  141.8560 O   0  0  0  0  0  0  0  0  0  0  0  0
  192.3470  174.1680  140.7360 C   0  0  0  0  0  2  0  0  0  0  0  0
  190.1650  172.9410  140.7520 C   0  0  0  0  0  3  0  0  0  0  0  0
  191.4980  172.9350  140.6300 C   0  0  0  0  0  3  0  0  0  0  0  0
  189.3830  174.1910  141.0030 C   0  0  0  0  0  2  0  0  0  0  0  0
  188.0810  172.6060  142.2150 O   0  0  0  0  0  1  0  0  0  0  0  0
  188.0260  173.8560  141.5970 C   0  0  1  0  0  3  0  0  0  0  0  0
  187.6380  174.9130  142.6210 C   0  0  0  0  0  2  0  0  0  0  0  0
  186.0790  177.1920  146.4880 C   0  0  0  0  0  2  0  0  0  0  0  0
  186.8330  176.8810  141.2410 C   0  0  0  0  0  2  0  0  0  0  0  0
  187.2510  176.9240  145.5360 C   0  0  0  0  0  2  0  0  0  0  0  0
  186.0080  179.0620  141.8260 O   0  0  0  0  0  1  0  0  0  0  0  0
  188.3160  177.2520  143.2770 C   0  0  0  0  0  2  0  0  0  0  0  0
  184.8570  179.1080  145.1730 C   0  0  0  0  0  2  0  0  0  0  0  0
  184.5240  177.9800  144.1900 C   0  0  0  0  0  2  0  0  0  0  0  0
  187.1100  177.6030  144.1670 C   0  0  1  0  0  3  0  0  0  0  0  0
  185.7410  177.3420  143.4920 C   0  0  2  0  0  3  0  0  0  0  0  0
  187.9680  176.3160  142.1140 C   0  0  1  0  0  3  0  0  0  0  0  0
  185.7700  177.6930  142.0020 C   0  0  2  0  0  3  0  0  0  0  0  0
  185.8090  179.3840  147.3120 O   0  0  0  0  0  0  0  0  0  0  0  0
  185.5850  178.6110  146.3970 C   0  0  0  0  0  0  0  0  0  0  0  0
  1 22  1  1  0  0  0
  1  6  1  0  0  0  0
  1  3  1  0  0  0  0
  2  8  1  0  0  0  0
  2  4  1  0  0  0  0
  3 10  1  0  0  0  0
  4  9  1  0  0  0  0
  6  9  1  6  0  0  0
  6  3  1  0  0  0  0
  7  2  2  0  0  0  0
  8  5  1  6  0  0  0
  8  1  1  0  0  0  0
  8  6  1  0  0  0  0
 11 12  1  1  0  0  0
 11 18  1  0  0  0  0
 12 16  2  0  0  0  0
 14 10  1  1  0  0  0
 14 11  1  0  0  0  0
 14 15  1  0  0  0  0
 15 17  1  0  0  0  0
 16 13  1  0  0  0  0
 17 19  1  1  0  0  0
 18 13  1  1  0  0  0
 18 17  1  0  0  0  0
 19 21  1  0  0  0  0
 21 20  1  0  0  0  0
 23 22  1  0  0  0  0
 24 26  1  0  0  0  0
 25 23  1  0  0  0  0
 25 24  2  0  0  0  0
 26 28  1  0  0  0  0
 28 27  1  1  0  0  0
 28 29  1  0  0  0  0
 31 40  1  0  0  0  0
 31 39  1  0  0  0  0
 32 30  1  0  0  0  0
 35 42  1  0  0  0  0
 36 35  1  0  0  0  0
 37 34  1  6  0  0  0
 37 32  1  0  0  0  0
 38 37  1  0  0  0  0
 38 36  1  1  0  0  0
 39 29  1  1  0  0  0
 39 34  1  0  0  0  0
 40 33  1  1  0  0  0
 40 38  1  0  0  0  0
 42 30  1  0  0  0  0
 42 41  2  0  0  0  0
M  END
>  <MODEL>
4

>  <REMARK>
 VINA RESULT:      -7.9      2.490      5.136
  Name = 
  11 active torsions:
  status: ('A' for Active; 'I' for Inactive)
    1  A    between atoms: C_2  and  O_41
    2  A    between atoms: C_4  and  C_9
    3  A    between atoms: C_7  and  N_16
    4  A    between atoms: C_7  and  C_31
    5  A    between atoms: C_9  and  C_23
    6  A    between atoms: C_10  and  C_14
    7  A    between atoms: C_14  and  O_41
    8  A    between atoms: C_15  and  C_34
    9  A    between atoms: C_15  and  C_42
   10  A    between atoms: C_20  and  C_23
   11  A    between atoms: C_20  and  C_24
                            x       y       z     vdW  Elec       q    Type
                         _______ _______ _______ _____ _____    ______ ____

>  <TORSDO>
F 11

$$$$
=
 OpenBabel11062420013D

 42 48  0  0  1  0  0  0  0  0999 V2000
  191.5980  174.0450  144.5860 C   0  0  2  0  0  0  0  0  0  0  0  0
  190.5890  175.0340  146.7070 C   0  0  0  0  0  0  0  0  0  0  0  0
  193.0620  174.0390  144.7600 N   0  0  0  0  0  0  0  0  0  0  0  0
  191.7140  175.2240  147.4480 O   0  0  0  0  0  0  0  0  0  0  0  0
  190.1930  176.1120  144.5320 F   0  0  0  0  0  0  0  0  0  0  0  0
  192.3630  175.2750  145.1240 C   0  0  1  0  0  0  0  0  0  0  0  0
  189.4550  174.8090  147.2090 O   0  0  0  0  0  0  0  0  0  0  0  0
  190.8560  175.1430  145.2700 C   0  0  2  0  0  0  0  0  0  0  0  0
  192.8170  175.4590  146.5980 C   0  0  0  0  0  2  0  0  0  0  0  0
  193.8070  174.3270  143.5330 C   0  0  0  0  0  2  0  0  0  0  0  0
  196.0490  173.3970  144.1700 C   0  0  2  0  0  3  0  0  0  0  0  0
  196.3320  174.4490  144.9300 C   0  0  0  0  0  3  0  0  0  0  0  0
  196.9040  172.6110  146.1370 C   0  0  0  0  0  2  0  0  0  0  0  0
  194.8520  173.2450  143.3060 C   0  0  1  0  0  3  0  0  0  0  0  0
  194.2820  171.9440  143.6730 N   0  0  0  0  0  2  0  0  0  0  0  0
  196.9220  173.9410  146.1610 C   0  0  0  0  0  3  0  0  0  0  0  0
  195.0490  171.4460  144.8290 C   0  0  2  0  0  3  0  0  0  0  0  0
  196.3990  172.1390  144.8150 C   0  0  1  0  0  3  0  0  0  0  0  0
  195.1990  169.9250  144.7790 C   0  0  0  0  0  2  0  0  0  0  0  0
  195.7910  169.0890  147.0360 C   0  0  0  0  0  1  0  0  0  0  0  0
  194.6690  169.2540  146.0360 C   0  0  0  0  0  2  0  0  0  0  0  0
  191.2650  174.1300  143.2220 O   0  0  0  0  0  0  0  0  0  0  0  0
  190.4690  173.0100  142.9560 C   0  0  0  0  0  2  0  0  0  0  0  0
  188.7950  173.4340  141.1440 C   0  0  0  0  0  3  0  0  0  0  0  0
  190.0080  173.0180  141.5270 C   0  0  0  0  0  3  0  0  0  0  0  0
  187.7720  173.9380  142.1100 C   0  0  0  0  0  2  0  0  0  0  0  0
  187.9460  175.9510  140.8470 O   0  0  0  0  0  1  0  0  0  0  0  0
  187.7760  175.4580  142.1410 C   0  0  1  0  0  3  0  0  0  0  0  0
  186.4590  175.9640  142.7100 C   0  0  0  0  0  2  0  0  0  0  0  0
  187.0620  177.2140  147.2540 C   0  0  0  0  0  2  0  0  0  0  0  0
  184.8190  177.8840  142.4870 C   0  0  0  0  0  2  0  0  0  0  0  0
  187.5330  177.3680  145.8030 C   0  0  0  0  0  2  0  0  0  0  0  0
  184.2250  179.7070  143.9390 O   0  0  0  0  0  1  0  0  0  0  0  0
  187.1300  178.2680  143.4850 C   0  0  0  0  0  2  0  0  0  0  0  0
  185.1190  178.9810  147.2870 C   0  0  0  0  0  2  0  0  0  0  0  0
  184.4210  177.9700  146.3700 C   0  0  0  0  0  2  0  0  0  0  0  0
  186.5880  178.1970  144.9240 C   0  0  1  0  0  3  0  0  0  0  0  0
  185.1110  177.7380  145.0100 C   0  0  2  0  0  3  0  0  0  0  0  0
  186.3010  177.4660  142.4760 C   0  0  1  0  0  3  0  0  0  0  0  0
  184.2740  178.3090  143.8630 C   0  0  2  0  0  3  0  0  0  0  0  0
  187.0580  179.1360  148.6180 O   0  0  0  0  0  0  0  0  0  0  0  0
  186.4500  178.4810  147.7900 C   0  0  0  0  0  0  0  0  0  0  0  0
  1 22  1  6  0  0  0
  1  3  1  0  0  0  0
  1  6  1  0  0  0  0
  1  8  1  0  0  0  0
  2  7  2  0  0  0  0
  2  4  1  0  0  0  0
  3  6  1  0  0  0  0
  6  8  1  0  0  0  0
  6  9  1  1  0  0  0
  8  5  1  6  0  0  0
  8  2  1  0  0  0  0
  9  4  1  0  0  0  0
 10  3  1  0  0  0  0
 11 18  1  0  0  0  0
 11 12  1  1  0  0  0
 12 16  2  0  0  0  0
 13 16  1  0  0  0  0
 14 10  1  1  0  0  0
 14 15  1  0  0  0  0
 14 11  1  0  0  0  0
 15 17  1  0  0  0  0
 17 19  1  6  0  0  0
 18 17  1  0  0  0  0
 18 13  1  1  0  0  0
 19 21  1  0  0  0  0
 21 20  1  0  0  0  0
 23 22  1  0  0  0  0
 24 25  2  0  0  0  0
 24 26  1  0  0  0  0
 25 23  1  0  0  0  0
 26 28  1  0  0  0  0
 28 27  1  6  0  0  0
 28 29  1  0  0  0  0
 30 42  1  0  0  0  0
 31 40  1  0  0  0  0
 32 30  1  0  0  0  0
 35 42  1  0  0  0  0
 36 35  1  0  0  0  0
 37 34  1  6  0  0  0
 37 38  1  0  0  0  0
 37 32  1  0  0  0  0
 38 36  1  1  0  0  0
 39 31  1  0  0  0  0
 39 29  1  1  0  0  0
 39 34  1  0  0  0  0
 40 33  1  6  0  0  0
 40 38  1  0  0  0  0
 42 41  2  0  0  0  0
M  END
>  <MODEL>
5

>  <REMARK>
 VINA RESULT:      -7.8      2.294      5.856
  Name = 
  11 active torsions:
  status: ('A' for Active; 'I' for Inactive)
    1  A    between atoms: C_2  and  O_41
    2  A    between atoms: C_4  and  C_9
    3  A    between atoms: C_7  and  N_16
    4  A    between atoms: C_7  and  C_31
    5  A    between atoms: C_9  and  C_23
    6  A    between atoms: C_10  and  C_14
    7  A    between atoms: C_14  and  O_41
    8  A    between atoms: C_15  and  C_34
    9  A    between atoms: C_15  and  C_42
   10  A    between atoms: C_20  and  C_23
   11  A    between atoms: C_20  and  C_24
                            x       y       z     vdW  Elec       q    Type
                         _______ _______ _______ _____ _____    ______ ____

>  <TORSDO>
F 11

$$$$
=
 OpenBabel11062420013D

 42 48  0  0  1  0  0  0  0  0999 V2000
  191.3870  173.5500  143.1280 C   0  0  2  0  0  0  0  0  0  0  0  0
  191.4000  171.0150  142.8690 C   0  0  0  0  0  0  0  0  0  0  0  0
  192.6680  173.9330  143.7480 N   0  0  0  0  0  0  0  0  0  0  0  0
  192.6470  170.7270  143.3310 O   0  0  0  0  0  0  0  0  0  0  0  0
  189.6640  172.1080  144.2250 F   0  0  0  0  0  0  0  0  0  0  0  0
  191.9580  172.8010  144.3540 C   0  0  1  0  0  0  0  0  0  0  0  0
  190.7980  170.3150  142.0100 O   0  0  0  0  0  0  0  0  0  0  0  0
  190.8440  172.2120  143.5050 C   0  0  2  0  0  0  0  0  0  0  0  0
  193.0410  171.6900  144.2850 C   0  0  0  0  0  2  0  0  0  0  0  0
  192.5620  175.0450  144.6930 C   0  0  0  0  0  2  0  0  0  0  0  0
  194.9470  175.7220  145.0830 C   0  0  2  0  0  3  0  0  0  0  0  0
  195.1250  174.7750  145.9970 C   0  0  0  0  0  3  0  0  0  0  0  0
  196.9440  174.7040  144.6380 C   0  0  0  0  0  2  0  0  0  0  0  0
  193.6650  176.0560  144.4150 C   0  0  1  0  0  3  0  0  0  0  0  0
  193.9710  176.0480  142.9800 N   0  0  0  0  0  2  0  0  0  0  0  0
  196.4220  174.1660  145.7370 C   0  0  0  0  0  3  0  0  0  0  0  0
  195.3560  175.5640  142.8350 C   0  0  2  0  0  3  0  0  0  0  0  0
  196.0660  175.8090  144.1540 C   0  0  1  0  0  3  0  0  0  0  0  0
  196.0680  176.2640  141.6770 C   0  0  0  0  0  2  0  0  0  0  0  0
  196.5420  173.9180  141.0340 C   0  0  0  0  0  1  0  0  0  0  0  0
  196.3330  175.3220  140.5140 C   0  0  0  0  0  2  0  0  0  0  0  0
  190.3870  174.4870  143.4450 O   0  0  0  0  0  0  0  0  0  0  0  0
  189.7420  174.7760  142.2360 C   0  0  0  0  0  2  0  0  0  0  0  0
  187.3670  175.4550  141.8340 C   0  0  0  0  0  3  0  0  0  0  0  0
  188.2560  174.6190  142.3830 C   0  0  0  0  0  3  0  0  0  0  0  0
  187.7700  176.6350  141.0090 C   0  0  0  0  0  2  0  0  0  0  0  0
  186.0140  177.5460  139.6810 O   0  0  0  0  0  1  0  0  0  0  0  0
  186.6320  177.6390  140.9280 C   0  0  1  0  0  3  0  0  0  0  0  0
  185.6150  177.3530  142.0230 C   0  0  0  0  0  2  0  0  0  0  0  0
  188.8040  176.8510  145.5090 C   0  0  0  0  0  2  0  0  0  0  0  0
  184.0480  178.3950  143.7210 C   0  0  0  0  0  2  0  0  0  0  0  0
  188.2620  177.7320  144.3770 C   0  0  0  0  0  2  0  0  0  0  0  0
  184.3430  179.1110  145.9970 O   0  0  0  0  0  1  0  0  0  0  0  0
  186.4420  179.2300  143.4900 C   0  0  0  0  0  2  0  0  0  0  0  0
  187.1700  177.5470  147.4440 C   0  0  0  0  0  2  0  0  0  0  0  0
  186.1350  176.7910  146.6030 C   0  0  0  0  0  2  0  0  0  0  0  0
  186.9150  178.3950  144.6930 C   0  0  1  0  0  3  0  0  0  0  0  0
  185.8500  177.4000  145.2160 C   0  0  2  0  0  3  0  0  0  0  0  0
  185.2310  178.6330  142.7650 C   0  0  1  0  0  3  0  0  0  0  0  0
  184.4410  177.9970  145.1540 C   0  0  2  0  0  3  0  0  0  0  0  0
  189.4980  177.9160  147.4950 O   0  0  0  0  0  0  0  0  0  0  0  0
  188.5600  177.4560  146.8670 C   0  0  0  0  0  0  0  0  0  0  0  0
  1 22  1  1  0  0  0
  1  8  1  0  0  0  0
  1  3  1  0  0  0  0
  1  6  1  0  0  0  0
  2  4  1  0  0  0  0
  2  8  1  0  0  0  0
  3  6  1  0  0  0  0
  3 10  1  0  0  0  0
  4  9  1  0  0  0  0
  6  9  1  6  0  0  0
  7  2  2  0  0  0  0
  8  5  1  1  0  0  0
  8  6  1  0  0  0  0
 11 12  1  6  0  0  0
 13 16  1  0  0  0  0
 14 10  1  6  0  0  0
 14 11  1  0  0  0  0
 15 14  1  0  0  0  0
 16 12  2  0  0  0  0
 17 19  1  6  0  0  0
 17 15  1  0  0  0  0
 17 18  1  0  0  0  0
 18 13  1  1  0  0  0
 18 11  1  0  0  0  0
 21 20  1  0  0  0  0
 21 19  1  0  0  0  0
 23 25  1  0  0  0  0
 23 22  1  0  0  0  0
 24 25  2  0  0  0  0
 26 24  1  0  0  0  0
 28 27  1  6  0  0  0
 28 26  1  0  0  0  0
 28 29  1  0  0  0  0
 30 42  1  0  0  0  0
 31 40  1  0  0  0  0
 32 37  1  0  0  0  0
 32 30  1  0  0  0  0
 36 35  1  0  0  0  0
 37 34  1  6  0  0  0
 37 38  1  0  0  0  0
 38 36  1  1  0  0  0
 39 29  1  1  0  0  0
 39 34  1  0  0  0  0
 39 31  1  0  0  0  0
 40 38  1  0  0  0  0
 40 33  1  1  0  0  0
 42 35  1  0  0  0  0
 42 41  2  0  0  0  0
M  END
>  <MODEL>
6

>  <REMARK>
 VINA RESULT:      -7.7      2.562      5.622
  Name = 
  11 active torsions:
  status: ('A' for Active; 'I' for Inactive)
    1  A    between atoms: C_2  and  O_41
    2  A    between atoms: C_4  and  C_9
    3  A    between atoms: C_7  and  N_16
    4  A    between atoms: C_7  and  C_31
    5  A    between atoms: C_9  and  C_23
    6  A    between atoms: C_10  and  C_14
    7  A    between atoms: C_14  and  O_41
    8  A    between atoms: C_15  and  C_34
    9  A    between atoms: C_15  and  C_42
   10  A    between atoms: C_20  and  C_23
   11  A    between atoms: C_20  and  C_24
                            x       y       z     vdW  Elec       q    Type
                         _______ _______ _______ _____ _____    ______ ____

>  <TORSDO>
F 11

$$$$
=
 OpenBabel11062420013D

 42 48  0  0  1  0  0  0  0  0999 V2000
  193.4590  174.9320  144.0780 C   0  0  2  0  0  0  0  0  0  0  0  0
  195.6080  173.8550  144.9230 C   0  0  0  0  0  0  0  0  0  0  0  0
  192.6780  173.8790  143.4030 N   0  0  0  0  0  0  0  0  0  0  0  0
  195.3950  172.5620  144.5580 O   0  0  0  0  0  0  0  0  0  0  0  0
  195.7080  175.7220  143.3250 F   0  0  0  0  0  0  0  0  0  0  0  0
  194.1050  173.9550  143.0690 C   0  0  1  0  0  0  0  0  0  0  0  0
  196.3120  174.1920  145.9130 O   0  0  0  0  0  0  0  0  0  0  0  0
  194.9430  174.7960  144.0180 C   0  0  2  0  0  0  0  0  0  0  0  0
  194.5750  172.5140  143.4100 C   0  0  0  0  0  2  0  0  0  0  0  0
  191.9490  174.3450  142.2230 C   0  0  0  0  0  2  0  0  0  0  0  0
  189.6520  173.6450  141.4920 C   0  0  2  0  0  3  0  0  0  0  0  0
  189.1140  174.7910  141.8910 C   0  0  0  0  0  3  0  0  0  0  0  0
  188.2630  174.3660  139.8280 C   0  0  0  0  0  2  0  0  0  0  0  0
  191.0610  173.2260  141.6990 C   0  0  1  0  0  3  0  0  0  0  0  0
  191.5360  172.8200  140.3710 N   0  0  0  0  0  2  0  0  0  0  0  0
  188.1930  175.2180  140.8470 C   0  0  0  0  0  3  0  0  0  0  0  0
  190.4680  173.1530  139.4090 C   0  0  2  0  0  3  0  0  0  0  0  0
  189.1650  173.2320  140.1830 C   0  0  1  0  0  3  0  0  0  0  0  0
  190.3930  172.1170  138.2870 C   0  0  0  0  0  2  0  0  0  0  0  0
  189.3180  171.6760  136.0970 C   0  0  0  0  0  1  0  0  0  0  0  0
  189.9600  172.7330  136.9660 C   0  0  0  0  0  2  0  0  0  0  0  0
  193.1530  176.1940  143.5370 O   0  0  0  0  0  0  0  0  0  0  0  0
  192.7260  176.9750  144.6180 C   0  0  0  0  0  2  0  0  0  0  0  0
  190.2480  177.3260  144.5700 C   0  0  0  0  0  3  0  0  0  0  0  0
  191.4830  177.7360  144.2570 C   0  0  0  0  0  3  0  0  0  0  0  0
  189.9830  176.0610  145.3210 C   0  0  0  0  0  2  0  0  0  0  0  0
  190.6090  176.7140  147.5250 O   0  0  0  0  0  1  0  0  0  0  0  0
  189.5130  176.3710  146.7320 C   0  0  1  0  0  3  0  0  0  0  0  0
  188.5240  177.5270  146.7030 C   0  0  0  0  0  2  0  0  0  0  0  0
  186.4210  178.1060  142.4820 C   0  0  0  0  0  2  0  0  0  0  0  0
  186.3470  178.2370  147.7900 C   0  0  0  0  0  2  0  0  0  0  0  0
  186.7560  177.1500  143.6330 C   0  0  0  0  0  2  0  0  0  0  0  0
  184.1370  178.6280  146.9260 O   0  0  0  0  0  1  0  0  0  0  0  0
  186.3680  176.4150  146.0110 C   0  0  0  0  0  2  0  0  0  0  0  0
  184.2440  179.2200  143.4380 C   0  0  0  0  0  2  0  0  0  0  0  0
  185.2220  179.8670  144.4270 C   0  0  0  0  0  2  0  0  0  0  0  0
  185.9410  177.4010  144.9090 C   0  0  1  0  0  3  0  0  0  0  0  0
  185.9520  178.8820  145.3610 C   0  0  2  0  0  3  0  0  0  0  0  0
  187.1370  177.0750  147.1610 C   0  0  1  0  0  3  0  0  0  0  0  0
  185.4720  179.0350  146.8070 C   0  0  2  0  0  3  0  0  0  0  0  0
  184.2980  177.9150  141.4760 O   0  0  0  0  0  0  0  0  0  0  0  0
  184.9460  178.3930  142.3910 C   0  0  0  0  0  0  0  0  0  0  0  0
  1 22  1  6  0  0  0
  2  7  2  0  0  0  0
  3  1  1  0  0  0  0
  4  2  1  0  0  0  0
  6  3  1  0  0  0  0
  6  9  1  1  0  0  0
  6  8  1  0  0  0  0
  6  1  1  0  0  0  0
  8  5  1  6  0  0  0
  8  1  1  0  0  0  0
  8  2  1  0  0  0  0
  9  4  1  0  0  0  0
 10  3  1  0  0  0  0
 11 14  1  0  0  0  0
 11 12  1  6  0  0  0
 13 16  1  0  0  0  0
 14 10  1  6  0  0  0
 15 14  1  0  0  0  0
 16 12  2  0  0  0  0
 17 19  1  6  0  0  0
 17 18  1  0  0  0  0
 17 15  1  0  0  0  0
 18 13  1  6  0  0  0
 18 11  1  0  0  0  0
 20 21  1  0  0  0  0
 21 19  1  0  0  0  0
 22 23  1  0  0  0  0
 24 26  1  0  0  0  0
 25 24  2  0  0  0  0
 25 23  1  0  0  0  0
 26 28  1  0  0  0  0
 28 27  1  1  0  0  0
 29 28  1  0  0  0  0
 30 32  1  0  0  0  0
 34 39  1  0  0  0  0
 35 36  1  0  0  0  0
 37 32  1  6  0  0  0
 37 38  1  0  0  0  0
 37 34  1  0  0  0  0
 38 36  1  6  0  0  0
 38 40  1  0  0  0  0
 39 29  1  6  0  0  0
 39 31  1  0  0  0  0
 40 33  1  6  0  0  0
 40 31  1  0  0  0  0
 41 42  2  0  0  0  0
 42 30  1  0  0  0  0
 42 35  1  0  0  0  0
M  END
>  <MODEL>
7

>  <REMARK>
 VINA RESULT:      -7.7      1.363      2.164
  Name = 
  11 active torsions:
  status: ('A' for Active; 'I' for Inactive)
    1  A    between atoms: C_2  and  O_41
    2  A    between atoms: C_4  and  C_9
    3  A    between atoms: C_7  and  N_16
    4  A    between atoms: C_7  and  C_31
    5  A    between atoms: C_9  and  C_23
    6  A    between atoms: C_10  and  C_14
    7  A    between atoms: C_14  and  O_41
    8  A    between atoms: C_15  and  C_34
    9  A    between atoms: C_15  and  C_42
   10  A    between atoms: C_20  and  C_23
   11  A    between atoms: C_20  and  C_24
                            x       y       z     vdW  Elec       q    Type
                         _______ _______ _______ _____ _____    ______ ____

>  <TORSDO>
F 11

$$$$
=
 OpenBabel11062420013D

 42 48  0  0  1  0  0  0  0  0999 V2000
  190.9280  173.5470  141.7590 C   0  0  2  0  0  0  0  0  0  0  0  0
  190.8770  173.1430  139.2430 C   0  0  0  0  0  0  0  0  0  0  0  0
  192.3430  173.5520  142.1720 N   0  0  0  0  0  0  0  0  0  0  0  0
  192.2100  173.1080  138.9720 O   0  0  0  0  0  0  0  0  0  0  0  0
  189.7560  171.5740  140.7680 F   0  0  0  0  0  0  0  0  0  0  0  0
  191.9240  172.4650  141.2810 C   0  0  1  0  0  0  0  0  0  0  0  0
  190.0080  173.5180  138.4100 O   0  0  0  0  0  0  0  0  0  0  0  0
  190.5820  172.6740  140.5990 C   0  0  2  0  0  0  0  0  0  0  0  0
  192.9180  172.6380  140.1000 C   0  0  0  0  0  2  0  0  0  0  0  0
  192.5810  172.9470  143.4840 C   0  0  0  0  0  2  0  0  0  0  0  0
  194.0990  173.5330  145.3940 C   0  0  2  0  0  3  0  0  0  0  0  0
  194.4790  172.2710  145.5530 C   0  0  0  0  0  3  0  0  0  0  0  0
  196.3710  173.5250  145.6330 C   0  0  0  0  0  2  0  0  0  0  0  0
  193.0530  174.0160  144.4580 C   0  0  1  0  0  3  0  0  0  0  0  0
  193.6890  175.1030  143.7050 N   0  0  0  0  0  2  0  0  0  0  0  0
  195.9210  172.2800  145.7540 C   0  0  0  0  0  3  0  0  0  0  0  0
  195.1110  175.1270  144.0970 C   0  0  2  0  0  3  0  0  0  0  0  0
  195.2210  174.4600  145.4560 C   0  0  1  0  0  3  0  0  0  0  0  0
  195.6510  176.5570  144.1290 C   0  0  0  0  0  2  0  0  0  0  0  0
  197.1400  175.4530  142.4830 C   0  0  0  0  0  1  0  0  0  0  0  0
  196.7570  176.7740  143.1090 C   0  0  0  0  0  2  0  0  0  0  0  0
  190.1060  173.1370  142.8240 O   0  0  0  0  0  0  0  0  0  0  0  0
  189.0410  174.0450  142.8500 C   0  0  0  0  0  2  0  0  0  0  0  0
  189.7660  175.8620  144.4120 C   0  0  0  0  0  3  0  0  0  0  0  0
  189.5350  175.4270  143.1680 C   0  0  0  0  0  3  0  0  0  0  0  0
  189.5550  175.0060  145.6190 C   0  0  0  0  0  2  0  0  0  0  0  0
  190.4380  176.3710  147.3610 O   0  0  0  0  0  1  0  0  0  0  0  0
  189.2490  175.8660  146.8330 C   0  0  1  0  0  3  0  0  0  0  0  0
  188.3410  177.0200  146.4300 C   0  0  0  0  0  2  0  0  0  0  0  0
  185.9060  177.7420  142.4150 C   0  0  0  0  0  2  0  0  0  0  0  0
  186.4790  178.2080  147.6730 C   0  0  0  0  0  2  0  0  0  0  0  0
  186.1870  176.8110  143.6000 C   0  0  0  0  0  2  0  0  0  0  0  0
  184.2970  178.9720  147.0130 O   0  0  0  0  0  1  0  0  0  0  0  0
  185.9490  176.3130  146.0580 C   0  0  0  0  0  2  0  0  0  0  0  0
  184.1040  179.3180  143.4950 C   0  0  0  0  0  2  0  0  0  0  0  0
  185.2950  179.8200  144.3210 C   0  0  0  0  0  2  0  0  0  0  0  0
  185.5890  177.2940  144.9280 C   0  0  1  0  0  3  0  0  0  0  0  0
  185.9310  178.7690  145.2540 C   0  0  2  0  0  3  0  0  0  0  0  0
  186.9580  176.8780  147.0640 C   0  0  1  0  0  3  0  0  0  0  0  0
  185.6610  179.1010  146.7230 C   0  0  2  0  0  3  0  0  0  0  0  0
  183.6810  177.9100  141.6520 O   0  0  0  0  0  0  0  0  0  0  0  0
  184.5100  178.3060  142.4530 C   0  0  0  0  0  0  0  0  0  0  0  0
  1  3  1  0  0  0  0
  1 22  1  1  0  0  0
  2  8  1  0  0  0  0
  3 10  1  0  0  0  0
  4  2  1  0  0  0  0
  4  9  1  0  0  0  0
  6  9  1  6  0  0  0
  6  1  1  0  0  0  0
  6  3  1  0  0  0  0
  7  2  2  0  0  0  0
  8  5  1  1  0  0  0
  8  6  1  0  0  0  0
  8  1  1  0  0  0  0
 11 18  1  0  0  0  0
 11 12  1  6  0  0  0
 12 16  2  0  0  0  0
 13 16  1  0  0  0  0
 14 10  1  6  0  0  0
 14 11  1  0  0  0  0
 15 17  1  0  0  0  0
 15 14  1  0  0  0  0
 17 19  1  1  0  0  0
 17 18  1  0  0  0  0
 18 13  1  6  0  0  0
 20 21  1  0  0  0  0
 21 19  1  0  0  0  0
 22 23  1  0  0  0  0
 23 25  1  0  0  0  0
 24 26  1  0  0  0  0
 25 24  2  0  0  0  0
 26 28  1  0  0  0  0
 28 27  1  6  0  0  0
 29 28  1  0  0  0  0
 30 42  1  0  0  0  0
 30 32  1  0  0  0  0
 34 39  1  0  0  0  0
 35 36  1  0  0  0  0
 37 32  1  6  0  0  0
 37 38  1  0  0  0  0
 37 34  1  0  0  0  0
 38 36  1  6  0  0  0
 38 40  1  0  0  0  0
 39 29  1  6  0  0  0
 39 31  1  0  0  0  0
 40 33  1  1  0  0  0
 40 31  1  0  0  0  0
 41 42  2  0  0  0  0
 42 35  1  0  0  0  0
M  END
>  <MODEL>
8

>  <REMARK>
 VINA RESULT:      -7.6      2.717      5.107
  Name = 
  11 active torsions:
  status: ('A' for Active; 'I' for Inactive)
    1  A    between atoms: C_2  and  O_41
    2  A    between atoms: C_4  and  C_9
    3  A    between atoms: C_7  and  N_16
    4  A    between atoms: C_7  and  C_31
    5  A    between atoms: C_9  and  C_23
    6  A    between atoms: C_10  and  C_14
    7  A    between atoms: C_14  and  O_41
    8  A    between atoms: C_15  and  C_34
    9  A    between atoms: C_15  and  C_42
   10  A    between atoms: C_20  and  C_23
   11  A    between atoms: C_20  and  C_24
                            x       y       z     vdW  Elec       q    Type
                         _______ _______ _______ _____ _____    ______ ____

>  <TORSDO>
F 11

$$$$
=
 OpenBabel11062420013D

 42 48  0  0  1  0  0  0  0  0999 V2000
  192.0520  174.9720  145.4110 C   0  0  2  0  0  0  0  0  0  0  0  0
  192.3950  176.6480  147.3000 C   0  0  0  0  0  0  0  0  0  0  0  0
  193.3680  174.7400  144.7890 N   0  0  0  0  0  0  0  0  0  0  0  0
  193.7440  176.8140  147.2400 O   0  0  0  0  0  0  0  0  0  0  0  0
  190.8750  177.1770  145.4400 F   0  0  0  0  0  0  0  0  0  0  0  0
  193.0010  176.1360  145.0460 C   0  0  1  0  0  0  0  0  0  0  0  0
  191.7250  176.7770  148.3590 O   0  0  0  0  0  0  0  0  0  0  0  0
  191.8250  176.3280  145.9880 C   0  0  2  0  0  0  0  0  0  0  0  0
  194.1960  176.6100  145.9180 C   0  0  0  0  0  2  0  0  0  0  0  0
  193.3140  174.5550  143.3380 C   0  0  0  0  0  2  0  0  0  0  0  0
  195.6850  174.7780  142.5450 C   0  0  2  0  0  3  0  0  0  0  0  0
  195.5910  176.1000  142.4570 C   0  0  0  0  0  3  0  0  0  0  0  0
  197.5650  175.6640  143.4940 C   0  0  0  0  0  2  0  0  0  0  0  0
  194.5760  173.8460  142.8680 C   0  0  1  0  0  3  0  0  0  0  0  0
  195.0890  173.0090  143.9580 N   0  0  0  0  0  2  0  0  0  0  0  0
  196.8150  176.6540  143.0200 C   0  0  0  0  0  3  0  0  0  0  0  0
  196.3990  173.5610  144.3480 C   0  0  2  0  0  3  0  0  0  0  0  0
  196.9310  174.3530  143.1680 C   0  0  1  0  0  3  0  0  0  0  0  0
  197.3660  172.4500  144.7590 C   0  0  0  0  0  2  0  0  0  0  0  0
  196.6810  170.5800  146.2360 C   0  0  0  0  0  1  0  0  0  0  0  0
  196.6880  171.0900  144.8120 C   0  0  0  0  0  2  0  0  0  0  0  0
  191.0220  174.7590  144.4780 O   0  0  0  0  0  0  0  0  0  0  0  0
  190.0870  173.9430  145.1270 C   0  0  0  0  0  2  0  0  0  0  0  0
  189.6190  172.5850  143.0760 C   0  0  0  0  0  3  0  0  0  0  0  0
  189.9090  172.6520  144.3810 C   0  0  0  0  0  3  0  0  0  0  0  0
  189.4470  173.8010  142.2240 C   0  0  0  0  0  2  0  0  0  0  0  0
  187.3460  172.7270  141.8990 O   0  0  0  0  0  1  0  0  0  0  0  0
  187.9930  173.9600  141.8140 C   0  0  1  0  0  3  0  0  0  0  0  0
  187.3060  174.9600  142.7330 C   0  0  0  0  0  2  0  0  0  0  0  0
  186.6920  176.7930  147.0730 C   0  0  0  0  0  2  0  0  0  0  0  0
  186.4310  177.1400  141.7800 C   0  0  0  0  0  2  0  0  0  0  0  0
  187.6400  176.5840  145.8860 C   0  0  0  0  0  2  0  0  0  0  0  0
  185.9190  179.2710  142.7710 O   0  0  0  0  0  1  0  0  0  0  0  0
  188.2920  177.1440  143.5190 C   0  0  0  0  0  2  0  0  0  0  0  0
  185.4170  178.9400  146.2590 C   0  0  0  0  0  2  0  0  0  0  0  0
  184.8110  177.9760  145.2320 C   0  0  0  0  0  2  0  0  0  0  0  0
  187.3070  177.4470  144.6620 C   0  0  1  0  0  3  0  0  0  0  0  0
  185.8190  177.3630  144.2400 C   0  0  2  0  0  3  0  0  0  0  0  0
  187.6560  176.3960  142.3420 C   0  0  1  0  0  3  0  0  0  0  0  0
  185.6020  177.9080  142.8260 C   0  0  2  0  0  3  0  0  0  0  0  0
  186.7690  178.8680  148.1890 O   0  0  0  0  0  0  0  0  0  0  0  0
  186.3130  178.2400  147.2500 C   0  0  0  0  0  0  0  0  0  0  0  0
  1 22  1  6  0  0  0
  1  8  1  0  0  0  0
  2  7  2  0  0  0  0
  3  6  1  0  0  0  0
  3  1  1  0  0  0  0
  4  2  1  0  0  0  0
  6  1  1  0  0  0  0
  6  9  1  1  0  0  0
  6  8  1  0  0  0  0
  8  5  1  6  0  0  0
  8  2  1  0  0  0  0
  9  4  1  0  0  0  0
 10  3  1  0  0  0  0
 11 12  1  1  0  0  0
 11 14  1  0  0  0  0
 11 18  1  0  0  0  0
 12 16  2  0  0  0  0
 14 10  1  1  0  0  0
 14 15  1  0  0  0  0
 15 17  1  0  0  0  0
 16 13  1  0  0  0  0
 17 19  1  6  0  0  0
 18 13  1  1  0  0  0
 18 17  1  0  0  0  0
 19 21  1  0  0  0  0
 21 20  1  0  0  0  0
 22 23  1  0  0  0  0
 24 25  2  0  0  0  0
 25 23  1  0  0  0  0
 26 24  1  0  0  0  0
 28 27  1  1  0  0  0
 28 26  1  0  0  0  0
 28 29  1  0  0  0  0
 30 42  1  0  0  0  0
 31 39  1  0  0  0  0
 31 40  1  0  0  0  0
 32 30  1  0  0  0  0
 35 42  1  0  0  0  0
 36 35  1  0  0  0  0
 37 34  1  6  0  0  0
 37 32  1  0  0  0  0
 38 37  1  0  0  0  0
 38 36  1  1  0  0  0
 39 29  1  1  0  0  0
 39 34  1  0  0  0  0
 40 33  1  1  0  0  0
 40 38  1  0  0  0  0
 42 41  2  0  0  0  0
M  END
>  <MODEL>
9

>  <REMARK>
 VINA RESULT:      -7.6      2.291      5.482
  Name = 
  11 active torsions:
  status: ('A' for Active; 'I' for Inactive)
    1  A    between atoms: C_2  and  O_41
    2  A    between atoms: C_4  and  C_9
    3  A    between atoms: C_7  and  N_16
    4  A    between atoms: C_7  and  C_31
    5  A    between atoms: C_9  and  C_23
    6  A    between atoms: C_10  and  C_14
    7  A    between atoms: C_14  and  O_41
    8  A    between atoms: C_15  and  C_34
    9  A    between atoms: C_15  and  C_42
   10  A    between atoms: C_20  and  C_23
   11  A    between atoms: C_20  and  C_24
                            x       y       z     vdW  Elec       q    Type
                         _______ _______ _______ _____ _____    ______ ____

>  <TORSDO>
F 11

$$$$
