=
 OpenBabel11062419063D

 32 34  0  0  1  0  0  0  0  0999 V2000
  188.8470  174.5470  142.3350 C   0  0  2  0  0  3  0  0  0  0  0  0
  190.3800  173.8100  140.6180 O   0  0  0  0  0  1  0  0  0  0  0  0
  189.1980  174.5190  140.8430 C   0  0  0  0  0  2  0  0  0  0  0  0
  189.2560  173.2870  143.1080 C   0  0  0  0  0  2  0  0  0  0  0  0
  189.9630  173.6450  144.4030 C   0  0  0  0  0  2  0  0  0  0  0  0
  191.0080  174.6230  144.1440 N   0  0  0  0  0  2  0  0  0  0  0  0
  190.8970  177.1060  145.0320 S   0  0  0  0  0  0  0  0  0  0  0  0
  191.4410  175.5640  145.1280 C   0  0  0  0  0  0  0  0  0  0  0  0
  194.9550  175.0980  145.9280 C   0  0  1  0  0  3  0  0  0  0  0  0
  193.1700  176.3260  146.6860 N   0  0  0  0  0  2  0  0  0  0  0  0
  192.4520  175.1670  146.1670 C   0  0  2  0  0  3  0  0  0  0  0  0
  194.3830  176.4310  145.9870 N   0  0  0  0  0  2  0  0  0  0  0  0
  193.6280  173.9500  145.5170 S   0  0  0  0  0  0  0  0  0  0  0  0
  196.0300  175.0340  144.8550 C   0  0  0  0  0  2  0  0  0  0  0  0
  197.1490  173.5020  146.5210 N   0  0  0  0  0  1  0  0  0  0  0  0
  197.8340  173.5070  144.2450 C   0  0  0  0  0  2  0  0  0  0  0  0
  197.0680  174.0190  145.1970 C   0  0  0  0  0  0  0  0  0  0  0  0
  187.5330  175.0020  142.6030 O   0  0  0  0  0  0  0  0  0  0  0  0
  185.5330  179.0440  145.8260 C   0  0  0  0  0  3  0  0  0  0  0  0
  187.5830  176.2790  143.1950 C   0  0  1  0  0  3  0  0  0  0  0  0
  186.4810  177.1780  142.6500 C   0  0  0  0  0  0  0  0  0  0  0  0
  187.5230  176.1370  144.6160 O   0  0  0  0  0  0  0  0  0  0  0  0
  186.1400  177.6360  147.7530 C   0  0  0  0  0  2  0  0  0  0  0  0
  185.8280  178.0310  143.4830 C   0  0  0  0  0  0  0  0  0  0  0  0
  187.3050  177.1070  146.9120 C   0  0  0  0  0  2  0  0  0  0  0  0
  186.1470  178.0380  144.9290 C   0  0  0  0  0  0  0  0  0  0  0  0
  185.5650  178.8870  147.1520 C   0  0  0  0  0  3  0  0  0  0  0  0
  186.9620  177.1040  145.4460 C   0  0  0  0  0  0  0  0  0  0  0  0
  183.4640  178.6460  142.8580 N   0  0  0  0  0  1  0  0  0  0  0  0
  184.8190  178.9580  143.0370 N   0  0  0  0  0  2  0  0  0  0  0  0
  187.1770  177.4780  140.3750 O   0  0  0  0  0  0  0  0  0  0  0  0
  186.2550  177.2190  141.1910 C   0  0  0  0  0  3  0  0  0  0  0  0
  1  3  1  6  0  0  0
  1 18  1  0  0  0  0
  1  4  1  0  0  0  0
  2  3  1  0  0  0  0
  4  5  1  0  0  0  0
  6  5  1  0  0  0  0
  6  8  1  0  0  0  0
  7  8  2  0  0  0  0
  9 14  1  6  0  0  0
  9 12  1  0  0  0  0
 11  8  1  6  0  0  0
 11 10  1  0  0  0  0
 12 10  1  0  0  0  0
 13  9  1  0  0  0  0
 13 11  1  0  0  0  0
 14 17  1  0  0  0  0
 16 17  2  0  0  0  0
 17 15  1  0  0  0  0
 19 27  2  0  0  0  0
 20 18  1  6  0  0  0
 20 22  1  0  0  0  0
 21 20  1  0  0  0  0
 21 24  2  0  0  0  0
 22 28  1  0  0  0  0
 24 26  1  0  0  0  0
 25 23  1  0  0  0  0
 26 28  2  0  0  0  0
 26 19  1  0  0  0  0
 27 23  1  0  0  0  0
 28 25  1  0  0  0  0
 29 30  1  0  0  0  0
 30 24  1  0  0  0  0
 31 32  2  0  0  0  0
 32 21  1  0  0  0  0
M  END
>  <MODEL>
1

>  <REMARK>
 VINA RESULT:      -6.2      0.000      0.000
  Name = 
  12 active torsions:
  status: ('A' for Active; 'I' for Inactive)
    1  A    between atoms: C_3  and  O_18
    2  A    between atoms: C_4  and  C_31
    3  A    between atoms: N_6  and  C_21
    4  A    between atoms: N_6  and  C_23
    5  A    between atoms: N_7  and  C_20
    6  A    between atoms: C_8  and  C_10
    7  A    between atoms: C_10  and  C_25
    8  A    between atoms: C_14  and  C_21
    9  A    between atoms: C_14  and  C_28
   10  A    between atoms: C_17  and  C_23
   11  A    between atoms: O_18  and  C_28
   12  A    between atoms: C_19  and  C_28
                            x       y       z     vdW  Elec       q    Type
                         _______ _______ _______ _____ _____    ______ ____

>  <TORSDO>
F 12

$$$$
=
 OpenBabel11062419063D

 32 34  0  0  1  0  0  0  0  0999 V2000
  190.6650  176.4240  143.7410 C   0  0  2  0  0  3  0  0  0  0  0  0
  191.6070  178.6490  143.7430 O   0  0  0  0  0  1  0  0  0  0  0  0
  191.3560  177.5340  142.9420 C   0  0  0  0  0  2  0  0  0  0  0  0
  191.4330  175.0970  143.7830 C   0  0  0  0  0  2  0  0  0  0  0  0
  191.1230  174.3240  145.0530 C   0  0  0  0  0  2  0  0  0  0  0  0
  192.2950  174.2920  145.9130 N   0  0  0  0  0  2  0  0  0  0  0  0
  191.7640  176.3930  147.4190 S   0  0  0  0  0  0  0  0  0  0  0  0
  192.8020  175.4580  146.5650 C   0  0  0  0  0  0  0  0  0  0  0  0
  195.6040  175.7860  144.2740 C   0  0  1  0  0  3  0  0  0  0  0  0
  194.3490  177.1240  145.6530 N   0  0  0  0  0  2  0  0  0  0  0  0
  194.2380  175.8670  146.3840 C   0  0  2  0  0  3  0  0  0  0  0  0
  194.5840  176.8190  144.3030 N   0  0  0  0  0  2  0  0  0  0  0  0
  195.1940  174.5750  145.5440 S   0  0  0  0  0  0  0  0  0  0  0  0
  195.6250  175.1060  142.9150 C   0  0  0  0  0  2  0  0  0  0  0  0
  197.1510  174.8090  140.9260 N   0  0  0  0  0  1  0  0  0  0  0  0
  197.9400  175.8820  142.8950 C   0  0  0  0  0  2  0  0  0  0  0  0
  196.9620  175.2440  142.2670 C   0  0  0  0  0  0  0  0  0  0  0  0
  189.2820  176.2950  143.4630 O   0  0  0  0  0  0  0  0  0  0  0  0
  184.8290  179.0180  145.3270 C   0  0  0  0  0  3  0  0  0  0  0  0
  188.6020  177.4550  143.8810 C   0  0  1  0  0  3  0  0  0  0  0  0
  187.5030  177.8290  142.8960 C   0  0  0  0  0  0  0  0  0  0  0  0
  188.1070  177.2520  145.2070 O   0  0  0  0  0  0  0  0  0  0  0  0
  185.2270  177.9270  147.4980 C   0  0  0  0  0  2  0  0  0  0  0  0
  186.3140  178.3030  143.3560 C   0  0  0  0  0  0  0  0  0  0  0  0
  186.7210  177.9620  147.1650 C   0  0  0  0  0  2  0  0  0  0  0  0
  186.0690  178.3920  144.8130 C   0  0  0  0  0  0  0  0  0  0  0  0
  184.4510  178.8440  146.5950 C   0  0  0  0  0  3  0  0  0  0  0  0
  186.9500  177.8670  145.6800 C   0  0  0  0  0  0  0  0  0  0  0  0
  184.2400  177.9080  141.9750 N   0  0  0  0  0  1  0  0  0  0  0  0
  185.2460  178.7380  142.4900 N   0  0  0  0  0  2  0  0  0  0  0  0
  187.4310  176.8990  140.6870 O   0  0  0  0  0  0  0  0  0  0  0  0
  187.8110  177.8230  141.4520 C   0  0  0  0  0  3  0  0  0  0  0  0
  1  3  1  6  0  0  0
  1  4  1  0  0  0  0
  3  2  1  0  0  0  0
  4  5  1  0  0  0  0
  5  6  1  0  0  0  0
  6  8  1  0  0  0  0
  8  7  2  0  0  0  0
  9 14  1  6  0  0  0
  9 12  1  0  0  0  0
  9 13  1  0  0  0  0
 10 11  1  0  0  0  0
 11  8  1  6  0  0  0
 12 10  1  0  0  0  0
 13 11  1  0  0  0  0
 15 17  1  0  0  0  0
 17 16  2  0  0  0  0
 17 14  1  0  0  0  0
 18  1  1  0  0  0  0
 19 27  2  0  0  0  0
 20 18  1  6  0  0  0
 20 22  1  0  0  0  0
 21 24  2  0  0  0  0
 21 20  1  0  0  0  0
 22 28  1  0  0  0  0
 24 26  1  0  0  0  0
 25 23  1  0  0  0  0
 26 19  1  0  0  0  0
 26 28  2  0  0  0  0
 27 23  1  0  0  0  0
 28 25  1  0  0  0  0
 29 30  1  0  0  0  0
 30 24  1  0  0  0  0
 31 32  2  0  0  0  0
 32 21  1  0  0  0  0
M  END
>  <MODEL>
2

>  <REMARK>
 VINA RESULT:      -6.2      2.048      2.386
  Name = 
  12 active torsions:
  status: ('A' for Active; 'I' for Inactive)
    1  A    between atoms: C_3  and  O_18
    2  A    between atoms: C_4  and  C_31
    3  A    between atoms: N_6  and  C_21
    4  A    between atoms: N_6  and  C_23
    5  A    between atoms: N_7  and  C_20
    6  A    between atoms: C_8  and  C_10
    7  A    between atoms: C_10  and  C_25
    8  A    between atoms: C_14  and  C_21
    9  A    between atoms: C_14  and  C_28
   10  A    between atoms: C_17  and  C_23
   11  A    between atoms: O_18  and  C_28
   12  A    between atoms: C_19  and  C_28
                            x       y       z     vdW  Elec       q    Type
                         _______ _______ _______ _____ _____    ______ ____

>  <TORSDO>
F 12

$$$$
=
 OpenBabel11062419063D

 32 34  0  0  1  0  0  0  0  0999 V2000
  190.0760  175.7510  146.8620 C   0  0  2  0  0  3  0  0  0  0  0  0
  191.4390  177.0360  148.3880 O   0  0  0  0  0  1  0  0  0  0  0  0
  191.1320  175.7390  147.9730 C   0  0  0  0  0  2  0  0  0  0  0  0
  189.4750  174.3770  146.5410 C   0  0  0  0  0  2  0  0  0  0  0  0
  189.6840  174.0160  145.0810 C   0  0  0  0  0  2  0  0  0  0  0  0
  190.6880  172.9710  144.9670 N   0  0  0  0  0  2  0  0  0  0  0  0
  193.1550  173.8090  145.3890 S   0  0  0  0  0  0  0  0  0  0  0  0
  191.9840  173.2070  144.4140 C   0  0  0  0  0  0  0  0  0  0  0  0
  190.5400  172.9810  141.0870 C   0  0  1  0  0  3  0  0  0  0  0  0
  192.0980  174.2480  142.2000 N   0  0  0  0  0  2  0  0  0  0  0  0
  192.2350  173.0020  142.9460 C   0  0  2  0  0  3  0  0  0  0  0  0
  190.8020  174.2890  141.6610 N   0  0  0  0  0  2  0  0  0  0  0  0
  191.1290  171.7410  142.2550 S   0  0  0  0  0  0  0  0  0  0  0  0
  189.0480  172.7950  140.8610 C   0  0  0  0  0  2  0  0  0  0  0  0
  188.1920  174.4560  139.1640 N   0  0  0  0  0  1  0  0  0  0  0  0
  188.8960  172.2920  138.4770 C   0  0  0  0  0  2  0  0  0  0  0  0
  188.6710  173.1500  139.4620 C   0  0  0  0  0  0  0  0  0  0  0  0
  190.4510  176.5100  145.7260 O   0  0  0  0  0  0  0  0  0  0  0  0
  185.4120  178.5430  144.6320 C   0  0  0  0  0  3  0  0  0  0  0  0
  189.5340  177.5620  145.5320 C   0  0  1  0  0  3  0  0  0  0  0  0
  189.0600  177.6120  144.0860 C   0  0  0  0  0  0  0  0  0  0  0  0
  188.4570  177.4180  146.4600 O   0  0  0  0  0  0  0  0  0  0  0  0
  184.7580  177.7920  146.8850 C   0  0  0  0  0  2  0  0  0  0  0  0
  187.7610  177.9040  143.8090 C   0  0  0  0  0  0  0  0  0  0  0  0
  186.2000  178.0690  147.3210 C   0  0  0  0  0  2  0  0  0  0  0  0
  186.7980  178.1060  144.9170 C   0  0  0  0  0  0  0  0  0  0  0  0
  184.4600  178.4420  145.5630 C   0  0  0  0  0  3  0  0  0  0  0  0
  187.1640  177.8550  146.1840 C   0  0  0  0  0  0  0  0  0  0  0  0
  186.7640  176.9740  141.6880 N   0  0  0  0  0  1  0  0  0  0  0  0
  187.2450  178.0330  142.4690 N   0  0  0  0  0  2  0  0  0  0  0  0
  191.1960  178.0410  143.0830 O   0  0  0  0  0  0  0  0  0  0  0  0
  190.0600  177.5040  143.0060 C   0  0  0  0  0  3  0  0  0  0  0  0
  1  4  1  6  0  0  0
  1  3  1  0  0  0  0
  3  2  1  0  0  0  0
  5  4  1  0  0  0  0
  6  5  1  0  0  0  0
  8  6  1  0  0  0  0
  8  7  2  0  0  0  0
  9 14  1  1  0  0  0
  9 12  1  0  0  0  0
  9 13  1  0  0  0  0
 10 11  1  0  0  0  0
 11  8  1  1  0  0  0
 12 10  1  0  0  0  0
 13 11  1  0  0  0  0
 15 17  1  0  0  0  0
 16 17  2  0  0  0  0
 17 14  1  0  0  0  0
 18  1  1  0  0  0  0
 19 26  1  0  0  0  0
 19 27  2  0  0  0  0
 20 18  1  6  0  0  0
 20 22  1  0  0  0  0
 21 20  1  0  0  0  0
 23 25  1  0  0  0  0
 24 21  2  0  0  0  0
 24 26  1  0  0  0  0
 26 28  2  0  0  0  0
 27 23  1  0  0  0  0
 28 22  1  0  0  0  0
 28 25  1  0  0  0  0
 29 30  1  0  0  0  0
 30 24  1  0  0  0  0
 32 31  2  0  0  0  0
 32 21  1  0  0  0  0
M  END
>  <MODEL>
3

>  <REMARK>
 VINA RESULT:      -6.1      3.299      5.265
  Name = 
  12 active torsions:
  status: ('A' for Active; 'I' for Inactive)
    1  A    between atoms: C_3  and  O_18
    2  A    between atoms: C_4  and  C_31
    3  A    between atoms: N_6  and  C_21
    4  A    between atoms: N_6  and  C_23
    5  A    between atoms: N_7  and  C_20
    6  A    between atoms: C_8  and  C_10
    7  A    between atoms: C_10  and  C_25
    8  A    between atoms: C_14  and  C_21
    9  A    between atoms: C_14  and  C_28
   10  A    between atoms: C_17  and  C_23
   11  A    between atoms: O_18  and  C_28
   12  A    between atoms: C_19  and  C_28
                            x       y       z     vdW  Elec       q    Type
                         _______ _______ _______ _____ _____    ______ ____

>  <TORSDO>
F 12

$$$$
=
 OpenBabel11062419063D

 32 34  0  0  1  0  0  0  0  0999 V2000
  190.4000  175.1700  145.8590 C   0  0  2  0  0  3  0  0  0  0  0  0
  191.5160  176.1760  147.7510 O   0  0  0  0  0  1  0  0  0  0  0  0
  190.8000  176.4580  146.5860 C   0  0  0  0  0  2  0  0  0  0  0  0
  191.5580  174.4510  145.1550 C   0  0  0  0  0  2  0  0  0  0  0  0
  192.4120  175.4290  144.3680 C   0  0  0  0  0  2  0  0  0  0  0  0
  193.8020  175.0020  144.3860 N   0  0  0  0  0  2  0  0  0  0  0  0
  194.5350  177.1400  145.7480 S   0  0  0  0  0  0  0  0  0  0  0  0
  194.8690  175.8730  144.7650 C   0  0  0  0  0  0  0  0  0  0  0  0
  196.8760  175.4160  141.7700 C   0  0  1  0  0  3  0  0  0  0  0  0
  196.7170  176.8920  143.5200 N   0  0  0  0  0  2  0  0  0  0  0  0
  196.2450  175.6840  144.1900 C   0  0  2  0  0  3  0  0  0  0  0  0
  196.4570  176.7540  142.1480 N   0  0  0  0  0  2  0  0  0  0  0  0
  196.2990  174.2800  143.0440 S   0  0  0  0  0  0  0  0  0  0  0  0
  196.2640  175.0300  140.4330 C   0  0  0  0  0  2  0  0  0  0  0  0
  197.7900  173.2600  139.4790 N   0  0  0  0  0  1  0  0  0  0  0  0
  197.7210  175.4320  138.5160 C   0  0  0  0  0  2  0  0  0  0  0  0
  197.3160  174.6020  139.4660 C   0  0  0  0  0  0  0  0  0  0  0  0
  189.2240  175.2960  145.0800 O   0  0  0  0  0  0  0  0  0  0  0  0
  185.2090  179.0870  144.6110 C   0  0  0  0  0  3  0  0  0  0  0  0
  188.7030  176.5970  145.2110 C   0  0  1  0  0  3  0  0  0  0  0  0
  188.4320  177.2180  143.8470 C   0  0  0  0  0  0  0  0  0  0  0  0
  187.5360  176.5500  146.0350 O   0  0  0  0  0  0  0  0  0  0  0  0
  184.1070  177.9720  146.5100 C   0  0  0  0  0  2  0  0  0  0  0  0
  187.3250  177.9840  143.6590 C   0  0  0  0  0  0  0  0  0  0  0  0
  185.5050  177.6230  147.0280 C   0  0  0  0  0  2  0  0  0  0  0  0
  186.3530  178.1590  144.7630 C   0  0  0  0  0  0  0  0  0  0  0  0
  184.1740  179.0370  145.4530 C   0  0  0  0  0  3  0  0  0  0  0  0
  186.4790  177.4460  145.8930 C   0  0  0  0  0  0  0  0  0  0  0  0
  186.3310  178.0920  141.3440 N   0  0  0  0  0  1  0  0  0  0  0  0
  187.0280  178.6580  142.4200 N   0  0  0  0  0  2  0  0  0  0  0  0
  190.4690  177.8670  142.7590 O   0  0  0  0  0  0  0  0  0  0  0  0
  189.4660  177.1070  142.7990 C   0  0  0  0  0  3  0  0  0  0  0  0
  1  4  1  6  0  0  0
  1  3  1  0  0  0  0
  3  2  1  0  0  0  0
  5  6  1  0  0  0  0
  5  4  1  0  0  0  0
  6  8  1  0  0  0  0
  8  7  2  0  0  0  0
  9 14  1  6  0  0  0
  9 12  1  0  0  0  0
  9 13  1  0  0  0  0
 10 11  1  0  0  0  0
 11  8  1  6  0  0  0
 12 10  1  0  0  0  0
 13 11  1  0  0  0  0
 16 17  2  0  0  0  0
 17 15  1  0  0  0  0
 17 14  1  0  0  0  0
 18  1  1  0  0  0  0
 19 26  1  0  0  0  0
 19 27  2  0  0  0  0
 20 18  1  6  0  0  0
 20 22  1  0  0  0  0
 21 20  1  0  0  0  0
 23 25  1  0  0  0  0
 24 21  2  0  0  0  0
 24 26  1  0  0  0  0
 26 28  2  0  0  0  0
 27 23  1  0  0  0  0
 28 22  1  0  0  0  0
 28 25  1  0  0  0  0
 29 30  1  0  0  0  0
 30 24  1  0  0  0  0
 31 32  2  0  0  0  0
 32 21  1  0  0  0  0
M  END
>  <MODEL>
4

>  <REMARK>
 VINA RESULT:      -6.0      3.012      3.901
  Name = 
  12 active torsions:
  status: ('A' for Active; 'I' for Inactive)
    1  A    between atoms: C_3  and  O_18
    2  A    between atoms: C_4  and  C_31
    3  A    between atoms: N_6  and  C_21
    4  A    between atoms: N_6  and  C_23
    5  A    between atoms: N_7  and  C_20
    6  A    between atoms: C_8  and  C_10
    7  A    between atoms: C_10  and  C_25
    8  A    between atoms: C_14  and  C_21
    9  A    between atoms: C_14  and  C_28
   10  A    between atoms: C_17  and  C_23
   11  A    between atoms: O_18  and  C_28
   12  A    between atoms: C_19  and  C_28
                            x       y       z     vdW  Elec       q    Type
                         _______ _______ _______ _____ _____    ______ ____

>  <TORSDO>
F 12

$$$$
=
 OpenBabel11062419063D

 32 34  0  0  1  0  0  0  0  0999 V2000
  189.7380  175.8540  146.3170 C   0  0  2  0  0  3  0  0  0  0  0  0
  191.1540  175.2500  148.1800 O   0  0  0  0  0  1  0  0  0  0  0  0
  190.8140  176.2930  147.3160 C   0  0  0  0  0  2  0  0  0  0  0  0
  189.5090  174.3380  146.2540 C   0  0  0  0  0  2  0  0  0  0  0  0
  189.9900  173.7670  144.9320 C   0  0  0  0  0  2  0  0  0  0  0  0
  191.3430  173.2540  145.0760 N   0  0  0  0  0  2  0  0  0  0  0  0
  192.1260  173.2900  142.5550 S   0  0  0  0  0  0  0  0  0  0  0  0
  192.3850  173.5670  144.1490 C   0  0  0  0  0  0  0  0  0  0  0  0
  195.2440  175.7320  143.5630 C   0  0  1  0  0  3  0  0  0  0  0  0
  193.6460  175.3990  145.1760 N   0  0  0  0  0  2  0  0  0  0  0  0
  193.7230  174.0430  144.6410 C   0  0  2  0  0  3  0  0  0  0  0  0
  194.0440  176.2860  144.1640 N   0  0  0  0  0  2  0  0  0  0  0  0
  194.9770  173.9650  143.3330 S   0  0  0  0  0  0  0  0  0  0  0  0
  195.5050  176.3840  142.2140 C   0  0  0  0  0  2  0  0  0  0  0  0
  197.9380  175.8100  142.5670 N   0  0  0  0  0  1  0  0  0  0  0  0
  196.9770  175.6840  140.3960 C   0  0  0  0  0  2  0  0  0  0  0  0
  196.8410  175.9880  141.6790 C   0  0  0  0  0  0  0  0  0  0  0  0
  189.8380  176.4870  145.0550 O   0  0  0  0  0  0  0  0  0  0  0  0
  184.9060  178.9830  144.6450 C   0  0  0  0  0  3  0  0  0  0  0  0
  189.0000  177.6190  145.0220 C   0  0  1  0  0  3  0  0  0  0  0  0
  188.3790  177.7990  143.6430 C   0  0  0  0  0  0  0  0  0  0  0  0
  188.0200  177.5040  146.0550 O   0  0  0  0  0  0  0  0  0  0  0  0
  184.4350  178.1460  146.9130 C   0  0  0  0  0  2  0  0  0  0  0  0
  187.0880  178.2100  143.5300 C   0  0  0  0  0  0  0  0  0  0  0  0
  185.9330  178.2780  147.1980 C   0  0  0  0  0  2  0  0  0  0  0  0
  186.2710  178.4190  144.7480 C   0  0  0  0  0  0  0  0  0  0  0  0
  184.0540  178.9000  145.6700 C   0  0  0  0  0  3  0  0  0  0  0  0
  186.7480  178.0590  145.9500 C   0  0  0  0  0  0  0  0  0  0  0  0
  185.8020  177.4970  141.4810 N   0  0  0  0  0  1  0  0  0  0  0  0
  186.4450  178.4650  142.2650 N   0  0  0  0  0  2  0  0  0  0  0  0
  190.3900  178.1970  142.3990 O   0  0  0  0  0  0  0  0  0  0  0  0
  189.2450  177.6790  142.4530 C   0  0  0  0  0  3  0  0  0  0  0  0
  1  4  1  6  0  0  0
  1  3  1  0  0  0  0
  3  2  1  0  0  0  0
  5  6  1  0  0  0  0
  5  4  1  0  0  0  0
  7  8  2  0  0  0  0
  8  6  1  0  0  0  0
  9 14  1  6  0  0  0
  9 12  1  0  0  0  0
 11  8  1  6  0  0  0
 11 10  1  0  0  0  0
 12 10  1  0  0  0  0
 13  9  1  0  0  0  0
 13 11  1  0  0  0  0
 16 17  2  0  0  0  0
 17 14  1  0  0  0  0
 17 15  1  0  0  0  0
 18  1  1  0  0  0  0
 19 26  1  0  0  0  0
 19 27  2  0  0  0  0
 20 18  1  6  0  0  0
 20 22  1  0  0  0  0
 21 20  1  0  0  0  0
 23 25  1  0  0  0  0
 24 21  2  0  0  0  0
 24 26  1  0  0  0  0
 26 28  2  0  0  0  0
 27 23  1  0  0  0  0
 28 22  1  0  0  0  0
 28 25  1  0  0  0  0
 29 30  1  0  0  0  0
 30 24  1  0  0  0  0
 31 32  2  0  0  0  0
 32 21  1  0  0  0  0
M  END
>  <MODEL>
5

>  <REMARK>
 VINA RESULT:      -6.0      2.539      3.280
  Name = 
  12 active torsions:
  status: ('A' for Active; 'I' for Inactive)
    1  A    between atoms: C_3  and  O_18
    2  A    between atoms: C_4  and  C_31
    3  A    between atoms: N_6  and  C_21
    4  A    between atoms: N_6  and  C_23
    5  A    between atoms: N_7  and  C_20
    6  A    between atoms: C_8  and  C_10
    7  A    between atoms: C_10  and  C_25
    8  A    between atoms: C_14  and  C_21
    9  A    between atoms: C_14  and  C_28
   10  A    between atoms: C_17  and  C_23
   11  A    between atoms: O_18  and  C_28
   12  A    between atoms: C_19  and  C_28
                            x       y       z     vdW  Elec       q    Type
                         _______ _______ _______ _____ _____    ______ ____

>  <TORSDO>
F 12

$$$$
=
 OpenBabel11062419063D

 32 34  0  0  1  0  0  0  0  0999 V2000
  190.8910  176.6840  145.1970 C   0  0  2  0  0  3  0  0  0  0  0  0
  191.8540  176.7580  142.9820 O   0  0  0  0  0  1  0  0  0  0  0  0
  191.5760  177.5260  144.1140 C   0  0  0  0  0  2  0  0  0  0  0  0
  191.7990  175.6430  145.8630 C   0  0  0  0  0  2  0  0  0  0  0  0
  193.1200  176.2610  146.2890 C   0  0  0  0  0  2  0  0  0  0  0  0
  194.1960  175.2980  146.1200 N   0  0  0  0  0  2  0  0  0  0  0  0
  195.5430  176.3090  144.0870 S   0  0  0  0  0  0  0  0  0  0  0  0
  194.8190  175.0570  144.8570 C   0  0  0  0  0  0  0  0  0  0  0  0
  192.6520  172.3270  143.8280 C   0  0  1  0  0  3  0  0  0  0  0  0
  194.1390  173.7920  142.8730 N   0  0  0  0  0  2  0  0  0  0  0  0
  194.7230  173.7050  144.2080 C   0  0  2  0  0  3  0  0  0  0  0  0
  192.7700  173.5000  142.9800 N   0  0  0  0  0  2  0  0  0  0  0  0
  193.7690  172.5460  145.2260 S   0  0  0  0  0  0  0  0  0  0  0  0
  191.2270  172.1860  144.3370 C   0  0  0  0  0  2  0  0  0  0  0  0
  190.3410  170.9610  142.3150 N   0  0  0  0  0  1  0  0  0  0  0  0
  189.2610  172.9300  143.0950 C   0  0  0  0  0  2  0  0  0  0  0  0
  190.2630  172.0700  143.2030 C   0  0  0  0  0  0  0  0  0  0  0  0
  189.6150  176.1970  144.8200 O   0  0  0  0  0  0  0  0  0  0  0  0
  184.5650  178.4680  145.0720 C   0  0  0  0  0  3  0  0  0  0  0  0
  188.7120  177.2710  144.7000 C   0  0  1  0  0  3  0  0  0  0  0  0
  187.7460  177.0460  143.5450 C   0  0  0  0  0  0  0  0  0  0  0  0
  188.0430  177.4590  145.9480 O   0  0  0  0  0  0  0  0  0  0  0  0
  184.7590  178.3220  147.5220 C   0  0  0  0  0  2  0  0  0  0  0  0
  186.4410  177.4070  143.6730 C   0  0  0  0  0  0  0  0  0  0  0  0
  186.2660  178.5310  147.3470 C   0  0  0  0  0  2  0  0  0  0  0  0
  185.9510  177.9580  144.9570 C   0  0  0  0  0  0  0  0  0  0  0  0
  184.0150  178.6850  146.2680 C   0  0  0  0  0  3  0  0  0  0  0  0
  186.7470  177.9610  146.0380 C   0  0  0  0  0  0  0  0  0  0  0  0
  185.2130  178.2710  141.6470 N   0  0  0  0  0  1  0  0  0  0  0  0
  185.4770  177.2860  142.6080 N   0  0  0  0  0  2  0  0  0  0  0  0
  188.5480  177.3830  141.3100 O   0  0  0  0  0  0  0  0  0  0  0  0
  188.2830  176.5870  142.2480 C   0  0  0  0  0  3  0  0  0  0  0  0
  1  3  1  6  0  0  0
  1  4  1  0  0  0  0
  2  3  1  0  0  0  0
  4  5  1  0  0  0  0
  6  5  1  0  0  0  0
  7  8  2  0  0  0  0
  8  6  1  0  0  0  0
  9 14  1  1  0  0  0
  9 13  1  0  0  0  0
 10 12  1  0  0  0  0
 10 11  1  0  0  0  0
 11  8  1  1  0  0  0
 11 13  1  0  0  0  0
 12  9  1  0  0  0  0
 15 17  1  0  0  0  0
 16 17  2  0  0  0  0
 17 14  1  0  0  0  0
 18  1  1  0  0  0  0
 19 27  2  0  0  0  0
 20 18  1  1  0  0  0
 20 22  1  0  0  0  0
 21 24  2  0  0  0  0
 21 20  1  0  0  0  0
 22 28  1  0  0  0  0
 24 26  1  0  0  0  0
 25 23  1  0  0  0  0
 26 19  1  0  0  0  0
 26 28  2  0  0  0  0
 27 23  1  0  0  0  0
 28 25  1  0  0  0  0
 29 30  1  0  0  0  0
 30 24  1  0  0  0  0
 31 32  2  0  0  0  0
 32 21  1  0  0  0  0
M  END
>  <MODEL>
6

>  <REMARK>
 VINA RESULT:      -6.0      2.042      3.964
  Name = 
  12 active torsions:
  status: ('A' for Active; 'I' for Inactive)
    1  A    between atoms: C_3  and  O_18
    2  A    between atoms: C_4  and  C_31
    3  A    between atoms: N_6  and  C_21
    4  A    between atoms: N_6  and  C_23
    5  A    between atoms: N_7  and  C_20
    6  A    between atoms: C_8  and  C_10
    7  A    between atoms: C_10  and  C_25
    8  A    between atoms: C_14  and  C_21
    9  A    between atoms: C_14  and  C_28
   10  A    between atoms: C_17  and  C_23
   11  A    between atoms: O_18  and  C_28
   12  A    between atoms: C_19  and  C_28
                            x       y       z     vdW  Elec       q    Type
                         _______ _______ _______ _____ _____    ______ ____

>  <TORSDO>
F 12

$$$$
=
 OpenBabel11062419063D

 32 34  0  0  1  0  0  0  0  0999 V2000
  190.7060  173.3430  141.2780 C   0  0  2  0  0  3  0  0  0  0  0  0
  190.5830  171.4360  139.7990 O   0  0  0  0  0  1  0  0  0  0  0  0
  191.2690  171.9710  140.8920 C   0  0  0  0  0  2  0  0  0  0  0  0
  189.5720  173.8430  140.3740 C   0  0  0  0  0  2  0  0  0  0  0  0
  188.3840  174.3120  141.1950 C   0  0  0  0  0  2  0  0  0  0  0  0
  188.0610  175.6900  140.8590 N   0  0  0  0  0  2  0  0  0  0  0  0
  188.8430  177.6590  142.4320 S   0  0  0  0  0  0  0  0  0  0  0  0
  187.6900  176.6550  141.8450 C   0  0  0  0  0  0  0  0  0  0  0  0
  185.3470  178.2550  144.1150 C   0  0  1  0  0  3  0  0  0  0  0  0
  185.5230  177.7960  141.8730 N   0  0  0  0  0  2  0  0  0  0  0  0
  186.2940  176.6750  142.4020 C   0  0  2  0  0  3  0  0  0  0  0  0
  185.5840  178.8420  142.8070 N   0  0  0  0  0  2  0  0  0  0  0  0
  186.3040  176.7320  144.2140 S   0  0  0  0  0  0  0  0  0  0  0  0
  185.7990  179.2090  145.2080 C   0  0  0  0  0  2  0  0  0  0  0  0
  184.0750  178.2950  146.8100 N   0  0  0  0  0  1  0  0  0  0  0  0
  186.3460  178.5020  147.4800 C   0  0  0  0  0  2  0  0  0  0  0  0
  185.4160  178.6980  146.5570 C   0  0  0  0  0  0  0  0  0  0  0  0
  191.7020  174.3090  141.5620 O   0  0  0  0  0  0  0  0  0  0  0  0
  191.4500  175.9400  146.8530 C   0  0  0  0  0  3  0  0  0  0  0  0
  192.0660  174.2320  142.9200 C   0  0  1  0  0  3  0  0  0  0  0  0
  192.8470  175.4680  143.3470 C   0  0  0  0  0  0  0  0  0  0  0  0
  190.8910  174.0250  143.7070 O   0  0  0  0  0  0  0  0  0  0  0  0
  189.2150  174.9090  146.9330 C   0  0  0  0  0  2  0  0  0  0  0  0
  192.6370  176.0100  144.5760 C   0  0  0  0  0  0  0  0  0  0  0  0
  189.7260  173.8850  145.9160 C   0  0  0  0  0  2  0  0  0  0  0  0
  191.6040  175.4370  145.4690 C   0  0  0  0  0  0  0  0  0  0  0  0
  190.3540  175.6590  147.5630 C   0  0  0  0  0  3  0  0  0  0  0  0
  190.7720  174.4860  145.0160 C   0  0  0  0  0  0  0  0  0  0  0  0
  194.5790  177.0570  145.7990 N   0  0  0  0  0  1  0  0  0  0  0  0
  193.3780  177.1390  145.0810 N   0  0  0  0  0  2  0  0  0  0  0  0
  195.0080  175.3150  142.3170 O   0  0  0  0  0  0  0  0  0  0  0  0
  193.9360  175.9550  142.4770 C   0  0  0  0  0  3  0  0  0  0  0  0
  1  4  1  6  0  0  0
  1 18  1  0  0  0  0
  2  3  1  0  0  0  0
  3  1  1  0  0  0  0
  4  5  1  0  0  0  0
  6  5  1  0  0  0  0
  6  8  1  0  0  0  0
  8  7  2  0  0  0  0
  9 13  1  0  0  0  0
  9 14  1  1  0  0  0
 10 11  1  0  0  0  0
 10 12  1  0  0  0  0
 11  8  1  6  0  0  0
 11 13  1  0  0  0  0
 12  9  1  0  0  0  0
 14 17  1  0  0  0  0
 17 15  1  0  0  0  0
 17 16  2  0  0  0  0
 19 27  2  0  0  0  0
 20 18  1  6  0  0  0
 20 21  1  0  0  0  0
 20 22  1  0  0  0  0
 21 24  2  0  0  0  0
 22 28  1  0  0  0  0
 23 27  1  0  0  0  0
 24 30  1  0  0  0  0
 24 26  1  0  0  0  0
 25 23  1  0  0  0  0
 26 19  1  0  0  0  0
 28 26  2  0  0  0  0
 28 25  1  0  0  0  0
 30 29  1  0  0  0  0
 31 32  2  0  0  0  0
 32 21  1  0  0  0  0
M  END
>  <MODEL>
7

>  <REMARK>
 VINA RESULT:      -5.9      2.828      7.544
  Name = 
  12 active torsions:
  status: ('A' for Active; 'I' for Inactive)
    1  A    between atoms: C_3  and  O_18
    2  A    between atoms: C_4  and  C_31
    3  A    between atoms: N_6  and  C_21
    4  A    between atoms: N_6  and  C_23
    5  A    between atoms: N_7  and  C_20
    6  A    between atoms: C_8  and  C_10
    7  A    between atoms: C_10  and  C_25
    8  A    between atoms: C_14  and  C_21
    9  A    between atoms: C_14  and  C_28
   10  A    between atoms: C_17  and  C_23
   11  A    between atoms: O_18  and  C_28
   12  A    between atoms: C_19  and  C_28
                            x       y       z     vdW  Elec       q    Type
                         _______ _______ _______ _____ _____    ______ ____

>  <TORSDO>
F 12

$$$$
=
 OpenBabel11062419063D

 32 34  0  0  1  0  0  0  0  0999 V2000
  190.0080  175.7620  146.6190 C   0  0  2  0  0  3  0  0  0  0  0  0
  192.3460  175.6870  147.2260 O   0  0  0  0  0  1  0  0  0  0  0  0
  191.0710  176.0110  147.6950 C   0  0  0  0  0  2  0  0  0  0  0  0
  189.5980  174.2930  146.4570 C   0  0  0  0  0  2  0  0  0  0  0  0
  189.6260  173.8750  144.9980 C   0  0  0  0  0  2  0  0  0  0  0  0
  190.4870  172.7150  144.8300 N   0  0  0  0  0  2  0  0  0  0  0  0
  189.6920  171.8820  142.4550 S   0  0  0  0  0  0  0  0  0  0  0  0
  190.8680  172.2200  143.5450 C   0  0  0  0  0  0  0  0  0  0  0  0
  194.3430  172.7830  144.4480 C   0  0  1  0  0  3  0  0  0  0  0  0
  192.8910  171.0190  144.2270 N   0  0  0  0  0  2  0  0  0  0  0  0
  192.3100  171.9240  143.2400 C   0  0  2  0  0  3  0  0  0  0  0  0
  193.5690  171.7950  145.1800 N   0  0  0  0  0  2  0  0  0  0  0  0
  193.2920  173.4450  143.1410 S   0  0  0  0  0  0  0  0  0  0  0  0
  194.7680  173.9100  145.3750 C   0  0  0  0  0  2  0  0  0  0  0  0
  196.3570  175.5150  144.2480 N   0  0  0  0  0  1  0  0  0  0  0  0
  197.1920  173.7770  145.6380 C   0  0  0  0  0  2  0  0  0  0  0  0
  196.1540  174.3660  145.0620 C   0  0  0  0  0  0  0  0  0  0  0  0
  190.2580  176.4420  145.4020 O   0  0  0  0  0  0  0  0  0  0  0  0
  185.2730  178.7360  144.6200 C   0  0  0  0  0  3  0  0  0  0  0  0
  189.3840  177.5400  145.2810 C   0  0  1  0  0  3  0  0  0  0  0  0
  188.8400  177.6520  143.8630 C   0  0  0  0  0  0  0  0  0  0  0  0
  188.3490  177.4210  146.2600 O   0  0  0  0  0  0  0  0  0  0  0  0
  184.6980  177.9560  146.8840 C   0  0  0  0  0  2  0  0  0  0  0  0
  187.5440  178.0100  143.6610 C   0  0  0  0  0  0  0  0  0  0  0  0
  186.1720  178.1530  147.2520 C   0  0  0  0  0  2  0  0  0  0  0  0
  186.6490  178.2280  144.8220 C   0  0  0  0  0  0  0  0  0  0  0  0
  184.3660  178.6550  145.5960 C   0  0  0  0  0  3  0  0  0  0  0  0
  187.0660  177.9250  146.0620 C   0  0  0  0  0  0  0  0  0  0  0  0
  186.2930  177.2130  141.6220 N   0  0  0  0  0  1  0  0  0  0  0  0
  186.9680  178.2000  142.3540 N   0  0  0  0  0  2  0  0  0  0  0  0
  190.9630  177.9450  142.7880 O   0  0  0  0  0  0  0  0  0  0  0  0
  189.7780  177.5260  142.7300 C   0  0  0  0  0  3  0  0  0  0  0  0
  1  4  1  6  0  0  0
  1  3  1  0  0  0  0
  2  3  1  0  0  0  0
  5  4  1  0  0  0  0
  6  5  1  0  0  0  0
  7  8  2  0  0  0  0
  8  6  1  0  0  0  0
  9 12  1  0  0  0  0
  9 14  1  1  0  0  0
 10 12  1  0  0  0  0
 11  8  1  1  0  0  0
 11 10  1  0  0  0  0
 13 11  1  0  0  0  0
 13  9  1  0  0  0  0
 15 17  1  0  0  0  0
 17 14  1  0  0  0  0
 17 16  2  0  0  0  0
 18  1  1  0  0  0  0
 19 26  1  0  0  0  0
 19 27  2  0  0  0  0
 20 18  1  6  0  0  0
 20 22  1  0  0  0  0
 21 20  1  0  0  0  0
 23 25  1  0  0  0  0
 24 21  2  0  0  0  0
 24 26  1  0  0  0  0
 26 28  2  0  0  0  0
 27 23  1  0  0  0  0
 28 22  1  0  0  0  0
 28 25  1  0  0  0  0
 29 30  1  0  0  0  0
 30 24  1  0  0  0  0
 32 31  2  0  0  0  0
 32 21  1  0  0  0  0
M  END
>  <MODEL>
8

>  <REMARK>
 VINA RESULT:      -5.9      2.614      3.556
  Name = 
  12 active torsions:
  status: ('A' for Active; 'I' for Inactive)
    1  A    between atoms: C_3  and  O_18
    2  A    between atoms: C_4  and  C_31
    3  A    between atoms: N_6  and  C_21
    4  A    between atoms: N_6  and  C_23
    5  A    between atoms: N_7  and  C_20
    6  A    between atoms: C_8  and  C_10
    7  A    between atoms: C_10  and  C_25
    8  A    between atoms: C_14  and  C_21
    9  A    between atoms: C_14  and  C_28
   10  A    between atoms: C_17  and  C_23
   11  A    between atoms: O_18  and  C_28
   12  A    between atoms: C_19  and  C_28
                            x       y       z     vdW  Elec       q    Type
                         _______ _______ _______ _____ _____    ______ ____

>  <TORSDO>
F 12

$$$$
=
 OpenBabel11062419063D

 32 34  0  0  1  0  0  0  0  0999 V2000
  190.4850  176.5880  145.7880 C   0  0  2  0  0  3  0  0  0  0  0  0
  189.9900  175.0590  147.5920 O   0  0  0  0  0  1  0  0  0  0  0  0
  190.5920  176.2810  147.2850 C   0  0  0  0  0  2  0  0  0  0  0  0
  191.8320  176.7910  145.0820 C   0  0  0  0  0  2  0  0  0  0  0  0
  192.9900  176.5270  146.0280 C   0  0  0  0  0  2  0  0  0  0  0  0
  193.6240  175.2610  145.6960 N   0  0  0  0  0  2  0  0  0  0  0  0
  195.5930  176.0200  144.1110 S   0  0  0  0  0  0  0  0  0  0  0  0
  194.3220  175.0500  144.4680 C   0  0  0  0  0  0  0  0  0  0  0  0
  191.4740  173.6550  142.6940 C   0  0  1  0  0  3  0  0  0  0  0  0
  193.4900  174.6350  142.2010 N   0  0  0  0  0  2  0  0  0  0  0  0
  193.8340  174.0260  143.4820 C   0  0  2  0  0  3  0  0  0  0  0  0
  192.1040  174.8610  142.1880 N   0  0  0  0  0  2  0  0  0  0  0  0
  192.4120  173.1060  144.1310 S   0  0  0  0  0  0  0  0  0  0  0  0
  190.0400  173.9440  143.1060 C   0  0  0  0  0  2  0  0  0  0  0  0
  187.7680  173.8430  142.0090 N   0  0  0  0  0  1  0  0  0  0  0  0
  189.4660  172.2950  141.3990 C   0  0  0  0  0  2  0  0  0  0  0  0
  189.0730  173.2990  142.1700 C   0  0  0  0  0  0  0  0  0  0  0  0
  189.5030  177.5590  145.4730 O   0  0  0  0  0  0  0  0  0  0  0  0
  184.8210  177.6310  142.5080 C   0  0  0  0  0  3  0  0  0  0  0  0
  188.4120  176.9420  144.8320 C   0  0  1  0  0  3  0  0  0  0  0  0
  187.1030  177.2850  145.5320 C   0  0  0  0  0  0  0  0  0  0  0  0
  188.4110  177.3130  143.4520 O   0  0  0  0  0  0  0  0  0  0  0  0
  186.2120  178.2090  140.5590 C   0  0  0  0  0  2  0  0  0  0  0  0
  185.9820  177.5170  144.7970 C   0  0  0  0  0  0  0  0  0  0  0  0
  187.3290  177.3780  141.1970 C   0  0  0  0  0  2  0  0  0  0  0  0
  186.0540  177.5000  143.3180 C   0  0  0  0  0  0  0  0  0  0  0  0
  184.8870  177.9170  141.2050 C   0  0  0  0  0  3  0  0  0  0  0  0
  187.2420  177.4090  142.7000 C   0  0  0  0  0  0  0  0  0  0  0  0
  184.2500  179.0450  145.8080 N   0  0  0  0  0  1  0  0  0  0  0  0
  184.6920  177.7850  145.3810 N   0  0  0  0  0  2  0  0  0  0  0  0
  187.0700  178.2170  147.7410 O   0  0  0  0  0  0  0  0  0  0  0  0
  187.0400  177.1970  147.0040 C   0  0  0  0  0  3  0  0  0  0  0  0
  1  4  1  1  0  0  0
  1  3  1  0  0  0  0
  3  2  1  0  0  0  0
  4  5  1  0  0  0  0
  6  5  1  0  0  0  0
  7  8  2  0  0  0  0
  8  6  1  0  0  0  0
  9 14  1  1  0  0  0
  9 13  1  0  0  0  0
 10 11  1  0  0  0  0
 11 13  1  0  0  0  0
 11  8  1  1  0  0  0
 12 10  1  0  0  0  0
 12  9  1  0  0  0  0
 15 17  1  0  0  0  0
 16 17  2  0  0  0  0
 17 14  1  0  0  0  0
 18  1  1  0  0  0  0
 19 26  1  0  0  0  0
 20 18  1  1  0  0  0
 20 21  1  0  0  0  0
 21 32  1  0  0  0  0
 22 20  1  0  0  0  0
 23 25  1  0  0  0  0
 23 27  1  0  0  0  0
 24 30  1  0  0  0  0
 24 21  2  0  0  0  0
 25 28  1  0  0  0  0
 26 24  1  0  0  0  0
 27 19  2  0  0  0  0
 28 26  2  0  0  0  0
 28 22  1  0  0  0  0
 30 29  1  0  0  0  0
 32 31  2  0  0  0  0
M  END
>  <MODEL>
9

>  <REMARK>
 VINA RESULT:      -5.9      2.273      5.231
  Name = 
  12 active torsions:
  status: ('A' for Active; 'I' for Inactive)
    1  A    between atoms: C_3  and  O_18
    2  A    between atoms: C_4  and  C_31
    3  A    between atoms: N_6  and  C_21
    4  A    between atoms: N_6  and  C_23
    5  A    between atoms: N_7  and  C_20
    6  A    between atoms: C_8  and  C_10
    7  A    between atoms: C_10  and  C_25
    8  A    between atoms: C_14  and  C_21
    9  A    between atoms: C_14  and  C_28
   10  A    between atoms: C_17  and  C_23
   11  A    between atoms: O_18  and  C_28
   12  A    between atoms: C_19  and  C_28
                            x       y       z     vdW  Elec       q    Type
                         _______ _______ _______ _____ _____    ______ ____

>  <TORSDO>
F 12

$$$$
