=
 OpenBabel11062421373D

 52 56  0  0  1  0  0  0  0  0999 V2000
  191.5150  175.5180  146.6020 C   0  0  0  0  0  0  0  0  0  0  0  0
  192.7530  173.6450  145.4050 C   0  0  1  0  0  3  0  0  0  0  0  0
  190.3650  175.0470  145.8730 N   0  0  0  0  0  0  0  0  0  0  0  0
  191.4350  173.5990  144.6150 C   0  0  2  0  0  3  0  0  0  0  0  0
  191.4370  176.5090  147.3750 O   0  0  0  0  0  0  0  0  0  0  0  0
  193.8230  175.7290  145.7590 C   0  0  1  0  0  3  0  0  0  0  0  0
  190.3620  173.7360  145.5070 O   0  0  0  0  0  0  0  0  0  0  0  0
  193.8380  173.7120  144.5050 O   0  0  0  0  0  0  0  0  0  0  0  0
  194.5890  176.3860  146.7270 O   0  0  0  0  0  1  0  0  0  0  0  0
  194.6530  174.8060  144.8740 C   0  0  1  0  0  0  0  0  0  0  0  0
  192.8300  174.8160  146.3980 C   0  0  1  0  0  3  0  0  0  0  0  0
  189.3140  175.9140  145.4030 C   0  0  0  0  0  0  0  0  0  0  0  0
  189.4240  176.5130  144.1400 C   0  0  0  0  0  3  0  0  0  0  0  0
  188.1820  176.1900  146.1850 C   0  0  0  0  0  3  0  0  0  0  0  0
  188.4250  177.3650  143.6560 C   0  0  0  0  0  0  0  0  0  0  0  0
  187.2900  177.6270  144.4490 C   0  0  0  0  0  0  0  0  0  0  0  0
  187.1800  177.0400  145.7120 C   0  0  0  0  0  3  0  0  0  0  0  0
  186.2160  178.5610  143.9970 C   0  0  0  0  0  2  0  0  0  0  0  0
  185.8330  179.4390  145.0880 N   0  0  0  0  0  1  0  0  0  0  0  0
  188.6500  178.1190  142.0430 S   0  0  0  0  0  0  0  0  0  0  0  0
  187.6150  176.9150  141.2100 C   0  0  0  0  0  0  0  0  0  0  0  0
  187.7620  175.6930  141.4790 O   0  0  0  0  0  0  0  0  0  0  0  0
  186.6360  176.8140  139.0570 O   0  0  0  0  0  0  0  0  0  0  0  0
  186.6290  177.3350  140.2030 C   0  0  0  0  0  0  0  0  0  0  0  0
  185.5730  178.3340  140.5650 C   0  0  0  0  0  2  0  0  0  0  0  0
  184.4720  177.7120  141.1650 O   0  0  0  0  0  0  0  0  0  0  0  0
  183.3680  178.2140  140.4760 C   0  0  0  0  0  2  0  0  0  0  0  0
  180.9030  178.5480  140.6050 C   0  0  0  0  0  1  0  0  0  0  0  0
  182.1710  178.3160  141.4060 C   0  0  0  0  0  2  0  0  0  0  0  0
  195.0510  175.5760  143.6440 C   0  0  0  0  0  0  0  0  0  0  0  0
  196.3520  176.8650  142.3480 N   0  0  0  0  0  2  0  0  0  0  0  0
  196.1330  176.2770  143.5960 N   0  0  0  0  0  0  0  0  0  0  0  0
  194.3140  175.5030  142.4260 N   0  0  0  0  0  2  0  0  0  0  0  0
  195.0890  176.4820  141.1760 S   0  0  0  0  0  0  0  0  0  0  0  0
  191.3150  172.3340  143.9060 N   0  0  0  0  0  2  0  0  0  0  0  0
  190.2310  173.2590  142.0540 O   0  0  0  0  0  0  0  0  0  0  0  0
  190.6980  172.2350  142.6200 C   0  0  0  0  0  0  0  0  0  0  0  0
  191.1050  171.0300  140.6400 F   0  0  0  0  0  0  0  0  0  0  0  0
  190.6090  170.9130  141.9270 C   0  0  1  0  0  3  0  0  0  0  0  0
  191.3390  169.9440  142.6240 O   0  0  0  0  0  0  0  0  0  0  0  0
  192.3850  169.5930  141.7660 C   0  0  0  0  0  2  0  0  0  0  0  0
  193.7150  169.9840  142.3880 C   0  0  0  0  0  2  0  0  0  0  0  0
  194.4560  170.9780  141.5120 C   0  0  0  0  0  3  0  0  0  0  0  0
  194.2010  172.2620  141.9540 F   0  0  0  0  0  0  0  0  0  0  0  0
  194.0410  170.8530  140.1990 F   0  0  0  0  0  0  0  0  0  0  0  0
  195.9030  174.2760  145.6130 C   0  0  0  0  0  2  0  0  0  0  0  0
  196.3630  172.9420  145.1120 C   0  0  0  0  0  0  0  0  0  0  0  0
  196.4050  170.5280  145.3300 C   0  0  0  0  0  3  0  0  0  0  0  0
  197.1700  170.4340  144.1630 C   0  0  0  0  0  3  0  0  0  0  0  0
  197.5310  171.5930  143.4670 C   0  0  0  0  0  3  0  0  0  0  0  0
  197.1270  172.8460  143.9400 C   0  0  0  0  0  3  0  0  0  0  0  0
  195.9990  171.7810  145.8020 C   0  0  0  0  0  3  0  0  0  0  0  0
  1  5  2  0  0  0  0
  2  8  1  6  0  0  0
  2 11  1  0  0  0  0
  3  1  1  0  0  0  0
  4 35  1  1  0  0  0
  4  2  1  0  0  0  0
  4  7  1  0  0  0  0
  6 11  1  0  0  0  0
  6  9  1  1  0  0  0
  7  3  1  0  0  0  0
  8 10  1  0  0  0  0
 10 46  1  1  0  0  0
 10  6  1  0  0  0  0
 11  1  1  6  0  0  0
 12  3  1  0  0  0  0
 12 14  1  0  0  0  0
 13 12  2  0  0  0  0
 15 13  1  0  0  0  0
 15 16  2  0  0  0  0
 16 17  1  0  0  0  0
 17 14  2  0  0  0  0
 18 16  1  0  0  0  0
 18 19  1  0  0  0  0
 20 15  1  0  0  0  0
 21 22  2  0  0  0  0
 21 20  1  0  0  0  0
 23 24  2  0  0  0  0
 24 25  1  0  0  0  0
 24 21  1  0  0  0  0
 25 26  1  0  0  0  0
 27 26  1  0  0  0  0
 27 29  1  0  0  0  0
 28 29  1  0  0  0  0
 30 10  1  0  0  0  0
 31 32  1  0  0  0  0
 32 30  2  0  0  0  0
 33 30  1  0  0  0  0
 34 31  1  0  0  0  0
 34 33  1  0  0  0  0
 36 37  2  0  0  0  0
 37 35  1  0  0  0  0
 39 38  1  6  0  0  0
 39 37  1  0  0  0  0
 39 40  1  0  0  0  0
 41 42  1  0  0  0  0
 41 40  1  0  0  0  0
 43 44  1  0  0  0  0
 43 42  1  0  0  0  0
 45 43  1  0  0  0  0
 47 46  1  0  0  0  0
 47 52  1  0  0  0  0
 48 52  2  0  0  0  0
 49 48  1  0  0  0  0
 50 51  1  0  0  0  0
 50 49  2  0  0  0  0
 51 47  2  0  0  0  0
M  END
>  <MODEL>
1

>  <REMARK>
 VINA RESULT:      -6.8      0.000      0.000
  Name = 
  18 active torsions:
  status: ('A' for Active; 'I' for Inactive)
    1  A    between atoms: N_1  and  C_21
    2  A    between atoms: C_2  and  C_33
    3  A    between atoms: C_4  and  C_44
    4  A    between atoms: S_5  and  C_12
    5  A    between atoms: S_5  and  C_36
    6  A    between atoms: C_6  and  C_37
    7  A    between atoms: C_7  and  N_19
    8  A    between atoms: O_8  and  C_11
    9  A    between atoms: O_8  and  C_38
   10  A    between atoms: C_11  and  C_28
   11  A    between atoms: C_12  and  C_35
   12  A    between atoms: C_13  and  C_45
   13  A    between atoms: C_24  and  C_33
   14  A    between atoms: C_24  and  O_40
   15  A    between atoms: C_35  and  C_38
   16  A    between atoms: C_37  and  C_45
   17  A    between atoms: O_40  and  C_51
   18  A    between atoms: C_47  and  C_51
                            x       y       z     vdW  Elec       q    Type
                         _______ _______ _______ _____ _____    ______ ____

>  <TORSDO>
F 18

$$$$
=
 OpenBabel11062421373D

 52 56  0  0  1  0  0  0  0  0999 V2000
  191.6780  175.7070  146.7110 C   0  0  0  0  0  0  0  0  0  0  0  0
  192.9090  173.7770  145.6010 C   0  0  1  0  0  3  0  0  0  0  0  0
  190.5260  175.2070  146.0050 N   0  0  0  0  0  0  0  0  0  0  0  0
  191.5900  173.7000  144.8140 C   0  0  2  0  0  3  0  0  0  0  0  0
  191.6040  176.7320  147.4390 O   0  0  0  0  0  0  0  0  0  0  0  0
  193.9870  175.8720  145.8590 C   0  0  1  0  0  3  0  0  0  0  0  0
  190.5190  173.8810  145.6990 O   0  0  0  0  0  0  0  0  0  0  0  0
  193.9930  173.7990  144.6980 O   0  0  0  0  0  0  0  0  0  0  0  0
  194.7550  176.5680  146.7960 O   0  0  0  0  0  1  0  0  0  0  0  0
  194.8120  174.9050  145.0160 C   0  0  1  0  0  0  0  0  0  0  0  0
  192.9900  174.9920  146.5390 C   0  0  1  0  0  3  0  0  0  0  0  0
  189.4780  176.0560  145.4960 C   0  0  0  0  0  0  0  0  0  0  0  0
  189.5850  176.5900  144.2040 C   0  0  0  0  0  3  0  0  0  0  0  0
  188.3510  176.3780  146.2690 C   0  0  0  0  0  3  0  0  0  0  0  0
  188.5890  177.4220  143.6830 C   0  0  0  0  0  0  0  0  0  0  0  0
  187.4590  177.7310  144.4660 C   0  0  0  0  0  0  0  0  0  0  0  0
  187.3520  177.2090  145.7580 C   0  0  0  0  0  3  0  0  0  0  0  0
  186.3890  178.6480  143.9730 C   0  0  0  0  0  2  0  0  0  0  0  0
  185.6800  179.2300  145.0970 N   0  0  0  0  0  1  0  0  0  0  0  0
  188.8110  178.0920  142.0320 S   0  0  0  0  0  0  0  0  0  0  0  0
  187.7090  176.8970  141.2760 C   0  0  0  0  0  0  0  0  0  0  0  0
  186.8380  177.2990  140.4600 O   0  0  0  0  0  0  0  0  0  0  0  0
  186.9210  174.9480  142.3650 O   0  0  0  0  0  0  0  0  0  0  0  0
  187.7930  175.4690  141.6210 C   0  0  0  0  0  0  0  0  0  0  0  0
  188.8780  174.6220  141.0300 C   0  0  0  0  0  2  0  0  0  0  0  0
  188.4490  173.9990  139.8530 O   0  0  0  0  0  0  0  0  0  0  0  0
  189.6220  173.5470  139.2490 C   0  0  0  0  0  2  0  0  0  0  0  0
  190.8670  173.6920  137.0960 C   0  0  0  0  0  1  0  0  0  0  0  0
  189.4930  173.6130  137.7370 C   0  0  0  0  0  2  0  0  0  0  0  0
  195.2130  175.6180  143.7520 C   0  0  0  0  0  0  0  0  0  0  0  0
  196.4920  176.8890  142.4170 N   0  0  0  0  0  2  0  0  0  0  0  0
  196.2600  176.3690  143.6930 N   0  0  0  0  0  0  0  0  0  0  0  0
  194.5200  175.4330  142.5200 N   0  0  0  0  0  2  0  0  0  0  0  0
  195.2870  176.3710  141.2350 S   0  0  0  0  0  0  0  0  0  0  0  0
  191.4650  172.4050  144.1630 N   0  0  0  0  0  2  0  0  0  0  0  0
  191.9400  173.2230  142.0250 O   0  0  0  0  0  0  0  0  0  0  0  0
  191.6540  172.2360  142.7560 C   0  0  0  0  0  0  0  0  0  0  0  0
  190.2430  170.4020  142.3270 F   0  0  0  0  0  0  0  0  0  0  0  0
  191.5270  170.8810  142.1350 C   0  0  1  0  0  3  0  0  0  0  0  0
  191.8050  170.9410  140.7660 O   0  0  0  0  0  0  0  0  0  0  0  0
  190.8230  170.1500  140.1620 C   0  0  0  0  0  2  0  0  0  0  0  0
  191.3650  169.5470  138.8770 C   0  0  0  0  0  2  0  0  0  0  0  0
  190.3340  169.6190  137.7640 C   0  0  0  0  0  3  0  0  0  0  0  0
  190.8400  170.3610  136.7140 F   0  0  0  0  0  0  0  0  0  0  0  0
  189.1750  170.2120  138.2300 F   0  0  0  0  0  0  0  0  0  0  0  0
  196.0610  174.4050  145.7780 C   0  0  0  0  0  2  0  0  0  0  0  0
  196.5640  173.0840  145.2840 C   0  0  0  0  0  0  0  0  0  0  0  0
  197.7900  171.7980  143.6360 C   0  0  0  0  0  3  0  0  0  0  0  0
  197.5570  170.6310  144.3700 C   0  0  0  0  0  3  0  0  0  0  0  0
  196.8300  170.6890  145.5640 C   0  0  0  0  0  3  0  0  0  0  0  0
  196.3340  171.9140  146.0220 C   0  0  0  0  0  3  0  0  0  0  0  0
  197.2960  173.0240  144.0950 C   0  0  0  0  0  3  0  0  0  0  0  0
  1  5  2  0  0  0  0
  2  8  1  6  0  0  0
  2 11  1  0  0  0  0
  3  1  1  0  0  0  0
  4 35  1  1  0  0  0
  4  2  1  0  0  0  0
  4  7  1  0  0  0  0
  6 11  1  0  0  0  0
  6  9  1  1  0  0  0
  7  3  1  0  0  0  0
  8 10  1  0  0  0  0
 10 46  1  1  0  0  0
 10  6  1  0  0  0  0
 11  1  1  6  0  0  0
 12  3  1  0  0  0  0
 12 14  1  0  0  0  0
 13 12  2  0  0  0  0
 15 13  1  0  0  0  0
 15 16  2  0  0  0  0
 16 17  1  0  0  0  0
 17 14  2  0  0  0  0
 18 16  1  0  0  0  0
 18 19  1  0  0  0  0
 20 15  1  0  0  0  0
 21 24  1  0  0  0  0
 21 20  1  0  0  0  0
 22 21  2  0  0  0  0
 24 23  2  0  0  0  0
 25 24  1  0  0  0  0
 26 25  1  0  0  0  0
 27 26  1  0  0  0  0
 28 29  1  0  0  0  0
 29 27  1  0  0  0  0
 30 10  1  0  0  0  0
 31 32  1  0  0  0  0
 32 30  2  0  0  0  0
 33 30  1  0  0  0  0
 34 31  1  0  0  0  0
 34 33  1  0  0  0  0
 36 37  2  0  0  0  0
 37 35  1  0  0  0  0
 39 38  1  6  0  0  0
 39 37  1  0  0  0  0
 40 39  1  0  0  0  0
 41 40  1  0  0  0  0
 42 41  1  0  0  0  0
 43 45  1  0  0  0  0
 43 42  1  0  0  0  0
 44 43  1  0  0  0  0
 47 46  1  0  0  0  0
 47 51  1  0  0  0  0
 48 52  1  0  0  0  0
 48 49  2  0  0  0  0
 49 50  1  0  0  0  0
 50 51  2  0  0  0  0
 52 47  2  0  0  0  0
M  END
>  <MODEL>
2

>  <REMARK>
 VINA RESULT:      -6.5      1.855      3.207
  Name = 
  18 active torsions:
  status: ('A' for Active; 'I' for Inactive)
    1  A    between atoms: N_1  and  C_21
    2  A    between atoms: C_2  and  C_33
    3  A    between atoms: C_4  and  C_44
    4  A    between atoms: S_5  and  C_12
    5  A    between atoms: S_5  and  C_36
    6  A    between atoms: C_6  and  C_37
    7  A    between atoms: C_7  and  N_19
    8  A    between atoms: O_8  and  C_11
    9  A    between atoms: O_8  and  C_38
   10  A    between atoms: C_11  and  C_28
   11  A    between atoms: C_12  and  C_35
   12  A    between atoms: C_13  and  C_45
   13  A    between atoms: C_24  and  C_33
   14  A    between atoms: C_24  and  O_40
   15  A    between atoms: C_35  and  C_38
   16  A    between atoms: C_37  and  C_45
   17  A    between atoms: O_40  and  C_51
   18  A    between atoms: C_47  and  C_51
                            x       y       z     vdW  Elec       q    Type
                         _______ _______ _______ _____ _____    ______ ____

>  <TORSDO>
F 18

$$$$
=
 OpenBabel11062421373D

 52 56  0  0  1  0  0  0  0  0999 V2000
  190.5800  172.0820  142.4930 C   0  0  0  0  0  0  0  0  0  0  0  0
  188.9700  172.9900  140.7440 C   0  0  1  0  0  3  0  0  0  0  0  0
  190.3720  173.3470  143.1500 N   0  0  0  0  0  0  0  0  0  0  0  0
  189.2010  174.2820  141.5450 C   0  0  2  0  0  3  0  0  0  0  0  0
  191.3590  171.2170  142.9720 O   0  0  0  0  0  0  0  0  0  0  0  0
  190.8350  171.6910  140.0710 C   0  0  1  0  0  3  0  0  0  0  0  0
  189.1910  173.9790  142.9130 O   0  0  0  0  0  0  0  0  0  0  0  0
  189.1790  173.2450  139.3720 O   0  0  0  0  0  0  0  0  0  0  0  0
  191.1890  170.3540  139.8740 O   0  0  0  0  0  1  0  0  0  0  0  0
  190.0970  172.2910  138.8790 C   0  0  1  0  0  0  0  0  0  0  0  0
  189.8620  171.8220  141.1960 C   0  0  1  0  0  3  0  0  0  0  0  0
  191.3940  174.0220  143.9120 C   0  0  0  0  0  0  0  0  0  0  0  0
  191.1670  174.3220  145.2620 C   0  0  0  0  0  3  0  0  0  0  0  0
  192.6130  174.4030  143.3310 C   0  0  0  0  0  3  0  0  0  0  0  0
  192.1340  174.9820  146.0280 C   0  0  0  0  0  0  0  0  0  0  0  0
  193.3570  175.3520  145.4340 C   0  0  0  0  0  0  0  0  0  0  0  0
  193.5850  175.0640  144.0870 C   0  0  0  0  0  3  0  0  0  0  0  0
  194.4050  176.0950  146.1950 C   0  0  0  0  0  2  0  0  0  0  0  0
  194.5520  177.4340  145.6550 N   0  0  0  0  0  1  0  0  0  0  0  0
  191.7580  175.3590  147.7420 S   0  0  0  0  0  0  0  0  0  0  0  0
  190.0020  175.5490  147.4330 C   0  0  0  0  0  0  0  0  0  0  0  0
  189.2330  174.5770  147.6600 O   0  0  0  0  0  0  0  0  0  0  0  0
  189.6580  177.8900  147.5020 O   0  0  0  0  0  0  0  0  0  0  0  0
  189.4620  176.8060  146.8920 C   0  0  0  0  0  0  0  0  0  0  0  0
  188.7390  176.8040  145.5810 C   0  0  0  0  0  2  0  0  0  0  0  0
  187.4890  177.4230  145.6910 O   0  0  0  0  0  0  0  0  0  0  0  0
  186.8660  176.7650  146.7520 C   0  0  0  0  0  2  0  0  0  0  0  0
  186.2820  178.8330  148.0140 C   0  0  0  0  0  1  0  0  0  0  0  0
  185.7300  177.6120  147.3000 C   0  0  0  0  0  2  0  0  0  0  0  0
  191.1120  172.9720  138.0010 C   0  0  0  0  0  0  0  0  0  0  0  0
  191.9080  174.5240  136.5880 N   0  0  0  0  0  2  0  0  0  0  0  0
  190.8140  174.0040  137.2840 N   0  0  0  0  0  0  0  0  0  0  0  0
  192.4830  172.5860  137.9780 N   0  0  0  0  0  2  0  0  0  0  0  0
  193.4000  173.6280  136.8860 S   0  0  0  0  0  0  0  0  0  0  0  0
  188.1530  175.2490  141.2560 N   0  0  0  0  0  2  0  0  0  0  0  0
  189.3170  177.0620  142.1620 O   0  0  0  0  0  0  0  0  0  0  0  0
  188.2770  176.6330  141.5940 C   0  0  0  0  0  0  0  0  0  0  0  0
  187.0240  177.6700  139.8920 F   0  0  0  0  0  0  0  0  0  0  0  0
  187.1760  177.5900  141.2650 C   0  0  1  0  0  3  0  0  0  0  0  0
  185.9740  177.1730  141.8460 O   0  0  0  0  0  0  0  0  0  0  0  0
  185.3700  178.3460  142.3100 C   0  0  0  0  0  2  0  0  0  0  0  0
  184.6520  178.0730  143.6200 C   0  0  0  0  0  2  0  0  0  0  0  0
  184.4330  179.3580  144.4000 C   0  0  0  0  0  3  0  0  0  0  0  0
  185.6520  179.8530  144.8240 F   0  0  0  0  0  0  0  0  0  0  0  0
  183.6290  179.1140  145.4980 F   0  0  0  0  0  0  0  0  0  0  0  0
  189.3250  171.2130  138.0830 C   0  0  0  0  0  2  0  0  0  0  0  0
  190.0670  170.7260  136.8770 C   0  0  0  0  0  0  0  0  0  0  0  0
  191.5730  169.1260  135.8540 C   0  0  0  0  0  3  0  0  0  0  0  0
  191.4220  169.7690  134.6210 C   0  0  0  0  0  3  0  0  0  0  0  0
  190.5910  170.8900  134.5130 C   0  0  0  0  0  3  0  0  0  0  0  0
  189.9130  171.3680  135.6390 C   0  0  0  0  0  3  0  0  0  0  0  0
  190.8940  169.6030  136.9790 C   0  0  0  0  0  3  0  0  0  0  0  0
  1  5  2  0  0  0  0
  1  3  1  0  0  0  0
  2  8  1  6  0  0  0
  2 11  1  0  0  0  0
  2  4  1  0  0  0  0
  3 12  1  0  0  0  0
  4 35  1  1  0  0  0
  4  7  1  0  0  0  0
  6  9  1  6  0  0  0
  6 11  1  0  0  0  0
  7  3  1  0  0  0  0
 10 46  1  6  0  0  0
 10  8  1  0  0  0  0
 10  6  1  0  0  0  0
 11  1  1  1  0  0  0
 12 13  1  0  0  0  0
 13 15  2  0  0  0  0
 14 12  2  0  0  0  0
 14 17  1  0  0  0  0
 15 20  1  0  0  0  0
 16 15  1  0  0  0  0
 16 18  1  0  0  0  0
 17 16  2  0  0  0  0
 19 18  1  0  0  0  0
 21 22  2  0  0  0  0
 21 20  1  0  0  0  0
 24 21  1  0  0  0  0
 24 23  2  0  0  0  0
 25 26  1  0  0  0  0
 25 24  1  0  0  0  0
 26 27  1  0  0  0  0
 27 29  1  0  0  0  0
 29 28  1  0  0  0  0
 30 10  1  0  0  0  0
 31 34  1  0  0  0  0
 31 32  1  0  0  0  0
 32 30  2  0  0  0  0
 33 30  1  0  0  0  0
 34 33  1  0  0  0  0
 35 37  1  0  0  0  0
 37 36  2  0  0  0  0
 39 38  1  6  0  0  0
 39 37  1  0  0  0  0
 39 40  1  0  0  0  0
 40 41  1  0  0  0  0
 41 42  1  0  0  0  0
 42 43  1  0  0  0  0
 43 44  1  0  0  0  0
 43 45  1  0  0  0  0
 47 52  1  0  0  0  0
 47 46  1  0  0  0  0
 48 52  2  0  0  0  0
 49 48  1  0  0  0  0
 50 49  2  0  0  0  0
 50 51  1  0  0  0  0
 51 47  2  0  0  0  0
M  END
>  <MODEL>
3

>  <REMARK>
 VINA RESULT:      -6.0      4.305      8.131
  Name = 
  18 active torsions:
  status: ('A' for Active; 'I' for Inactive)
    1  A    between atoms: N_1  and  C_21
    2  A    between atoms: C_2  and  C_33
    3  A    between atoms: C_4  and  C_44
    4  A    between atoms: S_5  and  C_12
    5  A    between atoms: S_5  and  C_36
    6  A    between atoms: C_6  and  C_37
    7  A    between atoms: C_7  and  N_19
    8  A    between atoms: O_8  and  C_11
    9  A    between atoms: O_8  and  C_38
   10  A    between atoms: C_11  and  C_28
   11  A    between atoms: C_12  and  C_35
   12  A    between atoms: C_13  and  C_45
   13  A    between atoms: C_24  and  C_33
   14  A    between atoms: C_24  and  O_40
   15  A    between atoms: C_35  and  C_38
   16  A    between atoms: C_37  and  C_45
   17  A    between atoms: O_40  and  C_51
   18  A    between atoms: C_47  and  C_51
                            x       y       z     vdW  Elec       q    Type
                         _______ _______ _______ _____ _____    ______ ____

>  <TORSDO>
F 18

$$$$
=
 OpenBabel11062421373D

 52 56  0  0  1  0  0  0  0  0999 V2000
  190.7110  176.2450  144.7590 C   0  0  0  0  0  0  0  0  0  0  0  0
  192.0540  174.0870  144.6200 C   0  0  1  0  0  3  0  0  0  0  0  0
  189.7150  175.5190  144.0120 N   0  0  0  0  0  0  0  0  0  0  0  0
  190.9340  173.7340  143.6270 C   0  0  2  0  0  3  0  0  0  0  0  0
  190.5330  177.4470  145.0880 O   0  0  0  0  0  0  0  0  0  0  0  0
  193.1540  176.1780  144.4310 C   0  0  1  0  0  3  0  0  0  0  0  0
  189.7070  174.1650  144.1490 O   0  0  0  0  0  0  0  0  0  0  0  0
  193.3070  173.8430  144.0200 O   0  0  0  0  0  0  0  0  0  0  0  0
  193.7360  177.1550  145.2440 O   0  0  0  0  0  1  0  0  0  0  0  0
  194.0930  175.0110  144.1440 C   0  0  1  0  0  0  0  0  0  0  0  0
  191.9910  175.5410  145.1180 C   0  0  1  0  0  3  0  0  0  0  0  0
  188.8460  176.1370  143.0410 C   0  0  0  0  0  0  0  0  0  0  0  0
  188.1050  177.2730  143.3980 C   0  0  0  0  0  3  0  0  0  0  0  0
  188.7080  175.6210  141.7440 C   0  0  0  0  0  3  0  0  0  0  0  0
  187.2480  177.8920  142.4820 C   0  0  0  0  0  0  0  0  0  0  0  0
  187.1250  177.3680  141.1810 C   0  0  0  0  0  0  0  0  0  0  0  0
  187.8540  176.2310  140.8220 C   0  0  0  0  0  3  0  0  0  0  0  0
  186.1920  177.9650  140.1790 C   0  0  0  0  0  2  0  0  0  0  0  0
  184.8300  177.5520  140.4630 N   0  0  0  0  0  1  0  0  0  0  0  0
  186.3100  179.3240  143.0220 S   0  0  0  0  0  0  0  0  0  0  0  0
  185.2460  178.3620  144.0990 C   0  0  0  0  0  0  0  0  0  0  0  0
  184.2820  177.7250  143.5950 O   0  0  0  0  0  0  0  0  0  0  0  0
  185.7970  179.3880  146.1590 O   0  0  0  0  0  0  0  0  0  0  0  0
  185.4680  178.3360  145.5520 C   0  0  0  0  0  0  0  0  0  0  0  0
  185.2340  177.0700  146.3200 C   0  0  0  0  0  2  0  0  0  0  0  0
  186.2350  176.8660  147.2760 O   0  0  0  0  0  0  0  0  0  0  0  0
  187.2460  176.1960  146.5860 C   0  0  0  0  0  2  0  0  0  0  0  0
  188.9570  174.6200  147.4790 C   0  0  0  0  0  1  0  0  0  0  0  0
  188.4790  176.0610  147.4630 C   0  0  0  0  0  2  0  0  0  0  0  0
  194.7930  175.2890  142.8410 C   0  0  0  0  0  0  0  0  0  0  0  0
  195.1600  175.1740  140.6300 N   0  0  0  0  0  2  0  0  0  0  0  0
  194.4210  174.7400  141.7330 N   0  0  0  0  0  0  0  0  0  0  0  0
  195.8440  176.2450  142.7280 N   0  0  0  0  0  2  0  0  0  0  0  0
  196.3970  176.3600  141.0550 S   0  0  0  0  0  0  0  0  0  0  0  0
  190.8880  172.2960  143.4100 N   0  0  0  0  0  2  0  0  0  0  0  0
  190.4900  172.4640  141.1140 O   0  0  0  0  0  0  0  0  0  0  0  0
  190.6600  171.7240  142.1200 C   0  0  0  0  0  0  0  0  0  0  0  0
  190.6240  169.9290  140.5980 F   0  0  0  0  0  0  0  0  0  0  0  0
  190.6330  170.2390  141.9470 C   0  0  1  0  0  3  0  0  0  0  0  0
  191.7480  169.6540  142.5560 O   0  0  0  0  0  0  0  0  0  0  0  0
  192.8280  169.9930  141.7340 C   0  0  0  0  0  2  0  0  0  0  0  0
  194.0080  170.4270  142.5860 C   0  0  0  0  0  2  0  0  0  0  0  0
  195.2640  170.5730  141.7450 C   0  0  0  0  0  3  0  0  0  0  0  0
  196.1940  169.6300  142.1360 F   0  0  0  0  0  0  0  0  0  0  0  0
  195.7970  171.8390  141.9060 F   0  0  0  0  0  0  0  0  0  0  0  0
  195.1200  174.8090  145.2810 C   0  0  0  0  0  2  0  0  0  0  0  0
  195.8660  173.5150  145.1800 C   0  0  0  0  0  0  0  0  0  0  0  0
  195.9550  171.1200  145.5440 C   0  0  0  0  0  3  0  0  0  0  0  0
  197.2220  171.0750  144.9530 C   0  0  0  0  0  3  0  0  0  0  0  0
  197.8120  172.2500  144.4720 C   0  0  0  0  0  3  0  0  0  0  0  0
  197.1340  173.4680  144.5840 C   0  0  0  0  0  3  0  0  0  0  0  0
  195.2770  172.3380  145.6540 C   0  0  0  0  0  3  0  0  0  0  0  0
  1  5  2  0  0  0  0
  2  8  1  6  0  0  0
  2 11  1  0  0  0  0
  3  7  1  0  0  0  0
  3  1  1  0  0  0  0
  4 35  1  1  0  0  0
  4  7  1  0  0  0  0
  4  2  1  0  0  0  0
  6 11  1  0  0  0  0
  6  9  1  1  0  0  0
  8 10  1  0  0  0  0
 10  6  1  0  0  0  0
 10 46  1  1  0  0  0
 11  1  1  6  0  0  0
 12 13  1  0  0  0  0
 12  3  1  0  0  0  0
 14 12  2  0  0  0  0
 15 20  1  0  0  0  0
 15 13  2  0  0  0  0
 16 15  1  0  0  0  0
 17 16  2  0  0  0  0
 17 14  1  0  0  0  0
 18 19  1  0  0  0  0
 18 16  1  0  0  0  0
 20 21  1  0  0  0  0
 21 24  1  0  0  0  0
 22 21  2  0  0  0  0
 24 23  2  0  0  0  0
 24 25  1  0  0  0  0
 25 26  1  0  0  0  0
 27 26  1  0  0  0  0
 27 29  1  0  0  0  0
 29 28  1  0  0  0  0
 30 10  1  0  0  0  0
 31 34  1  0  0  0  0
 31 32  1  0  0  0  0
 32 30  2  0  0  0  0
 33 30  1  0  0  0  0
 34 33  1  0  0  0  0
 36 37  2  0  0  0  0
 37 35  1  0  0  0  0
 39 38  1  6  0  0  0
 39 37  1  0  0  0  0
 39 40  1  0  0  0  0
 41 40  1  0  0  0  0
 41 42  1  0  0  0  0
 43 45  1  0  0  0  0
 43 44  1  0  0  0  0
 43 42  1  0  0  0  0
 47 46  1  0  0  0  0
 47 52  1  0  0  0  0
 48 52  2  0  0  0  0
 49 48  1  0  0  0  0
 50 51  1  0  0  0  0
 50 49  2  0  0  0  0
 51 47  2  0  0  0  0
M  END
>  <MODEL>
4

>  <REMARK>
 VINA RESULT:      -6.0      1.958      3.580
  Name = 
  18 active torsions:
  status: ('A' for Active; 'I' for Inactive)
    1  A    between atoms: N_1  and  C_21
    2  A    between atoms: C_2  and  C_33
    3  A    between atoms: C_4  and  C_44
    4  A    between atoms: S_5  and  C_12
    5  A    between atoms: S_5  and  C_36
    6  A    between atoms: C_6  and  C_37
    7  A    between atoms: C_7  and  N_19
    8  A    between atoms: O_8  and  C_11
    9  A    between atoms: O_8  and  C_38
   10  A    between atoms: C_11  and  C_28
   11  A    between atoms: C_12  and  C_35
   12  A    between atoms: C_13  and  C_45
   13  A    between atoms: C_24  and  C_33
   14  A    between atoms: C_24  and  O_40
   15  A    between atoms: C_35  and  C_38
   16  A    between atoms: C_37  and  C_45
   17  A    between atoms: O_40  and  C_51
   18  A    between atoms: C_47  and  C_51
                            x       y       z     vdW  Elec       q    Type
                         _______ _______ _______ _____ _____    ______ ____

>  <TORSDO>
F 18

$$$$
=
 OpenBabel11062421373D

 52 56  0  0  1  0  0  0  0  0999 V2000
  191.7750  175.3010  146.6960 C   0  0  0  0  0  0  0  0  0  0  0  0
  192.7760  173.3570  145.3940 C   0  0  1  0  0  3  0  0  0  0  0  0
  190.5260  174.8720  146.1210 N   0  0  0  0  0  0  0  0  0  0  0  0
  191.3690  173.3610  144.7700 C   0  0  2  0  0  3  0  0  0  0  0  0
  191.8350  176.3040  147.4540 O   0  0  0  0  0  0  0  0  0  0  0  0
  193.9700  175.3960  145.5760 C   0  0  1  0  0  3  0  0  0  0  0  0
  190.4210  173.5580  145.7830 O   0  0  0  0  0  0  0  0  0  0  0  0
  193.7440  173.3630  144.3670 O   0  0  0  0  0  0  0  0  0  0  0  0
  194.8760  176.0290  146.4310 O   0  0  0  0  0  1  0  0  0  0  0  0
  194.6450  174.4230  144.6140 C   0  0  1  0  0  0  0  0  0  0  0  0
  193.0240  174.5370  146.3480 C   0  0  1  0  0  3  0  0  0  0  0  0
  189.4630  175.7800  145.7660 C   0  0  0  0  0  0  0  0  0  0  0  0
  188.5520  175.4210  144.7630 C   0  0  0  0  0  3  0  0  0  0  0  0
  189.3230  177.0290  146.3900 C   0  0  0  0  0  3  0  0  0  0  0  0
  187.5140  176.2810  144.3890 C   0  0  0  0  0  0  0  0  0  0  0  0
  187.3800  177.5290  145.0290 C   0  0  0  0  0  0  0  0  0  0  0  0
  188.2910  177.8960  146.0230 C   0  0  0  0  0  3  0  0  0  0  0  0
  186.3170  178.5010  144.6390 C   0  0  0  0  0  2  0  0  0  0  0  0
  185.1420  178.3080  145.4680 N   0  0  0  0  0  1  0  0  0  0  0  0
  186.4050  175.7640  143.0750 S   0  0  0  0  0  0  0  0  0  0  0  0
  187.5670  176.1840  141.7760 C   0  0  0  0  0  0  0  0  0  0  0  0
  188.3450  175.2930  141.3410 O   0  0  0  0  0  0  0  0  0  0  0  0
  186.7700  177.9590  140.4280 O   0  0  0  0  0  0  0  0  0  0  0  0
  187.6410  177.5520  141.2420 C   0  0  0  0  0  0  0  0  0  0  0  0
  188.7130  178.4830  141.7200 C   0  0  0  0  0  2  0  0  0  0  0  0
  189.8390  177.7760  142.1550 O   0  0  0  0  0  0  0  0  0  0  0  0
  190.3320  178.5260  143.2230 C   0  0  0  0  0  2  0  0  0  0  0  0
  191.8870  176.5860  143.0640 C   0  0  0  0  0  1  0  0  0  0  0  0
  191.6330  177.9260  143.7300 C   0  0  0  0  0  2  0  0  0  0  0  0
  194.9230  175.1590  143.3300 C   0  0  0  0  0  0  0  0  0  0  0  0
  195.8550  176.7060  141.9990 N   0  0  0  0  0  2  0  0  0  0  0  0
  195.6730  176.2080  143.2910 N   0  0  0  0  0  0  0  0  0  0  0  0
  194.4590  174.6900  142.0670 N   0  0  0  0  0  2  0  0  0  0  0  0
  195.0120  175.7570  140.7720 S   0  0  0  0  0  0  0  0  0  0  0  0
  191.1100  172.0940  144.1040 N   0  0  0  0  0  2  0  0  0  0  0  0
  190.8090  173.0490  141.9930 O   0  0  0  0  0  0  0  0  0  0  0  0
  190.8340  172.0090  142.7040 C   0  0  0  0  0  0  0  0  0  0  0  0
  190.3120  170.8570  140.7190 F   0  0  0  0  0  0  0  0  0  0  0  0
  190.5840  170.6810  142.0640 C   0  0  1  0  0  3  0  0  0  0  0  0
  191.6980  169.8480  142.2120 O   0  0  0  0  0  0  0  0  0  0  0  0
  192.1210  169.5750  140.9070 C   0  0  0  0  0  2  0  0  0  0  0  0
  193.6300  169.3970  140.8810 C   0  0  0  0  0  2  0  0  0  0  0  0
  194.3270  170.7030  140.5430 C   0  0  0  0  0  3  0  0  0  0  0  0
  195.6680  170.4630  140.3090 F   0  0  0  0  0  0  0  0  0  0  0  0
  194.1960  171.5950  141.5910 F   0  0  0  0  0  0  0  0  0  0  0  0
  195.9510  173.8480  145.2060 C   0  0  0  0  0  2  0  0  0  0  0  0
  196.2150  172.4340  144.7880 C   0  0  0  0  0  0  0  0  0  0  0  0
  197.0950  170.8640  143.1640 C   0  0  0  0  0  3  0  0  0  0  0  0
  196.7650  169.8000  144.0110 C   0  0  0  0  0  3  0  0  0  0  0  0
  196.1620  170.0520  145.2480 C   0  0  0  0  0  3  0  0  0  0  0  0
  195.8880  171.3680  145.6380 C   0  0  0  0  0  3  0  0  0  0  0  0
  196.8230  172.1790  143.5540 C   0  0  0  0  0  3  0  0  0  0  0  0
  1  5  2  0  0  0  0
  2  8  1  6  0  0  0
  2 11  1  0  0  0  0
  3  1  1  0  0  0  0
  4 35  1  1  0  0  0
  4  2  1  0  0  0  0
  4  7  1  0  0  0  0
  6 11  1  0  0  0  0
  6  9  1  1  0  0  0
  7  3  1  0  0  0  0
  8 10  1  0  0  0  0
 10 46  1  1  0  0  0
 10  6  1  0  0  0  0
 11  1  1  6  0  0  0
 12  3  1  0  0  0  0
 12 14  1  0  0  0  0
 13 12  2  0  0  0  0
 15 13  1  0  0  0  0
 15 16  2  0  0  0  0
 16 17  1  0  0  0  0
 17 14  2  0  0  0  0
 18 16  1  0  0  0  0
 18 19  1  0  0  0  0
 20 15  1  0  0  0  0
 21 20  1  0  0  0  0
 22 21  2  0  0  0  0
 23 24  2  0  0  0  0
 24 25  1  0  0  0  0
 24 21  1  0  0  0  0
 25 26  1  0  0  0  0
 26 27  1  0  0  0  0
 27 29  1  0  0  0  0
 28 29  1  0  0  0  0
 30 10  1  0  0  0  0
 31 32  1  0  0  0  0
 32 30  2  0  0  0  0
 33 30  1  0  0  0  0
 34 31  1  0  0  0  0
 34 33  1  0  0  0  0
 36 37  2  0  0  0  0
 37 35  1  0  0  0  0
 39 38  1  6  0  0  0
 39 40  1  0  0  0  0
 39 37  1  0  0  0  0
 41 40  1  0  0  0  0
 42 41  1  0  0  0  0
 43 42  1  0  0  0  0
 43 45  1  0  0  0  0
 44 43  1  0  0  0  0
 47 46  1  0  0  0  0
 47 51  1  0  0  0  0
 48 52  1  0  0  0  0
 48 49  2  0  0  0  0
 49 50  1  0  0  0  0
 50 51  2  0  0  0  0
 52 47  2  0  0  0  0
M  END
>  <MODEL>
5

>  <REMARK>
 VINA RESULT:      -5.8      1.692      2.775
  Name = 
  18 active torsions:
  status: ('A' for Active; 'I' for Inactive)
    1  A    between atoms: N_1  and  C_21
    2  A    between atoms: C_2  and  C_33
    3  A    between atoms: C_4  and  C_44
    4  A    between atoms: S_5  and  C_12
    5  A    between atoms: S_5  and  C_36
    6  A    between atoms: C_6  and  C_37
    7  A    between atoms: C_7  and  N_19
    8  A    between atoms: O_8  and  C_11
    9  A    between atoms: O_8  and  C_38
   10  A    between atoms: C_11  and  C_28
   11  A    between atoms: C_12  and  C_35
   12  A    between atoms: C_13  and  C_45
   13  A    between atoms: C_24  and  C_33
   14  A    between atoms: C_24  and  O_40
   15  A    between atoms: C_35  and  C_38
   16  A    between atoms: C_37  and  C_45
   17  A    between atoms: O_40  and  C_51
   18  A    between atoms: C_47  and  C_51
                            x       y       z     vdW  Elec       q    Type
                         _______ _______ _______ _____ _____    ______ ____

>  <TORSDO>
F 18

$$$$
=
 OpenBabel11062421373D

 52 56  0  0  1  0  0  0  0  0999 V2000
  191.4450  175.6870  146.3700 C   0  0  0  0  0  0  0  0  0  0  0  0
  192.8350  173.7280  145.5280 C   0  0  1  0  0  3  0  0  0  0  0  0
  190.3440  175.0090  145.7340 N   0  0  0  0  0  0  0  0  0  0  0  0
  191.5360  173.4450  144.7560 C   0  0  2  0  0  3  0  0  0  0  0  0
  191.2840  176.7900  146.9540 O   0  0  0  0  0  0  0  0  0  0  0  0
  193.7440  175.9170  145.5070 C   0  0  1  0  0  3  0  0  0  0  0  0
  190.4430  173.6570  145.6070 O   0  0  0  0  0  0  0  0  0  0  0  0
  193.9250  173.7150  144.6320 O   0  0  0  0  0  0  0  0  0  0  0  0
  194.4450  176.7890  146.3440 O   0  0  0  0  0  1  0  0  0  0  0  0
  194.6530  174.9150  144.8020 C   0  0  1  0  0  0  0  0  0  0  0  0
  192.8110  175.0600  146.2960 C   0  0  1  0  0  3  0  0  0  0  0  0
  189.2400  175.6980  145.1150 C   0  0  0  0  0  0  0  0  0  0  0  0
  189.0300  175.5710  143.7340 C   0  0  0  0  0  3  0  0  0  0  0  0
  188.3700  176.5110  145.8570 C   0  0  0  0  0  3  0  0  0  0  0  0
  187.9720  176.2310  143.1010 C   0  0  0  0  0  0  0  0  0  0  0  0
  187.1020  177.0380  143.8600 C   0  0  0  0  0  0  0  0  0  0  0  0
  187.3110  177.1760  145.2340 C   0  0  0  0  0  3  0  0  0  0  0  0
  185.9840  177.7980  143.2260 C   0  0  0  0  0  2  0  0  0  0  0  0
  185.8420  179.0930  143.8640 N   0  0  0  0  0  1  0  0  0  0  0  0
  187.7870  176.0440  141.3250 S   0  0  0  0  0  0  0  0  0  0  0  0
  189.1330  174.8660  141.1950 C   0  0  0  0  0  0  0  0  0  0  0  0
  190.2220  175.1160  141.7780 O   0  0  0  0  0  0  0  0  0  0  0  0
  188.1910  172.7380  140.7640 O   0  0  0  0  0  0  0  0  0  0  0  0
  188.9880  173.6400  140.3960 C   0  0  0  0  0  0  0  0  0  0  0  0
  189.7400  173.4960  139.1080 C   0  0  0  0  0  2  0  0  0  0  0  0
  190.6160  172.4060  139.1530 O   0  0  0  0  0  0  0  0  0  0  0  0
  190.3650  171.7060  137.9730 C   0  0  0  0  0  2  0  0  0  0  0  0
  190.3590  169.2180  137.8540 C   0  0  0  0  0  1  0  0  0  0  0  0
  189.5690  170.4460  138.2690 C   0  0  0  0  0  2  0  0  0  0  0  0
  195.0120  175.4820  143.4550 C   0  0  0  0  0  0  0  0  0  0  0  0
  196.0990  176.7890  141.9900 N   0  0  0  0  0  2  0  0  0  0  0  0
  195.8570  176.4490  143.3230 N   0  0  0  0  0  0  0  0  0  0  0  0
  194.5210  174.9280  142.2380 N   0  0  0  0  0  2  0  0  0  0  0  0
  195.1840  175.7980  140.8510 S   0  0  0  0  0  0  0  0  0  0  0  0
  191.5200  172.0690  144.2830 N   0  0  0  0  0  2  0  0  0  0  0  0
  192.0980  172.6190  142.0860 O   0  0  0  0  0  0  0  0  0  0  0  0
  191.8120  171.7240  142.9270 C   0  0  0  0  0  0  0  0  0  0  0  0
  191.0750  170.1750  141.3150 F   0  0  0  0  0  0  0  0  0  0  0  0
  191.7940  170.2930  142.4920 C   0  0  1  0  0  3  0  0  0  0  0  0
  193.0960  169.8240  142.2950 O   0  0  0  0  0  0  0  0  0  0  0  0
  193.0980  168.5300  142.8240 C   0  0  0  0  0  2  0  0  0  0  0  0
  192.8190  168.5820  144.3170 C   0  0  0  0  0  2  0  0  0  0  0  0
  194.0500  169.0300  145.0860 C   0  0  0  0  0  3  0  0  0  0  0  0
  193.9740  170.3880  145.3260 F   0  0  0  0  0  0  0  0  0  0  0  0
  195.1910  168.7550  144.3550 F   0  0  0  0  0  0  0  0  0  0  0  0
  195.9270  174.6190  145.6260 C   0  0  0  0  0  2  0  0  0  0  0  0
  196.5880  173.3300  145.2480 C   0  0  0  0  0  0  0  0  0  0  0  0
  197.9410  172.0530  143.6940 C   0  0  0  0  0  3  0  0  0  0  0  0
  197.8770  170.9450  144.5460 C   0  0  0  0  0  3  0  0  0  0  0  0
  197.1710  171.0300  145.7510 C   0  0  0  0  0  3  0  0  0  0  0  0
  196.5280  172.2210  146.1030 C   0  0  0  0  0  3  0  0  0  0  0  0
  197.3000  173.2450  144.0470 C   0  0  0  0  0  3  0  0  0  0  0  0
  1  5  2  0  0  0  0
  2  8  1  6  0  0  0
  2 11  1  0  0  0  0
  3  1  1  0  0  0  0
  4 35  1  1  0  0  0
  4  2  1  0  0  0  0
  4  7  1  0  0  0  0
  6 11  1  0  0  0  0
  6  9  1  1  0  0  0
  7  3  1  0  0  0  0
  8 10  1  0  0  0  0
 10  6  1  0  0  0  0
 10 46  1  1  0  0  0
 11  1  1  6  0  0  0
 12  3  1  0  0  0  0
 12 14  1  0  0  0  0
 13 12  2  0  0  0  0
 15 13  1  0  0  0  0
 15 16  2  0  0  0  0
 16 17  1  0  0  0  0
 17 14  2  0  0  0  0
 18 16  1  0  0  0  0
 18 19  1  0  0  0  0
 20 15  1  0  0  0  0
 21 20  1  0  0  0  0
 21 22  2  0  0  0  0
 24 23  2  0  0  0  0
 24 21  1  0  0  0  0
 25 26  1  0  0  0  0
 25 24  1  0  0  0  0
 27 29  1  0  0  0  0
 27 26  1  0  0  0  0
 28 29  1  0  0  0  0
 30 10  1  0  0  0  0
 31 32  1  0  0  0  0
 32 30  2  0  0  0  0
 33 30  1  0  0  0  0
 34 31  1  0  0  0  0
 34 33  1  0  0  0  0
 36 37  2  0  0  0  0
 37 35  1  0  0  0  0
 39 38  1  6  0  0  0
 39 37  1  0  0  0  0
 40 39  1  0  0  0  0
 40 41  1  0  0  0  0
 41 42  1  0  0  0  0
 42 43  1  0  0  0  0
 43 44  1  0  0  0  0
 45 43  1  0  0  0  0
 47 46  1  0  0  0  0
 47 51  1  0  0  0  0
 48 52  1  0  0  0  0
 48 49  2  0  0  0  0
 49 50  1  0  0  0  0
 50 51  2  0  0  0  0
 52 47  2  0  0  0  0
M  END
>  <MODEL>
6

>  <REMARK>
 VINA RESULT:      -5.7      2.070      3.651
  Name = 
  18 active torsions:
  status: ('A' for Active; 'I' for Inactive)
    1  A    between atoms: N_1  and  C_21
    2  A    between atoms: C_2  and  C_33
    3  A    between atoms: C_4  and  C_44
    4  A    between atoms: S_5  and  C_12
    5  A    between atoms: S_5  and  C_36
    6  A    between atoms: C_6  and  C_37
    7  A    between atoms: C_7  and  N_19
    8  A    between atoms: O_8  and  C_11
    9  A    between atoms: O_8  and  C_38
   10  A    between atoms: C_11  and  C_28
   11  A    between atoms: C_12  and  C_35
   12  A    between atoms: C_13  and  C_45
   13  A    between atoms: C_24  and  C_33
   14  A    between atoms: C_24  and  O_40
   15  A    between atoms: C_35  and  C_38
   16  A    between atoms: C_37  and  C_45
   17  A    between atoms: O_40  and  C_51
   18  A    between atoms: C_47  and  C_51
                            x       y       z     vdW  Elec       q    Type
                         _______ _______ _______ _____ _____    ______ ____

>  <TORSDO>
F 18

$$$$
=
 OpenBabel11062421373D

 52 56  0  0  1  0  0  0  0  0999 V2000
  190.3860  175.0860  144.7860 C   0  0  0  0  0  0  0  0  0  0  0  0
  192.1380  173.3110  144.2790 C   0  0  1  0  0  3  0  0  0  0  0  0
  189.6840  174.5280  143.6590 N   0  0  0  0  0  0  0  0  0  0  0  0
  191.2800  173.1650  143.0120 C   0  0  2  0  0  3  0  0  0  0  0  0
  189.9230  176.0680  145.4230 O   0  0  0  0  0  0  0  0  0  0  0  0
  192.8150  175.4720  144.9800 C   0  0  1  0  0  3  0  0  0  0  0  0
  189.9260  173.2210  143.3680 O   0  0  0  0  0  0  0  0  0  0  0  0
  193.4930  173.4600  143.9140 O   0  0  0  0  0  0  0  0  0  0  0  0
  193.0560  176.1850  146.1580 O   0  0  0  0  0  1  0  0  0  0  0  0
  194.0010  174.6130  144.5540 C   0  0  1  0  0  0  0  0  0  0  0  0
  191.7100  174.4860  145.1740 C   0  0  1  0  0  3  0  0  0  0  0  0
  188.8710  175.3130  142.7630 C   0  0  0  0  0  0  0  0  0  0  0  0
  188.3090  176.5160  143.2130 C   0  0  0  0  0  3  0  0  0  0  0  0
  188.6110  174.8960  141.4490 C   0  0  0  0  0  3  0  0  0  0  0  0
  187.5090  177.2970  142.3720 C   0  0  0  0  0  0  0  0  0  0  0  0
  187.2630  176.8710  141.0520 C   0  0  0  0  0  0  0  0  0  0  0  0
  187.8130  175.6680  140.6020 C   0  0  0  0  0  3  0  0  0  0  0  0
  186.3830  177.6460  140.1290 C   0  0  0  0  0  2  0  0  0  0  0  0
  186.4320  177.0680  138.7980 N   0  0  0  0  0  1  0  0  0  0  0  0
  186.8000  178.8100  143.0290 S   0  0  0  0  0  0  0  0  0  0  0  0
  185.3550  177.9780  143.6900 C   0  0  0  0  0  0  0  0  0  0  0  0
  184.7310  177.1640  142.9590 O   0  0  0  0  0  0  0  0  0  0  0  0
  184.4650  179.4110  145.3510 O   0  0  0  0  0  0  0  0  0  0  0  0
  184.8790  178.2600  145.0530 C   0  0  0  0  0  0  0  0  0  0  0  0
  184.8240  177.1580  146.0670 C   0  0  0  0  0  2  0  0  0  0  0  0
  186.1000  176.6430  146.3230 O   0  0  0  0  0  0  0  0  0  0  0  0
  186.3750  177.0280  147.6350 C   0  0  0  0  0  2  0  0  0  0  0  0
  186.6870  179.4010  148.3250 C   0  0  0  0  0  1  0  0  0  0  0  0
  187.3330  178.2070  147.6470 C   0  0  0  0  0  2  0  0  0  0  0  0
  194.8250  175.4100  143.5800 C   0  0  0  0  0  0  0  0  0  0  0  0
  196.4560  176.7960  142.9060 N   0  0  0  0  0  2  0  0  0  0  0  0
  195.7740  176.1940  143.9660 N   0  0  0  0  0  0  0  0  0  0  0  0
  194.6760  175.2780  142.1680 N   0  0  0  0  0  2  0  0  0  0  0  0
  195.8340  176.3130  141.3260 S   0  0  0  0  0  0  0  0  0  0  0  0
  191.5560  171.8940  142.3590 N   0  0  0  0  0  2  0  0  0  0  0  0
  192.2940  172.8640  140.3650 O   0  0  0  0  0  0  0  0  0  0  0  0
  192.0650  171.8150  141.0260 C   0  0  0  0  0  0  0  0  0  0  0  0
  193.0400  169.6900  141.2970 F   0  0  0  0  0  0  0  0  0  0  0  0
  192.3440  170.4840  140.4030 C   0  0  1  0  0  3  0  0  0  0  0  0
  191.1500  169.8510  140.0440 O   0  0  0  0  0  0  0  0  0  0  0  0
  191.1090  169.9210  138.6480 C   0  0  0  0  0  2  0  0  0  0  0  0
  189.7060  170.2800  138.1900 C   0  0  0  0  0  2  0  0  0  0  0  0
  189.5020  171.7850  138.1870 C   0  0  0  0  0  3  0  0  0  0  0  0
  190.6740  172.4090  137.8080 F   0  0  0  0  0  0  0  0  0  0  0  0
  189.1390  172.2160  139.4500 F   0  0  0  0  0  0  0  0  0  0  0  0
  194.8580  174.1800  145.7660 C   0  0  0  0  0  2  0  0  0  0  0  0
  195.6250  172.9170  145.5250 C   0  0  0  0  0  0  0  0  0  0  0  0
  197.6800  171.8120  144.8670 C   0  0  0  0  0  3  0  0  0  0  0  0
  197.0930  170.5670  145.1170 C   0  0  0  0  0  3  0  0  0  0  0  0
  195.7730  170.4950  145.5750 C   0  0  0  0  0  3  0  0  0  0  0  0
  195.0390  171.6690  145.7800 C   0  0  0  0  0  3  0  0  0  0  0  0
  196.9470  172.9850  145.0730 C   0  0  0  0  0  3  0  0  0  0  0  0
  1  5  2  0  0  0  0
  2  8  1  6  0  0  0
  2 11  1  0  0  0  0
  3  1  1  0  0  0  0
  4 35  1  1  0  0  0
  4  7  1  0  0  0  0
  4  2  1  0  0  0  0
  6 11  1  0  0  0  0
  6  9  1  1  0  0  0
  7  3  1  0  0  0  0
  8 10  1  0  0  0  0
 10  6  1  0  0  0  0
 10 46  1  1  0  0  0
 11  1  1  6  0  0  0
 12 13  1  0  0  0  0
 12  3  1  0  0  0  0
 14 12  2  0  0  0  0
 15 20  1  0  0  0  0
 15 13  2  0  0  0  0
 16 15  1  0  0  0  0
 17 16  2  0  0  0  0
 17 14  1  0  0  0  0
 18 16  1  0  0  0  0
 19 18  1  0  0  0  0
 20 21  1  0  0  0  0
 21 24  1  0  0  0  0
 22 21  2  0  0  0  0
 24 23  2  0  0  0  0
 24 25  1  0  0  0  0
 25 26  1  0  0  0  0
 26 27  1  0  0  0  0
 27 29  1  0  0  0  0
 29 28  1  0  0  0  0
 30 32  2  0  0  0  0
 30 10  1  0  0  0  0
 31 32  1  0  0  0  0
 33 30  1  0  0  0  0
 34 33  1  0  0  0  0
 34 31  1  0  0  0  0
 36 37  2  0  0  0  0
 37 35  1  0  0  0  0
 39 37  1  0  0  0  0
 39 38  1  1  0  0  0
 40 39  1  0  0  0  0
 41 40  1  0  0  0  0
 42 41  1  0  0  0  0
 43 42  1  0  0  0  0
 43 45  1  0  0  0  0
 44 43  1  0  0  0  0
 47 46  1  0  0  0  0
 47 51  1  0  0  0  0
 48 52  1  0  0  0  0
 48 49  2  0  0  0  0
 49 50  1  0  0  0  0
 50 51  2  0  0  0  0
 52 47  2  0  0  0  0
M  END
>  <MODEL>
7

>  <REMARK>
 VINA RESULT:      -5.7      2.256      3.835
  Name = 
  18 active torsions:
  status: ('A' for Active; 'I' for Inactive)
    1  A    between atoms: N_1  and  C_21
    2  A    between atoms: C_2  and  C_33
    3  A    between atoms: C_4  and  C_44
    4  A    between atoms: S_5  and  C_12
    5  A    between atoms: S_5  and  C_36
    6  A    between atoms: C_6  and  C_37
    7  A    between atoms: C_7  and  N_19
    8  A    between atoms: O_8  and  C_11
    9  A    between atoms: O_8  and  C_38
   10  A    between atoms: C_11  and  C_28
   11  A    between atoms: C_12  and  C_35
   12  A    between atoms: C_13  and  C_45
   13  A    between atoms: C_24  and  C_33
   14  A    between atoms: C_24  and  O_40
   15  A    between atoms: C_35  and  C_38
   16  A    between atoms: C_37  and  C_45
   17  A    between atoms: O_40  and  C_51
   18  A    between atoms: C_47  and  C_51
                            x       y       z     vdW  Elec       q    Type
                         _______ _______ _______ _____ _____    ______ ____

>  <TORSDO>
F 18

$$$$
=
 OpenBabel11062421373D

 52 56  0  0  1  0  0  0  0  0999 V2000
  189.6600  172.4020  143.6190 C   0  0  0  0  0  0  0  0  0  0  0  0
  188.9120  173.0190  141.2660 C   0  0  1  0  0  3  0  0  0  0  0  0
  189.2790  173.7500  143.9520 N   0  0  0  0  0  0  0  0  0  0  0  0
  188.8790  174.4200  141.9000 C   0  0  2  0  0  3  0  0  0  0  0  0
  190.1440  171.6270  144.4840 O   0  0  0  0  0  0  0  0  0  0  0  0
  190.8210  171.6500  141.5770 C   0  0  1  0  0  3  0  0  0  0  0  0
  188.3180  174.3280  143.1810 O   0  0  0  0  0  0  0  0  0  0  0  0
  189.6550  173.0640  140.0670 O   0  0  0  0  0  0  0  0  0  0  0  0
  191.1540  170.3010  141.7290 O   0  0  0  0  0  1  0  0  0  0  0  0
  190.6410  172.0540  140.1180 C   0  0  1  0  0  0  0  0  0  0  0  0
  189.4940  171.9420  142.1960 C   0  0  1  0  0  3  0  0  0  0  0  0
  189.9550  174.5420  144.9500 C   0  0  0  0  0  0  0  0  0  0  0  0
  191.3500  174.4700  145.0620 C   0  0  0  0  0  3  0  0  0  0  0  0
  189.2490  175.3780  145.8290 C   0  0  0  0  0  3  0  0  0  0  0  0
  192.0370  175.2200  146.0230 C   0  0  0  0  0  0  0  0  0  0  0  0
  191.3160  176.0610  146.8940 C   0  0  0  0  0  0  0  0  0  0  0  0
  189.9240  176.1290  146.7930 C   0  0  0  0  0  3  0  0  0  0  0  0
  191.9960  176.8490  147.9640 C   0  0  0  0  0  2  0  0  0  0  0  0
  191.0420  177.7320  148.6090 N   0  0  0  0  0  1  0  0  0  0  0  0
  193.8210  175.0520  146.1260 S   0  0  0  0  0  0  0  0  0  0  0  0
  194.1180  176.1700  144.7570 C   0  0  0  0  0  0  0  0  0  0  0  0
  193.8240  177.3880  144.8880 O   0  0  0  0  0  0  0  0  0  0  0  0
  194.0020  175.7930  142.4230 O   0  0  0  0  0  0  0  0  0  0  0  0
  194.6680  175.6770  143.4850 C   0  0  0  0  0  0  0  0  0  0  0  0
  196.0490  175.0990  143.4430 C   0  0  0  0  0  2  0  0  0  0  0  0
  196.0380  173.7370  143.7650 O   0  0  0  0  0  0  0  0  0  0  0  0
  197.1750  173.5540  144.5520 C   0  0  0  0  0  2  0  0  0  0  0  0
  195.6810  171.7960  145.4940 C   0  0  0  0  0  1  0  0  0  0  0  0
  196.8320  172.7410  145.7890 C   0  0  0  0  0  2  0  0  0  0  0  0
  191.9520  172.6030  139.6230 C   0  0  0  0  0  0  0  0  0  0  0  0
  193.4280  174.1750  139.0000 N   0  0  0  0  0  2  0  0  0  0  0  0
  192.1250  173.8620  139.3940 N   0  0  0  0  0  0  0  0  0  0  0  0
  193.1110  171.7880  139.4690 N   0  0  0  0  0  2  0  0  0  0  0  0
  194.4830  172.7610  138.9280 S   0  0  0  0  0  0  0  0  0  0  0  0
  188.0790  175.3230  141.0860 N   0  0  0  0  0  2  0  0  0  0  0  0
  188.5270  177.2040  142.3980 O   0  0  0  0  0  0  0  0  0  0  0  0
  187.9450  176.7120  141.3930 C   0  0  0  0  0  0  0  0  0  0  0  0
  186.2500  176.8340  139.7650 F   0  0  0  0  0  0  0  0  0  0  0  0
  187.1210  177.6020  140.5180 C   0  0  1  0  0  3  0  0  0  0  0  0
  186.3940  178.5130  141.2920 O   0  0  0  0  0  0  0  0  0  0  0  0
  185.2450  177.8200  141.6840 C   0  0  0  0  0  2  0  0  0  0  0  0
  184.7800  178.3190  143.0410 C   0  0  0  0  0  2  0  0  0  0  0  0
  185.7790  179.2960  143.6350 C   0  0  0  0  0  3  0  0  0  0  0  0
  186.5970  178.6330  144.5300 F   0  0  0  0  0  0  0  0  0  0  0  0
  185.1130  180.3150  144.2890 F   0  0  0  0  0  0  0  0  0  0  0  0
  190.1870  170.8620  139.2450 C   0  0  0  0  0  2  0  0  0  0  0  0
  190.0990  171.1960  137.7880 C   0  0  0  0  0  0  0  0  0  0  0  0
  189.2970  172.6500  136.0230 C   0  0  0  0  0  3  0  0  0  0  0  0
  189.9640  171.8690  135.0740 C   0  0  0  0  0  3  0  0  0  0  0  0
  190.7030  170.7520  135.4810 C   0  0  0  0  0  3  0  0  0  0  0  0
  190.7710  170.4160  136.8370 C   0  0  0  0  0  3  0  0  0  0  0  0
  189.3670  172.3150  137.3790 C   0  0  0  0  0  3  0  0  0  0  0  0
  1  3  1  0  0  0  0
  1  5  2  0  0  0  0
  2  8  1  6  0  0  0
  2  4  1  0  0  0  0
  2 11  1  0  0  0  0
  3 12  1  0  0  0  0
  4 35  1  6  0  0  0
  4  7  1  0  0  0  0
  6  9  1  6  0  0  0
  6 11  1  0  0  0  0
  7  3  1  0  0  0  0
  8 10  1  0  0  0  0
 10 46  1  6  0  0  0
 10  6  1  0  0  0  0
 11  1  1  1  0  0  0
 12 13  2  0  0  0  0
 12 14  1  0  0  0  0
 13 15  1  0  0  0  0
 14 17  2  0  0  0  0
 15 20  1  0  0  0  0
 15 16  2  0  0  0  0
 16 18  1  0  0  0  0
 17 16  1  0  0  0  0
 18 19  1  0  0  0  0
 21 22  2  0  0  0  0
 21 20  1  0  0  0  0
 23 24  2  0  0  0  0
 24 21  1  0  0  0  0
 25 24  1  0  0  0  0
 25 26  1  0  0  0  0
 26 27  1  0  0  0  0
 27 29  1  0  0  0  0
 28 29  1  0  0  0  0
 30 10  1  0  0  0  0
 31 32  1  0  0  0  0
 32 30  2  0  0  0  0
 33 30  1  0  0  0  0
 34 31  1  0  0  0  0
 34 33  1  0  0  0  0
 35 37  1  0  0  0  0
 37 36  2  0  0  0  0
 39 38  1  1  0  0  0
 39 40  1  0  0  0  0
 39 37  1  0  0  0  0
 40 41  1  0  0  0  0
 41 42  1  0  0  0  0
 42 43  1  0  0  0  0
 43 45  1  0  0  0  0
 43 44  1  0  0  0  0
 47 46  1  0  0  0  0
 48 52  2  0  0  0  0
 49 50  2  0  0  0  0
 49 48  1  0  0  0  0
 50 51  1  0  0  0  0
 51 47  2  0  0  0  0
 52 47  1  0  0  0  0
M  END
>  <MODEL>
8

>  <REMARK>
 VINA RESULT:      -5.7      3.771      8.571
  Name = 
  18 active torsions:
  status: ('A' for Active; 'I' for Inactive)
    1  A    between atoms: N_1  and  C_21
    2  A    between atoms: C_2  and  C_33
    3  A    between atoms: C_4  and  C_44
    4  A    between atoms: S_5  and  C_12
    5  A    between atoms: S_5  and  C_36
    6  A    between atoms: C_6  and  C_37
    7  A    between atoms: C_7  and  N_19
    8  A    between atoms: O_8  and  C_11
    9  A    between atoms: O_8  and  C_38
   10  A    between atoms: C_11  and  C_28
   11  A    between atoms: C_12  and  C_35
   12  A    between atoms: C_13  and  C_45
   13  A    between atoms: C_24  and  C_33
   14  A    between atoms: C_24  and  O_40
   15  A    between atoms: C_35  and  C_38
   16  A    between atoms: C_37  and  C_45
   17  A    between atoms: O_40  and  C_51
   18  A    between atoms: C_47  and  C_51
                            x       y       z     vdW  Elec       q    Type
                         _______ _______ _______ _____ _____    ______ ____

>  <TORSDO>
F 18

$$$$
=
 OpenBabel11062421373D

 52 56  0  0  1  0  0  0  0  0999 V2000
  191.2680  170.9770  141.1630 C   0  0  0  0  0  0  0  0  0  0  0  0
  189.9870  173.0130  140.3310 C   0  0  1  0  0  3  0  0  0  0  0  0
  191.4500  171.7470  142.3670 N   0  0  0  0  0  0  0  0  0  0  0  0
  190.5980  173.6210  141.6050 C   0  0  2  0  0  3  0  0  0  0  0  0
  191.7590  169.8240  141.0450 O   0  0  0  0  0  0  0  0  0  0  0  0
  191.3780  171.8030  138.8420 C   0  0  1  0  0  3  0  0  0  0  0  0
  190.5080  172.6880  142.6460 O   0  0  0  0  0  0  0  0  0  0  0  0
  190.2530  173.8580  139.2330 O   0  0  0  0  0  0  0  0  0  0  0  0
  191.3180  170.7050  137.9790 O   0  0  0  0  0  1  0  0  0  0  0  0
  190.8430  173.0830  138.2100 C   0  0  1  0  0  0  0  0  0  0  0  0
  190.4960  171.5940  140.0280 C   0  0  1  0  0  3  0  0  0  0  0  0
  192.6320  171.6650  143.1900 C   0  0  0  0  0  0  0  0  0  0  0  0
  193.7020  172.5390  142.9530 C   0  0  0  0  0  3  0  0  0  0  0  0
  192.7480  170.7180  144.2190 C   0  0  0  0  0  3  0  0  0  0  0  0
  194.8660  172.4820  143.7280 C   0  0  0  0  0  0  0  0  0  0  0  0
  194.9660  171.5310  144.7630 C   0  0  0  0  0  0  0  0  0  0  0  0
  193.9050  170.6520  144.9980 C   0  0  0  0  0  3  0  0  0  0  0  0
  196.2010  171.4010  145.5920 C   0  0  0  0  0  2  0  0  0  0  0  0
  196.1790  170.1430  146.3160 N   0  0  0  0  0  1  0  0  0  0  0  0
  196.2060  173.6130  143.3450 S   0  0  0  0  0  0  0  0  0  0  0  0
  195.2640  175.0660  143.8130 C   0  0  0  0  0  0  0  0  0  0  0  0
  194.6870  175.7350  142.9160 O   0  0  0  0  0  0  0  0  0  0  0  0
  195.7040  174.7880  146.1230 O   0  0  0  0  0  0  0  0  0  0  0  0
  195.1870  175.4950  145.2180 C   0  0  0  0  0  0  0  0  0  0  0  0
  194.5530  176.8080  145.5630 C   0  0  0  0  0  2  0  0  0  0  0  0
  193.8710  176.7360  146.7820 O   0  0  0  0  0  0  0  0  0  0  0  0
  192.5550  176.4360  146.4290 C   0  0  0  0  0  2  0  0  0  0  0  0
  190.6310  175.2980  147.5300 C   0  0  0  0  0  1  0  0  0  0  0  0
  191.6760  176.3900  147.6680 C   0  0  0  0  0  2  0  0  0  0  0  0
  192.0080  173.8300  137.6180 C   0  0  0  0  0  0  0  0  0  0  0  0
  193.8390  175.1270  137.6110 N   0  0  0  0  0  2  0  0  0  0  0  0
  192.7840  174.5690  138.3370 N   0  0  0  0  0  0  0  0  0  0  0  0
  192.3860  173.6940  136.2500 N   0  0  0  0  0  2  0  0  0  0  0  0
  193.8230  174.6630  135.9080 S   0  0  0  0  0  0  0  0  0  0  0  0
  189.8820  174.8320  141.9780 N   0  0  0  0  0  2  0  0  0  0  0  0
  191.5790  175.6320  143.3720 O   0  0  0  0  0  0  0  0  0  0  0  0
  190.4350  175.8010  142.8720 C   0  0  0  0  0  0  0  0  0  0  0  0
  189.4620  177.7900  142.0730 F   0  0  0  0  0  0  0  0  0  0  0  0
  189.6640  177.0360  143.2160 C   0  0  1  0  0  3  0  0  0  0  0  0
  188.4290  176.7010  143.7810 O   0  0  0  0  0  0  0  0  0  0  0  0
  187.8470  177.9250  144.1280 C   0  0  0  0  0  2  0  0  0  0  0  0
  186.6300  177.6860  145.0050 C   0  0  0  0  0  2  0  0  0  0  0  0
  185.6270  178.8180  144.8650 C   0  0  0  0  0  3  0  0  0  0  0  0
  185.9410  179.5780  143.7550 F   0  0  0  0  0  0  0  0  0  0  0  0
  185.6550  179.6170  145.9930 F   0  0  0  0  0  0  0  0  0  0  0  0
  189.7810  172.7860  137.1270 C   0  0  0  0  0  2  0  0  0  0  0  0
  188.9550  173.9820  136.7670 C   0  0  0  0  0  0  0  0  0  0  0  0
  188.3770  175.7220  135.1810 C   0  0  0  0  0  3  0  0  0  0  0  0
  187.3850  176.1880  136.0510 C   0  0  0  0  0  3  0  0  0  0  0  0
  187.1750  175.5490  137.2790 C   0  0  0  0  0  3  0  0  0  0  0  0
  187.9580  174.4470  137.6360 C   0  0  0  0  0  3  0  0  0  0  0  0
  189.1580  174.6180  135.5380 C   0  0  0  0  0  3  0  0  0  0  0  0
  1  3  1  0  0  0  0
  2  8  1  6  0  0  0
  2  4  1  0  0  0  0
  3  7  1  0  0  0  0
  3 12  1  0  0  0  0
  4 35  1  1  0  0  0
  4  7  1  0  0  0  0
  5  1  2  0  0  0  0
  6  9  1  6  0  0  0
  6 11  1  0  0  0  0
 10 46  1  6  0  0  0
 10  6  1  0  0  0  0
 10  8  1  0  0  0  0
 11  2  1  0  0  0  0
 11  1  1  1  0  0  0
 12 14  1  0  0  0  0
 13 12  2  0  0  0  0
 13 15  1  0  0  0  0
 14 17  2  0  0  0  0
 15 16  2  0  0  0  0
 16 17  1  0  0  0  0
 16 18  1  0  0  0  0
 18 19  1  0  0  0  0
 20 15  1  0  0  0  0
 20 21  1  0  0  0  0
 21 24  1  0  0  0  0
 22 21  2  0  0  0  0
 24 25  1  0  0  0  0
 24 23  2  0  0  0  0
 25 26  1  0  0  0  0
 27 26  1  0  0  0  0
 27 29  1  0  0  0  0
 28 29  1  0  0  0  0
 30 10  1  0  0  0  0
 30 32  2  0  0  0  0
 31 32  1  0  0  0  0
 33 30  1  0  0  0  0
 34 33  1  0  0  0  0
 34 31  1  0  0  0  0
 35 37  1  0  0  0  0
 37 39  1  0  0  0  0
 37 36  2  0  0  0  0
 39 38  1  6  0  0  0
 39 40  1  0  0  0  0
 40 41  1  0  0  0  0
 41 42  1  0  0  0  0
 43 42  1  0  0  0  0
 43 45  1  0  0  0  0
 44 43  1  0  0  0  0
 47 46  1  0  0  0  0
 47 51  1  0  0  0  0
 48 52  1  0  0  0  0
 48 49  2  0  0  0  0
 49 50  1  0  0  0  0
 50 51  2  0  0  0  0
 52 47  2  0  0  0  0
M  END
>  <MODEL>
9

>  <REMARK>
 VINA RESULT:      -5.5      3.981      9.279
  Name = 
  18 active torsions:
  status: ('A' for Active; 'I' for Inactive)
    1  A    between atoms: N_1  and  C_21
    2  A    between atoms: C_2  and  C_33
    3  A    between atoms: C_4  and  C_44
    4  A    between atoms: S_5  and  C_12
    5  A    between atoms: S_5  and  C_36
    6  A    between atoms: C_6  and  C_37
    7  A    between atoms: C_7  and  N_19
    8  A    between atoms: O_8  and  C_11
    9  A    between atoms: O_8  and  C_38
   10  A    between atoms: C_11  and  C_28
   11  A    between atoms: C_12  and  C_35
   12  A    between atoms: C_13  and  C_45
   13  A    between atoms: C_24  and  C_33
   14  A    between atoms: C_24  and  O_40
   15  A    between atoms: C_35  and  C_38
   16  A    between atoms: C_37  and  C_45
   17  A    between atoms: O_40  and  C_51
   18  A    between atoms: C_47  and  C_51
                            x       y       z     vdW  Elec       q    Type
                         _______ _______ _______ _____ _____    ______ ____

>  <TORSDO>
F 18

$$$$
