=
 OpenBabel11062422303D

 43 51  0  0  1  0  0  0  0  0999 V2000
  189.7460  171.7630  142.0330 C   0  0  0  0  0  2  0  0  0  0  0  0
  193.0040  176.0970  142.7880 C   0  0  0  0  0  1  0  0  0  0  0  0
  191.4490  173.0630  143.4320 N   0  0  1  0  0  0  0  0  0  0  0  0
  190.4500  174.1530  143.5160 C   0  0  1  0  0  3  0  0  0  0  0  0
  190.8830  175.2380  144.5140 C   0  0  2  0  0  3  0  0  0  0  0  0
  189.1690  172.7760  141.0950 C   0  0  0  0  0  0  0  0  0  0  0  0
  190.1090  174.8010  142.1750 C   0  0  0  0  0  2  0  0  0  0  0  0
  193.1100  174.9440  143.8010 C   0  0  1  0  0  0  0  0  0  0  0  0
  188.4030  173.0350  137.4610 N   0  0  0  0  0  1  0  0  0  0  0  0
  188.1500  174.6060  139.1920 N   0  0  0  0  0  0  0  0  0  0  0  0
  192.1150  172.3560  141.1890 C   0  0  0  0  0  2  0  0  0  0  0  0
  187.6100  176.4950  140.9670 S   0  0  0  0  0  0  0  0  0  0  0  0
  193.0800  173.4210  141.6630 C   0  0  0  0  0  2  0  0  0  0  0  0
  188.8510  174.1600  141.6070 C   0  0  1  0  0  3  0  0  0  0  0  0
  188.2420  175.0460  140.5510 C   0  0  0  0  0  0  0  0  0  0  0  0
  192.2470  175.1640  144.9050 O   0  0  0  0  0  0  0  0  0  0  0  0
  191.2150  172.0570  142.3830 C   0  0  2  0  0  3  0  0  0  0  0  0
  189.0290  172.4500  139.8070 C   0  0  0  0  0  3  0  0  0  0  0  0
  192.7920  173.5730  143.1490 C   0  0  2  0  0  3  0  0  0  0  0  0
  188.5150  173.4160  138.8260 C   0  0  0  0  0  0  0  0  0  0  0  0
  190.0190  175.1770  145.7340 C   0  0  0  0  0  0  0  0  0  0  0  0
  186.5130  176.9390  146.9420 N   0  0  0  0  0  0  0  0  0  0  0  0
  188.3330  175.4780  147.1650 C   0  0  0  0  0  0  0  0  0  0  0  0
  187.0020  177.4610  145.6490 C   0  0  2  0  0  0  0  0  0  0  0  0
  188.9410  175.9100  145.9500 C   0  0  0  0  0  0  0  0  0  0  0  0
  188.3240  176.9430  145.0630 C   0  0  2  0  0  3  0  0  0  0  0  0
  187.1120  176.0400  147.6270 N   0  0  0  0  0  0  0  0  0  0  0  0
  190.2000  174.1980  146.8550 C   0  0  0  0  0  2  0  0  0  0  0  0
  189.0090  174.4940  147.7290 C   0  0  0  0  0  3  0  0  0  0  0  0
  188.2620  178.2940  145.7740 C   0  0  0  0  0  2  0  0  0  0  0  0
  184.1160  179.0320  142.8810 C   0  0  0  0  0  3  0  0  0  0  0  0
  184.5350  177.7030  142.7730 C   0  0  0  0  0  3  0  0  0  0  0  0
  185.5710  179.3350  144.7920 C   0  0  0  0  0  3  0  0  0  0  0  0
  185.9840  177.9990  144.6970 C   0  0  0  0  0  0  0  0  0  0  0  0
  185.4690  177.1880  143.6770 C   0  0  0  0  0  3  0  0  0  0  0  0
  184.6370  179.8490  143.8900 C   0  0  0  0  0  3  0  0  0  0  0  0
  197.2820  174.2300  144.8800 C   0  0  0  0  0  3  0  0  0  0  0  0
  195.5790  175.2360  143.2290 C   0  0  0  0  0  2  0  0  0  0  0  0
  196.9800  175.1280  143.7540 C   0  0  0  0  0  0  0  0  0  0  0  0
  194.9080  173.5230  144.9330 C   0  0  0  0  0  2  0  0  0  0  0  0
  194.5580  174.8930  144.3280 C   0  0  2  0  0  3  0  0  0  0  0  0
  196.3190  173.5060  145.4540 C   0  0  0  0  0  3  0  0  0  0  0  0
  197.9410  175.7380  143.1470 N   0  0  0  0  0  2  0  0  0  0  0  0
  1 17  1  0  0  0  0
  2  8  1  0  0  0  0
  3  4  1  0  0  0  0
  4  5  1  0  0  0  0
  5 16  1  0  0  0  0
  5 21  1  0  0  0  0
  6 14  1  0  0  0  0
  6  1  1  0  0  0  0
  7  4  1  0  0  0  0
  8 41  1  0  0  0  0
  8 16  1  0  0  0  0
  9 20  1  0  0  0  0
 10 15  1  0  0  0  0
 11 13  1  0  0  0  0
 11 17  1  0  0  0  0
 13 19  1  0  0  0  0
 14  7  1  0  0  0  0
 15 12  2  0  0  0  0
 15 14  1  0  0  0  0
 17  3  1  0  0  0  0
 18  6  2  0  0  0  0
 19  3  1  0  0  0  0
 19  8  1  0  0  0  0
 20 10  2  0  0  0  0
 20 18  1  0  0  0  0
 21 25  2  0  0  0  0
 21 28  1  0  0  0  0
 22 27  2  0  0  0  0
 23 27  1  0  0  0  0
 23 29  2  0  0  0  0
 24 30  1  0  0  0  0
 24 22  1  0  0  0  0
 25 23  1  0  0  0  0
 26 24  1  0  0  0  0
 26 30  1  0  0  0  0
 26 25  1  0  0  0  0
 28 29  1  0  0  0  0
 31 36  1  0  0  0  0
 32 31  2  0  0  0  0
 32 35  1  0  0  0  0
 34 33  1  0  0  0  0
 34 24  1  0  0  0  0
 35 34  2  0  0  0  0
 36 33  2  0  0  0  0
 37 42  2  0  0  0  0
 38 39  1  0  0  0  0
 38 41  1  0  0  0  0
 39 37  1  0  0  0  0
 40 42  1  0  0  0  0
 41 40  1  0  0  0  0
 43 39  2  0  0  0  0
M  END
>  <MODEL>
1

>  <REMARK>
 VINA RESULT:      -9.0      0.000      0.000
  Name = 
  3 active torsions:
  status: ('A' for Active; 'I' for Inactive)
    1  A    between atoms: C_2  and  C_11
    2  A    between atoms: C_7  and  C_24
    3  A    between atoms: C_15  and  C_36
                            x       y       z     vdW  Elec       q    Type
                         _______ _______ _______ _____ _____    ______ ____

>  <TORSDO>
F 3

$$$$
=
 OpenBabel11062422303D

 43 51  0  0  1  0  0  0  0  0999 V2000
  189.1380  174.9650  146.8660 C   0  0  0  0  0  2  0  0  0  0  0  0
  189.4690  178.3070  142.5430 C   0  0  0  0  0  1  0  0  0  0  0  0
  188.4730  175.6050  144.4790 N   0  0  1  0  0  0  0  0  0  0  0  0
  189.8980  175.4440  144.1090 C   0  0  1  0  0  3  0  0  0  0  0  0
  190.0960  175.5100  142.5870 C   0  0  2  0  0  3  0  0  0  0  0  0
  190.4120  175.7070  147.1200 C   0  0  0  0  0  0  0  0  0  0  0  0
  190.8430  176.4350  144.7890 C   0  0  0  0  0  2  0  0  0  0  0  0
  188.4300  177.1740  142.4860 C   0  0  1  0  0  0  0  0  0  0  0  0
  191.8720  177.8180  149.8170 N   0  0  0  0  0  1  0  0  0  0  0  0
  192.7390  177.2020  147.7200 N   0  0  0  0  0  0  0  0  0  0  0  0
  187.9770  177.1960  146.2680 C   0  0  0  0  0  2  0  0  0  0  0  0
  194.0150  176.5280  145.4990 S   0  0  0  0  0  0  0  0  0  0  0  0
  187.8820  177.9190  144.9430 C   0  0  0  0  0  2  0  0  0  0  0  0
  191.4490  175.7910  146.0260 C   0  0  1  0  0  3  0  0  0  0  0  0
  192.6870  176.5360  146.4530 C   0  0  0  0  0  0  0  0  0  0  0  0
  188.9780  176.0190  141.8720 O   0  0  0  0  0  0  0  0  0  0  0  0
  188.1940  175.7270  145.9190 C   0  0  2  0  0  3  0  0  0  0  0  0
  190.5590  176.3470  148.2830 C   0  0  0  0  0  3  0  0  0  0  0  0
  187.8900  176.8160  143.8960 C   0  0  2  0  0  3  0  0  0  0  0  0
  191.7660  177.1350  148.5750 C   0  0  0  0  0  0  0  0  0  0  0  0
  190.4370  174.1520  142.0610 C   0  0  0  0  0  0  0  0  0  0  0  0
  193.7720  171.7580  142.0510 N   0  0  0  0  0  0  0  0  0  0  0  0
  191.5240  172.2550  141.6110 C   0  0  0  0  0  0  0  0  0  0  0  0
  194.0280  173.0960  142.6240 C   0  0  2  0  0  0  0  0  0  0  0  0
  191.6320  173.5890  142.1030 C   0  0  2  0  0  3  0  0  0  0  0  0
  192.9000  174.1380  142.6710 C   0  0  2  0  0  3  0  0  0  0  0  0
  192.6400  171.3750  141.5960 N   0  0  0  0  0  0  0  0  0  0  0  0
  189.4410  173.1860  141.4940 C   0  0  0  0  0  3  0  0  0  0  0  0
  190.2870  171.9650  141.2490 C   0  0  0  0  0  3  0  0  0  0  0  0
  193.9840  174.2090  141.5960 C   0  0  0  0  0  2  0  0  0  0  0  0
  197.1580  173.4800  145.5420 C   0  0  0  0  0  3  0  0  0  0  0  0
  196.1040  172.5890  145.7630 C   0  0  0  0  0  3  0  0  0  0  0  0
  196.1760  174.1160  143.4220 C   0  0  0  0  0  3  0  0  0  0  0  0
  195.1250  173.2140  143.6320 C   0  0  0  0  0  0  0  0  0  0  0  0
  195.0880  172.4580  144.8110 C   0  0  0  0  0  3  0  0  0  0  0  0
  197.1920  174.2460  144.3720 C   0  0  0  0  0  3  0  0  0  0  0  0
  184.8790  177.8400  140.0300 C   0  0  0  0  0  3  0  0  0  0  0  0
  185.8990  177.4730  142.3680 C   0  0  0  0  0  2  0  0  0  0  0  0
  184.7530  177.8940  141.4960 C   0  0  0  0  0  0  0  0  0  0  0  0
  187.1690  176.9270  140.2760 C   0  0  0  0  0  2  0  0  0  0  0  0
  187.2390  177.6500  141.6310 C   0  0  2  0  0  3  0  0  0  0  0  0
  186.0090  177.4220  139.4560 C   0  0  0  0  0  3  0  0  0  0  0  0
  183.6200  178.2000  142.0300 N   0  0  0  0  0  2  0  0  0  0  0  0
  1  6  1  0  0  0  0
  3 17  1  0  0  0  0
  4  3  1  0  0  0  0
  4  7  1  0  0  0  0
  5  4  1  0  0  0  0
  6 18  2  0  0  0  0
  7 14  1  0  0  0  0
  8  2  1  0  0  0  0
  8 19  1  0  0  0  0
 10 20  2  0  0  0  0
 12 15  2  0  0  0  0
 13 11  1  0  0  0  0
 14 15  1  0  0  0  0
 14  6  1  0  0  0  0
 15 10  1  0  0  0  0
 16  8  1  0  0  0  0
 16  5  1  0  0  0  0
 17 11  1  0  0  0  0
 17  1  1  0  0  0  0
 18 20  1  0  0  0  0
 19  3  1  0  0  0  0
 19 13  1  0  0  0  0
 20  9  1  0  0  0  0
 21 25  1  0  0  0  0
 21  5  1  0  0  0  0
 22 24  1  0  0  0  0
 23 25  1  0  0  0  0
 24 26  1  0  0  0  0
 24 34  1  0  0  0  0
 25 26  1  0  0  0  0
 27 23  1  0  0  0  0
 27 22  2  0  0  0  0
 28 21  2  0  0  0  0
 29 28  1  0  0  0  0
 29 23  2  0  0  0  0
 30 24  1  0  0  0  0
 30 26  1  0  0  0  0
 31 32  1  0  0  0  0
 33 34  2  0  0  0  0
 33 36  1  0  0  0  0
 34 35  1  0  0  0  0
 35 32  2  0  0  0  0
 36 31  2  0  0  0  0
 37 39  1  0  0  0  0
 39 43  2  0  0  0  0
 39 38  1  0  0  0  0
 40 41  1  0  0  0  0
 41 38  1  0  0  0  0
 41  8  1  0  0  0  0
 42 37  2  0  0  0  0
 42 40  1  0  0  0  0
M  END
>  <MODEL>
2

>  <REMARK>
 VINA RESULT:      -8.9      2.719      8.995
  Name = 
  3 active torsions:
  status: ('A' for Active; 'I' for Inactive)
    1  A    between atoms: C_2  and  C_11
    2  A    between atoms: C_7  and  C_24
    3  A    between atoms: C_15  and  C_36
                            x       y       z     vdW  Elec       q    Type
                         _______ _______ _______ _____ _____    ______ ____

>  <TORSDO>
F 3

$$$$
=
 OpenBabel11062422303D

 43 51  0  0  1  0  0  0  0  0999 V2000
  190.8740  174.1700  145.5590 C   0  0  0  0  0  2  0  0  0  0  0  0
  188.5580  177.8620  142.2460 C   0  0  0  0  0  1  0  0  0  0  0  0
  188.9610  174.9130  144.0310 N   0  0  1  0  0  0  0  0  0  0  0  0
  189.9470  174.9570  142.9270 C   0  0  1  0  0  3  0  0  0  0  0  0
  189.2630  175.1670  141.5670 C   0  0  2  0  0  3  0  0  0  0  0  0
  192.0300  175.0390  145.1750 C   0  0  0  0  0  0  0  0  0  0  0  0
  191.0520  175.9970  143.1070 C   0  0  0  0  0  2  0  0  0  0  0  0
  187.7290  176.6190  142.6140 C   0  0  1  0  0  0  0  0  0  0  0  0
  194.6180  177.0900  146.8950 N   0  0  0  0  0  1  0  0  0  0  0  0
  194.2090  176.7530  144.6040 N   0  0  0  0  0  0  0  0  0  0  0  0
  189.4520  176.2840  145.9950 C   0  0  0  0  0  2  0  0  0  0  0  0
  194.0730  176.4180  141.9810 S   0  0  0  0  0  0  0  0  0  0  0  0
  188.5960  177.0930  145.0460 C   0  0  0  0  0  2  0  0  0  0  0  0
  192.2790  175.3350  143.7160 C   0  0  1  0  0  3  0  0  0  0  0  0
  193.5010  176.1890  143.4950 C   0  0  0  0  0  0  0  0  0  0  0  0
  187.9100  175.5920  141.6530 O   0  0  0  0  0  0  0  0  0  0  0  0
  189.5220  174.8850  145.3920 C   0  0  2  0  0  3  0  0  0  0  0  0
  192.7610  175.5970  146.1440 C   0  0  0  0  0  3  0  0  0  0  0  0
  188.0850  176.0870  144.0280 C   0  0  2  0  0  3  0  0  0  0  0  0
  193.8800  176.5000  145.8330 C   0  0  0  0  0  0  0  0  0  0  0  0
  189.3320  173.9070  140.7650 C   0  0  0  0  0  0  0  0  0  0  0  0
  191.6320  170.5070  140.8270 N   0  0  0  0  0  0  0  0  0  0  0  0
  189.8900  171.8680  140.0480 C   0  0  0  0  0  0  0  0  0  0  0  0
  192.0810  171.5210  141.8040 C   0  0  2  0  0  0  0  0  0  0  0  0
  190.2300  172.9480  140.9150 C   0  0  2  0  0  3  0  0  0  0  0  0
  191.3580  172.8740  141.8910 C   0  0  2  0  0  3  0  0  0  0  0  0
  190.6410  170.6610  140.0350 N   0  0  0  0  0  0  0  0  0  0  0  0
  188.3250  173.5020  139.7310 C   0  0  0  0  0  3  0  0  0  0  0  0
  188.8020  172.1260  139.3450 C   0  0  0  0  0  3  0  0  0  0  0  0
  192.6940  172.7480  141.1590 C   0  0  0  0  0  2  0  0  0  0  0  0
  194.1550  170.0940  145.2850 C   0  0  0  0  0  3  0  0  0  0  0  0
  194.3040  171.4240  144.8810 C   0  0  0  0  0  3  0  0  0  0  0  0
  192.6540  169.6970  143.4280 C   0  0  0  0  0  3  0  0  0  0  0  0
  192.7890  171.0330  143.0260 C   0  0  0  0  0  0  0  0  0  0  0  0
  193.6240  171.8920  143.7520 C   0  0  0  0  0  3  0  0  0  0  0  0
  193.3320  169.2300  144.5570 C   0  0  0  0  0  3  0  0  0  0  0  0
  183.7420  178.4050  142.6390 C   0  0  0  0  0  3  0  0  0  0  0  0
  185.8210  177.6840  141.2970 C   0  0  0  0  0  2  0  0  0  0  0  0
  184.3820  178.1050  141.3480 C   0  0  0  0  0  0  0  0  0  0  0  0
  185.8880  177.9460  143.7900 C   0  0  0  0  0  2  0  0  0  0  0  0
  186.2390  177.0140  142.6180 C   0  0  2  0  0  3  0  0  0  0  0  0
  184.4270  178.3020  143.7800 C   0  0  0  0  0  3  0  0  0  0  0  0
  183.7350  178.3110  140.2510 N   0  0  0  0  0  2  0  0  0  0  0  0
  2  8  1  0  0  0  0
  3 17  1  0  0  0  0
  4  7  1  0  0  0  0
  4  3  1  0  0  0  0
  5 16  1  0  0  0  0
  5  4  1  0  0  0  0
  6  1  1  0  0  0  0
  6 18  2  0  0  0  0
  7 14  1  0  0  0  0
  8 41  1  0  0  0  0
  8 19  1  0  0  0  0
 10 20  2  0  0  0  0
 12 15  2  0  0  0  0
 13 11  1  0  0  0  0
 14  6  1  0  0  0  0
 15 14  1  0  0  0  0
 15 10  1  0  0  0  0
 16  8  1  0  0  0  0
 17  1  1  0  0  0  0
 17 11  1  0  0  0  0
 19  3  1  0  0  0  0
 19 13  1  0  0  0  0
 20 18  1  0  0  0  0
 20  9  1  0  0  0  0
 21 25  1  0  0  0  0
 21  5  1  0  0  0  0
 22 24  1  0  0  0  0
 23 25  1  0  0  0  0
 24 26  1  0  0  0  0
 24 34  1  0  0  0  0
 25 26  1  0  0  0  0
 27 23  1  0  0  0  0
 27 22  2  0  0  0  0
 28 21  2  0  0  0  0
 29 28  1  0  0  0  0
 29 23  2  0  0  0  0
 30 24  1  0  0  0  0
 30 26  1  0  0  0  0
 32 31  1  0  0  0  0
 33 36  1  0  0  0  0
 34 33  2  0  0  0  0
 34 35  1  0  0  0  0
 35 32  2  0  0  0  0
 36 31  2  0  0  0  0
 37 42  2  0  0  0  0
 38 39  1  0  0  0  0
 38 41  1  0  0  0  0
 39 37  1  0  0  0  0
 41 40  1  0  0  0  0
 42 40  1  0  0  0  0
 43 39  2  0  0  0  0
M  END
>  <MODEL>
3

>  <REMARK>
 VINA RESULT:      -8.7      2.637      8.774
  Name = 
  3 active torsions:
  status: ('A' for Active; 'I' for Inactive)
    1  A    between atoms: C_2  and  C_11
    2  A    between atoms: C_7  and  C_24
    3  A    between atoms: C_15  and  C_36
                            x       y       z     vdW  Elec       q    Type
                         _______ _______ _______ _____ _____    ______ ____

>  <TORSDO>
F 3

$$$$
=
 OpenBabel11062422303D

 43 51  0  0  1  0  0  0  0  0999 V2000
  192.8390  172.9390  145.0170 C   0  0  0  0  0  2  0  0  0  0  0  0
  190.8730  177.7710  143.3570 C   0  0  0  0  0  1  0  0  0  0  0  0
  190.8740  174.4930  144.4950 N   0  0  1  0  0  0  0  0  0  0  0  0
  191.3560  174.5250  143.0950 C   0  0  1  0  0  3  0  0  0  0  0  0
  190.3460  175.2160  142.1670 C   0  0  2  0  0  3  0  0  0  0  0  0
  194.0020  173.5340  144.2870 C   0  0  0  0  0  0  0  0  0  0  0  0
  192.7330  175.1660  142.9170 C   0  0  0  0  0  2  0  0  0  0  0  0
  189.8650  176.7420  143.8980 C   0  0  1  0  0  0  0  0  0  0  0  0
  197.5580  174.3740  145.0020 N   0  0  0  0  0  1  0  0  0  0  0  0
  196.2730  174.6930  143.0580 N   0  0  0  0  0  0  0  0  0  0  0  0
  192.4600  175.1950  146.2190 C   0  0  0  0  0  2  0  0  0  0  0  0
  195.1090  175.0180  140.7020 S   0  0  0  0  0  0  0  0  0  0  0  0
  191.6450  176.3980  145.7970 C   0  0  0  0  0  2  0  0  0  0  0  0
  193.7980  174.0800  142.8940 C   0  0  1  0  0  3  0  0  0  0  0  0
  195.0720  174.6070  142.2840 C   0  0  0  0  0  0  0  0  0  0  0  0
  189.3370  175.9530  142.8440 O   0  0  0  0  0  0  0  0  0  0  0  0
  191.8380  174.0050  145.4950 C   0  0  2  0  0  3  0  0  0  0  0  0
  195.1710  173.6410  144.9240 C   0  0  0  0  0  3  0  0  0  0  0  0
  190.5010  175.8250  144.9760 C   0  0  2  0  0  3  0  0  0  0  0  0
  196.3380  174.2610  144.2800 C   0  0  0  0  0  0  0  0  0  0  0  0
  189.6990  174.2020  141.2780 C   0  0  0  0  0  0  0  0  0  0  0  0
  190.9800  171.6000  138.3720 N   0  0  0  0  0  0  0  0  0  0  0  0
  189.3840  172.5680  139.7900 C   0  0  0  0  0  0  0  0  0  0  0  0
  192.0550  172.4870  138.8620 C   0  0  2  0  0  0  0  0  0  0  0  0
  190.3080  173.5100  140.3310 C   0  0  0  0  0  0  0  0  0  0  0  0
  191.7450  173.5530  139.9250 C   0  0  2  0  0  3  0  0  0  0  0  0
  189.7730  171.6330  138.7930 N   0  0  0  0  0  0  0  0  0  0  0  0
  188.2740  173.7500  141.4000 C   0  0  0  0  0  2  0  0  0  0  0  0
  188.2000  172.6560  140.3680 C   0  0  0  0  0  3  0  0  0  0  0  0
  191.8750  173.9350  138.4510 C   0  0  0  0  0  2  0  0  0  0  0  0
  196.0700  170.9830  138.5880 C   0  0  0  0  0  3  0  0  0  0  0  0
  195.6540  172.0180  137.7460 C   0  0  0  0  0  3  0  0  0  0  0  0
  193.8760  170.9320  139.6100 C   0  0  0  0  0  3  0  0  0  0  0  0
  193.4570  171.9790  138.7780 C   0  0  0  0  0  0  0  0  0  0  0  0
  194.3500  172.5130  137.8380 C   0  0  0  0  0  3  0  0  0  0  0  0
  195.1800  170.4380  139.5190 C   0  0  0  0  0  3  0  0  0  0  0  0
  186.1440  178.4220  145.4520 C   0  0  0  0  0  3  0  0  0  0  0  0
  188.0310  176.6800  145.6700 C   0  0  0  0  0  2  0  0  0  0  0  0
  186.8670  177.4240  146.2560 C   0  0  0  0  0  0  0  0  0  0  0  0
  187.6300  177.9290  143.5320 C   0  0  0  0  0  2  0  0  0  0  0  0
  188.6980  177.5060  144.5550 C   0  0  2  0  0  3  0  0  0  0  0  0
  186.5130  178.6850  144.1970 C   0  0  0  0  0  3  0  0  0  0  0  0
  186.4310  177.1090  147.4290 N   0  0  0  0  0  2  0  0  0  0  0  0
  1 17  1  0  0  0  0
  2  8  1  0  0  0  0
  3 19  1  0  0  0  0
  3 17  1  0  0  0  0
  4  3  1  0  0  0  0
  5 16  1  0  0  0  0
  5  4  1  0  0  0  0
  6 18  2  0  0  0  0
  6  1  1  0  0  0  0
  7  4  1  0  0  0  0
  8 41  1  0  0  0  0
  8 19  1  0  0  0  0
 10 20  2  0  0  0  0
 12 15  2  0  0  0  0
 13 11  1  0  0  0  0
 14  7  1  0  0  0  0
 14  6  1  0  0  0  0
 15 14  1  0  0  0  0
 15 10  1  0  0  0  0
 16  8  1  0  0  0  0
 17 11  1  0  0  0  0
 19 13  1  0  0  0  0
 20 18  1  0  0  0  0
 20  9  1  0  0  0  0
 21 28  1  0  0  0  0
 21  5  1  0  0  0  0
 22 27  2  0  0  0  0
 22 24  1  0  0  0  0
 23 25  1  0  0  0  0
 23 29  2  0  0  0  0
 24 26  1  0  0  0  0
 25 21  2  0  0  0  0
 26 25  1  0  0  0  0
 27 23  1  0  0  0  0
 29 28  1  0  0  0  0
 30 24  1  0  0  0  0
 30 26  1  0  0  0  0
 31 36  1  0  0  0  0
 32 35  1  0  0  0  0
 32 31  2  0  0  0  0
 34 24  1  0  0  0  0
 34 33  1  0  0  0  0
 35 34  2  0  0  0  0
 36 33  2  0  0  0  0
 37 39  1  0  0  0  0
 38 39  1  0  0  0  0
 39 43  2  0  0  0  0
 40 42  1  0  0  0  0
 40 41  1  0  0  0  0
 41 38  1  0  0  0  0
 42 37  2  0  0  0  0
M  END
>  <MODEL>
4

>  <REMARK>
 VINA RESULT:      -8.7      2.472      8.563
  Name = 
  3 active torsions:
  status: ('A' for Active; 'I' for Inactive)
    1  A    between atoms: C_2  and  C_11
    2  A    between atoms: C_7  and  C_24
    3  A    between atoms: C_15  and  C_36
                            x       y       z     vdW  Elec       q    Type
                         _______ _______ _______ _____ _____    ______ ____

>  <TORSDO>
F 3

$$$$
=
 OpenBabel11062422303D

 43 51  0  0  1  0  0  0  0  0999 V2000
  188.3590  176.6200  142.7860 C   0  0  0  0  0  2  0  0  0  0  0  0
  193.3360  176.2640  145.0390 C   0  0  0  0  0  1  0  0  0  0  0  0
  190.8440  176.0260  142.6360 N   0  0  1  0  0  0  0  0  0  0  0  0
  190.6000  175.0210  143.6960 C   0  0  1  0  0  3  0  0  0  0  0  0
  191.8220  174.1120  143.9020 C   0  0  2  0  0  3  0  0  0  0  0  0
  188.0600  176.6450  144.2520 C   0  0  0  0  0  0  0  0  0  0  0  0
  190.1720  175.6110  145.0390 C   0  0  0  0  0  2  0  0  0  0  0  0
  193.2170  175.9750  143.5320 C   0  0  1  0  0  0  0  0  0  0  0  0
  186.3010  178.8740  146.6610 N   0  0  0  0  0  1  0  0  0  0  0  0
  187.4650  176.8600  147.0110 N   0  0  0  0  0  0  0  0  0  0  0  0
  190.2520  178.3390  143.1610 C   0  0  0  0  0  2  0  0  0  0  0  0
  188.5670  174.5410  147.6570 S   0  0  0  0  0  0  0  0  0  0  0  0
  191.7070  178.1240  143.5150 C   0  0  0  0  0  2  0  0  0  0  0  0
  188.6550  175.5840  145.1450 C   0  0  1  0  0  3  0  0  0  0  0  0
  188.2260  175.7250  146.5830 C   0  0  0  0  0  0  0  0  0  0  0  0
  193.0160  174.5900  143.3000 O   0  0  0  0  0  0  0  0  0  0  0  0
  189.8020  177.0540  142.4740 C   0  0  2  0  0  3  0  0  0  0  0  0
  187.3400  177.6580  144.7420 C   0  0  0  0  0  3  0  0  0  0  0  0
  192.0690  176.7910  142.8790 C   0  0  2  0  0  3  0  0  0  0  0  0
  187.0530  177.7670  146.1790 C   0  0  0  0  0  0  0  0  0  0  0  0
  191.5250  172.7410  143.3820 C   0  0  0  0  0  0  0  0  0  0  0  0
  193.2510  169.0320  143.7270 N   0  0  0  0  0  0  0  0  0  0  0  0
  191.6040  170.5400  143.0160 C   0  0  0  0  0  0  0  0  0  0  0  0
  194.0480  170.0970  144.3710 C   0  0  2  0  0  0  0  0  0  0  0  0
  192.2810  171.6710  143.5600 C   0  0  2  0  0  3  0  0  0  0  0  0
  193.5720  171.5560  144.3040 C   0  0  2  0  0  3  0  0  0  0  0  0
  192.1450  169.2300  143.1180 N   0  0  0  0  0  0  0  0  0  0  0  0
  190.2680  172.3600  142.6600 C   0  0  0  0  0  3  0  0  0  0  0  0
  190.4400  170.8730  142.4880 C   0  0  0  0  0  3  0  0  0  0  0  0
  194.6810  171.0550  143.3810 C   0  0  0  0  0  2  0  0  0  0  0  0
  196.5740  168.9170  147.6390 C   0  0  0  0  0  3  0  0  0  0  0  0
  197.0970  169.6860  146.5950 C   0  0  0  0  0  3  0  0  0  0  0  0
  194.4080  168.9220  146.5570 C   0  0  0  0  0  3  0  0  0  0  0  0
  194.9240  169.7040  145.5150 C   0  0  0  0  0  0  0  0  0  0  0  0
  196.2750  170.0760  145.5340 C   0  0  0  0  0  3  0  0  0  0  0  0
  195.2300  168.5330  147.6180 C   0  0  0  0  0  3  0  0  0  0  0  0
  197.2060  176.5280  141.8410 C   0  0  0  0  0  3  0  0  0  0  0  0
  194.8480  175.5100  141.6270 C   0  0  0  0  0  2  0  0  0  0  0  0
  196.1630  175.8990  141.0170 C   0  0  0  0  0  0  0  0  0  0  0  0
  195.7300  176.3440  143.8220 C   0  0  0  0  0  2  0  0  0  0  0  0
  194.5370  176.3890  142.8520 C   0  0  2  0  0  3  0  0  0  0  0  0
  197.0000  176.7660  143.1390 C   0  0  0  0  0  3  0  0  0  0  0  0
  196.4190  175.5820  139.7930 N   0  0  0  0  0  2  0  0  0  0  0  0
  1  6  1  0  0  0  0
  3 19  1  0  0  0  0
  3  4  1  0  0  0  0
  4  5  1  0  0  0  0
  4  7  1  0  0  0  0
  6 18  2  0  0  0  0
  6 14  1  0  0  0  0
  7 14  1  0  0  0  0
  8  2  1  0  0  0  0
 11 13  1  0  0  0  0
 14 15  1  0  0  0  0
 15 10  1  0  0  0  0
 15 12  2  0  0  0  0
 16  8  1  0  0  0  0
 16  5  1  0  0  0  0
 17  3  1  0  0  0  0
 17  1  1  0  0  0  0
 17 11  1  0  0  0  0
 18 20  1  0  0  0  0
 19 13  1  0  0  0  0
 19  8  1  0  0  0  0
 20  9  1  0  0  0  0
 20 10  2  0  0  0  0
 21 25  1  0  0  0  0
 21  5  1  0  0  0  0
 22 24  1  0  0  0  0
 23 27  1  0  0  0  0
 23 25  1  0  0  0  0
 24 34  1  0  0  0  0
 25 26  1  0  0  0  0
 26 24  1  0  0  0  0
 27 22  2  0  0  0  0
 28 21  2  0  0  0  0
 29 28  1  0  0  0  0
 29 23  2  0  0  0  0
 30 26  1  0  0  0  0
 30 24  1  0  0  0  0
 32 31  2  0  0  0  0
 33 36  2  0  0  0  0
 34 35  2  0  0  0  0
 34 33  1  0  0  0  0
 35 32  1  0  0  0  0
 36 31  1  0  0  0  0
 37 42  2  0  0  0  0
 38 41  1  0  0  0  0
 39 38  1  0  0  0  0
 39 37  1  0  0  0  0
 41  8  1  0  0  0  0
 41 40  1  0  0  0  0
 42 40  1  0  0  0  0
 43 39  2  0  0  0  0
M  END
>  <MODEL>
5

>  <REMARK>
 VINA RESULT:      -8.5      2.797      7.778
  Name = 
  3 active torsions:
  status: ('A' for Active; 'I' for Inactive)
    1  A    between atoms: C_2  and  C_11
    2  A    between atoms: C_7  and  C_24
    3  A    between atoms: C_15  and  C_36
                            x       y       z     vdW  Elec       q    Type
                         _______ _______ _______ _____ _____    ______ ____

>  <TORSDO>
F 3

$$$$
=
 OpenBabel11062422303D

 43 51  0  0  1  0  0  0  0  0999 V2000
  194.4210  174.2830  145.0090 C   0  0  0  0  0  2  0  0  0  0  0  0
  190.1490  176.9800  142.9010 C   0  0  0  0  0  1  0  0  0  0  0  0
  191.8990  174.5750  144.6880 N   0  0  1  0  0  0  0  0  0  0  0  0
  192.1260  174.3710  143.2390 C   0  0  1  0  0  3  0  0  0  0  0  0
  190.8010  174.2210  142.4770 C   0  0  2  0  0  3  0  0  0  0  0  0
  195.0420  175.0600  143.8910 C   0  0  0  0  0  0  0  0  0  0  0  0
  192.9770  175.4530  142.5740 C   0  0  0  0  0  2  0  0  0  0  0  0
  189.8510  175.8450  143.8960 C   0  0  1  0  0  0  0  0  0  0  0  0
  197.7850  177.5400  143.4580 N   0  0  0  0  0  1  0  0  0  0  0  0
  196.2800  176.6370  141.8930 N   0  0  0  0  0  0  0  0  0  0  0  0
  193.1350  176.4010  145.7450 C   0  0  0  0  0  2  0  0  0  0  0  0
  194.8250  175.6610  139.9070 S   0  0  0  0  0  0  0  0  0  0  0  0
  191.7900  176.9280  145.2960 C   0  0  0  0  0  2  0  0  0  0  0  0
  194.4260  174.9930  142.5150 C   0  0  1  0  0  3  0  0  0  0  0  0
  195.1900  175.7980  141.4950 C   0  0  0  0  0  0  0  0  0  0  0  0
  189.6530  174.6170  143.2140 O   0  0  0  0  0  0  0  0  0  0  0  0
  193.0940  174.8990  145.4860 C   0  0  2  0  0  3  0  0  0  0  0  0
  196.0760  175.8600  144.1640 C   0  0  0  0  0  3  0  0  0  0  0  0
  190.9830  175.6880  144.9460 C   0  0  2  0  0  3  0  0  0  0  0  0
  196.6990  176.6870  143.1200 C   0  0  0  0  0  0  0  0  0  0  0  0
  190.6310  172.8030  142.0300 C   0  0  0  0  0  0  0  0  0  0  0  0
  189.7870  170.9230  138.4800 N   0  0  0  0  0  0  0  0  0  0  0  0
  190.3380  170.9940  140.7570 C   0  0  0  0  0  0  0  0  0  0  0  0
  189.7190  172.3960  138.3790 C   0  0  2  0  0  0  0  0  0  0  0  0
  190.2730  172.4170  140.8180 C   0  0  0  0  0  0  0  0  0  0  0  0
  189.9670  173.2610  139.6240 C   0  0  2  0  0  3  0  0  0  0  0  0
  190.0700  170.2880  139.5520 N   0  0  0  0  0  0  0  0  0  0  0  0
  190.9390  171.6040  142.8750 C   0  0  0  0  0  2  0  0  0  0  0  0
  190.7180  170.4700  141.9080 C   0  0  0  0  0  3  0  0  0  0  0  0
  188.5460  172.9960  139.1290 C   0  0  0  0  0  2  0  0  0  0  0  0
  190.4770  174.1090  134.5130 C   0  0  0  0  0  3  0  0  0  0  0  0
  189.3590  174.5140  135.2480 C   0  0  0  0  0  3  0  0  0  0  0  0
  191.1010  172.5950  136.2960 C   0  0  0  0  0  3  0  0  0  0  0  0
  189.9900  173.0070  137.0430 C   0  0  0  0  0  0  0  0  0  0  0  0
  189.1150  173.9620  136.5100 C   0  0  0  0  0  3  0  0  0  0  0  0
  191.3470  173.1470  135.0360 C   0  0  0  0  0  3  0  0  0  0  0  0
  186.5690  177.2700  146.4030 C   0  0  0  0  0  3  0  0  0  0  0  0
  188.0700  177.6180  144.3370 C   0  0  0  0  0  2  0  0  0  0  0  0
  186.8350  177.9460  145.1230 C   0  0  0  0  0  0  0  0  0  0  0  0
  188.7020  176.0290  146.1720 C   0  0  0  0  0  2  0  0  0  0  0  0
  188.5510  176.1890  144.6500 C   0  0  2  0  0  3  0  0  0  0  0  0
  187.4160  176.3550  146.8810 C   0  0  0  0  0  3  0  0  0  0  0  0
  186.0600  178.8990  144.7300 N   0  0  0  0  0  2  0  0  0  0  0  0
  1 17  1  0  0  0  0
  2  8  1  0  0  0  0
  3 19  1  0  0  0  0
  3 17  1  0  0  0  0
  4  3  1  0  0  0  0
  5 16  1  0  0  0  0
  5  4  1  0  0  0  0
  6 18  2  0  0  0  0
  6  1  1  0  0  0  0
  7  4  1  0  0  0  0
  8 41  1  0  0  0  0
  8 19  1  0  0  0  0
 10 20  2  0  0  0  0
 12 15  2  0  0  0  0
 13 11  1  0  0  0  0
 14  7  1  0  0  0  0
 14  6  1  0  0  0  0
 15 10  1  0  0  0  0
 15 14  1  0  0  0  0
 16  8  1  0  0  0  0
 17 11  1  0  0  0  0
 19 13  1  0  0  0  0
 20  9  1  0  0  0  0
 20 18  1  0  0  0  0
 21  5  1  0  0  0  0
 21 28  1  0  0  0  0
 22 27  2  0  0  0  0
 23 25  1  0  0  0  0
 23 29  2  0  0  0  0
 24 22  1  0  0  0  0
 24 30  1  0  0  0  0
 24 26  1  0  0  0  0
 25 21  2  0  0  0  0
 26 25  1  0  0  0  0
 27 23  1  0  0  0  0
 29 28  1  0  0  0  0
 30 26  1  0  0  0  0
 31 36  2  0  0  0  0
 31 32  1  0  0  0  0
 32 35  2  0  0  0  0
 33 34  2  0  0  0  0
 34 24  1  0  0  0  0
 35 34  1  0  0  0  0
 36 33  1  0  0  0  0
 37 42  2  0  0  0  0
 38 41  1  0  0  0  0
 38 39  1  0  0  0  0
 39 37  1  0  0  0  0
 40 42  1  0  0  0  0
 41 40  1  0  0  0  0
 43 39  2  0  0  0  0
M  END
>  <MODEL>
6

>  <REMARK>
 VINA RESULT:      -8.5      2.384      7.989
  Name = 
  3 active torsions:
  status: ('A' for Active; 'I' for Inactive)
    1  A    between atoms: C_2  and  C_11
    2  A    between atoms: C_7  and  C_24
    3  A    between atoms: C_15  and  C_36
                            x       y       z     vdW  Elec       q    Type
                         _______ _______ _______ _____ _____    ______ ____

>  <TORSDO>
F 3

$$$$
=
 OpenBabel11062422303D

 43 51  0  0  1  0  0  0  0  0999 V2000
  192.7200  173.0070  145.0040 C   0  0  0  0  0  2  0  0  0  0  0  0
  190.7110  177.9730  143.8770 C   0  0  0  0  0  1  0  0  0  0  0  0
  190.7410  174.5820  144.6120 N   0  0  1  0  0  0  0  0  0  0  0  0
  191.2650  174.7920  143.2420 C   0  0  1  0  0  3  0  0  0  0  0  0
  190.2690  175.5740  142.3720 C   0  0  2  0  0  3  0  0  0  0  0  0
  193.8920  173.7050  144.3890 C   0  0  0  0  0  0  0  0  0  0  0  0
  192.6330  175.4700  143.1860 C   0  0  0  0  0  2  0  0  0  0  0  0
  189.7070  176.8710  144.2570 C   0  0  1  0  0  0  0  0  0  0  0  0
  197.4080  174.5080  145.3130 N   0  0  0  0  0  1  0  0  0  0  0  0
  196.1760  175.0400  143.3830 N   0  0  0  0  0  0  0  0  0  0  0  0
  192.2610  175.0950  146.4570 C   0  0  0  0  0  2  0  0  0  0  0  0
  195.0770  175.6290  141.0460 S   0  0  0  0  0  0  0  0  0  0  0  0
  191.4370  176.3270  146.1570 C   0  0  0  0  0  2  0  0  0  0  0  0
  193.7200  174.4120  143.0670 C   0  0  1  0  0  3  0  0  0  0  0  0
  195.0000  175.0290  142.5650 C   0  0  0  0  0  0  0  0  0  0  0  0
  189.2260  176.2070  143.1000 O   0  0  0  0  0  0  0  0  0  0  0  0
  191.6850  173.9920  145.5760 C   0  0  2  0  0  3  0  0  0  0  0  0
  195.0400  173.7520  145.0710 C   0  0  0  0  0  3  0  0  0  0  0  0
  190.3280  175.8400  145.2370 C   0  0  2  0  0  3  0  0  0  0  0  0
  196.2130  174.4630  144.5450 C   0  0  0  0  0  0  0  0  0  0  0  0
  189.6690  174.6640  141.3470 C   0  0  0  0  0  0  0  0  0  0  0  0
  190.4800  170.8990  139.9260 N   0  0  0  0  0  0  0  0  0  0  0  0
  189.2390  172.8820  140.0740 C   0  0  0  0  0  0  0  0  0  0  0  0
  191.4940  171.3800  140.8880 C   0  0  2  0  0  0  0  0  0  0  0  0
  190.1530  173.4890  140.9850 C   0  0  2  0  0  3  0  0  0  0  0  0
  191.3710  172.7870  141.4910 C   0  0  2  0  0  3  0  0  0  0  0  0
  189.4590  171.5750  139.5600 N   0  0  0  0  0  0  0  0  0  0  0  0
  188.3680  174.9160  140.6460 C   0  0  0  0  0  3  0  0  0  0  0  0
  188.1910  173.6530  139.8440 C   0  0  0  0  0  3  0  0  0  0  0  0
  192.3460  172.5100  140.3480 C   0  0  0  0  0  2  0  0  0  0  0  0
  193.6460  168.3910  143.0990 C   0  0  0  0  0  3  0  0  0  0  0  0
  194.2750  169.5890  142.7520 C   0  0  0  0  0  3  0  0  0  0  0  0
  191.6170  169.1410  142.0120 C   0  0  0  0  0  3  0  0  0  0  0  0
  192.2380  170.3500  141.6730 C   0  0  0  0  0  0  0  0  0  0  0  0
  193.5740  170.5660  142.0370 C   0  0  0  0  0  3  0  0  0  0  0  0
  192.3160  168.1660  142.7270 C   0  0  0  0  0  3  0  0  0  0  0  0
  185.9110  178.2750  145.9020 C   0  0  0  0  0  3  0  0  0  0  0  0
  187.8540  176.5840  145.9870 C   0  0  0  0  0  2  0  0  0  0  0  0
  186.6580  177.2300  146.6210 C   0  0  0  0  0  0  0  0  0  0  0  0
  187.4380  178.0130  143.9680 C   0  0  0  0  0  2  0  0  0  0  0  0
  188.5070  177.5310  144.9640 C   0  0  2  0  0  3  0  0  0  0  0  0
  186.2880  178.6660  144.6820 C   0  0  0  0  0  3  0  0  0  0  0  0
  186.2180  176.7930  147.7520 N   0  0  0  0  0  2  0  0  0  0  0  0
  1 17  1  0  0  0  0
  2  8  1  0  0  0  0
  3 19  1  0  0  0  0
  3 17  1  0  0  0  0
  4  3  1  0  0  0  0
  5 16  1  0  0  0  0
  5  4  1  0  0  0  0
  6  1  1  0  0  0  0
  6 18  2  0  0  0  0
  7  4  1  0  0  0  0
  8 41  1  0  0  0  0
  8 19  1  0  0  0  0
 10 20  2  0  0  0  0
 12 15  2  0  0  0  0
 13 11  1  0  0  0  0
 14  7  1  0  0  0  0
 14  6  1  0  0  0  0
 15 14  1  0  0  0  0
 15 10  1  0  0  0  0
 16  8  1  0  0  0  0
 17 11  1  0  0  0  0
 19 13  1  0  0  0  0
 20 18  1  0  0  0  0
 20  9  1  0  0  0  0
 21  5  1  0  0  0  0
 22 24  1  0  0  0  0
 23 25  1  0  0  0  0
 24 26  1  0  0  0  0
 24 34  1  0  0  0  0
 25 21  1  0  0  0  0
 25 26  1  0  0  0  0
 27 22  2  0  0  0  0
 27 23  1  0  0  0  0
 28 21  2  0  0  0  0
 29 23  2  0  0  0  0
 29 28  1  0  0  0  0
 30 24  1  0  0  0  0
 30 26  1  0  0  0  0
 32 31  1  0  0  0  0
 33 36  1  0  0  0  0
 34 33  2  0  0  0  0
 34 35  1  0  0  0  0
 35 32  2  0  0  0  0
 36 31  2  0  0  0  0
 37 39  1  0  0  0  0
 38 39  1  0  0  0  0
 39 43  2  0  0  0  0
 40 42  1  0  0  0  0
 40 41  1  0  0  0  0
 41 38  1  0  0  0  0
 42 37  2  0  0  0  0
M  END
>  <MODEL>
7

>  <REMARK>
 VINA RESULT:      -8.5      2.296      8.357
  Name = 
  3 active torsions:
  status: ('A' for Active; 'I' for Inactive)
    1  A    between atoms: C_2  and  C_11
    2  A    between atoms: C_7  and  C_24
    3  A    between atoms: C_15  and  C_36
                            x       y       z     vdW  Elec       q    Type
                         _______ _______ _______ _____ _____    ______ ____

>  <TORSDO>
F 3

$$$$
=
 OpenBabel11062422303D

 43 51  0  0  1  0  0  0  0  0999 V2000
  191.0400  173.4170  144.9670 C   0  0  0  0  0  2  0  0  0  0  0  0
  188.8350  177.5840  142.1860 C   0  0  0  0  0  1  0  0  0  0  0  0
  189.1350  174.4240  143.5880 N   0  0  1  0  0  0  0  0  0  0  0  0
  190.1010  174.5590  142.4740 C   0  0  1  0  0  3  0  0  0  0  0  0
  189.4000  174.9640  141.1670 C   0  0  2  0  0  3  0  0  0  0  0  0
  192.2280  174.2740  144.6630 C   0  0  0  0  0  0  0  0  0  0  0  0
  191.2560  175.5210  142.7520 C   0  0  0  0  0  2  0  0  0  0  0  0
  187.9560  176.3430  142.4200 C   0  0  1  0  0  0  0  0  0  0  0  0
  194.9410  175.9840  146.5550 N   0  0  0  0  0  1  0  0  0  0  0  0
  194.4720  175.9490  144.2510 N   0  0  0  0  0  0  0  0  0  0  0  0
  189.7270  175.5210  145.6920 C   0  0  0  0  0  2  0  0  0  0  0  0
  194.2710  175.9430  141.6100 S   0  0  0  0  0  0  0  0  0  0  0  0
  188.8910  176.4770  144.8700 C   0  0  0  0  0  2  0  0  0  0  0  0
  192.4620  174.7350  143.2450 C   0  0  1  0  0  3  0  0  0  0  0  0
  193.7180  175.5560  143.0990 C   0  0  0  0  0  0  0  0  0  0  0  0
  188.0700  175.4340  141.3370 O   0  0  0  0  0  0  0  0  0  0  0  0
  189.7190  174.2050  144.9220 C   0  0  2  0  0  3  0  0  0  0  0  0
  193.0030  174.6780  145.6740 C   0  0  0  0  0  3  0  0  0  0  0  0
  188.3140  175.6270  143.7490 C   0  0  2  0  0  3  0  0  0  0  0  0
  194.1550  175.5610  145.4480 C   0  0  0  0  0  0  0  0  0  0  0  0
  189.3960  173.8100  140.2170 C   0  0  0  0  0  0  0  0  0  0  0  0
  192.2450  171.6740  138.1730 N   0  0  0  0  0  0  0  0  0  0  0  0
  190.0600  172.1540  138.8750 C   0  0  0  0  0  0  0  0  0  0  0  0
  192.8080  172.8270  138.9060 C   0  0  2  0  0  0  0  0  0  0  0  0
  190.4560  173.3170  139.5990 C   0  0  0  0  0  0  0  0  0  0  0  0
  191.8790  173.7620  139.6950 C   0  0  2  0  0  3  0  0  0  0  0  0
  191.0040  171.3670  138.1610 N   0  0  0  0  0  0  0  0  0  0  0  0
  188.1900  172.9760  139.8990 C   0  0  0  0  0  2  0  0  0  0  0  0
  188.7710  171.9060  139.0120 C   0  0  0  0  0  3  0  0  0  0  0  0
  192.4080  174.1660  138.3190 C   0  0  0  0  0  2  0  0  0  0  0  0
  196.9000  172.6040  140.1950 C   0  0  0  0  0  3  0  0  0  0  0  0
  195.9200  171.8550  140.8530 C   0  0  0  0  0  3  0  0  0  0  0  0
  195.2180  173.4920  138.6980 C   0  0  0  0  0  3  0  0  0  0  0  0
  194.2330  172.7330  139.3450 C   0  0  0  0  0  0  0  0  0  0  0  0
  194.5890  171.9220  140.4300 C   0  0  0  0  0  3  0  0  0  0  0  0
  196.5480  173.4250  139.1190 C   0  0  0  0  0  3  0  0  0  0  0  0
  184.0560  178.2900  142.7010 C   0  0  0  0  0  3  0  0  0  0  0  0
  186.0390  177.5390  141.2360 C   0  0  0  0  0  2  0  0  0  0  0  0
  184.6240  178.0180  141.3700 C   0  0  0  0  0  0  0  0  0  0  0  0
  186.2290  177.6960  143.7320 C   0  0  0  0  0  2  0  0  0  0  0  0
  186.4870  176.7990  142.5090 C   0  0  2  0  0  3  0  0  0  0  0  0
  184.7860  178.1120  143.8040 C   0  0  0  0  0  3  0  0  0  0  0  0
  183.9380  178.2950  140.3140 N   0  0  0  0  0  2  0  0  0  0  0  0
  2  8  1  0  0  0  0
  3 19  1  0  0  0  0
  3 17  1  0  0  0  0
  4  7  1  0  0  0  0
  4  3  1  0  0  0  0
  5 16  1  0  0  0  0
  5  4  1  0  0  0  0
  6  1  1  0  0  0  0
  6 18  2  0  0  0  0
  7 14  1  0  0  0  0
  8 41  1  0  0  0  0
  8 19  1  0  0  0  0
 10 20  2  0  0  0  0
 12 15  2  0  0  0  0
 13 11  1  0  0  0  0
 14  6  1  0  0  0  0
 15 14  1  0  0  0  0
 15 10  1  0  0  0  0
 16  8  1  0  0  0  0
 17  1  1  0  0  0  0
 17 11  1  0  0  0  0
 19 13  1  0  0  0  0
 20 18  1  0  0  0  0
 20  9  1  0  0  0  0
 21  5  1  0  0  0  0
 22 24  1  0  0  0  0
 23 29  2  0  0  0  0
 23 25  1  0  0  0  0
 24 34  1  0  0  0  0
 24 26  1  0  0  0  0
 25 26  1  0  0  0  0
 25 21  2  0  0  0  0
 27 22  2  0  0  0  0
 27 23  1  0  0  0  0
 28 21  1  0  0  0  0
 29 28  1  0  0  0  0
 30 24  1  0  0  0  0
 30 26  1  0  0  0  0
 31 32  1  0  0  0  0
 33 36  1  0  0  0  0
 33 34  2  0  0  0  0
 34 35  1  0  0  0  0
 35 32  2  0  0  0  0
 36 31  2  0  0  0  0
 37 42  2  0  0  0  0
 38 39  1  0  0  0  0
 38 41  1  0  0  0  0
 39 37  1  0  0  0  0
 40 42  1  0  0  0  0
 41 40  1  0  0  0  0
 43 39  2  0  0  0  0
M  END
>  <MODEL>
8

>  <REMARK>
 VINA RESULT:      -8.4      2.763      9.007
  Name = 
  3 active torsions:
  status: ('A' for Active; 'I' for Inactive)
    1  A    between atoms: C_2  and  C_11
    2  A    between atoms: C_7  and  C_24
    3  A    between atoms: C_15  and  C_36
                            x       y       z     vdW  Elec       q    Type
                         _______ _______ _______ _____ _____    ______ ____

>  <TORSDO>
F 3

$$$$
=
 OpenBabel11062422303D

 43 51  0  0  1  0  0  0  0  0999 V2000
  191.6280  172.9900  140.3800 C   0  0  0  0  0  2  0  0  0  0  0  0
  189.7860  173.7910  145.4730 C   0  0  0  0  0  1  0  0  0  0  0  0
  191.0960  174.5380  142.3470 N   0  0  1  0  0  0  0  0  0  0  0  0
  192.0980  173.7790  143.1300 C   0  0  1  0  0  3  0  0  0  0  0  0
  192.3910  174.4560  144.4780 C   0  0  2  0  0  3  0  0  0  0  0  0
  191.7210  171.6230  140.9820 C   0  0  0  0  0  0  0  0  0  0  0  0
  191.7380  172.3120  143.3650 C   0  0  0  0  0  2  0  0  0  0  0  0
  190.1120  175.0370  144.6320 C   0  0  1  0  0  0  0  0  0  0  0  0
  190.4450  168.2040  140.2500 N   0  0  0  0  0  1  0  0  0  0  0  0
  191.7580  168.9950  142.0320 N   0  0  0  0  0  0  0  0  0  0  0  0
  189.2580  173.2500  141.3770 C   0  0  0  0  0  2  0  0  0  0  0  0
  193.3710  169.5850  144.0480 S   0  0  0  0  0  0  0  0  0  0  0  0
  188.8230  173.7610  142.7330 C   0  0  0  0  0  2  0  0  0  0  0  0
  192.4150  171.4480  142.3110 C   0  0  1  0  0  3  0  0  0  0  0  0
  192.4580  170.0100  142.7600 C   0  0  0  0  0  0  0  0  0  0  0  0
  191.4510  175.4540  144.8480 O   0  0  0  0  0  0  0  0  0  0  0  0
  190.6180  173.8880  141.1150 C   0  0  2  0  0  3  0  0  0  0  0  0
  191.1120  170.6080  140.3640 C   0  0  0  0  0  3  0  0  0  0  0  0
  189.8760  174.7890  143.1180 C   0  0  2  0  0  3  0  0  0  0  0  0
  191.1240  169.2510  140.9290 C   0  0  0  0  0  0  0  0  0  0  0  0
  193.7610  175.0570  144.4550 C   0  0  0  0  0  0  0  0  0  0  0  0
  197.6000  173.6130  144.2930 N   0  0  0  0  0  0  0  0  0  0  0  0
  195.9760  175.3020  144.3270 C   0  0  0  0  0  0  0  0  0  0  0  0
  196.5890  172.5420  144.4130 C   0  0  2  0  0  0  0  0  0  0  0  0
  194.8970  174.3820  144.4810 C   0  0  2  0  0  3  0  0  0  0  0  0
  195.1000  172.9030  144.5270 C   0  0  2  0  0  3  0  0  0  0  0  0
  197.3240  174.8600  144.2500 N   0  0  0  0  0  0  0  0  0  0  0  0
  194.0430  176.5210  144.3020 C   0  0  0  0  0  3  0  0  0  0  0  0
  195.5470  176.5460  144.2160 C   0  0  0  0  0  3  0  0  0  0  0  0
  195.9050  172.5100  145.7650 C   0  0  0  0  0  2  0  0  0  0  0  0
  197.6410  168.7070  142.7860 C   0  0  0  0  0  3  0  0  0  0  0  0
  197.7590  168.9380  144.1600 C   0  0  0  0  0  3  0  0  0  0  0  0
  196.8340  170.9680  142.4750 C   0  0  0  0  0  3  0  0  0  0  0  0
  196.9380  171.2020  143.8530 C   0  0  0  0  0  0  0  0  0  0  0  0
  197.4110  170.1840  144.6920 C   0  0  0  0  0  3  0  0  0  0  0  0
  197.1800  169.7240  141.9430 C   0  0  0  0  0  3  0  0  0  0  0  0
  186.9530  177.9090  145.5580 C   0  0  0  0  0  3  0  0  0  0  0  0
  188.1700  175.7140  146.1410 C   0  0  0  0  0  2  0  0  0  0  0  0
  187.2390  176.8290  146.5150 C   0  0  0  0  0  0  0  0  0  0  0  0
  188.4100  176.7950  143.8920 C   0  0  0  0  0  2  0  0  0  0  0  0
  189.1770  176.1800  145.0740 C   0  0  2  0  0  3  0  0  0  0  0  0
  187.5190  177.9170  144.3480 C   0  0  0  0  0  3  0  0  0  0  0  0
  186.6030  176.7830  147.6370 N   0  0  0  0  0  2  0  0  0  0  0  0
  1  6  1  0  0  0  0
  1 17  1  0  0  0  0
  3 19  1  0  0  0  0
  3  4  1  0  0  0  0
  4  7  1  0  0  0  0
  4  5  1  0  0  0  0
  5 16  1  0  0  0  0
  6 14  1  0  0  0  0
  8 16  1  0  0  0  0
  8 41  1  0  0  0  0
  8  2  1  0  0  0  0
  9 20  1  0  0  0  0
 10 15  1  0  0  0  0
 11 13  1  0  0  0  0
 13 19  1  0  0  0  0
 14 15  1  0  0  0  0
 14  7  1  0  0  0  0
 15 12  2  0  0  0  0
 17 11  1  0  0  0  0
 17  3  1  0  0  0  0
 18 20  1  0  0  0  0
 18  6  2  0  0  0  0
 19  8  1  0  0  0  0
 20 10  2  0  0  0  0
 21  5  1  0  0  0  0
 21 25  1  0  0  0  0
 22 24  1  0  0  0  0
 23 25  1  0  0  0  0
 24 26  1  0  0  0  0
 24 30  1  0  0  0  0
 25 26  1  0  0  0  0
 26 30  1  0  0  0  0
 27 22  2  0  0  0  0
 27 23  1  0  0  0  0
 28 21  2  0  0  0  0
 29 28  1  0  0  0  0
 29 23  2  0  0  0  0
 31 32  1  0  0  0  0
 32 35  2  0  0  0  0
 33 34  2  0  0  0  0
 34 24  1  0  0  0  0
 34 35  1  0  0  0  0
 36 33  1  0  0  0  0
 36 31  2  0  0  0  0
 37 39  1  0  0  0  0
 38 39  1  0  0  0  0
 39 43  2  0  0  0  0
 40 42  1  0  0  0  0
 40 41  1  0  0  0  0
 41 38  1  0  0  0  0
 42 37  2  0  0  0  0
M  END
>  <MODEL>
9

>  <REMARK>
 VINA RESULT:      -8.3      2.771      8.525
  Name = 
  3 active torsions:
  status: ('A' for Active; 'I' for Inactive)
    1  A    between atoms: C_2  and  C_11
    2  A    between atoms: C_7  and  C_24
    3  A    between atoms: C_15  and  C_36
                            x       y       z     vdW  Elec       q    Type
                         _______ _______ _______ _____ _____    ______ ____

>  <TORSDO>
F 3

$$$$
