=
 OpenBabel11062422463D

 29 32  0  0  1  0  0  0  0  0999 V2000
  190.2270  176.8820  143.4040 O   0  0  0  0  0  1  0  0  0  0  0  0
  189.2310  175.7420  146.8760 S   0  0  0  0  0  0  0  0  0  0  0  0
  190.3580  176.1540  145.7230 C   0  0  0  0  0  0  0  0  0  0  0  0
  187.2610  176.8030  143.8080 N   0  0  0  0  0  2  0  0  0  0  0  0
  188.2260  176.4390  144.8000 C   0  0  0  0  0  0  0  0  0  0  0  0
  187.8260  176.0020  146.0230 N   0  0  0  0  0  0  0  0  0  0  0  0
  189.6290  176.5130  144.6030 C   0  0  0  0  0  0  0  0  0  0  0  0
  191.7840  176.1850  145.8800 C   0  0  0  0  0  0  0  0  0  0  0  0
  192.9830  176.2300  145.9970 C   0  0  0  0  0  0  0  0  0  0  0  0
  195.0380  174.9170  145.9040 C   0  0  0  0  0  2  0  0  0  0  0  0
  197.7160  175.5640  142.3570 S   0  0  0  0  0  0  0  0  0  0  0  0
  195.5570  174.9100  144.5480 N   0  0  1  0  0  0  0  0  0  0  0  0
  197.1330  173.9400  142.9870 C   0  0  0  0  0  2  0  0  0  0  0  0
  194.9960  177.1590  145.0020 C   0  0  0  0  0  2  0  0  0  0  0  0
  196.0320  176.2660  144.3680 C   0  0  2  0  0  3  0  0  0  0  0  0
  194.4390  176.3020  146.1260 C   0  0  1  0  0  3  0  0  0  0  0  0
  196.7090  174.0280  144.4520 C   0  0  0  0  0  2  0  0  0  0  0  0
  196.2560  176.5300  142.8940 C   0  0  0  0  0  2  0  0  0  0  0  0
  187.5510  177.6870  142.6880 C   0  0  1  0  0  3  0  0  0  0  0  0
  186.3970  177.4300  140.4870 O   0  0  0  0  0  0  0  0  0  0  0  0
  187.3250  176.9590  141.4070 C   0  0  0  0  0  0  0  0  0  0  0  0
  187.9730  175.9100  141.1610 O   0  0  0  0  0  1  0  0  0  0  0  0
  186.7150  178.8060  142.7460 O   0  0  0  0  0  0  0  0  0  0  0  0
  186.3690  178.9370  144.0940 C   0  0  0  0  0  2  0  0  0  0  0  0
  184.0850  179.0860  145.2870 C   0  0  2  0  0  3  0  0  0  0  0  0
  183.9030  178.6960  143.8330 C   0  0  0  0  0  2  0  0  0  0  0  0
  185.0240  179.6460  144.2110 C   0  0  2  0  0  3  0  0  0  0  0  0
  184.6320  177.9000  146.0710 C   0  0  0  0  0  2  0  0  0  0  0  0
  184.8130  178.2630  147.4050 O   0  0  0  0  0  1  0  0  0  0  0  0
  1  7  1  0  0  0  0
  3  8  1  0  0  0  0
  3  2  1  0  0  0  0
  4  5  1  0  0  0  0
  5  6  2  0  0  0  0
  6  2  1  0  0  0  0
  7  5  1  0  0  0  0
  7  3  2  0  0  0  0
  8  9  3  0  0  0  0
 10 16  1  0  0  0  0
 11 18  1  0  0  0  0
 11 13  1  0  0  0  0
 12 17  1  1  0  0  0
 12 10  1  0  0  0  0
 13 17  1  0  0  0  0
 14 16  1  0  0  0  0
 15 18  1  6  0  0  0
 15 12  1  0  0  0  0
 15 14  1  0  0  0  0
 16  9  1  6  0  0  0
 19 21  1  6  0  0  0
 19 23  1  0  0  0  0
 19  4  1  0  0  0  0
 20 21  2  0  0  0  0
 22 21  1  0  0  0  0
 23 24  1  0  0  0  0
 25 28  1  1  0  0  0
 26 27  1  0  0  0  0
 26 25  1  0  0  0  0
 27 24  1  1  0  0  0
 27 25  1  0  0  0  0
 28 29  1  0  0  0  0
M  END
>  <MODEL>
1

>  <REMARK>
 VINA RESULT:      -6.7      0.000      0.000
  Name = 
  8 active torsions:
  status: ('A' for Active; 'I' for Inactive)
    1  A    between atoms: C_3  and  C_14
    2  A    between atoms: C_4  and  C_9
    3  A    between atoms: O_6  and  C_20
    4  A    between atoms: O_6  and  C_22
    5  A    between atoms: C_13  and  C_22
    6  A    between atoms: N_15  and  C_22
    7  A    between atoms: C_17  and  C_26
    8  A    between atoms: C_20  and  C_21
                            x       y       z     vdW  Elec       q    Type
                         _______ _______ _______ _____ _____    ______ ____

>  <TORSDO>
F 8

$$$$
=
 OpenBabel11062422463D

 29 32  0  0  1  0  0  0  0  0999 V2000
  189.0450  177.6490  142.9260 O   0  0  0  0  0  1  0  0  0  0  0  0
  189.4660  173.8900  142.7140 S   0  0  0  0  0  0  0  0  0  0  0  0
  190.0280  175.4240  143.0270 C   0  0  0  0  0  0  0  0  0  0  0  0
  186.5160  176.2240  142.1920 N   0  0  0  0  0  2  0  0  0  0  0  0
  187.7720  175.5800  142.4300 C   0  0  0  0  0  0  0  0  0  0  0  0
  187.8880  174.2310  142.3090 N   0  0  0  0  0  0  0  0  0  0  0  0
  188.9530  176.2670  142.8080 C   0  0  0  0  0  0  0  0  0  0  0  0
  191.3390  175.7880  143.4840 C   0  0  0  0  0  0  0  0  0  0  0  0
  192.4400  176.1120  143.8540 C   0  0  0  0  0  0  0  0  0  0  0  0
  194.1850  175.7090  145.5120 C   0  0  0  0  0  2  0  0  0  0  0  0
  197.9010  173.6190  144.0990 S   0  0  0  0  0  0  0  0  0  0  0  0
  195.0920  174.6820  145.0320 N   0  0  1  0  0  0  0  0  0  0  0  0
  196.9000  173.1630  145.5700 C   0  0  0  0  0  2  0  0  0  0  0  0
  194.7840  176.1560  143.2130 C   0  0  0  0  0  2  0  0  0  0  0  0
  195.8090  175.3460  143.9640 C   0  0  2  0  0  3  0  0  0  0  0  0
  193.7760  176.5230  144.2890 C   0  0  1  0  0  3  0  0  0  0  0  0
  196.0600  174.3410  146.0620 C   0  0  0  0  0  2  0  0  0  0  0  0
  196.5210  174.3120  143.1160 C   0  0  0  0  0  2  0  0  0  0  0  0
  186.1700  177.5360  142.7220 C   0  0  1  0  0  3  0  0  0  0  0  0
  185.2050  178.5130  140.6350 O   0  0  0  0  0  0  0  0  0  0  0  0
  185.0270  178.1010  141.9500 C   0  0  0  0  0  0  0  0  0  0  0  0
  183.8990  178.2100  142.4940 O   0  0  0  0  0  1  0  0  0  0  0  0
  185.8130  177.4170  144.0690 O   0  0  0  0  0  0  0  0  0  0  0  0
  186.3860  178.5240  144.7010 C   0  0  0  0  0  2  0  0  0  0  0  0
  185.4780  178.9270  147.0830 C   0  0  2  0  0  3  0  0  0  0  0  0
  184.4670  178.1650  146.2490 C   0  0  0  0  0  2  0  0  0  0  0  0
  185.3440  179.2070  145.5810 C   0  0  2  0  0  3  0  0  0  0  0  0
  186.6240  178.0020  147.4710 C   0  0  0  0  0  2  0  0  0  0  0  0
  186.1180  176.7550  147.8380 O   0  0  0  0  0  1  0  0  0  0  0  0
  2  3  1  0  0  0  0
  3  8  1  0  0  0  0
  4  5  1  0  0  0  0
  4 19  1  0  0  0  0
  5  7  1  0  0  0  0
  6  5  2  0  0  0  0
  6  2  1  0  0  0  0
  7  1  1  0  0  0  0
  7  3  2  0  0  0  0
  8  9  3  0  0  0  0
 11 13  1  0  0  0  0
 12 10  1  1  0  0  0
 12 17  1  0  0  0  0
 13 17  1  0  0  0  0
 14 15  1  0  0  0  0
 14 16  1  0  0  0  0
 15 18  1  6  0  0  0
 15 12  1  0  0  0  0
 16  9  1  6  0  0  0
 16 10  1  0  0  0  0
 18 11  1  0  0  0  0
 19 21  1  6  0  0  0
 19 23  1  0  0  0  0
 20 21  2  0  0  0  0
 21 22  1  0  0  0  0
 23 24  1  0  0  0  0
 25 28  1  6  0  0  0
 26 25  1  0  0  0  0
 27 24  1  6  0  0  0
 27 26  1  0  0  0  0
 27 25  1  0  0  0  0
 28 29  1  0  0  0  0
M  END
>  <MODEL>
2

>  <REMARK>
 VINA RESULT:      -6.5      1.991      2.423
  Name = 
  8 active torsions:
  status: ('A' for Active; 'I' for Inactive)
    1  A    between atoms: C_3  and  C_14
    2  A    between atoms: C_4  and  C_9
    3  A    between atoms: O_6  and  C_20
    4  A    between atoms: O_6  and  C_22
    5  A    between atoms: C_13  and  C_22
    6  A    between atoms: N_15  and  C_22
    7  A    between atoms: C_17  and  C_26
    8  A    between atoms: C_20  and  C_21
                            x       y       z     vdW  Elec       q    Type
                         _______ _______ _______ _____ _____    ______ ____

>  <TORSDO>
F 8

$$$$
=
 OpenBabel11062422463D

 29 32  0  0  1  0  0  0  0  0999 V2000
  188.9900  177.6980  143.8440 O   0  0  0  0  0  1  0  0  0  0  0  0
  189.6020  174.1220  142.7560 S   0  0  0  0  0  0  0  0  0  0  0  0
  190.0850  175.5630  143.4320 C   0  0  0  0  0  0  0  0  0  0  0  0
  186.5400  176.3680  142.7520 N   0  0  0  0  0  2  0  0  0  0  0  0
  187.8260  175.7470  142.8510 C   0  0  0  0  0  0  0  0  0  0  0  0
  188.0110  174.4720  142.4170 N   0  0  0  0  0  0  0  0  0  0  0  0
  188.9690  176.3810  143.4010 C   0  0  0  0  0  0  0  0  0  0  0  0
  191.3730  175.8710  143.9830 C   0  0  0  0  0  0  0  0  0  0  0  0
  192.4660  176.1120  144.4340 C   0  0  0  0  0  0  0  0  0  0  0  0
  194.2160  175.2610  145.9060 C   0  0  0  0  0  2  0  0  0  0  0  0
  197.9390  173.6830  143.9530 S   0  0  0  0  0  0  0  0  0  0  0  0
  195.1270  174.4190  145.1530 N   0  0  1  0  0  0  0  0  0  0  0  0
  196.9430  172.8200  145.2320 C   0  0  0  0  0  2  0  0  0  0  0  0
  194.8080  176.3500  143.8320 C   0  0  0  0  0  2  0  0  0  0  0  0
  195.8390  175.3650  144.3190 C   0  0  2  0  0  3  0  0  0  0  0  0
  193.8000  176.3890  144.9680 C   0  0  1  0  0  3  0  0  0  0  0  0
  196.0990  173.8030  146.0420 C   0  0  0  0  0  2  0  0  0  0  0  0
  196.5540  174.6210  143.2100 C   0  0  0  0  0  2  0  0  0  0  0  0
  186.1260  177.4980  143.5710 C   0  0  1  0  0  3  0  0  0  0  0  0
  185.3630  178.4430  141.3870 O   0  0  0  0  0  0  0  0  0  0  0  0
  185.7890  178.6540  142.6920 C   0  0  0  0  0  0  0  0  0  0  0  0
  185.8980  179.8260  143.1330 O   0  0  0  0  0  1  0  0  0  0  0  0
  185.0050  177.1410  144.3270 O   0  0  0  0  0  0  0  0  0  0  0  0
  185.5080  176.7600  145.5740 C   0  0  0  0  0  2  0  0  0  0  0  0
  187.5520  177.5440  146.9410 C   0  0  2  0  0  3  0  0  0  0  0  0
  186.2690  177.7930  147.7100 C   0  0  0  0  0  2  0  0  0  0  0  0
  186.2660  177.9270  146.1990 C   0  0  2  0  0  3  0  0  0  0  0  0
  187.8770  176.0550  146.9520 C   0  0  0  0  0  2  0  0  0  0  0  0
  189.2590  175.8760  146.9310 O   0  0  0  0  0  1  0  0  0  0  0  0
  2  3  1  0  0  0  0
  3  8  1  0  0  0  0
  4  5  1  0  0  0  0
  4 19  1  0  0  0  0
  5  7  1  0  0  0  0
  6  2  1  0  0  0  0
  6  5  2  0  0  0  0
  7  3  2  0  0  0  0
  7  1  1  0  0  0  0
  8  9  3  0  0  0  0
 11 13  1  0  0  0  0
 12 10  1  1  0  0  0
 12 17  1  0  0  0  0
 13 17  1  0  0  0  0
 14 15  1  0  0  0  0
 14 16  1  0  0  0  0
 15 18  1  6  0  0  0
 15 12  1  0  0  0  0
 16  9  1  6  0  0  0
 16 10  1  0  0  0  0
 18 11  1  0  0  0  0
 19 21  1  6  0  0  0
 19 23  1  0  0  0  0
 20 21  2  0  0  0  0
 21 22  1  0  0  0  0
 23 24  1  0  0  0  0
 25 28  1  6  0  0  0
 25 26  1  0  0  0  0
 27 24  1  6  0  0  0
 27 25  1  0  0  0  0
 27 26  1  0  0  0  0
 29 28  1  0  0  0  0
M  END
>  <MODEL>
3

>  <REMARK>
 VINA RESULT:      -6.3      2.041      2.772
  Name = 
  8 active torsions:
  status: ('A' for Active; 'I' for Inactive)
    1  A    between atoms: C_3  and  C_14
    2  A    between atoms: C_4  and  C_9
    3  A    between atoms: O_6  and  C_20
    4  A    between atoms: O_6  and  C_22
    5  A    between atoms: C_13  and  C_22
    6  A    between atoms: N_15  and  C_22
    7  A    between atoms: C_17  and  C_26
    8  A    between atoms: C_20  and  C_21
                            x       y       z     vdW  Elec       q    Type
                         _______ _______ _______ _____ _____    ______ ____

>  <TORSDO>
F 8

$$$$
=
 OpenBabel11062422463D

 29 32  0  0  1  0  0  0  0  0999 V2000
  189.1080  175.2680  143.3280 O   0  0  0  0  0  1  0  0  0  0  0  0
  187.2100  177.3290  140.7780 S   0  0  0  0  0  0  0  0  0  0  0  0
  188.0060  175.9530  141.2680 C   0  0  0  0  0  0  0  0  0  0  0  0
  188.1750  177.9010  144.4060 N   0  0  0  0  0  2  0  0  0  0  0  0
  187.9550  177.4480  143.0670 C   0  0  0  0  0  0  0  0  0  0  0  0
  187.2980  178.2330  142.1730 N   0  0  0  0  0  0  0  0  0  0  0  0
  188.3750  176.1840  142.5820 C   0  0  0  0  0  0  0  0  0  0  0  0
  188.2140  174.7560  140.5040 C   0  0  0  0  0  0  0  0  0  0  0  0
  188.4080  173.7600  139.8520 C   0  0  0  0  0  0  0  0  0  0  0  0
  188.9170  172.9600  137.6030 C   0  0  0  0  0  2  0  0  0  0  0  0
  193.0710  171.4170  136.8750 S   0  0  0  0  0  0  0  0  0  0  0  0
  190.3550  172.9080  137.4120 N   0  0  1  0  0  0  0  0  0  0  0  0
  192.1830  172.6520  135.8460 C   0  0  0  0  0  2  0  0  0  0  0  0
  189.9570  171.9180  139.5190 C   0  0  0  0  0  2  0  0  0  0  0  0
  190.7600  171.7980  138.2490 C   0  0  2  0  0  3  0  0  0  0  0  0
  188.6620  172.5610  139.0530 C   0  0  1  0  0  3  0  0  0  0  0  0
  190.6710  172.5570  136.0370 C   0  0  0  0  0  2  0  0  0  0  0  0
  192.2590  171.8450  138.4590 C   0  0  0  0  0  2  0  0  0  0  0  0
  188.4330  177.0080  145.5270 C   0  0  1  0  0  3  0  0  0  0  0  0
  190.0220  177.4270  147.4100 O   0  0  0  0  0  1  0  0  0  0  0  0
  189.8090  177.2460  146.0490 C   0  0  0  0  0  0  0  0  0  0  0  0
  190.7800  177.2900  145.2510 O   0  0  0  0  0  0  0  0  0  0  0  0
  187.4990  177.2480  146.5400 O   0  0  0  0  0  0  0  0  0  0  0  0
  186.2730  176.8300  146.0170 C   0  0  0  0  0  2  0  0  0  0  0  0
  184.2340  178.4130  145.9870 C   0  0  2  0  0  3  0  0  0  0  0  0
  185.3350  178.9770  146.8640 C   0  0  0  0  0  2  0  0  0  0  0  0
  185.1350  177.4740  146.8010 C   0  0  2  0  0  3  0  0  0  0  0  0
  184.6160  178.5680  144.5210 C   0  0  0  0  0  2  0  0  0  0  0  0
  185.0470  179.8720  144.2830 O   0  0  0  0  0  1  0  0  0  0  0  0
  2  3  1  0  0  0  0
  2  6  1  0  0  0  0
  3  7  2  0  0  0  0
  5  4  1  0  0  0  0
  6  5  2  0  0  0  0
  7  5  1  0  0  0  0
  7  1  1  0  0  0  0
  8  3  1  0  0  0  0
  9  8  3  0  0  0  0
 10 16  1  0  0  0  0
 11 18  1  0  0  0  0
 12 17  1  6  0  0  0
 12 10  1  0  0  0  0
 12 15  1  0  0  0  0
 13 17  1  0  0  0  0
 13 11  1  0  0  0  0
 15 18  1  1  0  0  0
 15 14  1  0  0  0  0
 16 14  1  0  0  0  0
 16  9  1  1  0  0  0
 19  4  1  6  0  0  0
 19 21  1  0  0  0  0
 19 23  1  0  0  0  0
 21 20  1  0  0  0  0
 22 21  2  0  0  0  0
 24 23  1  0  0  0  0
 25 28  1  6  0  0  0
 25 27  1  0  0  0  0
 25 26  1  0  0  0  0
 27 24  1  6  0  0  0
 27 26  1  0  0  0  0
 29 28  1  0  0  0  0
M  END
>  <MODEL>
4

>  <REMARK>
 VINA RESULT:      -6.3      4.495      6.362
  Name = 
  8 active torsions:
  status: ('A' for Active; 'I' for Inactive)
    1  A    between atoms: C_3  and  C_14
    2  A    between atoms: C_4  and  C_9
    3  A    between atoms: O_6  and  C_20
    4  A    between atoms: O_6  and  C_22
    5  A    between atoms: C_13  and  C_22
    6  A    between atoms: N_15  and  C_22
    7  A    between atoms: C_17  and  C_26
    8  A    between atoms: C_20  and  C_21
                            x       y       z     vdW  Elec       q    Type
                         _______ _______ _______ _____ _____    ______ ____

>  <TORSDO>
F 8

$$$$
=
 OpenBabel11062422463D

 29 32  0  0  1  0  0  0  0  0999 V2000
  193.0270  175.6000  143.1910 O   0  0  0  0  0  1  0  0  0  0  0  0
  193.4310  176.9580  146.7050 S   0  0  0  0  0  0  0  0  0  0  0  0
  192.5230  176.3390  145.4560 C   0  0  0  0  0  0  0  0  0  0  0  0
  195.8760  176.1880  143.9030 N   0  0  0  0  0  2  0  0  0  0  0  0
  194.7610  176.4010  144.7740 C   0  0  0  0  0  0  0  0  0  0  0  0
  194.9460  176.9230  146.0150 N   0  0  0  0  0  0  0  0  0  0  0  0
  193.4210  176.0870  144.4330 C   0  0  0  0  0  0  0  0  0  0  0  0
  191.1140  176.0710  145.4620 C   0  0  0  0  0  0  0  0  0  0  0  0
  189.9310  175.8390  145.4900 C   0  0  0  0  0  0  0  0  0  0  0  0
  187.9300  176.0490  146.8720 C   0  0  0  0  0  2  0  0  0  0  0  0
  184.8500  179.0440  145.5640 S   0  0  0  0  0  0  0  0  0  0  0  0
  187.2640  177.3060  146.5860 N   0  0  1  0  0  0  0  0  0  0  0  0
  185.5620  178.8950  147.2500 C   0  0  0  0  0  2  0  0  0  0  0  0
  187.7850  176.3700  144.4810 C   0  0  0  0  0  2  0  0  0  0  0  0
  186.7200  177.0980  145.2600 C   0  0  2  0  0  3  0  0  0  0  0  0
  188.4960  175.5530  145.5460 C   0  0  1  0  0  3  0  0  0  0  0  0
  186.1430  177.5030  147.4910 C   0  0  0  0  0  2  0  0  0  0  0  0
  186.3220  178.4320  144.6630 C   0  0  0  0  0  2  0  0  0  0  0  0
  195.8620  175.2470  142.7920 C   0  0  1  0  0  3  0  0  0  0  0  0
  196.9800  175.5740  140.5810 O   0  0  0  0  0  0  0  0  0  0  0  0
  196.0330  175.9870  141.5090 C   0  0  0  0  0  0  0  0  0  0  0  0
  195.3190  176.9940  141.2700 O   0  0  0  0  0  1  0  0  0  0  0  0
  196.9040  174.3270  142.9440 O   0  0  0  0  0  0  0  0  0  0  0  0
  196.3620  173.2770  143.6900 C   0  0  0  0  0  2  0  0  0  0  0  0
  196.8150  171.8150  145.7690 C   0  0  2  0  0  3  0  0  0  0  0  0
  196.8190  173.2850  146.1400 C   0  0  0  0  0  2  0  0  0  0  0  0
  197.3440  172.8620  144.7810 C   0  0  2  0  0  3  0  0  0  0  0  0
  195.3850  171.3530  145.5200 C   0  0  0  0  0  2  0  0  0  0  0  0
  195.1580  170.1490  146.1860 O   0  0  0  0  0  1  0  0  0  0  0  0
  1  7  1  0  0  0  0
  3  8  1  0  0  0  0
  3  2  1  0  0  0  0
  4  5  1  0  0  0  0
  5  6  2  0  0  0  0
  6  2  1  0  0  0  0
  7  5  1  0  0  0  0
  7  3  2  0  0  0  0
  8  9  3  0  0  0  0
 11 13  1  0  0  0  0
 12 10  1  1  0  0  0
 12 17  1  0  0  0  0
 13 17  1  0  0  0  0
 14 16  1  0  0  0  0
 15 14  1  6  0  0  0
 15 12  1  0  0  0  0
 16  9  1  1  0  0  0
 16 10  1  0  0  0  0
 18 15  1  0  0  0  0
 18 11  1  0  0  0  0
 19 21  1  6  0  0  0
 19 23  1  0  0  0  0
 19  4  1  0  0  0  0
 20 21  2  0  0  0  0
 22 21  1  0  0  0  0
 23 24  1  0  0  0  0
 25 28  1  6  0  0  0
 25 26  1  0  0  0  0
 27 24  1  6  0  0  0
 27 25  1  0  0  0  0
 27 26  1  0  0  0  0
 28 29  1  0  0  0  0
M  END
>  <MODEL>
5

>  <REMARK>
 VINA RESULT:      -6.1      3.512      9.587
  Name = 
  8 active torsions:
  status: ('A' for Active; 'I' for Inactive)
    1  A    between atoms: C_3  and  C_14
    2  A    between atoms: C_4  and  C_9
    3  A    between atoms: O_6  and  C_20
    4  A    between atoms: O_6  and  C_22
    5  A    between atoms: C_13  and  C_22
    6  A    between atoms: N_15  and  C_22
    7  A    between atoms: C_17  and  C_26
    8  A    between atoms: C_20  and  C_21
                            x       y       z     vdW  Elec       q    Type
                         _______ _______ _______ _____ _____    ______ ____

>  <TORSDO>
F 8

$$$$
=
 OpenBabel11062422463D

 29 32  0  0  1  0  0  0  0  0999 V2000
  189.7160  177.2730  143.4700 O   0  0  0  0  0  1  0  0  0  0  0  0
  189.4140  173.9400  141.6950 S   0  0  0  0  0  0  0  0  0  0  0  0
  190.2950  175.1860  142.3580 C   0  0  0  0  0  0  0  0  0  0  0  0
  186.8810  176.3530  143.1730 N   0  0  0  0  0  2  0  0  0  0  0  0
  188.0230  175.6360  142.6910 C   0  0  0  0  0  0  0  0  0  0  0  0
  187.8690  174.4600  142.0290 N   0  0  0  0  0  0  0  0  0  0  0  0
  189.3610  176.0710  142.8690 C   0  0  0  0  0  0  0  0  0  0  0  0
  191.7240  175.2910  142.4330 C   0  0  0  0  0  0  0  0  0  0  0  0
  192.9230  175.4010  142.4880 C   0  0  0  0  0  0  0  0  0  0  0  0
  194.8160  175.6890  144.0010 C   0  0  0  0  0  2  0  0  0  0  0  0
  197.5660  172.1770  144.5220 S   0  0  0  0  0  0  0  0  0  0  0  0
  195.3370  174.3910  144.3900 N   0  0  1  0  0  0  0  0  0  0  0  0
  196.7990  173.1560  145.8740 C   0  0  0  0  0  2  0  0  0  0  0  0
  195.0330  174.2780  142.0510 C   0  0  0  0  0  2  0  0  0  0  0  0
  195.9640  173.9090  143.1780 C   0  0  2  0  0  3  0  0  0  0  0  0
  194.3780  175.5560  142.5470 C   0  0  1  0  0  3  0  0  0  0  0  0
  196.3810  174.5440  145.3910 C   0  0  0  0  0  2  0  0  0  0  0  0
  196.2240  172.4220  143.3020 C   0  0  0  0  0  2  0  0  0  0  0  0
  186.9390  177.3300  144.2510 C   0  0  1  0  0  3  0  0  0  0  0  0
  184.7600  178.0360  143.2530 O   0  0  0  0  0  0  0  0  0  0  0  0
  185.8320  178.3150  144.0910 C   0  0  0  0  0  0  0  0  0  0  0  0
  185.8730  179.4070  144.7130 O   0  0  0  0  0  1  0  0  0  0  0  0
  186.8120  176.6770  145.4810 O   0  0  0  0  0  0  0  0  0  0  0  0
  187.9970  176.9530  146.1690 C   0  0  0  0  0  2  0  0  0  0  0  0
  189.8940  175.6490  147.3360 C   0  0  2  0  0  3  0  0  0  0  0  0
  189.3100  174.8360  146.1960 C   0  0  0  0  0  2  0  0  0  0  0  0
  188.3990  175.7420  147.0030 C   0  0  2  0  0  3  0  0  0  0  0  0
  190.7550  176.7740  146.7760 C   0  0  0  0  0  2  0  0  0  0  0  0
  191.7380  176.2420  145.9430 O   0  0  0  0  0  1  0  0  0  0  0  0
  2  6  1  0  0  0  0
  2  3  1  0  0  0  0
  3  8  1  0  0  0  0
  3  7  2  0  0  0  0
  5  7  1  0  0  0  0
  5  4  1  0  0  0  0
  6  5  2  0  0  0  0
  7  1  1  0  0  0  0
  8  9  3  0  0  0  0
 11 13  1  0  0  0  0
 12 10  1  6  0  0  0
 12 17  1  0  0  0  0
 14 16  1  0  0  0  0
 15 14  1  6  0  0  0
 15 18  1  0  0  0  0
 15 12  1  0  0  0  0
 16  9  1  1  0  0  0
 16 10  1  0  0  0  0
 17 13  1  0  0  0  0
 18 11  1  0  0  0  0
 19  4  1  6  0  0  0
 19 23  1  0  0  0  0
 20 21  2  0  0  0  0
 21 19  1  0  0  0  0
 21 22  1  0  0  0  0
 23 24  1  0  0  0  0
 25 28  1  6  0  0  0
 26 27  1  0  0  0  0
 26 25  1  0  0  0  0
 27 24  1  6  0  0  0
 27 25  1  0  0  0  0
 29 28  1  0  0  0  0
M  END
>  <MODEL>
6

>  <REMARK>
 VINA RESULT:      -6.0      2.369      4.093
  Name = 
  8 active torsions:
  status: ('A' for Active; 'I' for Inactive)
    1  A    between atoms: C_3  and  C_14
    2  A    between atoms: C_4  and  C_9
    3  A    between atoms: O_6  and  C_20
    4  A    between atoms: O_6  and  C_22
    5  A    between atoms: C_13  and  C_22
    6  A    between atoms: N_15  and  C_22
    7  A    between atoms: C_17  and  C_26
    8  A    between atoms: C_20  and  C_21
                            x       y       z     vdW  Elec       q    Type
                         _______ _______ _______ _____ _____    ______ ____

>  <TORSDO>
F 8

$$$$
=
 OpenBabel11062422463D

 29 32  0  0  1  0  0  0  0  0999 V2000
  192.9330  173.8500  145.6190 O   0  0  0  0  0  1  0  0  0  0  0  0
  190.1910  172.6030  143.3220 S   0  0  0  0  0  0  0  0  0  0  0  0
  190.8550  173.7240  144.3560 C   0  0  0  0  0  0  0  0  0  0  0  0
  193.6100  171.2580  144.2800 N   0  0  0  0  0  2  0  0  0  0  0  0
  192.3800  171.9670  144.1010 C   0  0  0  0  0  0  0  0  0  0  0  0
  191.4080  171.4680  143.2940 N   0  0  0  0  0  0  0  0  0  0  0  0
  192.0880  173.2100  144.7180 C   0  0  0  0  0  0  0  0  0  0  0  0
  190.2900  174.9840  144.7430 C   0  0  0  0  0  0  0  0  0  0  0  0
  189.8340  176.0480  145.0820 C   0  0  0  0  0  0  0  0  0  0  0  0
  188.3890  177.8980  144.4140 C   0  0  0  0  0  2  0  0  0  0  0  0
  184.4430  178.2730  146.5250 S   0  0  0  0  0  0  0  0  0  0  0  0
  187.0290  177.6420  144.8490 N   0  0  1  0  0  0  0  0  0  0  0  0
  184.7000  178.2890  144.7060 C   0  0  0  0  0  2  0  0  0  0  0  0
  188.3950  177.1390  146.7080 C   0  0  0  0  0  2  0  0  0  0  0  0
  187.1060  177.7960  146.2860 C   0  0  2  0  0  3  0  0  0  0  0  0
  189.2990  177.3430  145.5050 C   0  0  1  0  0  3  0  0  0  0  0  0
  186.1340  178.6730  144.3470 C   0  0  0  0  0  2  0  0  0  0  0  0
  185.8700  177.1980  146.9250 C   0  0  0  0  0  2  0  0  0  0  0  0
  194.8470  171.8890  144.7200 C   0  0  1  0  0  3  0  0  0  0  0  0
  196.8100  171.3020  146.1510 O   0  0  0  0  0  0  0  0  0  0  0  0
  195.5130  171.0250  145.7360 C   0  0  0  0  0  0  0  0  0  0  0  0
  194.9000  170.0380  146.2150 O   0  0  0  0  0  1  0  0  0  0  0  0
  195.6980  172.0640  143.6240 O   0  0  0  0  0  0  0  0  0  0  0  0
  195.5250  173.3950  143.2330 C   0  0  0  0  0  2  0  0  0  0  0  0
  195.6250  175.7520  144.2790 C   0  0  2  0  0  3  0  0  0  0  0  0
  196.9190  175.4350  143.5550 C   0  0  0  0  0  2  0  0  0  0  0  0
  196.1710  174.3190  144.2600 C   0  0  2  0  0  3  0  0  0  0  0  0
  194.5260  176.0420  143.2650 C   0  0  0  0  0  2  0  0  0  0  0  0
  193.4040  176.5480  143.9190 O   0  0  0  0  0  1  0  0  0  0  0  0
  2  3  1  0  0  0  0
  3  7  2  0  0  0  0
  3  8  1  0  0  0  0
  4 19  1  0  0  0  0
  5  4  1  0  0  0  0
  5  7  1  0  0  0  0
  6  2  1  0  0  0  0
  6  5  2  0  0  0  0
  7  1  1  0  0  0  0
  8  9  3  0  0  0  0
 10 12  1  0  0  0  0
 10 16  1  0  0  0  0
 11 18  1  0  0  0  0
 12 17  1  6  0  0  0
 12 15  1  0  0  0  0
 13 11  1  0  0  0  0
 15 14  1  1  0  0  0
 15 18  1  0  0  0  0
 16  9  1  6  0  0  0
 16 14  1  0  0  0  0
 17 13  1  0  0  0  0
 19 23  1  6  0  0  0
 19 21  1  0  0  0  0
 21 20  2  0  0  0  0
 21 22  1  0  0  0  0
 24 23  1  0  0  0  0
 25 28  1  6  0  0  0
 26 27  1  0  0  0  0
 26 25  1  0  0  0  0
 27 24  1  6  0  0  0
 27 25  1  0  0  0  0
 28 29  1  0  0  0  0
M  END
>  <MODEL>
7

>  <REMARK>
 VINA RESULT:      -5.9      3.866      9.437
  Name = 
  8 active torsions:
  status: ('A' for Active; 'I' for Inactive)
    1  A    between atoms: C_3  and  C_14
    2  A    between atoms: C_4  and  C_9
    3  A    between atoms: O_6  and  C_20
    4  A    between atoms: O_6  and  C_22
    5  A    between atoms: C_13  and  C_22
    6  A    between atoms: N_15  and  C_22
    7  A    between atoms: C_17  and  C_26
    8  A    between atoms: C_20  and  C_21
                            x       y       z     vdW  Elec       q    Type
                         _______ _______ _______ _____ _____    ______ ____

>  <TORSDO>
F 8

$$$$
=
 OpenBabel11062422463D

 29 32  0  0  1  0  0  0  0  0999 V2000
  189.8570  177.6500  143.5010 O   0  0  0  0  0  1  0  0  0  0  0  0
  189.7030  174.2370  141.8650 S   0  0  0  0  0  0  0  0  0  0  0  0
  190.5260  175.5630  142.4410 C   0  0  0  0  0  0  0  0  0  0  0  0
  187.0800  176.5370  143.3660 N   0  0  0  0  0  2  0  0  0  0  0  0
  188.2450  175.8780  142.8600 C   0  0  0  0  0  0  0  0  0  0  0  0
  188.1410  174.6680  142.2490 N   0  0  0  0  0  0  0  0  0  0  0  0
  189.5580  176.4050  142.9610 C   0  0  0  0  0  0  0  0  0  0  0  0
  191.9470  175.7630  142.4470 C   0  0  0  0  0  0  0  0  0  0  0  0
  193.1390  175.9360  142.4750 C   0  0  0  0  0  0  0  0  0  0  0  0
  195.2850  174.8280  142.8280 C   0  0  0  0  0  2  0  0  0  0  0  0
  197.9170  174.2810  139.2300 S   0  0  0  0  0  0  0  0  0  0  0  0
  195.8060  174.3490  141.5610 N   0  0  1  0  0  0  0  0  0  0  0  0
  197.4520  172.9760  140.4360 C   0  0  0  0  0  2  0  0  0  0  0  0
  195.0820  176.5600  141.1550 C   0  0  0  0  0  2  0  0  0  0  0  0
  196.1820  175.5680  140.8750 C   0  0  2  0  0  3  0  0  0  0  0  0
  194.5860  176.1510  142.5310 C   0  0  1  0  0  3  0  0  0  0  0  0
  197.0200  173.5760  141.7730 C   0  0  0  0  0  2  0  0  0  0  0  0
  196.3900  175.2760  139.4040 C   0  0  0  0  0  2  0  0  0  0  0  0
  187.1190  177.5580  144.4040 C   0  0  1  0  0  3  0  0  0  0  0  0
  185.3070  179.1200  145.1270 O   0  0  0  0  0  1  0  0  0  0  0  0
  186.1030  178.6080  144.1090 C   0  0  0  0  0  0  0  0  0  0  0  0
  185.9610  179.0270  142.9320 O   0  0  0  0  0  0  0  0  0  0  0  0
  186.8440  176.9740  145.6450 O   0  0  0  0  0  0  0  0  0  0  0  0
  188.0480  177.0300  146.3520 C   0  0  0  0  0  2  0  0  0  0  0  0
  189.7980  175.4620  147.4200 C   0  0  2  0  0  3  0  0  0  0  0  0
  189.3310  174.9110  146.0870 C   0  0  0  0  0  2  0  0  0  0  0  0
  188.3480  175.6650  146.9630 C   0  0  2  0  0  3  0  0  0  0  0  0
  190.7240  176.6490  147.1890 C   0  0  0  0  0  2  0  0  0  0  0  0
  191.3700  176.9790  148.3800 O   0  0  0  0  0  1  0  0  0  0  0  0
  2  6  1  0  0  0  0
  2  3  1  0  0  0  0
  3  8  1  0  0  0  0
  3  7  2  0  0  0  0
  5  7  1  0  0  0  0
  5  4  1  0  0  0  0
  6  5  2  0  0  0  0
  7  1  1  0  0  0  0
  8  9  3  0  0  0  0
 11 18  1  0  0  0  0
 11 13  1  0  0  0  0
 12 17  1  1  0  0  0
 12 10  1  0  0  0  0
 13 17  1  0  0  0  0
 14 16  1  0  0  0  0
 15 18  1  6  0  0  0
 15 14  1  0  0  0  0
 15 12  1  0  0  0  0
 16  9  1  6  0  0  0
 16 10  1  0  0  0  0
 19  4  1  6  0  0  0
 19 23  1  0  0  0  0
 21 19  1  0  0  0  0
 21 20  1  0  0  0  0
 22 21  2  0  0  0  0
 23 24  1  0  0  0  0
 25 28  1  6  0  0  0
 26 27  1  0  0  0  0
 26 25  1  0  0  0  0
 27 24  1  6  0  0  0
 27 25  1  0  0  0  0
 28 29  1  0  0  0  0
M  END
>  <MODEL>
8

>  <REMARK>
 VINA RESULT:      -5.8      2.571      4.097
  Name = 
  8 active torsions:
  status: ('A' for Active; 'I' for Inactive)
    1  A    between atoms: C_3  and  C_14
    2  A    between atoms: C_4  and  C_9
    3  A    between atoms: O_6  and  C_20
    4  A    between atoms: O_6  and  C_22
    5  A    between atoms: C_13  and  C_22
    6  A    between atoms: N_15  and  C_22
    7  A    between atoms: C_17  and  C_26
    8  A    between atoms: C_20  and  C_21
                            x       y       z     vdW  Elec       q    Type
                         _______ _______ _______ _____ _____    ______ ____

>  <TORSDO>
F 8

$$$$
=
 OpenBabel11062422463D

 29 32  0  0  1  0  0  0  0  0999 V2000
  193.5620  175.4910  142.7280 O   0  0  0  0  0  1  0  0  0  0  0  0
  193.3330  176.7180  146.3050 S   0  0  0  0  0  0  0  0  0  0  0  0
  192.6650  176.1270  144.9000 C   0  0  0  0  0  0  0  0  0  0  0  0
  196.2330  176.1220  143.9260 N   0  0  0  0  0  2  0  0  0  0  0  0
  194.9820  176.2730  144.6050 C   0  0  0  0  0  0  0  0  0  0  0  0
  194.9420  176.7490  145.8770 N   0  0  0  0  0  0  0  0  0  0  0  0
  193.7280  175.9380  144.0340 C   0  0  0  0  0  0  0  0  0  0  0  0
  191.2840  175.8220  144.6620 C   0  0  0  0  0  0  0  0  0  0  0  0
  190.1240  175.5770  144.4400 C   0  0  0  0  0  0  0  0  0  0  0  0
  187.8470  176.4220  144.6790 C   0  0  0  0  0  2  0  0  0  0  0  0
  185.8240  177.9180  140.9590 S   0  0  0  0  0  0  0  0  0  0  0  0
  187.5030  177.2400  143.5300 N   0  0  1  0  0  0  0  0  0  0  0  0
  185.9400  178.8130  142.5590 C   0  0  0  0  0  2  0  0  0  0  0  0
  188.5090  175.2960  142.6460 C   0  0  0  0  0  2  0  0  0  0  0  0
  187.3770  176.2730  142.4600 C   0  0  2  0  0  3  0  0  0  0  0  0
  188.7190  175.2880  144.1500 C   0  0  1  0  0  3  0  0  0  0  0  0
  186.1980  177.8540  143.7190 C   0  0  0  0  0  2  0  0  0  0  0  0
  187.3930  176.9910  141.1270 C   0  0  0  0  0  2  0  0  0  0  0  0
  196.4330  175.2260  142.7960 C   0  0  1  0  0  3  0  0  0  0  0  0
  196.0670  177.1660  141.2640 O   0  0  0  0  0  1  0  0  0  0  0  0
  196.7860  176.0210  141.5850 C   0  0  0  0  0  0  0  0  0  0  0  0
  197.7340  175.6490  140.8480 O   0  0  0  0  0  0  0  0  0  0  0  0
  197.4670  174.3300  143.0860 O   0  0  0  0  0  0  0  0  0  0  0  0
  196.8330  173.1650  143.5260 C   0  0  0  0  0  2  0  0  0  0  0  0
  196.5500  171.9000  145.7580 C   0  0  2  0  0  3  0  0  0  0  0  0
  196.8160  173.3710  146.0090 C   0  0  0  0  0  2  0  0  0  0  0  0
  197.4760  172.6900  144.8250 C   0  0  2  0  0  3  0  0  0  0  0  0
  195.1240  171.7150  145.2530 C   0  0  0  0  0  2  0  0  0  0  0  0
  194.3110  172.7260  145.7620 O   0  0  0  0  0  1  0  0  0  0  0  0
  1  7  1  0  0  0  0
  3  2  1  0  0  0  0
  4  5  1  0  0  0  0
  5  6  2  0  0  0  0
  6  2  1  0  0  0  0
  7  5  1  0  0  0  0
  7  3  2  0  0  0  0
  8  3  1  0  0  0  0
  9  8  3  0  0  0  0
 11 18  1  0  0  0  0
 11 13  1  0  0  0  0
 12 17  1  1  0  0  0
 12 10  1  0  0  0  0
 13 17  1  0  0  0  0
 14 16  1  0  0  0  0
 15 18  1  6  0  0  0
 15 14  1  0  0  0  0
 15 12  1  0  0  0  0
 16  9  1  6  0  0  0
 16 10  1  0  0  0  0
 19 21  1  6  0  0  0
 19 23  1  0  0  0  0
 19  4  1  0  0  0  0
 20 21  1  0  0  0  0
 22 21  2  0  0  0  0
 23 24  1  0  0  0  0
 25 28  1  6  0  0  0
 25 26  1  0  0  0  0
 27 24  1  6  0  0  0
 27 25  1  0  0  0  0
 27 26  1  0  0  0  0
 28 29  1  0  0  0  0
M  END
>  <MODEL>
9

>  <REMARK>
 VINA RESULT:      -5.8      3.644      9.419
  Name = 
  8 active torsions:
  status: ('A' for Active; 'I' for Inactive)
    1  A    between atoms: C_3  and  C_14
    2  A    between atoms: C_4  and  C_9
    3  A    between atoms: O_6  and  C_20
    4  A    between atoms: O_6  and  C_22
    5  A    between atoms: C_13  and  C_22
    6  A    between atoms: N_15  and  C_22
    7  A    between atoms: C_17  and  C_26
    8  A    between atoms: C_20  and  C_21
                            x       y       z     vdW  Elec       q    Type
                         _______ _______ _______ _____ _____    ______ ____

>  <TORSDO>
F 8

$$$$
