=
 OpenBabel11072408473D

 36 40  0  0  1  0  0  0  0  0999 V2000
  190.4160  172.0400  142.2050 C   0  0  1  0  0  3  0  0  0  0  0  0
  190.3580  173.5910  140.4210 C   0  0  1  0  0  3  0  0  0  0  0  0
  188.3940  174.6360  141.1920 C   0  0  2  0  0  3  0  0  0  0  0  0
  188.6110  172.1480  139.2000 C   0  0  0  0  0  1  0  0  0  0  0  0
  191.6060  171.4650  140.0890 C   0  0  0  0  0  2  0  0  0  0  0  0
  189.3210  173.4950  139.2980 C   0  0  0  0  0  0  0  0  0  0  0  0
  189.6840  174.0880  141.6170 N   0  0  1  0  0  0  0  0  0  0  0  0
  189.4180  173.0190  142.4380 O   0  0  0  0  0  0  0  0  0  0  0  0
  189.9530  173.8390  137.9650 C   0  0  0  0  0  1  0  0  0  0  0  0
  190.9620  172.3340  140.8670 C   0  0  0  0  0  0  0  0  0  0  0  0
  188.3140  174.5430  139.6760 C   0  0  0  0  0  2  0  0  0  0  0  0
  187.8760  177.5450  143.5940 N   0  0  0  0  0  2  0  0  0  0  0  0
  186.9200  178.1970  141.4140 C   0  0  0  0  0  2  0  0  0  0  0  0
  187.0950  176.7670  140.9120 C   0  0  0  0  0  2  0  0  0  0  0  0
  186.7500  178.2270  142.9400 C   0  0  1  0  0  3  0  0  0  0  0  0
  187.9590  176.1520  143.1510 C   0  0  0  0  0  2  0  0  0  0  0  0
  188.2460  176.0870  141.6520 C   0  0  1  0  0  3  0  0  0  0  0  0
  185.3870  177.6780  143.4020 C   0  0  2  0  0  3  0  0  0  0  0  0
  184.4980  177.6720  142.3220 O   0  0  0  0  0  1  0  0  0  0  0  0
  185.1190  179.8650  144.3910 O   0  0  0  0  0  1  0  0  0  0  0  0
  184.7960  178.5150  144.5450 C   0  0  2  0  0  3  0  0  0  0  0  0
  185.3620  176.7410  146.1320 C   0  0  0  0  0  2  0  0  0  0  0  0
  185.2810  178.0450  145.8840 C   0  0  0  0  0  0  0  0  0  0  0  0
  185.6390  179.0200  146.9560 C   0  0  0  0  0  1  0  0  0  0  0  0
  191.4950  172.1160  143.2910 C   0  0  2  0  0  3  0  0  0  0  0  0
  192.0650  170.7370  143.5820 C   0  0  0  0  0  1  0  0  0  0  0  0
  190.9110  172.6900  144.5750 C   0  0  0  0  0  2  0  0  0  0  0  0
  189.0300  176.1580  146.8820 C   0  0  0  0  0  3  0  0  0  0  0  0
  190.9700  176.2950  145.6580 C   0  0  0  0  0  0  0  0  0  0  0  0
  189.3160  174.7680  146.2730 C   0  0  0  0  0  3  0  0  0  0  0  0
  190.0930  177.0050  146.4470 O   0  0  0  0  0  0  0  0  0  0  0  0
  192.8740  175.8720  144.2830 C   0  0  0  0  0  3  0  0  0  0  0  0
  191.3350  174.1090  144.7600 C   0  0  0  0  0  0  0  0  0  0  0  0
  192.4680  174.5730  144.1530 N   0  0  0  0  0  0  0  0  0  0  0  0
  190.5760  174.9990  145.5210 C   0  0  0  0  0  0  0  0  0  0  0  0
  192.1250  176.7780  145.0510 C   0  0  0  0  0  3  0  0  0  0  0  0
  1  8  1  0  0  0  0
  1 25  1  1  0  0  0
  2 10  1  1  0  0  0
  2  7  1  0  0  0  0
  3 11  1  6  0  0  0
  3  7  1  0  0  0  0
  3 17  1  0  0  0  0
  4  6  1  0  0  0  0
  5 10  2  0  0  0  0
  6 11  1  0  0  0  0
  6  2  1  0  0  0  0
  7  8  1  1  0  0  0
  9  6  1  0  0  0  0
 10  1  1  0  0  0  0
 13 15  1  0  0  0  0
 14 13  1  0  0  0  0
 15 18  1  6  0  0  0
 15 12  1  0  0  0  0
 16 12  1  0  0  0  0
 17 14  1  6  0  0  0
 17 16  1  0  0  0  0
 18 19  1  6  0  0  0
 18 21  1  0  0  0  0
 21 20  1  6  0  0  0
 21 23  1  0  0  0  0
 23 22  2  0  0  0  0
 23 24  1  0  0  0  0
 25 26  1  1  0  0  0
 25 27  1  0  0  0  0
 27 33  1  0  0  0  0
 29 31  1  0  0  0  0
 30 28  2  0  0  0  0
 31 28  1  0  0  0  0
 32 36  1  0  0  0  0
 33 35  2  0  0  0  0
 34 32  2  0  0  0  0
 34 33  1  0  0  0  0
 35 29  1  0  0  0  0
 35 30  1  0  0  0  0
 36 29  2  0  0  0  0
M  END
>  <MODEL>
1

>  <REMARK>
 VINA RESULT:      -7.7      0.000      0.000
  Name = 
  7 active torsions:
  status: ('A' for Active; 'I' for Inactive)
    1  A    between atoms: C_2  and  C_21
    2  A    between atoms: C_2  and  C_35
    3  A    between atoms: C_3  and  C_13
    4  A    between atoms: C_7  and  C_35
    5  A    between atoms: C_9  and  C_26
    6  A    between atoms: C_13  and  C_16
    7  A    between atoms: C_16  and  C_23
                            x       y       z     vdW  Elec       q    Type
                         _______ _______ _______ _____ _____    ______ ____

>  <TORSDO>
F 7

$$$$
=
 OpenBabel11072408473D

 36 40  0  0  1  0  0  0  0  0999 V2000
  188.1880  176.7060  147.1960 C   0  0  1  0  0  3  0  0  0  0  0  0
  190.2310  176.5360  146.0180 C   0  0  1  0  0  3  0  0  0  0  0  0
  189.8380  174.3130  145.3500 C   0  0  2  0  0  3  0  0  0  0  0  0
  191.2980  175.3060  148.0120 C   0  0  0  0  0  1  0  0  0  0  0  0
  190.0510  178.2450  147.8170 C   0  0  0  0  0  2  0  0  0  0  0  0
  191.3980  175.6910  146.5390 C   0  0  0  0  0  0  0  0  0  0  0  0
  189.2110  175.6280  145.5020 N   0  0  1  0  0  0  0  0  0  0  0  0
  188.2270  175.5000  146.4530 O   0  0  0  0  0  0  0  0  0  0  0  0
  192.7150  176.3950  146.2810 C   0  0  0  0  0  1  0  0  0  0  0  0
  189.5070  177.3370  147.0070 C   0  0  0  0  0  0  0  0  0  0  0  0
  191.3100  174.4430  145.7090 C   0  0  0  0  0  2  0  0  0  0  0  0
  189.6070  171.7900  142.5070 N   0  0  0  0  0  2  0  0  0  0  0  0
  190.5960  173.8580  141.5920 C   0  0  0  0  0  2  0  0  0  0  0  0
  190.7330  174.4160  143.0060 C   0  0  0  0  0  2  0  0  0  0  0  0
  190.6340  172.3220  141.6000 C   0  0  1  0  0  3  0  0  0  0  0  0
  189.8220  172.2790  143.8710 C   0  0  0  0  0  2  0  0  0  0  0  0
  189.6740  173.7990  143.9190 C   0  0  1  0  0  3  0  0  0  0  0  0
  192.0350  171.7600  141.9090 C   0  0  2  0  0  3  0  0  0  0  0  0
  193.0070  172.6350  141.4140 O   0  0  0  0  0  1  0  0  0  0  0  0
  191.3160  170.1430  140.2650 O   0  0  0  0  0  1  0  0  0  0  0  0
  192.2370  170.3690  141.2910 C   0  0  2  0  0  3  0  0  0  0  0  0
  191.4060  168.1890  142.0270 C   0  0  0  0  0  2  0  0  0  0  0  0
  192.1050  169.2830  142.3160 C   0  0  0  0  0  0  0  0  0  0  0  0
  192.7160  169.4270  143.6710 C   0  0  0  0  0  1  0  0  0  0  0  0
  187.0500  177.6000  146.6910 C   0  0  2  0  0  3  0  0  0  0  0  0
  186.4800  178.4400  147.8230 C   0  0  0  0  0  1  0  0  0  0  0  0
  185.9340  176.7490  146.0970 C   0  0  0  0  0  2  0  0  0  0  0  0
  187.0500  176.3190  141.6860 C   0  0  0  0  0  3  0  0  0  0  0  0
  185.4020  177.7010  142.4940 C   0  0  0  0  0  0  0  0  0  0  0  0
  186.9930  176.1570  143.2210 C   0  0  0  0  0  3  0  0  0  0  0  0
  186.0430  177.2760  141.3540 O   0  0  0  0  0  0  0  0  0  0  0  0
  183.8590  178.9180  143.8490 C   0  0  0  0  0  3  0  0  0  0  0  0
  185.3840  177.3860  144.8650 C   0  0  0  0  0  0  0  0  0  0  0  0
  184.3730  178.3000  144.9560 N   0  0  0  0  0  0  0  0  0  0  0  0
  185.9040  177.0920  143.6040 C   0  0  0  0  0  0  0  0  0  0  0  0
  184.3680  178.6290  142.5730 C   0  0  0  0  0  3  0  0  0  0  0  0
  1 25  1  6  0  0  0
  2  6  1  0  0  0  0
  2 10  1  1  0  0  0
  3  7  1  0  0  0  0
  3 11  1  6  0  0  0
  6  4  1  0  0  0  0
  7  2  1  0  0  0  0
  7  8  1  1  0  0  0
  8  1  1  0  0  0  0
  9  6  1  0  0  0  0
 10  1  1  0  0  0  0
 10  5  2  0  0  0  0
 11  6  1  0  0  0  0
 12 16  1  0  0  0  0
 13 15  1  0  0  0  0
 13 14  1  0  0  0  0
 15 18  1  1  0  0  0
 15 12  1  0  0  0  0
 16 17  1  0  0  0  0
 17 14  1  6  0  0  0
 17  3  1  0  0  0  0
 18 19  1  6  0  0  0
 21 20  1  6  0  0  0
 21 18  1  0  0  0  0
 21 23  1  0  0  0  0
 22 23  2  0  0  0  0
 23 24  1  0  0  0  0
 25 26  1  1  0  0  0
 27 25  1  0  0  0  0
 28 30  2  0  0  0  0
 29 36  2  0  0  0  0
 29 35  1  0  0  0  0
 30 35  1  0  0  0  0
 31 28  1  0  0  0  0
 31 29  1  0  0  0  0
 32 34  2  0  0  0  0
 33 34  1  0  0  0  0
 33 27  1  0  0  0  0
 35 33  2  0  0  0  0
 36 32  1  0  0  0  0
M  END
>  <MODEL>
2

>  <REMARK>
 VINA RESULT:      -7.3      2.050      8.041
  Name = 
  7 active torsions:
  status: ('A' for Active; 'I' for Inactive)
    1  A    between atoms: C_2  and  C_21
    2  A    between atoms: C_2  and  C_35
    3  A    between atoms: C_3  and  C_13
    4  A    between atoms: C_7  and  C_35
    5  A    between atoms: C_9  and  C_26
    6  A    between atoms: C_13  and  C_16
    7  A    between atoms: C_16  and  C_23
                            x       y       z     vdW  Elec       q    Type
                         _______ _______ _______ _____ _____    ______ ____

>  <TORSDO>
F 7

$$$$
=
 OpenBabel11072408473D

 36 40  0  0  1  0  0  0  0  0999 V2000
  192.8530  175.4700  146.7360 C   0  0  1  0  0  3  0  0  0  0  0  0
  194.0530  175.5430  144.7000 C   0  0  1  0  0  3  0  0  0  0  0  0
  193.6110  173.2900  144.1820 C   0  0  2  0  0  3  0  0  0  0  0  0
  196.0850  174.4480  145.8390 C   0  0  0  0  0  1  0  0  0  0  0  0
  194.6100  177.2190  146.4530 C   0  0  0  0  0  2  0  0  0  0  0  0
  195.4050  174.8430  144.5310 C   0  0  0  0  0  0  0  0  0  0  0  0
  193.0100  174.5210  144.6990 N   0  0  1  0  0  0  0  0  0  0  0  0
  192.6440  174.2770  146.0010 O   0  0  0  0  0  0  0  0  0  0  0  0
  196.3420  175.6970  143.7030 C   0  0  0  0  0  1  0  0  0  0  0  0
  193.8340  176.2530  145.9620 C   0  0  0  0  0  0  0  0  0  0  0  0
  195.0470  173.5920  143.7800 C   0  0  0  0  0  2  0  0  0  0  0  0
  191.1860  173.3480  141.2470 N   0  0  0  0  0  2  0  0  0  0  0  0
  191.1240  171.0820  142.2220 C   0  0  0  0  0  2  0  0  0  0  0  0
  191.9530  171.5710  143.4070 C   0  0  0  0  0  2  0  0  0  0  0  0
  190.3060  172.2290  141.6130 C   0  0  1  0  0  3  0  0  0  0  0  0
  191.9000  173.8450  142.4250 C   0  0  0  0  0  2  0  0  0  0  0  0
  192.8160  172.7600  142.9880 C   0  0  1  0  0  3  0  0  0  0  0  0
  189.1370  172.6760  142.5130 C   0  0  2  0  0  3  0  0  0  0  0  0
  188.8030  171.6390  143.3890 O   0  0  0  0  0  1  0  0  0  0  0  0
  188.0360  172.6420  140.3630 O   0  0  0  0  0  1  0  0  0  0  0  0
  187.9020  173.0650  141.6880 C   0  0  2  0  0  3  0  0  0  0  0  0
  186.9130  175.0770  142.6670 C   0  0  0  0  0  2  0  0  0  0  0  0
  187.6660  174.5450  141.7080 C   0  0  0  0  0  0  0  0  0  0  0  0
  188.2350  175.4280  140.6470 C   0  0  0  0  0  1  0  0  0  0  0  0
  191.5290  176.2240  146.9070 C   0  0  2  0  0  3  0  0  0  0  0  0
  191.3670  176.7130  148.3380 C   0  0  0  0  0  1  0  0  0  0  0  0
  190.3560  175.3160  146.5600 C   0  0  0  0  0  2  0  0  0  0  0  0
  189.7170  177.8860  142.8350 C   0  0  0  0  0  3  0  0  0  0  0  0
  188.1640  177.5810  144.5020 C   0  0  0  0  0  0  0  0  0  0  0  0
  190.3270  176.9450  143.8980 C   0  0  0  0  0  3  0  0  0  0  0  0
  188.4060  178.2080  143.3010 O   0  0  0  0  0  0  0  0  0  0  0  0
  186.9730  176.9290  146.4640 C   0  0  0  0  0  3  0  0  0  0  0  0
  189.1870  176.1180  146.0930 C   0  0  0  0  0  0  0  0  0  0  0  0
  188.0540  176.1870  146.8520 N   0  0  0  0  0  0  0  0  0  0  0  0
  189.2340  176.8370  144.8980 C   0  0  0  0  0  0  0  0  0  0  0  0
  187.0020  177.6540  145.2620 C   0  0  0  0  0  3  0  0  0  0  0  0
  1 25  1  6  0  0  0
  2 10  1  1  0  0  0
  3 11  1  6  0  0  0
  3  7  1  0  0  0  0
  6  2  1  0  0  0  0
  6  4  1  0  0  0  0
  7  2  1  0  0  0  0
  7  8  1  1  0  0  0
  8  1  1  0  0  0  0
  9  6  1  0  0  0  0
 10  5  2  0  0  0  0
 10  1  1  0  0  0  0
 11  6  1  0  0  0  0
 12 15  1  0  0  0  0
 12 16  1  0  0  0  0
 13 14  1  0  0  0  0
 15 13  1  0  0  0  0
 15 18  1  1  0  0  0
 17 16  1  1  0  0  0
 17 14  1  0  0  0  0
 17  3  1  0  0  0  0
 18 19  1  1  0  0  0
 21 20  1  6  0  0  0
 21 23  1  0  0  0  0
 21 18  1  0  0  0  0
 23 22  2  0  0  0  0
 24 23  1  0  0  0  0
 25 26  1  1  0  0  0
 27 25  1  0  0  0  0
 28 31  1  0  0  0  0
 28 30  2  0  0  0  0
 29 35  2  0  0  0  0
 29 36  1  0  0  0  0
 30 35  1  0  0  0  0
 31 29  1  0  0  0  0
 32 34  1  0  0  0  0
 33 27  1  0  0  0  0
 33 34  2  0  0  0  0
 35 33  1  0  0  0  0
 36 32  2  0  0  0  0
M  END
>  <MODEL>
3

>  <REMARK>
 VINA RESULT:      -7.2      2.218      6.387
  Name = 
  7 active torsions:
  status: ('A' for Active; 'I' for Inactive)
    1  A    between atoms: C_2  and  C_21
    2  A    between atoms: C_2  and  C_35
    3  A    between atoms: C_3  and  C_13
    4  A    between atoms: C_7  and  C_35
    5  A    between atoms: C_9  and  C_26
    6  A    between atoms: C_13  and  C_16
    7  A    between atoms: C_16  and  C_23
                            x       y       z     vdW  Elec       q    Type
                         _______ _______ _______ _____ _____    ______ ____

>  <TORSDO>
F 7

$$$$
=
 OpenBabel11072408473D

 36 40  0  0  1  0  0  0  0  0999 V2000
  191.0450  175.4500  146.3410 C   0  0  1  0  0  3  0  0  0  0  0  0
  192.1370  174.8520  144.3310 C   0  0  1  0  0  3  0  0  0  0  0  0
  191.0780  172.7530  144.2010 C   0  0  2  0  0  3  0  0  0  0  0  0
  193.8390  173.4450  145.6540 C   0  0  0  0  0  1  0  0  0  0  0  0
  193.2000  176.5760  145.7760 C   0  0  0  0  0  2  0  0  0  0  0  0
  193.2390  173.7890  144.2930 C   0  0  0  0  0  0  0  0  0  0  0  0
  190.8570  174.1710  144.4970 N   0  0  1  0  0  0  0  0  0  0  0  0
  190.4900  174.2560  145.8180 O   0  0  0  0  0  0  0  0  0  0  0  0
  194.3390  174.2020  143.3370 C   0  0  0  0  0  1  0  0  0  0  0  0
  192.1700  175.7930  145.4510 C   0  0  0  0  0  0  0  0  0  0  0  0
  192.5240  172.5790  143.7630 C   0  0  0  0  0  2  0  0  0  0  0  0
  189.9350  171.6540  140.7400 N   0  0  0  0  0  2  0  0  0  0  0  0
  188.0330  172.7870  141.8290 C   0  0  0  0  0  2  0  0  0  0  0  0
  188.9540  173.2460  142.9560 C   0  0  0  0  0  2  0  0  0  0  0  0
  188.8180  172.5840  140.5250 C   0  0  1  0  0  3  0  0  0  0  0  0
  190.8430  172.1690  141.7660 C   0  0  0  0  0  2  0  0  0  0  0  0
  190.1220  172.2730  143.1090 C   0  0  1  0  0  3  0  0  0  0  0  0
  189.2760  173.9100  139.8890 C   0  0  2  0  0  3  0  0  0  0  0  0
  188.3860  174.9280  140.2450 O   0  0  0  0  0  1  0  0  0  0  0  0
  188.3010  173.0380  137.8590 O   0  0  0  0  0  1  0  0  0  0  0  0
  189.3520  173.8100  138.3590 C   0  0  2  0  0  3  0  0  0  0  0  0
  191.7980  173.7630  138.3080 C   0  0  0  0  0  2  0  0  0  0  0  0
  190.6530  173.2180  137.9070 C   0  0  0  0  0  0  0  0  0  0  0  0
  190.6830  172.0460  136.9810 C   0  0  0  0  0  1  0  0  0  0  0  0
  189.9840  176.5570  146.3720 C   0  0  2  0  0  3  0  0  0  0  0  0
  190.1990  177.4770  147.5630 C   0  0  0  0  0  1  0  0  0  0  0  0
  188.5910  175.9480  146.4620 C   0  0  0  0  0  2  0  0  0  0  0  0
  184.4500  177.8820  146.5310 C   0  0  0  0  0  3  0  0  0  0  0  0
  185.6740  177.4690  144.6310 C   0  0  0  0  0  0  0  0  0  0  0  0
  185.7870  177.2290  146.9490 C   0  0  0  0  0  3  0  0  0  0  0  0
  184.4890  177.9800  145.1070 O   0  0  0  0  0  0  0  0  0  0  0  0
  187.3340  176.8270  143.0400 C   0  0  0  0  0  3  0  0  0  0  0  0
  187.7170  176.4680  145.3690 C   0  0  0  0  0  0  0  0  0  0  0  0
  188.1180  176.3800  144.0670 N   0  0  0  0  0  0  0  0  0  0  0  0
  186.4660  177.0210  145.6440 C   0  0  0  0  0  0  0  0  0  0  0  0
  186.0750  177.3910  143.3000 C   0  0  0  0  0  3  0  0  0  0  0  0
  1 25  1  6  0  0  0
  2  7  1  0  0  0  0
  2 10  1  1  0  0  0
  3 11  1  6  0  0  0
  3  7  1  0  0  0  0
  6  2  1  0  0  0  0
  6  4  1  0  0  0  0
  7  8  1  1  0  0  0
  8  1  1  0  0  0  0
  9  6  1  0  0  0  0
 10  5  2  0  0  0  0
 10  1  1  0  0  0  0
 11  6  1  0  0  0  0
 12 16  1  0  0  0  0
 13 14  1  0  0  0  0
 14 17  1  0  0  0  0
 15 18  1  1  0  0  0
 15 12  1  0  0  0  0
 15 13  1  0  0  0  0
 17 16  1  6  0  0  0
 17  3  1  0  0  0  0
 18 19  1  6  0  0  0
 21 20  1  1  0  0  0
 21 18  1  0  0  0  0
 23 22  2  0  0  0  0
 23 21  1  0  0  0  0
 24 23  1  0  0  0  0
 25 27  1  0  0  0  0
 25 26  1  1  0  0  0
 28 30  2  0  0  0  0
 29 31  1  0  0  0  0
 29 35  1  0  0  0  0
 31 28  1  0  0  0  0
 32 36  1  0  0  0  0
 32 34  2  0  0  0  0
 33 35  2  0  0  0  0
 33 27  1  0  0  0  0
 34 33  1  0  0  0  0
 35 30  1  0  0  0  0
 36 29  2  0  0  0  0
M  END
>  <MODEL>
4

>  <REMARK>
 VINA RESULT:      -7.1      1.808      6.627
  Name = 
  7 active torsions:
  status: ('A' for Active; 'I' for Inactive)
    1  A    between atoms: C_2  and  C_21
    2  A    between atoms: C_2  and  C_35
    3  A    between atoms: C_3  and  C_13
    4  A    between atoms: C_7  and  C_35
    5  A    between atoms: C_9  and  C_26
    6  A    between atoms: C_13  and  C_16
    7  A    between atoms: C_16  and  C_23
                            x       y       z     vdW  Elec       q    Type
                         _______ _______ _______ _____ _____    ______ ____

>  <TORSDO>
F 7

$$$$
=
 OpenBabel11072408473D

 36 40  0  0  1  0  0  0  0  0999 V2000
  192.7100  175.7870  146.9140 C   0  0  1  0  0  3  0  0  0  0  0  0
  193.4280  175.2490  144.7260 C   0  0  1  0  0  3  0  0  0  0  0  0
  192.7590  172.9980  144.8960 C   0  0  2  0  0  3  0  0  0  0  0  0
  195.6000  174.2390  145.6690 C   0  0  0  0  0  1  0  0  0  0  0  0
  194.4530  177.2190  145.8470 C   0  0  0  0  0  2  0  0  0  0  0  0
  194.6670  174.3860  144.4700 C   0  0  0  0  0  0  0  0  0  0  0  0
  192.3570  174.3740  145.1950 N   0  0  1  0  0  0  0  0  0  0  0  0
  192.2770  174.4840  146.5620 O   0  0  0  0  0  0  0  0  0  0  0  0
  195.4410  174.9140  143.2800 C   0  0  0  0  0  1  0  0  0  0  0  0
  193.5350  176.2540  145.7840 C   0  0  0  0  0  0  0  0  0  0  0  0
  194.0830  173.0400  144.1480 C   0  0  0  0  0  2  0  0  0  0  0  0
  191.0680  171.5710  141.7970 N   0  0  0  0  0  2  0  0  0  0  0  0
  189.2920  172.3130  143.3420 C   0  0  0  0  0  2  0  0  0  0  0  0
  190.3410  172.9920  144.2180 C   0  0  0  0  0  2  0  0  0  0  0  0
  189.7610  172.2380  141.8810 C   0  0  1  0  0  3  0  0  0  0  0  0
  192.0680  172.2990  142.5810 C   0  0  0  0  0  2  0  0  0  0  0  0
  191.6900  172.2910  144.0610 C   0  0  1  0  0  3  0  0  0  0  0  0
  189.7580  173.6100  141.1810 C   0  0  2  0  0  3  0  0  0  0  0  0
  188.9210  174.4870  141.8780 O   0  0  0  0  0  1  0  0  0  0  0  0
  188.1870  172.6460  139.6200 O   0  0  0  0  0  1  0  0  0  0  0  0
  189.2860  173.5020  139.7240 C   0  0  2  0  0  3  0  0  0  0  0  0
  190.1400  171.9950  137.9970 C   0  0  0  0  0  2  0  0  0  0  0  0
  190.3780  173.0110  138.8220 C   0  0  0  0  0  0  0  0  0  0  0  0
  191.7400  173.6210  138.8620 C   0  0  0  0  0  1  0  0  0  0  0  0
  191.5010  176.6980  147.1540 C   0  0  2  0  0  3  0  0  0  0  0  0
  191.4810  177.2030  148.5870 C   0  0  0  0  0  1  0  0  0  0  0  0
  190.2080  175.9420  146.8780 C   0  0  0  0  0  2  0  0  0  0  0  0
  185.7700  176.9100  146.3690 C   0  0  0  0  0  3  0  0  0  0  0  0
  187.3940  177.3320  144.7990 C   0  0  0  0  0  0  0  0  0  0  0  0
  187.1270  176.4400  146.9390 C   0  0  0  0  0  3  0  0  0  0  0  0
  186.0490  177.4340  145.0700 O   0  0  0  0  0  0  0  0  0  0  0  0
  189.4320  177.5340  143.5730 C   0  0  0  0  0  3  0  0  0  0  0  0
  189.4500  176.5800  145.7620 C   0  0  0  0  0  0  0  0  0  0  0  0
  190.0980  176.9650  144.6230 N   0  0  0  0  0  0  0  0  0  0  0  0
  188.0700  176.7680  145.8390 C   0  0  0  0  0  0  0  0  0  0  0  0
  188.0440  177.7350  143.6360 C   0  0  0  0  0  3  0  0  0  0  0  0
  1 25  1  6  0  0  0
  2  7  1  0  0  0  0
  2 10  1  1  0  0  0
  3 11  1  6  0  0  0
  3  7  1  0  0  0  0
  6  2  1  0  0  0  0
  6  4  1  0  0  0  0
  7  8  1  1  0  0  0
  8  1  1  0  0  0  0
  9  6  1  0  0  0  0
 10  5  2  0  0  0  0
 10  1  1  0  0  0  0
 11  6  1  0  0  0  0
 12 15  1  0  0  0  0
 12 16  1  0  0  0  0
 13 14  1  0  0  0  0
 15 18  1  1  0  0  0
 15 13  1  0  0  0  0
 17 16  1  6  0  0  0
 17 14  1  0  0  0  0
 17  3  1  0  0  0  0
 18 19  1  1  0  0  0
 21 20  1  1  0  0  0
 21 18  1  0  0  0  0
 22 23  2  0  0  0  0
 23 24  1  0  0  0  0
 23 21  1  0  0  0  0
 25 26  1  1  0  0  0
 27 25  1  0  0  0  0
 28 30  2  0  0  0  0
 29 31  1  0  0  0  0
 29 35  1  0  0  0  0
 31 28  1  0  0  0  0
 32 36  1  0  0  0  0
 32 34  2  0  0  0  0
 33 35  2  0  0  0  0
 33 27  1  0  0  0  0
 34 33  1  0  0  0  0
 35 30  1  0  0  0  0
 36 29  2  0  0  0  0
M  END
>  <MODEL>
5

>  <REMARK>
 VINA RESULT:      -7.1      2.021      6.640
  Name = 
  7 active torsions:
  status: ('A' for Active; 'I' for Inactive)
    1  A    between atoms: C_2  and  C_21
    2  A    between atoms: C_2  and  C_35
    3  A    between atoms: C_3  and  C_13
    4  A    between atoms: C_7  and  C_35
    5  A    between atoms: C_9  and  C_26
    6  A    between atoms: C_13  and  C_16
    7  A    between atoms: C_16  and  C_23
                            x       y       z     vdW  Elec       q    Type
                         _______ _______ _______ _____ _____    ______ ____

>  <TORSDO>
F 7

$$$$
=
 OpenBabel11072408473D

 36 40  0  0  1  0  0  0  0  0999 V2000
  191.0070  172.1950  142.1520 C   0  0  1  0  0  3  0  0  0  0  0  0
  190.5210  173.6730  140.3710 C   0  0  1  0  0  3  0  0  0  0  0  0
  188.6510  174.6060  141.4540 C   0  0  2  0  0  3  0  0  0  0  0  0
  188.7000  172.0680  139.5140 C   0  0  0  0  0  1  0  0  0  0  0  0
  191.8470  171.6280  139.8710 C   0  0  0  0  0  2  0  0  0  0  0  0
  189.3130  173.4640  139.4520 C   0  0  0  0  0  0  0  0  0  0  0  0
  190.0330  174.1640  141.6560 N   0  0  1  0  0  0  0  0  0  0  0  0
  189.9960  173.1090  142.5360 O   0  0  0  0  0  0  0  0  0  0  0  0
  189.6740  173.8040  138.0210 C   0  0  0  0  0  1  0  0  0  0  0  0
  191.2860  172.4780  140.7320 C   0  0  0  0  0  0  0  0  0  0  0  0
  188.3120  174.4530  139.9790 C   0  0  0  0  0  2  0  0  0  0  0  0
  188.0160  177.5250  143.8160 N   0  0  0  0  0  2  0  0  0  0  0  0
  187.1560  178.1620  141.5930 C   0  0  0  0  0  2  0  0  0  0  0  0
  187.3580  176.7300  141.1060 C   0  0  0  0  0  2  0  0  0  0  0  0
  186.9180  178.2000  143.1090 C   0  0  1  0  0  3  0  0  0  0  0  0
  188.1240  176.1290  143.3850 C   0  0  0  0  0  2  0  0  0  0  0  0
  188.4770  176.0590  141.9000 C   0  0  1  0  0  3  0  0  0  0  0  0
  185.5380  177.6480  143.5130 C   0  0  2  0  0  3  0  0  0  0  0  0
  184.7080  177.6030  142.3880 O   0  0  0  0  0  1  0  0  0  0  0  0
  185.2180  179.8540  144.4420 O   0  0  0  0  0  1  0  0  0  0  0  0
  184.8780  178.5080  144.5990 C   0  0  2  0  0  3  0  0  0  0  0  0
  185.3290  176.7630  146.2530 C   0  0  0  0  0  2  0  0  0  0  0  0
  185.2720  178.0620  145.9750 C   0  0  0  0  0  0  0  0  0  0  0  0
  185.5650  179.0560  147.0510 C   0  0  0  0  0  1  0  0  0  0  0  0
  192.2520  172.3840  143.0270 C   0  0  2  0  0  3  0  0  0  0  0  0
  193.2130  171.2190  142.8580 C   0  0  0  0  0  1  0  0  0  0  0  0
  191.8540  172.4880  144.4930 C   0  0  0  0  0  2  0  0  0  0  0  0
  195.6910  174.5040  145.9410 C   0  0  0  0  0  3  0  0  0  0  0  0
  193.6200  175.4990  145.9040 C   0  0  0  0  0  0  0  0  0  0  0  0
  194.6770  173.4860  145.3760 C   0  0  0  0  0  3  0  0  0  0  0  0
  194.9440  175.6870  146.2260 O   0  0  0  0  0  0  0  0  0  0  0  0
  191.3030  176.0130  145.6490 C   0  0  0  0  0  3  0  0  0  0  0  0
  192.1200  173.8600  145.0170 C   0  0  0  0  0  0  0  0  0  0  0  0
  191.0980  174.7550  145.1530 N   0  0  0  0  0  0  0  0  0  0  0  0
  193.4020  174.2490  145.4080 C   0  0  0  0  0  0  0  0  0  0  0  0
  192.5880  176.4210  146.0410 C   0  0  0  0  0  3  0  0  0  0  0  0
  1  8  1  0  0  0  0
  1 25  1  1  0  0  0
  2 10  1  1  0  0  0
  2  7  1  0  0  0  0
  3 11  1  6  0  0  0
  3  7  1  0  0  0  0
  3 17  1  0  0  0  0
  5 10  2  0  0  0  0
  6  4  1  0  0  0  0
  6 11  1  0  0  0  0
  6  2  1  0  0  0  0
  7  8  1  1  0  0  0
  9  6  1  0  0  0  0
 10  1  1  0  0  0  0
 13 15  1  0  0  0  0
 14 13  1  0  0  0  0
 15 18  1  6  0  0  0
 15 12  1  0  0  0  0
 16 12  1  0  0  0  0
 17 14  1  6  0  0  0
 17 16  1  0  0  0  0
 18 19  1  6  0  0  0
 18 21  1  0  0  0  0
 21 20  1  6  0  0  0
 21 23  1  0  0  0  0
 23 22  2  0  0  0  0
 23 24  1  0  0  0  0
 25 26  1  1  0  0  0
 25 27  1  0  0  0  0
 27 33  1  0  0  0  0
 28 31  1  0  0  0  0
 29 36  1  0  0  0  0
 29 31  1  0  0  0  0
 30 35  1  0  0  0  0
 30 28  2  0  0  0  0
 32 36  2  0  0  0  0
 33 34  2  0  0  0  0
 33 35  1  0  0  0  0
 34 32  1  0  0  0  0
 35 29  2  0  0  0  0
M  END
>  <MODEL>
6

>  <REMARK>
 VINA RESULT:      -7.1      1.361      1.945
  Name = 
  7 active torsions:
  status: ('A' for Active; 'I' for Inactive)
    1  A    between atoms: C_2  and  C_21
    2  A    between atoms: C_2  and  C_35
    3  A    between atoms: C_3  and  C_13
    4  A    between atoms: C_7  and  C_35
    5  A    between atoms: C_9  and  C_26
    6  A    between atoms: C_13  and  C_16
    7  A    between atoms: C_16  and  C_23
                            x       y       z     vdW  Elec       q    Type
                         _______ _______ _______ _____ _____    ______ ____

>  <TORSDO>
F 7

$$$$
=
 OpenBabel11072408473D

 36 40  0  0  1  0  0  0  0  0999 V2000
  189.1380  175.3610  144.7600 C   0  0  1  0  0  3  0  0  0  0  0  0
  190.5430  176.8040  145.9990 C   0  0  1  0  0  3  0  0  0  0  0  0
  192.5220  175.7940  145.2200 C   0  0  2  0  0  3  0  0  0  0  0  0
  190.8300  174.9970  147.8100 C   0  0  0  0  0  1  0  0  0  0  0  0
  188.2000  176.4940  146.7750 C   0  0  0  0  0  2  0  0  0  0  0  0
  191.3200  176.3200  147.2270 C   0  0  0  0  0  0  0  0  0  0  0  0
  191.1990  176.2690  144.8090 N   0  0  1  0  0  0  0  0  0  0  0  0
  190.4910  175.1720  144.3820 O   0  0  0  0  0  0  0  0  0  0  0  0
  191.3220  177.3860  148.3030 C   0  0  0  0  0  1  0  0  0  0  0  0
  189.1630  176.3340  145.8670 C   0  0  0  0  0  0  0  0  0  0  0  0
  192.7100  176.1240  146.6930 C   0  0  0  0  0  2  0  0  0  0  0  0
  194.8300  176.3510  142.2430 N   0  0  0  0  0  2  0  0  0  0  0  0
  196.0400  177.0700  144.2710 C   0  0  0  0  0  2  0  0  0  0  0  0
  194.9410  176.4630  145.1390 C   0  0  0  0  0  2  0  0  0  0  0  0
  196.1360  176.3470  142.9190 C   0  0  1  0  0  3  0  0  0  0  0  0
  193.8220  175.6850  143.0700 C   0  0  0  0  0  2  0  0  0  0  0  0
  193.6170  176.4490  144.3770 C   0  0  1  0  0  3  0  0  0  0  0  0
  196.7270  174.9290  143.0390 C   0  0  2  0  0  3  0  0  0  0  0  0
  197.5460  174.8610  144.1700 O   0  0  0  0  0  1  0  0  0  0  0  0
  197.7850  175.6670  140.9970 O   0  0  0  0  0  1  0  0  0  0  0  0
  197.5410  174.5460  141.7950 C   0  0  2  0  0  3  0  0  0  0  0  0
  197.3160  173.1880  139.7730 C   0  0  0  0  0  2  0  0  0  0  0  0
  196.8430  173.5030  140.9750 C   0  0  0  0  0  0  0  0  0  0  0  0
  195.6020  172.8380  141.4740 C   0  0  0  0  0  1  0  0  0  0  0  0
  188.3230  175.8740  143.5670 C   0  0  2  0  0  3  0  0  0  0  0  0
  189.0400  175.5830  142.2580 C   0  0  0  0  0  1  0  0  0  0  0  0
  188.1020  177.3760  143.6870 C   0  0  0  0  0  2  0  0  0  0  0  0
  184.4030  179.0350  145.7970 C   0  0  0  0  0  3  0  0  0  0  0  0
  184.5310  178.5600  143.5520 C   0  0  0  0  0  0  0  0  0  0  0  0
  185.8230  178.5050  145.4950 C   0  0  0  0  0  3  0  0  0  0  0  0
  183.7070  179.0270  144.5500 O   0  0  0  0  0  0  0  0  0  0  0  0
  185.2100  177.9080  141.3590 C   0  0  0  0  0  3  0  0  0  0  0  0
  186.7510  177.7530  143.1770 C   0  0  0  0  0  0  0  0  0  0  0  0
  186.4450  177.5920  141.8560 N   0  0  0  0  0  0  0  0  0  0  0  0
  185.7650  178.2430  144.0340 C   0  0  0  0  0  0  0  0  0  0  0  0
  184.2090  178.4070  142.2070 C   0  0  0  0  0  3  0  0  0  0  0  0
  1 25  1  6  0  0  0
  1 10  1  0  0  0  0
  2 10  1  1  0  0  0
  2  6  1  0  0  0  0
  3 11  1  1  0  0  0
  6  4  1  0  0  0  0
  6  9  1  0  0  0  0
  7  8  1  1  0  0  0
  7  3  1  0  0  0  0
  7  2  1  0  0  0  0
  8  1  1  0  0  0  0
 10  5  2  0  0  0  0
 11  6  1  0  0  0  0
 12 15  1  0  0  0  0
 12 16  1  0  0  0  0
 13 14  1  0  0  0  0
 15 18  1  1  0  0  0
 15 13  1  0  0  0  0
 17 16  1  6  0  0  0
 17 14  1  0  0  0  0
 17  3  1  0  0  0  0
 18 19  1  1  0  0  0
 21 20  1  6  0  0  0
 21 18  1  0  0  0  0
 22 23  2  0  0  0  0
 23 24  1  0  0  0  0
 23 21  1  0  0  0  0
 25 26  1  6  0  0  0
 25 27  1  0  0  0  0
 29 35  1  0  0  0  0
 29 31  1  0  0  0  0
 30 28  2  0  0  0  0
 31 28  1  0  0  0  0
 32 34  2  0  0  0  0
 32 36  1  0  0  0  0
 33 27  1  0  0  0  0
 33 35  2  0  0  0  0
 34 33  1  0  0  0  0
 35 30  1  0  0  0  0
 36 29  2  0  0  0  0
M  END
>  <MODEL>
7

>  <REMARK>
 VINA RESULT:      -6.9      3.268      8.722
  Name = 
  7 active torsions:
  status: ('A' for Active; 'I' for Inactive)
    1  A    between atoms: C_2  and  C_21
    2  A    between atoms: C_2  and  C_35
    3  A    between atoms: C_3  and  C_13
    4  A    between atoms: C_7  and  C_35
    5  A    between atoms: C_9  and  C_26
    6  A    between atoms: C_13  and  C_16
    7  A    between atoms: C_16  and  C_23
                            x       y       z     vdW  Elec       q    Type
                         _______ _______ _______ _____ _____    ______ ____

>  <TORSDO>
F 7

$$$$
=
 OpenBabel11072408473D

 36 40  0  0  1  0  0  0  0  0999 V2000
  193.6190  171.3940  143.9690 C   0  0  1  0  0  3  0  0  0  0  0  0
  192.2740  172.9490  142.8030 C   0  0  1  0  0  3  0  0  0  0  0  0
  190.8720  173.3540  144.6510 C   0  0  2  0  0  3  0  0  0  0  0  0
  190.5010  171.1290  142.3880 C   0  0  0  0  0  1  0  0  0  0  0  0
  193.5630  171.2850  141.4770 C   0  0  0  0  0  2  0  0  0  0  0  0
  190.8420  172.6170  142.3690 C   0  0  0  0  0  0  0  0  0  0  0  0
  192.2680  173.1750  144.2450 N   0  0  1  0  0  0  0  0  0  0  0  0
  192.7260  172.0360  144.8620 O   0  0  0  0  0  0  0  0  0  0  0  0
  190.5610  173.1910  140.9960 C   0  0  0  0  0  1  0  0  0  0  0  0
  193.2750  171.8960  142.6260 C   0  0  0  0  0  0  0  0  0  0  0  0
  190.0050  173.3150  143.4020 C   0  0  0  0  0  2  0  0  0  0  0  0
  189.1730  175.9870  146.8140 N   0  0  0  0  0  2  0  0  0  0  0  0
  190.5770  177.1690  145.1640 C   0  0  0  0  0  2  0  0  0  0  0  0
  190.8110  175.8540  144.4250 C   0  0  0  0  0  2  0  0  0  0  0  0
  189.2370  177.1470  145.9130 C   0  0  1  0  0  3  0  0  0  0  0  0
  189.3160  174.7410  146.0580 C   0  0  0  0  0  2  0  0  0  0  0  0
  190.6910  174.6790  145.3930 C   0  0  1  0  0  3  0  0  0  0  0  0
  188.0210  177.2210  144.9690 C   0  0  2  0  0  3  0  0  0  0  0  0
  188.3760  177.9160  143.8090 O   0  0  0  0  0  1  0  0  0  0  0  0
  186.1540  177.0380  146.4900 O   0  0  0  0  0  1  0  0  0  0  0  0
  186.8260  177.9160  145.6360 C   0  0  2  0  0  3  0  0  0  0  0  0
  185.5660  179.7470  144.6140 C   0  0  0  0  0  2  0  0  0  0  0  0
  185.8590  178.4500  144.6230 C   0  0  0  0  0  0  0  0  0  0  0  0
  185.1910  177.5410  143.6450 C   0  0  0  0  0  1  0  0  0  0  0  0
  195.0690  171.7200  144.3460 C   0  0  2  0  0  3  0  0  0  0  0  0
  195.7700  170.4940  144.9090 C   0  0  0  0  0  1  0  0  0  0  0  0
  195.1050  172.8320  145.3880 C   0  0  0  0  0  2  0  0  0  0  0  0
  194.1910  177.1660  146.5140 C   0  0  0  0  0  3  0  0  0  0  0  0
  195.4440  176.5180  144.7000 C   0  0  0  0  0  0  0  0  0  0  0  0
  194.2630  175.6230  146.5020 C   0  0  0  0  0  3  0  0  0  0  0  0
  194.9410  177.6020  145.3800 O   0  0  0  0  0  0  0  0  0  0  0  0
  196.6280  175.3070  143.0170 C   0  0  0  0  0  3  0  0  0  0  0  0
  195.5040  174.1270  144.7630 C   0  0  0  0  0  0  0  0  0  0  0  0
  196.2630  174.1390  143.6270 N   0  0  0  0  0  0  0  0  0  0  0  0
  195.0880  175.3470  145.2980 C   0  0  0  0  0  0  0  0  0  0  0  0
  196.2230  176.5420  143.5470 C   0  0  0  0  0  3  0  0  0  0  0  0
  1 25  1  1  0  0  0
  1  8  1  0  0  0  0
  2 10  1  1  0  0  0
  2  7  1  0  0  0  0
  3 11  1  6  0  0  0
  3 17  1  0  0  0  0
  5 10  2  0  0  0  0
  6  4  1  0  0  0  0
  6  2  1  0  0  0  0
  6 11  1  0  0  0  0
  7  3  1  0  0  0  0
  7  8  1  1  0  0  0
  9  6  1  0  0  0  0
 10  1  1  0  0  0  0
 13 15  1  0  0  0  0
 14 13  1  0  0  0  0
 15 18  1  6  0  0  0
 15 12  1  0  0  0  0
 16 12  1  0  0  0  0
 17 14  1  6  0  0  0
 17 16  1  0  0  0  0
 18 19  1  6  0  0  0
 18 21  1  0  0  0  0
 21 20  1  1  0  0  0
 22 23  2  0  0  0  0
 23 21  1  0  0  0  0
 24 23  1  0  0  0  0
 25 26  1  1  0  0  0
 25 27  1  0  0  0  0
 29 35  1  0  0  0  0
 29 31  1  0  0  0  0
 30 28  2  0  0  0  0
 31 28  1  0  0  0  0
 32 36  1  0  0  0  0
 32 34  2  0  0  0  0
 33 35  2  0  0  0  0
 33 27  1  0  0  0  0
 34 33  1  0  0  0  0
 35 30  1  0  0  0  0
 36 29  2  0  0  0  0
M  END
>  <MODEL>
8

>  <REMARK>
 VINA RESULT:      -6.9      2.579      3.991
  Name = 
  7 active torsions:
  status: ('A' for Active; 'I' for Inactive)
    1  A    between atoms: C_2  and  C_21
    2  A    between atoms: C_2  and  C_35
    3  A    between atoms: C_3  and  C_13
    4  A    between atoms: C_7  and  C_35
    5  A    between atoms: C_9  and  C_26
    6  A    between atoms: C_13  and  C_16
    7  A    between atoms: C_16  and  C_23
                            x       y       z     vdW  Elec       q    Type
                         _______ _______ _______ _____ _____    ______ ____

>  <TORSDO>
F 7

$$$$
=
 OpenBabel11072408473D

 36 40  0  0  1  0  0  0  0  0999 V2000
  194.1950  174.8070  145.8770 C   0  0  1  0  0  3  0  0  0  0  0  0
  194.4390  173.4950  143.9250 C   0  0  1  0  0  3  0  0  0  0  0  0
  192.8520  171.8990  144.6160 C   0  0  2  0  0  3  0  0  0  0  0  0
  195.9950  171.8770  145.1860 C   0  0  0  0  0  1  0  0  0  0  0  0
  196.3130  175.0000  144.5690 C   0  0  0  0  0  2  0  0  0  0  0  0
  195.1420  172.1340  143.9470 C   0  0  0  0  0  0  0  0  0  0  0  0
  193.1280  173.3360  144.5460 N   0  0  1  0  0  0  0  0  0  0  0  0
  193.2040  173.7960  145.8390 O   0  0  0  0  0  0  0  0  0  0  0  0
  195.9830  171.9540  142.7000 C   0  0  0  0  0  1  0  0  0  0  0  0
  195.0590  174.5670  144.7050 C   0  0  0  0  0  0  0  0  0  0  0  0
  193.9980  171.1610  143.9420 C   0  0  0  0  0  2  0  0  0  0  0  0
  190.4250  171.1720  141.7730 N   0  0  0  0  0  2  0  0  0  0  0  0
  189.1610  172.3120  143.5610 C   0  0  0  0  0  2  0  0  0  0  0  0
  190.4680  172.6180  144.2870 C   0  0  0  0  0  2  0  0  0  0  0  0
  189.3900  172.1800  142.0480 C   0  0  1  0  0  3  0  0  0  0  0  0
  191.6870  171.5450  142.4150 C   0  0  0  0  0  2  0  0  0  0  0  0
  191.5230  171.5700  143.9340 C   0  0  1  0  0  3  0  0  0  0  0  0
  189.6930  173.5290  141.3680 C   0  0  2  0  0  3  0  0  0  0  0  0
  189.2690  174.5720  142.1970 O   0  0  0  0  0  1  0  0  0  0  0  0
  188.0670  172.6170  139.8310 O   0  0  0  0  0  1  0  0  0  0  0  0
  188.9970  173.6450  140.0040 C   0  0  2  0  0  3  0  0  0  0  0  0
  189.5500  173.7160  137.6220 C   0  0  0  0  0  2  0  0  0  0  0  0
  189.9830  173.6100  138.8750 C   0  0  0  0  0  0  0  0  0  0  0  0
  191.4420  173.4200  139.1340 C   0  0  0  0  0  1  0  0  0  0  0  0
  193.5400  176.1920  145.8280 C   0  0  2  0  0  3  0  0  0  0  0  0
  194.2630  177.1640  146.7460 C   0  0  0  0  0  1  0  0  0  0  0  0
  192.0810  176.1000  146.2560 C   0  0  0  0  0  2  0  0  0  0  0  0
  187.5700  176.8320  146.1810 C   0  0  0  0  0  3  0  0  0  0  0  0
  189.0160  177.3770  144.4800 C   0  0  0  0  0  0  0  0  0  0  0  0
  188.9970  176.4260  146.6110 C   0  0  0  0  0  3  0  0  0  0  0  0
  187.6990  177.3980  144.8760 O   0  0  0  0  0  0  0  0  0  0  0  0
  190.9180  177.7160  143.0780 C   0  0  0  0  0  3  0  0  0  0  0  0
  191.1900  176.7190  145.2310 C   0  0  0  0  0  0  0  0  0  0  0  0
  191.7080  177.1630  144.0480 N   0  0  0  0  0  0  0  0  0  0  0  0
  189.8150  176.8290  145.4380 C   0  0  0  0  0  0  0  0  0  0  0  0
  189.5330  177.8390  143.2740 C   0  0  0  0  0  3  0  0  0  0  0  0
  1 25  1  6  0  0  0
  2  6  1  0  0  0  0
  2  7  1  0  0  0  0
  2 10  1  1  0  0  0
  3 11  1  6  0  0  0
  5 10  2  0  0  0  0
  6  4  1  0  0  0  0
  7  3  1  0  0  0  0
  7  8  1  1  0  0  0
  8  1  1  0  0  0  0
  9  6  1  0  0  0  0
 10  1  1  0  0  0  0
 11  6  1  0  0  0  0
 12 15  1  0  0  0  0
 12 16  1  0  0  0  0
 13 14  1  0  0  0  0
 15 18  1  1  0  0  0
 15 13  1  0  0  0  0
 17 16  1  6  0  0  0
 17 14  1  0  0  0  0
 17  3  1  0  0  0  0
 18 19  1  1  0  0  0
 21 20  1  6  0  0  0
 21 18  1  0  0  0  0
 22 23  2  0  0  0  0
 23 24  1  0  0  0  0
 23 21  1  0  0  0  0
 25 27  1  0  0  0  0
 25 26  1  1  0  0  0
 28 30  2  0  0  0  0
 29 31  1  0  0  0  0
 29 35  1  0  0  0  0
 31 28  1  0  0  0  0
 32 36  1  0  0  0  0
 32 34  2  0  0  0  0
 33 35  2  0  0  0  0
 33 27  1  0  0  0  0
 34 33  1  0  0  0  0
 35 30  1  0  0  0  0
 36 29  2  0  0  0  0
M  END
>  <MODEL>
9

>  <REMARK>
 VINA RESULT:      -6.9      2.315      6.359
  Name = 
  7 active torsions:
  status: ('A' for Active; 'I' for Inactive)
    1  A    between atoms: C_2  and  C_21
    2  A    between atoms: C_2  and  C_35
    3  A    between atoms: C_3  and  C_13
    4  A    between atoms: C_7  and  C_35
    5  A    between atoms: C_9  and  C_26
    6  A    between atoms: C_13  and  C_16
    7  A    between atoms: C_16  and  C_23
                            x       y       z     vdW  Elec       q    Type
                         _______ _______ _______ _____ _____    ______ ____

>  <TORSDO>
F 7

$$$$
