=
 OpenBabel11062422213D

 41 44  0  0  1  0  0  0  0  0999 V2000
  194.2530  176.2190  145.1030 C   0  0  0  0  0  0  0  0  0  0  0  0
  195.1640  176.4760  144.2210 N   0  0  0  0  0  2  0  0  0  0  0  0
  190.6240  177.1250  145.9750 C   0  0  2  0  0  3  0  0  0  0  0  0
  189.1070  176.8330  144.6250 C   0  0  2  0  0  3  0  0  0  0  0  0
  191.9210  176.3060  145.9810 C   0  0  0  0  0  2  0  0  0  0  0  0
  192.4430  177.0850  143.7390 N   0  0  0  0  0  0  0  0  0  0  0  0
  189.4790  176.2250  145.9020 N   0  0  0  0  0  2  0  0  0  0  0  0
  190.2760  177.7930  144.6380 C   0  0  2  0  0  3  0  0  0  0  0  0
  192.9570  176.9760  145.0860 C   0  0  2  0  0  3  0  0  0  0  0  0
  191.2290  177.4560  143.5130 C   0  0  0  0  0  3  0  0  0  0  0  0
  187.8020  177.5980  144.7800 C   0  0  0  0  0  2  0  0  0  0  0  0
  186.6870  176.9030  144.0050 C   0  0  1  0  0  3  0  0  0  0  0  0
  184.0930  178.9330  145.6460 C   0  0  0  0  0  2  0  0  0  0  0  0
  185.5790  177.1380  146.2400 C   0  0  0  0  0  2  0  0  0  0  0  0
  184.4250  177.9610  146.7600 C   0  0  0  0  0  2  0  0  0  0  0  0
  184.6380  178.3270  144.3640 C   0  0  0  0  0  2  0  0  0  0  0  0
  185.3560  177.0410  144.7460 C   0  0  0  0  0  3  0  0  0  0  0  0
  186.5740  177.5040  142.6810 N   0  0  0  0  0  2  0  0  0  0  0  0
  187.6080  175.7540  141.5190 O   0  0  0  0  0  0  0  0  0  0  0  0
  187.0850  176.9010  141.4890 C   0  0  0  0  0  0  0  0  0  0  0  0
  186.9870  177.5980  140.2520 N   0  0  0  0  0  1  0  0  0  0  0  0
  194.4790  175.2050  146.0360 O   0  0  0  0  0  0  0  0  0  0  0  0
  195.0310  173.9500  145.6670 C   0  0  0  0  0  2  0  0  0  0  0  0
  193.9300  173.0450  145.1500 C   0  0  0  0  0  2  0  0  0  0  0  0
  194.2330  172.6550  143.7170 C   0  0  0  0  0  2  0  0  0  0  0  0
  193.5070  173.5260  142.8060 N   0  0  0  0  0  0  0  0  0  0  0  0
  195.7440  173.7370  142.1810 O   0  0  0  0  0  1  0  0  0  0  0  0
  194.4270  173.8560  141.7300 C   0  0  0  0  0  2  0  0  0  0  0  0
  192.4370  172.7290  142.2200 C   0  0  0  0  0  2  0  0  0  0  0  0
  189.2700  171.9370  142.1660 C   0  0  0  0  0  3  0  0  0  0  0  0
  189.3810  171.8600  143.6360 C   0  0  0  0  0  3  0  0  0  0  0  0
  191.1520  173.5440  142.1640 C   0  0  2  0  0  3  0  0  0  0  0  0
  190.0850  172.7780  144.3060 C   0  0  0  0  0  3  0  0  0  0  0  0
  190.7070  173.9430  143.5790 C   0  0  0  0  0  2  0  0  0  0  0  0
  190.0650  172.7550  141.4630 C   0  0  0  0  0  0  0  0  0  0  0  0
  189.8500  172.8840  139.9810 C   0  0  1  0  0  3  0  0  0  0  0  0
  190.2240  170.6610  139.1490 O   0  0  0  0  0  0  0  0  0  0  0  0
  190.6330  171.8530  139.2290 C   0  0  0  0  0  0  0  0  0  0  0  0
  191.8590  172.2210  138.6040 N   0  0  0  0  0  1  0  0  0  0  0  0
  188.3740  172.8320  139.5970 C   0  0  0  0  0  2  0  0  0  0  0  0
  188.2000  173.2520  138.2170 N   0  0  0  0  0  1  0  0  0  0  0  0
  1 22  1  0  0  0  0
  2  1  2  0  0  0  0
  3  5  1  6  0  0  0
  4  8  1  0  0  0  0
  4 11  1  1  0  0  0
  4  7  1  0  0  0  0
  6  9  1  0  0  0  0
  7  3  1  0  0  0  0
  8 10  1  6  0  0  0
  8  3  1  0  0  0  0
  9  1  1  6  0  0  0
  9  5  1  0  0  0  0
 10  6  2  0  0  0  0
 12 17  1  0  0  0  0
 12 11  1  1  0  0  0
 13 15  1  0  0  0  0
 14 15  1  0  0  0  0
 16 17  1  0  0  0  0
 16 13  1  0  0  0  0
 17 14  1  0  0  0  0
 18 12  1  0  0  0  0
 20 19  2  0  0  0  0
 20 18  1  0  0  0  0
 21 20  1  0  0  0  0
 23 22  1  0  0  0  0
 24 23  1  0  0  0  0
 25 24  1  0  0  0  0
 26 25  1  0  0  0  0
 28 27  1  0  0  0  0
 28 26  1  0  0  0  0
 29 26  1  0  0  0  0
 30 31  1  0  0  0  0
 31 33  2  0  0  0  0
 32 29  1  1  0  0  0
 32 34  1  0  0  0  0
 34 33  1  0  0  0  0
 35 32  1  0  0  0  0
 35 30  2  0  0  0  0
 36 40  1  1  0  0  0
 36 35  1  0  0  0  0
 37 38  2  0  0  0  0
 38 36  1  0  0  0  0
 39 38  1  0  0  0  0
 41 40  1  0  0  0  0
M  END
>  <MODEL>
1

>  <REMARK>
 VINA RESULT:      -6.2      0.000      0.000
  Name = 
  16 active torsions:
  status: ('A' for Active; 'I' for Inactive)
    1  A    between atoms: N_3  and  C_24
    2  A    between atoms: N_3  and  C_38
    3  A    between atoms: N_3  and  C_41
    4  A    between atoms: N_5  and  C_9
    5  A    between atoms: C_6  and  C_11
    6  A    between atoms: C_6  and  O_37
    7  A    between atoms: C_7  and  C_29
    8  A    between atoms: C_9  and  C_30
    9  A    between atoms: C_9  and  C_32
   10  A    between atoms: C_10  and  C_30
   11  A    between atoms: C_11  and  C_24
   12  A    between atoms: C_16  and  C_38
   13  A    between atoms: C_25  and  C_29
   14  A    between atoms: C_29  and  C_35
   15  A    between atoms: C_33  and  C_36
   16  A    between atoms: C_36  and  O_37
                            x       y       z     vdW  Elec       q    Type
                         _______ _______ _______ _____ _____    ______ ____

>  <TORSDO>
F 16

$$$$
=
 OpenBabel11062422213D

 41 44  0  0  1  0  0  0  0  0999 V2000
  190.1970  171.9610  140.2140 C   0  0  0  0  0  0  0  0  0  0  0  0
  189.7680  171.2730  139.2060 N   0  0  0  0  0  2  0  0  0  0  0  0
  189.7130  175.4790  141.6770 C   0  0  2  0  0  3  0  0  0  0  0  0
  188.7040  175.7620  143.4400 C   0  0  2  0  0  3  0  0  0  0  0  0
  190.4490  174.1810  141.3210 C   0  0  0  0  0  2  0  0  0  0  0  0
  188.3640  172.9410  141.4650 N   0  0  0  0  0  0  0  0  0  0  0  0
  190.0960  175.9050  143.0180 N   0  0  0  0  0  2  0  0  0  0  0  0
  188.2400  175.3110  142.0730 C   0  0  2  0  0  3  0  0  0  0  0  0
  189.4950  173.2270  140.6120 C   0  0  2  0  0  3  0  0  0  0  0  0
  187.7780  173.8720  142.1360 C   0  0  0  0  0  3  0  0  0  0  0  0
  188.1210  177.1280  143.7650 C   0  0  0  0  0  2  0  0  0  0  0  0
  187.6550  177.1730  145.2170 C   0  0  1  0  0  3  0  0  0  0  0  0
  184.3910  178.8630  145.3810 C   0  0  0  0  0  2  0  0  0  0  0  0
  185.6520  177.3120  146.7150 C   0  0  0  0  0  2  0  0  0  0  0  0
  184.3020  177.9790  146.6070 C   0  0  0  0  0  2  0  0  0  0  0  0
  185.5130  178.3050  144.5220 C   0  0  0  0  0  2  0  0  0  0  0  0
  186.1280  177.1430  145.2890 C   0  0  0  0  0  3  0  0  0  0  0  0
  188.2010  176.0270  145.9330 N   0  0  0  0  0  2  0  0  0  0  0  0
  189.7220  177.2410  147.2350 O   0  0  0  0  0  0  0  0  0  0  0  0
  189.2540  176.1200  146.8980 C   0  0  0  0  0  0  0  0  0  0  0  0
  189.7670  174.9350  147.4940 N   0  0  0  0  0  1  0  0  0  0  0  0
  191.2890  171.4860  140.9440 O   0  0  0  0  0  0  0  0  0  0  0  0
  191.1460  170.5210  141.9750 C   0  0  0  0  0  2  0  0  0  0  0  0
  192.3760  170.5410  142.8590 C   0  0  0  0  0  2  0  0  0  0  0  0
  192.0270  171.1750  144.1920 C   0  0  0  0  0  2  0  0  0  0  0  0
  192.4200  172.5760  144.1880 N   0  0  0  0  0  0  0  0  0  0  0  0
  190.1270  172.6520  144.6020 O   0  0  0  0  0  1  0  0  0  0  0  0
  191.3390  173.3090  144.8250 C   0  0  0  0  0  2  0  0  0  0  0  0
  193.5830  172.6920  145.0580 C   0  0  0  0  0  2  0  0  0  0  0  0
  196.3500  174.2030  145.9080 C   0  0  0  0  0  3  0  0  0  0  0  0
  196.8810  172.8480  146.1540 C   0  0  0  0  0  3  0  0  0  0  0  0
  194.7710  173.2270  144.2710 C   0  0  2  0  0  3  0  0  0  0  0  0
  196.6030  171.8530  145.3060 C   0  0  0  0  0  3  0  0  0  0  0  0
  195.8120  172.1180  144.0500 C   0  0  0  0  0  2  0  0  0  0  0  0
  195.3890  174.4050  144.9950 C   0  0  0  0  0  0  0  0  0  0  0  0
  194.9510  175.8120  144.6990 C   0  0  1  0  0  3  0  0  0  0  0  0
  193.6150  175.9350  142.7060 O   0  0  0  0  0  0  0  0  0  0  0  0
  194.7610  176.0200  143.2280 C   0  0  0  0  0  0  0  0  0  0  0  0
  195.8890  176.3110  142.4090 N   0  0  0  0  0  1  0  0  0  0  0  0
  193.6960  176.2100  145.4710 C   0  0  0  0  0  2  0  0  0  0  0  0
  194.0610  176.8210  146.7380 N   0  0  0  0  0  1  0  0  0  0  0  0
  1 22  1  0  0  0  0
  2  1  2  0  0  0  0
  3  5  1  1  0  0  0
  3  8  1  0  0  0  0
  3  7  1  0  0  0  0
  4 11  1  6  0  0  0
  6 10  2  0  0  0  0
  7  4  1  0  0  0  0
  8 10  1  1  0  0  0
  8  4  1  0  0  0  0
  9  1  1  1  0  0  0
  9  5  1  0  0  0  0
  9  6  1  0  0  0  0
 12 11  1  6  0  0  0
 12 17  1  0  0  0  0
 12 18  1  0  0  0  0
 13 15  1  0  0  0  0
 15 14  1  0  0  0  0
 16 17  1  0  0  0  0
 16 13  1  0  0  0  0
 17 14  1  0  0  0  0
 18 20  1  0  0  0  0
 20 19  2  0  0  0  0
 20 21  1  0  0  0  0
 22 23  1  0  0  0  0
 23 24  1  0  0  0  0
 24 25  1  0  0  0  0
 26 25  1  0  0  0  0
 26 28  1  0  0  0  0
 26 29  1  0  0  0  0
 27 28  1  0  0  0  0
 30 31  1  0  0  0  0
 32 35  1  0  0  0  0
 32 29  1  1  0  0  0
 33 31  2  0  0  0  0
 34 32  1  0  0  0  0
 34 33  1  0  0  0  0
 35 30  2  0  0  0  0
 36 35  1  0  0  0  0
 36 40  1  1  0  0  0
 37 38  2  0  0  0  0
 38 36  1  0  0  0  0
 39 38  1  0  0  0  0
 40 41  1  0  0  0  0
M  END
>  <MODEL>
2

>  <REMARK>
 VINA RESULT:      -6.1      2.150      5.726
  Name = 
  16 active torsions:
  status: ('A' for Active; 'I' for Inactive)
    1  A    between atoms: N_3  and  C_24
    2  A    between atoms: N_3  and  C_38
    3  A    between atoms: N_3  and  C_41
    4  A    between atoms: N_5  and  C_9
    5  A    between atoms: C_6  and  C_11
    6  A    between atoms: C_6  and  O_37
    7  A    between atoms: C_7  and  C_29
    8  A    between atoms: C_9  and  C_30
    9  A    between atoms: C_9  and  C_32
   10  A    between atoms: C_10  and  C_30
   11  A    between atoms: C_11  and  C_24
   12  A    between atoms: C_16  and  C_38
   13  A    between atoms: C_25  and  C_29
   14  A    between atoms: C_29  and  C_35
   15  A    between atoms: C_33  and  C_36
   16  A    between atoms: C_36  and  O_37
                            x       y       z     vdW  Elec       q    Type
                         _______ _______ _______ _____ _____    ______ ____

>  <TORSDO>
F 16

$$$$
=
 OpenBabel11062422213D

 41 44  0  0  1  0  0  0  0  0999 V2000
  194.7650  175.6900  145.5900 C   0  0  0  0  0  0  0  0  0  0  0  0
  195.7100  176.1890  144.8610 N   0  0  0  0  0  2  0  0  0  0  0  0
  191.2930  176.5490  146.9890 C   0  0  2  0  0  3  0  0  0  0  0  0
  189.6290  176.5030  145.7920 C   0  0  2  0  0  3  0  0  0  0  0  0
  192.5480  175.7050  146.7290 C   0  0  0  0  0  2  0  0  0  0  0  0
  192.8570  176.7970  144.5810 N   0  0  0  0  0  0  0  0  0  0  0  0
  190.1100  175.7010  146.9150 N   0  0  0  0  0  2  0  0  0  0  0  0
  190.8320  177.4190  145.8120 C   0  0  2  0  0  3  0  0  0  0  0  0
  193.5090  176.4740  145.8300 C   0  0  2  0  0  3  0  0  0  0  0  0
  191.6430  177.2300  144.5500 C   0  0  0  0  0  3  0  0  0  0  0  0
  188.3820  177.2700  146.2030 C   0  0  0  0  0  2  0  0  0  0  0  0
  187.6170  177.7370  144.9690 C   0  0  1  0  0  3  0  0  0  0  0  0
  187.8380  177.1650  141.3410 C   0  0  0  0  0  2  0  0  0  0  0  0
  186.7170  176.1790  143.2260 C   0  0  0  0  0  2  0  0  0  0  0  0
  186.9790  175.9870  141.7520 C   0  0  0  0  0  2  0  0  0  0  0  0
  188.4960  177.6860  142.6080 C   0  0  0  0  0  2  0  0  0  0  0  0
  187.9570  176.8580  143.7660 C   0  0  0  0  0  3  0  0  0  0  0  0
  186.1850  177.6670  145.2360 N   0  0  0  0  0  2  0  0  0  0  0  0
  185.7120  179.8890  144.6660 O   0  0  0  0  0  0  0  0  0  0  0  0
  185.2970  178.7810  145.1020 C   0  0  0  0  0  0  0  0  0  0  0  0
  183.9250  178.6320  145.4520 N   0  0  0  0  0  1  0  0  0  0  0  0
  194.9170  174.4020  146.1090 O   0  0  0  0  0  0  0  0  0  0  0  0
  195.0930  173.2680  145.2740 C   0  0  0  0  0  2  0  0  0  0  0  0
  193.7390  172.7700  144.8070 C   0  0  0  0  0  2  0  0  0  0  0  0
  193.7810  172.5330  143.3100 C   0  0  0  0  0  2  0  0  0  0  0  0
  193.1640  173.6540  142.6180 N   0  0  0  0  0  0  0  0  0  0  0  0
  194.2340  175.5540  141.7920 O   0  0  0  0  0  1  0  0  0  0  0  0
  194.1590  174.1630  141.6880 C   0  0  0  0  0  2  0  0  0  0  0  0
  192.0750  173.1100  141.8170 C   0  0  0  0  0  2  0  0  0  0  0  0
  188.8550  172.6530  141.5190 C   0  0  0  0  0  3  0  0  0  0  0  0
  188.8870  172.3050  142.9530 C   0  0  0  0  0  3  0  0  0  0  0  0
  190.8730  174.0430  141.8700 C   0  0  2  0  0  3  0  0  0  0  0  0
  189.6370  173.0150  143.8010 C   0  0  0  0  0  3  0  0  0  0  0  0
  190.3970  174.2250  143.3190 C   0  0  0  0  0  2  0  0  0  0  0  0
  189.7550  173.5030  141.0030 C   0  0  0  0  0  0  0  0  0  0  0  0
  189.6250  173.9140  139.5630 C   0  0  1  0  0  3  0  0  0  0  0  0
  191.6570  173.8280  138.2840 O   0  0  0  0  0  0  0  0  0  0  0  0
  190.6370  173.2160  138.7070 C   0  0  0  0  0  0  0  0  0  0  0  0
  190.4410  171.8490  138.3620 N   0  0  0  0  0  1  0  0  0  0  0  0
  188.2150  173.7040  139.0190 C   0  0  0  0  0  2  0  0  0  0  0  0
  188.0440  174.4350  137.7750 N   0  0  0  0  0  1  0  0  0  0  0  0
  1 22  1  0  0  0  0
  2  1  2  0  0  0  0
  3  5  1  6  0  0  0
  4  8  1  0  0  0  0
  4 11  1  1  0  0  0
  4  7  1  0  0  0  0
  6  9  1  0  0  0  0
  7  3  1  0  0  0  0
  8 10  1  6  0  0  0
  8  3  1  0  0  0  0
  9  1  1  6  0  0  0
  9  5  1  0  0  0  0
 10  6  2  0  0  0  0
 12 18  1  0  0  0  0
 12 11  1  1  0  0  0
 13 15  1  0  0  0  0
 13 16  1  0  0  0  0
 14 17  1  0  0  0  0
 15 14  1  0  0  0  0
 16 17  1  0  0  0  0
 17 12  1  0  0  0  0
 19 20  2  0  0  0  0
 20 18  1  0  0  0  0
 20 21  1  0  0  0  0
 23 22  1  0  0  0  0
 24 23  1  0  0  0  0
 25 24  1  0  0  0  0
 26 25  1  0  0  0  0
 28 27  1  0  0  0  0
 28 26  1  0  0  0  0
 29 26  1  0  0  0  0
 30 31  1  0  0  0  0
 31 33  2  0  0  0  0
 32 29  1  1  0  0  0
 32 34  1  0  0  0  0
 34 33  1  0  0  0  0
 35 30  2  0  0  0  0
 35 32  1  0  0  0  0
 36 40  1  6  0  0  0
 36 35  1  0  0  0  0
 37 38  2  0  0  0  0
 38 36  1  0  0  0  0
 39 38  1  0  0  0  0
 41 40  1  0  0  0  0
M  END
>  <MODEL>
3

>  <REMARK>
 VINA RESULT:      -6.1      1.683      2.495
  Name = 
  16 active torsions:
  status: ('A' for Active; 'I' for Inactive)
    1  A    between atoms: N_3  and  C_24
    2  A    between atoms: N_3  and  C_38
    3  A    between atoms: N_3  and  C_41
    4  A    between atoms: N_5  and  C_9
    5  A    between atoms: C_6  and  C_11
    6  A    between atoms: C_6  and  O_37
    7  A    between atoms: C_7  and  C_29
    8  A    between atoms: C_9  and  C_30
    9  A    between atoms: C_9  and  C_32
   10  A    between atoms: C_10  and  C_30
   11  A    between atoms: C_11  and  C_24
   12  A    between atoms: C_16  and  C_38
   13  A    between atoms: C_25  and  C_29
   14  A    between atoms: C_29  and  C_35
   15  A    between atoms: C_33  and  C_36
   16  A    between atoms: C_36  and  O_37
                            x       y       z     vdW  Elec       q    Type
                         _______ _______ _______ _____ _____    ______ ____

>  <TORSDO>
F 16

$$$$
=
 OpenBabel11062422213D

 41 44  0  0  1  0  0  0  0  0999 V2000
  194.5950  175.9640  145.3860 C   0  0  0  0  0  0  0  0  0  0  0  0
  195.4640  176.4590  144.5640 N   0  0  0  0  0  2  0  0  0  0  0  0
  191.0990  176.6600  146.8150 C   0  0  2  0  0  3  0  0  0  0  0  0
  189.4090  176.2050  145.7470 C   0  0  2  0  0  3  0  0  0  0  0  0
  192.4380  175.9330  146.6350 C   0  0  0  0  0  2  0  0  0  0  0  0
  192.5280  176.6410  144.3120 N   0  0  0  0  0  0  0  0  0  0  0  0
  190.0280  175.6830  146.9640 N   0  0  0  0  0  2  0  0  0  0  0  0
  190.4900  177.2410  145.5320 C   0  0  2  0  0  3  0  0  0  0  0  0
  193.2610  176.6300  145.5580 C   0  0  2  0  0  3  0  0  0  0  0  0
  191.2690  176.9190  144.2770 C   0  0  0  0  0  3  0  0  0  0  0  0
  188.0930  176.8860  146.0900 C   0  0  0  0  0  2  0  0  0  0  0  0
  187.0720  176.6530  144.9800 C   0  0  1  0  0  3  0  0  0  0  0  0
  184.2450  178.9070  145.6650 C   0  0  0  0  0  2  0  0  0  0  0  0
  185.6870  177.4420  146.9130 C   0  0  0  0  0  2  0  0  0  0  0  0
  184.4580  178.3090  147.0410 C   0  0  0  0  0  2  0  0  0  0  0  0
  184.9610  177.9970  144.6810 C   0  0  0  0  0  2  0  0  0  0  0  0
  185.6560  176.9150  145.4940 C   0  0  0  0  0  3  0  0  0  0  0  0
  187.3610  177.5470  143.8650 N   0  0  0  0  0  2  0  0  0  0  0  0
  188.1520  175.8910  142.4100 O   0  0  0  0  0  0  0  0  0  0  0  0
  187.9320  177.1140  142.6270 C   0  0  0  0  0  0  0  0  0  0  0  0
  188.2410  178.0740  141.6230 N   0  0  0  0  0  1  0  0  0  0  0  0
  194.9030  174.7860  146.0700 O   0  0  0  0  0  0  0  0  0  0  0  0
  196.1330  174.1040  145.8830 C   0  0  0  0  0  2  0  0  0  0  0  0
  195.9140  172.9050  144.9810 C   0  0  0  0  0  2  0  0  0  0  0  0
  194.6520  172.1800  145.4080 C   0  0  0  0  0  2  0  0  0  0  0  0
  194.3120  171.1640  144.4240 N   0  0  0  0  0  0  0  0  0  0  0  0
  194.8220  170.0630  146.4160 O   0  0  0  0  0  1  0  0  0  0  0  0
  194.3040  169.8930  145.1300 C   0  0  0  0  0  2  0  0  0  0  0  0
  192.9420  171.4250  144.0020 C   0  0  0  0  0  2  0  0  0  0  0  0
  191.5270  173.4900  141.9060 C   0  0  0  0  0  3  0  0  0  0  0  0
  190.2530  173.0500  142.5090 C   0  0  0  0  0  3  0  0  0  0  0  0
  192.6640  172.9210  144.0290 C   0  0  2  0  0  3  0  0  0  0  0  0
  190.1600  172.8780  143.8310 C   0  0  0  0  0  3  0  0  0  0  0  0
  191.3260  173.2060  144.7290 C   0  0  0  0  0  2  0  0  0  0  0  0
  192.6610  173.4770  142.6210 C   0  0  0  0  0  0  0  0  0  0  0  0
  193.9160  174.0320  142.0050 C   0  0  1  0  0  3  0  0  0  0  0  0
  194.0690  172.7230  139.9970 O   0  0  0  0  0  0  0  0  0  0  0  0
  194.5730  173.0240  141.1140 C   0  0  0  0  0  0  0  0  0  0  0  0
  195.7760  172.3920  141.5370 N   0  0  0  0  0  1  0  0  0  0  0  0
  193.6720  175.3410  141.2600 C   0  0  0  0  0  2  0  0  0  0  0  0
  194.9290  176.0400  141.0530 N   0  0  0  0  0  1  0  0  0  0  0  0
  1 22  1  0  0  0  0
  2  1  2  0  0  0  0
  3  5  1  6  0  0  0
  3  7  1  0  0  0  0
  4 11  1  1  0  0  0
  4  7  1  0  0  0  0
  6  9  1  0  0  0  0
  8 10  1  6  0  0  0
  8  4  1  0  0  0  0
  8  3  1  0  0  0  0
  9  1  1  6  0  0  0
  9  5  1  0  0  0  0
 10  6  2  0  0  0  0
 12 17  1  0  0  0  0
 12 11  1  1  0  0  0
 13 15  1  0  0  0  0
 14 15  1  0  0  0  0
 16 17  1  0  0  0  0
 16 13  1  0  0  0  0
 17 14  1  0  0  0  0
 18 12  1  0  0  0  0
 19 20  2  0  0  0  0
 20 18  1  0  0  0  0
 21 20  1  0  0  0  0
 23 22  1  0  0  0  0
 24 25  1  0  0  0  0
 24 23  1  0  0  0  0
 26 28  1  0  0  0  0
 26 25  1  0  0  0  0
 28 27  1  0  0  0  0
 29 26  1  0  0  0  0
 30 31  1  0  0  0  0
 30 35  2  0  0  0  0
 31 33  2  0  0  0  0
 32 29  1  6  0  0  0
 32 34  1  0  0  0  0
 33 34  1  0  0  0  0
 35 32  1  0  0  0  0
 36 40  1  6  0  0  0
 36 35  1  0  0  0  0
 37 38  2  0  0  0  0
 38 39  1  0  0  0  0
 38 36  1  0  0  0  0
 41 40  1  0  0  0  0
M  END
>  <MODEL>
4

>  <REMARK>
 VINA RESULT:      -6.1      1.973      2.785
  Name = 
  16 active torsions:
  status: ('A' for Active; 'I' for Inactive)
    1  A    between atoms: N_3  and  C_24
    2  A    between atoms: N_3  and  C_38
    3  A    between atoms: N_3  and  C_41
    4  A    between atoms: N_5  and  C_9
    5  A    between atoms: C_6  and  C_11
    6  A    between atoms: C_6  and  O_37
    7  A    between atoms: C_7  and  C_29
    8  A    between atoms: C_9  and  C_30
    9  A    between atoms: C_9  and  C_32
   10  A    between atoms: C_10  and  C_30
   11  A    between atoms: C_11  and  C_24
   12  A    between atoms: C_16  and  C_38
   13  A    between atoms: C_25  and  C_29
   14  A    between atoms: C_29  and  C_35
   15  A    between atoms: C_33  and  C_36
   16  A    between atoms: C_36  and  O_37
                            x       y       z     vdW  Elec       q    Type
                         _______ _______ _______ _____ _____    ______ ____

>  <TORSDO>
F 16

$$$$
=
 OpenBabel11062422213D

 41 44  0  0  1  0  0  0  0  0999 V2000
  194.5320  175.9160  145.5030 C   0  0  0  0  0  0  0  0  0  0  0  0
  195.3360  176.6170  144.7700 N   0  0  0  0  0  2  0  0  0  0  0  0
  190.8970  175.9050  146.7410 C   0  0  2  0  0  3  0  0  0  0  0  0
  189.3300  176.0030  145.4220 C   0  0  2  0  0  3  0  0  0  0  0  0
  192.2730  175.3320  146.3810 C   0  0  0  0  0  2  0  0  0  0  0  0
  192.5470  177.0260  144.6600 N   0  0  0  0  0  0  0  0  0  0  0  0
  189.8550  174.9760  146.3200 N   0  0  0  0  0  2  0  0  0  0  0  0
  190.3850  177.0140  145.8120 C   0  0  2  0  0  3  0  0  0  0  0  0
  193.1640  176.4390  145.8280 C   0  0  2  0  0  3  0  0  0  0  0  0
  191.2870  177.2970  144.6320 C   0  0  0  0  0  3  0  0  0  0  0  0
  187.9630  176.4600  145.9060 C   0  0  0  0  0  2  0  0  0  0  0  0
  186.9780  176.5100  144.7420 C   0  0  1  0  0  3  0  0  0  0  0  0
  184.3930  178.9870  145.5900 C   0  0  0  0  0  2  0  0  0  0  0  0
  185.6100  177.2420  146.7090 C   0  0  0  0  0  2  0  0  0  0  0  0
  184.4810  178.2260  146.8960 C   0  0  0  0  0  2  0  0  0  0  0  0
  185.0440  178.1120  144.5320 C   0  0  0  0  0  2  0  0  0  0  0  0
  185.5800  176.8760  145.2400 C   0  0  0  0  0  3  0  0  0  0  0  0
  187.4280  177.5020  143.7730 N   0  0  0  0  0  2  0  0  0  0  0  0
  187.6950  176.0110  141.9870 O   0  0  0  0  0  0  0  0  0  0  0  0
  187.8050  177.1870  142.4290 C   0  0  0  0  0  0  0  0  0  0  0  0
  188.2980  178.2160  141.5780 N   0  0  0  0  0  1  0  0  0  0  0  0
  194.9440  174.6580  145.9470 O   0  0  0  0  0  0  0  0  0  0  0  0
  196.2480  174.1570  145.6930 C   0  0  0  0  0  2  0  0  0  0  0  0
  196.1810  172.6570  145.4850 C   0  0  0  0  0  2  0  0  0  0  0  0
  194.7480  172.1900  145.6540 C   0  0  0  0  0  2  0  0  0  0  0  0
  194.3420  171.4190  144.4890 N   0  0  0  0  0  0  0  0  0  0  0  0
  195.1200  169.2430  144.8020 O   0  0  0  0  0  1  0  0  0  0  0  0
  194.0190  170.0860  144.9690 C   0  0  0  0  0  2  0  0  0  0  0  0
  193.1010  172.0080  144.0030 C   0  0  0  0  0  2  0  0  0  0  0  0
  191.7210  174.0000  141.8150 C   0  0  0  0  0  3  0  0  0  0  0  0
  192.8870  174.8750  142.0450 C   0  0  0  0  0  3  0  0  0  0  0  0
  193.1110  172.0650  142.4820 C   0  0  2  0  0  3  0  0  0  0  0  0
  194.1100  174.3480  142.1630 C   0  0  0  0  0  3  0  0  0  0  0  0
  194.3230  172.8660  141.9830 C   0  0  0  0  0  2  0  0  0  0  0  0
  191.8210  172.6730  141.9740 C   0  0  0  0  0  0  0  0  0  0  0  0
  190.6410  171.8070  141.6270 C   0  0  1  0  0  3  0  0  0  0  0  0
  188.4190  172.6960  141.8340 O   0  0  0  0  0  0  0  0  0  0  0  0
  189.4290  172.2060  142.4110 C   0  0  0  0  0  0  0  0  0  0  0  0
  189.4210  172.0370  143.8250 N   0  0  0  0  0  1  0  0  0  0  0  0
  190.3430  171.7970  140.1310 C   0  0  0  0  0  2  0  0  0  0  0  0
  190.4280  170.4420  139.6130 N   0  0  0  0  0  1  0  0  0  0  0  0
  1 22  1  0  0  0  0
  2  1  2  0  0  0  0
  3  5  1  6  0  0  0
  4  8  1  0  0  0  0
  4 11  1  1  0  0  0
  4  7  1  0  0  0  0
  6  9  1  0  0  0  0
  7  3  1  0  0  0  0
  8 10  1  6  0  0  0
  8  3  1  0  0  0  0
  9  1  1  6  0  0  0
  9  5  1  0  0  0  0
 10  6  2  0  0  0  0
 12 17  1  0  0  0  0
 12 11  1  1  0  0  0
 13 15  1  0  0  0  0
 14 15  1  0  0  0  0
 16 17  1  0  0  0  0
 16 13  1  0  0  0  0
 17 14  1  0  0  0  0
 18 12  1  0  0  0  0
 19 20  2  0  0  0  0
 20 18  1  0  0  0  0
 21 20  1  0  0  0  0
 23 22  1  0  0  0  0
 24 25  1  0  0  0  0
 24 23  1  0  0  0  0
 26 28  1  0  0  0  0
 26 25  1  0  0  0  0
 27 28  1  0  0  0  0
 29 26  1  0  0  0  0
 30 35  2  0  0  0  0
 30 31  1  0  0  0  0
 31 33  2  0  0  0  0
 32 29  1  1  0  0  0
 34 33  1  0  0  0  0
 34 32  1  0  0  0  0
 35 32  1  0  0  0  0
 36 40  1  6  0  0  0
 36 35  1  0  0  0  0
 36 38  1  0  0  0  0
 37 38  2  0  0  0  0
 38 39  1  0  0  0  0
 41 40  1  0  0  0  0
M  END
>  <MODEL>
5

>  <REMARK>
 VINA RESULT:      -6.0      1.710      2.558
  Name = 
  16 active torsions:
  status: ('A' for Active; 'I' for Inactive)
    1  A    between atoms: N_3  and  C_24
    2  A    between atoms: N_3  and  C_38
    3  A    between atoms: N_3  and  C_41
    4  A    between atoms: N_5  and  C_9
    5  A    between atoms: C_6  and  C_11
    6  A    between atoms: C_6  and  O_37
    7  A    between atoms: C_7  and  C_29
    8  A    between atoms: C_9  and  C_30
    9  A    between atoms: C_9  and  C_32
   10  A    between atoms: C_10  and  C_30
   11  A    between atoms: C_11  and  C_24
   12  A    between atoms: C_16  and  C_38
   13  A    between atoms: C_25  and  C_29
   14  A    between atoms: C_29  and  C_35
   15  A    between atoms: C_33  and  C_36
   16  A    between atoms: C_36  and  O_37
                            x       y       z     vdW  Elec       q    Type
                         _______ _______ _______ _____ _____    ______ ____

>  <TORSDO>
F 16

$$$$
=
 OpenBabel11062422213D

 41 44  0  0  1  0  0  0  0  0999 V2000
  191.0160  171.4330  140.2740 C   0  0  0  0  0  0  0  0  0  0  0  0
  191.0420  170.6530  139.2420 N   0  0  0  0  0  2  0  0  0  0  0  0
  188.6160  174.3990  140.7080 C   0  0  2  0  0  3  0  0  0  0  0  0
  188.1510  175.1200  142.5700 C   0  0  2  0  0  3  0  0  0  0  0  0
  189.9280  173.6730  140.3830 C   0  0  0  0  0  2  0  0  0  0  0  0
  189.3850  171.9390  141.9970 N   0  0  0  0  0  0  0  0  0  0  0  0
  188.9060  175.6330  141.4280 N   0  0  0  0  0  2  0  0  0  0  0  0
  187.8160  173.8170  141.8810 C   0  0  2  0  0  3  0  0  0  0  0  0
  189.7600  172.1770  140.6210 C   0  0  2  0  0  3  0  0  0  0  0  0
  188.5030  172.6700  142.5880 C   0  0  0  0  0  3  0  0  0  0  0  0
  186.8890  175.9470  142.7670 C   0  0  0  0  0  2  0  0  0  0  0  0
  186.9150  176.6370  144.1270 C   0  0  1  0  0  3  0  0  0  0  0  0
  189.1860  177.0300  146.9950 C   0  0  0  0  0  2  0  0  0  0  0  0
  189.1900  177.5480  144.6470 C   0  0  0  0  0  2  0  0  0  0  0  0
  190.0660  177.5490  145.8770 C   0  0  0  0  0  2  0  0  0  0  0  0
  188.0630  176.2470  146.3360 C   0  0  0  0  0  2  0  0  0  0  0  0
  188.2470  176.3780  144.8320 C   0  0  0  0  0  3  0  0  0  0  0  0
  186.7300  178.0720  143.9420 N   0  0  0  0  0  2  0  0  0  0  0  0
  184.6150  178.1850  144.9410 O   0  0  0  0  0  0  0  0  0  0  0  0
  185.5480  178.7770  144.3350 C   0  0  0  0  0  0  0  0  0  0  0  0
  185.4330  180.1660  144.0490 N   0  0  0  0  0  1  0  0  0  0  0  0
  192.1550  171.5340  141.0760 O   0  0  0  0  0  0  0  0  0  0  0  0
  192.5500  170.4980  141.9610 C   0  0  0  0  0  2  0  0  0  0  0  0
  192.3380  170.9480  143.3930 C   0  0  0  0  0  2  0  0  0  0  0  0
  193.5240  170.5170  144.2350 C   0  0  0  0  0  2  0  0  0  0  0  0
  193.8340  171.5490  145.2120 N   0  0  0  0  0  0  0  0  0  0  0  0
  196.1410  171.7440  144.9350 O   0  0  0  0  0  1  0  0  0  0  0  0
  195.1410  171.2210  145.7580 C   0  0  0  0  0  2  0  0  0  0  0  0
  193.9820  172.7980  144.4770 C   0  0  0  0  0  2  0  0  0  0  0  0
  193.1460  175.8740  143.7680 C   0  0  0  0  0  3  0  0  0  0  0  0
  191.8440  175.3080  143.3650 C   0  0  0  0  0  3  0  0  0  0  0  0
  193.4430  173.9570  145.3040 C   0  0  2  0  0  3  0  0  0  0  0  0
  191.2730  174.3490  144.1000 C   0  0  0  0  0  3  0  0  0  0  0  0
  191.9100  173.8900  145.3870 C   0  0  0  0  0  2  0  0  0  0  0  0
  193.8900  175.2760  144.7090 C   0  0  0  0  0  0  0  0  0  0  0  0
  195.1580  175.9410  145.1670 C   0  0  1  0  0  3  0  0  0  0  0  0
  196.2790  176.7900  143.2190 O   0  0  0  0  0  0  0  0  0  0  0  0
  196.2100  175.8900  144.1010 C   0  0  0  0  0  0  0  0  0  0  0  0
  197.1370  174.8100  144.0810 N   0  0  0  0  0  1  0  0  0  0  0  0
  194.9310  177.3730  145.6400 C   0  0  0  0  0  2  0  0  0  0  0  0
  194.1880  177.3760  146.8880 N   0  0  0  0  0  1  0  0  0  0  0  0
  1 22  1  0  0  0  0
  2  1  2  0  0  0  0
  3  5  1  1  0  0  0
  3  7  1  0  0  0  0
  3  8  1  0  0  0  0
  4 11  1  6  0  0  0
  5  9  1  0  0  0  0
  6 10  2  0  0  0  0
  7  4  1  0  0  0  0
  8  4  1  0  0  0  0
  8 10  1  1  0  0  0
  9  1  1  1  0  0  0
  9  6  1  0  0  0  0
 12 11  1  6  0  0  0
 12 17  1  0  0  0  0
 14 17  1  0  0  0  0
 14 15  1  0  0  0  0
 15 13  1  0  0  0  0
 16 13  1  0  0  0  0
 17 16  1  0  0  0  0
 18 12  1  0  0  0  0
 18 20  1  0  0  0  0
 20 19  2  0  0  0  0
 21 20  1  0  0  0  0
 22 23  1  0  0  0  0
 23 24  1  0  0  0  0
 24 25  1  0  0  0  0
 25 26  1  0  0  0  0
 26 28  1  0  0  0  0
 27 28  1  0  0  0  0
 29 26  1  0  0  0  0
 30 35  2  0  0  0  0
 31 30  1  0  0  0  0
 31 33  2  0  0  0  0
 32 29  1  6  0  0  0
 32 34  1  0  0  0  0
 33 34  1  0  0  0  0
 35 36  1  0  0  0  0
 35 32  1  0  0  0  0
 36 40  1  6  0  0  0
 37 38  2  0  0  0  0
 38 36  1  0  0  0  0
 39 38  1  0  0  0  0
 40 41  1  0  0  0  0
M  END
>  <MODEL>
6

>  <REMARK>
 VINA RESULT:      -6.0      2.281      5.731
  Name = 
  16 active torsions:
  status: ('A' for Active; 'I' for Inactive)
    1  A    between atoms: N_3  and  C_24
    2  A    between atoms: N_3  and  C_38
    3  A    between atoms: N_3  and  C_41
    4  A    between atoms: N_5  and  C_9
    5  A    between atoms: C_6  and  C_11
    6  A    between atoms: C_6  and  O_37
    7  A    between atoms: C_7  and  C_29
    8  A    between atoms: C_9  and  C_30
    9  A    between atoms: C_9  and  C_32
   10  A    between atoms: C_10  and  C_30
   11  A    between atoms: C_11  and  C_24
   12  A    between atoms: C_16  and  C_38
   13  A    between atoms: C_25  and  C_29
   14  A    between atoms: C_29  and  C_35
   15  A    between atoms: C_33  and  C_36
   16  A    between atoms: C_36  and  O_37
                            x       y       z     vdW  Elec       q    Type
                         _______ _______ _______ _____ _____    ______ ____

>  <TORSDO>
F 16

$$$$
=
 OpenBabel11062422213D

 41 44  0  0  1  0  0  0  0  0999 V2000
  194.5300  176.1480  145.3520 C   0  0  0  0  0  0  0  0  0  0  0  0
  195.0190  175.4030  146.2900 N   0  0  0  0  0  2  0  0  0  0  0  0
  190.9900  176.7260  146.7260 C   0  0  2  0  0  3  0  0  0  0  0  0
  189.3340  176.3220  145.5870 C   0  0  2  0  0  3  0  0  0  0  0  0
  192.3400  176.0220  146.5380 C   0  0  0  0  0  2  0  0  0  0  0  0
  192.4850  176.8710  144.2660 N   0  0  0  0  0  0  0  0  0  0  0  0
  189.9260  175.7320  146.7860 N   0  0  0  0  0  2  0  0  0  0  0  0
  190.4090  177.3780  145.4650 C   0  0  2  0  0  3  0  0  0  0  0  0
  193.1850  176.7900  145.5280 C   0  0  2  0  0  3  0  0  0  0  0  0
  191.2250  177.1390  144.2140 C   0  0  0  0  0  3  0  0  0  0  0  0
  188.0020  176.9690  145.9340 C   0  0  0  0  0  2  0  0  0  0  0  0
  186.9390  176.5710  144.9160 C   0  0  1  0  0  3  0  0  0  0  0  0
  184.3110  179.0200  145.7150 C   0  0  0  0  0  2  0  0  0  0  0  0
  185.6030  177.3620  146.8820 C   0  0  0  0  0  2  0  0  0  0  0  0
  184.4520  178.3250  147.0530 C   0  0  0  0  0  2  0  0  0  0  0  0
  184.9570  178.1120  144.6830 C   0  0  0  0  0  2  0  0  0  0  0  0
  185.5450  176.9260  145.4340 C   0  0  0  0  0  3  0  0  0  0  0  0
  187.1870  177.2720  143.6620 N   0  0  0  0  0  2  0  0  0  0  0  0
  187.0760  175.3790  142.2870 O   0  0  0  0  0  0  0  0  0  0  0  0
  187.2810  176.6190  142.3920 C   0  0  0  0  0  0  0  0  0  0  0  0
  187.5950  177.3810  141.2320 N   0  0  0  0  0  1  0  0  0  0  0  0
  195.2890  176.3760  144.2030 O   0  0  0  0  0  0  0  0  0  0  0  0
  195.8430  175.3150  143.4400 C   0  0  0  0  0  2  0  0  0  0  0  0
  194.7500  174.3280  143.0790 C   0  0  0  0  0  2  0  0  0  0  0  0
  195.1150  172.9570  143.6150 C   0  0  0  0  0  2  0  0  0  0  0  0
  194.1480  171.9740  143.1510 N   0  0  0  0  0  0  0  0  0  0  0  0
  194.0620  171.9830  145.4820 O   0  0  0  0  0  1  0  0  0  0  0  0
  193.6440  171.3010  144.3370 C   0  0  0  0  0  2  0  0  0  0  0  0
  193.0330  172.7150  142.5770 C   0  0  0  0  0  2  0  0  0  0  0  0
  191.8380  173.7660  139.7250 C   0  0  0  0  0  3  0  0  0  0  0  0
  193.2490  173.8960  139.3120 C   0  0  0  0  0  3  0  0  0  0  0  0
  192.5280  172.0090  141.3260 C   0  0  2  0  0  3  0  0  0  0  0  0
  194.1370  172.9520  139.6420 C   0  0  0  0  0  3  0  0  0  0  0  0
  193.6930  171.7090  140.3710 C   0  0  0  0  0  2  0  0  0  0  0  0
  191.4760  172.8540  140.6390 C   0  0  0  0  0  0  0  0  0  0  0  0
  190.0160  172.6810  140.9550 C   0  0  1  0  0  3  0  0  0  0  0  0
  190.0240  174.0840  142.9040 O   0  0  0  0  0  0  0  0  0  0  0  0
  189.7380  172.9630  142.3990 C   0  0  0  0  0  0  0  0  0  0  0  0
  189.1510  171.9520  143.2110 N   0  0  0  0  0  1  0  0  0  0  0  0
  189.1180  173.5220  140.0520 C   0  0  0  0  0  2  0  0  0  0  0  0
  188.2000  172.6650  139.3210 N   0  0  0  0  0  1  0  0  0  0  0  0
  1  2  2  0  0  0  0
  3  5  1  6  0  0  0
  3  7  1  0  0  0  0
  4 11  1  1  0  0  0
  4  7  1  0  0  0  0
  6  9  1  0  0  0  0
  8 10  1  6  0  0  0
  8  4  1  0  0  0  0
  8  3  1  0  0  0  0
  9  1  1  6  0  0  0
  9  5  1  0  0  0  0
 10  6  2  0  0  0  0
 12 17  1  0  0  0  0
 12 11  1  1  0  0  0
 13 15  1  0  0  0  0
 14 15  1  0  0  0  0
 16 17  1  0  0  0  0
 16 13  1  0  0  0  0
 17 14  1  0  0  0  0
 18 12  1  0  0  0  0
 19 20  2  0  0  0  0
 20 18  1  0  0  0  0
 21 20  1  0  0  0  0
 22  1  1  0  0  0  0
 23 22  1  0  0  0  0
 24 23  1  0  0  0  0
 24 25  1  0  0  0  0
 26 25  1  0  0  0  0
 26 28  1  0  0  0  0
 28 27  1  0  0  0  0
 29 26  1  0  0  0  0
 30 35  2  0  0  0  0
 31 33  2  0  0  0  0
 31 30  1  0  0  0  0
 32 29  1  1  0  0  0
 33 34  1  0  0  0  0
 34 32  1  0  0  0  0
 35 36  1  0  0  0  0
 35 32  1  0  0  0  0
 36 40  1  6  0  0  0
 36 38  1  0  0  0  0
 38 37  2  0  0  0  0
 38 39  1  0  0  0  0
 41 40  1  0  0  0  0
M  END
>  <MODEL>
7

>  <REMARK>
 VINA RESULT:      -5.8      1.673      2.562
  Name = 
  16 active torsions:
  status: ('A' for Active; 'I' for Inactive)
    1  A    between atoms: N_3  and  C_24
    2  A    between atoms: N_3  and  C_38
    3  A    between atoms: N_3  and  C_41
    4  A    between atoms: N_5  and  C_9
    5  A    between atoms: C_6  and  C_11
    6  A    between atoms: C_6  and  O_37
    7  A    between atoms: C_7  and  C_29
    8  A    between atoms: C_9  and  C_30
    9  A    between atoms: C_9  and  C_32
   10  A    between atoms: C_10  and  C_30
   11  A    between atoms: C_11  and  C_24
   12  A    between atoms: C_16  and  C_38
   13  A    between atoms: C_25  and  C_29
   14  A    between atoms: C_29  and  C_35
   15  A    between atoms: C_33  and  C_36
   16  A    between atoms: C_36  and  O_37
                            x       y       z     vdW  Elec       q    Type
                         _______ _______ _______ _____ _____    ______ ____

>  <TORSDO>
F 16

$$$$
=
 OpenBabel11062422213D

 41 44  0  0  1  0  0  0  0  0999 V2000
  190.6270  173.1260  139.7260 C   0  0  0  0  0  0  0  0  0  0  0  0
  190.2100  173.0210  138.5060 N   0  0  0  0  0  2  0  0  0  0  0  0
  187.7580  174.9220  141.5400 C   0  0  2  0  0  3  0  0  0  0  0  0
  188.1300  176.2300  143.0750 C   0  0  2  0  0  3  0  0  0  0  0  0
  188.7590  174.6260  140.4170 C   0  0  0  0  0  2  0  0  0  0  0  0
  190.3630  173.7950  142.0420 N   0  0  0  0  0  0  0  0  0  0  0  0
  187.6250  176.3630  141.7090 N   0  0  0  0  0  2  0  0  0  0  0  0
  188.2940  174.7300  142.9650 C   0  0  2  0  0  3  0  0  0  0  0  0
  189.6610  173.4660  140.8230 C   0  0  2  0  0  3  0  0  0  0  0  0
  189.7610  174.3680  143.0290 C   0  0  0  0  0  3  0  0  0  0  0  0
  187.0270  176.5630  144.0670 C   0  0  0  0  0  2  0  0  0  0  0  0
  187.6200  177.1790  145.3300 C   0  0  1  0  0  3  0  0  0  0  0  0
  184.3780  178.1390  146.7820 C   0  0  0  0  0  2  0  0  0  0  0  0
  185.7020  178.7210  144.8610 C   0  0  0  0  0  2  0  0  0  0  0  0
  184.4510  179.1020  145.6160 C   0  0  0  0  0  2  0  0  0  0  0  0
  185.7880  177.6190  147.0050 C   0  0  0  0  0  2  0  0  0  0  0  0
  186.6650  178.2200  145.9160 C   0  0  0  0  0  3  0  0  0  0  0  0
  187.8600  176.1280  146.3120 N   0  0  0  0  0  2  0  0  0  0  0  0
  190.1910  176.1010  146.0900 O   0  0  0  0  0  0  0  0  0  0  0  0
  189.1570  175.6090  146.6190 C   0  0  0  0  0  0  0  0  0  0  0  0
  189.2820  174.5330  147.5430 N   0  0  0  0  0  1  0  0  0  0  0  0
  191.9720  172.8750  140.0070 O   0  0  0  0  0  0  0  0  0  0  0  0
  193.0100  173.7290  139.5510 C   0  0  0  0  0  2  0  0  0  0  0  0
  194.1950  173.6320  140.4920 C   0  0  0  0  0  2  0  0  0  0  0  0
  194.2630  174.8850  141.3430 C   0  0  0  0  0  2  0  0  0  0  0  0
  195.5620  174.9680  141.9920 N   0  0  0  0  0  0  0  0  0  0  0  0
  196.0500  177.1490  141.3270 O   0  0  0  0  0  1  0  0  0  0  0  0
  196.3930  175.8070  141.1450 C   0  0  0  0  0  2  0  0  0  0  0  0
  195.3660  175.6880  143.2430 C   0  0  0  0  0  2  0  0  0  0  0  0
  194.5900  175.2990  146.3900 C   0  0  0  0  0  3  0  0  0  0  0  0
  194.1890  176.7190  146.3500 C   0  0  0  0  0  3  0  0  0  0  0  0
  194.1340  175.1580  143.9620 C   0  0  2  0  0  3  0  0  0  0  0  0
  193.5250  177.2000  145.2940 C   0  0  0  0  0  3  0  0  0  0  0  0
  193.1090  176.2830  144.1710 C   0  0  0  0  0  2  0  0  0  0  0  0
  194.5290  174.5400  145.2870 C   0  0  0  0  0  0  0  0  0  0  0  0
  194.8440  173.0740  145.3940 C   0  0  1  0  0  3  0  0  0  0  0  0
  192.7440  172.1380  144.6940 O   0  0  0  0  0  0  0  0  0  0  0  0
  193.9800  172.2670  144.4730 C   0  0  0  0  0  0  0  0  0  0  0  0
  194.5640  171.6320  143.3410 N   0  0  0  0  0  1  0  0  0  0  0  0
  196.3210  172.7740  145.1570 C   0  0  0  0  0  2  0  0  0  0  0  0
  196.7950  171.8000  146.1250 N   0  0  0  0  0  1  0  0  0  0  0  0
  1 22  1  0  0  0  0
  2  1  2  0  0  0  0
  3  5  1  6  0  0  0
  3  7  1  0  0  0  0
  3  8  1  0  0  0  0
  4 11  1  1  0  0  0
  5  9  1  0  0  0  0
  6 10  2  0  0  0  0
  7  4  1  0  0  0  0
  8 10  1  6  0  0  0
  8  4  1  0  0  0  0
  9  1  1  6  0  0  0
  9  6  1  0  0  0  0
 12 11  1  6  0  0  0
 12 17  1  0  0  0  0
 12 18  1  0  0  0  0
 13 16  1  0  0  0  0
 14 15  1  0  0  0  0
 14 17  1  0  0  0  0
 15 13  1  0  0  0  0
 17 16  1  0  0  0  0
 18 20  1  0  0  0  0
 19 20  2  0  0  0  0
 20 21  1  0  0  0  0
 23 22  1  0  0  0  0
 23 24  1  0  0  0  0
 24 25  1  0  0  0  0
 25 26  1  0  0  0  0
 26 29  1  0  0  0  0
 28 27  1  0  0  0  0
 28 26  1  0  0  0  0
 31 30  1  0  0  0  0
 32 29  1  1  0  0  0
 32 34  1  0  0  0  0
 32 35  1  0  0  0  0
 33 31  2  0  0  0  0
 34 33  1  0  0  0  0
 35 36  1  0  0  0  0
 35 30  2  0  0  0  0
 36 40  1  6  0  0  0
 38 37  2  0  0  0  0
 38 36  1  0  0  0  0
 39 38  1  0  0  0  0
 40 41  1  0  0  0  0
M  END
>  <MODEL>
8

>  <REMARK>
 VINA RESULT:      -5.8      2.132      5.527
  Name = 
  16 active torsions:
  status: ('A' for Active; 'I' for Inactive)
    1  A    between atoms: N_3  and  C_24
    2  A    between atoms: N_3  and  C_38
    3  A    between atoms: N_3  and  C_41
    4  A    between atoms: N_5  and  C_9
    5  A    between atoms: C_6  and  C_11
    6  A    between atoms: C_6  and  O_37
    7  A    between atoms: C_7  and  C_29
    8  A    between atoms: C_9  and  C_30
    9  A    between atoms: C_9  and  C_32
   10  A    between atoms: C_10  and  C_30
   11  A    between atoms: C_11  and  C_24
   12  A    between atoms: C_16  and  C_38
   13  A    between atoms: C_25  and  C_29
   14  A    between atoms: C_29  and  C_35
   15  A    between atoms: C_33  and  C_36
   16  A    between atoms: C_36  and  O_37
                            x       y       z     vdW  Elec       q    Type
                         _______ _______ _______ _____ _____    ______ ____

>  <TORSDO>
F 16

$$$$
=
 OpenBabel11062422213D

 41 44  0  0  1  0  0  0  0  0999 V2000
  193.7390  175.5860  145.5600 C   0  0  0  0  0  0  0  0  0  0  0  0
  194.5760  175.8260  146.5170 N   0  0  0  0  0  2  0  0  0  0  0  0
  190.2390  177.1620  145.6870 C   0  0  2  0  0  3  0  0  0  0  0  0
  188.9730  177.0600  144.0770 C   0  0  2  0  0  3  0  0  0  0  0  0
  191.3400  176.1320  145.9670 C   0  0  0  0  0  2  0  0  0  0  0  0
  192.4050  176.6710  143.8500 N   0  0  0  0  0  0  0  0  0  0  0  0
  188.9830  176.4740  145.4160 N   0  0  0  0  0  2  0  0  0  0  0  0
  190.2750  177.7990  144.2910 C   0  0  2  0  0  3  0  0  0  0  0  0
  192.6300  176.5550  145.2730 C   0  0  2  0  0  3  0  0  0  0  0  0
  191.3430  177.2340  143.3820 C   0  0  0  0  0  3  0  0  0  0  0  0
  187.8250  178.0490  143.9560 C   0  0  0  0  0  2  0  0  0  0  0  0
  186.5460  177.3270  143.5450 C   0  0  1  0  0  3  0  0  0  0  0  0
  185.2310  179.0450  146.5220 C   0  0  0  0  0  2  0  0  0  0  0  0
  185.5370  176.7810  145.7720 C   0  0  0  0  0  2  0  0  0  0  0  0
  184.9290  177.6050  146.8810 C   0  0  0  0  0  2  0  0  0  0  0  0
  185.4920  179.0740  145.0250 C   0  0  0  0  0  2  0  0  0  0  0  0
  185.4180  177.6370  144.5290 C   0  0  0  0  0  3  0  0  0  0  0  0
  186.1590  177.7570  142.2060 N   0  0  0  0  0  2  0  0  0  0  0  0
  187.5080  176.2330  141.0490 O   0  0  0  0  0  0  0  0  0  0  0  0
  186.7000  177.2000  141.0050 C   0  0  0  0  0  0  0  0  0  0  0  0
  186.3100  177.7350  139.7450 N   0  0  0  0  0  1  0  0  0  0  0  0
  193.9110  174.4400  144.7800 O   0  0  0  0  0  0  0  0  0  0  0  0
  193.7390  173.1340  145.3080 C   0  0  0  0  0  2  0  0  0  0  0  0
  193.9750  172.1120  144.2150 C   0  0  0  0  0  2  0  0  0  0  0  0
  192.8710  171.0730  144.2530 C   0  0  0  0  0  2  0  0  0  0  0  0
  192.4570  170.7440  142.8970 N   0  0  0  0  0  0  0  0  0  0  0  0
  192.7770  168.7430  144.0510 O   0  0  0  0  0  1  0  0  0  0  0  0
  192.4330  169.2930  142.8140 C   0  0  0  0  0  2  0  0  0  0  0  0
  191.0820  171.2010  142.7510 C   0  0  0  0  0  2  0  0  0  0  0  0
  188.9370  172.6750  140.7780 C   0  0  0  0  0  3  0  0  0  0  0  0
  188.2500  173.0850  142.0190 C   0  0  0  0  0  3  0  0  0  0  0  0
  191.0530  172.5550  142.0560 C   0  0  2  0  0  3  0  0  0  0  0  0
  188.9580  173.4970  143.0750 C   0  0  0  0  0  3  0  0  0  0  0  0
  190.4590  173.6240  142.9860 C   0  0  0  0  0  2  0  0  0  0  0  0
  190.2610  172.4640  140.7680 C   0  0  0  0  0  0  0  0  0  0  0  0
  190.9390  172.1520  139.4630 C   0  0  1  0  0  3  0  0  0  0  0  0
  191.3210  169.7820  139.5420 O   0  0  0  0  0  0  0  0  0  0  0  0
  190.6720  170.7410  139.0390 C   0  0  0  0  0  0  0  0  0  0  0  0
  189.6790  170.4800  138.0530 N   0  0  0  0  0  1  0  0  0  0  0  0
  190.5600  173.1330  138.3580 C   0  0  0  0  0  2  0  0  0  0  0  0
  191.7580  173.6840  137.7460 N   0  0  0  0  0  1  0  0  0  0  0  0
  1  2  2  0  0  0  0
  3  5  1  6  0  0  0
  4 11  1  1  0  0  0
  4  8  1  0  0  0  0
  4  7  1  0  0  0  0
  6  9  1  0  0  0  0
  7  3  1  0  0  0  0
  8 10  1  6  0  0  0
  8  3  1  0  0  0  0
  9  1  1  6  0  0  0
  9  5  1  0  0  0  0
 10  6  2  0  0  0  0
 12 11  1  1  0  0  0
 12 17  1  0  0  0  0
 13 15  1  0  0  0  0
 14 15  1  0  0  0  0
 16 13  1  0  0  0  0
 17 16  1  0  0  0  0
 17 14  1  0  0  0  0
 18 12  1  0  0  0  0
 20 19  2  0  0  0  0
 20 18  1  0  0  0  0
 21 20  1  0  0  0  0
 22 23  1  0  0  0  0
 22  1  1  0  0  0  0
 24 25  1  0  0  0  0
 24 23  1  0  0  0  0
 26 25  1  0  0  0  0
 28 26  1  0  0  0  0
 28 27  1  0  0  0  0
 29 26  1  0  0  0  0
 30 31  1  0  0  0  0
 31 33  2  0  0  0  0
 32 29  1  1  0  0  0
 32 34  1  0  0  0  0
 34 33  1  0  0  0  0
 35 30  2  0  0  0  0
 35 32  1  0  0  0  0
 36 40  1  6  0  0  0
 36 35  1  0  0  0  0
 38 36  1  0  0  0  0
 38 37  2  0  0  0  0
 39 38  1  0  0  0  0
 41 40  1  0  0  0  0
M  END
>  <MODEL>
9

>  <REMARK>
 VINA RESULT:      -5.7      1.643      1.924
  Name = 
  16 active torsions:
  status: ('A' for Active; 'I' for Inactive)
    1  A    between atoms: N_3  and  C_24
    2  A    between atoms: N_3  and  C_38
    3  A    between atoms: N_3  and  C_41
    4  A    between atoms: N_5  and  C_9
    5  A    between atoms: C_6  and  C_11
    6  A    between atoms: C_6  and  O_37
    7  A    between atoms: C_7  and  C_29
    8  A    between atoms: C_9  and  C_30
    9  A    between atoms: C_9  and  C_32
   10  A    between atoms: C_10  and  C_30
   11  A    between atoms: C_11  and  C_24
   12  A    between atoms: C_16  and  C_38
   13  A    between atoms: C_25  and  C_29
   14  A    between atoms: C_29  and  C_35
   15  A    between atoms: C_33  and  C_36
   16  A    between atoms: C_36  and  O_37
                            x       y       z     vdW  Elec       q    Type
                         _______ _______ _______ _____ _____    ______ ____

>  <TORSDO>
F 16

$$$$
