=
 OpenBabel11072409323D

 58 63  0  0  1  0  0  0  0  0999 V2000
  187.7230  177.5230  144.4680 C   0  0  0  0  0  0  0  0  0  0  0  0
  189.0720  177.9020  141.5880 C   0  0  0  0  0  2  0  0  0  0  0  0
  188.8560  176.7880  144.6060 C   0  0  0  0  0  0  0  0  0  0  0  0
  187.4450  178.3810  143.2710 C   0  0  0  0  0  2  0  0  0  0  0  0
  187.7050  177.6370  142.0460 N   0  0  0  0  0  2  0  0  0  0  0  0
  189.9500  176.7320  143.5560 C   0  0  2  0  0  3  0  0  0  0  0  0
  186.9710  176.8090  146.6570 N   0  0  0  0  0  0  0  0  0  0  0  0
  186.7830  177.5390  145.4990 O   0  0  0  0  0  0  0  0  0  0  0  0
  189.0650  175.9880  145.8450 C   0  0  0  0  0  0  0  0  0  0  0  0
  190.0470  177.9150  142.6900 N   0  0  0  0  0  2  0  0  0  0  0  0
  188.1450  176.0130  146.8160 C   0  0  0  0  0  3  0  0  0  0  0  0
  188.8980  174.6050  142.6430 C   0  0  0  0  0  3  0  0  0  0  0  0
  187.7700  172.5470  139.3860 O   0  0  0  0  0  0  0  0  0  0  0  0
  189.0190  172.5870  139.5590 C   0  0  0  0  0  0  0  0  0  0  0  0
  190.9500  172.9750  141.0350 C   0  0  0  0  0  3  0  0  0  0  0  0
  188.6470  173.6660  141.7360 C   0  0  0  0  0  3  0  0  0  0  0  0
  192.5460  175.8680  142.8000 C   0  0  0  0  0  1  0  0  0  0  0  0
  191.7130  173.7550  141.7950 C   0  0  0  0  0  3  0  0  0  0  0  0
  190.1260  175.4060  142.8380 C   0  0  0  0  0  0  0  0  0  0  0  0
  189.5660  173.1950  140.7430 N   0  0  0  0  0  0  0  0  0  0  0  0
  191.3640  175.0160  142.4670 C   0  0  0  0  0  0  0  0  0  0  0  0
  189.8870  170.5910  138.5880 O   0  0  0  0  0  0  0  0  0  0  0  0
  189.6850  171.1760  136.3000 C   0  0  0  0  0  2  0  0  0  0  0  0
  189.4850  172.4130  137.1260 C   0  0  0  0  0  2  0  0  0  0  0  0
  189.9160  171.9950  138.5140 C   0  0  1  0  0  3  0  0  0  0  0  0
  190.2150  170.1640  137.2920 C   0  0  0  0  0  2  0  0  0  0  0  0
  190.2360  175.2310  145.9790 O   0  0  0  0  0  0  0  0  0  0  0  0
  191.4290  176.8730  147.8430 O   0  0  0  0  0  0  0  0  0  0  0  0
  191.6310  175.7640  146.8380 P   0  0  1  0  0  4  0  0  0  0  0  0
  193.1990  174.8420  146.8030 C   0  0  0  0  0  2  0  0  0  0  0  0
  194.2860  175.6890  146.1620 C   0  0  0  0  0  2  0  0  0  0  0  0
  194.7220  173.5900  145.2170 C   0  0  0  0  0  2  0  0  0  0  0  0
  196.1240  174.3970  143.4440 C   0  0  0  0  0  2  0  0  0  0  0  0
  195.3480  174.8330  145.6610 N   0  0  0  0  0  0  0  0  0  0  0  0
  195.0820  173.3570  143.7650 C   0  0  1  0  0  3  0  0  0  0  0  0
  195.8900  175.4740  144.4710 C   0  0  0  0  0  2  0  0  0  0  0  0
  194.2080  169.0590  141.5650 O   0  0  0  0  0  1  0  0  0  0  0  0
  194.8830  171.1900  142.3740 C   0  0  1  0  0  3  0  0  0  0  0  0
  196.9200  169.0800  143.8580 O   0  0  0  0  0  0  0  0  0  0  0  0
  197.0340  171.8240  143.4520 N   0  0  0  0  0  2  0  0  0  0  0  0
  196.3970  169.6070  141.3430 O   0  0  0  0  0  1  0  0  0  0  0  0
  195.5760  171.9200  143.5400 C   0  0  1  0  0  3  0  0  0  0  0  0
  196.9370  169.8870  145.0040 C   0  0  2  0  0  3  0  0  0  0  0  0
  195.5680  168.9840  143.4990 C   0  0  0  0  0  2  0  0  0  0  0  0
  194.9480  171.9670  141.0630 C   0  0  0  0  0  1  0  0  0  0  0  0
  195.2810  169.7070  142.1770 C   0  0  0  0  0  0  0  0  0  0  0  0
  197.5380  171.2630  144.7060 C   0  0  0  0  0  2  0  0  0  0  0  0
  197.6690  169.1980  146.1480 C   0  0  0  0  0  2  0  0  0  0  0  0
  196.7570  168.9370  147.3340 C   0  0  0  0  0  1  0  0  0  0  0  0
  186.0560  176.9900  147.7670 C   0  0  0  0  0  2  0  0  0  0  0  0
  185.0680  178.1050  147.4590 C   0  0  1  0  0  3  0  0  0  0  0  0
  185.7480  179.3200  147.3230 O   0  0  0  0  0  1  0  0  0  0  0  0
  184.3410  177.7940  146.1650 C   0  0  0  0  0  2  0  0  0  0  0  0
  183.8940  179.1810  144.1490 C   0  0  0  0  0  3  0  0  0  0  0  0
  183.9870  179.0680  145.4780 C   0  0  0  0  0  3  0  0  0  0  0  0
  184.1620  178.0490  143.2100 C   0  0  0  0  0  2  0  0  0  0  0  0
  184.2380  178.2800  141.0130 C   0  0  0  0  0  1  0  0  0  0  0  0
  183.3450  178.1720  142.0870 O   0  0  0  0  0  0  0  0  0  0  0  0
  1  3  2  0  0  0  0
  1  8  1  0  0  0  0
  2  5  1  0  0  0  0
  2 10  1  0  0  0  0
  3  9  1  0  0  0  0
  4  1  1  0  0  0  0
  5  4  1  0  0  0  0
  6 19  1  6  0  0  0
  6  3  1  0  0  0  0
  7 11  1  0  0  0  0
  7 50  1  0  0  0  0
  8  7  1  0  0  0  0
  9 27  1  0  0  0  0
  9 11  2  0  0  0  0
 10  6  1  0  0  0  0
 12 19  1  0  0  0  0
 13 14  2  0  0  0  0
 14 20  1  0  0  0  0
 15 18  2  0  0  0  0
 16 12  2  0  0  0  0
 18 21  1  0  0  0  0
 20 15  1  0  0  0  0
 20 16  1  0  0  0  0
 21 17  1  0  0  0  0
 21 19  2  0  0  0  0
 23 24  1  0  0  0  0
 23 26  1  0  0  0  0
 24 25  1  0  0  0  0
 25 22  1  0  0  0  0
 25 14  1  1  0  0  0
 26 22  1  0  0  0  0
 27 29  1  0  0  0  0
 29 28  2  1  0  0  0
 30 29  1  0  0  0  0
 31 30  1  0  0  0  0
 32 34  1  0  0  0  0
 33 36  1  0  0  0  0
 34 31  1  0  0  0  0
 35 33  1  1  0  0  0
 35 32  1  0  0  0  0
 36 34  1  0  0  0  0
 37 46  1  0  0  0  0
 38 45  1  6  0  0  0
 38 42  1  0  0  0  0
 39 43  1  0  0  0  0
 40 47  1  0  0  0  0
 41 46  1  0  0  0  0
 42 40  1  6  0  0  0
 42 35  1  0  0  0  0
 43 48  1  1  0  0  0
 44 39  1  0  0  0  0
 46 38  1  0  0  0  0
 46 44  1  0  0  0  0
 47 43  1  0  0  0  0
 48 49  1  0  0  0  0
 51 52  1  6  0  0  0
 51 50  1  0  0  0  0
 53 51  1  0  0  0  0
 54 55  2  0  0  0  0
 55 53  1  0  0  0  0
 56 54  1  0  0  0  0
 57 58  1  0  0  0  0
 58 56  1  0  0  0  0
M  END
>  <MODEL>
1

>  <REMARK>
 VINA RESULT:      -7.8      0.000      0.000
  Name = 
  15 active torsions:
  status: ('A' for Active; 'I' for Inactive)
    1  A    between atoms: C_1  and  C_19
    2  A    between atoms: C_1  and  C_46
    3  A    between atoms: C_5  and  C_16
    4  A    between atoms: C_5  and  N_38
    5  A    between atoms: P_13  and  C_16
    6  A    between atoms: P_13  and  O_24
    7  A    between atoms: C_15  and  C_43
    8  A    between atoms: N_18  and  C_46
    9  A    between atoms: C_19  and  C_49
   10  A    between atoms: C_20  and  C_45
   11  A    between atoms: O_24  and  C_42
   12  A    between atoms: C_25  and  C_50
   13  A    between atoms: C_27  and  C_52
   14  A    between atoms: C_28  and  C_30
   15  A    between atoms: C_45  and  O_48
                            x       y       z     vdW  Elec       q    Type
                         _______ _______ _______ _____ _____    ______ ____

>  <TORSDO>
F 15

$$$$
=
 OpenBabel11072409323D

 58 63  0  0  1  0  0  0  0  0999 V2000
  190.7160  171.4520  141.7930 C   0  0  0  0  0  0  0  0  0  0  0  0
  190.5410  173.0660  144.5540 C   0  0  0  0  0  2  0  0  0  0  0  0
  191.2510  172.6480  141.4370 C   0  0  0  0  0  0  0  0  0  0  0  0
  190.3720  171.0990  143.2080 C   0  0  0  0  0  2  0  0  0  0  0  0
  189.6220  172.1820  143.8310 N   0  0  0  0  0  2  0  0  0  0  0  0
  191.5340  173.7660  142.4240 C   0  0  2  0  0  3  0  0  0  0  0  0
  190.8400  170.6900  139.4980 N   0  0  0  0  0  0  0  0  0  0  0  0
  190.5180  170.4690  140.8220 O   0  0  0  0  0  0  0  0  0  0  0  0
  191.5930  172.9020  140.0100 C   0  0  0  0  0  0  0  0  0  0  0  0
  191.7790  173.3320  143.8060 N   0  0  0  0  0  2  0  0  0  0  0  0
  191.3860  171.9480  139.0950 C   0  0  0  0  0  3  0  0  0  0  0  0
  189.3320  174.8140  141.7060 C   0  0  0  0  0  3  0  0  0  0  0  0
  185.8520  176.4450  142.8680 O   0  0  0  0  0  0  0  0  0  0  0  0
  186.8530  177.1890  143.0530 C   0  0  0  0  0  0  0  0  0  0  0  0
  189.1950  177.7640  142.5640 C   0  0  0  0  0  3  0  0  0  0  0  0
  188.2420  175.5640  141.8400 C   0  0  0  0  0  3  0  0  0  0  0  0
  192.5890  176.2940  143.1650 C   0  0  0  0  0  1  0  0  0  0  0  0
  190.5000  177.5040  142.5810 C   0  0  0  0  0  3  0  0  0  0  0  0
  190.6740  175.0100  142.2950 C   0  0  0  0  0  0  0  0  0  0  0  0
  188.1530  176.7830  142.5860 N   0  0  0  0  0  0  0  0  0  0  0  0
  191.1820  176.2040  142.6690 C   0  0  0  0  0  0  0  0  0  0  0  0
  185.5470  179.1720  143.2520 O   0  0  0  0  0  0  0  0  0  0  0  0
  185.4070  179.2870  145.6150 C   0  0  0  0  0  2  0  0  0  0  0  0
  186.4560  178.2790  145.2500 C   0  0  0  0  0  2  0  0  0  0  0  0
  186.6650  178.4930  143.7670 C   0  0  1  0  0  3  0  0  0  0  0  0
  185.1140  179.9900  144.3070 C   0  0  0  0  0  2  0  0  0  0  0  0
  192.1430  174.1400  139.6500 O   0  0  0  0  0  0  0  0  0  0  0  0
  192.8200  175.0250  137.1290 O   0  0  0  0  0  0  0  0  0  0  0  0
  193.2990  174.3460  138.3900 P   0  0  1  0  0  4  0  0  0  0  0  0
  195.0780  174.0740  138.6570 C   0  0  0  0  0  2  0  0  0  0  0  0
  195.7790  175.4050  138.8830 C   0  0  0  0  0  2  0  0  0  0  0  0
  195.6570  174.3430  140.9680 C   0  0  0  0  0  2  0  0  0  0  0  0
  197.9410  174.7410  141.5880 C   0  0  0  0  0  2  0  0  0  0  0  0
  196.1090  175.5560  140.2900 N   0  0  0  0  0  0  0  0  0  0  0  0
  196.8350  173.7230  141.6890 C   0  0  1  0  0  3  0  0  0  0  0  0
  197.5610  175.5730  140.3900 C   0  0  0  0  0  2  0  0  0  0  0  0
  195.5780  170.1450  144.8020 O   0  0  0  0  0  1  0  0  0  0  0  0
  196.5150  171.8590  143.4480 C   0  0  1  0  0  3  0  0  0  0  0  0
  195.4330  173.4400  146.1210 O   0  0  0  0  0  0  0  0  0  0  0  0
  197.2290  174.1450  144.1230 N   0  0  0  0  0  2  0  0  0  0  0  0
  197.1400  171.4820  145.7570 O   0  0  0  0  0  1  0  0  0  0  0  0
  196.4740  173.3680  143.1390 C   0  0  1  0  0  3  0  0  0  0  0  0
  195.1010  174.5550  145.3390 C   0  0  2  0  0  3  0  0  0  0  0  0
  194.9320  172.3360  145.4150 C   0  0  0  0  0  2  0  0  0  0  0  0
  197.8450  171.2120  143.0780 C   0  0  0  0  0  1  0  0  0  0  0  0
  196.0610  171.4520  144.8710 C   0  0  0  0  0  0  0  0  0  0  0  0
  196.3440  175.1660  144.6850 C   0  0  0  0  0  2  0  0  0  0  0  0
  194.3380  175.5890  146.1560 C   0  0  0  0  0  2  0  0  0  0  0  0
  193.0170  175.0470  146.6720 C   0  0  0  0  0  1  0  0  0  0  0  0
  190.7780  169.5880  138.5580 C   0  0  0  0  0  2  0  0  0  0  0  0
  191.8990  169.7060  137.5350 C   0  0  1  0  0  3  0  0  0  0  0  0
  192.6860  168.5500  137.5550 O   0  0  0  0  0  1  0  0  0  0  0  0
  191.3040  169.8810  136.1510 C   0  0  0  0  0  2  0  0  0  0  0  0
  189.3970  171.4340  135.7840 C   0  0  0  0  0  3  0  0  0  0  0  0
  189.8760  170.2870  136.2750 C   0  0  0  0  0  3  0  0  0  0  0  0
  190.2470  172.4430  135.0820 C   0  0  0  0  0  2  0  0  0  0  0  0
  189.6140  174.0530  136.4580 C   0  0  0  0  0  1  0  0  0  0  0  0
  189.6140  173.6850  135.1070 O   0  0  0  0  0  0  0  0  0  0  0  0
  1  4  1  0  0  0  0
  3  1  2  0  0  0  0
  3  6  1  0  0  0  0
  4  5  1  0  0  0  0
  5  2  1  0  0  0  0
  6 19  1  1  0  0  0
  6 10  1  0  0  0  0
  7  8  1  0  0  0  0
  8  1  1  0  0  0  0
  9  3  1  0  0  0  0
 10  2  1  0  0  0  0
 11  7  1  0  0  0  0
 11  9  2  0  0  0  0
 12 16  2  0  0  0  0
 12 19  1  0  0  0  0
 13 14  2  0  0  0  0
 15 18  2  0  0  0  0
 15 20  1  0  0  0  0
 16 20  1  0  0  0  0
 18 21  1  0  0  0  0
 19 21  2  0  0  0  0
 20 14  1  0  0  0  0
 21 17  1  0  0  0  0
 22 25  1  0  0  0  0
 22 26  1  0  0  0  0
 24 23  1  0  0  0  0
 25 14  1  6  0  0  0
 25 24  1  0  0  0  0
 26 23  1  0  0  0  0
 27  9  1  0  0  0  0
 29 28  2  1  0  0  0
 29 30  1  0  0  0  0
 29 27  1  0  0  0  0
 30 31  1  0  0  0  0
 31 34  1  0  0  0  0
 33 35  1  0  0  0  0
 34 36  1  0  0  0  0
 34 32  1  0  0  0  0
 35 32  1  1  0  0  0
 35 42  1  0  0  0  0
 36 33  1  0  0  0  0
 37 46  1  0  0  0  0
 38 45  1  1  0  0  0
 38 46  1  0  0  0  0
 40 47  1  0  0  0  0
 42 38  1  0  0  0  0
 42 40  1  1  0  0  0
 43 39  1  0  0  0  0
 43 48  1  1  0  0  0
 44 39  1  0  0  0  0
 46 44  1  0  0  0  0
 46 41  1  0  0  0  0
 47 43  1  0  0  0  0
 48 49  1  0  0  0  0
 50  7  1  0  0  0  0
 51 52  1  6  0  0  0
 51 50  1  0  0  0  0
 53 55  1  0  0  0  0
 53 51  1  0  0  0  0
 54 55  2  0  0  0  0
 56 58  1  0  0  0  0
 56 54  1  0  0  0  0
 58 57  1  0  0  0  0
M  END
>  <MODEL>
2

>  <REMARK>
 VINA RESULT:      -7.4      2.682      7.874
  Name = 
  15 active torsions:
  status: ('A' for Active; 'I' for Inactive)
    1  A    between atoms: C_1  and  C_19
    2  A    between atoms: C_1  and  C_46
    3  A    between atoms: C_5  and  C_16
    4  A    between atoms: C_5  and  N_38
    5  A    between atoms: P_13  and  C_16
    6  A    between atoms: P_13  and  O_24
    7  A    between atoms: C_15  and  C_43
    8  A    between atoms: N_18  and  C_46
    9  A    between atoms: C_19  and  C_49
   10  A    between atoms: C_20  and  C_45
   11  A    between atoms: O_24  and  C_42
   12  A    between atoms: C_25  and  C_50
   13  A    between atoms: C_27  and  C_52
   14  A    between atoms: C_28  and  C_30
   15  A    between atoms: C_45  and  O_48
                            x       y       z     vdW  Elec       q    Type
                         _______ _______ _______ _____ _____    ______ ____

>  <TORSDO>
F 15

$$$$
=
 OpenBabel11072409323D

 58 63  0  0  1  0  0  0  0  0999 V2000
  187.8180  177.4260  144.6120 C   0  0  0  0  0  0  0  0  0  0  0  0
  189.0720  178.0450  141.7310 C   0  0  0  0  0  2  0  0  0  0  0  0
  189.0070  176.7780  144.6950 C   0  0  0  0  0  0  0  0  0  0  0  0
  187.4480  178.3140  143.4620 C   0  0  0  0  0  2  0  0  0  0  0  0
  187.7400  177.6510  142.1990 N   0  0  0  0  0  2  0  0  0  0  0  0
  190.0800  176.8580  143.6250 C   0  0  2  0  0  3  0  0  0  0  0  0
  187.1690  176.5550  146.7760 N   0  0  0  0  0  0  0  0  0  0  0  0
  186.9000  177.3210  145.6590 O   0  0  0  0  0  0  0  0  0  0  0  0
  189.3040  175.9410  145.8910 C   0  0  0  0  0  0  0  0  0  0  0  0
  190.0660  178.0830  142.8160 N   0  0  0  0  0  2  0  0  0  0  0  0
  188.4050  175.8470  146.8780 C   0  0  0  0  0  3  0  0  0  0  0  0
  189.2010  174.6570  142.7050 C   0  0  0  0  0  3  0  0  0  0  0  0
  188.0560  172.5920  139.4580 O   0  0  0  0  0  0  0  0  0  0  0  0
  189.3020  172.7680  139.5400 C   0  0  0  0  0  0  0  0  0  0  0  0
  191.2880  173.3230  140.8830 C   0  0  0  0  0  3  0  0  0  0  0  0
  188.9850  173.7250  141.7810 C   0  0  0  0  0  3  0  0  0  0  0  0
  192.6880  176.3190  142.6440 C   0  0  0  0  0  1  0  0  0  0  0  0
  192.0170  174.1590  141.6160 C   0  0  0  0  0  3  0  0  0  0  0  0
  190.3440  175.5850  142.8410 C   0  0  0  0  0  0  0  0  0  0  0  0
  189.8700  173.3950  140.7040 N   0  0  0  0  0  0  0  0  0  0  0  0
  191.5850  175.3500  142.3640 C   0  0  0  0  0  0  0  0  0  0  0  0
  189.5830  171.2260  137.7450 O   0  0  0  0  0  0  0  0  0  0  0  0
  190.3370  172.7340  136.0780 C   0  0  0  0  0  2  0  0  0  0  0  0
  190.3880  173.4290  137.4060 C   0  0  0  0  0  2  0  0  0  0  0  0
  190.1740  172.3170  138.4070 C   0  0  1  0  0  3  0  0  0  0  0  0
  190.1010  171.2840  136.4420 C   0  0  0  0  0  2  0  0  0  0  0  0
  190.5330  175.2730  145.9680 O   0  0  0  0  0  0  0  0  0  0  0  0
  191.7070  176.7720  147.9620 O   0  0  0  0  0  0  0  0  0  0  0  0
  191.9330  175.9260  146.7310 P   0  0  1  0  0  4  0  0  0  0  0  0
  193.6130  175.3760  146.3020 C   0  0  0  0  0  2  0  0  0  0  0  0
  193.6190  173.8780  146.0420 C   0  0  0  0  0  2  0  0  0  0  0  0
  194.6280  173.4960  143.9620 C   0  0  0  0  0  2  0  0  0  0  0  0
  196.6030  174.7890  144.3980 C   0  0  0  0  0  2  0  0  0  0  0  0
  194.8670  173.4930  145.4030 N   0  0  0  0  0  0  0  0  0  0  0  0
  195.6290  174.4240  143.3070 C   0  0  1  0  0  3  0  0  0  0  0  0
  195.8290  174.5520  145.6690 C   0  0  0  0  0  2  0  0  0  0  0  0
  195.8430  174.1410  138.4140 O   0  0  0  0  0  1  0  0  0  0  0  0
  196.0490  174.4670  140.7590 C   0  0  1  0  0  3  0  0  0  0  0  0
  197.7590  171.7210  140.1700 O   0  0  0  0  0  0  0  0  0  0  0  0
  197.7250  173.4850  142.3140 N   0  0  0  0  0  2  0  0  0  0  0  0
  197.9390  174.1790  139.2740 O   0  0  0  0  0  1  0  0  0  0  0  0
  196.3020  173.7530  142.1000 C   0  0  1  0  0  3  0  0  0  0  0  0
  197.3660  171.1990  141.4100 C   0  0  2  0  0  3  0  0  0  0  0  0
  196.5840  172.2360  139.6020 C   0  0  0  0  0  2  0  0  0  0  0  0
  196.4170  175.9460  140.7940 C   0  0  0  0  0  1  0  0  0  0  0  0
  196.6260  173.7660  139.5050 C   0  0  0  0  0  0  0  0  0  0  0  0
  197.8950  172.0530  142.5660 C   0  0  0  0  0  2  0  0  0  0  0  0
  197.7970  169.7450  141.5530 C   0  0  0  0  0  2  0  0  0  0  0  0
  196.6090  168.8080  141.6810 C   0  0  0  0  0  1  0  0  0  0  0  0
  186.2660  176.6100  147.9090 C   0  0  0  0  0  2  0  0  0  0  0  0
  185.2980  177.7740  147.7530 C   0  0  1  0  0  3  0  0  0  0  0  0
  185.9930  178.9850  147.8180 O   0  0  0  0  0  1  0  0  0  0  0  0
  184.5960  177.6720  146.4120 C   0  0  0  0  0  2  0  0  0  0  0  0
  184.0570  179.2730  144.5870 C   0  0  0  0  0  3  0  0  0  0  0  0
  184.3790  179.0400  145.8630 C   0  0  0  0  0  3  0  0  0  0  0  0
  183.9070  178.1890  143.5690 C   0  0  0  0  0  2  0  0  0  0  0  0
  183.4440  178.1230  141.4090 C   0  0  0  0  0  1  0  0  0  0  0  0
  184.3590  178.6450  142.3310 O   0  0  0  0  0  0  0  0  0  0  0  0
  1  3  2  0  0  0  0
  1  8  1  0  0  0  0
  2  5  1  0  0  0  0
  2 10  1  0  0  0  0
  3  9  1  0  0  0  0
  4  1  1  0  0  0  0
  5  4  1  0  0  0  0
  6 19  1  6  0  0  0
  6  3  1  0  0  0  0
  7 11  1  0  0  0  0
  7 50  1  0  0  0  0
  8  7  1  0  0  0  0
  9 27  1  0  0  0  0
  9 11  2  0  0  0  0
 10  6  1  0  0  0  0
 12 19  1  0  0  0  0
 13 14  2  0  0  0  0
 14 20  1  0  0  0  0
 15 18  2  0  0  0  0
 16 12  2  0  0  0  0
 18 21  1  0  0  0  0
 20 15  1  0  0  0  0
 20 16  1  0  0  0  0
 21 17  1  0  0  0  0
 21 19  2  0  0  0  0
 22 25  1  0  0  0  0
 23 26  1  0  0  0  0
 23 24  1  0  0  0  0
 24 25  1  0  0  0  0
 25 14  1  1  0  0  0
 26 22  1  0  0  0  0
 27 29  1  0  0  0  0
 29 28  2  1  0  0  0
 30 29  1  0  0  0  0
 31 30  1  0  0  0  0
 32 34  1  0  0  0  0
 33 36  1  0  0  0  0
 34 36  1  0  0  0  0
 34 31  1  0  0  0  0
 35 32  1  1  0  0  0
 35 33  1  0  0  0  0
 37 46  1  0  0  0  0
 38 45  1  1  0  0  0
 38 42  1  0  0  0  0
 39 43  1  0  0  0  0
 40 47  1  0  0  0  0
 41 46  1  0  0  0  0
 42 40  1  1  0  0  0
 42 35  1  0  0  0  0
 43 48  1  1  0  0  0
 43 47  1  0  0  0  0
 44 39  1  0  0  0  0
 46 44  1  0  0  0  0
 46 38  1  0  0  0  0
 48 49  1  0  0  0  0
 51 52  1  6  0  0  0
 51 50  1  0  0  0  0
 53 51  1  0  0  0  0
 54 55  2  0  0  0  0
 55 53  1  0  0  0  0
 56 54  1  0  0  0  0
 57 58  1  0  0  0  0
 58 56  1  0  0  0  0
M  END
>  <MODEL>
3

>  <REMARK>
 VINA RESULT:      -7.0      1.693      2.214
  Name = 
  15 active torsions:
  status: ('A' for Active; 'I' for Inactive)
    1  A    between atoms: C_1  and  C_19
    2  A    between atoms: C_1  and  C_46
    3  A    between atoms: C_5  and  C_16
    4  A    between atoms: C_5  and  N_38
    5  A    between atoms: P_13  and  C_16
    6  A    between atoms: P_13  and  O_24
    7  A    between atoms: C_15  and  C_43
    8  A    between atoms: N_18  and  C_46
    9  A    between atoms: C_19  and  C_49
   10  A    between atoms: C_20  and  C_45
   11  A    between atoms: O_24  and  C_42
   12  A    between atoms: C_25  and  C_50
   13  A    between atoms: C_27  and  C_52
   14  A    between atoms: C_28  and  C_30
   15  A    between atoms: C_45  and  O_48
                            x       y       z     vdW  Elec       q    Type
                         _______ _______ _______ _____ _____    ______ ____

>  <TORSDO>
F 15

$$$$
=
 OpenBabel11072409323D

 58 63  0  0  1  0  0  0  0  0999 V2000
  190.9590  171.4220  142.2750 C   0  0  0  0  0  0  0  0  0  0  0  0
  191.2690  173.3780  144.7920 C   0  0  0  0  0  2  0  0  0  0  0  0
  191.2570  172.5960  141.6640 C   0  0  0  0  0  0  0  0  0  0  0  0
  191.0040  171.2390  143.7620 C   0  0  0  0  0  2  0  0  0  0  0  0
  190.3090  172.3330  144.4260 N   0  0  0  0  0  2  0  0  0  0  0  0
  191.6410  173.8580  142.4160 C   0  0  2  0  0  3  0  0  0  0  0  0
  190.6160  170.3660  140.1220 N   0  0  0  0  0  0  0  0  0  0  0  0
  190.6460  170.3030  141.5020 O   0  0  0  0  0  0  0  0  0  0  0  0
  191.2180  172.6800  140.1770 C   0  0  0  0  0  0  0  0  0  0  0  0
  192.2560  173.6380  143.7320 N   0  0  0  0  0  2  0  0  0  0  0  0
  190.9060  171.5970  139.4570 C   0  0  0  0  0  3  0  0  0  0  0  0
  189.2390  174.6250  142.0890 C   0  0  0  0  0  3  0  0  0  0  0  0
  185.9040  176.0460  143.8120 O   0  0  0  0  0  0  0  0  0  0  0  0
  186.8340  176.8930  143.7240 C   0  0  0  0  0  0  0  0  0  0  0  0
  188.9550  177.6230  142.7120 C   0  0  0  0  0  3  0  0  0  0  0  0
  188.1220  175.2840  142.3850 C   0  0  0  0  0  3  0  0  0  0  0  0
  192.5400  176.5330  142.7110 C   0  0  0  0  0  1  0  0  0  0  0  0
  190.2570  177.4850  142.4780 C   0  0  0  0  0  3  0  0  0  0  0  0
  190.6420  175.0000  142.3670 C   0  0  0  0  0  0  0  0  0  0  0  0
  188.0510  176.5600  143.0310 N   0  0  0  0  0  0  0  0  0  0  0  0
  191.0810  176.2670  142.5280 C   0  0  0  0  0  0  0  0  0  0  0  0
  186.0330  179.1200  143.4450 O   0  0  0  0  0  0  0  0  0  0  0  0
  184.9370  179.3810  145.5300 C   0  0  0  0  0  2  0  0  0  0  0  0
  185.7950  178.1520  145.5950 C   0  0  0  0  0  2  0  0  0  0  0  0
  186.6510  178.2410  144.3520 C   0  0  1  0  0  3  0  0  0  0  0  0
  185.3850  180.0640  144.2560 C   0  0  0  0  0  2  0  0  0  0  0  0
  191.5250  173.8970  139.5540 O   0  0  0  0  0  0  0  0  0  0  0  0
  192.4420  174.7270  137.0900 O   0  0  0  0  0  0  0  0  0  0  0  0
  192.8020  174.0970  138.4150 P   0  0  1  0  0  4  0  0  0  0  0  0
  194.5490  173.8790  138.8740 C   0  0  0  0  0  2  0  0  0  0  0  0
  195.2940  175.1960  138.7230 C   0  0  0  0  0  2  0  0  0  0  0  0
  195.3300  174.6580  141.0020 C   0  0  0  0  0  2  0  0  0  0  0  0
  197.6680  175.0960  141.3280 C   0  0  0  0  0  2  0  0  0  0  0  0
  195.7480  175.6580  140.0230 N   0  0  0  0  0  0  0  0  0  0  0  0
  196.5530  174.1750  141.7540 C   0  0  1  0  0  3  0  0  0  0  0  0
  197.2030  175.6380  140.0020 C   0  0  0  0  0  2  0  0  0  0  0  0
  195.9150  171.4480  145.7830 O   0  0  0  0  0  1  0  0  0  0  0  0
  196.5590  172.8280  143.9580 C   0  0  1  0  0  3  0  0  0  0  0  0
  195.4170  174.9390  146.2050 O   0  0  0  0  0  0  0  0  0  0  0  0
  197.0080  175.2760  143.9540 N   0  0  0  0  0  2  0  0  0  0  0  0
  197.3390  173.1550  146.2260 O   0  0  0  0  0  1  0  0  0  0  0  0
  196.3120  174.1850  143.2710 C   0  0  1  0  0  3  0  0  0  0  0  0
  194.9080  175.7600  145.1900 C   0  0  2  0  0  3  0  0  0  0  0  0
  195.0260  173.6380  145.8550 C   0  0  0  0  0  2  0  0  0  0  0  0
  197.9410  172.2560  143.6620 C   0  0  0  0  0  1  0  0  0  0  0  0
  196.2310  172.7700  145.4700 C   0  0  0  0  0  0  0  0  0  0  0  0
  196.0290  176.3070  144.3010 C   0  0  0  0  0  2  0  0  0  0  0  0
  194.0610  176.8860  145.7690 C   0  0  0  0  0  2  0  0  0  0  0  0
  192.8540  176.3590  146.5250 C   0  0  0  0  0  1  0  0  0  0  0  0
  190.4540  169.1450  139.3580 C   0  0  0  0  0  2  0  0  0  0  0  0
  191.6900  168.8880  138.5090 C   0  0  1  0  0  3  0  0  0  0  0  0
  191.8820  169.9450  137.6140 O   0  0  0  0  0  1  0  0  0  0  0  0
  192.9060  168.7700  139.4090 C   0  0  0  0  0  2  0  0  0  0  0  0
  194.8510  170.3200  139.3820 C   0  0  0  0  0  3  0  0  0  0  0  0
  194.0700  169.4330  138.7570 C   0  0  0  0  0  3  0  0  0  0  0  0
  194.6240  170.7590  140.7920 C   0  0  0  0  0  2  0  0  0  0  0  0
  196.8240  170.5480  140.8260 C   0  0  0  0  0  1  0  0  0  0  0  0
  195.6760  170.3160  141.5940 O   0  0  0  0  0  0  0  0  0  0  0  0
  1  4  1  0  0  0  0
  3  1  2  0  0  0  0
  3  6  1  0  0  0  0
  4  5  1  0  0  0  0
  5  2  1  0  0  0  0
  6 19  1  1  0  0  0
  6 10  1  0  0  0  0
  7  8  1  0  0  0  0
  8  1  1  0  0  0  0
  9  3  1  0  0  0  0
 10  2  1  0  0  0  0
 11  7  1  0  0  0  0
 11  9  2  0  0  0  0
 12 19  1  0  0  0  0
 12 16  2  0  0  0  0
 14 13  2  0  0  0  0
 15 20  1  0  0  0  0
 16 20  1  0  0  0  0
 18 21  1  0  0  0  0
 18 15  2  0  0  0  0
 19 21  2  0  0  0  0
 20 14  1  0  0  0  0
 21 17  1  0  0  0  0
 22 26  1  0  0  0  0
 22 25  1  0  0  0  0
 23 24  1  0  0  0  0
 25 14  1  6  0  0  0
 25 24  1  0  0  0  0
 26 23  1  0  0  0  0
 27  9  1  0  0  0  0
 29 28  2  1  0  0  0
 29 30  1  0  0  0  0
 29 27  1  0  0  0  0
 31 30  1  0  0  0  0
 31 34  1  0  0  0  0
 33 35  1  0  0  0  0
 34 32  1  0  0  0  0
 35 32  1  6  0  0  0
 35 42  1  0  0  0  0
 36 34  1  0  0  0  0
 36 33  1  0  0  0  0
 38 45  1  1  0  0  0
 38 46  1  0  0  0  0
 40 47  1  0  0  0  0
 42 40  1  1  0  0  0
 42 38  1  0  0  0  0
 43 48  1  1  0  0  0
 43 39  1  0  0  0  0
 44 39  1  0  0  0  0
 46 37  1  0  0  0  0
 46 44  1  0  0  0  0
 46 41  1  0  0  0  0
 47 43  1  0  0  0  0
 48 49  1  0  0  0  0
 50  7  1  0  0  0  0
 51 52  1  6  0  0  0
 51 50  1  0  0  0  0
 51 53  1  0  0  0  0
 54 56  1  0  0  0  0
 55 54  2  0  0  0  0
 55 53  1  0  0  0  0
 56 58  1  0  0  0  0
 57 58  1  0  0  0  0
M  END
>  <MODEL>
4

>  <REMARK>
 VINA RESULT:      -7.0      2.747      8.382
  Name = 
  15 active torsions:
  status: ('A' for Active; 'I' for Inactive)
    1  A    between atoms: C_1  and  C_19
    2  A    between atoms: C_1  and  C_46
    3  A    between atoms: C_5  and  C_16
    4  A    between atoms: C_5  and  N_38
    5  A    between atoms: P_13  and  C_16
    6  A    between atoms: P_13  and  O_24
    7  A    between atoms: C_15  and  C_43
    8  A    between atoms: N_18  and  C_46
    9  A    between atoms: C_19  and  C_49
   10  A    between atoms: C_20  and  C_45
   11  A    between atoms: O_24  and  C_42
   12  A    between atoms: C_25  and  C_50
   13  A    between atoms: C_27  and  C_52
   14  A    between atoms: C_28  and  C_30
   15  A    between atoms: C_45  and  O_48
                            x       y       z     vdW  Elec       q    Type
                         _______ _______ _______ _____ _____    ______ ____

>  <TORSDO>
F 15

$$$$
=
 OpenBabel11072409323D

 58 63  0  0  1  0  0  0  0  0999 V2000
  191.0860  173.2020  138.0070 C   0  0  0  0  0  0  0  0  0  0  0  0
  188.2060  173.4490  139.3870 C   0  0  0  0  0  2  0  0  0  0  0  0
  191.2880  172.5290  139.1680 C   0  0  0  0  0  0  0  0  0  0  0  0
  189.7390  173.6930  137.5700 C   0  0  0  0  0  2  0  0  0  0  0  0
  189.0740  174.3850  138.6670 N   0  0  0  0  0  2  0  0  0  0  0  0
  190.1830  172.2230  140.1620 C   0  0  2  0  0  3  0  0  0  0  0  0
  193.4270  172.9630  137.4360 N   0  0  0  0  0  0  0  0  0  0  0  0
  192.1560  173.4130  137.1360 O   0  0  0  0  0  0  0  0  0  0  0  0
  192.6570  172.0480  139.5070 C   0  0  0  0  0  0  0  0  0  0  0  0
  188.8340  172.1340  139.5880 N   0  0  0  0  0  2  0  0  0  0  0  0
  193.6690  172.2700  138.6610 C   0  0  0  0  0  3  0  0  0  0  0  0
  190.6560  174.3700  141.4380 C   0  0  0  0  0  3  0  0  0  0  0  0
  189.1270  177.4550  143.5040 O   0  0  0  0  0  0  0  0  0  0  0  0
  189.1100  176.3610  144.1310 C   0  0  0  0  0  0  0  0  0  0  0  0
  189.9290  174.0570  144.4100 C   0  0  0  0  0  3  0  0  0  0  0  0
  190.4160  175.3410  142.3160 C   0  0  0  0  0  3  0  0  0  0  0  0
  189.7090  170.8000  142.5710 C   0  0  0  0  0  1  0  0  0  0  0  0
  190.0710  172.8000  143.9990 C   0  0  0  0  0  3  0  0  0  0  0  0
  190.2580  172.9470  141.4940 C   0  0  0  0  0  0  0  0  0  0  0  0
  189.7240  175.1900  143.5600 N   0  0  0  0  0  0  0  0  0  0  0  0
  190.0110  172.2620  142.6310 C   0  0  0  0  0  0  0  0  0  0  0  0
  188.9000  177.3490  146.2890 O   0  0  0  0  0  0  0  0  0  0  0  0
  186.5400  177.2820  146.4980 C   0  0  0  0  0  2  0  0  0  0  0  0
  186.9390  176.4210  145.3360 C   0  0  0  0  0  2  0  0  0  0  0  0
  188.4410  176.3020  145.4700 C   0  0  1  0  0  3  0  0  0  0  0  0
  187.8520  177.5750  147.1940 C   0  0  0  0  0  2  0  0  0  0  0  0
  192.8580  171.3560  140.7090 O   0  0  0  0  0  0  0  0  0  0  0  0
  193.1410  168.8930  139.5040 O   0  0  0  0  0  0  0  0  0  0  0  0
  193.0570  169.6480  140.8100 P   0  0  1  0  0  4  0  0  0  0  0  0
  193.4760  168.8140  142.3710 C   0  0  0  0  0  2  0  0  0  0  0  0
  193.1410  169.7160  143.5480 C   0  0  0  0  0  2  0  0  0  0  0  0
  193.6010  171.9930  143.8440 C   0  0  0  0  0  2  0  0  0  0  0  0
  195.0450  171.7160  145.7410 C   0  0  0  0  0  2  0  0  0  0  0  0
  194.2160  170.6710  143.7600 N   0  0  0  0  0  0  0  0  0  0  0  0
  193.9960  172.6290  145.1600 C   0  0  1  0  0  3  0  0  0  0  0  0
  194.7860  170.3920  145.0690 C   0  0  0  0  0  2  0  0  0  0  0  0
  192.7160  177.3220  144.5180 O   0  0  0  0  0  1  0  0  0  0  0  0
  193.4180  175.1460  145.1690 C   0  0  1  0  0  3  0  0  0  0  0  0
  196.1790  176.6180  144.1570 O   0  0  0  0  0  0  0  0  0  0  0  0
  195.7170  174.3600  145.7070 N   0  0  0  0  0  2  0  0  0  0  0  0
  194.4150  177.1850  146.0130 O   0  0  0  0  0  1  0  0  0  0  0  0
  194.4960  174.0670  144.9550 C   0  0  1  0  0  3  0  0  0  0  0  0
  196.6560  175.4000  143.6550 C   0  0  2  0  0  3  0  0  0  0  0  0
  194.8520  176.7030  143.7110 C   0  0  0  0  0  2  0  0  0  0  0  0
  192.7240  175.0330  146.5220 C   0  0  0  0  0  1  0  0  0  0  0  0
  193.8560  176.6020  144.8740 C   0  0  0  0  0  0  0  0  0  0  0  0
  196.8450  174.3720  144.7740 C   0  0  0  0  0  2  0  0  0  0  0  0
  197.9410  175.6000  142.8620 C   0  0  0  0  0  2  0  0  0  0  0  0
  197.6770  175.7520  141.3750 C   0  0  0  0  0  1  0  0  0  0  0  0
  194.4680  173.0530  136.4310 C   0  0  0  0  0  2  0  0  0  0  0  0
  195.2890  174.3170  136.6350 C   0  0  1  0  0  3  0  0  0  0  0  0
  194.6190  175.1860  137.5020 O   0  0  0  0  0  1  0  0  0  0  0  0
  196.6360  173.9560  137.2320 C   0  0  0  0  0  2  0  0  0  0  0  0
  197.5360  171.6990  137.7630 C   0  0  0  0  0  3  0  0  0  0  0  0
  196.9600  172.5400  136.8990 C   0  0  0  0  0  3  0  0  0  0  0  0
  197.9400  172.0960  139.1460 C   0  0  0  0  0  2  0  0  0  0  0  0
  196.7180  172.3190  140.9740 C   0  0  0  0  0  1  0  0  0  0  0  0
  197.2050  171.3610  140.0760 O   0  0  0  0  0  0  0  0  0  0  0  0
  1  3  2  0  0  0  0
  2 10  1  0  0  0  0
  3  9  1  0  0  0  0
  3  6  1  0  0  0  0
  4  1  1  0  0  0  0
  4  5  1  0  0  0  0
  5  2  1  0  0  0  0
  6 19  1  1  0  0  0
  7 11  1  0  0  0  0
  8  7  1  0  0  0  0
  8  1  1  0  0  0  0
  9 27  1  0  0  0  0
 10  6  1  0  0  0  0
 11  9  2  0  0  0  0
 12 19  1  0  0  0  0
 12 16  2  0  0  0  0
 13 14  2  0  0  0  0
 16 20  1  0  0  0  0
 17 21  1  0  0  0  0
 18 15  2  0  0  0  0
 19 21  2  0  0  0  0
 20 14  1  0  0  0  0
 20 15  1  0  0  0  0
 21 18  1  0  0  0  0
 22 26  1  0  0  0  0
 23 26  1  0  0  0  0
 24 25  1  0  0  0  0
 24 23  1  0  0  0  0
 25 14  1  6  0  0  0
 25 22  1  0  0  0  0
 27 29  1  0  0  0  0
 29 28  2  6  0  0  0
 29 30  1  0  0  0  0
 30 31  1  0  0  0  0
 31 34  1  0  0  0  0
 34 32  1  0  0  0  0
 34 36  1  0  0  0  0
 35 32  1  6  0  0  0
 35 33  1  0  0  0  0
 36 33  1  0  0  0  0
 37 46  1  0  0  0  0
 38 45  1  1  0  0  0
 42 35  1  0  0  0  0
 42 38  1  0  0  0  0
 42 40  1  1  0  0  0
 43 48  1  1  0  0  0
 43 39  1  0  0  0  0
 43 47  1  0  0  0  0
 44 39  1  0  0  0  0
 44 46  1  0  0  0  0
 46 38  1  0  0  0  0
 46 41  1  0  0  0  0
 47 40  1  0  0  0  0
 49 48  1  0  0  0  0
 50 51  1  0  0  0  0
 50  7  1  0  0  0  0
 51 53  1  0  0  0  0
 51 52  1  1  0  0  0
 54 56  1  0  0  0  0
 55 53  1  0  0  0  0
 55 54  2  0  0  0  0
 56 58  1  0  0  0  0
 58 57  1  0  0  0  0
M  END
>  <MODEL>
5

>  <REMARK>
 VINA RESULT:      -6.6      2.986      8.970
  Name = 
  15 active torsions:
  status: ('A' for Active; 'I' for Inactive)
    1  A    between atoms: C_1  and  C_19
    2  A    between atoms: C_1  and  C_46
    3  A    between atoms: C_5  and  C_16
    4  A    between atoms: C_5  and  N_38
    5  A    between atoms: P_13  and  C_16
    6  A    between atoms: P_13  and  O_24
    7  A    between atoms: C_15  and  C_43
    8  A    between atoms: N_18  and  C_46
    9  A    between atoms: C_19  and  C_49
   10  A    between atoms: C_20  and  C_45
   11  A    between atoms: O_24  and  C_42
   12  A    between atoms: C_25  and  C_50
   13  A    between atoms: C_27  and  C_52
   14  A    between atoms: C_28  and  C_30
   15  A    between atoms: C_45  and  O_48
                            x       y       z     vdW  Elec       q    Type
                         _______ _______ _______ _____ _____    ______ ____

>  <TORSDO>
F 15

$$$$
=
 OpenBabel11072409323D

 58 63  0  0  1  0  0  0  0  0999 V2000
  193.4630  173.7350  145.3030 C   0  0  0  0  0  0  0  0  0  0  0  0
  192.8390  176.6940  146.3550 C   0  0  0  0  0  2  0  0  0  0  0  0
  192.8900  174.2920  144.2060 C   0  0  0  0  0  0  0  0  0  0  0  0
  193.8110  174.5190  146.5320 C   0  0  0  0  0  2  0  0  0  0  0  0
  192.6870  175.3550  146.9310 N   0  0  0  0  0  2  0  0  0  0  0  0
  192.5130  175.7590  144.1120 C   0  0  2  0  0  3  0  0  0  0  0  0
  193.5570  171.5870  144.1870 N   0  0  0  0  0  0  0  0  0  0  0  0
  193.8050  172.3810  145.2900 O   0  0  0  0  0  0  0  0  0  0  0  0
  192.6080  173.4430  143.0150 C   0  0  0  0  0  0  0  0  0  0  0  0
  193.3020  176.6620  144.9600 N   0  0  0  0  0  2  0  0  0  0  0  0
  192.9360  172.1460  143.0290 C   0  0  0  0  0  3  0  0  0  0  0  0
  190.1470  175.1400  144.8070 C   0  0  0  0  0  3  0  0  0  0  0  0
  186.9840  176.0260  147.1150 O   0  0  0  0  0  0  0  0  0  0  0  0
  187.1510  176.8200  146.1490 C   0  0  0  0  0  0  0  0  0  0  0  0
  188.1530  177.3220  143.9590 C   0  0  0  0  0  3  0  0  0  0  0  0
  188.9290  175.3530  145.2970 C   0  0  0  0  0  3  0  0  0  0  0  0
  191.5720  177.9370  142.5560 C   0  0  0  0  0  1  0  0  0  0  0  0
  189.1960  177.5400  143.1630 C   0  0  0  0  0  3  0  0  0  0  0  0
  191.0280  176.0700  144.0680 C   0  0  0  0  0  0  0  0  0  0  0  0
  188.1780  176.5660  145.1740 N   0  0  0  0  0  0  0  0  0  0  0  0
  190.5960  177.1210  143.3390 C   0  0  0  0  0  0  0  0  0  0  0  0
  185.3310  177.8490  145.0050 O   0  0  0  0  0  0  0  0  0  0  0  0
  184.1530  178.7020  146.8770 C   0  0  0  0  0  2  0  0  0  0  0  0
  185.5170  178.2720  147.3300 C   0  0  0  0  0  2  0  0  0  0  0  0
  186.2670  178.0250  146.0400 C   0  0  1  0  0  3  0  0  0  0  0  0
  184.2490  178.6650  145.3670 C   0  0  0  0  0  2  0  0  0  0  0  0
  192.0140  174.0250  141.8870 O   0  0  0  0  0  0  0  0  0  0  0  0
  189.3730  174.4350  141.2120 O   0  0  0  0  0  0  0  0  0  0  0  0
  190.5390  173.4740  141.1880 P   0  0  1  0  0  4  0  0  0  0  0  0
  190.4520  171.9630  140.1790 C   0  0  0  0  0  2  0  0  0  0  0  0
  190.6460  172.3060  138.7110 C   0  0  0  0  0  2  0  0  0  0  0  0
  192.9310  172.4140  138.2030 C   0  0  0  0  0  2  0  0  0  0  0  0
  192.7560  174.2190  136.6310 C   0  0  0  0  0  2  0  0  0  0  0  0
  191.7670  173.2200  138.5620 N   0  0  0  0  0  0  0  0  0  0  0  0
  193.5000  172.9360  136.9010 C   0  0  1  0  0  3  0  0  0  0  0  0
  191.4780  174.0690  137.4150 C   0  0  0  0  0  2  0  0  0  0  0  0
  197.9030  170.8040  136.5250 O   0  0  0  0  0  1  0  0  0  0  0  0
  195.8460  171.9860  136.3850 C   0  0  1  0  0  3  0  0  0  0  0  0
  197.9160  174.1300  137.7710 O   0  0  0  0  0  0  0  0  0  0  0  0
  195.4610  174.4410  136.5120 N   0  0  0  0  0  2  0  0  0  0  0  0
  197.9360  172.8250  135.4970 O   0  0  0  0  0  1  0  0  0  0  0  0
  195.0200  173.1320  136.9990 C   0  0  1  0  0  3  0  0  0  0  0  0
  196.8720  174.6530  138.5460 C   0  0  2  0  0  3  0  0  0  0  0  0
  197.7930  172.7370  137.8830 C   0  0  0  0  0  2  0  0  0  0  0  0
  195.4590  171.6820  134.9410 C   0  0  0  0  0  1  0  0  0  0  0  0
  197.3810  172.0970  136.5520 C   0  0  0  0  0  0  0  0  0  0  0  0
  195.7870  175.2800  137.6670 C   0  0  0  0  0  2  0  0  0  0  0  0
  197.3970  175.6480  139.5730 C   0  0  0  0  0  2  0  0  0  0  0  0
  196.3780  175.9350  140.6620 C   0  0  0  0  0  1  0  0  0  0  0  0
  194.0810  170.2350  144.1530 C   0  0  0  0  0  2  0  0  0  0  0  0
  194.9030  169.9590  145.4030 C   0  0  1  0  0  3  0  0  0  0  0  0
  194.4910  168.7580  145.9900 O   0  0  0  0  0  1  0  0  0  0  0  0
  196.3700  169.8550  145.0320 C   0  0  0  0  0  2  0  0  0  0  0  0
  197.6440  171.9560  144.6480 C   0  0  0  0  0  3  0  0  0  0  0  0
  197.0830  171.0810  145.4890 C   0  0  0  0  0  3  0  0  0  0  0  0
  197.6390  171.7850  143.1640 C   0  0  0  0  0  2  0  0  0  0  0  0
  197.5010  173.9740  143.4400 C   0  0  0  0  0  1  0  0  0  0  0  0
  197.1430  172.9420  142.5630 O   0  0  0  0  0  0  0  0  0  0  0  0
  1  4  1  0  0  0  0
  2  5  1  0  0  0  0
  3  1  2  0  0  0  0
  4  5  1  0  0  0  0
  6 19  1  1  0  0  0
  6  3  1  0  0  0  0
  6 10  1  0  0  0  0
  7  8  1  0  0  0  0
  8  1  1  0  0  0  0
  9 11  2  0  0  0  0
  9  3  1  0  0  0  0
 10  2  1  0  0  0  0
 11  7  1  0  0  0  0
 12 16  2  0  0  0  0
 14 13  2  0  0  0  0
 15 20  1  0  0  0  0
 17 21  1  0  0  0  0
 18 21  1  0  0  0  0
 18 15  2  0  0  0  0
 19 12  1  0  0  0  0
 20 16  1  0  0  0  0
 20 14  1  0  0  0  0
 21 19  2  0  0  0  0
 22 26  1  0  0  0  0
 22 25  1  0  0  0  0
 23 24  1  0  0  0  0
 25 14  1  1  0  0  0
 25 24  1  0  0  0  0
 26 23  1  0  0  0  0
 27  9  1  0  0  0  0
 29 28  2  6  0  0  0
 29 27  1  0  0  0  0
 30 29  1  0  0  0  0
 31 30  1  0  0  0  0
 32 34  1  0  0  0  0
 33 36  1  0  0  0  0
 34 31  1  0  0  0  0
 35 33  1  1  0  0  0
 35 42  1  0  0  0  0
 35 32  1  0  0  0  0
 36 34  1  0  0  0  0
 37 46  1  0  0  0  0
 38 45  1  6  0  0  0
 38 46  1  0  0  0  0
 38 42  1  0  0  0  0
 39 44  1  0  0  0  0
 39 43  1  0  0  0  0
 40 47  1  0  0  0  0
 41 46  1  0  0  0  0
 42 40  1  6  0  0  0
 43 48  1  1  0  0  0
 46 44  1  0  0  0  0
 47 43  1  0  0  0  0
 48 49  1  0  0  0  0
 50  7  1  0  0  0  0
 50 51  1  0  0  0  0
 51 52  1  6  0  0  0
 53 51  1  0  0  0  0
 53 55  1  0  0  0  0
 54 55  2  0  0  0  0
 56 54  1  0  0  0  0
 58 56  1  0  0  0  0
 58 57  1  0  0  0  0
M  END
>  <MODEL>
6

>  <REMARK>
 VINA RESULT:      -6.6      3.274      8.895
  Name = 
  15 active torsions:
  status: ('A' for Active; 'I' for Inactive)
    1  A    between atoms: C_1  and  C_19
    2  A    between atoms: C_1  and  C_46
    3  A    between atoms: C_5  and  C_16
    4  A    between atoms: C_5  and  N_38
    5  A    between atoms: P_13  and  C_16
    6  A    between atoms: P_13  and  O_24
    7  A    between atoms: C_15  and  C_43
    8  A    between atoms: N_18  and  C_46
    9  A    between atoms: C_19  and  C_49
   10  A    between atoms: C_20  and  C_45
   11  A    between atoms: O_24  and  C_42
   12  A    between atoms: C_25  and  C_50
   13  A    between atoms: C_27  and  C_52
   14  A    between atoms: C_28  and  C_30
   15  A    between atoms: C_45  and  O_48
                            x       y       z     vdW  Elec       q    Type
                         _______ _______ _______ _____ _____    ______ ____

>  <TORSDO>
F 15

$$$$
=
 OpenBabel11072409323D

 58 63  0  0  1  0  0  0  0  0999 V2000
  191.7960  172.3300  138.6210 C   0  0  0  0  0  0  0  0  0  0  0  0
  188.7700  173.1590  139.2600 C   0  0  0  0  0  2  0  0  0  0  0  0
  191.6980  171.9900  139.9310 C   0  0  0  0  0  0  0  0  0  0  0  0
  190.6240  172.7800  137.8030 C   0  0  0  0  0  2  0  0  0  0  0  0
  189.8650  173.7940  138.5220 N   0  0  0  0  0  2  0  0  0  0  0  0
  190.4020  172.0520  140.7180 C   0  0  2  0  0  3  0  0  0  0  0  0
  194.1530  171.7720  138.6320 N   0  0  0  0  0  0  0  0  0  0  0  0
  193.0250  172.2130  137.9690 O   0  0  0  0  0  0  0  0  0  0  0  0
  192.9110  171.5220  140.6600 C   0  0  0  0  0  0  0  0  0  0  0  0
  189.1780  171.9080  139.9180 N   0  0  0  0  0  2  0  0  0  0  0  0
  194.0790  171.4270  140.0160 C   0  0  0  0  0  3  0  0  0  0  0  0
  190.9530  174.4090  141.4940 C   0  0  0  0  0  3  0  0  0  0  0  0
  189.5680  178.0890  142.3020 O   0  0  0  0  0  0  0  0  0  0  0  0
  189.2460  177.2220  143.1600 C   0  0  0  0  0  0  0  0  0  0  0  0
  189.6040  175.0160  144.1890 C   0  0  0  0  0  3  0  0  0  0  0  0
  190.7050  175.6060  142.0190 C   0  0  0  0  0  3  0  0  0  0  0  0
  189.2270  171.4160  143.2220 C   0  0  0  0  0  1  0  0  0  0  0  0
  189.6180  173.6860  144.1510 C   0  0  0  0  0  3  0  0  0  0  0  0
  190.3250  173.1070  141.8060 C   0  0  0  0  0  0  0  0  0  0  0  0
  189.7620  175.8820  143.0610 N   0  0  0  0  0  0  0  0  0  0  0  0
  189.7470  172.7970  142.9860 C   0  0  0  0  0  0  0  0  0  0  0  0
  187.2110  176.7470  144.3040 O   0  0  0  0  0  0  0  0  0  0  0  0
  187.9780  176.9800  146.5350 C   0  0  0  0  0  2  0  0  0  0  0  0
  189.0200  177.5410  145.6130 C   0  0  0  0  0  2  0  0  0  0  0  0
  188.3210  177.6090  144.2730 C   0  0  1  0  0  3  0  0  0  0  0  0
  186.7750  176.7820  145.6380 C   0  0  0  0  0  2  0  0  0  0  0  0
  192.8010  171.1740  142.0130 O   0  0  0  0  0  0  0  0  0  0  0  0
  193.1570  168.4720  141.6060 O   0  0  0  0  0  0  0  0  0  0  0  0
  193.0820  169.5880  142.6220 P   0  0  1  0  0  4  0  0  0  0  0  0
  193.5930  169.2880  144.3420 C   0  0  0  0  0  2  0  0  0  0  0  0
  195.1070  169.3670  144.4560 C   0  0  0  0  0  2  0  0  0  0  0  0
  194.5420  171.6300  144.6780 C   0  0  0  0  0  2  0  0  0  0  0  0
  196.6870  172.3480  145.4810 C   0  0  0  0  0  2  0  0  0  0  0  0
  195.5540  170.7170  144.1540 N   0  0  0  0  0  0  0  0  0  0  0  0
  195.2080  172.5940  145.6370 C   0  0  1  0  0  3  0  0  0  0  0  0
  196.7660  170.9490  144.9270 C   0  0  0  0  0  2  0  0  0  0  0  0
  196.6270  176.8980  143.7560 O   0  0  0  0  0  1  0  0  0  0  0  0
  195.7490  174.7730  144.3610 C   0  0  1  0  0  3  0  0  0  0  0  0
  193.4830  176.9130  145.4070 O   0  0  0  0  0  0  0  0  0  0  0  0
  193.4030  174.1780  144.9360 N   0  0  0  0  0  2  0  0  0  0  0  0
  194.5270  176.4060  143.0560 O   0  0  0  0  0  1  0  0  0  0  0  0
  194.8050  174.0450  145.3360 C   0  0  1  0  0  3  0  0  0  0  0  0
  193.2010  176.0910  146.5070 C   0  0  2  0  0  3  0  0  0  0  0  0
  194.8830  176.9810  145.3510 C   0  0  0  0  0  2  0  0  0  0  0  0
  195.9530  174.0160  143.0530 C   0  0  0  0  0  1  0  0  0  0  0  0
  195.4340  176.2680  144.1090 C   0  0  0  0  0  0  0  0  0  0  0  0
  192.6500  174.7340  146.0610 C   0  0  0  0  0  2  0  0  0  0  0  0
  192.2530  176.7830  147.4780 C   0  0  0  0  0  2  0  0  0  0  0  0
  191.1930  175.8360  148.0130 C   0  0  0  0  0  1  0  0  0  0  0  0
  195.3610  171.5040  137.8770 C   0  0  0  0  0  2  0  0  0  0  0  0
  196.5480  171.3580  138.8190 C   0  0  1  0  0  3  0  0  0  0  0  0
  197.1700  170.1220  138.6140 O   0  0  0  0  0  1  0  0  0  0  0  0
  197.5450  172.4690  138.5510 C   0  0  0  0  0  2  0  0  0  0  0  0
  197.0030  174.6560  139.6050 C   0  0  0  0  0  3  0  0  0  0  0  0
  197.5300  173.4300  139.6900 C   0  0  0  0  0  3  0  0  0  0  0  0
  196.3960  175.2010  138.3530 C   0  0  0  0  0  2  0  0  0  0  0  0
  194.5900  175.2920  139.6230 C   0  0  0  0  0  1  0  0  0  0  0  0
  195.0280  174.9330  138.3420 O   0  0  0  0  0  0  0  0  0  0  0  0
  1  3  2  0  0  0  0
  2 10  1  0  0  0  0
  3  9  1  0  0  0  0
  3  6  1  0  0  0  0
  4  5  1  0  0  0  0
  4  1  1  0  0  0  0
  5  2  1  0  0  0  0
  6 19  1  6  0  0  0
  7 11  1  0  0  0  0
  8  1  1  0  0  0  0
  8  7  1  0  0  0  0
  9 27  1  0  0  0  0
 10  6  1  0  0  0  0
 11  9  2  0  0  0  0
 12 19  1  0  0  0  0
 12 16  2  0  0  0  0
 13 14  2  0  0  0  0
 16 20  1  0  0  0  0
 18 15  2  0  0  0  0
 19 21  2  0  0  0  0
 20 14  1  0  0  0  0
 20 15  1  0  0  0  0
 21 17  1  0  0  0  0
 21 18  1  0  0  0  0
 22 26  1  0  0  0  0
 24 23  1  0  0  0  0
 25 14  1  6  0  0  0
 25 22  1  0  0  0  0
 25 24  1  0  0  0  0
 26 23  1  0  0  0  0
 27 29  1  0  0  0  0
 29 28  2  6  0  0  0
 29 30  1  0  0  0  0
 30 31  1  0  0  0  0
 33 35  1  0  0  0  0
 34 31  1  0  0  0  0
 34 32  1  0  0  0  0
 34 36  1  0  0  0  0
 35 32  1  6  0  0  0
 36 33  1  0  0  0  0
 37 46  1  0  0  0  0
 38 45  1  6  0  0  0
 38 42  1  0  0  0  0
 39 43  1  0  0  0  0
 40 47  1  0  0  0  0
 41 46  1  0  0  0  0
 42 40  1  6  0  0  0
 42 35  1  0  0  0  0
 43 48  1  1  0  0  0
 44 39  1  0  0  0  0
 46 38  1  0  0  0  0
 46 44  1  0  0  0  0
 47 43  1  0  0  0  0
 48 49  1  0  0  0  0
 50  7  1  0  0  0  0
 50 51  1  0  0  0  0
 51 52  1  6  0  0  0
 53 51  1  0  0  0  0
 53 55  1  0  0  0  0
 54 55  2  0  0  0  0
 56 54  1  0  0  0  0
 58 56  1  0  0  0  0
 58 57  1  0  0  0  0
M  END
>  <MODEL>
7

>  <REMARK>
 VINA RESULT:      -6.6      2.760      8.679
  Name = 
  15 active torsions:
  status: ('A' for Active; 'I' for Inactive)
    1  A    between atoms: C_1  and  C_19
    2  A    between atoms: C_1  and  C_46
    3  A    between atoms: C_5  and  C_16
    4  A    between atoms: C_5  and  N_38
    5  A    between atoms: P_13  and  C_16
    6  A    between atoms: P_13  and  O_24
    7  A    between atoms: C_15  and  C_43
    8  A    between atoms: N_18  and  C_46
    9  A    between atoms: C_19  and  C_49
   10  A    between atoms: C_20  and  C_45
   11  A    between atoms: O_24  and  C_42
   12  A    between atoms: C_25  and  C_50
   13  A    between atoms: C_27  and  C_52
   14  A    between atoms: C_28  and  C_30
   15  A    between atoms: C_45  and  O_48
                            x       y       z     vdW  Elec       q    Type
                         _______ _______ _______ _____ _____    ______ ____

>  <TORSDO>
F 15

$$$$
=
 OpenBabel11072409323D

 58 63  0  0  1  0  0  0  0  0999 V2000
  193.4910  173.6730  145.2850 C   0  0  0  0  0  0  0  0  0  0  0  0
  192.9350  176.6460  146.3350 C   0  0  0  0  0  2  0  0  0  0  0  0
  192.8940  174.2300  144.2010 C   0  0  0  0  0  0  0  0  0  0  0  0
  193.8830  174.4590  146.4980 C   0  0  0  0  0  2  0  0  0  0  0  0
  192.7820  175.3130  146.9240 N   0  0  0  0  0  2  0  0  0  0  0  0
  192.5330  175.7010  144.1080 C   0  0  2  0  0  3  0  0  0  0  0  0
  193.5250  171.5170  144.1810 N   0  0  0  0  0  0  0  0  0  0  0  0
  193.8150  172.3150  145.2710 O   0  0  0  0  0  0  0  0  0  0  0  0
  192.5670  173.3770  143.0240 C   0  0  0  0  0  0  0  0  0  0  0  0
  193.3580  176.5990  144.9270 N   0  0  0  0  0  2  0  0  0  0  0  0
  192.8790  172.0770  143.0370 C   0  0  0  0  0  3  0  0  0  0  0  0
  190.1770  175.1060  144.8570 C   0  0  0  0  0  3  0  0  0  0  0  0
  187.0850  176.0120  147.2520 O   0  0  0  0  0  0  0  0  0  0  0  0
  187.2380  176.8120  146.2890 C   0  0  0  0  0  0  0  0  0  0  0  0
  188.1910  177.3210  144.0780 C   0  0  0  0  0  3  0  0  0  0  0  0
  188.9750  175.3300  145.3800 C   0  0  0  0  0  3  0  0  0  0  0  0
  191.5810  177.9060  142.5950 C   0  0  0  0  0  1  0  0  0  0  0  0
  189.2170  177.5330  143.2590 C   0  0  0  0  0  3  0  0  0  0  0  0
  191.0510  176.0320  144.1040 C   0  0  0  0  0  0  0  0  0  0  0  0
  188.2370  176.5540  145.2860 N   0  0  0  0  0  0  0  0  0  0  0  0
  190.6150  177.0940  143.3950 C   0  0  0  0  0  0  0  0  0  0  0  0
  185.3020  177.8090  145.3210 O   0  0  0  0  0  0  0  0  0  0  0  0
  184.3920  178.8120  147.2660 C   0  0  0  0  0  2  0  0  0  0  0  0
  185.7960  178.3780  147.5680 C   0  0  0  0  0  2  0  0  0  0  0  0
  186.3670  178.0290  146.2120 C   0  0  1  0  0  3  0  0  0  0  0  0
  184.2890  178.6740  145.7630 C   0  0  0  0  0  2  0  0  0  0  0  0
  191.9480  173.9600  141.9100 O   0  0  0  0  0  0  0  0  0  0  0  0
  189.3150  174.4870  141.2890 O   0  0  0  0  0  0  0  0  0  0  0  0
  190.4220  173.4590  141.2890 P   0  0  1  0  0  4  0  0  0  0  0  0
  190.2150  171.9000  140.3750 C   0  0  0  0  0  2  0  0  0  0  0  0
  190.2730  172.1630  138.8780 C   0  0  0  0  0  2  0  0  0  0  0  0
  192.5270  172.2910  138.2530 C   0  0  0  0  0  2  0  0  0  0  0  0
  192.2150  173.9140  136.5120 C   0  0  0  0  0  2  0  0  0  0  0  0
  191.3510  173.0920  138.5820 N   0  0  0  0  0  0  0  0  0  0  0  0
  193.0190  172.6930  136.8780 C   0  0  1  0  0  3  0  0  0  0  0  0
  190.9800  173.8060  137.3690 C   0  0  0  0  0  2  0  0  0  0  0  0
  196.5750  176.0350  136.3790 O   0  0  0  0  0  1  0  0  0  0  0  0
  194.9220  174.4360  136.9770 C   0  0  1  0  0  3  0  0  0  0  0  0
  197.6670  172.6640  136.6120 O   0  0  0  0  0  0  0  0  0  0  0  0
  195.2480  172.1360  137.8680 N   0  0  0  0  0  2  0  0  0  0  0  0
  197.0260  174.6910  138.1480 O   0  0  0  0  0  1  0  0  0  0  0  0
  194.5330  172.9480  136.8820 C   0  0  1  0  0  3  0  0  0  0  0  0
  196.9190  171.5890  136.1130 C   0  0  2  0  0  3  0  0  0  0  0  0
  197.1820  173.7930  135.9360 C   0  0  0  0  0  2  0  0  0  0  0  0
  194.2790  175.1440  138.1640 C   0  0  0  0  0  1  0  0  0  0  0  0
  196.4370  174.7420  136.8830 C   0  0  0  0  0  0  0  0  0  0  0  0
  195.9420  171.0560  137.1640 C   0  0  0  0  0  2  0  0  0  0  0  0
  197.8290  170.4840  135.5910 C   0  0  0  0  0  2  0  0  0  0  0  0
  197.4240  169.1170  136.1140 C   0  0  0  0  0  1  0  0  0  0  0  0
  194.0300  170.1580  144.1410 C   0  0  0  0  0  2  0  0  0  0  0  0
  194.5970  169.7680  145.4980 C   0  0  1  0  0  3  0  0  0  0  0  0
  194.1110  168.5120  145.8740 O   0  0  0  0  0  1  0  0  0  0  0  0
  196.1100  169.7140  145.4180 C   0  0  0  0  0  2  0  0  0  0  0  0
  197.1940  171.9510  145.5180 C   0  0  0  0  0  3  0  0  0  0  0  0
  196.6850  170.8840  146.1420 C   0  0  0  0  0  3  0  0  0  0  0  0
  197.2650  172.0730  144.0300 C   0  0  0  0  0  2  0  0  0  0  0  0
  196.3950  173.8250  143.0000 C   0  0  0  0  0  1  0  0  0  0  0  0
  197.5400  173.3960  143.6830 O   0  0  0  0  0  0  0  0  0  0  0  0
  1  4  1  0  0  0  0
  2  5  1  0  0  0  0
  3  1  2  0  0  0  0
  4  5  1  0  0  0  0
  6 19  1  1  0  0  0
  6  3  1  0  0  0  0
  6 10  1  0  0  0  0
  7  8  1  0  0  0  0
  8  1  1  0  0  0  0
  9 11  2  0  0  0  0
  9  3  1  0  0  0  0
 10  2  1  0  0  0  0
 11  7  1  0  0  0  0
 12 16  2  0  0  0  0
 14 13  2  0  0  0  0
 15 20  1  0  0  0  0
 17 21  1  0  0  0  0
 18 21  1  0  0  0  0
 18 15  2  0  0  0  0
 19 12  1  0  0  0  0
 20 16  1  0  0  0  0
 20 14  1  0  0  0  0
 21 19  2  0  0  0  0
 22 26  1  0  0  0  0
 22 25  1  0  0  0  0
 23 24  1  0  0  0  0
 25 14  1  1  0  0  0
 25 24  1  0  0  0  0
 26 23  1  0  0  0  0
 27  9  1  0  0  0  0
 29 28  2  6  0  0  0
 29 27  1  0  0  0  0
 30 29  1  0  0  0  0
 31 30  1  0  0  0  0
 32 34  1  0  0  0  0
 33 36  1  0  0  0  0
 34 31  1  0  0  0  0
 35 33  1  1  0  0  0
 35 42  1  0  0  0  0
 35 32  1  0  0  0  0
 36 34  1  0  0  0  0
 37 46  1  0  0  0  0
 38 45  1  1  0  0  0
 42 38  1  0  0  0  0
 42 40  1  1  0  0  0
 43 48  1  1  0  0  0
 43 39  1  0  0  0  0
 43 47  1  0  0  0  0
 44 39  1  0  0  0  0
 44 46  1  0  0  0  0
 46 38  1  0  0  0  0
 46 41  1  0  0  0  0
 47 40  1  0  0  0  0
 48 49  1  0  0  0  0
 50  7  1  0  0  0  0
 50 51  1  0  0  0  0
 51 52  1  6  0  0  0
 53 51  1  0  0  0  0
 53 55  1  0  0  0  0
 54 55  2  0  0  0  0
 56 54  1  0  0  0  0
 57 58  1  0  0  0  0
 58 56  1  0  0  0  0
M  END
>  <MODEL>
8

>  <REMARK>
 VINA RESULT:      -6.4      3.420      8.992
  Name = 
  15 active torsions:
  status: ('A' for Active; 'I' for Inactive)
    1  A    between atoms: C_1  and  C_19
    2  A    between atoms: C_1  and  C_46
    3  A    between atoms: C_5  and  C_16
    4  A    between atoms: C_5  and  N_38
    5  A    between atoms: P_13  and  C_16
    6  A    between atoms: P_13  and  O_24
    7  A    between atoms: C_15  and  C_43
    8  A    between atoms: N_18  and  C_46
    9  A    between atoms: C_19  and  C_49
   10  A    between atoms: C_20  and  C_45
   11  A    between atoms: O_24  and  C_42
   12  A    between atoms: C_25  and  C_50
   13  A    between atoms: C_27  and  C_52
   14  A    between atoms: C_28  and  C_30
   15  A    between atoms: C_45  and  O_48
                            x       y       z     vdW  Elec       q    Type
                         _______ _______ _______ _____ _____    ______ ____

>  <TORSDO>
F 15

$$$$
=
 OpenBabel11072409323D

 58 63  0  0  1  0  0  0  0  0999 V2000
  193.6570  173.6150  144.9450 C   0  0  0  0  0  0  0  0  0  0  0  0
  193.1940  176.5850  146.0500 C   0  0  0  0  0  2  0  0  0  0  0  0
  193.0010  174.1860  143.9040 C   0  0  0  0  0  0  0  0  0  0  0  0
  194.1290  174.3890  146.1390 C   0  0  0  0  0  2  0  0  0  0  0  0
  193.0640  175.2480  146.6370 N   0  0  0  0  0  2  0  0  0  0  0  0
  192.6500  175.6620  143.8440 C   0  0  2  0  0  3  0  0  0  0  0  0
  193.6050  171.4680  143.8260 N   0  0  0  0  0  0  0  0  0  0  0  0
  193.9670  172.2540  144.9020 O   0  0  0  0  0  0  0  0  0  0  0  0
  192.5970  173.3460  142.7420 C   0  0  0  0  0  0  0  0  0  0  0  0
  193.5310  176.5460  144.6180 N   0  0  0  0  0  2  0  0  0  0  0  0
  192.8960  172.0430  142.7270 C   0  0  0  0  0  3  0  0  0  0  0  0
  190.3180  175.0210  144.6260 C   0  0  0  0  0  3  0  0  0  0  0  0
  187.3340  175.7220  147.2200 O   0  0  0  0  0  0  0  0  0  0  0  0
  187.4600  176.6090  146.3330 C   0  0  0  0  0  0  0  0  0  0  0  0
  188.3330  177.3190  144.1440 C   0  0  0  0  0  3  0  0  0  0  0  0
  189.1390  175.2050  145.2160 C   0  0  0  0  0  3  0  0  0  0  0  0
  191.6700  178.0110  142.5880 C   0  0  0  0  0  1  0  0  0  0  0  0
  189.3290  177.5990  143.3080 C   0  0  0  0  0  3  0  0  0  0  0  0
  191.1740  176.0060  143.9310 C   0  0  0  0  0  0  0  0  0  0  0  0
  188.4160  176.4390  145.2700 N   0  0  0  0  0  0  0  0  0  0  0  0
  190.7240  177.1360  143.3450 C   0  0  0  0  0  0  0  0  0  0  0  0
  185.2440  177.4810  146.4080 O   0  0  0  0  0  0  0  0  0  0  0  0
  185.5430  179.1040  148.1100 C   0  0  0  0  0  2  0  0  0  0  0  0
  186.8940  178.6290  147.6630 C   0  0  0  0  0  2  0  0  0  0  0  0
  186.6040  177.8370  146.4080 C   0  0  1  0  0  3  0  0  0  0  0  0
  184.6020  178.5420  147.0650 C   0  0  0  0  0  2  0  0  0  0  0  0
  191.9180  173.9440  141.6710 O   0  0  0  0  0  0  0  0  0  0  0  0
  189.3140  174.5700  141.0220 O   0  0  0  0  0  0  0  0  0  0  0  0
  190.3450  173.4740  141.1510 P   0  0  1  0  0  4  0  0  0  0  0  0
  190.0040  171.8210  140.4720 C   0  0  0  0  0  2  0  0  0  0  0  0
  189.9880  171.8770  138.9530 C   0  0  0  0  0  2  0  0  0  0  0  0
  191.7370  172.8090  137.7040 C   0  0  0  0  0  2  0  0  0  0  0  0
  190.3660  174.3080  136.4260 C   0  0  0  0  0  2  0  0  0  0  0  0
  190.5560  173.1350  138.4990 N   0  0  0  0  0  0  0  0  0  0  0  0
  191.5830  173.4240  136.3290 C   0  0  1  0  0  3  0  0  0  0  0  0
  189.5930  173.7360  137.5870 C   0  0  0  0  0  2  0  0  0  0  0  0
  196.4720  173.6570  136.6590 O   0  0  0  0  0  1  0  0  0  0  0  0
  194.1600  173.4160  136.1650 C   0  0  1  0  0  3  0  0  0  0  0  0
  194.9140  176.4190  135.0600 O   0  0  0  0  0  0  0  0  0  0  0  0
  192.7800  174.7160  134.5530 N   0  0  0  0  0  2  0  0  0  0  0  0
  195.8270  174.0220  134.5170 O   0  0  0  0  0  1  0  0  0  0  0  0
  192.8500  174.1870  135.9160 C   0  0  1  0  0  3  0  0  0  0  0  0
  193.6400  176.8810  135.4170 C   0  0  2  0  0  3  0  0  0  0  0  0
  195.3620  175.6870  136.1700 C   0  0  0  0  0  2  0  0  0  0  0  0
  194.1650  172.0310  135.5260 C   0  0  0  0  0  1  0  0  0  0  0  0
  195.4650  174.1890  135.8550 C   0  0  0  0  0  0  0  0  0  0  0  0
  192.5450  176.1590  134.6270 C   0  0  0  0  0  2  0  0  0  0  0  0
  193.5390  178.3920  135.2510 C   0  0  0  0  0  2  0  0  0  0  0  0
  194.8350  178.9980  134.7420 C   0  0  0  0  0  1  0  0  0  0  0  0
  194.0940  170.1050  143.7450 C   0  0  0  0  0  2  0  0  0  0  0  0
  194.3970  169.5730  145.1380 C   0  0  1  0  0  3  0  0  0  0  0  0
  193.7290  168.3610  145.3420 O   0  0  0  0  0  1  0  0  0  0  0  0
  195.8910  169.3490  145.2790 C   0  0  0  0  0  2  0  0  0  0  0  0
  197.1690  171.4250  145.7720 C   0  0  0  0  0  3  0  0  0  0  0  0
  196.4590  170.3750  146.1980 C   0  0  0  0  0  3  0  0  0  0  0  0
  197.4890  171.6670  144.3320 C   0  0  0  0  0  2  0  0  0  0  0  0
  197.5640  173.7450  145.0830 C   0  0  0  0  0  1  0  0  0  0  0  0
  197.1440  172.9750  143.9920 O   0  0  0  0  0  0  0  0  0  0  0  0
  1  4  1  0  0  0  0
  2  5  1  0  0  0  0
  3  1  2  0  0  0  0
  4  5  1  0  0  0  0
  6  3  1  0  0  0  0
  6 19  1  1  0  0  0
  6 10  1  0  0  0  0
  7  8  1  0  0  0  0
  8  1  1  0  0  0  0
  9  3  1  0  0  0  0
 10  2  1  0  0  0  0
 11  9  2  0  0  0  0
 11  7  1  0  0  0  0
 12 16  2  0  0  0  0
 14 13  2  0  0  0  0
 15 20  1  0  0  0  0
 16 20  1  0  0  0  0
 17 21  1  0  0  0  0
 18 21  1  0  0  0  0
 18 15  2  0  0  0  0
 19 12  1  0  0  0  0
 20 14  1  0  0  0  0
 21 19  2  0  0  0  0
 22 25  1  0  0  0  0
 22 26  1  0  0  0  0
 24 23  1  0  0  0  0
 25 14  1  1  0  0  0
 25 24  1  0  0  0  0
 26 23  1  0  0  0  0
 27  9  1  0  0  0  0
 29 28  2  6  0  0  0
 29 27  1  0  0  0  0
 30 29  1  0  0  0  0
 31 30  1  0  0  0  0
 32 34  1  0  0  0  0
 33 36  1  0  0  0  0
 34 31  1  0  0  0  0
 35 33  1  1  0  0  0
 35 32  1  0  0  0  0
 36 34  1  0  0  0  0
 38 45  1  6  0  0  0
 39 43  1  0  0  0  0
 39 44  1  0  0  0  0
 40 47  1  0  0  0  0
 41 46  1  0  0  0  0
 42 40  1  6  0  0  0
 42 38  1  0  0  0  0
 42 35  1  0  0  0  0
 43 48  1  6  0  0  0
 46 38  1  0  0  0  0
 46 44  1  0  0  0  0
 46 37  1  0  0  0  0
 47 43  1  0  0  0  0
 49 48  1  0  0  0  0
 50  7  1  0  0  0  0
 50 51  1  0  0  0  0
 51 53  1  0  0  0  0
 51 52  1  6  0  0  0
 53 55  1  0  0  0  0
 54 55  2  0  0  0  0
 56 54  1  0  0  0  0
 58 56  1  0  0  0  0
 58 57  1  0  0  0  0
M  END
>  <MODEL>
9

>  <REMARK>
 VINA RESULT:      -6.4      3.721      9.727
  Name = 
  15 active torsions:
  status: ('A' for Active; 'I' for Inactive)
    1  A    between atoms: C_1  and  C_19
    2  A    between atoms: C_1  and  C_46
    3  A    between atoms: C_5  and  C_16
    4  A    between atoms: C_5  and  N_38
    5  A    between atoms: P_13  and  C_16
    6  A    between atoms: P_13  and  O_24
    7  A    between atoms: C_15  and  C_43
    8  A    between atoms: N_18  and  C_46
    9  A    between atoms: C_19  and  C_49
   10  A    between atoms: C_20  and  C_45
   11  A    between atoms: O_24  and  C_42
   12  A    between atoms: C_25  and  C_50
   13  A    between atoms: C_27  and  C_52
   14  A    between atoms: C_28  and  C_30
   15  A    between atoms: C_45  and  O_48
                            x       y       z     vdW  Elec       q    Type
                         _______ _______ _______ _____ _____    ______ ____

>  <TORSDO>
F 15

$$$$
