=
 OpenBabel11072409413D

 25 27  0  0  1  0  0  0  0  0999 V2000
  188.0860  176.7220  143.6920 C   0  0  0  0  0  0  0  0  0  0  0  0
  184.4630  177.5420  146.6880 C   0  0  0  0  0  3  0  0  0  0  0  0
  185.4500  176.8210  146.0240 C   0  0  0  0  0  3  0  0  0  0  0  0
  190.4660  176.1340  143.6450 C   0  0  0  0  0  0  0  0  0  0  0  0
  185.3440  178.3250  144.1280 C   0  0  0  0  0  0  0  0  0  0  0  0
  186.0950  178.2820  141.7400 C   0  0  0  0  0  0  0  0  0  0  0  0
  190.7180  177.2010  142.7960 C   0  0  0  0  0  3  0  0  0  0  0  0
  189.6550  177.9640  142.3210 C   0  0  0  0  0  3  0  0  0  0  0  0
  184.3540  179.0400  144.8210 C   0  0  0  0  0  3  0  0  0  0  0  0
  188.3300  177.7260  142.7170 C   0  0  0  0  0  0  0  0  0  0  0  0
  187.4300  178.1540  141.8130 N   0  0  0  0  0  2  0  0  0  0  0  0
  185.9530  177.2140  144.7730 C   0  0  0  0  0  0  0  0  0  0  0  0
  186.9960  176.4870  144.4040 O   0  0  0  0  0  0  0  0  0  0  0  0
  185.3070  178.5280  142.7990 N   0  0  0  0  0  2  0  0  0  0  0  0
  183.9330  178.6770  146.0960 C   0  0  0  0  0  3  0  0  0  0  0  0
  189.1590  175.9050  144.0810 C   0  0  0  0  0  3  0  0  0  0  0  0
  185.5910  178.4350  140.5970 O   0  0  0  0  0  0  0  0  0  0  0  0
  191.5980  175.2740  144.1050 C   0  0  1  0  0  3  0  0  0  0  0  0
  192.8140  175.8050  143.6730 O   0  0  0  0  0  1  0  0  0  0  0  0
  191.5900  175.1470  145.6190 C   0  0  0  0  0  2  0  0  0  0  0  0
  191.9260  176.3710  146.2010 O   0  0  0  0  0  0  0  0  0  0  0  0
  191.6350  177.2680  148.8070 O   0  0  0  0  0  1  0  0  0  0  0  0
  190.3090  175.2100  147.8950 O   0  0  0  0  0  1  0  0  0  0  0  0
  190.8430  176.5650  147.4880 P   0  0  0  0  0  0  0  0  0  0  0  0
  189.5520  177.5510  147.0130 O   0  0  0  0  0  0  0  0  0  0  0  0
  1 16  1  0  0  0  0
  1 13  1  0  0  0  0
  3  2  2  0  0  0  0
  4 16  2  0  0  0  0
  4 18  1  0  0  0  0
  5 12  2  0  0  0  0
  5  9  1  0  0  0  0
  6 11  1  0  0  0  0
  6 14  1  0  0  0  0
  7  4  1  0  0  0  0
  8 10  1  0  0  0  0
  8  7  2  0  0  0  0
  9 15  2  0  0  0  0
 10  1  2  0  0  0  0
 11 10  1  0  0  0  0
 12  3  1  0  0  0  0
 13 12  1  0  0  0  0
 14  5  1  0  0  0  0
 15  2  1  0  0  0  0
 17  6  2  0  0  0  0
 18 19  1  1  0  0  0
 18 20  1  0  0  0  0
 20 21  1  0  0  0  0
 21 24  1  0  0  0  0
 24 23  1  0  0  0  0
 24 22  1  0  0  0  0
 25 24  2  0  0  0  0
M  END
>  <MODEL>
1

>  <REMARK>
 VINA RESULT:      -7.3      0.000      0.000
  Name = 
  4 active torsions:
  status: ('A' for Active; 'I' for Inactive)
    1  A    between atoms: C_6  and  C_13
    2  A    between atoms: P_7  and  O_20
    3  A    between atoms: C_13  and  C_24
    4  A    between atoms: O_20  and  C_24
                            x       y       z     vdW  Elec       q    Type
                         _______ _______ _______ _____ _____    ______ ____

>  <TORSDO>
F 4

$$$$
=
 OpenBabel11072409413D

 25 27  0  0  1  0  0  0  0  0999 V2000
  188.3210  177.1620  145.3300 C   0  0  0  0  0  0  0  0  0  0  0  0
  185.8950  178.4170  141.4160 C   0  0  0  0  0  3  0  0  0  0  0  0
  186.9530  178.3690  142.3180 C   0  0  0  0  0  3  0  0  0  0  0  0
  190.2840  175.8930  146.0690 C   0  0  0  0  0  0  0  0  0  0  0  0
  185.4360  177.9140  144.1510 C   0  0  0  0  0  0  0  0  0  0  0  0
  185.5370  178.0100  146.6510 C   0  0  0  0  0  0  0  0  0  0  0  0
  189.5040  175.2160  146.9950 C   0  0  0  0  0  3  0  0  0  0  0  0
  188.1680  175.5740  147.1570 C   0  0  0  0  0  3  0  0  0  0  0  0
  184.3850  177.9610  143.2210 C   0  0  0  0  0  3  0  0  0  0  0  0
  187.5610  176.5650  146.3710 C   0  0  0  0  0  0  0  0  0  0  0  0
  186.5050  177.1380  146.9790 N   0  0  0  0  0  2  0  0  0  0  0  0
  186.7670  178.0650  143.6770 C   0  0  0  0  0  0  0  0  0  0  0  0
  187.9170  177.9080  144.3150 O   0  0  0  0  0  0  0  0  0  0  0  0
  185.0300  178.1360  145.4150 N   0  0  0  0  0  2  0  0  0  0  0  0
  184.6060  178.1810  141.8650 C   0  0  0  0  0  3  0  0  0  0  0  0
  189.6880  176.8550  145.2510 C   0  0  0  0  0  3  0  0  0  0  0  0
  184.9010  178.5460  147.5940 O   0  0  0  0  0  0  0  0  0  0  0  0
  191.7330  175.5550  145.9380 C   0  0  1  0  0  3  0  0  0  0  0  0
  191.8880  174.3420  145.2650 O   0  0  0  0  0  1  0  0  0  0  0  0
  192.4740  176.6590  145.2020 C   0  0  0  0  0  2  0  0  0  0  0  0
  193.4020  176.1030  144.3200 O   0  0  0  0  0  0  0  0  0  0  0  0
  194.8870  177.9350  145.7770 O   0  0  0  0  0  1  0  0  0  0  0  0
  195.9580  176.4600  143.9060 O   0  0  0  0  0  0  0  0  0  0  0  0
  194.9170  176.4320  145.0020 P   0  0  0  0  0  0  0  0  0  0  0  0
  195.3200  175.2280  146.1200 O   0  0  0  0  0  1  0  0  0  0  0  0
  1 10  1  0  0  0  0
  2 15  2  0  0  0  0
  2  3  1  0  0  0  0
  3 12  2  0  0  0  0
  4  7  2  0  0  0  0
  5 14  1  0  0  0  0
  6 11  1  0  0  0  0
  6 17  2  0  0  0  0
  7  8  1  0  0  0  0
  9  5  2  0  0  0  0
 10 11  1  0  0  0  0
 10  8  2  0  0  0  0
 12  5  1  0  0  0  0
 12 13  1  0  0  0  0
 13  1  1  0  0  0  0
 14  6  1  0  0  0  0
 15  9  1  0  0  0  0
 16  1  2  0  0  0  0
 16  4  1  0  0  0  0
 18 19  1  6  0  0  0
 18  4  1  0  0  0  0
 20 18  1  0  0  0  0
 21 24  1  0  0  0  0
 21 20  1  0  0  0  0
 23 24  2  0  0  0  0
 24 22  1  0  0  0  0
 24 25  1  0  0  0  0
M  END
>  <MODEL>
2

>  <REMARK>
 VINA RESULT:      -7.3      2.516      4.087
  Name = 
  4 active torsions:
  status: ('A' for Active; 'I' for Inactive)
    1  A    between atoms: C_6  and  C_13
    2  A    between atoms: P_7  and  O_20
    3  A    between atoms: C_13  and  C_24
    4  A    between atoms: O_20  and  C_24
                            x       y       z     vdW  Elec       q    Type
                         _______ _______ _______ _____ _____    ______ ____

>  <TORSDO>
F 4

$$$$
=
 OpenBabel11072409413D

 25 27  0  0  1  0  0  0  0  0999 V2000
  189.2080  177.0100  144.7600 C   0  0  0  0  0  0  0  0  0  0  0  0
  184.9110  178.1620  146.4870 C   0  0  0  0  0  3  0  0  0  0  0  0
  186.0550  177.3990  146.2800 C   0  0  0  0  0  3  0  0  0  0  0  0
  191.5340  176.6380  145.4410 C   0  0  0  0  0  0  0  0  0  0  0  0
  186.4030  178.4220  144.1110 C   0  0  0  0  0  0  0  0  0  0  0  0
  187.7490  177.9080  142.0620 C   0  0  0  0  0  0  0  0  0  0  0  0
  191.9680  177.5050  144.4490 C   0  0  0  0  0  3  0  0  0  0  0  0
  191.0440  178.0440  143.5580 C   0  0  0  0  0  3  0  0  0  0  0  0
  185.2490  179.1850  144.3460 C   0  0  0  0  0  3  0  0  0  0  0  0
  189.6690  177.7860  143.6630 C   0  0  0  0  0  0  0  0  0  0  0  0
  189.0220  177.9170  142.4890 N   0  0  0  0  0  2  0  0  0  0  0  0
  186.8550  177.5430  145.1330 C   0  0  0  0  0  0  0  0  0  0  0  0
  187.9780  176.8460  145.2180 O   0  0  0  0  0  0  0  0  0  0  0  0
  186.7070  178.3150  142.8040 N   0  0  0  0  0  2  0  0  0  0  0  0
  184.5220  179.0820  145.5270 C   0  0  0  0  0  3  0  0  0  0  0  0
  190.1650  176.4000  145.5850 C   0  0  0  0  0  3  0  0  0  0  0  0
  187.5550  177.7540  140.8290 O   0  0  0  0  0  0  0  0  0  0  0  0
  192.5310  176.0080  146.3580 C   0  0  1  0  0  3  0  0  0  0  0  0
  192.4390  174.6170  146.2880 O   0  0  0  0  0  1  0  0  0  0  0  0
  193.9390  176.4580  146.0050 C   0  0  0  0  0  2  0  0  0  0  0  0
  194.8430  175.4200  146.2420 O   0  0  0  0  0  0  0  0  0  0  0  0
  195.9450  176.7030  144.0460 O   0  0  0  0  0  1  0  0  0  0  0  0
  194.8210  174.3520  143.8560 O   0  0  0  0  0  0  0  0  0  0  0  0
  195.6650  175.2040  144.7770 P   0  0  0  0  0  0  0  0  0  0  0  0
  197.1420  174.4250  145.0540 O   0  0  0  0  0  1  0  0  0  0  0  0
  1 13  1  0  0  0  0
  1 16  1  0  0  0  0
  3  2  1  0  0  0  0
  4 16  2  0  0  0  0
  4 18  1  0  0  0  0
  5  9  2  0  0  0  0
  5 12  1  0  0  0  0
  6 11  1  0  0  0  0
  6 14  1  0  0  0  0
  7  4  1  0  0  0  0
  8 10  1  0  0  0  0
  8  7  2  0  0  0  0
  9 15  1  0  0  0  0
 10  1  2  0  0  0  0
 11 10  1  0  0  0  0
 12 13  1  0  0  0  0
 12  3  2  0  0  0  0
 14  5  1  0  0  0  0
 15  2  2  0  0  0  0
 17  6  2  0  0  0  0
 18 19  1  6  0  0  0
 20 21  1  0  0  0  0
 20 18  1  0  0  0  0
 22 24  1  0  0  0  0
 23 24  2  0  0  0  0
 24 25  1  0  0  0  0
 24 21  1  0  0  0  0
M  END
>  <MODEL>
3

>  <REMARK>
 VINA RESULT:      -7.2      2.242      3.194
  Name = 
  4 active torsions:
  status: ('A' for Active; 'I' for Inactive)
    1  A    between atoms: C_6  and  C_13
    2  A    between atoms: P_7  and  O_20
    3  A    between atoms: C_13  and  C_24
    4  A    between atoms: O_20  and  C_24
                            x       y       z     vdW  Elec       q    Type
                         _______ _______ _______ _____ _____    ______ ____

>  <TORSDO>
F 4

$$$$
=
 OpenBabel11072409413D

 25 27  0  0  1  0  0  0  0  0999 V2000
  189.0890  176.9740  145.4540 C   0  0  0  0  0  0  0  0  0  0  0  0
  187.0010  178.0540  141.3010 C   0  0  0  0  0  3  0  0  0  0  0  0
  187.9220  178.1320  142.3400 C   0  0  0  0  0  3  0  0  0  0  0  0
  191.1450  176.0310  146.4020 C   0  0  0  0  0  0  0  0  0  0  0  0
  186.2930  177.2740  143.9150 C   0  0  0  0  0  0  0  0  0  0  0  0
  186.0480  177.2010  146.4060 C   0  0  0  0  0  0  0  0  0  0  0  0
  190.3940  175.1570  147.1740 C   0  0  0  0  0  3  0  0  0  0  0  0
  189.0050  175.2530  147.1620 C   0  0  0  0  0  3  0  0  0  0  0  0
  185.3830  177.1980  142.8490 C   0  0  0  0  0  3  0  0  0  0  0  0
  188.3280  176.1730  146.3470 C   0  0  0  0  0  0  0  0  0  0  0  0
  187.1130  176.4980  146.8250 N   0  0  0  0  0  2  0  0  0  0  0  0
  187.6220  177.6990  143.6430 C   0  0  0  0  0  0  0  0  0  0  0  0
  188.6870  177.7070  144.4290 O   0  0  0  0  0  0  0  0  0  0  0  0
  185.6910  177.3250  145.1180 N   0  0  0  0  0  2  0  0  0  0  0  0
  185.7320  177.5550  141.5510 C   0  0  0  0  0  3  0  0  0  0  0  0
  190.4880  176.9270  145.5550 C   0  0  0  0  0  3  0  0  0  0  0  0
  185.2030  177.5420  147.2740 O   0  0  0  0  0  0  0  0  0  0  0  0
  192.6370  175.9730  146.4610 C   0  0  1  0  0  3  0  0  0  0  0  0
  193.0670  174.6460  146.4980 O   0  0  0  0  0  1  0  0  0  0  0  0
  193.2470  176.6880  145.2670 C   0  0  0  0  0  2  0  0  0  0  0  0
  194.6130  176.8810  145.4750 O   0  0  0  0  0  0  0  0  0  0  0  0
  194.2550  175.8380  142.9320 O   0  0  0  0  0  0  0  0  0  0  0  0
  195.9480  174.7980  144.6290 O   0  0  0  0  0  1  0  0  0  0  0  0
  195.3750  176.1190  144.1680 P   0  0  0  0  0  0  0  0  0  0  0  0
  196.6290  177.0940  143.5830 O   0  0  0  0  0  1  0  0  0  0  0  0
  1 16  2  0  0  0  0
  1 10  1  0  0  0  0
  2 15  2  0  0  0  0
  2  3  1  0  0  0  0
  3 12  2  0  0  0  0
  4 18  1  0  0  0  0
  4  7  2  0  0  0  0
  5 14  1  0  0  0  0
  6 11  1  0  0  0  0
  6 17  2  0  0  0  0
  8  7  1  0  0  0  0
  9  5  2  0  0  0  0
 10 11  1  0  0  0  0
 10  8  2  0  0  0  0
 12  5  1  0  0  0  0
 12 13  1  0  0  0  0
 13  1  1  0  0  0  0
 14  6  1  0  0  0  0
 15  9  1  0  0  0  0
 16  4  1  0  0  0  0
 18 19  1  6  0  0  0
 20 21  1  0  0  0  0
 20 18  1  0  0  0  0
 22 24  2  0  0  0  0
 24 23  1  0  0  0  0
 24 21  1  0  0  0  0
 25 24  1  0  0  0  0
M  END
>  <MODEL>
4

>  <REMARK>
 VINA RESULT:      -7.1      2.607      4.480
  Name = 
  4 active torsions:
  status: ('A' for Active; 'I' for Inactive)
    1  A    between atoms: C_6  and  C_13
    2  A    between atoms: P_7  and  O_20
    3  A    between atoms: C_13  and  C_24
    4  A    between atoms: O_20  and  C_24
                            x       y       z     vdW  Elec       q    Type
                         _______ _______ _______ _____ _____    ______ ____

>  <TORSDO>
F 4

$$$$
=
 OpenBabel11072409413D

 25 27  0  0  1  0  0  0  0  0999 V2000
  188.3670  177.1620  145.2150 C   0  0  0  0  0  0  0  0  0  0  0  0
  185.8510  178.3760  141.3460 C   0  0  0  0  0  3  0  0  0  0  0  0
  186.9290  178.3360  142.2220 C   0  0  0  0  0  3  0  0  0  0  0  0
  190.3460  175.8980  145.9210 C   0  0  0  0  0  0  0  0  0  0  0  0
  185.4550  177.9050  144.0960 C   0  0  0  0  0  0  0  0  0  0  0  0
  185.6170  178.0280  146.5920 C   0  0  0  0  0  0  0  0  0  0  0  0
  189.5870  175.2330  146.8730 C   0  0  0  0  0  3  0  0  0  0  0  0
  188.2560  175.5950  147.0630 C   0  0  0  0  0  3  0  0  0  0  0  0
  184.3830  177.9420  143.1910 C   0  0  0  0  0  3  0  0  0  0  0  0
  187.6310  176.5770  146.2800 C   0  0  0  0  0  0  0  0  0  0  0  0
  186.5920  177.1590  146.9060 N   0  0  0  0  0  2  0  0  0  0  0  0
  186.7760  178.0480  143.5890 C   0  0  0  0  0  0  0  0  0  0  0  0
  187.9400  177.8960  144.2010 O   0  0  0  0  0  0  0  0  0  0  0  0
  185.0810  178.1420  145.3670 N   0  0  0  0  0  2  0  0  0  0  0  0
  184.5720  178.1470  141.8280 C   0  0  0  0  0  3  0  0  0  0  0  0
  189.7310  176.8520  145.1070 C   0  0  0  0  0  3  0  0  0  0  0  0
  185.0040  178.5770  147.5440 O   0  0  0  0  0  0  0  0  0  0  0  0
  191.7910  175.5570  145.7590 C   0  0  1  0  0  3  0  0  0  0  0  0
  192.2760  174.9480  146.9180 O   0  0  0  0  0  1  0  0  0  0  0  0
  191.9930  174.6410  144.5630 C   0  0  0  0  0  2  0  0  0  0  0  0
  192.0500  173.3120  144.9870 O   0  0  0  0  0  0  0  0  0  0  0  0
  189.5470  172.1290  145.1380 O   0  0  0  0  0  1  0  0  0  0  0  0
  191.4040  171.2400  143.5290 O   0  0  0  0  0  1  0  0  0  0  0  0
  190.8370  172.5140  144.1140 P   0  0  0  0  0  0  0  0  0  0  0  0
  190.2840  173.5040  142.8570 O   0  0  0  0  0  0  0  0  0  0  0  0
  1 10  1  0  0  0  0
  2 15  2  0  0  0  0
  2  3  1  0  0  0  0
  3 12  2  0  0  0  0
  4  7  2  0  0  0  0
  5 14  1  0  0  0  0
  6 11  1  0  0  0  0
  6 17  2  0  0  0  0
  7  8  1  0  0  0  0
  9  5  2  0  0  0  0
 10 11  1  0  0  0  0
 10  8  2  0  0  0  0
 12  5  1  0  0  0  0
 12 13  1  0  0  0  0
 13  1  1  0  0  0  0
 14  6  1  0  0  0  0
 15  9  1  0  0  0  0
 16  1  2  0  0  0  0
 16  4  1  0  0  0  0
 18  4  1  0  0  0  0
 18 19  1  1  0  0  0
 20 21  1  0  0  0  0
 20 18  1  0  0  0  0
 23 24  1  0  0  0  0
 24 21  1  0  0  0  0
 24 22  1  0  0  0  0
 25 24  2  0  0  0  0
M  END
>  <MODEL>
5

>  <REMARK>
 VINA RESULT:      -7.0      2.669      4.153
  Name = 
  4 active torsions:
  status: ('A' for Active; 'I' for Inactive)
    1  A    between atoms: C_6  and  C_13
    2  A    between atoms: P_7  and  O_20
    3  A    between atoms: C_13  and  C_24
    4  A    between atoms: O_20  and  C_24
                            x       y       z     vdW  Elec       q    Type
                         _______ _______ _______ _____ _____    ______ ____

>  <TORSDO>
F 4

$$$$
=
 OpenBabel11072409413D

 25 27  0  0  1  0  0  0  0  0999 V2000
  187.8720  176.9230  143.6570 C   0  0  0  0  0  0  0  0  0  0  0  0
  184.3740  177.6880  146.8120 C   0  0  0  0  0  3  0  0  0  0  0  0
  185.3740  176.9960  146.1380 C   0  0  0  0  0  3  0  0  0  0  0  0
  190.2830  176.5090  143.5010 C   0  0  0  0  0  0  0  0  0  0  0  0
  185.0430  178.3470  144.1550 C   0  0  0  0  0  0  0  0  0  0  0  0
  185.6570  178.1880  141.7320 C   0  0  0  0  0  0  0  0  0  0  0  0
  190.4030  177.5280  142.5670 C   0  0  0  0  0  3  0  0  0  0  0  0
  189.2580  178.1740  142.1090 C   0  0  0  0  0  3  0  0  0  0  0  0
  184.0420  179.0360  144.8580 C   0  0  0  0  0  3  0  0  0  0  0  0
  187.9810  177.8690  142.6030 C   0  0  0  0  0  0  0  0  0  0  0  0
  187.0000  178.1630  141.7300 N   0  0  0  0  0  2  0  0  0  0  0  0
  185.7730  177.3340  144.8340 C   0  0  0  0  0  0  0  0  0  0  0  0
  186.8460  176.6600  144.4500 O   0  0  0  0  0  0  0  0  0  0  0  0
  184.9140  178.4510  142.8190 N   0  0  0  0  0  2  0  0  0  0  0  0
  183.7240  178.7360  146.1780 C   0  0  0  0  0  3  0  0  0  0  0  0
  189.0250  176.2170  144.0320 C   0  0  0  0  0  3  0  0  0  0  0  0
  185.0780  178.2210  140.6160 O   0  0  0  0  0  0  0  0  0  0  0  0
  191.5030  175.7690  143.9460 C   0  0  1  0  0  3  0  0  0  0  0  0
  192.0460  175.0480  142.8820 O   0  0  0  0  0  1  0  0  0  0  0  0
  192.5360  176.7330  144.5060 C   0  0  0  0  0  2  0  0  0  0  0  0
  193.8000  176.1400  144.4860 O   0  0  0  0  0  0  0  0  0  0  0  0
  192.9310  174.9830  146.8500 O   0  0  0  0  0  1  0  0  0  0  0  0
  194.3590  177.1710  146.8220 O   0  0  0  0  0  1  0  0  0  0  0  0
  194.1810  175.8500  146.1100 P   0  0  0  0  0  0  0  0  0  0  0  0
  195.6210  174.9650  146.2150 O   0  0  0  0  0  0  0  0  0  0  0  0
  1 16  1  0  0  0  0
  1 13  1  0  0  0  0
  3  2  2  0  0  0  0
  4 18  1  0  0  0  0
  4 16  2  0  0  0  0
  5 12  2  0  0  0  0
  5  9  1  0  0  0  0
  6 14  1  0  0  0  0
  7  4  1  0  0  0  0
  8  7  2  0  0  0  0
  8 10  1  0  0  0  0
  9 15  2  0  0  0  0
 10  1  2  0  0  0  0
 11  6  1  0  0  0  0
 11 10  1  0  0  0  0
 12  3  1  0  0  0  0
 13 12  1  0  0  0  0
 14  5  1  0  0  0  0
 15  2  1  0  0  0  0
 17  6  2  0  0  0  0
 18 19  1  6  0  0  0
 18 20  1  0  0  0  0
 21 20  1  0  0  0  0
 21 24  1  0  0  0  0
 24 25  2  0  0  0  0
 24 23  1  0  0  0  0
 24 22  1  0  0  0  0
M  END
>  <MODEL>
6

>  <REMARK>
 VINA RESULT:      -6.9      1.522      2.053
  Name = 
  4 active torsions:
  status: ('A' for Active; 'I' for Inactive)
    1  A    between atoms: C_6  and  C_13
    2  A    between atoms: P_7  and  O_20
    3  A    between atoms: C_13  and  C_24
    4  A    between atoms: O_20  and  C_24
                            x       y       z     vdW  Elec       q    Type
                         _______ _______ _______ _____ _____    ______ ____

>  <TORSDO>
F 4

$$$$
=
 OpenBabel11072409413D

 25 27  0  0  1  0  0  0  0  0999 V2000
  188.9820  176.9230  144.7720 C   0  0  0  0  0  0  0  0  0  0  0  0
  184.6330  177.9140  146.4680 C   0  0  0  0  0  3  0  0  0  0  0  0
  185.8000  177.1870  146.2550 C   0  0  0  0  0  3  0  0  0  0  0  0
  191.3070  176.5910  145.4760 C   0  0  0  0  0  0  0  0  0  0  0  0
  186.1510  178.2820  144.1230 C   0  0  0  0  0  0  0  0  0  0  0  0
  187.5390  177.8630  142.0800 C   0  0  0  0  0  0  0  0  0  0  0  0
  191.7330  177.4980  144.5160 C   0  0  0  0  0  3  0  0  0  0  0  0
  190.8080  178.0390  143.6280 C   0  0  0  0  0  3  0  0  0  0  0  0
  184.9740  179.0080  144.3630 C   0  0  0  0  0  3  0  0  0  0  0  0
  189.4380  177.7430  143.7050 C   0  0  0  0  0  0  0  0  0  0  0  0
  188.8050  177.8930  142.5260 N   0  0  0  0  0  2  0  0  0  0  0  0
  186.6110  177.3850  145.1260 C   0  0  0  0  0  0  0  0  0  0  0  0
  187.7500  176.7150  145.2060 O   0  0  0  0  0  0  0  0  0  0  0  0
  186.4760  178.2220  142.8180 N   0  0  0  0  0  2  0  0  0  0  0  0
  184.2340  178.8530  145.5300 C   0  0  0  0  0  3  0  0  0  0  0  0
  189.9430  176.3140  145.5930 C   0  0  0  0  0  3  0  0  0  0  0  0
  187.3660  177.7410  140.8400 O   0  0  0  0  0  0  0  0  0  0  0  0
  192.3070  175.9600  146.3890 C   0  0  1  0  0  3  0  0  0  0  0  0
  191.6610  175.1620  147.3340 O   0  0  0  0  0  1  0  0  0  0  0  0
  193.3030  175.1290  145.5960 C   0  0  0  0  0  2  0  0  0  0  0  0
  193.1670  173.7800  145.9270 O   0  0  0  0  0  0  0  0  0  0  0  0
  193.1550  171.4720  144.3910 O   0  0  0  0  0  1  0  0  0  0  0  0
  192.9440  173.8480  143.3230 O   0  0  0  0  0  0  0  0  0  0  0  0
  192.5410  173.0420  144.5370 P   0  0  0  0  0  0  0  0  0  0  0  0
  190.8520  172.9810  144.6270 O   0  0  0  0  0  1  0  0  0  0  0  0
  1 13  1  0  0  0  0
  1 16  1  0  0  0  0
  3  2  1  0  0  0  0
  4 16  2  0  0  0  0
  4 18  1  0  0  0  0
  5  9  2  0  0  0  0
  5 12  1  0  0  0  0
  6 11  1  0  0  0  0
  6 14  1  0  0  0  0
  7  4  1  0  0  0  0
  8 10  1  0  0  0  0
  8  7  2  0  0  0  0
  9 15  1  0  0  0  0
 10  1  2  0  0  0  0
 11 10  1  0  0  0  0
 12 13  1  0  0  0  0
 12  3  2  0  0  0  0
 14  5  1  0  0  0  0
 15  2  2  0  0  0  0
 17  6  2  0  0  0  0
 18 19  1  1  0  0  0
 20 21  1  0  0  0  0
 20 18  1  0  0  0  0
 22 24  1  0  0  0  0
 23 24  2  0  0  0  0
 24 25  1  0  0  0  0
 24 21  1  0  0  0  0
M  END
>  <MODEL>
7

>  <REMARK>
 VINA RESULT:      -6.9      2.023      2.848
  Name = 
  4 active torsions:
  status: ('A' for Active; 'I' for Inactive)
    1  A    between atoms: C_6  and  C_13
    2  A    between atoms: P_7  and  O_20
    3  A    between atoms: C_13  and  C_24
    4  A    between atoms: O_20  and  C_24
                            x       y       z     vdW  Elec       q    Type
                         _______ _______ _______ _____ _____    ______ ____

>  <TORSDO>
F 4

$$$$
=
 OpenBabel11072409413D

 25 27  0  0  1  0  0  0  0  0999 V2000
  186.3170  176.2990  143.0160 C   0  0  0  0  0  0  0  0  0  0  0  0
  185.9760  177.6920  147.5680 C   0  0  0  0  0  3  0  0  0  0  0  0
  186.0860  176.8180  146.4910 C   0  0  0  0  0  3  0  0  0  0  0  0
  187.8550  175.2490  141.4210 C   0  0  0  0  0  0  0  0  0  0  0  0
  184.9710  178.3980  145.0320 C   0  0  0  0  0  0  0  0  0  0  0  0
  183.8470  178.3150  142.7950 C   0  0  0  0  0  0  0  0  0  0  0  0
  187.6350  176.2820  140.5220 C   0  0  0  0  0  3  0  0  0  0  0  0
  186.6950  177.2630  140.8220 C   0  0  0  0  0  3  0  0  0  0  0  0
  184.8780  179.2650  146.1320 C   0  0  0  0  0  3  0  0  0  0  0  0
  185.9940  177.2780  142.0370 C   0  0  0  0  0  0  0  0  0  0  0  0
  184.8130  177.9180  141.9510 N   0  0  0  0  0  2  0  0  0  0  0  0
  185.6480  177.1600  145.2000 C   0  0  0  0  0  0  0  0  0  0  0  0
  185.9990  176.2550  144.2990 O   0  0  0  0  0  0  0  0  0  0  0  0
  184.0650  178.6650  144.0730 N   0  0  0  0  0  2  0  0  0  0  0  0
  185.3950  178.9360  147.3800 C   0  0  0  0  0  3  0  0  0  0  0  0
  187.1950  175.2670  142.6520 C   0  0  0  0  0  3  0  0  0  0  0  0
  182.7330  178.6180  142.2950 O   0  0  0  0  0  0  0  0  0  0  0  0
  188.8160  174.1590  141.0740 C   0  0  1  0  0  3  0  0  0  0  0  0
  189.0810  174.1680  139.7030 O   0  0  0  0  0  1  0  0  0  0  0  0
  190.1090  174.3180  141.8570 C   0  0  0  0  0  2  0  0  0  0  0  0
  190.1560  173.3810  142.8900 O   0  0  0  0  0  0  0  0  0  0  0  0
  192.1990  173.9290  144.6820 O   0  0  0  0  0  1  0  0  0  0  0  0
  189.6930  173.8610  145.4180 O   0  0  0  0  0  1  0  0  0  0  0  0
  190.5920  174.2610  144.2700 P   0  0  0  0  0  0  0  0  0  0  0  0
  190.4150  175.9190  143.9770 O   0  0  0  0  0  0  0  0  0  0  0  0
  1 13  1  0  0  0  0
  3  2  2  0  0  0  0
  4 16  2  0  0  0  0
  5 12  2  0  0  0  0
  5  9  1  0  0  0  0
  6 14  1  0  0  0  0
  7  8  2  0  0  0  0
  7  4  1  0  0  0  0
  8 10  1  0  0  0  0
  9 15  2  0  0  0  0
 10  1  2  0  0  0  0
 11 10  1  0  0  0  0
 11  6  1  0  0  0  0
 12  3  1  0  0  0  0
 13 12  1  0  0  0  0
 14  5  1  0  0  0  0
 15  2  1  0  0  0  0
 16  1  1  0  0  0  0
 17  6  2  0  0  0  0
 18 19  1  6  0  0  0
 18  4  1  0  0  0  0
 18 20  1  0  0  0  0
 20 21  1  0  0  0  0
 21 24  1  0  0  0  0
 24 22  1  0  0  0  0
 24 23  1  0  0  0  0
 25 24  2  0  0  0  0
M  END
>  <MODEL>
8

>  <REMARK>
 VINA RESULT:      -6.9      2.622      3.167
  Name = 
  4 active torsions:
  status: ('A' for Active; 'I' for Inactive)
    1  A    between atoms: C_6  and  C_13
    2  A    between atoms: P_7  and  O_20
    3  A    between atoms: C_13  and  C_24
    4  A    between atoms: O_20  and  C_24
                            x       y       z     vdW  Elec       q    Type
                         _______ _______ _______ _____ _____    ______ ____

>  <TORSDO>
F 4

$$$$
=
 OpenBabel11072409413D

 25 27  0  0  1  0  0  0  0  0999 V2000
  188.6250  176.8000  144.9740 C   0  0  0  0  0  0  0  0  0  0  0  0
  185.3000  178.4850  141.9940 C   0  0  0  0  0  3  0  0  0  0  0  0
  186.5700  178.2530  142.5120 C   0  0  0  0  0  3  0  0  0  0  0  0
  190.4950  175.2190  145.0960 C   0  0  0  0  0  0  0  0  0  0  0  0
  185.6710  178.0260  144.7500 C   0  0  0  0  0  0  0  0  0  0  0  0
  186.5860  178.0700  147.0810 C   0  0  0  0  0  0  0  0  0  0  0  0
  189.9580  174.6650  146.2490 C   0  0  0  0  0  3  0  0  0  0  0  0
  188.8200  175.2320  146.8150 C   0  0  0  0  0  3  0  0  0  0  0  0
  184.3990  178.2550  144.2040 C   0  0  0  0  0  3  0  0  0  0  0  0
  188.1560  176.3200  146.2260 C   0  0  0  0  0  0  0  0  0  0  0  0
  187.4570  177.0480  147.1160 N   0  0  0  0  0  2  0  0  0  0  0  0
  186.7860  177.9650  143.8700 C   0  0  0  0  0  0  0  0  0  0  0  0
  188.0400  177.6150  144.1120 O   0  0  0  0  0  0  0  0  0  0  0  0
  185.7340  178.2940  146.0670 N   0  0  0  0  0  2  0  0  0  0  0  0
  184.2030  178.4550  142.8410 C   0  0  0  0  0  3  0  0  0  0  0  0
  189.8270  176.2760  144.4740 C   0  0  0  0  0  3  0  0  0  0  0  0
  186.3800  178.6900  148.1560 O   0  0  0  0  0  0  0  0  0  0  0  0
  191.7530  174.6520  144.5220 C   0  0  1  0  0  3  0  0  0  0  0  0
  192.1180  173.4930  145.2090 O   0  0  0  0  0  1  0  0  0  0  0  0
  191.5750  174.3490  143.0430 C   0  0  0  0  0  2  0  0  0  0  0  0
  191.5310  172.9680  142.8430 O   0  0  0  0  0  0  0  0  0  0  0  0
  190.0690  171.6100  140.9190 O   0  0  0  0  0  0  0  0  0  0  0  0
  189.3410  173.9550  141.8110 O   0  0  0  0  0  1  0  0  0  0  0  0
  189.9770  172.6550  142.2460 P   0  0  0  0  0  0  0  0  0  0  0  0
  189.0260  171.9490  143.4550 O   0  0  0  0  0  1  0  0  0  0  0  0
  1 10  1  0  0  0  0
  2  3  2  0  0  0  0
  2 15  1  0  0  0  0
  3 12  1  0  0  0  0
  4  7  2  0  0  0  0
  5 14  1  0  0  0  0
  6 11  1  0  0  0  0
  6 17  2  0  0  0  0
  7  8  1  0  0  0  0
  9  5  1  0  0  0  0
 10  8  2  0  0  0  0
 10 11  1  0  0  0  0
 12 13  1  0  0  0  0
 12  5  2  0  0  0  0
 13  1  1  0  0  0  0
 14  6  1  0  0  0  0
 15  9  2  0  0  0  0
 16  1  2  0  0  0  0
 16  4  1  0  0  0  0
 18  4  1  0  0  0  0
 18 19  1  1  0  0  0
 20 18  1  0  0  0  0
 21 20  1  0  0  0  0
 22 24  2  0  0  0  0
 23 24  1  0  0  0  0
 24 21  1  0  0  0  0
 24 25  1  0  0  0  0
M  END
>  <MODEL>
9

>  <REMARK>
 VINA RESULT:      -6.6      3.009      4.531
  Name = 
  4 active torsions:
  status: ('A' for Active; 'I' for Inactive)
    1  A    between atoms: C_6  and  C_13
    2  A    between atoms: P_7  and  O_20
    3  A    between atoms: C_13  and  C_24
    4  A    between atoms: O_20  and  C_24
                            x       y       z     vdW  Elec       q    Type
                         _______ _______ _______ _____ _____    ______ ____

>  <TORSDO>
F 4

$$$$
