=
 OpenBabel11072409233D

 39 42  0  0  1  0  0  0  0  0999 V2000
  190.4270  172.2930  140.9650 C   0  0  1  0  0  3  0  0  0  0  0  0
  195.4820  174.2040  145.0320 C   0  0  0  0  0  0  0  0  0  0  0  0
  194.4880  173.0570  143.0000 C   0  0  0  0  0  2  0  0  0  0  0  0
  189.1390  172.2480  141.7860 C   0  0  0  0  0  2  0  0  0  0  0  0
  193.7710  171.8730  143.6220 C   0  0  0  0  0  2  0  0  0  0  0  0
  189.1740  174.1970  143.3390 C   0  0  0  0  0  2  0  0  0  0  0  0
  191.3080  171.0190  141.0450 C   0  0  2  0  0  0  0  0  0  0  0  0
  190.6420  169.8170  141.7300 C   0  0  0  0  0  1  0  0  0  0  0  0
  192.5750  171.3110  141.6160 O   0  0  0  0  0  0  0  0  0  0  0  0
  193.6610  175.7280  144.6310 N   0  0  0  0  0  2  0  0  0  0  0  0
  192.4160  171.6740  142.9650 C   0  0  0  0  0  2  0  0  0  0  0  0
  192.8650  170.1990  139.1840 C   0  0  0  0  0  1  0  0  0  0  0  0
  190.1150  172.5810  139.6230 O   0  0  0  0  0  0  0  0  0  0  0  0
  191.4550  174.8130  144.1370 C   0  0  0  0  0  2  0  0  0  0  0  0
  189.9690  174.8150  144.4890 C   0  0  2  0  0  3  0  0  0  0  0  0
  191.0550  171.8960  138.8410 C   0  0  1  0  0  3  0  0  0  0  0  0
  192.2350  175.8940  144.8790 C   0  0  2  0  0  3  0  0  0  0  0  0
  189.4060  172.6960  143.2100 C   0  0  0  0  0  2  0  0  0  0  0  0
  194.1450  174.6690  145.5040 C   0  0  0  0  0  2  0  0  0  0  0  0
  196.5080  174.5100  145.6930 O   0  0  0  0  0  0  0  0  0  0  0  0
  195.6220  173.4460  143.8270 N   0  0  0  0  0  2  0  0  0  0  0  0
  191.4640  170.6500  139.5840 C   0  0  2  0  0  3  0  0  0  0  0  0
  191.5110  171.4670  136.0460 O   0  0  0  0  0  0  0  0  0  0  0  0
  190.3110  171.4620  137.2380 P   0  0  0  0  0  0  0  0  0  0  0  0
  189.2450  172.4710  136.8790 O   0  0  0  0  0  1  0  0  0  0  0  0
  189.6210  169.9220  137.3280 O   0  0  0  0  0  1  0  0  0  0  0  0
  191.9050  177.3620  142.9660 N   0  0  0  0  0  1  0  0  0  0  0  0
  191.7980  177.2730  144.4100 C   0  0  0  0  0  2  0  0  0  0  0  0
  189.6790  174.0940  145.8060 C   0  0  0  0  0  2  0  0  0  0  0  0
  189.1030  175.0330  146.8500 C   0  0  0  0  0  2  0  0  0  0  0  0
  187.1830  176.5510  146.7530 C   0  0  1  0  0  3  0  0  0  0  0  0
  188.5140  176.2560  146.1750 C   0  0  1  0  0  3  0  0  0  0  0  0
  188.3330  177.2740  147.1270 O   0  0  0  0  0  0  0  0  0  0  0  0
  185.2540  178.9620  144.8630 O   0  0  0  0  0  0  0  0  0  0  0  0
  184.4970  177.9350  142.7480 C   0  0  0  0  0  1  0  0  0  0  0  0
  185.8910  176.8530  144.5740 C   0  0  0  0  0  3  0  0  0  0  0  0
  185.2060  177.9300  144.0540 C   0  0  0  0  0  0  0  0  0  0  0  0
  185.9520  178.6450  145.9270 C   0  0  0  0  0  3  0  0  0  0  0  0
  186.3750  177.3370  145.7730 C   0  0  0  0  0  0  0  0  0  0  0  0
  1  7  1  0  0  0  0
  1  4  1  1  0  0  0
  2 19  1  0  0  0  0
  2 20  2  0  0  0  0
  3  5  1  0  0  0  0
  3 21  1  0  0  0  0
  4 18  1  0  0  0  0
  6 15  1  0  0  0  0
  7  9  1  0  0  0  0
  7  8  1  1  0  0  0
  9 11  1  0  0  0  0
 10 17  1  0  0  0  0
 10 19  1  0  0  0  0
 11  5  1  0  0  0  0
 13  1  1  0  0  0  0
 14 15  1  0  0  0  0
 14 17  1  0  0  0  0
 15 29  1  1  0  0  0
 16 24  1  6  0  0  0
 16 22  1  0  0  0  0
 16 13  1  0  0  0  0
 17 28  1  6  0  0  0
 18  6  1  0  0  0  0
 21  2  1  0  0  0  0
 22 12  1  1  0  0  0
 22  7  1  0  0  0  0
 23 24  2  0  0  0  0
 24 26  1  0  0  0  0
 25 24  1  0  0  0  0
 27 28  1  0  0  0  0
 29 30  1  0  0  0  0
 31 39  1  6  0  0  0
 31 33  1  0  0  0  0
 32 31  1  0  0  0  0
 32 30  1  1  0  0  0
 32 33  1  0  0  0  0
 34 38  1  0  0  0  0
 35 37  1  0  0  0  0
 36 39  1  0  0  0  0
 37 36  2  0  0  0  0
 37 34  1  0  0  0  0
 39 38  2  0  0  0  0
M  END
>  <MODEL>
1

>  <REMARK>
 VINA RESULT:      -7.6      0.000      0.000
  Name = 
  6 active torsions:
  status: ('A' for Active; 'I' for Inactive)
    1  A    between atoms: C_1  and  C_21
    2  A    between atoms: C_1  and  C_34
    3  A    between atoms: P_7  and  C_24
    4  A    between atoms: C_21  and  C_23
    5  A    between atoms: C_27  and  C_33
    6  A    between atoms: C_28  and  C_35
                            x       y       z     vdW  Elec       q    Type
                         _______ _______ _______ _____ _____    ______ ____

>  <TORSDO>
F 6

$$$$
=
 OpenBabel11072409233D

 39 42  0  0  1  0  0  0  0  0999 V2000
  193.1120  174.8790  143.1660 C   0  0  1  0  0  3  0  0  0  0  0  0
  187.7400  177.2920  146.4930 C   0  0  0  0  0  0  0  0  0  0  0  0
  190.2070  176.7880  146.1890 C   0  0  0  0  0  2  0  0  0  0  0  0
  192.6340  173.7910  142.2050 C   0  0  0  0  0  2  0  0  0  0  0  0
  190.2430  175.2770  146.3330 C   0  0  0  0  0  2  0  0  0  0  0  0
  190.4700  174.5510  141.2310 C   0  0  0  0  0  2  0  0  0  0  0  0
  193.3670  174.4110  144.6220 C   0  0  2  0  0  0  0  0  0  0  0  0
  193.3440  172.8900  144.8240 C   0  0  0  0  0  1  0  0  0  0  0  0
  192.4980  175.0730  145.5300 O   0  0  0  0  0  0  0  0  0  0  0  0
  187.8560  177.5620  144.1030 N   0  0  0  0  0  2  0  0  0  0  0  0
  191.1710  174.6720  145.2940 C   0  0  0  0  0  2  0  0  0  0  0  0
  195.0670  175.4680  146.2210 C   0  0  0  0  0  1  0  0  0  0  0  0
  194.2680  175.4880  142.6440 O   0  0  0  0  0  0  0  0  0  0  0  0
  189.0770  175.9040  142.7950 C   0  0  0  0  0  2  0  0  0  0  0  0
  189.0410  174.9400  141.6100 C   0  0  2  0  0  3  0  0  0  0  0  0
  195.0610  175.8430  143.7440 C   0  0  1  0  0  3  0  0  0  0  0  0
  187.8390  176.7940  142.8650 C   0  0  2  0  0  3  0  0  0  0  0  0
  191.1260  173.6530  142.2730 C   0  0  0  0  0  2  0  0  0  0  0  0
  187.3880  176.6920  145.1730 C   0  0  0  0  0  2  0  0  0  0  0  0
  186.8290  177.7930  147.2030 O   0  0  0  0  0  0  0  0  0  0  0  0
  189.0940  177.3370  146.9510 N   0  0  0  0  0  2  0  0  0  0  0  0
  194.7980  174.8540  144.8510 C   0  0  2  0  0  3  0  0  0  0  0  0
  197.6500  174.7400  144.2800 O   0  0  0  0  0  1  0  0  0  0  0  0
  196.8160  175.8070  143.2660 P   0  0  0  0  0  0  0  0  0  0  0  0
  197.4120  177.1890  143.3970 O   0  0  0  0  0  1  0  0  0  0  0  0
  196.9600  175.2810  141.6660 O   0  0  0  0  0  0  0  0  0  0  0  0
  186.5770  177.5670  140.9320 N   0  0  0  0  0  1  0  0  0  0  0  0
  187.8080  177.7460  141.6800 C   0  0  0  0  0  2  0  0  0  0  0  0
  188.1900  173.7020  141.8890 C   0  0  0  0  0  2  0  0  0  0  0  0
  188.0180  172.8420  140.6500 C   0  0  0  0  0  2  0  0  0  0  0  0
  189.1610  172.7480  138.4850 C   0  0  1  0  0  3  0  0  0  0  0  0
  188.4210  173.6280  139.4180 C   0  0  1  0  0  3  0  0  0  0  0  0
  187.8030  173.0700  138.2850 O   0  0  0  0  0  0  0  0  0  0  0  0
  190.6720  174.8330  135.9400 O   0  0  0  0  0  0  0  0  0  0  0  0
  193.0810  175.0980  136.4150 C   0  0  0  0  0  1  0  0  0  0  0  0
  191.3810  173.7760  137.7620 C   0  0  0  0  0  3  0  0  0  0  0  0
  191.7160  174.5800  136.6930 C   0  0  0  0  0  0  0  0  0  0  0  0
  189.6180  174.2380  136.4480 C   0  0  0  0  0  3  0  0  0  0  0  0
  190.0250  173.5790  137.5930 C   0  0  0  0  0  0  0  0  0  0  0  0
  1  4  1  6  0  0  0
  1  7  1  0  0  0  0
  2 21  1  0  0  0  0
  2 20  2  0  0  0  0
  3  5  1  0  0  0  0
  3 21  1  0  0  0  0
  4 18  1  0  0  0  0
  6 15  1  0  0  0  0
  6 18  1  0  0  0  0
  7  8  1  1  0  0  0
  7 22  1  0  0  0  0
  7  9  1  0  0  0  0
 10 19  1  0  0  0  0
 11  9  1  0  0  0  0
 11  5  1  0  0  0  0
 13  1  1  0  0  0  0
 13 16  1  0  0  0  0
 14 17  1  0  0  0  0
 15 29  1  1  0  0  0
 15 14  1  0  0  0  0
 16 24  1  6  0  0  0
 16 22  1  0  0  0  0
 17 28  1  6  0  0  0
 17 10  1  0  0  0  0
 19  2  1  0  0  0  0
 22 12  1  1  0  0  0
 24 25  1  0  0  0  0
 24 23  1  0  0  0  0
 26 24  2  0  0  0  0
 27 28  1  0  0  0  0
 30 29  1  0  0  0  0
 31 39  1  6  0  0  0
 31 32  1  0  0  0  0
 32 30  1  1  0  0  0
 33 31  1  0  0  0  0
 33 32  1  0  0  0  0
 34 38  1  0  0  0  0
 34 37  1  0  0  0  0
 35 37  1  0  0  0  0
 37 36  2  0  0  0  0
 38 39  2  0  0  0  0
 39 36  1  0  0  0  0
M  END
>  <MODEL>
2

>  <REMARK>
 VINA RESULT:      -6.9      3.277      7.649
  Name = 
  6 active torsions:
  status: ('A' for Active; 'I' for Inactive)
    1  A    between atoms: C_1  and  C_21
    2  A    between atoms: C_1  and  C_34
    3  A    between atoms: P_7  and  C_24
    4  A    between atoms: C_21  and  C_23
    5  A    between atoms: C_27  and  C_33
    6  A    between atoms: C_28  and  C_35
                            x       y       z     vdW  Elec       q    Type
                         _______ _______ _______ _____ _____    ______ ____

>  <TORSDO>
F 6

$$$$
=
 OpenBabel11072409233D

 39 42  0  0  1  0  0  0  0  0999 V2000
  191.3270  173.1730  140.8320 C   0  0  1  0  0  3  0  0  0  0  0  0
  196.0700  172.1370  145.5400 C   0  0  0  0  0  0  0  0  0  0  0  0
  194.6070  171.4680  143.5790 C   0  0  0  0  0  2  0  0  0  0  0  0
  190.3920  174.2780  141.3250 C   0  0  0  0  0  2  0  0  0  0  0  0
  193.2370  171.3680  144.2250 C   0  0  0  0  0  2  0  0  0  0  0  0
  191.7970  175.9960  142.4580 C   0  0  0  0  0  2  0  0  0  0  0  0
  190.9970  171.7480  141.3470 C   0  0  2  0  0  0  0  0  0  0  0  0
  189.6480  171.6190  142.0670 C   0  0  0  0  0  1  0  0  0  0  0  0
  192.0620  171.2330  142.1340 O   0  0  0  0  0  0  0  0  0  0  0  0
  195.9470  174.2820  144.4540 N   0  0  0  0  0  2  0  0  0  0  0  0
  192.1830  171.9810  143.3180 C   0  0  0  0  0  2  0  0  0  0  0  0
  191.5130  169.5810  140.0830 C   0  0  0  0  0  1  0  0  0  0  0  0
  191.3590  173.1830  139.4250 O   0  0  0  0  0  0  0  0  0  0  0  0
  193.7840  175.0600  143.6370 C   0  0  0  0  0  2  0  0  0  0  0  0
  192.7610  176.1930  143.6280 C   0  0  2  0  0  3  0  0  0  0  0  0
  191.5220  171.8500  139.0230 C   0  0  1  0  0  3  0  0  0  0  0  0
  195.0870  175.4510  144.3280 C   0  0  2  0  0  3  0  0  0  0  0  0
  190.8640  174.8090  142.6640 C   0  0  0  0  0  2  0  0  0  0  0  0
  195.4820  173.5070  145.5950 C   0  0  0  0  0  2  0  0  0  0  0  0
  196.9770  171.8240  146.3540 O   0  0  0  0  0  0  0  0  0  0  0  0
  195.6440  171.1840  144.5610 N   0  0  0  0  0  2  0  0  0  0  0  0
  190.8730  170.9660  140.0560 C   0  0  2  0  0  3  0  0  0  0  0  0
  190.2090  173.0980  136.8030 O   0  0  0  0  0  1  0  0  0  0  0  0
  190.7390  171.6060  137.3980 P   0  0  0  0  0  0  0  0  0  0  0  0
  189.5570  170.6740  137.5350 O   0  0  0  0  0  1  0  0  0  0  0  0
  191.8580  170.9410  136.3200 O   0  0  0  0  0  0  0  0  0  0  0  0
  196.0840  176.0390  142.1860 N   0  0  0  0  0  1  0  0  0  0  0  0
  195.8070  176.5240  143.5260 C   0  0  0  0  0  2  0  0  0  0  0  0
  192.0020  176.3070  144.9500 C   0  0  0  0  0  2  0  0  0  0  0  0
  191.0640  177.5000  144.9630 C   0  0  0  0  0  2  0  0  0  0  0  0
  188.7010  176.8540  144.9470 C   0  0  1  0  0  3  0  0  0  0  0  0
  189.8500  177.1920  145.8170 C   0  0  1  0  0  3  0  0  0  0  0  0
  189.4540  175.8600  145.6030 O   0  0  0  0  0  0  0  0  0  0  0  0
  185.8560  176.9850  147.1820 O   0  0  0  0  0  0  0  0  0  0  0  0
  184.1570  178.5240  146.2630 C   0  0  0  0  0  1  0  0  0  0  0  0
  186.4080  177.9320  145.2490 C   0  0  0  0  0  3  0  0  0  0  0  0
  185.4620  177.8130  146.2440 C   0  0  0  0  0  0  0  0  0  0  0  0
  187.0460  176.5250  146.8790 C   0  0  0  0  0  3  0  0  0  0  0  0
  187.4250  177.1060  145.6830 C   0  0  0  0  0  0  0  0  0  0  0  0
  1  4  1  6  0  0  0
  1  7  1  0  0  0  0
  2 19  1  0  0  0  0
  2 20  2  0  0  0  0
  3  5  1  0  0  0  0
  3 21  1  0  0  0  0
  4 18  1  0  0  0  0
  6 18  1  0  0  0  0
  6 15  1  0  0  0  0
  7  8  1  1  0  0  0
  7  9  1  0  0  0  0
  9 11  1  0  0  0  0
 10 19  1  0  0  0  0
 11  5  1  0  0  0  0
 13  1  1  0  0  0  0
 14 17  1  0  0  0  0
 15 14  1  0  0  0  0
 15 29  1  1  0  0  0
 16 24  1  6  0  0  0
 16 13  1  0  0  0  0
 16 22  1  0  0  0  0
 17 28  1  6  0  0  0
 17 10  1  0  0  0  0
 21  2  1  0  0  0  0
 22 12  1  1  0  0  0
 22  7  1  0  0  0  0
 23 24  1  0  0  0  0
 24 25  1  0  0  0  0
 26 24  2  0  0  0  0
 27 28  1  0  0  0  0
 29 30  1  0  0  0  0
 31 33  1  0  0  0  0
 31 39  1  1  0  0  0
 31 32  1  0  0  0  0
 32 30  1  6  0  0  0
 33 32  1  0  0  0  0
 36 39  1  0  0  0  0
 36 37  2  0  0  0  0
 37 35  1  0  0  0  0
 37 34  1  0  0  0  0
 38 34  1  0  0  0  0
 39 38  2  0  0  0  0
M  END
>  <MODEL>
3

>  <REMARK>
 VINA RESULT:      -6.6      1.767      2.393
  Name = 
  6 active torsions:
  status: ('A' for Active; 'I' for Inactive)
    1  A    between atoms: C_1  and  C_21
    2  A    between atoms: C_1  and  C_34
    3  A    between atoms: P_7  and  C_24
    4  A    between atoms: C_21  and  C_23
    5  A    between atoms: C_27  and  C_33
    6  A    between atoms: C_28  and  C_35
                            x       y       z     vdW  Elec       q    Type
                         _______ _______ _______ _____ _____    ______ ____

>  <TORSDO>
F 6

$$$$
=
 OpenBabel11072409233D

 39 42  0  0  1  0  0  0  0  0999 V2000
  193.8650  173.9730  143.6430 C   0  0  1  0  0  3  0  0  0  0  0  0
  190.3520  172.9690  137.9510 C   0  0  0  0  0  0  0  0  0  0  0  0
  192.3740  172.7350  139.4640 C   0  0  0  0  0  2  0  0  0  0  0  0
  193.3450  175.2450  144.3120 C   0  0  0  0  0  2  0  0  0  0  0  0
  192.9430  174.1430  139.4550 C   0  0  0  0  0  2  0  0  0  0  0  0
  190.8680  175.2730  144.0400 C   0  0  0  0  0  2  0  0  0  0  0  0
  194.9290  174.1950  142.5360 C   0  0  2  0  0  0  0  0  0  0  0  0
  195.4800  175.6250  142.4490 C   0  0  0  0  0  1  0  0  0  0  0  0
  194.4560  173.7380  141.2770 O   0  0  0  0  0  0  0  0  0  0  0  0
  189.1990  172.9180  140.0640 N   0  0  0  0  0  2  0  0  0  0  0  0
  193.3820  174.5420  140.8540 C   0  0  0  0  0  2  0  0  0  0  0  0
  196.7670  172.5210  141.9180 C   0  0  0  0  0  1  0  0  0  0  0  0
  194.3660  173.1010  144.6270 O   0  0  0  0  0  0  0  0  0  0  0  0
  190.0730  174.2530  141.9080 C   0  0  0  0  0  2  0  0  0  0  0  0
  189.7660  175.2960  142.9810 C   0  0  2  0  0  3  0  0  0  0  0  0
  195.4390  172.4150  144.0400 C   0  0  1  0  0  3  0  0  0  0  0  0
  188.8200  173.7740  141.1800 C   0  0  2  0  0  3  0  0  0  0  0  0
  192.1900  175.8230  143.5180 C   0  0  0  0  0  2  0  0  0  0  0  0
  189.6080  173.7760  138.9620 C   0  0  0  0  0  2  0  0  0  0  0  0
  189.8000  172.6970  136.8540 O   0  0  0  0  0  0  0  0  0  0  0  0
  191.6670  172.4730  138.2180 N   0  0  0  0  0  2  0  0  0  0  0  0
  196.0700  173.3220  143.0140 C   0  0  2  0  0  3  0  0  0  0  0  0
  196.9480  173.3160  146.3020 O   0  0  0  0  0  1  0  0  0  0  0  0
  196.6500  171.9690  145.3230 P   0  0  0  0  0  0  0  0  0  0  0  0
  197.9410  171.5260  144.6760 O   0  0  0  0  0  0  0  0  0  0  0  0
  196.0370  170.7140  146.2740 O   0  0  0  0  0  1  0  0  0  0  0  0
  188.6870  171.9630  142.8000 N   0  0  0  0  0  1  0  0  0  0  0  0
  187.9220  172.9990  142.1300 C   0  0  0  0  0  2  0  0  0  0  0  0
  189.5910  176.6990  142.4000 C   0  0  0  0  0  2  0  0  0  0  0  0
  188.1510  176.9730  142.0070 C   0  0  0  0  0  2  0  0  0  0  0  0
  185.9490  177.5420  142.9200 C   0  0  1  0  0  3  0  0  0  0  0  0
  187.2670  176.9470  143.2390 C   0  0  1  0  0  3  0  0  0  0  0  0
  186.1380  176.1470  142.9870 O   0  0  0  0  0  0  0  0  0  0  0  0
  183.9070  179.0050  145.5260 O   0  0  0  0  0  0  0  0  0  0  0  0
  184.9950  178.6600  147.7160 C   0  0  0  0  0  1  0  0  0  0  0  0
  185.8390  177.9110  145.4420 C   0  0  0  0  0  3  0  0  0  0  0  0
  184.9010  178.5320  146.2390 C   0  0  0  0  0  0  0  0  0  0  0  0
  184.1140  178.7310  144.2600 C   0  0  0  0  0  3  0  0  0  0  0  0
  185.3070  178.0380  144.1740 C   0  0  0  0  0  0  0  0  0  0  0  0
  1  4  1  1  0  0  0
  1 13  1  0  0  0  0
  2 21  1  0  0  0  0
  2 19  1  0  0  0  0
  5  3  1  0  0  0  0
  5 11  1  0  0  0  0
  7  8  1  6  0  0  0
  7 22  1  0  0  0  0
  7  1  1  0  0  0  0
  9  7  1  0  0  0  0
 10 17  1  0  0  0  0
 11  9  1  0  0  0  0
 14 15  1  0  0  0  0
 15 29  1  6  0  0  0
 15  6  1  0  0  0  0
 16 13  1  0  0  0  0
 16 24  1  1  0  0  0
 17 14  1  0  0  0  0
 17 28  1  1  0  0  0
 18  6  1  0  0  0  0
 18  4  1  0  0  0  0
 19 10  1  0  0  0  0
 20  2  2  0  0  0  0
 21  3  1  0  0  0  0
 22 12  1  6  0  0  0
 22 16  1  0  0  0  0
 24 26  1  0  0  0  0
 24 23  1  0  0  0  0
 25 24  2  0  0  0  0
 28 27  1  0  0  0  0
 30 29  1  0  0  0  0
 31 33  1  0  0  0  0
 31 32  1  0  0  0  0
 31 39  1  1  0  0  0
 32 30  1  6  0  0  0
 33 32  1  0  0  0  0
 34 37  1  0  0  0  0
 36 37  2  0  0  0  0
 37 35  1  0  0  0  0
 38 34  1  0  0  0  0
 39 38  2  0  0  0  0
 39 36  1  0  0  0  0
M  END
>  <MODEL>
4

>  <REMARK>
 VINA RESULT:      -6.5      3.219      6.223
  Name = 
  6 active torsions:
  status: ('A' for Active; 'I' for Inactive)
    1  A    between atoms: C_1  and  C_21
    2  A    between atoms: C_1  and  C_34
    3  A    between atoms: P_7  and  C_24
    4  A    between atoms: C_21  and  C_23
    5  A    between atoms: C_27  and  C_33
    6  A    between atoms: C_28  and  C_35
                            x       y       z     vdW  Elec       q    Type
                         _______ _______ _______ _____ _____    ______ ____

>  <TORSDO>
F 6

$$$$
=
 OpenBabel11072409233D

 39 42  0  0  1  0  0  0  0  0999 V2000
  191.6530  173.9180  141.7640 C   0  0  1  0  0  3  0  0  0  0  0  0
  196.3460  171.1540  145.7730 C   0  0  0  0  0  0  0  0  0  0  0  0
  194.4180  171.0920  144.1270 C   0  0  0  0  0  2  0  0  0  0  0  0
  191.3330  175.3180  142.2910 C   0  0  0  0  0  2  0  0  0  0  0  0
  193.2570  171.5710  144.9790 C   0  0  0  0  0  2  0  0  0  0  0  0
  193.4790  176.3440  143.0350 C   0  0  0  0  0  2  0  0  0  0  0  0
  190.8820  172.7610  142.4520 C   0  0  2  0  0  0  0  0  0  0  0  0
  189.7420  173.2070  143.3780 C   0  0  0  0  0  1  0  0  0  0  0  0
  191.7770  171.8760  143.1120 O   0  0  0  0  0  0  0  0  0  0  0  0
  196.8930  173.1400  144.5260 N   0  0  0  0  0  2  0  0  0  0  0  0
  192.3900  172.5370  144.1910 C   0  0  0  0  0  2  0  0  0  0  0  0
  190.2670  170.5430  141.3280 C   0  0  0  0  0  1  0  0  0  0  0  0
  191.4380  173.8830  140.3740 O   0  0  0  0  0  0  0  0  0  0  0  0
  195.1080  174.7090  143.9800 C   0  0  0  0  0  2  0  0  0  0  0  0
  194.6310  176.1590  144.0220 C   0  0  2  0  0  3  0  0  0  0  0  0
  190.9870  172.5890  140.0750 C   0  0  1  0  0  3  0  0  0  0  0  0
  196.5590  174.5540  144.4260 C   0  0  2  0  0  3  0  0  0  0  0  0
  192.2050  175.6420  143.4880 C   0  0  0  0  0  2  0  0  0  0  0  0
  196.3680  172.6450  145.7910 C   0  0  0  0  0  2  0  0  0  0  0  0
  197.1830  170.5180  146.4650 O   0  0  0  0  0  0  0  0  0  0  0  0
  195.4140  170.4340  144.9610 N   0  0  0  0  0  2  0  0  0  0  0  0
  190.2340  172.0680  141.2720 C   0  0  2  0  0  3  0  0  0  0  0  0
  190.0710  171.2150  137.7350 O   0  0  0  0  0  0  0  0  0  0  0  0
  189.8990  172.6470  138.6180 P   0  0  0  0  0  0  0  0  0  0  0  0
  190.2750  173.8220  137.7450 O   0  0  0  0  0  1  0  0  0  0  0  0
  188.2910  172.8070  139.1130 O   0  0  0  0  0  1  0  0  0  0  0  0
  197.6670  174.3740  142.2670 N   0  0  0  0  0  1  0  0  0  0  0  0
  197.4900  175.2240  143.4300 C   0  0  0  0  0  2  0  0  0  0  0  0
  194.2260  176.6010  145.4290 C   0  0  0  0  0  2  0  0  0  0  0  0
  193.4170  175.5350  146.1450 C   0  0  0  0  0  2  0  0  0  0  0  0
  190.9990  175.2200  146.3820 C   0  0  1  0  0  3  0  0  0  0  0  0
  192.1270  176.1340  146.6710 C   0  0  1  0  0  3  0  0  0  0  0  0
  191.5900  175.2910  147.6600 O   0  0  0  0  0  0  0  0  0  0  0  0
  188.2590  177.5400  145.9200 O   0  0  0  0  0  0  0  0  0  0  0  0
  186.3130  176.7920  147.2450 C   0  0  0  0  0  1  0  0  0  0  0  0
  188.5850  175.6690  147.0750 C   0  0  0  0  0  3  0  0  0  0  0  0
  187.7070  176.6790  146.7430 C   0  0  0  0  0  0  0  0  0  0  0  0
  189.4890  177.1650  145.6640 C   0  0  0  0  0  3  0  0  0  0  0  0
  189.7210  175.9930  146.3600 C   0  0  0  0  0  0  0  0  0  0  0  0
  1  4  1  1  0  0  0
  1  7  1  0  0  0  0
  2 19  1  0  0  0  0
  2 20  2  0  0  0  0
  3 21  1  0  0  0  0
  3  5  1  0  0  0  0
  4 18  1  0  0  0  0
  6 18  1  0  0  0  0
  6 15  1  0  0  0  0
  7  9  1  0  0  0  0
  7  8  1  1  0  0  0
  9 11  1  0  0  0  0
 10 19  1  0  0  0  0
 11  5  1  0  0  0  0
 13  1  1  0  0  0  0
 14 15  1  0  0  0  0
 14 17  1  0  0  0  0
 15 29  1  1  0  0  0
 16 24  1  6  0  0  0
 16 13  1  0  0  0  0
 16 22  1  0  0  0  0
 17 28  1  6  0  0  0
 17 10  1  0  0  0  0
 21  2  1  0  0  0  0
 22 12  1  1  0  0  0
 22  7  1  0  0  0  0
 23 24  2  0  0  0  0
 24 26  1  0  0  0  0
 25 24  1  0  0  0  0
 27 28  1  0  0  0  0
 29 30  1  0  0  0  0
 31 39  1  1  0  0  0
 31 32  1  0  0  0  0
 31 33  1  0  0  0  0
 32 30  1  6  0  0  0
 32 33  1  0  0  0  0
 34 37  1  0  0  0  0
 37 36  2  0  0  0  0
 37 35  1  0  0  0  0
 38 34  1  0  0  0  0
 38 39  2  0  0  0  0
 39 36  1  0  0  0  0
M  END
>  <MODEL>
5

>  <REMARK>
 VINA RESULT:      -6.4      2.348      3.686
  Name = 
  6 active torsions:
  status: ('A' for Active; 'I' for Inactive)
    1  A    between atoms: C_1  and  C_21
    2  A    between atoms: C_1  and  C_34
    3  A    between atoms: P_7  and  C_24
    4  A    between atoms: C_21  and  C_23
    5  A    between atoms: C_27  and  C_33
    6  A    between atoms: C_28  and  C_35
                            x       y       z     vdW  Elec       q    Type
                         _______ _______ _______ _____ _____    ______ ____

>  <TORSDO>
F 6

$$$$
=
 OpenBabel11072409233D

 39 42  0  0  1  0  0  0  0  0999 V2000
  188.8720  175.9850  143.9250 C   0  0  1  0  0  3  0  0  0  0  0  0
  194.3230  172.0740  144.7850 C   0  0  0  0  0  0  0  0  0  0  0  0
  192.5950  173.7830  145.5100 C   0  0  0  0  0  2  0  0  0  0  0  0
  188.6980  176.2450  142.4290 C   0  0  0  0  0  2  0  0  0  0  0  0
  192.9790  174.9950  144.6800 C   0  0  0  0  0  2  0  0  0  0  0  0
  189.2420  174.1270  141.2330 C   0  0  0  0  0  2  0  0  0  0  0  0
  189.8660  176.9300  144.6490 C   0  0  2  0  0  0  0  0  0  0  0  0
  190.3330  178.1340  143.8190 C   0  0  0  0  0  1  0  0  0  0  0  0
  190.9640  176.2030  145.1810 O   0  0  0  0  0  0  0  0  0  0  0  0
  192.4440  171.2100  143.5510 N   0  0  0  0  0  2  0  0  0  0  0  0
  191.7350  175.6730  144.1320 C   0  0  0  0  0  2  0  0  0  0  0  0
  189.7180  177.5900  147.1200 C   0  0  0  0  0  1  0  0  0  0  0  0
  187.6150  176.0290  144.5550 O   0  0  0  0  0  0  0  0  0  0  0  0
  191.0230  172.7740  142.3330 C   0  0  0  0  0  2  0  0  0  0  0  0
  190.3720  173.1250  140.9970 C   0  0  2  0  0  3  0  0  0  0  0  0
  187.8340  176.5490  145.8390 C   0  0  1  0  0  3  0  0  0  0  0  0
  191.7030  171.4070  142.3140 C   0  0  2  0  0  3  0  0  0  0  0  0
  189.7570  175.5030  141.6370 C   0  0  0  0  0  2  0  0  0  0  0  0
  193.7060  171.9270  143.4340 C   0  0  0  0  0  2  0  0  0  0  0  0
  195.3360  171.3860  145.0760 O   0  0  0  0  0  0  0  0  0  0  0  0
  193.7680  172.9580  145.7630 N   0  0  0  0  0  2  0  0  0  0  0  0
  189.0130  177.4850  145.7710 C   0  0  2  0  0  3  0  0  0  0  0  0
  186.5420  177.8990  148.0110 O   0  0  0  0  0  1  0  0  0  0  0  0
  186.3480  177.4410  146.3940 P   0  0  0  0  0  0  0  0  0  0  0  0
  185.1370  176.5450  146.2710 O   0  0  0  0  0  1  0  0  0  0  0  0
  186.1240  178.8220  145.4460 O   0  0  0  0  0  0  0  0  0  0  0  0
  190.8510  169.6170  140.9010 N   0  0  0  0  0  1  0  0  0  0  0  0
  190.6650  170.3060  142.1650 C   0  0  0  0  0  2  0  0  0  0  0  0
  191.3780  173.6620  139.9790 C   0  0  0  0  0  2  0  0  0  0  0  0
  191.2340  172.9820  138.6290 C   0  0  0  0  0  2  0  0  0  0  0  0
  192.1250  174.1280  136.6550 C   0  0  1  0  0  3  0  0  0  0  0  0
  190.9560  174.0180  137.5580 C   0  0  1  0  0  3  0  0  0  0  0  0
  190.9730  173.4000  136.2950 O   0  0  0  0  0  0  0  0  0  0  0  0
  191.4860  177.1690  134.7990 O   0  0  0  0  0  0  0  0  0  0  0  0
  193.4400  178.6680  134.9770 C   0  0  0  0  0  1  0  0  0  0  0  0
  193.1640  176.3680  136.0150 C   0  0  0  0  0  3  0  0  0  0  0  0
  192.6910  177.4160  135.2550 C   0  0  0  0  0  0  0  0  0  0  0  0
  191.0990  175.9880  135.2180 C   0  0  0  0  0  3  0  0  0  0  0  0
  192.1200  175.4650  135.9910 C   0  0  0  0  0  0  0  0  0  0  0  0
  1  4  1  6  0  0  0
  1 13  1  0  0  0  0
  1  7  1  0  0  0  0
  2 20  2  0  0  0  0
  2 21  1  0  0  0  0
  3 21  1  0  0  0  0
  5  3  1  0  0  0  0
  6 18  1  0  0  0  0
  7  8  1  6  0  0  0
  7  9  1  0  0  0  0
  7 22  1  0  0  0  0
 11  5  1  0  0  0  0
 11  9  1  0  0  0  0
 13 16  1  0  0  0  0
 15 29  1  6  0  0  0
 15  6  1  0  0  0  0
 15 14  1  0  0  0  0
 16 24  1  6  0  0  0
 17 28  1  1  0  0  0
 17 14  1  0  0  0  0
 17 10  1  0  0  0  0
 18  4  1  0  0  0  0
 19 10  1  0  0  0  0
 19  2  1  0  0  0  0
 22 16  1  0  0  0  0
 22 12  1  1  0  0  0
 24 23  1  0  0  0  0
 25 24  1  0  0  0  0
 26 24  2  0  0  0  0
 27 28  1  0  0  0  0
 30 29  1  0  0  0  0
 31 39  1  6  0  0  0
 31 32  1  0  0  0  0
 32 30  1  1  0  0  0
 33 31  1  0  0  0  0
 33 32  1  0  0  0  0
 34 38  1  0  0  0  0
 34 37  1  0  0  0  0
 35 37  1  0  0  0  0
 37 36  2  0  0  0  0
 38 39  2  0  0  0  0
 39 36  1  0  0  0  0
M  END
>  <MODEL>
6

>  <REMARK>
 VINA RESULT:      -6.4      3.742      8.396
  Name = 
  6 active torsions:
  status: ('A' for Active; 'I' for Inactive)
    1  A    between atoms: C_1  and  C_21
    2  A    between atoms: C_1  and  C_34
    3  A    between atoms: P_7  and  C_24
    4  A    between atoms: C_21  and  C_23
    5  A    between atoms: C_27  and  C_33
    6  A    between atoms: C_28  and  C_35
                            x       y       z     vdW  Elec       q    Type
                         _______ _______ _______ _____ _____    ______ ____

>  <TORSDO>
F 6

$$$$
=
 OpenBabel11072409233D

 39 42  0  0  1  0  0  0  0  0999 V2000
  188.6600  175.8720  143.8710 C   0  0  1  0  0  3  0  0  0  0  0  0
  194.2500  172.1080  144.4540 C   0  0  0  0  0  0  0  0  0  0  0  0
  192.5450  173.8120  145.2440 C   0  0  0  0  0  2  0  0  0  0  0  0
  188.3630  176.0660  142.3840 C   0  0  0  0  0  2  0  0  0  0  0  0
  192.8350  174.9960  144.3390 C   0  0  0  0  0  2  0  0  0  0  0  0
  188.8600  173.9110  141.2350 C   0  0  0  0  0  2  0  0  0  0  0  0
  189.6850  176.8660  144.4760 C   0  0  2  0  0  0  0  0  0  0  0  0
  190.0580  178.0420  143.5630 C   0  0  0  0  0  1  0  0  0  0  0  0
  190.8380  176.1830  144.9480 O   0  0  0  0  0  0  0  0  0  0  0  0
  192.3000  171.1560  143.4080 N   0  0  0  0  0  2  0  0  0  0  0  0
  191.5370  175.6250  143.8630 C   0  0  0  0  0  2  0  0  0  0  0  0
  189.7160  177.6250  146.9220 C   0  0  0  0  0  1  0  0  0  0  0  0
  187.4560  175.9180  144.5960 O   0  0  0  0  0  0  0  0  0  0  0  0
  190.7530  172.6400  142.2450 C   0  0  0  0  0  2  0  0  0  0  0  0
  189.9910  172.9220  140.9510 C   0  0  2  0  0  3  0  0  0  0  0  0
  187.7620  176.4950  145.8370 C   0  0  1  0  0  3  0  0  0  0  0  0
  191.4600  171.2870  142.2260 C   0  0  2  0  0  3  0  0  0  0  0  0
  189.3740  175.3120  141.5420 C   0  0  0  0  0  2  0  0  0  0  0  0
  193.5320  171.8920  143.1630 C   0  0  0  0  0  2  0  0  0  0  0  0
  195.2970  171.4530  144.6920 O   0  0  0  0  0  0  0  0  0  0  0  0
  193.7520  173.0210  145.4370 N   0  0  0  0  0  2  0  0  0  0  0  0
  188.9100  177.4510  145.6380 C   0  0  2  0  0  3  0  0  0  0  0  0
  186.1030  178.8190  145.6050 O   0  0  0  0  0  0  0  0  0  0  0  0
  186.3030  177.3800  146.4710 P   0  0  0  0  0  0  0  0  0  0  0  0
  186.4960  177.7000  147.9360 O   0  0  0  0  0  1  0  0  0  0  0  0
  184.9260  176.4190  146.2820 O   0  0  0  0  0  1  0  0  0  0  0  0
  191.0340  168.9630  141.6400 N   0  0  0  0  0  1  0  0  0  0  0  0
  190.4390  170.1610  142.2050 C   0  0  0  0  0  2  0  0  0  0  0  0
  190.9020  173.4350  139.8360 C   0  0  0  0  0  2  0  0  0  0  0  0
  192.3160  172.8990  139.9690 C   0  0  0  0  0  2  0  0  0  0  0  0
  194.6640  173.5470  140.2310 C   0  0  1  0  0  3  0  0  0  0  0  0
  193.3100  174.0420  139.8970 C   0  0  1  0  0  3  0  0  0  0  0  0
  194.2620  173.7710  138.8990 O   0  0  0  0  0  0  0  0  0  0  0  0
  196.8240  176.4100  140.7200 O   0  0  0  0  0  0  0  0  0  0  0  0
  197.1560  176.7890  143.1380 C   0  0  0  0  0  1  0  0  0  0  0  0
  195.7670  174.9680  142.0400 C   0  0  0  0  0  3  0  0  0  0  0  0
  196.5920  176.0710  141.9650 C   0  0  0  0  0  0  0  0  0  0  0  0
  196.1870  175.5870  139.9210 C   0  0  0  0  0  3  0  0  0  0  0  0
  195.5070  174.6810  140.7150 C   0  0  0  0  0  0  0  0  0  0  0  0
  1  4  1  6  0  0  0
  1  7  1  0  0  0  0
  1 13  1  0  0  0  0
  2 20  2  0  0  0  0
  2 21  1  0  0  0  0
  3 21  1  0  0  0  0
  5  3  1  0  0  0  0
  6 18  1  0  0  0  0
  7  8  1  6  0  0  0
  7  9  1  0  0  0  0
  7 22  1  0  0  0  0
 11  5  1  0  0  0  0
 11  9  1  0  0  0  0
 13 16  1  0  0  0  0
 15 29  1  6  0  0  0
 15  6  1  0  0  0  0
 15 14  1  0  0  0  0
 16 24  1  6  0  0  0
 17 28  1  1  0  0  0
 17 14  1  0  0  0  0
 17 10  1  0  0  0  0
 18  4  1  0  0  0  0
 19 10  1  0  0  0  0
 19  2  1  0  0  0  0
 22 16  1  0  0  0  0
 22 12  1  1  0  0  0
 23 24  2  0  0  0  0
 24 25  1  0  0  0  0
 26 24  1  0  0  0  0
 27 28  1  0  0  0  0
 29 30  1  0  0  0  0
 31 39  1  1  0  0  0
 32 30  1  6  0  0  0
 32 31  1  0  0  0  0
 33 32  1  0  0  0  0
 33 31  1  0  0  0  0
 34 37  1  0  0  0  0
 37 36  2  0  0  0  0
 37 35  1  0  0  0  0
 38 39  2  0  0  0  0
 38 34  1  0  0  0  0
 39 36  1  0  0  0  0
M  END
>  <MODEL>
7

>  <REMARK>
 VINA RESULT:      -6.2      3.333      8.269
  Name = 
  6 active torsions:
  status: ('A' for Active; 'I' for Inactive)
    1  A    between atoms: C_1  and  C_21
    2  A    between atoms: C_1  and  C_34
    3  A    between atoms: P_7  and  C_24
    4  A    between atoms: C_21  and  C_23
    5  A    between atoms: C_27  and  C_33
    6  A    between atoms: C_28  and  C_35
                            x       y       z     vdW  Elec       q    Type
                         _______ _______ _______ _____ _____    ______ ____

>  <TORSDO>
F 6

$$$$
=
 OpenBabel11072409233D

 39 42  0  0  1  0  0  0  0  0999 V2000
  193.9940  172.3510  143.8850 C   0  0  1  0  0  3  0  0  0  0  0  0
  190.6150  172.3730  138.0260 C   0  0  0  0  0  0  0  0  0  0  0  0
  192.3850  171.5480  139.6440 C   0  0  0  0  0  2  0  0  0  0  0  0
  193.8750  173.7390  144.5150 C   0  0  0  0  0  2  0  0  0  0  0  0
  193.3710  172.7020  139.6530 C   0  0  0  0  0  2  0  0  0  0  0  0
  191.5500  174.5440  144.1140 C   0  0  0  0  0  2  0  0  0  0  0  0
  195.1240  172.1980  142.8330 C   0  0  2  0  0  0  0  0  0  0  0  0
  196.1040  173.3770  142.7630 C   0  0  0  0  0  1  0  0  0  0  0  0
  194.5900  171.8840  141.5550 O   0  0  0  0  0  0  0  0  0  0  0  0
  189.4070  172.7420  140.0760 N   0  0  0  0  0  2  0  0  0  0  0  0
  193.8480  172.9750  141.0690 C   0  0  0  0  0  2  0  0  0  0  0  0
  196.3620  170.0130  142.3260 C   0  0  0  0  0  1  0  0  0  0  0  0
  194.1450  171.3890  144.9000 O   0  0  0  0  0  0  0  0  0  0  0  0
  190.5730  173.7760  141.9520 C   0  0  0  0  0  2  0  0  0  0  0  0
  190.5630  174.8880  142.9990 C   0  0  2  0  0  3  0  0  0  0  0  0
  194.9710  170.3850  144.3760 C   0  0  1  0  0  3  0  0  0  0  0  0
  189.2690  173.7010  141.1630 C   0  0  2  0  0  3  0  0  0  0  0  0
  193.0010  174.6340  143.6570 C   0  0  0  0  0  2  0  0  0  0  0  0
  190.1200  173.3990  138.9900 C   0  0  0  0  0  2  0  0  0  0  0  0
  190.0570  172.2640  136.9030 O   0  0  0  0  0  0  0  0  0  0  0  0
  191.6900  171.4930  138.3650 N   0  0  0  0  0  2  0  0  0  0  0  0
  195.9050  171.0200  143.3770 C   0  0  2  0  0  3  0  0  0  0  0  0
  196.6140  168.1740  145.1640 O   0  0  0  0  0  0  0  0  0  0  0  0
  195.9160  169.6100  145.7240 P   0  0  0  0  0  0  0  0  0  0  0  0
  194.9960  169.3000  146.8820 O   0  0  0  0  0  1  0  0  0  0  0  0
  197.1370  170.6580  146.2400 O   0  0  0  0  0  1  0  0  0  0  0  0
  188.5130  172.1000  142.8330 N   0  0  0  0  0  1  0  0  0  0  0  0
  188.1280  173.2740  142.0720 C   0  0  0  0  0  2  0  0  0  0  0  0
  190.8710  176.2600  142.3980 C   0  0  0  0  0  2  0  0  0  0  0  0
  190.1660  177.3770  143.1470 C   0  0  0  0  0  2  0  0  0  0  0  0
  187.8840  178.1560  142.7160 C   0  0  1  0  0  3  0  0  0  0  0  0
  188.6910  177.0530  143.2850 C   0  0  1  0  0  3  0  0  0  0  0  0
  188.1120  176.9580  142.0080 O   0  0  0  0  0  0  0  0  0  0  0  0
  184.3730  177.9000  143.5610 O   0  0  0  0  0  0  0  0  0  0  0  0
  184.0230  178.6960  145.8730 C   0  0  0  0  0  1  0  0  0  0  0  0
  186.2160  178.5810  144.5990 C   0  0  0  0  0  3  0  0  0  0  0  0
  184.8530  178.3890  144.6800 C   0  0  0  0  0  0  0  0  0  0  0  0
  185.3530  177.7390  142.7040 C   0  0  0  0  0  3  0  0  0  0  0  0
  186.5200  178.1440  143.3250 C   0  0  0  0  0  0  0  0  0  0  0  0
  1  4  1  1  0  0  0
  1 13  1  0  0  0  0
  2 21  1  0  0  0  0
  2 19  1  0  0  0  0
  3  5  1  0  0  0  0
  5 11  1  0  0  0  0
  7  8  1  6  0  0  0
  7 22  1  0  0  0  0
  7  1  1  0  0  0  0
  9  7  1  0  0  0  0
 10 17  1  0  0  0  0
 11  9  1  0  0  0  0
 14 15  1  0  0  0  0
 15 29  1  6  0  0  0
 15  6  1  0  0  0  0
 16 13  1  0  0  0  0
 16 24  1  1  0  0  0
 17 14  1  0  0  0  0
 17 28  1  1  0  0  0
 18  6  1  0  0  0  0
 18  4  1  0  0  0  0
 19 10  1  0  0  0  0
 20  2  2  0  0  0  0
 21  3  1  0  0  0  0
 22 12  1  6  0  0  0
 22 16  1  0  0  0  0
 23 24  2  0  0  0  0
 24 26  1  0  0  0  0
 24 25  1  0  0  0  0
 28 27  1  0  0  0  0
 29 30  1  0  0  0  0
 31 32  1  0  0  0  0
 31 39  1  1  0  0  0
 32 30  1  6  0  0  0
 33 31  1  0  0  0  0
 33 32  1  0  0  0  0
 34 37  1  0  0  0  0
 36 37  2  0  0  0  0
 37 35  1  0  0  0  0
 38 39  2  0  0  0  0
 38 34  1  0  0  0  0
 39 36  1  0  0  0  0
M  END
>  <MODEL>
8

>  <REMARK>
 VINA RESULT:      -6.1      3.403      6.075
  Name = 
  6 active torsions:
  status: ('A' for Active; 'I' for Inactive)
    1  A    between atoms: C_1  and  C_21
    2  A    between atoms: C_1  and  C_34
    3  A    between atoms: P_7  and  C_24
    4  A    between atoms: C_21  and  C_23
    5  A    between atoms: C_27  and  C_33
    6  A    between atoms: C_28  and  C_35
                            x       y       z     vdW  Elec       q    Type
                         _______ _______ _______ _____ _____    ______ ____

>  <TORSDO>
F 6

$$$$
=
 OpenBabel11072409233D

 39 42  0  0  1  0  0  0  0  0999 V2000
  190.4870  175.8950  143.4770 C   0  0  1  0  0  3  0  0  0  0  0  0
  195.3610  171.8380  141.1250 C   0  0  0  0  0  0  0  0  0  0  0  0
  192.9830  172.7040  141.2830 C   0  0  0  0  0  2  0  0  0  0  0  0
  190.9040  176.3980  144.8590 C   0  0  0  0  0  2  0  0  0  0  0  0
  192.5610  172.2270  142.6620 C   0  0  0  0  0  2  0  0  0  0  0  0
  193.3500  176.8660  144.7770 C   0  0  0  0  0  2  0  0  0  0  0  0
  189.8010  174.5040  143.4580 C   0  0  2  0  0  0  0  0  0  0  0  0
  189.4200  173.9540  144.8400 C   0  0  0  0  0  1  0  0  0  0  0  0
  190.5680  173.5680  142.7150 O   0  0  0  0  0  0  0  0  0  0  0  0
  195.8650  174.1560  141.5390 N   0  0  0  0  0  2  0  0  0  0  0  0
  191.7820  173.3160  143.3800 C   0  0  0  0  0  2  0  0  0  0  0  0
  188.0750  173.7480  141.7220 C   0  0  0  0  0  1  0  0  0  0  0  0
  189.6570  176.8510  142.8630 O   0  0  0  0  0  0  0  0  0  0  0  0
  194.6240  175.3320  143.2790 C   0  0  0  0  0  2  0  0  0  0  0  0
  194.7030  176.1980  144.5350 C   0  0  2  0  0  3  0  0  0  0  0  0
  188.7390  176.1370  142.0810 C   0  0  1  0  0  3  0  0  0  0  0  0
  195.9850  175.1230  142.6220 C   0  0  2  0  0  3  0  0  0  0  0  0
  192.2800  175.8740  145.2170 C   0  0  0  0  0  2  0  0  0  0  0  0
  195.8560  172.8250  142.1290 C   0  0  0  0  0  2  0  0  0  0  0  0
  196.1750  171.0360  140.5990 O   0  0  0  0  0  0  0  0  0  0  0  0
  193.9870  171.8070  140.7290 N   0  0  0  0  0  2  0  0  0  0  0  0
  188.5010  174.8020  142.7400 C   0  0  2  0  0  3  0  0  0  0  0  0
  187.4390  178.6540  142.5070 O   0  0  0  0  0  1  0  0  0  0  0  0
  187.1820  177.0730  141.9650 P   0  0  0  0  0  0  0  0  0  0  0  0
  186.1250  176.4160  142.8230 O   0  0  0  0  0  1  0  0  0  0  0  0
  186.6590  177.1120  140.3590 O   0  0  0  0  0  0  0  0  0  0  0  0
  195.7430  176.8250  140.8990 N   0  0  0  0  0  1  0  0  0  0  0  0
  196.5100  176.4380  142.0690 C   0  0  0  0  0  2  0  0  0  0  0  0
  195.1530  175.4070  145.7630 C   0  0  0  0  0  2  0  0  0  0  0  0
  196.2540  174.4170  145.4270 C   0  0  0  0  0  2  0  0  0  0  0  0
  196.6150  171.9960  145.3350 C   0  0  1  0  0  3  0  0  0  0  0  0
  195.9770  173.0890  146.1030 C   0  0  1  0  0  3  0  0  0  0  0  0
  197.1920  172.5110  146.5130 O   0  0  0  0  0  0  0  0  0  0  0  0
  195.4670  168.7510  146.4560 O   0  0  0  0  0  0  0  0  0  0  0  0
  193.3750  168.1660  145.2800 C   0  0  0  0  0  1  0  0  0  0  0  0
  194.7540  170.2810  145.0100 C   0  0  0  0  0  3  0  0  0  0  0  0
  194.5280  169.0500  145.5900 C   0  0  0  0  0  0  0  0  0  0  0  0
  196.3380  169.7300  146.5050 C   0  0  0  0  0  3  0  0  0  0  0  0
  195.9160  170.7080  145.6230 C   0  0  0  0  0  0  0  0  0  0  0  0
  1  4  1  1  0  0  0
  2 19  1  0  0  0  0
  3  5  1  0  0  0  0
  4 18  1  0  0  0  0
  5 11  1  0  0  0  0
  6 18  1  0  0  0  0
  7  1  1  0  0  0  0
  7  8  1  1  0  0  0
  9 11  1  0  0  0  0
  9  7  1  0  0  0  0
 10 19  1  0  0  0  0
 10 17  1  0  0  0  0
 13  1  1  0  0  0  0
 14 15  1  0  0  0  0
 15  6  1  0  0  0  0
 15 29  1  1  0  0  0
 16 24  1  1  0  0  0
 16 22  1  0  0  0  0
 16 13  1  0  0  0  0
 17 28  1  6  0  0  0
 17 14  1  0  0  0  0
 20  2  2  0  0  0  0
 21  2  1  0  0  0  0
 21  3  1  0  0  0  0
 22 12  1  6  0  0  0
 22  7  1  0  0  0  0
 24 23  1  0  0  0  0
 24 25  1  0  0  0  0
 26 24  2  0  0  0  0
 27 28  1  0  0  0  0
 30 29  1  0  0  0  0
 31 39  1  1  0  0  0
 31 32  1  0  0  0  0
 31 33  1  0  0  0  0
 32 30  1  6  0  0  0
 32 33  1  0  0  0  0
 34 38  1  0  0  0  0
 35 37  1  0  0  0  0
 36 37  2  0  0  0  0
 36 39  1  0  0  0  0
 37 34  1  0  0  0  0
 39 38  2  0  0  0  0
M  END
>  <MODEL>
9

>  <REMARK>
 VINA RESULT:      -6.1      3.557      7.498
  Name = 
  6 active torsions:
  status: ('A' for Active; 'I' for Inactive)
    1  A    between atoms: C_1  and  C_21
    2  A    between atoms: C_1  and  C_34
    3  A    between atoms: P_7  and  C_24
    4  A    between atoms: C_21  and  C_23
    5  A    between atoms: C_27  and  C_33
    6  A    between atoms: C_28  and  C_35
                            x       y       z     vdW  Elec       q    Type
                         _______ _______ _______ _____ _____    ______ ____

>  <TORSDO>
F 6

$$$$
