=
 OpenBabel11072408593D

 45 49  0  0  1  0  0  0  0  0999 V2000
  188.9550  172.9100  140.8980 N   0  0  0  0  0  0  0  0  0  0  0  0
  189.0960  173.9830  141.6760 C   0  0  0  0  0  3  0  0  0  0  0  0
  191.2770  173.1490  142.4050 C   0  0  0  0  0  0  0  0  0  0  0  0
  191.0690  172.0480  141.5310 C   0  0  0  0  0  3  0  0  0  0  0  0
  189.9260  171.9640  140.7550 C   0  0  0  0  0  3  0  0  0  0  0  0
  190.3780  174.2640  142.2960 C   0  0  0  0  0  0  0  0  0  0  0  0
  193.6220  173.4620  142.5020 O   0  0  0  0  0  0  0  0  0  0  0  0
  192.6360  172.9730  143.0640 C   0  0  0  0  0  0  0  0  0  0  0  0
  192.8000  172.1140  144.3380 C   0  0  0  0  0  2  0  0  0  0  0  0
  193.8370  172.3990  145.2930 O   0  0  0  0  0  0  0  0  0  0  0  0
  194.0760  170.0510  145.0180 C   0  0  0  0  0  3  0  0  0  0  0  0
  195.9580  171.2840  145.5920 C   0  0  2  0  0  3  0  0  0  0  0  0
  194.4490  171.2510  145.7890 C   0  0  1  0  0  3  0  0  0  0  0  0
  196.6130  170.1670  146.3980 C   0  0  0  0  0  2  0  0  0  0  0  0
  195.8440  168.8480  146.2950 C   0  0  0  0  0  2  0  0  0  0  0  0
  194.7750  168.9020  145.2330 C   0  0  0  0  0  3  0  0  0  0  0  0
  196.6800  172.5840  145.5860 C   0  0  0  0  0  0  0  0  0  0  0  0
  196.9240  173.1650  144.3310 N   0  0  0  0  0  2  0  0  0  0  0  0
  197.0400  173.1330  146.6460 O   0  0  0  0  0  0  0  0  0  0  0  0
  197.9380  174.7920  142.7760 C   0  0  0  0  0  2  0  0  0  0  0  0
  195.9190  175.3760  144.4070 C   0  0  0  0  0  2  0  0  0  0  0  0
  197.2190  174.5740  144.1270 C   0  0  1  0  0  3  0  0  0  0  0  0
  196.7300  176.7810  142.5220 C   0  0  0  0  0  2  0  0  0  0  0  0
  195.5150  176.3620  143.3260 C   0  0  0  0  0  2  0  0  0  0  0  0
  197.1880  175.5970  141.8310 N   0  0  0  0  0  2  0  0  0  0  0  0
  190.6940  175.6280  142.2380 O   0  0  0  0  0  0  0  0  0  0  0  0
  190.7780  176.4930  143.4390 C   0  0  1  0  0  3  0  0  0  0  0  0
  190.8990  175.1910  145.9030 C   0  0  1  0  0  3  0  0  0  0  0  0
  188.4730  176.4940  146.0440 C   0  0  1  0  0  3  0  0  0  0  0  0
  189.1670  174.7820  147.5010 O   0  0  0  0  0  0  0  0  0  0  0  0
  191.8790  174.9130  146.9580 O   0  0  0  0  0  1  0  0  0  0  0  0
  189.0610  177.4940  145.1010 C   0  0  0  0  0  2  0  0  0  0  0  0
  189.2390  176.8780  143.7660 C   0  0  1  0  0  3  0  0  0  0  0  0
  189.4510  175.4830  146.5510 C   0  0  0  0  0  0  0  0  0  0  0  0
  191.4860  175.9980  144.7850 C   0  0  0  0  0  2  0  0  0  0  0  0
  186.6430  178.2400  147.4550 C   0  0  0  0  0  2  0  0  0  0  0  0
  186.3750  176.8190  147.1410 C   0  0  0  0  0  2  0  0  0  0  0  0
  187.7940  177.3280  147.2250 C   0  0  0  0  0  3  0  0  0  0  0  0
  188.7040  177.7590  142.7050 O   0  0  0  0  0  0  0  0  0  0  0  0
  187.3380  176.9860  140.8780 C   0  0  0  0  0  2  0  0  0  0  0  0
  187.4700  177.6410  142.0600 C   0  0  0  0  0  0  0  0  0  0  0  0
  186.5770  178.8250  142.1890 C   0  0  0  0  0  2  0  0  0  0  0  0
  186.0020  178.5840  143.6250 C   0  0  0  0  0  3  0  0  0  0  0  0
  185.3420  177.2390  143.7800 C   0  0  0  0  0  1  0  0  0  0  0  0
  185.1930  179.6530  144.3480 C   0  0  0  0  0  1  0  0  0  0  0  0
  1  2  1  0  0  0  0
  2  6  2  0  0  0  0
  3  8  1  0  0  0  0
  4  3  2  0  0  0  0
  5  1  2  0  0  0  0
  5  4  1  0  0  0  0
  6  3  1  0  0  0  0
  7  8  2  0  0  0  0
  8  9  1  0  0  0  0
  9 10  1  0  0  0  0
 11 16  2  0  0  0  0
 11 13  1  0  0  0  0
 12 17  1  1  0  0  0
 12 13  1  0  0  0  0
 12 14  1  0  0  0  0
 13 10  1  6  0  0  0
 15 14  1  0  0  0  0
 16 15  1  0  0  0  0
 17 19  2  0  0  0  0
 18 17  1  0  0  0  0
 20 22  1  0  0  0  0
 22 18  1  6  0  0  0
 22 21  1  0  0  0  0
 23 24  1  0  0  0  0
 24 21  1  0  0  0  0
 25 23  1  0  0  0  0
 25 20  1  0  0  0  0
 26  6  1  0  0  0  0
 27 26  1  6  0  0  0
 27 33  1  0  0  0  0
 27 35  1  0  0  0  0
 28 34  1  0  0  0  0
 28 31  1  1  0  0  0
 29 34  1  0  0  0  0
 29 38  1  1  0  0  0
 32 29  1  0  0  0  0
 33 39  1  6  0  0  0
 33 32  1  0  0  0  0
 34 30  2  0  0  0  0
 35 28  1  0  0  0  0
 37 38  1  0  0  0  0
 37 36  1  0  0  0  0
 38 36  1  0  0  0  0
 40 41  2  0  0  0  0
 41 42  1  0  0  0  0
 41 39  1  0  0  0  0
 42 43  1  0  0  0  0
 43 44  1  0  0  0  0
 43 45  1  0  0  0  0
M  END
>  <MODEL>
1

>  <REMARK>
 VINA RESULT:      -7.5      0.000      0.000
  Name = 
  13 active torsions:
  status: ('A' for Active; 'I' for Inactive)
    1  A    between atoms: C_1  and  O_14
    2  A    between atoms: C_1  and  C_39
    3  A    between atoms: C_2  and  O_25
    4  A    between atoms: C_6  and  C_26
    5  A    between atoms: C_7  and  N_27
    6  A    between atoms: C_10  and  C_22
    7  A    between atoms: C_13  and  C_31
    8  A    between atoms: O_14  and  C_36
    9  A    between atoms: C_23  and  C_39
   10  A    between atoms: C_24  and  O_37
   11  A    between atoms: O_25  and  C_40
   12  A    between atoms: C_31  and  C_41
   13  A    between atoms: O_37  and  C_41
                            x       y       z     vdW  Elec       q    Type
                         _______ _______ _______ _____ _____    ______ ____

>  <TORSDO>
F 13

$$$$
=
 OpenBabel11072408593D

 45 49  0  0  1  0  0  0  0  0999 V2000
  194.2250  175.6620  143.8160 N   0  0  0  0  0  0  0  0  0  0  0  0
  193.2590  176.1320  143.0270 C   0  0  0  0  0  3  0  0  0  0  0  0
  191.9140  174.1480  143.5180 C   0  0  0  0  0  0  0  0  0  0  0  0
  192.9750  173.7260  144.3640 C   0  0  0  0  0  3  0  0  0  0  0  0
  194.1020  174.5110  144.5350 C   0  0  0  0  0  3  0  0  0  0  0  0
  191.9530  175.4960  143.0240 C   0  0  0  0  0  0  0  0  0  0  0  0
  190.3740  172.7960  144.7030 O   0  0  0  0  0  0  0  0  0  0  0  0
  190.8140  173.1020  143.5900 C   0  0  0  0  0  0  0  0  0  0  0  0
  190.3340  172.3600  142.3220 C   0  0  0  0  0  2  0  0  0  0  0  0
  191.0560  172.4710  141.0830 O   0  0  0  0  0  0  0  0  0  0  0  0
  189.2500  173.6880  140.1350 C   0  0  0  0  0  3  0  0  0  0  0  0
  190.9850  173.0360  138.7360 C   0  0  2  0  0  3  0  0  0  0  0  0
  190.2220  172.5900  139.9750 C   0  0  1  0  0  3  0  0  0  0  0  0
  190.1090  172.8730  137.4980 C   0  0  0  0  0  2  0  0  0  0  0  0
  188.6720  173.3430  137.7370 C   0  0  0  0  0  2  0  0  0  0  0  0
  188.5310  174.0780  139.0460 C   0  0  0  0  0  3  0  0  0  0  0  0
  192.4140  172.6630  138.5690 C   0  0  0  0  0  0  0  0  0  0  0  0
  193.3600  173.6830  138.7620 N   0  0  0  0  0  2  0  0  0  0  0  0
  192.7540  171.4980  138.2810 O   0  0  0  0  0  0  0  0  0  0  0  0
  195.6560  174.4700  138.3120 C   0  0  0  0  0  2  0  0  0  0  0  0
  194.9130  173.3300  140.5970 C   0  0  0  0  0  2  0  0  0  0  0  0
  194.7650  173.4500  139.0570 C   0  0  1  0  0  3  0  0  0  0  0  0
  197.0510  174.5320  140.1910 C   0  0  0  0  0  2  0  0  0  0  0  0
  195.9890  174.2010  141.2200 C   0  0  0  0  0  2  0  0  0  0  0  0
  196.4060  175.3490  139.1880 N   0  0  0  0  0  2  0  0  0  0  0  0
  190.9180  176.4400  143.0000 O   0  0  0  0  0  0  0  0  0  0  0  0
  190.4760  177.1890  144.2000 C   0  0  1  0  0  3  0  0  0  0  0  0
  190.3960  175.7630  146.5960 C   0  0  1  0  0  3  0  0  0  0  0  0
  187.7340  176.3400  146.1650 C   0  0  1  0  0  3  0  0  0  0  0  0
  188.5340  174.7630  147.7160 O   0  0  0  0  0  0  0  0  0  0  0  0
  191.1460  175.6710  147.8520 O   0  0  0  0  0  1  0  0  0  0  0  0
  188.2120  177.5390  145.4110 C   0  0  0  0  0  2  0  0  0  0  0  0
  188.8580  177.1120  144.1490 C   0  0  1  0  0  3  0  0  0  0  0  0
  188.8170  175.5930  146.8770 C   0  0  0  0  0  0  0  0  0  0  0  0
  190.9680  176.7920  145.6690 C   0  0  0  0  0  2  0  0  0  0  0  0
  185.4530  177.8050  147.1840 C   0  0  0  0  0  2  0  0  0  0  0  0
  185.3650  176.6070  146.3190 C   0  0  0  0  0  2  0  0  0  0  0  0
  186.5950  176.8540  147.1590 C   0  0  0  0  0  3  0  0  0  0  0  0
  188.3520  177.9020  143.0050 O   0  0  0  0  0  0  0  0  0  0  0  0
  187.3030  176.7350  141.1780 C   0  0  0  0  0  2  0  0  0  0  0  0
  187.2390  177.6120  142.2140 C   0  0  0  0  0  0  0  0  0  0  0  0
  186.3270  178.7610  141.9660 C   0  0  0  0  0  2  0  0  0  0  0  0
  185.4880  178.7400  143.2870 C   0  0  0  0  0  3  0  0  0  0  0  0
  184.0960  178.1950  143.0970 C   0  0  0  0  0  1  0  0  0  0  0  0
  185.4600  179.9350  144.2320 C   0  0  0  0  0  1  0  0  0  0  0  0
  1  5  1  0  0  0  0
  2  1  2  0  0  0  0
  3  8  1  0  0  0  0
  3  4  1  0  0  0  0
  4  5  2  0  0  0  0
  6  2  1  0  0  0  0
  6  3  2  0  0  0  0
  8  7  2  0  0  0  0
  9  8  1  0  0  0  0
 10  9  1  0  0  0  0
 12 17  1  6  0  0  0
 12 13  1  0  0  0  0
 13 11  1  0  0  0  0
 13 10  1  1  0  0  0
 14 15  1  0  0  0  0
 14 12  1  0  0  0  0
 15 16  1  0  0  0  0
 16 11  2  0  0  0  0
 17 18  1  0  0  0  0
 19 17  2  0  0  0  0
 20 22  1  0  0  0  0
 20 25  1  0  0  0  0
 21 24  1  0  0  0  0
 22 18  1  1  0  0  0
 22 21  1  0  0  0  0
 23 24  1  0  0  0  0
 25 23  1  0  0  0  0
 26  6  1  0  0  0  0
 27 26  1  6  0  0  0
 27 35  1  0  0  0  0
 28 34  1  0  0  0  0
 28 31  1  1  0  0  0
 29 34  1  0  0  0  0
 29 38  1  1  0  0  0
 32 29  1  0  0  0  0
 33 39  1  6  0  0  0
 33 27  1  0  0  0  0
 33 32  1  0  0  0  0
 34 30  2  0  0  0  0
 35 28  1  0  0  0  0
 37 38  1  0  0  0  0
 37 36  1  0  0  0  0
 38 36  1  0  0  0  0
 40 41  2  0  0  0  0
 41 39  1  0  0  0  0
 42 41  1  0  0  0  0
 42 43  1  0  0  0  0
 43 45  1  0  0  0  0
 44 43  1  0  0  0  0
M  END
>  <MODEL>
2

>  <REMARK>
 VINA RESULT:      -7.2      2.667      4.890
  Name = 
  13 active torsions:
  status: ('A' for Active; 'I' for Inactive)
    1  A    between atoms: C_1  and  O_14
    2  A    between atoms: C_1  and  C_39
    3  A    between atoms: C_2  and  O_25
    4  A    between atoms: C_6  and  C_26
    5  A    between atoms: C_7  and  N_27
    6  A    between atoms: C_10  and  C_22
    7  A    between atoms: C_13  and  C_31
    8  A    between atoms: O_14  and  C_36
    9  A    between atoms: C_23  and  C_39
   10  A    between atoms: C_24  and  O_37
   11  A    between atoms: O_25  and  C_40
   12  A    between atoms: C_31  and  C_41
   13  A    between atoms: O_37  and  C_41
                            x       y       z     vdW  Elec       q    Type
                         _______ _______ _______ _____ _____    ______ ____

>  <TORSDO>
F 13

$$$$
=
 OpenBabel11072408593D

 45 49  0  0  1  0  0  0  0  0999 V2000
  190.1930  171.6160  140.4010 N   0  0  0  0  0  0  0  0  0  0  0  0
  190.0260  172.5670  141.3200 C   0  0  0  0  0  3  0  0  0  0  0  0
  192.1210  173.6060  140.6050 C   0  0  0  0  0  0  0  0  0  0  0  0
  192.2170  172.5760  139.6310 C   0  0  0  0  0  3  0  0  0  0  0  0
  191.2270  171.6160  139.5130 C   0  0  0  0  0  3  0  0  0  0  0  0
  190.8770  173.7430  141.3090 C   0  0  0  0  0  0  0  0  0  0  0  0
  193.9170  174.5110  139.3550 O   0  0  0  0  0  0  0  0  0  0  0  0
  193.3240  174.5210  140.4390 C   0  0  0  0  0  0  0  0  0  0  0  0
  193.8620  175.3560  141.6230 C   0  0  0  0  0  2  0  0  0  0  0  0
  194.8860  174.8360  142.4890 O   0  0  0  0  0  0  0  0  0  0  0  0
  193.7790  176.3850  143.9100 C   0  0  0  0  0  3  0  0  0  0  0  0
  194.6580  174.4590  144.8630 C   0  0  2  0  0  3  0  0  0  0  0  0
  194.9080  175.4520  143.7370 C   0  0  1  0  0  3  0  0  0  0  0  0
  194.9780  175.1050  146.2080 C   0  0  0  0  0  2  0  0  0  0  0  0
  194.4490  176.5380  146.3040 C   0  0  0  0  0  2  0  0  0  0  0  0
  193.5320  176.8780  145.1560 C   0  0  0  0  0  3  0  0  0  0  0  0
  195.0810  173.0410  144.7120 C   0  0  0  0  0  0  0  0  0  0  0  0
  194.0650  172.1030  144.4660 N   0  0  0  0  0  2  0  0  0  0  0  0
  196.2790  172.7070  144.7910 O   0  0  0  0  0  0  0  0  0  0  0  0
  194.2020  169.6900  144.9690 C   0  0  0  0  0  2  0  0  0  0  0  0
  193.3830  170.6610  142.6320 C   0  0  0  0  0  2  0  0  0  0  0  0
  194.2910  170.7890  143.8850 C   0  0  1  0  0  3  0  0  0  0  0  0
  193.1620  168.3060  143.3950 C   0  0  0  0  0  2  0  0  0  0  0  0
  192.5300  169.4070  142.5690 C   0  0  0  0  0  2  0  0  0  0  0  0
  193.1160  168.7500  144.7690 N   0  0  0  0  0  2  0  0  0  0  0  0
  190.1470  174.9130  141.5580 O   0  0  0  0  0  0  0  0  0  0  0  0
  188.6770  174.9260  141.7500 C   0  0  1  0  0  3  0  0  0  0  0  0
  187.3430  177.2520  140.9820 C   0  0  1  0  0  3  0  0  0  0  0  0
  186.9570  177.2250  143.7120 C   0  0  1  0  0  3  0  0  0  0  0  0
  186.5670  179.0790  142.3180 O   0  0  0  0  0  0  0  0  0  0  0  0
  186.4530  177.7120  139.9120 O   0  0  0  0  0  1  0  0  0  0  0  0
  187.0810  175.7380  143.6220 C   0  0  0  0  0  2  0  0  0  0  0  0
  188.4770  175.3710  143.2950 C   0  0  1  0  0  3  0  0  0  0  0  0
  186.9140  177.9170  142.3880 C   0  0  0  0  0  0  0  0  0  0  0  0
  187.7150  175.8090  140.8270 C   0  0  0  0  0  2  0  0  0  0  0  0
  185.1530  177.3130  145.9770 C   0  0  0  0  0  2  0  0  0  0  0  0
  186.2770  178.2510  145.7610 C   0  0  0  0  0  2  0  0  0  0  0  0
  185.6580  177.5190  144.5940 C   0  0  0  0  0  3  0  0  0  0  0  0
  188.9650  174.3030  144.1940 O   0  0  0  0  0  0  0  0  0  0  0  0
  191.1110  173.6200  145.0490 C   0  0  0  0  0  2  0  0  0  0  0  0
  190.0010  174.4000  145.1260 C   0  0  0  0  0  0  0  0  0  0  0  0
  189.5680  174.6840  146.5210 C   0  0  0  0  0  2  0  0  0  0  0  0
  190.4090  175.9700  146.8170 C   0  0  0  0  0  3  0  0  0  0  0  0
  191.2470  175.8560  148.0640 C   0  0  0  0  0  1  0  0  0  0  0  0
  189.7960  177.3620  146.7210 C   0  0  0  0  0  1  0  0  0  0  0  0
  1  2  1  0  0  0  0
  3  6  1  0  0  0  0
  4  3  2  0  0  0  0
  5  4  1  0  0  0  0
  5  1  2  0  0  0  0
  6  2  2  0  0  0  0
  6 26  1  0  0  0  0
  7  8  2  0  0  0  0
  8  3  1  0  0  0  0
  8  9  1  0  0  0  0
  9 10  1  0  0  0  0
 11 16  2  0  0  0  0
 12 17  1  6  0  0  0
 12 14  1  0  0  0  0
 13 10  1  6  0  0  0
 13 11  1  0  0  0  0
 13 12  1  0  0  0  0
 14 15  1  0  0  0  0
 16 15  1  0  0  0  0
 17 19  2  0  0  0  0
 18 17  1  0  0  0  0
 21 22  1  0  0  0  0
 22 18  1  1  0  0  0
 22 20  1  0  0  0  0
 23 25  1  0  0  0  0
 24 21  1  0  0  0  0
 24 23  1  0  0  0  0
 25 20  1  0  0  0  0
 27 26  1  6  0  0  0
 27 33  1  0  0  0  0
 28 31  1  6  0  0  0
 28 34  1  0  0  0  0
 29 38  1  6  0  0  0
 30 34  2  0  0  0  0
 32 29  1  0  0  0  0
 33 32  1  0  0  0  0
 33 39  1  1  0  0  0
 34 29  1  0  0  0  0
 35 28  1  0  0  0  0
 35 27  1  0  0  0  0
 37 36  1  0  0  0  0
 38 37  1  0  0  0  0
 38 36  1  0  0  0  0
 39 41  1  0  0  0  0
 40 41  2  0  0  0  0
 41 42  1  0  0  0  0
 42 43  1  0  0  0  0
 43 44  1  0  0  0  0
 45 43  1  0  0  0  0
M  END
>  <MODEL>
3

>  <REMARK>
 VINA RESULT:      -7.2      2.173      5.122
  Name = 
  13 active torsions:
  status: ('A' for Active; 'I' for Inactive)
    1  A    between atoms: C_1  and  O_14
    2  A    between atoms: C_1  and  C_39
    3  A    between atoms: C_2  and  O_25
    4  A    between atoms: C_6  and  C_26
    5  A    between atoms: C_7  and  N_27
    6  A    between atoms: C_10  and  C_22
    7  A    between atoms: C_13  and  C_31
    8  A    between atoms: O_14  and  C_36
    9  A    between atoms: C_23  and  C_39
   10  A    between atoms: C_24  and  O_37
   11  A    between atoms: O_25  and  C_40
   12  A    between atoms: C_31  and  C_41
   13  A    between atoms: O_37  and  C_41
                            x       y       z     vdW  Elec       q    Type
                         _______ _______ _______ _____ _____    ______ ____

>  <TORSDO>
F 13

$$$$
=
 OpenBabel11072408593D

 45 49  0  0  1  0  0  0  0  0999 V2000
  188.5840  174.0480  140.5070 N   0  0  0  0  0  0  0  0  0  0  0  0
  188.6530  175.0290  141.4060 C   0  0  0  0  0  3  0  0  0  0  0  0
  190.4290  173.8160  142.5720 C   0  0  0  0  0  0  0  0  0  0  0  0
  190.3180  172.8240  141.5600 C   0  0  0  0  0  3  0  0  0  0  0  0
  189.4230  172.9740  140.5150 C   0  0  0  0  0  3  0  0  0  0  0  0
  189.7480  175.0630  142.3590 C   0  0  0  0  0  0  0  0  0  0  0  0
  191.1930  172.8630  144.6000 O   0  0  0  0  0  0  0  0  0  0  0  0
  191.5260  173.3850  143.5310 C   0  0  0  0  0  0  0  0  0  0  0  0
  193.0120  173.6900  143.2330 C   0  0  0  0  0  2  0  0  0  0  0  0
  193.6790  174.7990  143.8610 O   0  0  0  0  0  0  0  0  0  0  0  0
  194.6010  172.9830  145.0860 C   0  0  0  0  0  3  0  0  0  0  0  0
  196.0610  174.4260  144.0000 C   0  0  2  0  0  3  0  0  0  0  0  0
  194.7120  174.4040  144.7060 C   0  0  1  0  0  3  0  0  0  0  0  0
  197.1850  174.2760  145.0200 C   0  0  0  0  0  2  0  0  0  0  0  0
  196.8760  173.2090  146.0730 C   0  0  0  0  0  2  0  0  0  0  0  0
  195.6600  172.3960  145.7090 C   0  0  0  0  0  3  0  0  0  0  0  0
  196.3100  175.3980  142.9030 C   0  0  0  0  0  0  0  0  0  0  0  0
  196.6570  174.8620  141.6520 N   0  0  0  0  0  2  0  0  0  0  0  0
  196.2070  176.6270  143.0860 O   0  0  0  0  0  0  0  0  0  0  0  0
  197.8330  175.4740  139.5690 C   0  0  0  0  0  2  0  0  0  0  0  0
  195.2000  175.1340  139.7260 C   0  0  0  0  0  2  0  0  0  0  0  0
  196.5290  175.5790  140.3930 C   0  0  1  0  0  3  0  0  0  0  0  0
  196.5270  175.3250  137.6330 C   0  0  0  0  0  2  0  0  0  0  0  0
  195.3120  174.6910  138.2780 C   0  0  0  0  0  2  0  0  0  0  0  0
  197.6800  174.7750  138.3080 N   0  0  0  0  0  2  0  0  0  0  0  0
  190.2450  176.3610  142.5310 O   0  0  0  0  0  0  0  0  0  0  0  0
  190.0820  177.1320  143.7860 C   0  0  1  0  0  3  0  0  0  0  0  0
  190.2070  175.6800  146.1640 C   0  0  1  0  0  3  0  0  0  0  0  0
  187.5960  176.5640  146.1510 C   0  0  1  0  0  3  0  0  0  0  0  0
  188.4370  174.8770  147.5580 O   0  0  0  0  0  0  0  0  0  0  0  0
  191.1260  175.4790  147.2890 O   0  0  0  0  0  1  0  0  0  0  0  0
  188.0880  177.7150  145.3340 C   0  0  0  0  0  2  0  0  0  0  0  0
  188.4780  177.2420  143.9860 C   0  0  1  0  0  3  0  0  0  0  0  0
  188.6810  175.6860  146.6860 C   0  0  0  0  0  0  0  0  0  0  0  0
  190.7450  176.6540  145.1610 C   0  0  0  0  0  2  0  0  0  0  0  0
  185.6190  178.2000  147.4950 C   0  0  0  0  0  2  0  0  0  0  0  0
  185.3130  176.9710  146.7290 C   0  0  0  0  0  2  0  0  0  0  0  0
  186.6900  177.1860  147.3110 C   0  0  0  0  0  3  0  0  0  0  0  0
  187.8970  178.1050  142.9360 O   0  0  0  0  0  0  0  0  0  0  0  0
  185.9560  179.2930  143.7240 C   0  0  0  0  0  2  0  0  0  0  0  0
  186.5600  178.4890  142.8110 C   0  0  0  0  0  0  0  0  0  0  0  0
  185.6590  177.4510  142.2400 C   0  0  0  0  0  2  0  0  0  0  0  0
  185.5270  177.9740  140.7710 C   0  0  0  0  0  3  0  0  0  0  0  0
  184.0970  178.1230  140.3210 C   0  0  0  0  0  1  0  0  0  0  0  0
  186.3760  177.4020  139.6430 C   0  0  0  0  0  1  0  0  0  0  0  0
  1  5  2  0  0  0  0
  1  2  1  0  0  0  0
  2  6  2  0  0  0  0
  3  8  1  0  0  0  0
  4  3  2  0  0  0  0
  5  4  1  0  0  0  0
  6 26  1  0  0  0  0
  6  3  1  0  0  0  0
  8  7  2  0  0  0  0
  9  8  1  0  0  0  0
  9 10  1  0  0  0  0
 11 16  2  0  0  0  0
 12 17  1  1  0  0  0
 12 13  1  0  0  0  0
 12 14  1  0  0  0  0
 13 10  1  6  0  0  0
 13 11  1  0  0  0  0
 14 15  1  0  0  0  0
 16 15  1  0  0  0  0
 17 19  2  0  0  0  0
 18 17  1  0  0  0  0
 20 22  1  0  0  0  0
 21 22  1  0  0  0  0
 22 18  1  1  0  0  0
 23 24  1  0  0  0  0
 23 25  1  0  0  0  0
 24 21  1  0  0  0  0
 25 20  1  0  0  0  0
 27 26  1  6  0  0  0
 27 33  1  0  0  0  0
 27 35  1  0  0  0  0
 28 34  1  0  0  0  0
 28 31  1  1  0  0  0
 29 34  1  0  0  0  0
 29 38  1  1  0  0  0
 32 29  1  0  0  0  0
 33 39  1  6  0  0  0
 33 32  1  0  0  0  0
 34 30  2  0  0  0  0
 35 28  1  0  0  0  0
 37 38  1  0  0  0  0
 37 36  1  0  0  0  0
 38 36  1  0  0  0  0
 41 39  1  0  0  0  0
 41 40  2  0  0  0  0
 42 41  1  0  0  0  0
 43 42  1  0  0  0  0
 44 43  1  0  0  0  0
 45 43  1  0  0  0  0
M  END
>  <MODEL>
4

>  <REMARK>
 VINA RESULT:      -7.2      1.971      2.862
  Name = 
  13 active torsions:
  status: ('A' for Active; 'I' for Inactive)
    1  A    between atoms: C_1  and  O_14
    2  A    between atoms: C_1  and  C_39
    3  A    between atoms: C_2  and  O_25
    4  A    between atoms: C_6  and  C_26
    5  A    between atoms: C_7  and  N_27
    6  A    between atoms: C_10  and  C_22
    7  A    between atoms: C_13  and  C_31
    8  A    between atoms: O_14  and  C_36
    9  A    between atoms: C_23  and  C_39
   10  A    between atoms: C_24  and  O_37
   11  A    between atoms: O_25  and  C_40
   12  A    between atoms: C_31  and  C_41
   13  A    between atoms: O_37  and  C_41
                            x       y       z     vdW  Elec       q    Type
                         _______ _______ _______ _____ _____    ______ ____

>  <TORSDO>
F 13

$$$$
=
 OpenBabel11072408593D

 45 49  0  0  1  0  0  0  0  0999 V2000
  193.9930  174.9160  144.5750 N   0  0  0  0  0  0  0  0  0  0  0  0
  193.3340  175.6530  143.6810 C   0  0  0  0  0  3  0  0  0  0  0  0
  191.5160  174.0160  143.6950 C   0  0  0  0  0  0  0  0  0  0  0  0
  192.2640  173.3000  144.6680 C   0  0  0  0  0  3  0  0  0  0  0  0
  193.4770  173.7830  145.1280 C   0  0  0  0  0  3  0  0  0  0  0  0
  191.9490  175.3460  143.3700 C   0  0  0  0  0  0  0  0  0  0  0  0
  189.5870  172.8560  144.4300 O   0  0  0  0  0  0  0  0  0  0  0  0
  190.2220  173.2580  143.4490 C   0  0  0  0  0  0  0  0  0  0  0  0
  189.7670  172.9000  142.0160 C   0  0  0  0  0  2  0  0  0  0  0  0
  190.6280  172.1660  141.1290 O   0  0  0  0  0  0  0  0  0  0  0  0
  190.8200  169.8510  141.6290 C   0  0  0  0  0  3  0  0  0  0  0  0
  192.7590  171.0300  141.1420 C   0  0  2  0  0  3  0  0  0  0  0  0
  191.3900  171.2020  141.7840 C   0  0  1  0  0  3  0  0  0  0  0  0
  193.6590  170.1950  142.0480 C   0  0  0  0  0  2  0  0  0  0  0  0
  192.9240  168.9930  142.6470 C   0  0  0  0  0  2  0  0  0  0  0  0
  191.5750  168.7830  142.0080 C   0  0  0  0  0  3  0  0  0  0  0  0
  193.4140  172.1820  140.4670 C   0  0  0  0  0  0  0  0  0  0  0  0
  194.2020  173.0210  141.2720 N   0  0  0  0  0  2  0  0  0  0  0  0
  193.2770  172.3840  139.2440 O   0  0  0  0  0  0  0  0  0  0  0  0
  194.6010  175.2030  140.1880 C   0  0  0  0  0  2  0  0  0  0  0  0
  196.3260  174.0500  141.8520 C   0  0  0  0  0  2  0  0  0  0  0  0
  195.2310  173.9120  140.7600 C   0  0  1  0  0  3  0  0  0  0  0  0
  196.4190  176.4000  141.0480 C   0  0  0  0  0  2  0  0  0  0  0  0
  196.7190  175.4720  142.2070 C   0  0  0  0  0  2  0  0  0  0  0  0
  194.9820  176.4100  140.8960 N   0  0  0  0  0  2  0  0  0  0  0  0
  191.1730  176.5080  143.2630 O   0  0  0  0  0  0  0  0  0  0  0  0
  190.6380  177.2360  144.4370 C   0  0  1  0  0  3  0  0  0  0  0  0
  190.4620  175.7960  146.8190 C   0  0  1  0  0  3  0  0  0  0  0  0
  187.8140  176.2930  146.2350 C   0  0  1  0  0  3  0  0  0  0  0  0
  188.5690  174.7340  147.8250 O   0  0  0  0  0  0  0  0  0  0  0  0
  191.1400  175.7220  148.1180 O   0  0  0  0  0  1  0  0  0  0  0  0
  188.2980  177.5100  145.5140 C   0  0  0  0  0  2  0  0  0  0  0  0
  189.0300  177.1100  144.2910 C   0  0  1  0  0  3  0  0  0  0  0  0
  188.8750  175.5770  147.0070 C   0  0  0  0  0  0  0  0  0  0  0  0
  191.0550  176.8470  145.9320 C   0  0  0  0  0  2  0  0  0  0  0  0
  185.4690  177.7290  147.1470 C   0  0  0  0  0  2  0  0  0  0  0  0
  185.4410  176.5790  146.2150 C   0  0  0  0  0  2  0  0  0  0  0  0
  186.6030  176.7670  147.1620 C   0  0  0  0  0  3  0  0  0  0  0  0
  188.5670  177.8900  143.1220 O   0  0  0  0  0  0  0  0  0  0  0  0
  187.5690  176.7010  141.2810 C   0  0  0  0  0  2  0  0  0  0  0  0
  187.4790  177.5980  142.2970 C   0  0  0  0  0  0  0  0  0  0  0  0
  186.5900  178.7530  141.9960 C   0  0  0  0  0  2  0  0  0  0  0  0
  185.6160  178.6800  143.2190 C   0  0  0  0  0  3  0  0  0  0  0  0
  184.2280  178.2310  142.8440 C   0  0  0  0  0  1  0  0  0  0  0  0
  185.5460  179.8000  144.2490 C   0  0  0  0  0  1  0  0  0  0  0  0
  1  5  1  0  0  0  0
  2  1  2  0  0  0  0
  3  4  1  0  0  0  0
  4  5  2  0  0  0  0
  6  2  1  0  0  0  0
  6  3  2  0  0  0  0
  8  3  1  0  0  0  0
  8  7  2  0  0  0  0
  9  8  1  0  0  0  0
 10  9  1  0  0  0  0
 11 13  1  0  0  0  0
 11 16  2  0  0  0  0
 12 17  1  1  0  0  0
 12 13  1  0  0  0  0
 12 14  1  0  0  0  0
 13 10  1  6  0  0  0
 14 15  1  0  0  0  0
 16 15  1  0  0  0  0
 17 18  1  0  0  0  0
 19 17  2  0  0  0  0
 20 22  1  0  0  0  0
 20 25  1  0  0  0  0
 21 24  1  0  0  0  0
 22 18  1  1  0  0  0
 22 21  1  0  0  0  0
 23 24  1  0  0  0  0
 25 23  1  0  0  0  0
 26  6  1  0  0  0  0
 27 26  1  6  0  0  0
 27 35  1  0  0  0  0
 28 34  1  0  0  0  0
 28 31  1  1  0  0  0
 29 34  1  0  0  0  0
 29 38  1  1  0  0  0
 32 29  1  0  0  0  0
 33 39  1  6  0  0  0
 33 27  1  0  0  0  0
 33 32  1  0  0  0  0
 34 30  2  0  0  0  0
 35 28  1  0  0  0  0
 36 38  1  0  0  0  0
 37 36  1  0  0  0  0
 37 38  1  0  0  0  0
 40 41  2  0  0  0  0
 41 39  1  0  0  0  0
 42 41  1  0  0  0  0
 42 43  1  0  0  0  0
 43 45  1  0  0  0  0
 44 43  1  0  0  0  0
M  END
>  <MODEL>
5

>  <REMARK>
 VINA RESULT:      -7.0      2.444      3.463
  Name = 
  13 active torsions:
  status: ('A' for Active; 'I' for Inactive)
    1  A    between atoms: C_1  and  O_14
    2  A    between atoms: C_1  and  C_39
    3  A    between atoms: C_2  and  O_25
    4  A    between atoms: C_6  and  C_26
    5  A    between atoms: C_7  and  N_27
    6  A    between atoms: C_10  and  C_22
    7  A    between atoms: C_13  and  C_31
    8  A    between atoms: O_14  and  C_36
    9  A    between atoms: C_23  and  C_39
   10  A    between atoms: C_24  and  O_37
   11  A    between atoms: O_25  and  C_40
   12  A    between atoms: C_31  and  C_41
   13  A    between atoms: O_37  and  C_41
                            x       y       z     vdW  Elec       q    Type
                         _______ _______ _______ _____ _____    ______ ____

>  <TORSDO>
F 13

$$$$
=
 OpenBabel11072408593D

 45 49  0  0  1  0  0  0  0  0999 V2000
  194.1450  175.6140  143.3090 N   0  0  0  0  0  0  0  0  0  0  0  0
  193.0840  176.0140  142.6090 C   0  0  0  0  0  3  0  0  0  0  0  0
  191.8040  174.1300  143.5040 C   0  0  0  0  0  0  0  0  0  0  0  0
  192.9680  173.7830  144.2420 C   0  0  0  0  0  3  0  0  0  0  0  0
  194.1130  174.5560  144.1670 C   0  0  0  0  0  3  0  0  0  0  0  0
  191.7850  175.4120  142.8570 C   0  0  0  0  0  0  0  0  0  0  0  0
  190.6420  172.7200  145.0100 O   0  0  0  0  0  0  0  0  0  0  0  0
  190.7160  173.1250  143.8450 C   0  0  0  0  0  0  0  0  0  0  0  0
  189.8000  172.5390  142.7480 C   0  0  0  0  0  2  0  0  0  0  0  0
  190.0950  171.2700  142.1380 O   0  0  0  0  0  0  0  0  0  0  0  0
  191.8030  169.6490  142.4520 C   0  0  0  0  0  3  0  0  0  0  0  0
  191.9280  171.0230  140.5850 C   0  0  2  0  0  3  0  0  0  0  0  0
  191.4610  171.0210  142.0340 C   0  0  1  0  0  3  0  0  0  0  0  0
  193.4520  171.0410  140.5290 C   0  0  0  0  0  2  0  0  0  0  0  0
  194.0820  170.0870  141.5470 C   0  0  0  0  0  2  0  0  0  0  0  0
  193.0540  169.1840  142.1820 C   0  0  0  0  0  3  0  0  0  0  0  0
  191.2360  171.8750  139.5820 C   0  0  0  0  0  0  0  0  0  0  0  0
  190.3200  171.2330  138.7330 N   0  0  0  0  0  2  0  0  0  0  0  0
  191.4540  173.1000  139.5060 O   0  0  0  0  0  0  0  0  0  0  0  0
  188.3350  172.6820  138.9730 C   0  0  0  0  0  2  0  0  0  0  0  0
  189.9270  172.7070  136.8420 C   0  0  0  0  0  2  0  0  0  0  0  0
  189.2650  171.9170  138.0020 C   0  0  1  0  0  3  0  0  0  0  0  0
  188.1790  174.3900  137.3800 C   0  0  0  0  0  2  0  0  0  0  0  0
  189.5340  174.1700  136.7390 C   0  0  0  0  0  2  0  0  0  0  0  0
  188.3470  174.1210  138.7900 N   0  0  0  0  0  2  0  0  0  0  0  0
  190.7640  176.3710  142.8640 O   0  0  0  0  0  0  0  0  0  0  0  0
  190.4000  177.1590  144.0660 C   0  0  1  0  0  3  0  0  0  0  0  0
  190.3970  175.7910  146.4960 C   0  0  1  0  0  3  0  0  0  0  0  0
  187.7340  176.4340  146.1780 C   0  0  1  0  0  3  0  0  0  0  0  0
  188.5640  174.8710  147.7280 O   0  0  0  0  0  0  0  0  0  0  0  0
  191.2040  175.7070  147.7180 O   0  0  0  0  0  1  0  0  0  0  0  0
  188.2080  177.6010  145.3740 C   0  0  0  0  0  2  0  0  0  0  0  0
  188.7810  177.1270  144.0930 C   0  0  1  0  0  3  0  0  0  0  0  0
  188.8290  175.6730  146.8570 C   0  0  0  0  0  0  0  0  0  0  0  0
  190.9510  176.7820  145.5190 C   0  0  0  0  0  2  0  0  0  0  0  0
  185.5390  177.9800  147.2660 C   0  0  0  0  0  2  0  0  0  0  0  0
  185.3820  176.7580  146.4450 C   0  0  0  0  0  2  0  0  0  0  0  0
  186.6590  177.0030  147.2130 C   0  0  0  0  0  3  0  0  0  0  0  0
  188.2420  177.9050  142.9560 O   0  0  0  0  0  0  0  0  0  0  0  0
  187.3690  176.6750  141.0780 C   0  0  0  0  0  2  0  0  0  0  0  0
  187.1910  177.5370  142.1120 C   0  0  0  0  0  0  0  0  0  0  0  0
  186.2070  178.6170  141.8260 C   0  0  0  0  0  2  0  0  0  0  0  0
  185.4360  178.6570  143.1880 C   0  0  0  0  0  3  0  0  0  0  0  0
  183.9800  178.2940  143.0540 C   0  0  0  0  0  1  0  0  0  0  0  0
  185.6010  179.8160  144.1630 C   0  0  0  0  0  1  0  0  0  0  0  0
  1  5  1  0  0  0  0
  2  6  1  0  0  0  0
  2  1  2  0  0  0  0
  3  8  1  0  0  0  0
  3  4  1  0  0  0  0
  5  4  2  0  0  0  0
  6 26  1  0  0  0  0
  6  3  2  0  0  0  0
  8  7  2  0  0  0  0
  9  8  1  0  0  0  0
 10  9  1  0  0  0  0
 12 17  1  6  0  0  0
 12 13  1  0  0  0  0
 13 10  1  6  0  0  0
 13 11  1  0  0  0  0
 14 12  1  0  0  0  0
 14 15  1  0  0  0  0
 15 16  1  0  0  0  0
 16 11  2  0  0  0  0
 18 17  1  0  0  0  0
 19 17  2  0  0  0  0
 21 22  1  0  0  0  0
 22 18  1  1  0  0  0
 22 20  1  0  0  0  0
 23 25  1  0  0  0  0
 24 21  1  0  0  0  0
 24 23  1  0  0  0  0
 25 20  1  0  0  0  0
 27 26  1  6  0  0  0
 27 33  1  0  0  0  0
 27 35  1  0  0  0  0
 28 34  1  0  0  0  0
 28 31  1  1  0  0  0
 29 34  1  0  0  0  0
 29 38  1  1  0  0  0
 32 29  1  0  0  0  0
 33 39  1  6  0  0  0
 33 32  1  0  0  0  0
 34 30  2  0  0  0  0
 35 28  1  0  0  0  0
 37 38  1  0  0  0  0
 37 36  1  0  0  0  0
 38 36  1  0  0  0  0
 40 41  2  0  0  0  0
 41 39  1  0  0  0  0
 42 41  1  0  0  0  0
 42 43  1  0  0  0  0
 43 45  1  0  0  0  0
 44 43  1  0  0  0  0
M  END
>  <MODEL>
6

>  <REMARK>
 VINA RESULT:      -6.9      2.581      5.116
  Name = 
  13 active torsions:
  status: ('A' for Active; 'I' for Inactive)
    1  A    between atoms: C_1  and  O_14
    2  A    between atoms: C_1  and  C_39
    3  A    between atoms: C_2  and  O_25
    4  A    between atoms: C_6  and  C_26
    5  A    between atoms: C_7  and  N_27
    6  A    between atoms: C_10  and  C_22
    7  A    between atoms: C_13  and  C_31
    8  A    between atoms: O_14  and  C_36
    9  A    between atoms: C_23  and  C_39
   10  A    between atoms: C_24  and  O_37
   11  A    between atoms: O_25  and  C_40
   12  A    between atoms: C_31  and  C_41
   13  A    between atoms: O_37  and  C_41
                            x       y       z     vdW  Elec       q    Type
                         _______ _______ _______ _____ _____    ______ ____

>  <TORSDO>
F 13

$$$$
=
 OpenBabel11072408593D

 45 49  0  0  1  0  0  0  0  0999 V2000
  193.9390  174.5800  143.8640 N   0  0  0  0  0  0  0  0  0  0  0  0
  193.0670  175.1600  143.0380 C   0  0  0  0  0  3  0  0  0  0  0  0
  191.3510  173.5720  143.7580 C   0  0  0  0  0  0  0  0  0  0  0  0
  192.3270  173.0240  144.6340 C   0  0  0  0  0  3  0  0  0  0  0  0
  193.5990  173.5640  144.7060 C   0  0  0  0  0  3  0  0  0  0  0  0
  191.6570  174.8210  143.1190 C   0  0  0  0  0  0  0  0  0  0  0  0
  189.7670  172.4340  145.1000 O   0  0  0  0  0  0  0  0  0  0  0  0
  190.0580  172.7980  143.9560 C   0  0  0  0  0  0  0  0  0  0  0  0
  189.1860  172.3800  142.7500 C   0  0  0  0  0  2  0  0  0  0  0  0
  189.7870  171.9150  141.5300 O   0  0  0  0  0  0  0  0  0  0  0  0
  188.5720  173.7860  140.7120 C   0  0  0  0  0  3  0  0  0  0  0  0
  190.3310  172.9760  139.4300 C   0  0  2  0  0  3  0  0  0  0  0  0
  189.2480  172.5140  140.3940 C   0  0  1  0  0  3  0  0  0  0  0  0
  189.7080  173.3530  138.0890 C   0  0  0  0  0  2  0  0  0  0  0  0
  188.4170  174.1600  138.2550 C   0  0  0  0  0  2  0  0  0  0  0  0
  188.2070  174.5980  139.6820 C   0  0  0  0  0  3  0  0  0  0  0  0
  191.6240  172.2470  139.3580 C   0  0  0  0  0  0  0  0  0  0  0  0
  191.6570  171.0980  138.5500 N   0  0  0  0  0  2  0  0  0  0  0  0
  192.6310  172.6440  139.9770 O   0  0  0  0  0  0  0  0  0  0  0  0
  192.6570  169.0130  137.6850 C   0  0  0  0  0  2  0  0  0  0  0  0
  193.4110  171.4410  136.9030 C   0  0  0  0  0  2  0  0  0  0  0  0
  192.8760  170.5070  138.0210 C   0  0  1  0  0  3  0  0  0  0  0  0
  194.0300  169.2960  135.8110 C   0  0  0  0  0  2  0  0  0  0  0  0
  193.7320  170.7640  135.5830 C   0  0  0  0  0  2  0  0  0  0  0  0
  192.8000  168.6980  136.2770 N   0  0  0  0  0  2  0  0  0  0  0  0
  190.8450  175.9570  143.0030 O   0  0  0  0  0  0  0  0  0  0  0  0
  190.4880  176.8190  144.1540 C   0  0  1  0  0  3  0  0  0  0  0  0
  190.3510  175.5740  146.6460 C   0  0  1  0  0  3  0  0  0  0  0  0
  187.7330  176.3280  146.2190 C   0  0  1  0  0  3  0  0  0  0  0  0
  188.4420  174.8050  147.8660 O   0  0  0  0  0  0  0  0  0  0  0  0
  191.1190  175.5120  147.8940 O   0  0  0  0  0  1  0  0  0  0  0  0
  188.2860  177.4300  145.3750 C   0  0  0  0  0  2  0  0  0  0  0  0
  188.8690  176.8670  144.1360 C   0  0  1  0  0  3  0  0  0  0  0  0
  188.7700  175.5500  146.9650 C   0  0  0  0  0  0  0  0  0  0  0  0
  190.9800  176.4880  145.6400 C   0  0  0  0  0  2  0  0  0  0  0  0
  185.5790  178.0200  147.1630 C   0  0  0  0  0  2  0  0  0  0  0  0
  185.3910  176.7590  146.4110 C   0  0  0  0  0  2  0  0  0  0  0  0
  186.6590  176.9980  147.1940 C   0  0  0  0  0  3  0  0  0  0  0  0
  188.4010  177.6130  142.9470 O   0  0  0  0  0  0  0  0  0  0  0  0
  187.2160  177.8280  140.8610 C   0  0  0  0  0  2  0  0  0  0  0  0
  187.3720  177.2430  142.0770 C   0  0  0  0  0  0  0  0  0  0  0  0
  186.0870  176.8880  142.7380 C   0  0  0  0  0  2  0  0  0  0  0  0
  185.3180  178.2440  142.5970 C   0  0  0  0  0  3  0  0  0  0  0  0
  185.5720  179.1900  143.7420 C   0  0  0  0  0  1  0  0  0  0  0  0
  183.8500  178.2890  142.1940 C   0  0  0  0  0  1  0  0  0  0  0  0
  1  5  1  0  0  0  0
  2  6  1  0  0  0  0
  2  1  2  0  0  0  0
  3  8  1  0  0  0  0
  3  4  1  0  0  0  0
  4  5  2  0  0  0  0
  6  3  2  0  0  0  0
  8  7  2  0  0  0  0
  9  8  1  0  0  0  0
 10  9  1  0  0  0  0
 12 17  1  6  0  0  0
 12 13  1  0  0  0  0
 13 11  1  0  0  0  0
 13 10  1  1  0  0  0
 14 15  1  0  0  0  0
 14 12  1  0  0  0  0
 15 16  1  0  0  0  0
 16 11  2  0  0  0  0
 17 19  2  0  0  0  0
 18 17  1  0  0  0  0
 20 22  1  0  0  0  0
 21 22  1  0  0  0  0
 22 18  1  6  0  0  0
 23 25  1  0  0  0  0
 24 23  1  0  0  0  0
 24 21  1  0  0  0  0
 25 20  1  0  0  0  0
 26  6  1  0  0  0  0
 27 26  1  6  0  0  0
 27 35  1  0  0  0  0
 28 34  1  0  0  0  0
 28 31  1  1  0  0  0
 29 34  1  0  0  0  0
 29 38  1  1  0  0  0
 32 29  1  0  0  0  0
 33 39  1  6  0  0  0
 33 27  1  0  0  0  0
 33 32  1  0  0  0  0
 34 30  2  0  0  0  0
 35 28  1  0  0  0  0
 36 38  1  0  0  0  0
 37 36  1  0  0  0  0
 37 38  1  0  0  0  0
 40 41  2  0  0  0  0
 41 42  1  0  0  0  0
 41 39  1  0  0  0  0
 43 42  1  0  0  0  0
 43 44  1  0  0  0  0
 45 43  1  0  0  0  0
M  END
>  <MODEL>
7

>  <REMARK>
 VINA RESULT:      -6.9      2.818      5.810
  Name = 
  13 active torsions:
  status: ('A' for Active; 'I' for Inactive)
    1  A    between atoms: C_1  and  O_14
    2  A    between atoms: C_1  and  C_39
    3  A    between atoms: C_2  and  O_25
    4  A    between atoms: C_6  and  C_26
    5  A    between atoms: C_7  and  N_27
    6  A    between atoms: C_10  and  C_22
    7  A    between atoms: C_13  and  C_31
    8  A    between atoms: O_14  and  C_36
    9  A    between atoms: C_23  and  C_39
   10  A    between atoms: C_24  and  O_37
   11  A    between atoms: O_25  and  C_40
   12  A    between atoms: C_31  and  C_41
   13  A    between atoms: O_37  and  C_41
                            x       y       z     vdW  Elec       q    Type
                         _______ _______ _______ _____ _____    ______ ____

>  <TORSDO>
F 13

$$$$
=
 OpenBabel11072408593D

 45 49  0  0  1  0  0  0  0  0999 V2000
  189.0380  173.9460  139.1630 N   0  0  0  0  0  0  0  0  0  0  0  0
  188.3620  174.3670  140.2320 C   0  0  0  0  0  3  0  0  0  0  0  0
  190.3840  174.1260  141.5880 C   0  0  0  0  0  0  0  0  0  0  0  0
  191.0450  173.7120  140.4000 C   0  0  0  0  0  3  0  0  0  0  0  0
  190.3720  173.6680  139.1920 C   0  0  0  0  0  3  0  0  0  0  0  0
  189.0720  174.6960  141.4550 C   0  0  0  0  0  0  0  0  0  0  0  0
  191.2640  173.2890  143.6200 O   0  0  0  0  0  0  0  0  0  0  0  0
  191.4020  174.1190  142.7160 C   0  0  0  0  0  0  0  0  0  0  0  0
  192.5140  175.1900  142.7940 C   0  0  0  0  0  2  0  0  0  0  0  0
  193.7590  174.9160  143.4600 O   0  0  0  0  0  0  0  0  0  0  0  0
  195.0030  176.3430  142.0240 C   0  0  0  0  0  3  0  0  0  0  0  0
  196.1710  174.8550  143.3710 C   0  0  2  0  0  3  0  0  0  0  0  0
  194.8590  174.9970  142.6120 C   0  0  1  0  0  3  0  0  0  0  0  0
  197.3220  174.6560  142.3890 C   0  0  0  0  0  2  0  0  0  0  0  0
  197.2210  175.5880  141.1790 C   0  0  0  0  0  2  0  0  0  0  0  0
  196.1580  176.6410  141.3670 C   0  0  0  0  0  3  0  0  0  0  0  0
  196.2290  174.0320  144.6080 C   0  0  0  0  0  0  0  0  0  0  0  0
  196.2600  172.6380  144.4380 N   0  0  0  0  0  2  0  0  0  0  0  0
  196.2590  174.5580  145.7380 O   0  0  0  0  0  0  0  0  0  0  0  0
  195.5510  170.8910  146.0310 C   0  0  0  0  0  2  0  0  0  0  0  0
  197.9350  170.9270  144.8530 C   0  0  0  0  0  2  0  0  0  0  0  0
  196.7300  171.7030  145.4480 C   0  0  1  0  0  3  0  0  0  0  0  0
  196.9610  169.0240  146.1210 C   0  0  0  0  0  2  0  0  0  0  0  0
  197.8590  169.4150  144.9650 C   0  0  0  0  0  2  0  0  0  0  0  0
  195.6300  169.4660  145.7710 N   0  0  0  0  0  2  0  0  0  0  0  0
  188.5720  175.8640  142.0470 O   0  0  0  0  0  0  0  0  0  0  0  0
  187.3140  175.9010  142.8290 C   0  0  1  0  0  3  0  0  0  0  0  0
  185.7980  178.2340  142.6370 C   0  0  1  0  0  3  0  0  0  0  0  0
  186.5760  178.2540  145.2820 C   0  0  1  0  0  3  0  0  0  0  0  0
  185.6570  180.0920  144.1370 O   0  0  0  0  0  0  0  0  0  0  0  0
  184.5480  178.6920  142.0210 O   0  0  0  0  0  1  0  0  0  0  0  0
  186.6400  176.7640  145.1770 C   0  0  0  0  0  2  0  0  0  0  0  0
  187.7740  176.3720  144.3090 C   0  0  1  0  0  3  0  0  0  0  0  0
  185.9930  178.9270  144.0800 C   0  0  0  0  0  0  0  0  0  0  0  0
  186.0620  176.7840  142.3700 C   0  0  0  0  0  2  0  0  0  0  0  0
  185.6100  178.0780  148.0070 C   0  0  0  0  0  2  0  0  0  0  0  0
  186.8920  178.7020  147.6080 C   0  0  0  0  0  2  0  0  0  0  0  0
  185.7600  178.5800  146.6160 C   0  0  0  0  0  3  0  0  0  0  0  0
  188.5820  175.3100  144.9470 O   0  0  0  0  0  0  0  0  0  0  0  0
  188.9410  174.7600  147.2640 C   0  0  0  0  0  2  0  0  0  0  0  0
  189.3140  175.4120  146.1330 C   0  0  0  0  0  0  0  0  0  0  0  0
  189.9190  176.7480  146.3860 C   0  0  0  0  0  2  0  0  0  0  0  0
  191.1570  176.3340  147.2490 C   0  0  0  0  0  3  0  0  0  0  0  0
  191.4280  177.2810  148.3890 C   0  0  0  0  0  1  0  0  0  0  0  0
  192.4670  175.8990  146.6040 C   0  0  0  0  0  1  0  0  0  0  0  0
  1  5  2  0  0  0  0
  1  2  1  0  0  0  0
  2  6  2  0  0  0  0
  3  8  1  0  0  0  0
  4  3  2  0  0  0  0
  5  4  1  0  0  0  0
  6  3  1  0  0  0  0
  6 26  1  0  0  0  0
  8  9  1  0  0  0  0
  8  7  2  0  0  0  0
  9 10  1  0  0  0  0
 11 13  1  0  0  0  0
 12 17  1  1  0  0  0
 13 12  1  0  0  0  0
 13 10  1  1  0  0  0
 14 12  1  0  0  0  0
 15 16  1  0  0  0  0
 15 14  1  0  0  0  0
 16 11  2  0  0  0  0
 17 19  2  0  0  0  0
 18 17  1  0  0  0  0
 21 24  1  0  0  0  0
 21 22  1  0  0  0  0
 22 18  1  6  0  0  0
 22 20  1  0  0  0  0
 24 23  1  0  0  0  0
 25 20  1  0  0  0  0
 25 23  1  0  0  0  0
 27 26  1  6  0  0  0
 27 33  1  0  0  0  0
 28 31  1  1  0  0  0
 28 34  1  0  0  0  0
 29 38  1  1  0  0  0
 32 29  1  0  0  0  0
 33 39  1  1  0  0  0
 33 32  1  0  0  0  0
 34 30  2  0  0  0  0
 34 29  1  0  0  0  0
 35 28  1  0  0  0  0
 35 27  1  0  0  0  0
 37 36  1  0  0  0  0
 38 37  1  0  0  0  0
 38 36  1  0  0  0  0
 39 41  1  0  0  0  0
 41 42  1  0  0  0  0
 41 40  2  0  0  0  0
 42 43  1  0  0  0  0
 43 44  1  0  0  0  0
 45 43  1  0  0  0  0
M  END
>  <MODEL>
8

>  <REMARK>
 VINA RESULT:      -6.8      1.931      5.128
  Name = 
  13 active torsions:
  status: ('A' for Active; 'I' for Inactive)
    1  A    between atoms: C_1  and  O_14
    2  A    between atoms: C_1  and  C_39
    3  A    between atoms: C_2  and  O_25
    4  A    between atoms: C_6  and  C_26
    5  A    between atoms: C_7  and  N_27
    6  A    between atoms: C_10  and  C_22
    7  A    between atoms: C_13  and  C_31
    8  A    between atoms: O_14  and  C_36
    9  A    between atoms: C_23  and  C_39
   10  A    between atoms: C_24  and  O_37
   11  A    between atoms: O_25  and  C_40
   12  A    between atoms: C_31  and  C_41
   13  A    between atoms: O_37  and  C_41
                            x       y       z     vdW  Elec       q    Type
                         _______ _______ _______ _____ _____    ______ ____

>  <TORSDO>
F 13

$$$$
=
 OpenBabel11072408593D

 45 49  0  0  1  0  0  0  0  0999 V2000
  190.5670  172.2660  138.6780 N   0  0  0  0  0  0  0  0  0  0  0  0
  191.3010  173.3210  139.0330 C   0  0  0  0  0  3  0  0  0  0  0  0
  189.6780  173.8410  140.7880 C   0  0  0  0  0  0  0  0  0  0  0  0
  188.9640  172.6850  140.3710 C   0  0  0  0  0  3  0  0  0  0  0  0
  189.4410  171.8870  139.3460 C   0  0  0  0  0  3  0  0  0  0  0  0
  191.0020  174.0300  140.2650 C   0  0  0  0  0  0  0  0  0  0  0  0
  187.6980  174.5460  141.8780 O   0  0  0  0  0  0  0  0  0  0  0  0
  188.9280  174.4580  141.9570 C   0  0  0  0  0  0  0  0  0  0  0  0
  189.6850  175.0610  143.1620 C   0  0  0  0  0  2  0  0  0  0  0  0
  189.6530  174.4230  144.4500 O   0  0  0  0  0  0  0  0  0  0  0  0
  191.7600  175.5190  144.4930 C   0  0  0  0  0  3  0  0  0  0  0  0
  190.4170  175.6550  146.3810 C   0  0  2  0  0  3  0  0  0  0  0  0
  190.7650  174.7200  145.2320 C   0  0  1  0  0  3  0  0  0  0  0  0
  191.5760  175.7200  147.3710 C   0  0  0  0  0  2  0  0  0  0  0  0
  192.9330  175.8230  146.6690 C   0  0  0  0  0  2  0  0  0  0  0  0
  192.7840  176.0840  145.1910 C   0  0  0  0  0  3  0  0  0  0  0  0
  189.0580  175.6200  146.9830 C   0  0  0  0  0  0  0  0  0  0  0  0
  188.2350  176.7340  146.7490 N   0  0  0  0  0  2  0  0  0  0  0  0
  188.6670  174.6440  147.6530 O   0  0  0  0  0  0  0  0  0  0  0  0
  186.3120  177.8200  147.8530 C   0  0  0  0  0  2  0  0  0  0  0  0
  186.1840  176.6970  145.4450 C   0  0  0  0  0  2  0  0  0  0  0  0
  186.7860  176.7200  146.8760 C   0  0  1  0  0  3  0  0  0  0  0  0
  184.4630  178.1740  146.4620 C   0  0  0  0  0  2  0  0  0  0  0  0
  185.1210  177.7440  145.1670 C   0  0  0  0  0  2  0  0  0  0  0  0
  185.4850  178.8400  147.2370 N   0  0  0  0  0  2  0  0  0  0  0  0
  192.1680  174.3700  140.9620 O   0  0  0  0  0  0  0  0  0  0  0  0
  193.2150  173.3840  141.3220 C   0  0  1  0  0  3  0  0  0  0  0  0
  192.7680  171.8820  143.6300 C   0  0  1  0  0  3  0  0  0  0  0  0
  194.9820  173.3750  144.3170 C   0  0  1  0  0  3  0  0  0  0  0  0
  193.6450  172.1760  145.8360 O   0  0  0  0  0  0  0  0  0  0  0  0
  192.4070  170.5110  144.0030 O   0  0  0  0  0  1  0  0  0  0  0  0
  195.3020  173.4030  142.8570 C   0  0  0  0  0  2  0  0  0  0  0  0
  194.3140  174.2440  142.1450 C   0  0  1  0  0  3  0  0  0  0  0  0
  193.8400  172.4790  144.6770 C   0  0  0  0  0  0  0  0  0  0  0  0
  192.8730  172.0560  142.1460 C   0  0  0  0  0  2  0  0  0  0  0  0
  197.6780  173.5270  145.3680 C   0  0  0  0  0  2  0  0  0  0  0  0
  196.4920  174.1460  146.0020 C   0  0  0  0  0  2  0  0  0  0  0  0
  196.3320  172.9690  145.0690 C   0  0  0  0  0  3  0  0  0  0  0  0
  194.9900  175.1960  141.2370 O   0  0  0  0  0  0  0  0  0  0  0  0
  196.5650  176.7100  142.2510 C   0  0  0  0  0  2  0  0  0  0  0  0
  196.2810  175.7120  141.3750 C   0  0  0  0  0  0  0  0  0  0  0  0
  197.0660  175.7850  140.1130 C   0  0  0  0  0  2  0  0  0  0  0  0
  196.3800  174.6430  139.2920 C   0  0  0  0  0  3  0  0  0  0  0  0
  197.1480  173.3470  139.3230 C   0  0  0  0  0  1  0  0  0  0  0  0
  195.8230  174.8900  137.8960 C   0  0  0  0  0  1  0  0  0  0  0  0
  1  2  2  0  0  0  0
  1  5  1  0  0  0  0
  2  6  1  0  0  0  0
  3  8  1  0  0  0  0
  4  3  1  0  0  0  0
  5  4  2  0  0  0  0
  6  3  2  0  0  0  0
  6 26  1  0  0  0  0
  7  8  2  0  0  0  0
  8  9  1  0  0  0  0
  9 10  1  0  0  0  0
 11 16  2  0  0  0  0
 11 13  1  0  0  0  0
 12 17  1  1  0  0  0
 12 14  1  0  0  0  0
 13 10  1  6  0  0  0
 13 12  1  0  0  0  0
 15 14  1  0  0  0  0
 16 15  1  0  0  0  0
 17 19  2  0  0  0  0
 18 17  1  0  0  0  0
 21 22  1  0  0  0  0
 22 18  1  6  0  0  0
 22 20  1  0  0  0  0
 23 25  1  0  0  0  0
 24 21  1  0  0  0  0
 24 23  1  0  0  0  0
 25 20  1  0  0  0  0
 27 26  1  1  0  0  0
 27 33  1  0  0  0  0
 27 35  1  0  0  0  0
 28 31  1  6  0  0  0
 28 34  1  0  0  0  0
 29 34  1  0  0  0  0
 29 38  1  1  0  0  0
 32 29  1  0  0  0  0
 33 39  1  6  0  0  0
 33 32  1  0  0  0  0
 34 30  2  0  0  0  0
 35 28  1  0  0  0  0
 36 37  1  0  0  0  0
 38 36  1  0  0  0  0
 38 37  1  0  0  0  0
 39 41  1  0  0  0  0
 41 40  2  0  0  0  0
 42 41  1  0  0  0  0
 43 44  1  0  0  0  0
 43 42  1  0  0  0  0
 45 43  1  0  0  0  0
M  END
>  <MODEL>
9

>  <REMARK>
 VINA RESULT:      -6.8      2.755      8.166
  Name = 
  13 active torsions:
  status: ('A' for Active; 'I' for Inactive)
    1  A    between atoms: C_1  and  O_14
    2  A    between atoms: C_1  and  C_39
    3  A    between atoms: C_2  and  O_25
    4  A    between atoms: C_6  and  C_26
    5  A    between atoms: C_7  and  N_27
    6  A    between atoms: C_10  and  C_22
    7  A    between atoms: C_13  and  C_31
    8  A    between atoms: O_14  and  C_36
    9  A    between atoms: C_23  and  C_39
   10  A    between atoms: C_24  and  O_37
   11  A    between atoms: O_25  and  C_40
   12  A    between atoms: C_31  and  C_41
   13  A    between atoms: O_37  and  C_41
                            x       y       z     vdW  Elec       q    Type
                         _______ _______ _______ _____ _____    ______ ____

>  <TORSDO>
F 13

$$$$
