=
 OpenBabel11062420543D

 50 55  0  0  1  0  0  0  0  0999 V2000
  189.2000  177.0140  146.6770 C   0  0  2  0  0  0  0  0  0  0  0  0
  191.8050  176.9320  145.0940 N   0  0  0  0  0  0  0  0  0  0  0  0
  190.5520  177.1440  147.5330 C   0  0  0  0  0  1  0  0  0  0  0  0
  191.9840  173.2840  145.0620 O   0  0  0  0  0  1  0  0  0  0  0  0
  191.2620  174.4390  144.9680 C   0  0  2  0  0  3  0  0  0  0  0  0
  190.5900  177.4060  144.4920 C   0  0  0  0  0  2  0  0  0  0  0  0
  192.2700  175.6920  145.1080 C   0  0  0  0  0  0  0  0  0  0  0  0
  190.1530  174.5870  146.1230 C   0  0  0  0  0  2  0  0  0  0  0  0
  188.9680  175.6510  145.8390 C   0  0  2  0  0  3  0  0  0  0  0  0
  193.6610  175.5750  144.8780 N   0  0  0  0  0  2  0  0  0  0  0  0
  189.2900  177.1290  145.2420 C   0  0  1  0  0  3  0  0  0  0  0  0
  187.9180  177.5490  147.0660 C   0  0  0  0  0  0  0  0  0  0  0  0
  186.7750  177.8490  147.2830 C   0  0  0  0  0  0  0  0  0  0  0  0
  185.4350  178.1450  147.4510 C   0  0  0  0  0  2  0  0  0  0  0  0
  185.5740  179.4190  145.6070 C   0  0  0  0  0  2  0  0  0  0  0  0
  184.8870  177.9120  143.8510 C   0  0  1  0  0  3  0  0  0  0  0  0
  184.9740  178.2440  146.1500 N   0  0  0  0  0  0  0  0  0  0  0  0
  185.1730  177.2010  145.2010 C   0  0  0  0  0  2  0  0  0  0  0  0
  185.2950  179.3650  144.1020 C   0  0  0  0  0  2  0  0  0  0  0  0
  187.0610  175.6900  141.9050 C   0  0  1  0  0  3  0  0  0  0  0  0
  188.1620  174.8320  142.6150 C   0  0  0  0  0  1  0  0  0  0  0  0
  186.5540  177.6660  140.3640 C   0  0  0  0  0  2  0  0  0  0  0  0
  185.9600  178.4030  141.6600 C   0  0  0  0  0  2  0  0  0  0  0  0
  186.7920  176.7460  143.0030 C   0  0  0  0  0  2  0  0  0  0  0  0
  187.5330  176.4420  140.6140 C   0  0  0  0  0  2  0  0  0  0  0  0
  185.5770  177.3880  142.5880 N   0  0  1  0  0  0  0  0  0  0  0  0
  194.5900  174.4610  145.1340 C   0  0  0  0  0  2  0  0  0  0  0  0
  195.2210  173.9900  143.7170 C   0  0  1  0  0  3  0  0  0  0  0  0
  194.2640  174.1110  141.3370 C   0  0  0  0  0  2  0  0  0  0  0  0
  192.5500  172.2860  141.2310 C   0  0  2  0  0  0  0  0  0  0  0  0
  194.3440  173.4500  142.5310 C   0  0  1  0  0  3  0  0  0  0  0  0
  192.8040  172.2200  138.6150 N   0  0  0  0  0  0  0  0  0  0  0  0
  193.8880  172.9540  139.2610 C   0  0  0  0  0  2  0  0  0  0  0  0
  193.6060  172.1320  142.3790 C   0  0  0  0  0  2  0  0  0  0  0  0
  193.2000  173.5490  140.4480 C   0  0  2  0  0  3  0  0  0  0  0  0
  191.9350  173.8870  137.2460 O   0  0  0  0  0  0  0  0  0  0  0  0
  192.5460  170.9070  139.1270 C   0  0  0  0  0  2  0  0  0  0  0  0
  191.1310  172.5970  141.6240 C   0  0  0  0  0  1  0  0  0  0  0  0
  191.7770  172.8120  137.8830 C   0  0  0  0  0  0  0  0  0  0  0  0
  192.5080  170.8490  140.6320 C   0  0  0  0  0  2  0  0  0  0  0  0
  190.6290  172.0300  137.6320 O   0  0  0  0  0  0  0  0  0  0  0  0
  189.4640  172.6630  137.3160 C   0  0  0  0  0  0  0  0  0  0  0  0
  188.9530  172.4270  136.1980 O   0  0  0  0  0  0  0  0  0  0  0  0
  189.3330  174.1740  139.4190 F   0  0  0  0  0  0  0  0  0  0  0  0
  187.8910  172.3860  139.1680 F   0  0  0  0  0  0  0  0  0  0  0  0
  187.7720  174.2390  137.8690 F   0  0  0  0  0  0  0  0  0  0  0  0
  188.6710  173.3790  138.4880 C   0  0  0  0  0  0  0  0  0  0  0  0
  195.8080  175.1180  143.2150 O   0  0  0  0  0  0  0  0  0  0  0  0
  197.8970  176.2000  142.9520 C   0  0  0  0  0  1  0  0  0  0  0  0
  197.1410  175.0580  143.6070 C   0  0  0  0  0  2  0  0  0  0  0  0
  1 12  1  0  0  0  0
  1  3  1  1  0  0  0
  2  7  2  0  0  0  0
  5  4  1  1  0  0  0
  5  7  1  0  0  0  0
  5  8  1  0  0  0  0
  6  2  1  0  0  0  0
  9  8  1  1  0  0  0
  9  1  1  0  0  0  0
 10  7  1  0  0  0  0
 10 27  1  0  0  0  0
 11  6  1  1  0  0  0
 11  9  1  0  0  0  0
 11  1  1  0  0  0  0
 12 13  3  0  0  0  0
 13 14  1  0  0  0  0
 15 17  1  0  0  0  0
 16 19  1  1  0  0  0
 16 18  1  0  0  0  0
 17 14  1  0  0  0  0
 18 17  1  0  0  0  0
 19 15  1  0  0  0  0
 20 21  1  1  0  0  0
 20 24  1  0  0  0  0
 22 25  1  0  0  0  0
 22 23  1  0  0  0  0
 25 20  1  0  0  0  0
 26 23  1  6  0  0  0
 26 24  1  0  0  0  0
 26 16  1  0  0  0  0
 28 27  1  1  0  0  0
 29 31  1  0  0  0  0
 30 38  1  1  0  0  0
 30 34  1  0  0  0  0
 31 28  1  6  0  0  0
 32 37  1  0  0  0  0
 32 33  1  0  0  0  0
 34 31  1  0  0  0  0
 35 33  1  6  0  0  0
 35 30  1  0  0  0  0
 35 29  1  0  0  0  0
 36 39  2  0  0  0  0
 37 40  1  0  0  0  0
 39 32  1  0  0  0  0
 40 30  1  0  0  0  0
 41 39  1  0  0  0  0
 42 41  1  0  0  0  0
 42 47  1  0  0  0  0
 43 42  2  0  0  0  0
 46 47  1  0  0  0  0
 47 45  1  0  0  0  0
 47 44  1  0  0  0  0
 48 50  1  0  0  0  0
 48 28  1  0  0  0  0
 49 50  1  0  0  0  0
M  END
>  <MODEL>
1

>  <REMARK>
 VINA RESULT:      -7.7      0.000      0.000
  Name = 
  12 active torsions:
  status: ('A' for Active; 'I' for Inactive)
    1  A    between atoms: O_1  and  C_27
    2  A    between atoms: O_1  and  C_49
    3  A    between atoms: C_6  and  C_7
    4  A    between atoms: C_9  and  C_27
    5  A    between atoms: C_12  and  C_38
    6  A    between atoms: C_12  and  O_39
    7  A    between atoms: C_27  and  C_29
    8  A    between atoms: C_29  and  N_46
    9  A    between atoms: C_31  and  C_35
   10  A    between atoms: C_31  and  N_36
   11  A    between atoms: C_33  and  N_43
   12  A    between atoms: O_39  and  C_44
                            x       y       z     vdW  Elec       q    Type
                         _______ _______ _______ _____ _____    ______ ____

>  <TORSDO>
F 12

$$$$
=
 OpenBabel11062420543D

 50 55  0  0  1  0  0  0  0  0999 V2000
  189.5660  175.6690  142.5840 C   0  0  2  0  0  0  0  0  0  0  0  0
  190.9820  173.7810  144.5150 N   0  0  0  0  0  0  0  0  0  0  0  0
  190.6300  174.6580  141.9320 C   0  0  0  0  0  1  0  0  0  0  0  0
  193.5760  176.1960  145.3980 O   0  0  0  0  0  1  0  0  0  0  0  0
  192.2720  175.9010  145.1190 C   0  0  2  0  0  3  0  0  0  0  0  0
  189.6690  174.2860  144.8060 C   0  0  0  0  0  2  0  0  0  0  0  0
  192.1460  174.3140  144.8510 C   0  0  0  0  0  0  0  0  0  0  0  0
  191.7200  176.6520  143.8080 C   0  0  0  0  0  2  0  0  0  0  0  0
  190.1110  176.7410  143.6640 C   0  0  2  0  0  3  0  0  0  0  0  0
  193.1160  173.3900  145.3070 N   0  0  0  0  0  2  0  0  0  0  0  0
  189.1680  175.4480  143.9520 C   0  0  1  0  0  3  0  0  0  0  0  0
  188.4310  176.2320  141.8960 C   0  0  0  0  0  0  0  0  0  0  0  0
  187.6130  176.8300  141.2500 C   0  0  0  0  0  0  0  0  0  0  0  0
  186.7340  177.5950  140.5060 C   0  0  0  0  0  2  0  0  0  0  0  0
  184.8560  177.7450  141.7280 C   0  0  0  0  0  2  0  0  0  0  0  0
  185.5200  179.1510  143.5750 C   0  0  1  0  0  3  0  0  0  0  0  0
  186.1100  178.3720  141.4660 N   0  0  0  0  0  0  0  0  0  0  0  0
  186.7140  178.6360  142.7280 C   0  0  0  0  0  2  0  0  0  0  0  0
  184.3060  178.4360  142.9790 C   0  0  0  0  0  2  0  0  0  0  0  0
  187.0060  178.1820  146.7840 C   0  0  1  0  0  3  0  0  0  0  0  0
  188.2440  177.2240  146.8310 C   0  0  0  0  0  1  0  0  0  0  0  0
  184.5100  178.4730  147.2520 C   0  0  0  0  0  2  0  0  0  0  0  0
  184.3140  178.5250  145.6590 C   0  0  0  0  0  2  0  0  0  0  0  0
  186.4920  177.8890  145.3550 C   0  0  0  0  0  2  0  0  0  0  0  0
  185.8590  177.8360  147.7930 C   0  0  0  0  0  2  0  0  0  0  0  0
  185.5540  178.9440  145.0910 N   0  0  1  0  0  0  0  0  0  0  0  0
  194.5760  173.5170  145.4510 C   0  0  0  0  0  2  0  0  0  0  0  0
  195.2800  172.6720  144.2600 C   0  0  1  0  0  3  0  0  0  0  0  0
  194.4190  173.4590  141.9720 C   0  0  0  0  0  2  0  0  0  0  0  0
  193.1750  171.4960  141.0350 C   0  0  2  0  0  0  0  0  0  0  0  0
  194.6000  172.4390  142.8640 C   0  0  1  0  0  3  0  0  0  0  0  0
  193.5430  172.4390  138.6080 N   0  0  0  0  0  0  0  0  0  0  0  0
  194.4030  173.0880  139.5950 C   0  0  0  0  0  2  0  0  0  0  0  0
  194.1900  171.1480  142.1770 C   0  0  0  0  0  2  0  0  0  0  0  0
  193.5490  173.0590  140.8220 C   0  0  2  0  0  3  0  0  0  0  0  0
  192.3720  174.2820  137.8070 O   0  0  0  0  0  0  0  0  0  0  0  0
  193.5730  171.0060  138.5990 C   0  0  0  0  0  2  0  0  0  0  0  0
  191.7070  171.3530  141.3370 C   0  0  0  0  0  1  0  0  0  0  0  0
  192.4380  173.0390  138.0080 C   0  0  0  0  0  0  0  0  0  0  0  0
  193.4870  170.3980  139.9750 C   0  0  0  0  0  2  0  0  0  0  0  0
  191.5120  172.1910  137.3660 O   0  0  0  0  0  0  0  0  0  0  0  0
  190.2680  172.6740  137.0880 C   0  0  0  0  0  0  0  0  0  0  0  0
  189.8720  172.6260  135.9020 O   0  0  0  0  0  0  0  0  0  0  0  0
  189.4220  174.0950  139.0850 F   0  0  0  0  0  0  0  0  0  0  0  0
  189.3020  171.7880  139.1530 F   0  0  0  0  0  0  0  0  0  0  0  0
  188.0170  173.0350  137.7640 F   0  0  0  0  0  0  0  0  0  0  0  0
  189.2920  172.9470  138.3080 C   0  0  0  0  0  0  0  0  0  0  0  0
  196.4150  173.3770  143.9670 O   0  0  0  0  0  0  0  0  0  0  0  0
  197.7620  171.5710  144.6930 C   0  0  0  0  0  1  0  0  0  0  0  0
  197.3470  173.0120  144.9310 C   0  0  0  0  0  2  0  0  0  0  0  0
  1  3  1  6  0  0  0
  1  9  1  0  0  0  0
  1 11  1  0  0  0  0
  2  6  1  0  0  0  0
  2  7  2  0  0  0  0
  5  4  1  6  0  0  0
  7  5  1  0  0  0  0
  7 10  1  0  0  0  0
  8  5  1  0  0  0  0
  9  8  1  1  0  0  0
  9 11  1  0  0  0  0
 10 27  1  0  0  0  0
 11  6  1  1  0  0  0
 12  1  1  0  0  0  0
 13 12  3  0  0  0  0
 14 13  1  0  0  0  0
 14 17  1  0  0  0  0
 15 19  1  0  0  0  0
 16 18  1  6  0  0  0
 16 26  1  0  0  0  0
 17 15  1  0  0  0  0
 17 18  1  0  0  0  0
 19 16  1  0  0  0  0
 20 21  1  1  0  0  0
 20 25  1  0  0  0  0
 22 25  1  0  0  0  0
 23 22  1  0  0  0  0
 24 20  1  0  0  0  0
 26 24  1  6  0  0  0
 26 23  1  0  0  0  0
 28 27  1  1  0  0  0
 29 31  1  0  0  0  0
 30 38  1  1  0  0  0
 30 34  1  0  0  0  0
 31 28  1  6  0  0  0
 32 33  1  0  0  0  0
 34 31  1  0  0  0  0
 35 33  1  6  0  0  0
 35 30  1  0  0  0  0
 35 29  1  0  0  0  0
 36 39  2  0  0  0  0
 37 32  1  0  0  0  0
 37 40  1  0  0  0  0
 39 32  1  0  0  0  0
 40 30  1  0  0  0  0
 41 39  1  0  0  0  0
 42 41  1  0  0  0  0
 42 47  1  0  0  0  0
 43 42  2  0  0  0  0
 46 47  1  0  0  0  0
 47 44  1  0  0  0  0
 47 45  1  0  0  0  0
 48 28  1  0  0  0  0
 48 50  1  0  0  0  0
 49 50  1  0  0  0  0
M  END
>  <MODEL>
2

>  <REMARK>
 VINA RESULT:      -7.2      1.501      3.318
  Name = 
  12 active torsions:
  status: ('A' for Active; 'I' for Inactive)
    1  A    between atoms: O_1  and  C_27
    2  A    between atoms: O_1  and  C_49
    3  A    between atoms: C_6  and  C_7
    4  A    between atoms: C_9  and  C_27
    5  A    between atoms: C_12  and  C_38
    6  A    between atoms: C_12  and  O_39
    7  A    between atoms: C_27  and  C_29
    8  A    between atoms: C_29  and  N_46
    9  A    between atoms: C_31  and  C_35
   10  A    between atoms: C_31  and  N_36
   11  A    between atoms: C_33  and  N_43
   12  A    between atoms: O_39  and  C_44
                            x       y       z     vdW  Elec       q    Type
                         _______ _______ _______ _____ _____    ______ ____

>  <TORSDO>
F 12

$$$$
=
 OpenBabel11062420543D

 50 55  0  0  1  0  0  0  0  0999 V2000
  190.8390  173.1030  140.6680 C   0  0  2  0  0  0  0  0  0  0  0  0
  193.4490  171.6730  140.0060 N   0  0  0  0  0  0  0  0  0  0  0  0
  192.1860  173.8220  141.1670 C   0  0  0  0  0  1  0  0  0  0  0  0
  193.3230  169.5090  142.9460 O   0  0  0  0  0  1  0  0  0  0  0  0
  192.7020  170.1350  141.9030 C   0  0  2  0  0  3  0  0  0  0  0  0
  192.2860  171.5080  139.1780 C   0  0  0  0  0  2  0  0  0  0  0  0
  193.8090  170.9420  141.0500 C   0  0  0  0  0  0  0  0  0  0  0  0
  191.5930  171.2000  142.3750 C   0  0  0  0  0  2  0  0  0  0  0  0
  190.5050  171.6360  141.2600 C   0  0  2  0  0  3  0  0  0  0  0  0
  195.1880  170.6340  141.1150 N   0  0  0  0  0  2  0  0  0  0  0  0
  190.9580  172.0040  139.7430 C   0  0  1  0  0  3  0  0  0  0  0  0
  189.6020  173.7800  140.3680 C   0  0  0  0  0  0  0  0  0  0  0  0
  188.5840  174.4150  140.3000 C   0  0  0  0  0  0  0  0  0  0  0  0
  187.4100  175.1450  140.3190 C   0  0  0  0  0  2  0  0  0  0  0  0
  187.2690  177.3520  140.7110 C   0  0  0  0  0  2  0  0  0  0  0  0
  187.2830  177.4790  143.1220 C   0  0  1  0  0  3  0  0  0  0  0  0
  187.6590  176.1050  141.2850 N   0  0  0  0  0  0  0  0  0  0  0  0
  187.0680  176.0410  142.5780 C   0  0  0  0  0  2  0  0  0  0  0  0
  187.2740  178.3550  141.8680 C   0  0  0  0  0  2  0  0  0  0  0  0
  185.8210  177.9180  146.4560 C   0  0  1  0  0  3  0  0  0  0  0  0
  186.1120  176.8840  147.5950 C   0  0  0  0  0  1  0  0  0  0  0  0
  184.0980  178.8750  144.8270 C   0  0  0  0  0  2  0  0  0  0  0  0
  184.9590  178.1860  143.6600 C   0  0  0  0  0  2  0  0  0  0  0  0
  186.2140  177.0750  145.2190 C   0  0  0  0  0  2  0  0  0  0  0  0
  184.3180  178.3320  146.3020 C   0  0  0  0  0  2  0  0  0  0  0  0
  186.2910  178.0290  144.1490 N   0  0  1  0  0  0  0  0  0  0  0  0
  196.0170  170.1560  142.2350 C   0  0  0  0  0  2  0  0  0  0  0  0
  196.6570  171.4450  142.9800 C   0  0  1  0  0  3  0  0  0  0  0  0
  194.5350  172.2930  144.1530 C   0  0  0  0  0  2  0  0  0  0  0  0
  194.8060  174.7810  144.2690 C   0  0  2  0  0  0  0  0  0  0  0  0
  195.7820  172.5590  143.6600 C   0  0  1  0  0  3  0  0  0  0  0  0
  193.1420  174.8520  146.3050 N   0  0  0  0  0  0  0  0  0  0  0  0
  193.6180  173.5010  146.0210 C   0  0  0  0  0  2  0  0  0  0  0  0
  196.1360  173.9840  144.0460 C   0  0  0  0  0  2  0  0  0  0  0  0
  193.8000  173.5380  144.5370 C   0  0  2  0  0  3  0  0  0  0  0  0
  190.8510  174.5470  146.0400 O   0  0  0  0  0  0  0  0  0  0  0  0
  194.1560  175.8540  146.4510 C   0  0  0  0  0  2  0  0  0  0  0  0
  194.2950  175.6230  143.1310 C   0  0  0  0  0  1  0  0  0  0  0  0
  191.8550  175.3100  146.0300 C   0  0  0  0  0  0  0  0  0  0  0  0
  195.2150  175.7930  145.3800 C   0  0  0  0  0  2  0  0  0  0  0  0
  191.6540  176.7060  146.0220 O   0  0  0  0  0  0  0  0  0  0  0  0
  190.6370  177.2150  145.2710 C   0  0  0  0  0  0  0  0  0  0  0  0
  189.6330  177.6620  145.8700 O   0  0  0  0  0  0  0  0  0  0  0  0
  190.3140  178.5840  143.0930 F   0  0  0  0  0  0  0  0  0  0  0  0
  190.6950  176.3070  143.0020 F   0  0  0  0  0  0  0  0  0  0  0  0
  192.2860  177.7820  143.6550 F   0  0  0  0  0  0  0  0  0  0  0  0
  190.9250  177.5140  143.7400 C   0  0  0  0  0  0  0  0  0  0  0  0
  197.3860  170.9170  144.0100 O   0  0  0  0  0  0  0  0  0  0  0  0
  196.7640  169.7160  145.9520 C   0  0  0  0  0  1  0  0  0  0  0  0
  196.6800  169.7980  144.4390 C   0  0  0  0  0  2  0  0  0  0  0  0
  1  3  1  1  0  0  0
  1  9  1  0  0  0  0
  2  7  2  0  0  0  0
  5  8  1  0  0  0  0
  5  4  1  1  0  0  0
  6  2  1  0  0  0  0
  7 10  1  0  0  0  0
  7  5  1  0  0  0  0
  9  8  1  1  0  0  0
 10 27  1  0  0  0  0
 11  6  1  1  0  0  0
 11  1  1  0  0  0  0
 11  9  1  0  0  0  0
 12  1  1  0  0  0  0
 13 14  1  0  0  0  0
 13 12  3  0  0  0  0
 14 17  1  0  0  0  0
 15 17  1  0  0  0  0
 15 19  1  0  0  0  0
 16 19  1  6  0  0  0
 16 26  1  0  0  0  0
 17 18  1  0  0  0  0
 18 16  1  0  0  0  0
 20 21  1  1  0  0  0
 22 25  1  0  0  0  0
 23 22  1  0  0  0  0
 24 20  1  0  0  0  0
 25 20  1  0  0  0  0
 26 23  1  6  0  0  0
 26 24  1  0  0  0  0
 28 27  1  1  0  0  0
 28 48  1  0  0  0  0
 30 38  1  6  0  0  0
 30 35  1  0  0  0  0
 30 40  1  0  0  0  0
 31 28  1  1  0  0  0
 31 34  1  0  0  0  0
 31 29  1  0  0  0  0
 32 37  1  0  0  0  0
 33 32  1  0  0  0  0
 34 30  1  0  0  0  0
 35 29  1  1  0  0  0
 35 33  1  0  0  0  0
 39 36  2  0  0  0  0
 39 32  1  0  0  0  0
 40 37  1  0  0  0  0
 41 39  1  0  0  0  0
 42 43  2  0  0  0  0
 42 41  1  0  0  0  0
 44 47  1  0  0  0  0
 45 47  1  0  0  0  0
 46 47  1  0  0  0  0
 47 42  1  0  0  0  0
 48 50  1  0  0  0  0
 50 49  1  0  0  0  0
M  END
>  <MODEL>
3

>  <REMARK>
 VINA RESULT:      -7.1      2.863      6.380
  Name = 
  12 active torsions:
  status: ('A' for Active; 'I' for Inactive)
    1  A    between atoms: O_1  and  C_27
    2  A    between atoms: O_1  and  C_49
    3  A    between atoms: C_6  and  C_7
    4  A    between atoms: C_9  and  C_27
    5  A    between atoms: C_12  and  C_38
    6  A    between atoms: C_12  and  O_39
    7  A    between atoms: C_27  and  C_29
    8  A    between atoms: C_29  and  N_46
    9  A    between atoms: C_31  and  C_35
   10  A    between atoms: C_31  and  N_36
   11  A    between atoms: C_33  and  N_43
   12  A    between atoms: O_39  and  C_44
                            x       y       z     vdW  Elec       q    Type
                         _______ _______ _______ _____ _____    ______ ____

>  <TORSDO>
F 12

$$$$
=
 OpenBabel11062420543D

 50 55  0  0  1  0  0  0  0  0999 V2000
  191.8790  170.4360  141.9470 C   0  0  2  0  0  0  0  0  0  0  0  0
  190.3110  170.6670  139.3420 N   0  0  0  0  0  0  0  0  0  0  0  0
  190.3960  171.0410  142.0650 C   0  0  0  0  0  1  0  0  0  0  0  0
  191.7370  173.9100  138.4550 O   0  0  0  0  0  1  0  0  0  0  0  0
  191.8750  172.6500  138.9630 C   0  0  2  0  0  3  0  0  0  0  0  0
  191.3310  169.6680  139.5040 C   0  0  0  0  0  2  0  0  0  0  0  0
  190.4510  171.8960  138.8700 C   0  0  0  0  0  0  0  0  0  0  0  0
  192.3240  172.6350  140.5070 C   0  0  0  0  0  2  0  0  0  0  0  0
  192.9530  171.2480  141.0520 C   0  0  2  0  0  3  0  0  0  0  0  0
  189.4270  172.3170  137.9890 N   0  0  0  0  0  2  0  0  0  0  0  0
  192.2640  169.8170  140.7030 C   0  0  1  0  0  3  0  0  0  0  0  0
  192.5760  169.7420  143.0010 C   0  0  0  0  0  0  0  0  0  0  0  0
  193.1960  169.3420  143.9490 C   0  0  0  0  0  0  0  0  0  0  0  0
  193.9520  168.9700  145.0460 C   0  0  0  0  0  2  0  0  0  0  0  0
  195.6090  170.2980  144.3140 C   0  0  0  0  0  2  0  0  0  0  0  0
  195.1530  172.3960  145.4170 C   0  0  1  0  0  3  0  0  0  0  0  0
  194.6440  170.1290  145.3520 N   0  0  0  0  0  0  0  0  0  0  0  0
  193.9830  171.3790  145.5110 C   0  0  0  0  0  2  0  0  0  0  0  0
  196.1670  171.7110  144.4990 C   0  0  0  0  0  2  0  0  0  0  0  0
  194.0230  175.8760  145.6670 C   0  0  1  0  0  3  0  0  0  0  0  0
  193.0870  176.3260  146.8390 C   0  0  0  0  0  1  0  0  0  0  0  0
  194.2380  175.4100  143.1630 C   0  0  0  0  0  2  0  0  0  0  0  0
  194.3810  173.8600  143.5590 C   0  0  0  0  0  2  0  0  0  0  0  0
  193.8050  174.3450  145.7210 C   0  0  0  0  0  2  0  0  0  0  0  0
  193.5960  176.3760  144.2450 C   0  0  0  0  0  2  0  0  0  0  0  0
  194.8560  173.8070  144.9040 N   0  0  1  0  0  0  0  0  0  0  0  0
  189.0420  173.6630  137.5310 C   0  0  0  0  0  2  0  0  0  0  0  0
  187.8710  174.2160  138.5070 C   0  0  1  0  0  3  0  0  0  0  0  0
  188.9490  174.2130  140.8380 C   0  0  0  0  0  2  0  0  0  0  0  0
  187.9370  176.1740  142.0240 C   0  0  2  0  0  0  0  0  0  0  0  0
  188.1620  174.8450  139.9160 C   0  0  1  0  0  3  0  0  0  0  0  0
  190.0210  176.2620  143.6250 N   0  0  0  0  0  0  0  0  0  0  0  0
  190.2580  175.4310  142.4480 C   0  0  0  0  0  2  0  0  0  0  0  0
  187.8270  176.2210  140.4620 C   0  0  0  0  0  2  0  0  0  0  0  0
  188.8960  174.8750  142.1780 C   0  0  2  0  0  3  0  0  0  0  0  0
  190.3530  174.6950  145.3110 O   0  0  0  0  0  0  0  0  0  0  0  0
  189.5300  177.5840  143.3690 C   0  0  0  0  0  2  0  0  0  0  0  0
  186.6680  175.9740  142.8090 C   0  0  0  0  0  1  0  0  0  0  0  0
  189.8280  175.7690  144.9140 C   0  0  0  0  0  0  0  0  0  0  0  0
  188.4080  177.6190  142.3630 C   0  0  0  0  0  2  0  0  0  0  0  0
  189.2620  176.6460  145.8630 O   0  0  0  0  0  0  0  0  0  0  0  0
  188.1520  176.2440  146.5440 C   0  0  0  0  0  0  0  0  0  0  0  0
  188.2700  175.2910  147.3460 O   0  0  0  0  0  0  0  0  0  0  0  0
  186.5400  177.9420  147.6580 F   0  0  0  0  0  0  0  0  0  0  0  0
  185.7580  176.4420  146.0840 F   0  0  0  0  0  0  0  0  0  0  0  0
  187.1430  178.1550  145.5520 F   0  0  0  0  0  0  0  0  0  0  0  0
  186.8880  177.2030  146.5310 C   0  0  0  0  0  0  0  0  0  0  0  0
  187.2890  175.2310  137.7990 O   0  0  0  0  0  0  0  0  0  0  0  0
  187.3760  176.3910  135.7380 C   0  0  0  0  0  1  0  0  0  0  0  0
  187.9060  175.2260  136.5520 C   0  0  0  0  0  2  0  0  0  0  0  0
  1  3  1  1  0  0  0
  1 12  1  0  0  0  0
  2  6  1  0  0  0  0
  5  4  1  1  0  0  0
  5  8  1  0  0  0  0
  7  5  1  0  0  0  0
  7  2  2  0  0  0  0
  9  8  1  6  0  0  0
  9  1  1  0  0  0  0
 10  7  1  0  0  0  0
 11  6  1  6  0  0  0
 11  9  1  0  0  0  0
 11  1  1  0  0  0  0
 12 13  3  0  0  0  0
 13 14  1  0  0  0  0
 14 17  1  0  0  0  0
 15 19  1  0  0  0  0
 15 17  1  0  0  0  0
 16 19  1  6  0  0  0
 16 18  1  0  0  0  0
 17 18  1  0  0  0  0
 20 24  1  0  0  0  0
 20 21  1  1  0  0  0
 22 23  1  0  0  0  0
 22 25  1  0  0  0  0
 25 20  1  0  0  0  0
 26 23  1  6  0  0  0
 26 16  1  0  0  0  0
 26 24  1  0  0  0  0
 27 10  1  0  0  0  0
 28 27  1  6  0  0  0
 30 35  1  0  0  0  0
 30 40  1  0  0  0  0
 30 38  1  1  0  0  0
 31 28  1  6  0  0  0
 31 34  1  0  0  0  0
 31 29  1  0  0  0  0
 32 39  1  0  0  0  0
 33 32  1  0  0  0  0
 34 30  1  0  0  0  0
 35 29  1  6  0  0  0
 35 33  1  0  0  0  0
 37 32  1  0  0  0  0
 39 36  2  0  0  0  0
 39 41  1  0  0  0  0
 40 37  1  0  0  0  0
 41 42  1  0  0  0  0
 42 43  2  0  0  0  0
 45 47  1  0  0  0  0
 46 47  1  0  0  0  0
 47 42  1  0  0  0  0
 47 44  1  0  0  0  0
 48 28  1  0  0  0  0
 49 50  1  0  0  0  0
 50 48  1  0  0  0  0
M  END
>  <MODEL>
4

>  <REMARK>
 VINA RESULT:      -7.0      3.116      9.083
  Name = 
  12 active torsions:
  status: ('A' for Active; 'I' for Inactive)
    1  A    between atoms: O_1  and  C_27
    2  A    between atoms: O_1  and  C_49
    3  A    between atoms: C_6  and  C_7
    4  A    between atoms: C_9  and  C_27
    5  A    between atoms: C_12  and  C_38
    6  A    between atoms: C_12  and  O_39
    7  A    between atoms: C_27  and  C_29
    8  A    between atoms: C_29  and  N_46
    9  A    between atoms: C_31  and  C_35
   10  A    between atoms: C_31  and  N_36
   11  A    between atoms: C_33  and  N_43
   12  A    between atoms: O_39  and  C_44
                            x       y       z     vdW  Elec       q    Type
                         _______ _______ _______ _____ _____    ______ ____

>  <TORSDO>
F 12

$$$$
=
 OpenBabel11062420543D

 50 55  0  0  1  0  0  0  0  0999 V2000
  190.1490  173.6700  143.4290 C   0  0  2  0  0  0  0  0  0  0  0  0
  189.5720  174.1090  140.4670 N   0  0  0  0  0  0  0  0  0  0  0  0
  191.2160  174.5610  142.6260 C   0  0  0  0  0  1  0  0  0  0  0  0
  191.1510  170.9860  139.4200 O   0  0  0  0  0  1  0  0  0  0  0  0
  190.3710  171.6900  140.2930 C   0  0  2  0  0  3  0  0  0  0  0  0
  188.5050  173.8740  141.4010 C   0  0  0  0  0  2  0  0  0  0  0  0
  190.2450  173.2100  139.7670 C   0  0  0  0  0  0  0  0  0  0  0  0
  190.9810  171.7480  141.7800 C   0  0  0  0  0  2  0  0  0  0  0  0
  189.9450  172.1360  142.9600 C   0  0  2  0  0  3  0  0  0  0  0  0
  190.4970  173.5690  138.4210 N   0  0  0  0  0  2  0  0  0  0  0  0
  188.8950  173.3650  142.7860 C   0  0  1  0  0  3  0  0  0  0  0  0
  189.8890  173.7650  144.8440 C   0  0  0  0  0  0  0  0  0  0  0  0
  189.6170  174.0290  145.9840 C   0  0  0  0  0  0  0  0  0  0  0  0
  189.3120  174.4260  147.2730 C   0  0  0  0  0  2  0  0  0  0  0  0
  189.9370  176.4920  146.6520 C   0  0  0  0  0  2  0  0  0  0  0  0
  187.8480  177.5270  146.0270 C   0  0  1  0  0  3  0  0  0  0  0  0
  188.8290  175.7110  147.0950 N   0  0  0  0  0  0  0  0  0  0  0  0
  187.7460  175.9900  146.2130 C   0  0  0  0  0  2  0  0  0  0  0  0
  189.3410  177.8230  146.1860 C   0  0  0  0  0  2  0  0  0  0  0  0
  185.3930  179.1490  143.8380 C   0  0  1  0  0  3  0  0  0  0  0  0
  183.8660  179.0980  144.1810 C   0  0  0  0  0  1  0  0  0  0  0  0
  187.2640  178.3540  142.2880 C   0  0  0  0  0  2  0  0  0  0  0  0
  187.8130  177.5100  143.5390 C   0  0  0  0  0  2  0  0  0  0  0  0
  185.9050  177.9810  144.7140 C   0  0  0  0  0  2  0  0  0  0  0  0
  185.7510  178.8310  142.3470 C   0  0  0  0  0  2  0  0  0  0  0  0
  187.3310  178.1430  144.7240 N   0  0  1  0  0  0  0  0  0  0  0  0
  191.4570  173.0300  137.4430 C   0  0  0  0  0  2  0  0  0  0  0  0
  192.7740  173.9750  137.4520 C   0  0  1  0  0  3  0  0  0  0  0  0
  193.9340  173.0380  139.5420 C   0  0  0  0  0  2  0  0  0  0  0  0
  195.0640  175.0100  140.5990 C   0  0  2  0  0  0  0  0  0  0  0  0
  193.7350  174.0870  138.6890 C   0  0  1  0  0  3  0  0  0  0  0  0
  196.7510  173.3850  141.7920 N   0  0  0  0  0  0  0  0  0  0  0  0
  196.0090  172.7270  140.7200 C   0  0  0  0  0  2  0  0  0  0  0  0
  194.6960  175.1940  139.0870 C   0  0  0  0  0  2  0  0  0  0  0  0
  194.6950  173.4390  140.7660 C   0  0  2  0  0  3  0  0  0  0  0  0
  196.1250  172.0600  143.5990 O   0  0  0  0  0  0  0  0  0  0  0  0
  197.4010  174.6130  141.4420 C   0  0  0  0  0  2  0  0  0  0  0  0
  194.3040  175.8290  141.6080 C   0  0  0  0  0  1  0  0  0  0  0  0
  196.5360  173.1650  143.1510 C   0  0  0  0  0  0  0  0  0  0  0  0
  196.5250  175.5460  140.6470 C   0  0  0  0  0  2  0  0  0  0  0  0
  197.0620  174.1150  144.0510 O   0  0  0  0  0  0  0  0  0  0  0  0
  196.4480  174.2830  145.2570 C   0  0  0  0  0  0  0  0  0  0  0  0
  197.0350  173.8590  146.2770 O   0  0  0  0  0  0  0  0  0  0  0  0
  193.9490  174.8840  144.9150 F   0  0  0  0  0  0  0  0  0  0  0  0
  195.5890  176.4910  144.6520 F   0  0  0  0  0  0  0  0  0  0  0  0
  195.0660  175.6040  146.6700 F   0  0  0  0  0  0  0  0  0  0  0  0
  195.2180  175.2820  145.3270 C   0  0  0  0  0  0  0  0  0  0  0  0
  193.5640  173.4670  136.4570 O   0  0  0  0  0  0  0  0  0  0  0  0
  194.0960  171.2730  135.7480 C   0  0  0  0  0  1  0  0  0  0  0  0
  192.9910  172.2520  136.1020 C   0  0  0  0  0  2  0  0  0  0  0  0
  1  3  1  6  0  0  0
  1 12  1  0  0  0  0
  2  6  1  0  0  0  0
  5  4  1  6  0  0  0
  5  8  1  0  0  0  0
  7  5  1  0  0  0  0
  7  2  2  0  0  0  0
  9  8  1  6  0  0  0
  9  1  1  0  0  0  0
 10  7  1  0  0  0  0
 11  6  1  6  0  0  0
 11  9  1  0  0  0  0
 11  1  1  0  0  0  0
 12 13  3  0  0  0  0
 13 14  1  0  0  0  0
 15 17  1  0  0  0  0
 16 19  1  6  0  0  0
 16 18  1  0  0  0  0
 17 14  1  0  0  0  0
 18 17  1  0  0  0  0
 19 15  1  0  0  0  0
 20 21  1  6  0  0  0
 20 24  1  0  0  0  0
 22 25  1  0  0  0  0
 22 23  1  0  0  0  0
 24 26  1  0  0  0  0
 25 20  1  0  0  0  0
 26 23  1  6  0  0  0
 26 16  1  0  0  0  0
 27 10  1  0  0  0  0
 28 27  1  1  0  0  0
 30 40  1  0  0  0  0
 30 35  1  0  0  0  0
 30 38  1  1  0  0  0
 31 28  1  6  0  0  0
 31 34  1  0  0  0  0
 31 29  1  0  0  0  0
 32 39  1  0  0  0  0
 33 35  1  0  0  0  0
 33 32  1  0  0  0  0
 34 30  1  0  0  0  0
 35 29  1  6  0  0  0
 37 32  1  0  0  0  0
 39 36  2  0  0  0  0
 39 41  1  0  0  0  0
 40 37  1  0  0  0  0
 41 42  1  0  0  0  0
 42 47  1  0  0  0  0
 42 43  2  0  0  0  0
 44 47  1  0  0  0  0
 45 47  1  0  0  0  0
 47 46  1  0  0  0  0
 48 28  1  0  0  0  0
 49 50  1  0  0  0  0
 50 48  1  0  0  0  0
M  END
>  <MODEL>
5

>  <REMARK>
 VINA RESULT:      -7.0      2.952      6.350
  Name = 
  12 active torsions:
  status: ('A' for Active; 'I' for Inactive)
    1  A    between atoms: O_1  and  C_27
    2  A    between atoms: O_1  and  C_49
    3  A    between atoms: C_6  and  C_7
    4  A    between atoms: C_9  and  C_27
    5  A    between atoms: C_12  and  C_38
    6  A    between atoms: C_12  and  O_39
    7  A    between atoms: C_27  and  C_29
    8  A    between atoms: C_29  and  N_46
    9  A    between atoms: C_31  and  C_35
   10  A    between atoms: C_31  and  N_36
   11  A    between atoms: C_33  and  N_43
   12  A    between atoms: O_39  and  C_44
                            x       y       z     vdW  Elec       q    Type
                         _______ _______ _______ _____ _____    ______ ____

>  <TORSDO>
F 12

$$$$
=
 OpenBabel11062420543D

 50 55  0  0  1  0  0  0  0  0999 V2000
  195.3960  174.8190  139.7350 C   0  0  2  0  0  0  0  0  0  0  0  0
  195.5100  176.2640  142.4180 N   0  0  0  0  0  0  0  0  0  0  0  0
  194.1290  174.6180  140.7010 C   0  0  0  0  0  1  0  0  0  0  0  0
  197.3960  173.6110  144.0740 O   0  0  0  0  0  1  0  0  0  0  0  0
  197.1540  174.3930  142.9800 C   0  0  2  0  0  3  0  0  0  0  0  0
  196.2110  176.7760  141.2730 C   0  0  0  0  0  2  0  0  0  0  0  0
  195.9620  175.4230  143.3340 C   0  0  0  0  0  0  0  0  0  0  0  0
  196.6930  173.5520  141.6900 C   0  0  0  0  0  2  0  0  0  0  0  0
  196.8340  174.3030  140.2640 C   0  0  2  0  0  3  0  0  0  0  0  0
  195.6090  175.7440  144.6660 N   0  0  0  0  0  2  0  0  0  0  0  0
  196.3530  175.8440  140.0730 C   0  0  1  0  0  3  0  0  0  0  0  0
  195.3640  174.7250  138.2970 C   0  0  0  0  0  0  0  0  0  0  0  0
  195.1440  174.6300  137.1200 C   0  0  0  0  0  0  0  0  0  0  0  0
  194.8040  174.4790  135.7880 C   0  0  0  0  0  2  0  0  0  0  0  0
  193.5510  172.7220  136.4110 C   0  0  0  0  0  2  0  0  0  0  0  0
  191.3610  173.6940  136.7060 C   0  0  1  0  0  3  0  0  0  0  0  0
  193.4950  174.0330  135.8510 N   0  0  0  0  0  0  0  0  0  0  0  0
  192.4920  174.7470  136.5650 C   0  0  0  0  0  2  0  0  0  0  0  0
  192.1020  172.3560  136.7410 C   0  0  0  0  0  2  0  0  0  0  0  0
  190.3800  173.4220  140.2290 C   0  0  1  0  0  3  0  0  0  0  0  0
  191.1980  172.5220  141.2150 C   0  0  0  0  0  1  0  0  0  0  0  0
  188.1970  173.7420  138.9390 C   0  0  0  0  0  2  0  0  0  0  0  0
  189.0530  173.4700  137.6080 C   0  0  0  0  0  2  0  0  0  0  0  0
  190.8510  172.8370  138.8760 C   0  0  0  0  0  2  0  0  0  0  0  0
  188.8250  173.2580  140.3140 C   0  0  0  0  0  2  0  0  0  0  0  0
  190.4110  173.7950  137.9020 N   0  0  1  0  0  0  0  0  0  0  0  0
  195.6220  174.9260  145.8910 C   0  0  0  0  0  2  0  0  0  0  0  0
  194.2520  174.0600  145.9380 C   0  0  1  0  0  3  0  0  0  0  0  0
  192.1070  175.2950  146.6220 C   0  0  0  0  0  2  0  0  0  0  0  0
  190.5960  175.1260  144.6300 C   0  0  2  0  0  0  0  0  0  0  0  0
  192.8400  174.6820  145.6450 C   0  0  1  0  0  3  0  0  0  0  0  0
  189.3010  177.2620  145.4490 N   0  0  0  0  0  0  0  0  0  0  0  0
  190.5780  177.0880  146.1360 C   0  0  0  0  0  2  0  0  0  0  0  0
  192.1150  174.8870  144.3270 C   0  0  0  0  0  2  0  0  0  0  0  0
  190.7110  175.5990  146.1770 C   0  0  2  0  0  3  0  0  0  0  0  0
  187.8460  177.2060  147.2640 O   0  0  0  0  0  0  0  0  0  0  0  0
  189.3500  177.2240  144.0180 C   0  0  0  0  0  2  0  0  0  0  0  0
  189.6670  173.9460  144.5180 C   0  0  0  0  0  1  0  0  0  0  0  0
  188.0550  177.0390  146.0320 C   0  0  0  0  0  0  0  0  0  0  0  0
  190.1810  176.0890  143.4780 C   0  0  0  0  0  2  0  0  0  0  0  0
  186.9510  176.8980  145.1640 O   0  0  0  0  0  0  0  0  0  0  0  0
  185.7190  177.2720  145.6090 C   0  0  0  0  0  0  0  0  0  0  0  0
  185.0780  176.4600  146.3120 O   0  0  0  0  0  0  0  0  0  0  0  0
  185.9610  179.6400  144.5810 F   0  0  0  0  0  0  0  0  0  0  0  0
  185.3970  179.3800  146.8060 F   0  0  0  0  0  0  0  0  0  0  0  0
  183.9880  178.8280  145.1200 F   0  0  0  0  0  0  0  0  0  0  0  0
  185.3250  178.8050  145.4950 C   0  0  0  0  0  0  0  0  0  0  0  0
  194.4130  173.1150  144.9630 O   0  0  0  0  0  0  0  0  0  0  0  0
  193.2490  171.1770  144.2620 C   0  0  0  0  0  1  0  0  0  0  0  0
  193.7880  171.9690  145.4400 C   0  0  0  0  0  2  0  0  0  0  0  0
  1 11  1  0  0  0  0
  1  9  1  0  0  0  0
  1  3  1  1  0  0  0
  2  7  2  0  0  0  0
  5  7  1  0  0  0  0
  5  4  1  1  0  0  0
  6  2  1  0  0  0  0
  7 10  1  0  0  0  0
  8  5  1  0  0  0  0
  9  8  1  1  0  0  0
 10 27  1  0  0  0  0
 11  9  1  0  0  0  0
 11  6  1  1  0  0  0
 12  1  1  0  0  0  0
 13 12  3  0  0  0  0
 14 17  1  0  0  0  0
 14 13  1  0  0  0  0
 15 19  1  0  0  0  0
 16 18  1  1  0  0  0
 16 19  1  0  0  0  0
 16 26  1  0  0  0  0
 17 15  1  0  0  0  0
 17 18  1  0  0  0  0
 20 25  1  0  0  0  0
 20 21  1  1  0  0  0
 22 25  1  0  0  0  0
 23 22  1  0  0  0  0
 24 20  1  0  0  0  0
 26 23  1  6  0  0  0
 26 24  1  0  0  0  0
 28 27  1  6  0  0  0
 30 38  1  6  0  0  0
 30 35  1  0  0  0  0
 31 28  1  6  0  0  0
 31 29  1  0  0  0  0
 32 39  1  0  0  0  0
 32 33  1  0  0  0  0
 34 30  1  0  0  0  0
 34 31  1  0  0  0  0
 35 33  1  6  0  0  0
 35 29  1  0  0  0  0
 37 32  1  0  0  0  0
 39 36  2  0  0  0  0
 40 37  1  0  0  0  0
 40 30  1  0  0  0  0
 41 42  1  0  0  0  0
 41 39  1  0  0  0  0
 42 43  2  0  0  0  0
 44 47  1  0  0  0  0
 46 47  1  0  0  0  0
 47 42  1  0  0  0  0
 47 45  1  0  0  0  0
 48 50  1  0  0  0  0
 48 28  1  0  0  0  0
 49 50  1  0  0  0  0
M  END
>  <MODEL>
6

>  <REMARK>
 VINA RESULT:      -6.9      3.707      8.412
  Name = 
  12 active torsions:
  status: ('A' for Active; 'I' for Inactive)
    1  A    between atoms: O_1  and  C_27
    2  A    between atoms: O_1  and  C_49
    3  A    between atoms: C_6  and  C_7
    4  A    between atoms: C_9  and  C_27
    5  A    between atoms: C_12  and  C_38
    6  A    between atoms: C_12  and  O_39
    7  A    between atoms: C_27  and  C_29
    8  A    between atoms: C_29  and  N_46
    9  A    between atoms: C_31  and  C_35
   10  A    between atoms: C_31  and  N_36
   11  A    between atoms: C_33  and  N_43
   12  A    between atoms: O_39  and  C_44
                            x       y       z     vdW  Elec       q    Type
                         _______ _______ _______ _____ _____    ______ ____

>  <TORSDO>
F 12

$$$$
=
 OpenBabel11062420543D

 50 55  0  0  1  0  0  0  0  0999 V2000
  188.6940  176.2300  146.6810 C   0  0  2  0  0  0  0  0  0  0  0  0
  191.6270  175.4080  146.8360 N   0  0  0  0  0  0  0  0  0  0  0  0
  188.9840  174.7410  147.2080 C   0  0  0  0  0  1  0  0  0  0  0  0
  191.8030  174.3770  143.3370 O   0  0  0  0  0  1  0  0  0  0  0  0
  191.3710  175.2430  144.3010 C   0  0  2  0  0  3  0  0  0  0  0  0
  191.2380  176.7860  146.9620 C   0  0  0  0  0  2  0  0  0  0  0  0
  191.9430  174.7550  145.7290 C   0  0  0  0  0  0  0  0  0  0  0  0
  189.7690  175.3050  144.4230 C   0  0  0  0  0  2  0  0  0  0  0  0
  189.1630  176.6010  145.1780 C   0  0  2  0  0  3  0  0  0  0  0  0
  193.0580  173.8920  145.8430 N   0  0  0  0  0  2  0  0  0  0  0  0
  189.8070  177.1410  146.5700 C   0  0  1  0  0  3  0  0  0  0  0  0
  187.5330  177.0160  147.0170 C   0  0  0  0  0  0  0  0  0  0  0  0
  186.4630  177.5090  147.2530 C   0  0  0  0  0  0  0  0  0  0  0  0
  185.1920  178.0070  147.4690 C   0  0  0  0  0  2  0  0  0  0  0  0
  185.5140  179.4640  145.7910 C   0  0  0  0  0  2  0  0  0  0  0  0
  184.6550  178.2810  143.8710 C   0  0  1  0  0  3  0  0  0  0  0  0
  184.7610  178.3210  146.1920 N   0  0  0  0  0  0  0  0  0  0  0  0
  184.8320  177.3830  145.1240 C   0  0  0  0  0  2  0  0  0  0  0  0
  185.2450  179.6280  144.2930 C   0  0  0  0  0  2  0  0  0  0  0  0
  187.4010  177.4380  141.5900 C   0  0  1  0  0  3  0  0  0  0  0  0
  188.8530  177.9540  141.8690 C   0  0  0  0  0  1  0  0  0  0  0  0
  185.3210  177.6060  140.1150 C   0  0  0  0  0  2  0  0  0  0  0  0
  184.5900  178.2660  141.3830 C   0  0  0  0  0  2  0  0  0  0  0  0
  186.5940  178.4130  142.4810 C   0  0  0  0  0  2  0  0  0  0  0  0
  186.9080  177.6080  140.1130 C   0  0  0  0  0  2  0  0  0  0  0  0
  185.2850  177.8280  142.5500 N   0  0  1  0  0  0  0  0  0  0  0  0
  193.5110  172.7830  144.9860 C   0  0  0  0  0  2  0  0  0  0  0  0
  195.0200  173.1090  144.4900 C   0  0  1  0  0  3  0  0  0  0  0  0
  194.8910  174.1650  142.1530 C   0  0  0  0  0  2  0  0  0  0  0  0
  196.1620  172.6030  140.6620 C   0  0  2  0  0  0  0  0  0  0  0  0
  195.4160  173.2060  142.9730 C   0  0  1  0  0  3  0  0  0  0  0  0
  196.5760  174.5760  138.9730 N   0  0  0  0  0  0  0  0  0  0  0  0
  196.1110  175.0460  140.2750 C   0  0  0  0  0  2  0  0  0  0  0  0
  196.4820  172.4620  142.1890 C   0  0  0  0  0  2  0  0  0  0  0  0
  195.2230  173.9250  140.7140 C   0  0  2  0  0  3  0  0  0  0  0  0
  194.8890  175.4090  137.6060 O   0  0  0  0  0  0  0  0  0  0  0  0
  197.7020  173.6890  138.9940 C   0  0  0  0  0  2  0  0  0  0  0  0
  195.4250  171.4730  139.9940 C   0  0  0  0  0  1  0  0  0  0  0  0
  195.8020  174.5660  137.8150 C   0  0  0  0  0  0  0  0  0  0  0  0
  197.5850  172.6000  140.0280 C   0  0  0  0  0  2  0  0  0  0  0  0
  196.2530  173.7660  136.7430 O   0  0  0  0  0  0  0  0  0  0  0  0
  195.4370  173.6000  135.6640 C   0  0  0  0  0  0  0  0  0  0  0  0
  195.8100  174.0760  134.5690 O   0  0  0  0  0  0  0  0  0  0  0  0
  193.9870  171.9100  136.9930 F   0  0  0  0  0  0  0  0  0  0  0  0
  194.4280  171.5680  134.7510 F   0  0  0  0  0  0  0  0  0  0  0  0
  193.0930  173.2430  135.4870 F   0  0  0  0  0  0  0  0  0  0  0  0
  194.2570  172.5460  135.7850 C   0  0  0  0  0  0  0  0  0  0  0  0
  195.2790  174.3570  144.9850 O   0  0  0  0  0  0  0  0  0  0  0  0
  196.9410  173.3920  146.3680 C   0  0  0  0  0  1  0  0  0  0  0  0
  196.6420  174.3820  145.2560 C   0  0  0  0  0  2  0  0  0  0  0  0
  1 12  1  0  0  0  0
  1  3  1  1  0  0  0
  2  6  1  0  0  0  0
  5  4  1  6  0  0  0
  5  8  1  0  0  0  0
  5  7  1  0  0  0  0
  7 10  1  0  0  0  0
  7  2  2  0  0  0  0
  9  8  1  1  0  0  0
  9 11  1  0  0  0  0
  9  1  1  0  0  0  0
 11  1  1  0  0  0  0
 11  6  1  1  0  0  0
 12 13  3  0  0  0  0
 13 14  1  0  0  0  0
 15 17  1  0  0  0  0
 16 19  1  1  0  0  0
 16 18  1  0  0  0  0
 17 14  1  0  0  0  0
 18 17  1  0  0  0  0
 19 15  1  0  0  0  0
 20 21  1  6  0  0  0
 20 24  1  0  0  0  0
 22 23  1  0  0  0  0
 24 26  1  0  0  0  0
 25 22  1  0  0  0  0
 25 20  1  0  0  0  0
 26 23  1  6  0  0  0
 26 16  1  0  0  0  0
 27 10  1  0  0  0  0
 28 48  1  0  0  0  0
 28 27  1  6  0  0  0
 29 31  1  0  0  0  0
 30 38  1  6  0  0  0
 30 35  1  0  0  0  0
 30 34  1  0  0  0  0
 31 28  1  1  0  0  0
 32 37  1  0  0  0  0
 32 33  1  0  0  0  0
 34 31  1  0  0  0  0
 35 33  1  1  0  0  0
 35 29  1  0  0  0  0
 36 39  2  0  0  0  0
 37 40  1  0  0  0  0
 39 32  1  0  0  0  0
 40 30  1  0  0  0  0
 41 39  1  0  0  0  0
 42 47  1  0  0  0  0
 42 41  1  0  0  0  0
 43 42  2  0  0  0  0
 45 47  1  0  0  0  0
 46 47  1  0  0  0  0
 47 44  1  0  0  0  0
 48 50  1  0  0  0  0
 50 49  1  0  0  0  0
M  END
>  <MODEL>
7

>  <REMARK>
 VINA RESULT:      -6.8      2.810      3.373
  Name = 
  12 active torsions:
  status: ('A' for Active; 'I' for Inactive)
    1  A    between atoms: O_1  and  C_27
    2  A    between atoms: O_1  and  C_49
    3  A    between atoms: C_6  and  C_7
    4  A    between atoms: C_9  and  C_27
    5  A    between atoms: C_12  and  C_38
    6  A    between atoms: C_12  and  O_39
    7  A    between atoms: C_27  and  C_29
    8  A    between atoms: C_29  and  N_46
    9  A    between atoms: C_31  and  C_35
   10  A    between atoms: C_31  and  N_36
   11  A    between atoms: C_33  and  N_43
   12  A    between atoms: O_39  and  C_44
                            x       y       z     vdW  Elec       q    Type
                         _______ _______ _______ _____ _____    ______ ____

>  <TORSDO>
F 12

$$$$
=
 OpenBabel11062420543D

 50 55  0  0  1  0  0  0  0  0999 V2000
  189.2520  176.8110  146.6820 C   0  0  2  0  0  0  0  0  0  0  0  0
  191.9700  176.5370  145.3260 N   0  0  0  0  0  0  0  0  0  0  0  0
  190.5140  176.6250  147.6580 C   0  0  0  0  0  1  0  0  0  0  0  0
  191.6450  172.9380  144.7960 O   0  0  0  0  0  1  0  0  0  0  0  0
  191.1030  174.1920  144.8060 C   0  0  2  0  0  3  0  0  0  0  0  0
  190.9010  177.2630  144.6970 C   0  0  0  0  0  2  0  0  0  0  0  0
  192.2550  175.2500  145.2040 C   0  0  0  0  0  0  0  0  0  0  0  0
  189.9120  174.3580  145.8730 C   0  0  0  0  0  2  0  0  0  0  0  0
  188.9220  175.6170  145.6440 C   0  0  2  0  0  3  0  0  0  0  0  0
  193.6320  174.9540  145.0770 N   0  0  0  0  0  2  0  0  0  0  0  0
  189.5050  177.0930  145.2900 C   0  0  1  0  0  3  0  0  0  0  0  0
  188.0240  177.4790  147.0340 C   0  0  0  0  0  0  0  0  0  0  0  0
  186.9710  178.0490  147.1350 C   0  0  0  0  0  0  0  0  0  0  0  0
  185.7720  178.7370  147.1590 C   0  0  0  0  0  2  0  0  0  0  0  0
  184.6520  179.4010  145.3290 C   0  0  0  0  0  2  0  0  0  0  0  0
  184.8160  177.4880  143.8670 C   0  0  1  0  0  3  0  0  0  0  0  0
  185.1160  178.2550  146.0400 N   0  0  0  0  0  0  0  0  0  0  0  0
  185.7650  177.4140  145.0930 C   0  0  0  0  0  2  0  0  0  0  0  0
  184.1870  178.8790  143.9670 C   0  0  0  0  0  2  0  0  0  0  0  0
  187.2740  176.3030  141.4170 C   0  0  1  0  0  3  0  0  0  0  0  0
  188.7300  175.9390  141.8630 C   0  0  0  0  0  1  0  0  0  0  0  0
  185.7740  177.9330  140.1410 C   0  0  0  0  0  2  0  0  0  0  0  0
  185.1930  178.3710  141.5720 C   0  0  0  0  0  2  0  0  0  0  0  0
  186.8290  177.1640  142.6230 C   0  0  0  0  0  2  0  0  0  0  0  0
  187.1750  177.1870  140.1270 C   0  0  0  0  0  2  0  0  0  0  0  0
  185.4070  177.2830  142.4700 N   0  0  1  0  0  0  0  0  0  0  0  0
  194.3670  173.6890  145.2500 C   0  0  0  0  0  2  0  0  0  0  0  0
  195.2080  173.4010  143.8950 C   0  0  1  0  0  3  0  0  0  0  0  0
  194.0780  171.9180  142.1300 C   0  0  0  0  0  2  0  0  0  0  0  0
  193.8810  173.3650  140.0940 C   0  0  2  0  0  0  0  0  0  0  0  0
  194.5250  173.1540  142.5030 C   0  0  1  0  0  3  0  0  0  0  0  0
  191.8970  171.8660  139.2380 N   0  0  0  0  0  0  0  0  0  0  0  0
  192.2050  171.6310  140.6470 C   0  0  0  0  0  2  0  0  0  0  0  0
  194.0860  174.1440  141.4380 C   0  0  0  0  0  2  0  0  0  0  0  0
  193.6810  171.8690  140.6880 C   0  0  2  0  0  3  0  0  0  0  0  0
  192.2410  169.7310  138.3800 O   0  0  0  0  0  0  0  0  0  0  0  0
  191.6900  173.2330  138.8630 C   0  0  0  0  0  2  0  0  0  0  0  0
  195.0100  173.3780  139.0980 C   0  0  0  0  0  1  0  0  0  0  0  0
  192.1970  170.9790  138.2060 C   0  0  0  0  0  0  0  0  0  0  0  0
  192.7290  174.1700  139.4230 C   0  0  0  0  0  2  0  0  0  0  0  0
  192.1720  171.4870  136.8900 O   0  0  0  0  0  0  0  0  0  0  0  0
  191.2540  170.9870  136.0160 C   0  0  0  0  0  0  0  0  0  0  0  0
  191.6520  170.1790  135.1460 O   0  0  0  0  0  0  0  0  0  0  0  0
  189.2730  172.3520  136.9820 F   0  0  0  0  0  0  0  0  0  0  0  0
  189.2720  170.0450  137.0950 F   0  0  0  0  0  0  0  0  0  0  0  0
  189.0510  171.1680  135.1400 F   0  0  0  0  0  0  0  0  0  0  0  0
  189.7180  171.1910  136.3580 C   0  0  0  0  0  0  0  0  0  0  0  0
  195.9520  174.5340  143.7090 O   0  0  0  0  0  0  0  0  0  0  0  0
  197.9120  173.5130  144.5570 C   0  0  0  0  0  1  0  0  0  0  0  0
  197.2200  174.0990  143.3400 C   0  0  0  0  0  2  0  0  0  0  0  0
  1 12  1  0  0  0  0
  1  3  1  1  0  0  0
  5  4  1  1  0  0  0
  5  7  1  0  0  0  0
  5  8  1  0  0  0  0
  6  2  1  0  0  0  0
  7  2  2  0  0  0  0
  9  8  1  1  0  0  0
  9  1  1  0  0  0  0
 10  7  1  0  0  0  0
 10 27  1  0  0  0  0
 11  6  1  1  0  0  0
 11  9  1  0  0  0  0
 11  1  1  0  0  0  0
 12 13  3  0  0  0  0
 13 14  1  0  0  0  0
 15 17  1  0  0  0  0
 16 19  1  6  0  0  0
 16 18  1  0  0  0  0
 17 14  1  0  0  0  0
 18 17  1  0  0  0  0
 19 15  1  0  0  0  0
 20 21  1  1  0  0  0
 20 24  1  0  0  0  0
 22 23  1  0  0  0  0
 25 22  1  0  0  0  0
 25 20  1  0  0  0  0
 26 23  1  6  0  0  0
 26 24  1  0  0  0  0
 26 16  1  0  0  0  0
 28 27  1  1  0  0  0
 29 31  1  0  0  0  0
 30 38  1  6  0  0  0
 30 35  1  0  0  0  0
 30 34  1  0  0  0  0
 31 28  1  1  0  0  0
 32 33  1  0  0  0  0
 34 31  1  0  0  0  0
 35 33  1  1  0  0  0
 35 29  1  0  0  0  0
 37 32  1  0  0  0  0
 37 40  1  0  0  0  0
 39 36  2  0  0  0  0
 39 32  1  0  0  0  0
 40 30  1  0  0  0  0
 41 39  1  0  0  0  0
 42 47  1  0  0  0  0
 42 41  1  0  0  0  0
 43 42  2  0  0  0  0
 46 47  1  0  0  0  0
 47 44  1  0  0  0  0
 47 45  1  0  0  0  0
 48 28  1  0  0  0  0
 50 48  1  0  0  0  0
 50 49  1  0  0  0  0
M  END
>  <MODEL>
8

>  <REMARK>
 VINA RESULT:      -6.8      1.392      1.933
  Name = 
  12 active torsions:
  status: ('A' for Active; 'I' for Inactive)
    1  A    between atoms: O_1  and  C_27
    2  A    between atoms: O_1  and  C_49
    3  A    between atoms: C_6  and  C_7
    4  A    between atoms: C_9  and  C_27
    5  A    between atoms: C_12  and  C_38
    6  A    between atoms: C_12  and  O_39
    7  A    between atoms: C_27  and  C_29
    8  A    between atoms: C_29  and  N_46
    9  A    between atoms: C_31  and  C_35
   10  A    between atoms: C_31  and  N_36
   11  A    between atoms: C_33  and  N_43
   12  A    between atoms: O_39  and  C_44
                            x       y       z     vdW  Elec       q    Type
                         _______ _______ _______ _____ _____    ______ ____

>  <TORSDO>
F 12

$$$$
=
 OpenBabel11062420543D

 50 55  0  0  1  0  0  0  0  0999 V2000
  193.1220  170.7880  143.7070 C   0  0  2  0  0  0  0  0  0  0  0  0
  190.9980  170.1750  141.6060 N   0  0  0  0  0  0  0  0  0  0  0  0
  191.7680  171.6470  143.7980 C   0  0  0  0  0  1  0  0  0  0  0  0
  192.4400  172.4120  139.1050 O   0  0  0  0  0  1  0  0  0  0  0  0
  192.5880  171.4840  140.0970 C   0  0  2  0  0  3  0  0  0  0  0  0
  191.9370  169.1700  142.0210 C   0  0  0  0  0  2  0  0  0  0  0  0
  191.1240  171.0390  140.6110 C   0  0  0  0  0  0  0  0  0  0  0  0
  193.3930  172.0440  141.3710 C   0  0  0  0  0  2  0  0  0  0  0  0
  194.0140  170.9290  142.3660 C   0  0  2  0  0  3  0  0  0  0  0  0
  189.9580  171.2270  139.8330 N   0  0  0  0  0  2  0  0  0  0  0  0
  193.1410  169.6400  142.8340 C   0  0  1  0  0  3  0  0  0  0  0  0
  193.9900  170.4910  144.8180 C   0  0  0  0  0  0  0  0  0  0  0  0
  194.8490  170.3470  145.6460 C   0  0  0  0  0  0  0  0  0  0  0  0
  195.9030  170.2010  146.5290 C   0  0  0  0  0  2  0  0  0  0  0  0
  197.2230  170.8730  144.8410 C   0  0  0  0  0  2  0  0  0  0  0  0
  197.4710  173.2380  145.2530 C   0  0  1  0  0  3  0  0  0  0  0  0
  196.7670  171.2130  146.1500 N   0  0  0  0  0  0  0  0  0  0  0  0
  196.3560  172.5740  146.1040 C   0  0  0  0  0  2  0  0  0  0  0  0
  197.9400  172.1200  144.3190 C   0  0  0  0  0  2  0  0  0  0  0  0
  195.2670  175.8180  143.8620 C   0  0  1  0  0  3  0  0  0  0  0  0
  193.7220  175.5800  143.7720 C   0  0  0  0  0  1  0  0  0  0  0  0
  197.4710  176.0480  142.5880 C   0  0  0  0  0  2  0  0  0  0  0  0
  197.8870  174.6420  143.2410 C   0  0  0  0  0  2  0  0  0  0  0  0
  195.7550  174.3580  144.0260 C   0  0  0  0  0  2  0  0  0  0  0  0
  195.9250  176.4070  142.5680 C   0  0  0  0  0  2  0  0  0  0  0  0
  197.1240  174.4860  144.4370 N   0  0  1  0  0  0  0  0  0  0  0  0
  189.5900  172.2970  138.8890 C   0  0  0  0  0  2  0  0  0  0  0  0
  188.2750  173.0510  139.4640 C   0  0  1  0  0  3  0  0  0  0  0  0
  188.7070  173.6820  141.9160 C   0  0  0  0  0  2  0  0  0  0  0  0
  187.8700  176.0330  142.1390 C   0  0  2  0  0  0  0  0  0  0  0  0
  188.3300  174.0680  140.6600 C   0  0  1  0  0  3  0  0  0  0  0  0
  189.4550  176.3850  144.2070 N   0  0  0  0  0  0  0  0  0  0  0  0
  189.7970  175.1900  143.4400 C   0  0  0  0  0  2  0  0  0  0  0  0
  188.1690  175.5780  140.6700 C   0  0  0  0  0  2  0  0  0  0  0  0
  188.4600  174.7490  142.9350 C   0  0  2  0  0  3  0  0  0  0  0  0
  189.0110  175.4310  146.2820 O   0  0  0  0  0  0  0  0  0  0  0  0
  189.3370  177.5990  143.4550 C   0  0  0  0  0  2  0  0  0  0  0  0
  186.4320  176.2610  142.5210 C   0  0  0  0  0  1  0  0  0  0  0  0
  188.8430  176.3710  145.4590 C   0  0  0  0  0  0  0  0  0  0  0  0
  188.5380  177.4400  142.1870 C   0  0  0  0  0  2  0  0  0  0  0  0
  188.2570  177.5750  145.9050 O   0  0  0  0  0  0  0  0  0  0  0  0
  186.9500  177.5610  146.2900 C   0  0  0  0  0  0  0  0  0  0  0  0
  186.1860  176.7360  145.7400 O   0  0  0  0  0  0  0  0  0  0  0  0
  185.8200  177.7160  148.6180 F   0  0  0  0  0  0  0  0  0  0  0  0
  185.9290  179.5680  147.2420 F   0  0  0  0  0  0  0  0  0  0  0  0
  187.7630  178.6740  148.2270 F   0  0  0  0  0  0  0  0  0  0  0  0
  186.5610  178.3370  147.6170 C   0  0  0  0  0  0  0  0  0  0  0  0
  187.8220  173.7950  138.4100 O   0  0  0  0  0  0  0  0  0  0  0  0
  188.6150  174.9050  136.4760 C   0  0  0  0  0  1  0  0  0  0  0  0
  188.8430  173.7780  137.4670 C   0  0  0  0  0  2  0  0  0  0  0  0
  1  3  1  1  0  0  0
  1 12  1  0  0  0  0
  2  6  1  0  0  0  0
  5  4  1  6  0  0  0
  5  7  1  0  0  0  0
  5  8  1  0  0  0  0
  7  2  2  0  0  0  0
  9  8  1  6  0  0  0
  9 11  1  0  0  0  0
  9  1  1  0  0  0  0
 10  7  1  0  0  0  0
 11  6  1  6  0  0  0
 11  1  1  0  0  0  0
 12 13  3  0  0  0  0
 13 14  1  0  0  0  0
 15 17  1  0  0  0  0
 16 19  1  6  0  0  0
 16 18  1  0  0  0  0
 17 14  1  0  0  0  0
 18 17  1  0  0  0  0
 19 15  1  0  0  0  0
 20 21  1  6  0  0  0
 20 24  1  0  0  0  0
 22 23  1  0  0  0  0
 24 26  1  0  0  0  0
 25 22  1  0  0  0  0
 25 20  1  0  0  0  0
 26 23  1  6  0  0  0
 26 16  1  0  0  0  0
 27 10  1  0  0  0  0
 28 27  1  6  0  0  0
 30 40  1  0  0  0  0
 30 38  1  1  0  0  0
 30 35  1  0  0  0  0
 31 28  1  6  0  0  0
 31 34  1  0  0  0  0
 31 29  1  0  0  0  0
 32 39  1  0  0  0  0
 33 32  1  0  0  0  0
 34 30  1  0  0  0  0
 35 29  1  6  0  0  0
 35 33  1  0  0  0  0
 37 32  1  0  0  0  0
 39 41  1  0  0  0  0
 39 36  2  0  0  0  0
 40 37  1  0  0  0  0
 41 42  1  0  0  0  0
 42 47  1  0  0  0  0
 43 42  2  0  0  0  0
 45 47  1  0  0  0  0
 47 46  1  0  0  0  0
 47 44  1  0  0  0  0
 48 28  1  0  0  0  0
 49 50  1  0  0  0  0
 50 48  1  0  0  0  0
M  END
>  <MODEL>
9

>  <REMARK>
 VINA RESULT:      -6.8      3.614      9.493
  Name = 
  12 active torsions:
  status: ('A' for Active; 'I' for Inactive)
    1  A    between atoms: O_1  and  C_27
    2  A    between atoms: O_1  and  C_49
    3  A    between atoms: C_6  and  C_7
    4  A    between atoms: C_9  and  C_27
    5  A    between atoms: C_12  and  C_38
    6  A    between atoms: C_12  and  O_39
    7  A    between atoms: C_27  and  C_29
    8  A    between atoms: C_29  and  N_46
    9  A    between atoms: C_31  and  C_35
   10  A    between atoms: C_31  and  N_36
   11  A    between atoms: C_33  and  N_43
   12  A    between atoms: O_39  and  C_44
                            x       y       z     vdW  Elec       q    Type
                         _______ _______ _______ _____ _____    ______ ____

>  <TORSDO>
F 12

$$$$
