=
 OpenBabel11062421093D

 27 32  0  0  1  0  0  0  0  0999 V2000
  184.7680  177.9040  143.0720 C   0  0  0  0  0  0  0  0  0  0  0  0
  184.5040  177.9280  144.3930 N   0  0  0  0  0  0  0  0  0  0  0  0
  187.9370  176.4620  141.0130 Cl  0  0  0  0  0  0  0  0  0  0  0  0
  185.9750  177.3130  142.7820 C   0  0  0  0  0  0  0  0  0  0  0  0
  189.9310  174.9180  146.8230 C   0  0  1  0  0  3  0  0  0  0  0  0
  186.6530  176.6100  147.0520 N   0  0  0  0  0  0  0  0  0  0  0  0
  186.5400  176.9220  143.9800 C   0  0  0  0  0  0  0  0  0  0  0  0
  188.3140  175.8950  145.3590 C   0  0  0  0  0  0  0  0  0  0  0  0
  185.5650  177.3350  144.9850 C   0  0  0  0  0  0  0  0  0  0  0  0
  190.6860  176.0160  146.0790 C   0  0  2  0  0  3  0  0  0  0  0  0
  183.9460  178.4100  142.0710 C   0  0  0  0  0  3  0  0  0  0  0  0
  185.6400  177.1850  146.3580 C   0  0  0  0  0  3  0  0  0  0  0  0
  188.7790  175.5080  147.6380 C   0  0  0  0  0  2  0  0  0  0  0  0
  186.4070  177.2040  141.4530 C   0  0  0  0  0  0  0  0  0  0  0  0
  184.3960  178.2910  140.7460 C   0  0  0  0  0  3  0  0  0  0  0  0
  185.6000  177.7000  140.4710 N   0  0  0  0  0  0  0  0  0  0  0  0
  187.7520  176.2830  144.1520 C   0  0  0  0  0  3  0  0  0  0  0  0
  187.8160  176.0410  146.6440 C   0  0  0  0  0  0  0  0  0  0  0  0
  189.6250  175.1930  145.3570 C   0  0  1  0  0  3  0  0  0  0  0  0
  192.4840  175.5820  144.1020 C   0  0  0  0  0  0  0  0  0  0  0  0
  194.4750  176.0350  146.1380 C   0  0  0  0  0  3  0  0  0  0  0  0
  192.1060  175.6260  145.6110 C   0  0  1  0  0  3  0  0  0  0  0  0
  191.5760  174.6200  143.3580 C   0  0  0  0  0  1  0  0  0  0  0  0
  192.3880  176.9590  143.4600 C   0  0  0  0  0  1  0  0  0  0  0  0
  193.9030  175.0990  143.9500 C   0  0  0  0  0  3  0  0  0  0  0  0
  194.8330  175.3470  144.8820 C   0  0  0  0  0  3  0  0  0  0  0  0
  193.1960  176.2020  146.4790 C   0  0  0  0  0  3  0  0  0  0  0  0
  1  2  2  0  0  0  0
  2  9  1  0  0  0  0
  3 14  1  0  0  0  0
  4  1  1  0  0  0  0
  4  7  2  0  0  0  0
  5 13  1  1  0  0  0
  7 17  1  0  0  0  0
  7  9  1  0  0  0  0
  8 18  1  0  0  0  0
  9 12  2  0  0  0  0
 10 22  1  6  0  0  0
 10  5  1  0  0  0  0
 11  1  1  0  0  0  0
 12  6  1  0  0  0  0
 14  4  1  0  0  0  0
 15 11  2  0  0  0  0
 16 15  1  0  0  0  0
 16 14  2  0  0  0  0
 17  8  2  0  0  0  0
 18  6  2  0  0  0  0
 18 13  1  0  0  0  0
 19  8  1  1  0  0  0
 19 10  1  0  0  0  0
 19  5  1  0  0  0  0
 20 22  1  0  0  0  0
 21 27  2  0  0  0  0
 22 27  1  1  0  0  0
 23 20  1  0  0  0  0
 24 20  1  0  0  0  0
 25 20  1  0  0  0  0
 25 26  2  0  0  0  0
 26 21  1  0  0  0  0
M  END
>  <MODEL>
1

>  <REMARK>
 VINA RESULT:      -8.8      0.000      0.000
  Name = 
  1 active torsions:
  status: ('A' for Active; 'I' for Inactive)
    1  A    between atoms: C_12  and  C_13
                            x       y       z     vdW  Elec       q    Type
                         _______ _______ _______ _____ _____    ______ ____

>  <TORSDO>
F 1

$$$$
=
 OpenBabel11062421093D

 27 32  0  0  1  0  0  0  0  0999 V2000
  184.7880  177.8140  143.5800 C   0  0  0  0  0  0  0  0  0  0  0  0
  184.7440  177.6440  144.9160 N   0  0  0  0  0  0  0  0  0  0  0  0
  187.7460  177.1390  140.9040 Cl  0  0  0  0  0  0  0  0  0  0  0  0
  186.0020  177.4590  143.0400 C   0  0  0  0  0  0  0  0  0  0  0  0
  190.8650  175.2840  146.0960 C   0  0  1  0  0  3  0  0  0  0  0  0
  187.4640  176.3940  147.0280 N   0  0  0  0  0  0  0  0  0  0  0  0
  186.8050  177.0310  144.0780 C   0  0  0  0  0  0  0  0  0  0  0  0
  188.9070  176.1510  145.0300 C   0  0  0  0  0  0  0  0  0  0  0  0
  185.9610  177.1660  145.2610 C   0  0  0  0  0  0  0  0  0  0  0  0
  191.3260  176.5660  145.4080 C   0  0  2  0  0  3  0  0  0  0  0  0
  183.7500  178.2910  142.7880 C   0  0  0  0  0  3  0  0  0  0  0  0
  186.2810  176.8750  146.5750 C   0  0  0  0  0  3  0  0  0  0  0  0
  189.7900  175.5870  147.1430 C   0  0  0  0  0  2  0  0  0  0  0  0
  186.2200  177.5720  141.6600 C   0  0  0  0  0  0  0  0  0  0  0  0
  183.9890  178.3970  141.4080 C   0  0  0  0  0  3  0  0  0  0  0  0
  185.2010  178.0410  140.8830 N   0  0  0  0  0  0  0  0  0  0  0  0
  188.1060  176.5780  143.9830 C   0  0  0  0  0  3  0  0  0  0  0  0
  188.6120  176.0680  146.3810 C   0  0  0  0  0  0  0  0  0  0  0  0
  190.2850  175.6710  144.7420 C   0  0  1  0  0  3  0  0  0  0  0  0
  193.9760  176.0170  145.4410 C   0  0  0  0  0  0  0  0  0  0  0  0
  193.6930  175.6470  142.5950 C   0  0  0  0  0  3  0  0  0  0  0  0
  192.6890  176.4640  144.6890 C   0  0  1  0  0  3  0  0  0  0  0  0
  194.2500  176.9390  146.6150 C   0  0  0  0  0  1  0  0  0  0  0  0
  193.8620  174.5850  145.9450 C   0  0  0  0  0  1  0  0  0  0  0  0
  195.1570  176.0840  144.5070 C   0  0  0  0  0  3  0  0  0  0  0  0
  195.0240  175.8740  143.1910 C   0  0  0  0  0  3  0  0  0  0  0  0
  192.5850  175.8900  143.2990 C   0  0  0  0  0  3  0  0  0  0  0  0
  1  2  2  0  0  0  0
  2  9  1  0  0  0  0
  3 14  1  0  0  0  0
  4  1  1  0  0  0  0
  4  7  2  0  0  0  0
  5 13  1  1  0  0  0
  7  9  1  0  0  0  0
  8 18  1  0  0  0  0
  9 12  2  0  0  0  0
 10 22  1  6  0  0  0
 10  5  1  0  0  0  0
 11  1  1  0  0  0  0
 12  6  1  0  0  0  0
 14  4  1  0  0  0  0
 15 11  2  0  0  0  0
 16 15  1  0  0  0  0
 16 14  2  0  0  0  0
 17  7  1  0  0  0  0
 17  8  2  0  0  0  0
 18  6  2  0  0  0  0
 18 13  1  0  0  0  0
 19  8  1  1  0  0  0
 19 10  1  0  0  0  0
 19  5  1  0  0  0  0
 20 24  1  0  0  0  0
 20 23  1  0  0  0  0
 21 26  1  0  0  0  0
 21 27  2  0  0  0  0
 22 27  1  6  0  0  0
 22 20  1  0  0  0  0
 25 20  1  0  0  0  0
 26 25  2  0  0  0  0
M  END
>  <MODEL>
2

>  <REMARK>
 VINA RESULT:      -8.7      0.882      1.767
  Name = 
  1 active torsions:
  status: ('A' for Active; 'I' for Inactive)
    1  A    between atoms: C_12  and  C_13
                            x       y       z     vdW  Elec       q    Type
                         _______ _______ _______ _____ _____    ______ ____

>  <TORSDO>
F 1

$$$$
=
 OpenBabel11062421093D

 27 32  0  0  1  0  0  0  0  0999 V2000
  191.3430  171.9160  142.0060 C   0  0  0  0  0  0  0  0  0  0  0  0
  191.9430  172.0610  143.2030 N   0  0  0  0  0  0  0  0  0  0  0  0
  188.4520  174.0860  140.1900 Cl  0  0  0  0  0  0  0  0  0  0  0  0
  190.3970  172.8830  141.7640 C   0  0  0  0  0  0  0  0  0  0  0  0
  188.8610  177.5030  145.5090 C   0  0  1  0  0  3  0  0  0  0  0  0
  191.2460  174.6820  145.6660 N   0  0  0  0  0  0  0  0  0  0  0  0
  190.3690  173.7160  142.8650 C   0  0  0  0  0  0  0  0  0  0  0  0
  189.5430  175.6540  144.1530 C   0  0  0  0  0  0  0  0  0  0  0  0
  191.3750  173.1530  143.7620 C   0  0  0  0  0  0  0  0  0  0  0  0
  187.5880  176.6930  145.2790 C   0  0  2  0  0  3  0  0  0  0  0  0
  191.6150  170.9150  141.0780 C   0  0  0  0  0  3  0  0  0  0  0  0
  191.7480  173.6040  145.0160 C   0  0  0  0  0  3  0  0  0  0  0  0
  189.9080  176.6690  146.2500 C   0  0  0  0  0  2  0  0  0  0  0  0
  189.6760  172.8820  140.5620 C   0  0  0  0  0  0  0  0  0  0  0  0
  190.8820  170.9320  139.8800 C   0  0  0  0  0  3  0  0  0  0  0  0
  189.9420  171.9000  139.6530 N   0  0  0  0  0  0  0  0  0  0  0  0
  189.5660  174.8240  143.0440 C   0  0  0  0  0  3  0  0  0  0  0  0
  190.2960  175.5870  145.3140 C   0  0  0  0  0  0  0  0  0  0  0  0
  188.6240  176.8240  144.1660 C   0  0  1  0  0  3  0  0  0  0  0  0
  185.3390  177.9620  146.0890 C   0  0  0  0  0  0  0  0  0  0  0  0
  185.6090  179.4880  143.6580 C   0  0  0  0  0  3  0  0  0  0  0  0
  186.3300  177.5340  144.9690 C   0  0  1  0  0  3  0  0  0  0  0  0
  184.7950  176.7410  146.8080 C   0  0  0  0  0  1  0  0  0  0  0  0
  186.0020  178.8850  147.1010 C   0  0  0  0  0  1  0  0  0  0  0  0
  184.1760  178.7030  145.4810 C   0  0  0  0  0  3  0  0  0  0  0  0
  184.3180  179.4420  144.3720 C   0  0  0  0  0  3  0  0  0  0  0  0
  186.5770  178.6170  143.9490 C   0  0  0  0  0  3  0  0  0  0  0  0
  1  2  2  0  0  0  0
  2  9  1  0  0  0  0
  3 14  1  0  0  0  0
  4  1  1  0  0  0  0
  4  7  2  0  0  0  0
  5 13  1  1  0  0  0
  7 17  1  0  0  0  0
  7  9  1  0  0  0  0
  8 18  1  0  0  0  0
  9 12  2  0  0  0  0
 10 22  1  6  0  0  0
 10  5  1  0  0  0  0
 11  1  1  0  0  0  0
 12  6  1  0  0  0  0
 14  4  1  0  0  0  0
 15 11  2  0  0  0  0
 16 15  1  0  0  0  0
 16 14  2  0  0  0  0
 17  8  2  0  0  0  0
 18  6  2  0  0  0  0
 18 13  1  0  0  0  0
 19  8  1  1  0  0  0
 19 10  1  0  0  0  0
 19  5  1  0  0  0  0
 20 23  1  0  0  0  0
 20 24  1  0  0  0  0
 21 27  2  0  0  0  0
 21 26  1  0  0  0  0
 22 27  1  1  0  0  0
 22 20  1  0  0  0  0
 25 20  1  0  0  0  0
 26 25  2  0  0  0  0
M  END
>  <MODEL>
3

>  <REMARK>
 VINA RESULT:      -8.2      3.149      7.014
  Name = 
  1 active torsions:
  status: ('A' for Active; 'I' for Inactive)
    1  A    between atoms: C_12  and  C_13
                            x       y       z     vdW  Elec       q    Type
                         _______ _______ _______ _____ _____    ______ ____

>  <TORSDO>
F 1

$$$$
=
 OpenBabel11062421093D

 27 32  0  0  1  0  0  0  0  0999 V2000
  194.0770  174.7500  143.8960 C   0  0  0  0  0  0  0  0  0  0  0  0
  193.6450  174.4940  142.6460 N   0  0  0  0  0  0  0  0  0  0  0  0
  192.0850  175.9180  147.2180 Cl  0  0  0  0  0  0  0  0  0  0  0  0
  193.0610  175.1270  144.7430 C   0  0  0  0  0  0  0  0  0  0  0  0
  187.1130  175.6420  143.3030 C   0  0  1  0  0  3  0  0  0  0  0  0
  190.1850  174.7260  141.4640 N   0  0  0  0  0  0  0  0  0  0  0  0
  191.8900  175.1170  144.0100 C   0  0  0  0  0  0  0  0  0  0  0  0
  189.4550  175.4160  143.7280 C   0  0  0  0  0  0  0  0  0  0  0  0
  192.3100  174.7070  142.6730 C   0  0  0  0  0  0  0  0  0  0  0  0
  187.5590  177.0170  143.7920 C   0  0  2  0  0  3  0  0  0  0  0  0
  195.3940  174.6610  144.3340 C   0  0  0  0  0  3  0  0  0  0  0  0
  191.5250  174.5410  141.5460 C   0  0  0  0  0  3  0  0  0  0  0  0
  187.8420  175.2610  142.0140 C   0  0  0  0  0  2  0  0  0  0  0  0
  193.3340  175.4300  146.0830 C   0  0  0  0  0  0  0  0  0  0  0  0
  195.6470  174.9690  145.6810 C   0  0  0  0  0  3  0  0  0  0  0  0
  194.6270  175.3420  146.5130 N   0  0  0  0  0  0  0  0  0  0  0  0
  190.6260  175.4260  144.4700 C   0  0  0  0  0  3  0  0  0  0  0  0
  189.2670  175.1000  142.3920 C   0  0  0  0  0  0  0  0  0  0  0  0
  188.1690  175.7560  144.3940 C   0  0  1  0  0  3  0  0  0  0  0  0
  185.4610  178.6490  144.3050 C   0  0  0  0  0  0  0  0  0  0  0  0
  185.2560  177.2080  146.7950 C   0  0  0  0  0  3  0  0  0  0  0  0
  186.5940  177.6980  144.7880 C   0  0  1  0  0  3  0  0  0  0  0  0
  186.0430  179.8050  143.5130 C   0  0  0  0  0  1  0  0  0  0  0  0
  184.4410  177.9150  143.4460 C   0  0  0  0  0  1  0  0  0  0  0  0
  184.7350  179.2180  145.4980 C   0  0  0  0  0  3  0  0  0  0  0  0
  184.6110  178.5270  146.6380 C   0  0  0  0  0  3  0  0  0  0  0  0
  186.1670  176.7910  145.9150 C   0  0  0  0  0  3  0  0  0  0  0  0
  1 11  2  0  0  0  0
  1  4  1  0  0  0  0
  2  9  2  0  0  0  0
  2  1  1  0  0  0  0
  4 14  2  0  0  0  0
  5 13  1  6  0  0  0
  5 10  1  0  0  0  0
  5 19  1  0  0  0  0
  6 12  2  0  0  0  0
  6 18  1  0  0  0  0
  7 17  2  0  0  0  0
  7  4  1  0  0  0  0
  8 17  1  0  0  0  0
  9  7  1  0  0  0  0
 10 19  1  0  0  0  0
 10 22  1  1  0  0  0
 11 15  1  0  0  0  0
 12  9  1  0  0  0  0
 13 18  1  0  0  0  0
 14 16  1  0  0  0  0
 14  3  1  0  0  0  0
 15 16  2  0  0  0  0
 18  8  2  0  0  0  0
 19  8  1  6  0  0  0
 20 22  1  0  0  0  0
 20 25  1  0  0  0  0
 22 27  1  6  0  0  0
 23 20  1  0  0  0  0
 24 20  1  0  0  0  0
 25 26  2  0  0  0  0
 26 21  1  0  0  0  0
 27 21  2  0  0  0  0
M  END
>  <MODEL>
4

>  <REMARK>
 VINA RESULT:      -8.2      3.170      7.938
  Name = 
  1 active torsions:
  status: ('A' for Active; 'I' for Inactive)
    1  A    between atoms: C_12  and  C_13
                            x       y       z     vdW  Elec       q    Type
                         _______ _______ _______ _____ _____    ______ ____

>  <TORSDO>
F 1

$$$$
=
 OpenBabel11062421093D

 27 32  0  0  1  0  0  0  0  0999 V2000
  185.6260  177.3740  145.2600 C   0  0  0  0  0  0  0  0  0  0  0  0
  185.5260  176.7910  144.0500 N   0  0  0  0  0  0  0  0  0  0  0  0
  188.8270  178.0510  147.6380 Cl  0  0  0  0  0  0  0  0  0  0  0  0
  186.9170  177.4060  145.7300 C   0  0  0  0  0  0  0  0  0  0  0  0
  191.8990  175.2430  142.8620 C   0  0  1  0  0  3  0  0  0  0  0  0
  188.2860  175.3880  142.0920 N   0  0  0  0  0  0  0  0  0  0  0  0
  187.7170  176.8090  144.7760 C   0  0  0  0  0  0  0  0  0  0  0  0
  189.8810  176.0310  143.8750 C   0  0  0  0  0  0  0  0  0  0  0  0
  186.7860  176.4300  143.7170 C   0  0  0  0  0  0  0  0  0  0  0  0
  191.8040  174.4930  144.1870 C   0  0  2  0  0  3  0  0  0  0  0  0
  184.5700  177.9030  145.9960 C   0  0  0  0  0  3  0  0  0  0  0  0
  187.0660  175.7910  142.5230 C   0  0  0  0  0  3  0  0  0  0  0  0
  190.7030  174.9160  141.9660 C   0  0  0  0  0  2  0  0  0  0  0  0
  187.2020  177.9790  146.9770 C   0  0  0  0  0  0  0  0  0  0  0  0
  184.8760  178.4730  147.2420 C   0  0  0  0  0  3  0  0  0  0  0  0
  186.1660  178.4970  147.6990 N   0  0  0  0  0  0  0  0  0  0  0  0
  189.0850  176.6330  144.8370 C   0  0  0  0  0  3  0  0  0  0  0  0
  189.5180  175.4840  142.6550 C   0  0  0  0  0  0  0  0  0  0  0  0
  191.3490  175.9460  144.0970 C   0  0  1  0  0  3  0  0  0  0  0  0
  194.1970  173.2960  144.6020 C   0  0  0  0  0  0  0  0  0  0  0  0
  194.9410  175.7660  145.8910 C   0  0  0  0  0  3  0  0  0  0  0  0
  193.1350  174.3740  144.9640 C   0  0  1  0  0  3  0  0  0  0  0  0
  193.5940  171.9070  144.6970 C   0  0  0  0  0  1  0  0  0  0  0  0
  194.7540  173.5060  143.2010 C   0  0  0  0  0  1  0  0  0  0  0  0
  195.3480  173.3740  145.5720 C   0  0  0  0  0  3  0  0  0  0  0  0
  195.7120  174.5320  146.1380 C   0  0  0  0  0  3  0  0  0  0  0  0
  193.7400  175.7110  145.3100 C   0  0  0  0  0  3  0  0  0  0  0  0
  1  4  2  0  0  0  0
  1 11  1  0  0  0  0
  2  1  1  0  0  0  0
  4 14  1  0  0  0  0
  5 13  1  6  0  0  0
  5 19  1  0  0  0  0
  5 10  1  0  0  0  0
  6 12  2  0  0  0  0
  6 18  1  0  0  0  0
  7 17  2  0  0  0  0
  7  4  1  0  0  0  0
  8 17  1  0  0  0  0
  9  2  2  0  0  0  0
  9  7  1  0  0  0  0
 10 22  1  1  0  0  0
 11 15  2  0  0  0  0
 12  9  1  0  0  0  0
 13 18  1  0  0  0  0
 14  3  1  0  0  0  0
 14 16  2  0  0  0  0
 15 16  1  0  0  0  0
 18  8  2  0  0  0  0
 19  8  1  6  0  0  0
 19 10  1  0  0  0  0
 20 23  1  0  0  0  0
 20 22  1  0  0  0  0
 20 25  1  0  0  0  0
 21 26  1  0  0  0  0
 22 27  1  6  0  0  0
 24 20  1  0  0  0  0
 25 26  2  0  0  0  0
 27 21  2  0  0  0  0
M  END
>  <MODEL>
5

>  <REMARK>
 VINA RESULT:      -7.8      2.386      3.904
  Name = 
  1 active torsions:
  status: ('A' for Active; 'I' for Inactive)
    1  A    between atoms: C_12  and  C_13
                            x       y       z     vdW  Elec       q    Type
                         _______ _______ _______ _____ _____    ______ ____

>  <TORSDO>
F 1

$$$$
=
 OpenBabel11062421093D

 27 32  0  0  1  0  0  0  0  0999 V2000
  183.9320  178.4030  142.3350 C   0  0  0  0  0  0  0  0  0  0  0  0
  183.4530  178.6660  143.5670 N   0  0  0  0  0  0  0  0  0  0  0  0
  187.4440  176.8050  141.1240 Cl  0  0  0  0  0  0  0  0  0  0  0  0
  185.1900  177.8500  142.3600 C   0  0  0  0  0  0  0  0  0  0  0  0
  188.5120  176.5620  147.3620 C   0  0  1  0  0  3  0  0  0  0  0  0
  185.1830  178.0400  146.7360 N   0  0  0  0  0  0  0  0  0  0  0  0
  185.5640  177.7390  143.6850 C   0  0  0  0  0  0  0  0  0  0  0  0
  187.1230  177.1230  145.4990 C   0  0  0  0  0  0  0  0  0  0  0  0
  184.4240  178.2730  144.4230 C   0  0  0  0  0  0  0  0  0  0  0  0
  189.3400  177.5420  146.5360 C   0  0  2  0  0  3  0  0  0  0  0  0
  183.2670  178.6470  141.1380 C   0  0  0  0  0  3  0  0  0  0  0  0
  184.2780  178.3990  145.7930 C   0  0  0  0  0  3  0  0  0  0  0  0
  187.2220  177.2200  147.8530 C   0  0  0  0  0  2  0  0  0  0  0  0
  185.8380  177.5130  141.1640 C   0  0  0  0  0  0  0  0  0  0  0  0
  183.9330  178.3030  139.9500 C   0  0  0  0  0  3  0  0  0  0  0  0
  185.1850  177.7520  139.9890 N   0  0  0  0  0  0  0  0  0  0  0  0
  186.7530  177.2300  144.1680 C   0  0  0  0  0  3  0  0  0  0  0  0
  186.4170  177.4830  146.6360 C   0  0  0  0  0  0  0  0  0  0  0  0
  188.4400  176.5240  145.8420 C   0  0  1  0  0  3  0  0  0  0  0  0
  191.6510  176.5810  147.5650 C   0  0  0  0  0  0  0  0  0  0  0  0
  192.3650  176.0320  144.8260 C   0  0  0  0  0  3  0  0  0  0  0  0
  190.8300  177.1660  146.3800 C   0  0  1  0  0  3  0  0  0  0  0  0
  191.6380  177.5400  148.7420 C   0  0  0  0  0  1  0  0  0  0  0  0
  191.1080  175.2320  148.0130 C   0  0  0  0  0  1  0  0  0  0  0  0
  193.0840  176.3830  147.1390 C   0  0  0  0  0  3  0  0  0  0  0  0
  193.4050  176.0910  145.8720 C   0  0  0  0  0  3  0  0  0  0  0  0
  191.1400  176.5050  145.0610 C   0  0  0  0  0  3  0  0  0  0  0  0
  1  4  1  0  0  0  0
  1  2  2  0  0  0  0
  2  9  1  0  0  0  0
  3 14  1  0  0  0  0
  4  7  2  0  0  0  0
  5 13  1  1  0  0  0
  7 17  1  0  0  0  0
  7  9  1  0  0  0  0
  8 18  1  0  0  0  0
  9 12  2  0  0  0  0
 10 22  1  6  0  0  0
 10  5  1  0  0  0  0
 11  1  1  0  0  0  0
 12  6  1  0  0  0  0
 14  4  1  0  0  0  0
 15 16  1  0  0  0  0
 15 11  2  0  0  0  0
 16 14  2  0  0  0  0
 17  8  2  0  0  0  0
 18  6  2  0  0  0  0
 18 13  1  0  0  0  0
 19  8  1  1  0  0  0
 19 10  1  0  0  0  0
 19  5  1  0  0  0  0
 20 24  1  0  0  0  0
 20 23  1  0  0  0  0
 21 27  2  0  0  0  0
 21 26  1  0  0  0  0
 22 27  1  6  0  0  0
 22 20  1  0  0  0  0
 25 20  1  0  0  0  0
 26 25  2  0  0  0  0
M  END
>  <MODEL>
6

>  <REMARK>
 VINA RESULT:      -7.7      1.372      2.414
  Name = 
  1 active torsions:
  status: ('A' for Active; 'I' for Inactive)
    1  A    between atoms: C_12  and  C_13
                            x       y       z     vdW  Elec       q    Type
                         _______ _______ _______ _____ _____    ______ ____

>  <TORSDO>
F 1

$$$$
=
 OpenBabel11062421093D

 27 32  0  0  1  0  0  0  0  0999 V2000
  186.7890  176.4690  139.1050 C   0  0  0  0  0  0  0  0  0  0  0  0
  186.0520  177.5240  139.5050 N   0  0  0  0  0  0  0  0  0  0  0  0
  189.0680  173.8610  141.1950 Cl  0  0  0  0  0  0  0  0  0  0  0  0
  187.4220  175.8350  140.1480 C   0  0  0  0  0  0  0  0  0  0  0  0
  187.1040  177.3770  146.0850 C   0  0  1  0  0  3  0  0  0  0  0  0
  185.6720  178.7120  142.9490 N   0  0  0  0  0  0  0  0  0  0  0  0
  187.0830  176.5110  141.3040 C   0  0  0  0  0  0  0  0  0  0  0  0
  187.1530  176.8930  143.7440 C   0  0  0  0  0  0  0  0  0  0  0  0
  186.2060  177.5840  140.8470 C   0  0  0  0  0  0  0  0  0  0  0  0
  188.5780  177.4570  145.6970 C   0  0  2  0  0  3  0  0  0  0  0  0
  186.9280  176.0260  137.7930 C   0  0  0  0  0  3  0  0  0  0  0  0
  185.5860  178.5610  141.6050 C   0  0  0  0  0  3  0  0  0  0  0  0
  186.2840  178.4180  145.3190 C   0  0  0  0  0  2  0  0  0  0  0  0
  188.2300  174.7160  139.9100 C   0  0  0  0  0  0  0  0  0  0  0  0
  187.7420  174.9030  137.5750 C   0  0  0  0  0  3  0  0  0  0  0  0
  188.3660  174.2830  138.6230 N   0  0  0  0  0  0  0  0  0  0  0  0
  187.4950  176.2090  142.5870 C   0  0  0  0  0  3  0  0  0  0  0  0
  186.3380  178.0030  143.8960 C   0  0  0  0  0  0  0  0  0  0  0  0
  187.6720  176.4120  145.0520 C   0  0  1  0  0  3  0  0  0  0  0  0
  190.4980  175.6420  146.2850 C   0  0  0  0  0  0  0  0  0  0  0  0
  191.1470  177.3940  148.4810 C   0  0  0  0  0  3  0  0  0  0  0  0
  189.5510  176.8040  146.7030 C   0  0  1  0  0  3  0  0  0  0  0  0
  189.6950  174.4740  145.7430 C   0  0  0  0  0  1  0  0  0  0  0  0
  191.5030  176.0890  145.2340 C   0  0  0  0  0  1  0  0  0  0  0  0
  191.2700  175.1610  147.4870 C   0  0  0  0  0  3  0  0  0  0  0  0
  191.6020  175.9900  148.4850 C   0  0  0  0  0  3  0  0  0  0  0  0
  190.2060  177.8000  147.6270 C   0  0  0  0  0  3  0  0  0  0  0  0
  1  2  2  0  0  0  0
  1  4  1  0  0  0  0
  2  9  1  0  0  0  0
  4  7  2  0  0  0  0
  5 13  1  6  0  0  0
  6 18  2  0  0  0  0
  7 17  1  0  0  0  0
  8 18  1  0  0  0  0
  9  7  1  0  0  0  0
  9 12  2  0  0  0  0
 10  5  1  0  0  0  0
 10 22  1  1  0  0  0
 11  1  1  0  0  0  0
 12  6  1  0  0  0  0
 14  4  1  0  0  0  0
 14  3  1  0  0  0  0
 15 11  2  0  0  0  0
 15 16  1  0  0  0  0
 16 14  2  0  0  0  0
 17  8  2  0  0  0  0
 18 13  1  0  0  0  0
 19  8  1  6  0  0  0
 19 10  1  0  0  0  0
 19  5  1  0  0  0  0
 20 22  1  0  0  0  0
 20 25  1  0  0  0  0
 21 26  1  0  0  0  0
 22 27  1  6  0  0  0
 23 20  1  0  0  0  0
 24 20  1  0  0  0  0
 25 26  2  0  0  0  0
 27 21  2  0  0  0  0
M  END
>  <MODEL>
7

>  <REMARK>
 VINA RESULT:      -7.7      2.259      3.915
  Name = 
  1 active torsions:
  status: ('A' for Active; 'I' for Inactive)
    1  A    between atoms: C_12  and  C_13
                            x       y       z     vdW  Elec       q    Type
                         _______ _______ _______ _____ _____    ______ ____

>  <TORSDO>
F 1

$$$$
=
 OpenBabel11062421093D

 27 32  0  0  1  0  0  0  0  0999 V2000
  186.0230  177.7520  145.1570 C   0  0  0  0  0  0  0  0  0  0  0  0
  186.3460  177.1300  146.3080 N   0  0  0  0  0  0  0  0  0  0  0  0
  188.0310  178.1080  141.6630 Cl  0  0  0  0  0  0  0  0  0  0  0  0
  186.9990  177.6320  144.1960 C   0  0  0  0  0  0  0  0  0  0  0  0
  192.3290  174.6340  144.7590 C   0  0  1  0  0  3  0  0  0  0  0  0
  189.4390  175.2810  146.9710 N   0  0  0  0  0  0  0  0  0  0  0  0
  188.0250  176.8870  144.7420 C   0  0  0  0  0  0  0  0  0  0  0  0
  190.2290  175.7760  144.6760 C   0  0  0  0  0  0  0  0  0  0  0  0
  187.5660  176.5870  146.0950 C   0  0  0  0  0  0  0  0  0  0  0  0
  192.6810  176.0840  144.4390 C   0  0  2  0  0  3  0  0  0  0  0  0
  184.8460  178.4530  144.9160 C   0  0  0  0  0  3  0  0  0  0  0  0
  188.2210  175.8650  147.0770 C   0  0  0  0  0  3  0  0  0  0  0  0
  191.6260  174.5330  146.1140 C   0  0  0  0  0  2  0  0  0  0  0  0
  186.8250  178.2210  142.9360 C   0  0  0  0  0  0  0  0  0  0  0  0
  184.6910  179.0350  143.6480 C   0  0  0  0  0  3  0  0  0  0  0  0
  185.6700  178.9080  142.7000 N   0  0  0  0  0  0  0  0  0  0  0  0
  189.2020  176.5220  144.1210 C   0  0  0  0  0  3  0  0  0  0  0  0
  190.3250  175.2240  145.9430 C   0  0  0  0  0  0  0  0  0  0  0  0
  191.4230  175.4540  143.8490 C   0  0  1  0  0  3  0  0  0  0  0  0
  195.2830  176.1160  143.6930 C   0  0  0  0  0  0  0  0  0  0  0  0
  194.2790  175.6500  141.0300 C   0  0  0  0  0  3  0  0  0  0  0  0
  193.7710  176.2650  143.3590 C   0  0  1  0  0  3  0  0  0  0  0  0
  195.6830  177.0940  144.7830 C   0  0  0  0  0  1  0  0  0  0  0  0
  195.6220  174.7020  144.1410 C   0  0  0  0  0  1  0  0  0  0  0  0
  196.1050  176.4200  142.4670 C   0  0  0  0  0  3  0  0  0  0  0  0
  195.6470  176.1660  141.2340 C   0  0  0  0  0  3  0  0  0  0  0  0
  193.3950  175.6600  142.0300 C   0  0  0  0  0  3  0  0  0  0  0  0
  1  2  2  0  0  0  0
  3 14  1  0  0  0  0
  4  7  2  0  0  0  0
  4  1  1  0  0  0  0
  5 13  1  1  0  0  0
  6 12  1  0  0  0  0
  7  9  1  0  0  0  0
  8 18  1  0  0  0  0
  9  2  1  0  0  0  0
  9 12  2  0  0  0  0
 10 22  1  6  0  0  0
 10  5  1  0  0  0  0
 11  1  1  0  0  0  0
 14  4  1  0  0  0  0
 15 11  2  0  0  0  0
 16 14  2  0  0  0  0
 16 15  1  0  0  0  0
 17  8  2  0  0  0  0
 17  7  1  0  0  0  0
 18 13  1  0  0  0  0
 18  6  2  0  0  0  0
 19 10  1  0  0  0  0
 19  8  1  1  0  0  0
 19  5  1  0  0  0  0
 20 24  1  0  0  0  0
 20 23  1  0  0  0  0
 21 26  1  0  0  0  0
 21 27  2  0  0  0  0
 22 27  1  6  0  0  0
 22 20  1  0  0  0  0
 25 20  1  0  0  0  0
 26 25  2  0  0  0  0
M  END
>  <MODEL>
8

>  <REMARK>
 VINA RESULT:      -7.6      1.699      3.041
  Name = 
  1 active torsions:
  status: ('A' for Active; 'I' for Inactive)
    1  A    between atoms: C_12  and  C_13
                            x       y       z     vdW  Elec       q    Type
                         _______ _______ _______ _____ _____    ______ ____

>  <TORSDO>
F 1

$$$$
=
 OpenBabel11062421093D

 27 32  0  0  1  0  0  0  0  0999 V2000
  193.6220  172.6470  144.9400 C   0  0  0  0  0  0  0  0  0  0  0  0
  194.1780  173.8020  145.3560 N   0  0  0  0  0  0  0  0  0  0  0  0
  190.2180  171.9160  142.8800 Cl  0  0  0  0  0  0  0  0  0  0  0  0
  192.4430  172.8390  144.2600 C   0  0  0  0  0  0  0  0  0  0  0  0
  189.7600  178.2310  143.0570 C   0  0  1  0  0  3  0  0  0  0  0  0
  192.8280  177.1660  144.8220 N   0  0  0  0  0  0  0  0  0  0  0  0
  192.2060  174.1990  144.2240 C   0  0  0  0  0  0  0  0  0  0  0  0
  190.9000  176.2010  143.6030 C   0  0  0  0  0  0  0  0  0  0  0  0
  193.3410  174.7780  144.9370 C   0  0  0  0  0  0  0  0  0  0  0  0
  188.7540  177.4210  143.8710 C   0  0  2  0  0  3  0  0  0  0  0  0
  194.1430  171.3740  145.1500 C   0  0  0  0  0  3  0  0  0  0  0  0
  193.5960  176.1130  145.1940 C   0  0  0  0  0  3  0  0  0  0  0  0
  191.0070  178.5400  143.8880 C   0  0  0  0  0  2  0  0  0  0  0  0
  191.7310  171.7420  143.7560 C   0  0  0  0  0  0  0  0  0  0  0  0
  193.4150  170.2890  144.6370 C   0  0  0  0  0  3  0  0  0  0  0  0
  192.2420  170.4940  143.9620 N   0  0  0  0  0  0  0  0  0  0  0  0
  191.1320  174.8350  143.6340 C   0  0  0  0  0  3  0  0  0  0  0  0
  191.6620  177.2310  144.1300 C   0  0  0  0  0  0  0  0  0  0  0  0
  189.6960  176.7180  142.8980 C   0  0  1  0  0  3  0  0  0  0  0  0
  186.0960  177.7690  144.2450 C   0  0  0  0  0  0  0  0  0  0  0  0
  186.0000  178.2500  141.4040 C   0  0  0  0  0  3  0  0  0  0  0  0
  187.3080  177.4440  143.3260 C   0  0  1  0  0  3  0  0  0  0  0  0
  186.0340  176.7910  145.4040 C   0  0  0  0  0  1  0  0  0  0  0  0
  186.1700  179.1880  144.7900 C   0  0  0  0  0  1  0  0  0  0  0  0
  184.8160  177.6430  143.4580 C   0  0  0  0  0  3  0  0  0  0  0  0
  184.7710  177.9050  142.1460 C   0  0  0  0  0  3  0  0  0  0  0  0
  187.2000  178.0680  141.9580 C   0  0  0  0  0  3  0  0  0  0  0  0
  1 11  1  0  0  0  0
  1  2  1  0  0  0  0
  3 14  1  0  0  0  0
  4  1  2  0  0  0  0
  5 10  1  0  0  0  0
  5 13  1  1  0  0  0
  6 12  2  0  0  0  0
  7  4  1  0  0  0  0
  7  9  1  0  0  0  0
  8 17  1  0  0  0  0
  8 18  2  0  0  0  0
  9 12  1  0  0  0  0
  9  2  2  0  0  0  0
 10 22  1  6  0  0  0
 13 18  1  0  0  0  0
 14 16  2  0  0  0  0
 14  4  1  0  0  0  0
 15 11  2  0  0  0  0
 16 15  1  0  0  0  0
 17  7  2  0  0  0  0
 18  6  1  0  0  0  0
 19  5  1  0  0  0  0
 19  8  1  1  0  0  0
 19 10  1  0  0  0  0
 20 24  1  0  0  0  0
 20 23  1  0  0  0  0
 21 27  2  0  0  0  0
 21 26  1  0  0  0  0
 22 27  1  6  0  0  0
 22 20  1  0  0  0  0
 25 20  1  0  0  0  0
 26 25  2  0  0  0  0
M  END
>  <MODEL>
9

>  <REMARK>
 VINA RESULT:      -7.5      3.434      7.864
  Name = 
  1 active torsions:
  status: ('A' for Active; 'I' for Inactive)
    1  A    between atoms: C_12  and  C_13
                            x       y       z     vdW  Elec       q    Type
                         _______ _______ _______ _____ _____    ______ ____

>  <TORSDO>
F 1

$$$$
