=
 OpenBabel11062423113D

 28 31  0  0  1  0  0  0  0  0999 V2000
  190.5710  174.8160  145.8690 C   0  0  2  0  0  3  0  0  0  0  0  0
  190.8640  173.6430  144.9500 C   0  0  0  0  0  1  0  0  0  0  0  0
  191.8050  175.1190  146.7130 C   0  0  1  0  0  3  0  0  0  0  0  0
  192.1310  176.9190  145.0290 O   0  0  0  0  0  1  0  0  0  0  0  0
  192.5950  176.2580  146.1740 C   0  0  1  0  0  0  0  0  0  0  0  0
  191.7190  176.4250  147.2570 O   0  0  0  0  0  0  0  0  0  0  0  0
  194.0470  176.4300  146.5880 C   0  0  0  0  0  2  0  0  0  0  0  0
  195.7230  174.2010  145.9980 O   0  0  0  0  0  0  0  0  0  0  0  0
  194.9030  176.3090  145.4200 N   0  0  0  0  0  2  0  0  0  0  0  0
  195.7280  175.1670  145.1880 C   0  0  0  0  0  0  0  0  0  0  0  0
  195.8920  174.1970  142.9250 C   0  0  0  0  0  2  0  0  0  0  0  0
  196.7280  176.0130  141.5200 C   0  0  2  0  0  3  0  0  0  0  0  0
  195.6460  176.5630  140.8290 O   0  0  0  0  0  1  0  0  0  0  0  0
  196.5620  175.0820  143.9520 C   0  0  1  0  0  3  0  0  0  0  0  0
  196.5680  174.5050  141.6090 C   0  0  0  0  0  2  0  0  0  0  0  0
  196.8120  176.7180  143.2000 S   0  0  0  0  0  0  0  0  0  0  0  0
  189.3770  174.4980  146.7660 C   0  0  0  0  0  2  0  0  0  0  0  0
  188.4460  175.6970  146.9360 C   0  0  0  0  0  2  0  0  0  0  0  0
  188.7300  177.6600  145.3980 C   0  0  0  0  0  2  0  0  0  0  0  0
  185.5020  178.2000  147.2930 C   0  0  0  0  0  3  0  0  0  0  0  0
  186.3210  177.8530  144.5720 C   0  0  0  0  0  3  0  0  0  0  0  0
  188.0610  176.2940  145.5840 C   0  0  2  0  0  3  0  0  0  0  0  0
  187.2540  177.5780  145.7090 C   0  0  1  0  0  0  0  0  0  0  0  0
  186.8170  178.0790  147.0610 C   0  0  0  0  0  3  0  0  0  0  0  0
  185.0100  177.9790  144.8260 C   0  0  0  0  0  0  0  0  0  0  0  0
  184.4860  177.8020  146.2370 C   0  0  0  0  0  2  0  0  0  0  0  0
  184.0880  178.2360  143.8050 O   0  0  0  0  0  0  0  0  0  0  0  0
  184.4130  178.1330  142.4240 C   0  0  0  0  0  1  0  0  0  0  0  0
  1  2  1  6  0  0  0
  1 17  1  0  0  0  0
  3  1  1  6  0  0  0
  3  6  1  0  0  0  0
  5  4  1  6  0  0  0
  5  7  1  0  0  0  0
  5  3  1  0  0  0  0
  5  6  1  0  0  0  0
  9  7  1  0  0  0  0
 10  9  1  0  0  0  0
 10  8  2  0  0  0  0
 11 14  1  0  0  0  0
 12 13  1  1  0  0  0
 12 15  1  0  0  0  0
 12 16  1  0  0  0  0
 14 10  1  1  0  0  0
 15 11  1  0  0  0  0
 16 14  1  0  0  0  0
 17 18  1  0  0  0  0
 19 22  1  0  0  0  0
 19 23  1  0  0  0  0
 21 25  2  0  0  0  0
 22 23  1  0  0  0  0
 22 18  1  1  0  0  0
 23 21  1  6  0  0  0
 23 24  1  0  0  0  0
 24 20  2  0  0  0  0
 25 26  1  0  0  0  0
 26 20  1  0  0  0  0
 27 25  1  0  0  0  0
 28 27  1  0  0  0  0
M  END
>  <MODEL>
1

>  <REMARK>
 VINA RESULT:      -7.1      0.000      0.000
  Name = 
  8 active torsions:
  status: ('A' for Active; 'I' for Inactive)
    1  A    between atoms: O_2  and  C_22
    2  A    between atoms: C_5  and  C_10
    3  A    between atoms: C_5  and  C_14
    4  A    between atoms: C_8  and  C_19
    5  A    between atoms: C_8  and  N_20
    6  A    between atoms: C_9  and  C_13
    7  A    between atoms: C_13  and  C_14
    8  A    between atoms: C_23  and  C_27
                            x       y       z     vdW  Elec       q    Type
                         _______ _______ _______ _____ _____    ______ ____

>  <TORSDO>
F 8

$$$$
=
 OpenBabel11062423113D

 28 31  0  0  1  0  0  0  0  0999 V2000
  189.5670  175.2720  146.1710 C   0  0  2  0  0  3  0  0  0  0  0  0
  189.6930  173.7930  145.8500 C   0  0  0  0  0  1  0  0  0  0  0  0
  190.7240  175.6950  147.0710 C   0  0  1  0  0  3  0  0  0  0  0  0
  191.6050  176.6620  144.9560 O   0  0  0  0  0  1  0  0  0  0  0  0
  191.7850  176.4230  146.3250 C   0  0  1  0  0  0  0  0  0  0  0  0
  190.8340  177.1080  147.0970 O   0  0  0  0  0  0  0  0  0  0  0  0
  193.1800  176.5350  146.9170 C   0  0  0  0  0  2  0  0  0  0  0  0
  195.1690  176.8050  144.8920 O   0  0  0  0  0  0  0  0  0  0  0  0
  194.0110  175.4580  146.4070 N   0  0  0  0  0  2  0  0  0  0  0  0
  194.9850  175.6580  145.3810 C   0  0  0  0  0  0  0  0  0  0  0  0
  196.5880  173.9190  146.0850 C   0  0  0  0  0  2  0  0  0  0  0  0
  195.9190  171.9130  144.8630 C   0  0  2  0  0  3  0  0  0  0  0  0
  195.1860  171.0980  145.7290 O   0  0  0  0  0  1  0  0  0  0  0  0
  195.8350  174.5210  144.9200 C   0  0  1  0  0  3  0  0  0  0  0  0
  197.0660  172.5650  145.6170 C   0  0  0  0  0  2  0  0  0  0  0  0
  194.8360  173.2030  144.1630 S   0  0  0  0  0  0  0  0  0  0  0  0
  188.2300  175.5520  146.8550 C   0  0  0  0  0  2  0  0  0  0  0  0
  187.5660  176.8220  146.3270 C   0  0  0  0  0  2  0  0  0  0  0  0
  188.2120  177.8300  144.1220 C   0  0  0  0  0  2  0  0  0  0  0  0
  184.9290  179.4090  145.1370 C   0  0  0  0  0  3  0  0  0  0  0  0
  185.9210  177.7900  142.9940 C   0  0  0  0  0  3  0  0  0  0  0  0
  187.3690  176.7550  144.8140 C   0  0  2  0  0  3  0  0  0  0  0  0
  186.7170  178.0050  144.2430 C   0  0  1  0  0  0  0  0  0  0  0  0
  186.2340  179.1010  145.1560 C   0  0  0  0  0  3  0  0  0  0  0  0
  184.6180  178.1120  142.9930 C   0  0  0  0  0  0  0  0  0  0  0  0
  183.9620  178.6420  144.2520 C   0  0  0  0  0  2  0  0  0  0  0  0
  183.8220  177.9350  141.8560 O   0  0  0  0  0  0  0  0  0  0  0  0
  184.2260  178.3450  140.5560 C   0  0  0  0  0  1  0  0  0  0  0  0
  1  2  1  1  0  0  0
  1 17  1  0  0  0  0
  3  1  1  6  0  0  0
  3  6  1  0  0  0  0
  5  4  1  6  0  0  0
  5  7  1  0  0  0  0
  5  3  1  0  0  0  0
  5  6  1  0  0  0  0
  8 10  2  0  0  0  0
  9  7  1  0  0  0  0
 10  9  1  0  0  0  0
 12 15  1  0  0  0  0
 12 13  1  1  0  0  0
 14 10  1  1  0  0  0
 14 11  1  0  0  0  0
 15 11  1  0  0  0  0
 16 12  1  0  0  0  0
 16 14  1  0  0  0  0
 18 17  1  0  0  0  0
 19 23  1  0  0  0  0
 19 22  1  0  0  0  0
 20 24  2  0  0  0  0
 22 18  1  1  0  0  0
 23 21  1  6  0  0  0
 23 22  1  0  0  0  0
 23 24  1  0  0  0  0
 25 21  2  0  0  0  0
 25 26  1  0  0  0  0
 26 20  1  0  0  0  0
 27 25  1  0  0  0  0
 28 27  1  0  0  0  0
M  END
>  <MODEL>
2

>  <REMARK>
 VINA RESULT:      -7.0      1.980      2.626
  Name = 
  8 active torsions:
  status: ('A' for Active; 'I' for Inactive)
    1  A    between atoms: O_2  and  C_22
    2  A    between atoms: C_5  and  C_10
    3  A    between atoms: C_5  and  C_14
    4  A    between atoms: C_8  and  C_19
    5  A    between atoms: C_8  and  N_20
    6  A    between atoms: C_9  and  C_13
    7  A    between atoms: C_13  and  C_14
    8  A    between atoms: C_23  and  C_27
                            x       y       z     vdW  Elec       q    Type
                         _______ _______ _______ _____ _____    ______ ____

>  <TORSDO>
F 8

$$$$
=
 OpenBabel11062423113D

 28 31  0  0  1  0  0  0  0  0999 V2000
  185.4310  178.0450  145.7540 C   0  0  2  0  0  3  0  0  0  0  0  0
  184.1580  178.6500  146.3180 C   0  0  0  0  0  1  0  0  0  0  0  0
  185.1170  177.3410  144.4370 C   0  0  1  0  0  3  0  0  0  0  0  0
  185.7710  179.5360  143.4690 O   0  0  0  0  0  1  0  0  0  0  0  0
  185.3120  178.2290  143.2600 C   0  0  1  0  0  0  0  0  0  0  0  0
  186.2770  177.2790  143.6250 O   0  0  0  0  0  0  0  0  0  0  0  0
  184.6480  177.8820  141.9380 C   0  0  0  0  0  2  0  0  0  0  0  0
  182.7410  177.5010  139.8530 O   0  0  0  0  0  0  0  0  0  0  0  0
  183.3400  178.5100  141.8710 N   0  0  0  0  0  2  0  0  0  0  0  0
  182.4340  178.2850  140.7910 C   0  0  0  0  0  0  0  0  0  0  0  0
  180.0700  178.0320  140.1270 C   0  0  0  0  0  2  0  0  0  0  0  0
  178.7880  178.8820  142.0250 C   0  0  2  0  0  3  0  0  0  0  0  0
  178.3350  177.7900  142.7700 O   0  0  0  0  0  1  0  0  0  0  0  0
  181.0880  178.9320  140.7920 C   0  0  1  0  0  3  0  0  0  0  0  0
  178.7170  178.5580  140.5420 C   0  0  0  0  0  2  0  0  0  0  0  0
  180.5100  179.2710  142.4830 S   0  0  0  0  0  0  0  0  0  0  0  0
  186.0360  177.0600  146.7530 C   0  0  0  0  0  2  0  0  0  0  0  0
  187.5580  177.1670  146.8200 C   0  0  0  0  0  2  0  0  0  0  0  0
  189.6040  175.7170  146.9240 C   0  0  0  0  0  2  0  0  0  0  0  0
  190.0120  177.9880  143.9280 C   0  0  0  0  0  3  0  0  0  0  0  0
  189.8210  175.1780  144.4380 C   0  0  0  0  0  3  0  0  0  0  0  0
  188.2250  175.9010  146.2840 C   0  0  2  0  0  3  0  0  0  0  0  0
  189.4930  176.1870  145.4930 C   0  0  1  0  0  0  0  0  0  0  0  0
  189.9140  177.6040  145.2100 C   0  0  0  0  0  3  0  0  0  0  0  0
  189.9210  175.5840  143.1630 C   0  0  0  0  0  0  0  0  0  0  0  0
  189.6630  177.0330  142.8010 C   0  0  0  0  0  2  0  0  0  0  0  0
  190.2260  174.6890  142.1320 O   0  0  0  0  0  0  0  0  0  0  0  0
  189.5310  173.4630  141.9400 C   0  0  0  0  0  1  0  0  0  0  0  0
  1  2  1  1  0  0  0
  1 17  1  0  0  0  0
  3  1  1  1  0  0  0
  5  4  1  1  0  0  0
  5  6  1  0  0  0  0
  5  3  1  0  0  0  0
  6  3  1  0  0  0  0
  7  5  1  0  0  0  0
  8 10  2  0  0  0  0
  9  7  1  0  0  0  0
 10  9  1  0  0  0  0
 11 15  1  0  0  0  0
 11 14  1  0  0  0  0
 12 16  1  0  0  0  0
 12 13  1  1  0  0  0
 14 10  1  1  0  0  0
 14 16  1  0  0  0  0
 15 12  1  0  0  0  0
 17 18  1  0  0  0  0
 20 24  2  0  0  0  0
 22 18  1  1  0  0  0
 22 19  1  0  0  0  0
 23 21  1  6  0  0  0
 23 22  1  0  0  0  0
 23 19  1  0  0  0  0
 24 23  1  0  0  0  0
 25 21  2  0  0  0  0
 26 25  1  0  0  0  0
 26 20  1  0  0  0  0
 27 25  1  0  0  0  0
 28 27  1  0  0  0  0
M  END
>  <MODEL>
3

>  <REMARK>
 VINA RESULT:      -6.9      5.433     10.458
  Name = 
  8 active torsions:
  status: ('A' for Active; 'I' for Inactive)
    1  A    between atoms: O_2  and  C_22
    2  A    between atoms: C_5  and  C_10
    3  A    between atoms: C_5  and  C_14
    4  A    between atoms: C_8  and  C_19
    5  A    between atoms: C_8  and  N_20
    6  A    between atoms: C_9  and  C_13
    7  A    between atoms: C_13  and  C_14
    8  A    between atoms: C_23  and  C_27
                            x       y       z     vdW  Elec       q    Type
                         _______ _______ _______ _____ _____    ______ ____

>  <TORSDO>
F 8

$$$$
=
 OpenBabel11062423113D

 28 31  0  0  1  0  0  0  0  0999 V2000
  191.9630  176.1250  145.7360 C   0  0  2  0  0  3  0  0  0  0  0  0
  191.9260  177.1390  144.6070 C   0  0  0  0  0  1  0  0  0  0  0  0
  190.8030  176.3890  146.6920 C   0  0  1  0  0  3  0  0  0  0  0  0
  189.9010  174.3070  145.6750 O   0  0  0  0  0  1  0  0  0  0  0  0
  189.7290  175.3670  146.5760 C   0  0  1  0  0  0  0  0  0  0  0  0
  190.6730  175.3190  147.6130 O   0  0  0  0  0  0  0  0  0  0  0  0
  188.3350  175.6770  147.0940 C   0  0  0  0  0  2  0  0  0  0  0  0
  185.7880  176.9110  147.4420 O   0  0  0  0  0  0  0  0  0  0  0  0
  187.5550  176.3060  146.0410 N   0  0  0  0  0  2  0  0  0  0  0  0
  186.2780  176.8990  146.2810 C   0  0  0  0  0  0  0  0  0  0  0  0
  185.9150  179.0230  145.0780 C   0  0  0  0  0  2  0  0  0  0  0  0
  185.8400  178.4040  142.7160 C   0  0  2  0  0  3  0  0  0  0  0  0
  187.0830  178.6980  142.1480 O   0  0  0  0  0  1  0  0  0  0  0  0
  185.5370  177.5610  145.1670 C   0  0  1  0  0  3  0  0  0  0  0  0
  185.4620  179.4860  143.7140 C   0  0  0  0  0  2  0  0  0  0  0  0
  185.9120  176.7910  143.5620 S   0  0  0  0  0  0  0  0  0  0  0  0
  193.2950  176.2090  146.4790 C   0  0  0  0  0  2  0  0  0  0  0  0
  194.2650  175.1090  146.0540 C   0  0  0  0  0  2  0  0  0  0  0  0
  194.5290  172.6990  145.4060 C   0  0  0  0  0  2  0  0  0  0  0  0
  193.4710  174.5690  142.2940 C   0  0  0  0  0  3  0  0  0  0  0  0
  192.4490  172.4640  143.9420 C   0  0  0  0  0  3  0  0  0  0  0  0
  193.5350  173.7860  145.8270 C   0  0  2  0  0  3  0  0  0  0  0  0
  193.6010  173.3110  144.3830 C   0  0  1  0  0  0  0  0  0  0  0  0
  194.2350  174.1720  143.3220 C   0  0  0  0  0  3  0  0  0  0  0  0
  191.7020  172.8750  142.9060 C   0  0  0  0  0  0  0  0  0  0  0  0
  192.0010  174.1970  142.2270 C   0  0  0  0  0  2  0  0  0  0  0  0
  190.6130  172.1270  142.4470 O   0  0  0  0  0  0  0  0  0  0  0  0
  189.3930  172.0110  143.1690 C   0  0  0  0  0  1  0  0  0  0  0  0
  1  2  1  6  0  0  0
  1 17  1  0  0  0  0
  3  1  1  6  0  0  0
  3  6  1  0  0  0  0
  5  4  1  6  0  0  0
  5  3  1  0  0  0  0
  5  7  1  0  0  0  0
  5  6  1  0  0  0  0
  9 10  1  0  0  0  0
  9  7  1  0  0  0  0
 10  8  2  0  0  0  0
 11 14  1  0  0  0  0
 12 13  1  1  0  0  0
 12 16  1  0  0  0  0
 12 15  1  0  0  0  0
 14 10  1  1  0  0  0
 15 11  1  0  0  0  0
 16 14  1  0  0  0  0
 18 17  1  0  0  0  0
 19 22  1  0  0  0  0
 20 24  2  0  0  0  0
 21 23  1  0  0  0  0
 22 18  1  6  0  0  0
 23 24  1  6  0  0  0
 23 19  1  0  0  0  0
 23 22  1  0  0  0  0
 25 21  2  0  0  0  0
 26 20  1  0  0  0  0
 26 25  1  0  0  0  0
 27 25  1  0  0  0  0
 27 28  1  0  0  0  0
M  END
>  <MODEL>
4

>  <REMARK>
 VINA RESULT:      -6.8      3.503      8.089
  Name = 
  8 active torsions:
  status: ('A' for Active; 'I' for Inactive)
    1  A    between atoms: O_2  and  C_22
    2  A    between atoms: C_5  and  C_10
    3  A    between atoms: C_5  and  C_14
    4  A    between atoms: C_8  and  C_19
    5  A    between atoms: C_8  and  N_20
    6  A    between atoms: C_9  and  C_13
    7  A    between atoms: C_13  and  C_14
    8  A    between atoms: C_23  and  C_27
                            x       y       z     vdW  Elec       q    Type
                         _______ _______ _______ _____ _____    ______ ____

>  <TORSDO>
F 8

$$$$
=
 OpenBabel11062423113D

 28 31  0  0  1  0  0  0  0  0999 V2000
  191.7970  174.0840  143.4770 C   0  0  2  0  0  3  0  0  0  0  0  0
  192.6140  173.1910  142.5610 C   0  0  0  0  0  1  0  0  0  0  0  0
  190.7330  174.8100  142.6590 C   0  0  1  0  0  3  0  0  0  0  0  0
  189.2830  172.9690  143.4910 O   0  0  0  0  0  1  0  0  0  0  0  0
  189.4130  174.1260  142.7120 C   0  0  1  0  0  0  0  0  0  0  0  0
  189.6830  175.2530  143.5030 O   0  0  0  0  0  0  0  0  0  0  0  0
  188.3700  174.4190  141.6460 C   0  0  0  0  0  2  0  0  0  0  0  0
  187.5910  177.1340  141.2530 O   0  0  0  0  0  0  0  0  0  0  0  0
  187.2180  175.0590  142.2570 N   0  0  0  0  0  2  0  0  0  0  0  0
  186.8880  176.4290  142.0270 C   0  0  0  0  0  0  0  0  0  0  0  0
  185.7610  176.9400  144.1620 C   0  0  0  0  0  2  0  0  0  0  0  0
  184.8310  179.1790  143.8650 C   0  0  2  0  0  3  0  0  0  0  0  0
  185.6810  180.0920  144.4940 O   0  0  0  0  0  1  0  0  0  0  0  0
  185.6710  177.0240  142.6550 C   0  0  1  0  0  3  0  0  0  0  0  0
  184.7340  177.9100  144.6950 C   0  0  0  0  0  2  0  0  0  0  0  0
  185.4740  178.7760  142.2070 S   0  0  0  0  0  0  0  0  0  0  0  0
  192.7050  175.0900  144.1820 C   0  0  0  0  0  2  0  0  0  0  0  0
  192.4570  175.1360  145.6880 C   0  0  0  0  0  2  0  0  0  0  0  0
  192.1470  176.7320  147.6000 C   0  0  0  0  0  2  0  0  0  0  0  0
  188.9590  174.7170  147.3160 C   0  0  0  0  0  3  0  0  0  0  0  0
  189.7500  177.4610  147.1080 C   0  0  0  0  0  3  0  0  0  0  0  0
  191.8790  176.4850  146.1130 C   0  0  2  0  0  3  0  0  0  0  0  0
  190.7600  176.3570  147.1350 C   0  0  1  0  0  0  0  0  0  0  0  0
  190.2490  175.0010  147.5460 C   0  0  0  0  0  3  0  0  0  0  0  0
  188.4620  177.1550  146.8850 C   0  0  0  0  0  0  0  0  0  0  0  0
  188.0540  175.7190  146.6230 C   0  0  0  0  0  2  0  0  0  0  0  0
  187.4710  178.1430  146.8490 O   0  0  0  0  0  0  0  0  0  0  0  0
  186.4640  178.2660  147.8460 C   0  0  0  0  0  1  0  0  0  0  0  0
  1  2  1  6  0  0  0
  1 17  1  0  0  0  0
  3  5  1  0  0  0  0
  3  1  1  1  0  0  0
  3  6  1  0  0  0  0
  5  4  1  1  0  0  0
  5  6  1  0  0  0  0
  7  9  1  0  0  0  0
  7  5  1  0  0  0  0
  8 10  2  0  0  0  0
 10  9  1  0  0  0  0
 11 15  1  0  0  0  0
 12 13  1  1  0  0  0
 12 15  1  0  0  0  0
 14 10  1  6  0  0  0
 14 11  1  0  0  0  0
 16 14  1  0  0  0  0
 16 12  1  0  0  0  0
 17 18  1  0  0  0  0
 20 24  2  0  0  0  0
 22 18  1  1  0  0  0
 22 23  1  0  0  0  0
 22 19  1  0  0  0  0
 23 21  1  1  0  0  0
 23 24  1  0  0  0  0
 23 19  1  0  0  0  0
 25 21  2  0  0  0  0
 26 25  1  0  0  0  0
 26 20  1  0  0  0  0
 27 25  1  0  0  0  0
 27 28  1  0  0  0  0
M  END
>  <MODEL>
5

>  <REMARK>
 VINA RESULT:      -6.8      3.958      7.257
  Name = 
  8 active torsions:
  status: ('A' for Active; 'I' for Inactive)
    1  A    between atoms: O_2  and  C_22
    2  A    between atoms: C_5  and  C_10
    3  A    between atoms: C_5  and  C_14
    4  A    between atoms: C_8  and  C_19
    5  A    between atoms: C_8  and  N_20
    6  A    between atoms: C_9  and  C_13
    7  A    between atoms: C_13  and  C_14
    8  A    between atoms: C_23  and  C_27
                            x       y       z     vdW  Elec       q    Type
                         _______ _______ _______ _____ _____    ______ ____

>  <TORSDO>
F 8

$$$$
=
 OpenBabel11062423113D

 28 31  0  0  1  0  0  0  0  0999 V2000
  192.0260  176.1880  145.8130 C   0  0  2  0  0  3  0  0  0  0  0  0
  191.9540  177.1640  144.6530 C   0  0  0  0  0  1  0  0  0  0  0  0
  190.8380  176.4170  146.7420 C   0  0  1  0  0  3  0  0  0  0  0  0
  189.9780  174.3620  145.6380 O   0  0  0  0  0  1  0  0  0  0  0  0
  189.7740  175.3940  146.5650 C   0  0  1  0  0  0  0  0  0  0  0  0
  190.6880  175.3200  147.6270 O   0  0  0  0  0  0  0  0  0  0  0  0
  188.3630  175.6820  147.0510 C   0  0  0  0  0  2  0  0  0  0  0  0
  185.7830  176.8600  147.3380 O   0  0  0  0  0  0  0  0  0  0  0  0
  187.5970  176.2980  145.9810 N   0  0  0  0  0  2  0  0  0  0  0  0
  186.3030  176.8620  146.1900 C   0  0  0  0  0  0  0  0  0  0  0  0
  185.9550  178.9740  144.9610 C   0  0  0  0  0  2  0  0  0  0  0  0
  185.9120  178.3320  142.6040 C   0  0  2  0  0  3  0  0  0  0  0  0
  187.1620  178.6200  142.0500 O   0  0  0  0  0  1  0  0  0  0  0  0
  185.5760  177.5130  145.0590 C   0  0  1  0  0  3  0  0  0  0  0  0
  185.5210  179.4240  143.5860 C   0  0  0  0  0  2  0  0  0  0  0  0
  185.9730  176.7270  143.4670 S   0  0  0  0  0  0  0  0  0  0  0  0
  193.3390  176.3680  146.5740 C   0  0  0  0  0  2  0  0  0  0  0  0
  194.5580  176.2140  145.6670 C   0  0  0  0  0  2  0  0  0  0  0  0
  196.3720  174.6610  144.8920 C   0  0  0  0  0  2  0  0  0  0  0  0
  193.0960  173.2400  143.6480 C   0  0  0  0  0  3  0  0  0  0  0  0
  195.2170  172.4400  145.3950 C   0  0  0  0  0  3  0  0  0  0  0  0
  195.3100  174.9190  145.9670 C   0  0  2  0  0  3  0  0  0  0  0  0
  195.0990  173.8490  144.9060 C   0  0  1  0  0  0  0  0  0  0  0  0
  194.1360  174.0780  143.7700 C   0  0  0  0  0  3  0  0  0  0  0  0
  194.1670  171.6160  145.2560 C   0  0  0  0  0  0  0  0  0  0  0  0
  192.8730  172.1240  144.6510 C   0  0  0  0  0  2  0  0  0  0  0  0
  194.2170  170.2870  145.6930 O   0  0  0  0  0  0  0  0  0  0  0  0
  193.9810  169.1790  144.8340 C   0  0  0  0  0  1  0  0  0  0  0  0
  1  2  1  6  0  0  0
  1 17  1  0  0  0  0
  3  1  1  6  0  0  0
  3  6  1  0  0  0  0
  5  4  1  6  0  0  0
  5  3  1  0  0  0  0
  5  7  1  0  0  0  0
  5  6  1  0  0  0  0
  9 10  1  0  0  0  0
  9  7  1  0  0  0  0
 10  8  2  0  0  0  0
 11 14  1  0  0  0  0
 12 13  1  1  0  0  0
 12 16  1  0  0  0  0
 12 15  1  0  0  0  0
 14 10  1  1  0  0  0
 15 11  1  0  0  0  0
 16 14  1  0  0  0  0
 18 17  1  0  0  0  0
 19 23  1  0  0  0  0
 19 22  1  0  0  0  0
 20 24  2  0  0  0  0
 20 26  1  0  0  0  0
 22 18  1  6  0  0  0
 23 24  1  6  0  0  0
 23 21  1  0  0  0  0
 23 22  1  0  0  0  0
 25 21  2  0  0  0  0
 25 27  1  0  0  0  0
 26 25  1  0  0  0  0
 28 27  1  0  0  0  0
M  END
>  <MODEL>
6

>  <REMARK>
 VINA RESULT:      -6.8      3.489      8.806
  Name = 
  8 active torsions:
  status: ('A' for Active; 'I' for Inactive)
    1  A    between atoms: O_2  and  C_22
    2  A    between atoms: C_5  and  C_10
    3  A    between atoms: C_5  and  C_14
    4  A    between atoms: C_8  and  C_19
    5  A    between atoms: C_8  and  N_20
    6  A    between atoms: C_9  and  C_13
    7  A    between atoms: C_13  and  C_14
    8  A    between atoms: C_23  and  C_27
                            x       y       z     vdW  Elec       q    Type
                         _______ _______ _______ _____ _____    ______ ____

>  <TORSDO>
F 8

$$$$
=
 OpenBabel11062423113D

 28 31  0  0  1  0  0  0  0  0999 V2000
  193.4200  176.1490  146.0290 C   0  0  2  0  0  3  0  0  0  0  0  0
  194.3980  177.1680  146.5830 C   0  0  0  0  0  1  0  0  0  0  0  0
  192.1650  176.1280  146.8960 C   0  0  1  0  0  3  0  0  0  0  0  0
  191.1110  177.0630  144.8470 O   0  0  0  0  0  1  0  0  0  0  0  0
  190.9720  176.6560  146.1810 C   0  0  1  0  0  0  0  0  0  0  0  0
  191.1860  175.2770  146.3240 O   0  0  0  0  0  0  0  0  0  0  0  0
  189.7650  177.1270  146.9740 C   0  0  0  0  0  2  0  0  0  0  0  0
  187.1150  176.1440  147.3480 O   0  0  0  0  0  0  0  0  0  0  0  0
  188.6500  177.3550  146.0720 N   0  0  0  0  0  2  0  0  0  0  0  0
  187.3460  176.8240  146.3130 C   0  0  0  0  0  0  0  0  0  0  0  0
  185.1490  177.9200  146.0610 C   0  0  0  0  0  2  0  0  0  0  0  0
  185.2430  179.0300  143.8870 C   0  0  2  0  0  3  0  0  0  0  0  0
  185.5060  180.3860  144.1000 O   0  0  0  0  0  1  0  0  0  0  0  0
  186.2280  177.1200  145.3670 C   0  0  1  0  0  3  0  0  0  0  0  0
  184.3010  178.5140  144.9610 C   0  0  0  0  0  2  0  0  0  0  0  0
  186.8010  178.0830  143.9340 S   0  0  0  0  0  0  0  0  0  0  0  0
  194.0630  174.7640  145.9910 C   0  0  0  0  0  2  0  0  0  0  0  0
  195.5040  174.8100  145.4870 C   0  0  0  0  0  2  0  0  0  0  0  0
  197.5360  173.3640  145.2090 C   0  0  0  0  0  2  0  0  0  0  0  0
  194.5740  171.3490  143.9970 C   0  0  0  0  0  3  0  0  0  0  0  0
  196.5590  171.1600  146.0510 C   0  0  0  0  0  3  0  0  0  0  0  0
  196.3430  173.6960  146.1100 C   0  0  2  0  0  3  0  0  0  0  0  0
  196.3560  172.4240  145.2760 C   0  0  1  0  0  0  0  0  0  0  0  0
  195.5070  172.3120  144.0370 C   0  0  0  0  0  3  0  0  0  0  0  0
  195.6170  170.2060  145.9910 C   0  0  0  0  0  0  0  0  0  0  0  0
  194.3540  170.4290  145.1840 C   0  0  0  0  0  2  0  0  0  0  0  0
  195.7500  169.0020  146.6930 O   0  0  0  0  0  0  0  0  0  0  0  0
  194.8400  168.5920  147.7070 C   0  0  0  0  0  1  0  0  0  0  0  0
  1  2  1  1  0  0  0
  3  1  1  6  0  0  0
  5  4  1  6  0  0  0
  5  6  1  0  0  0  0
  5  3  1  0  0  0  0
  5  7  1  0  0  0  0
  6  3  1  0  0  0  0
  9 10  1  0  0  0  0
  9  7  1  0  0  0  0
 10  8  2  0  0  0  0
 12 16  1  0  0  0  0
 12 13  1  1  0  0  0
 12 15  1  0  0  0  0
 14 11  1  0  0  0  0
 14 10  1  1  0  0  0
 15 11  1  0  0  0  0
 16 14  1  0  0  0  0
 17  1  1  0  0  0  0
 18 17  1  0  0  0  0
 19 23  1  0  0  0  0
 19 22  1  0  0  0  0
 20 24  2  0  0  0  0
 20 26  1  0  0  0  0
 22 18  1  6  0  0  0
 23 24  1  6  0  0  0
 23 21  1  0  0  0  0
 23 22  1  0  0  0  0
 25 21  2  0  0  0  0
 25 27  1  0  0  0  0
 26 25  1  0  0  0  0
 27 28  1  0  0  0  0
M  END
>  <MODEL>
7

>  <REMARK>
 VINA RESULT:      -6.6      3.615      9.667
  Name = 
  8 active torsions:
  status: ('A' for Active; 'I' for Inactive)
    1  A    between atoms: O_2  and  C_22
    2  A    between atoms: C_5  and  C_10
    3  A    between atoms: C_5  and  C_14
    4  A    between atoms: C_8  and  C_19
    5  A    between atoms: C_8  and  N_20
    6  A    between atoms: C_9  and  C_13
    7  A    between atoms: C_13  and  C_14
    8  A    between atoms: C_23  and  C_27
                            x       y       z     vdW  Elec       q    Type
                         _______ _______ _______ _____ _____    ______ ____

>  <TORSDO>
F 8

$$$$
=
 OpenBabel11062423113D

 28 31  0  0  1  0  0  0  0  0999 V2000
  193.2570  175.6550  144.3300 C   0  0  2  0  0  3  0  0  0  0  0  0
  194.1280  175.8360  143.1010 C   0  0  0  0  0  1  0  0  0  0  0  0
  192.4420  176.9230  144.5640 C   0  0  1  0  0  3  0  0  0  0  0  0
  190.5400  175.4370  143.9660 O   0  0  0  0  0  1  0  0  0  0  0  0
  190.9890  176.7150  144.3270 C   0  0  1  0  0  0  0  0  0  0  0  0
  191.5210  176.7260  145.6240 O   0  0  0  0  0  0  0  0  0  0  0  0
  190.0870  177.9120  144.0740 C   0  0  0  0  0  2  0  0  0  0  0  0
  187.6350  178.3380  142.6840 O   0  0  0  0  0  0  0  0  0  0  0  0
  188.7630  177.6430  144.6060 N   0  0  0  0  0  2  0  0  0  0  0  0
  187.5700  177.8890  143.8600 C   0  0  0  0  0  0  0  0  0  0  0  0
  186.4010  176.7380  145.7040 C   0  0  0  0  0  2  0  0  0  0  0  0
  184.6080  178.2620  146.3620 C   0  0  2  0  0  3  0  0  0  0  0  0
  185.0160  178.9460  147.5100 O   0  0  0  0  0  1  0  0  0  0  0  0
  186.2360  177.5610  144.4460 C   0  0  1  0  0  3  0  0  0  0  0  0
  185.0790  176.8180  146.4290 C   0  0  0  0  0  2  0  0  0  0  0  0
  185.3090  179.0640  144.8820 S   0  0  0  0  0  0  0  0  0  0  0  0
  194.1220  175.3460  145.5500 C   0  0  0  0  0  2  0  0  0  0  0  0
  195.6080  175.2730  145.2030 C   0  0  0  0  0  2  0  0  0  0  0  0
  197.6420  173.8070  145.3230 C   0  0  0  0  0  2  0  0  0  0  0  0
  194.9420  171.8070  143.5870 C   0  0  0  0  0  3  0  0  0  0  0  0
  196.5020  171.6190  145.9800 C   0  0  0  0  0  3  0  0  0  0  0  0
  196.3030  174.1570  145.9800 C   0  0  2  0  0  3  0  0  0  0  0  0
  196.4610  172.8780  145.1720 C   0  0  1  0  0  0  0  0  0  0  0  0
  195.8600  172.7630  143.7960 C   0  0  0  0  0  3  0  0  0  0  0  0
  195.5790  170.6720  145.7500 C   0  0  0  0  0  0  0  0  0  0  0  0
  194.4940  170.8990  144.7180 C   0  0  0  0  0  2  0  0  0  0  0  0
  195.5660  169.4740  146.4730 O   0  0  0  0  0  0  0  0  0  0  0  0
  196.5740  169.1240  147.4130 C   0  0  0  0  0  1  0  0  0  0  0  0
  1  2  1  6  0  0  0
  1 17  1  0  0  0  0
  3  1  1  6  0  0  0
  3  6  1  0  0  0  0
  5  4  1  6  0  0  0
  5  3  1  0  0  0  0
  5  6  1  0  0  0  0
  7  5  1  0  0  0  0
  7  9  1  0  0  0  0
  8 10  2  0  0  0  0
 10  9  1  0  0  0  0
 11 15  1  0  0  0  0
 12 15  1  0  0  0  0
 12 13  1  1  0  0  0
 14 10  1  1  0  0  0
 14 16  1  0  0  0  0
 14 11  1  0  0  0  0
 16 12  1  0  0  0  0
 18 17  1  0  0  0  0
 19 22  1  0  0  0  0
 20 24  2  0  0  0  0
 20 26  1  0  0  0  0
 22 18  1  6  0  0  0
 23 24  1  6  0  0  0
 23 19  1  0  0  0  0
 23 21  1  0  0  0  0
 23 22  1  0  0  0  0
 25 21  2  0  0  0  0
 25 27  1  0  0  0  0
 26 25  1  0  0  0  0
 27 28  1  0  0  0  0
M  END
>  <MODEL>
8

>  <REMARK>
 VINA RESULT:      -6.5      3.704      9.803
  Name = 
  8 active torsions:
  status: ('A' for Active; 'I' for Inactive)
    1  A    between atoms: O_2  and  C_22
    2  A    between atoms: C_5  and  C_10
    3  A    between atoms: C_5  and  C_14
    4  A    between atoms: C_8  and  C_19
    5  A    between atoms: C_8  and  N_20
    6  A    between atoms: C_9  and  C_13
    7  A    between atoms: C_13  and  C_14
    8  A    between atoms: C_23  and  C_27
                            x       y       z     vdW  Elec       q    Type
                         _______ _______ _______ _____ _____    ______ ____

>  <TORSDO>
F 8

$$$$
=
 OpenBabel11062423113D

 28 31  0  0  1  0  0  0  0  0999 V2000
  190.9030  176.6530  144.8670 C   0  0  2  0  0  3  0  0  0  0  0  0
  191.3740  176.2810  146.2610 C   0  0  0  0  0  1  0  0  0  0  0  0
  192.0920  177.1360  144.0420 C   0  0  1  0  0  3  0  0  0  0  0  0
  191.5330  175.1530  142.6500 O   0  0  0  0  0  1  0  0  0  0  0  0
  192.3690  176.2550  142.8770 C   0  0  1  0  0  0  0  0  0  0  0  0
  191.6760  177.4660  142.7280 O   0  0  0  0  0  0  0  0  0  0  0  0
  193.7330  176.2970  142.2080 C   0  0  0  0  0  2  0  0  0  0  0  0
  195.6270  176.3500  144.3390 O   0  0  0  0  0  0  0  0  0  0  0  0
  194.5280  175.1650  142.6540 N   0  0  0  0  0  2  0  0  0  0  0  0
  195.4680  175.2610  143.7240 C   0  0  0  0  0  0  0  0  0  0  0  0
  196.3710  174.0370  145.6680 C   0  0  0  0  0  2  0  0  0  0  0  0
  195.9060  171.6840  145.2030 C   0  0  2  0  0  3  0  0  0  0  0  0
  194.7740  171.3110  145.9330 O   0  0  0  0  0  1  0  0  0  0  0  0
  196.2330  174.0550  144.1620 C   0  0  1  0  0  3  0  0  0  0  0  0
  196.7640  172.6250  146.0320 C   0  0  0  0  0  2  0  0  0  0  0  0
  195.4010  172.5170  143.6610 S   0  0  0  0  0  0  0  0  0  0  0  0
  189.8320  177.7390  144.9430 C   0  0  0  0  0  2  0  0  0  0  0  0
  188.5790  177.2660  145.6780 C   0  0  0  0  0  2  0  0  0  0  0  0
  186.1320  176.8820  145.2740 C   0  0  0  0  0  2  0  0  0  0  0  0
  187.9620  175.6770  142.1920 C   0  0  0  0  0  3  0  0  0  0  0  0
  186.0150  177.6700  142.8480 C   0  0  0  0  0  3  0  0  0  0  0  0
  187.3140  177.8260  145.0310 C   0  0  2  0  0  3  0  0  0  0  0  0
  186.7790  176.9460  143.9110 C   0  0  1  0  0  0  0  0  0  0  0  0
  187.5440  175.7280  143.4650 C   0  0  0  0  0  3  0  0  0  0  0  0
  186.4460  177.6010  141.5790 C   0  0  0  0  0  0  0  0  0  0  0  0
  187.7110  176.8360  141.2440 C   0  0  0  0  0  2  0  0  0  0  0  0
  185.7730  178.2550  140.5410 O   0  0  0  0  0  0  0  0  0  0  0  0
  184.3570  178.3760  140.4910 C   0  0  0  0  0  1  0  0  0  0  0  0
  1 17  1  0  0  0  0
  1  2  1  1  0  0  0
  3  1  1  1  0  0  0
  5  4  1  6  0  0  0
  5  3  1  0  0  0  0
  6  5  1  0  0  0  0
  6  3  1  0  0  0  0
  7  9  1  0  0  0  0
  7  5  1  0  0  0  0
  9 10  1  0  0  0  0
 10  8  2  0  0  0  0
 11 15  1  0  0  0  0
 12 13  1  1  0  0  0
 12 15  1  0  0  0  0
 14 10  1  1  0  0  0
 14 11  1  0  0  0  0
 16 14  1  0  0  0  0
 16 12  1  0  0  0  0
 17 18  1  0  0  0  0
 20 24  2  0  0  0  0
 22 19  1  0  0  0  0
 22 18  1  1  0  0  0
 23 21  1  6  0  0  0
 23 22  1  0  0  0  0
 23 19  1  0  0  0  0
 24 23  1  0  0  0  0
 25 21  2  0  0  0  0
 26 25  1  0  0  0  0
 26 20  1  0  0  0  0
 27 25  1  0  0  0  0
 28 27  1  0  0  0  0
M  END
>  <MODEL>
9

>  <REMARK>
 VINA RESULT:      -6.4      2.522      3.794
  Name = 
  8 active torsions:
  status: ('A' for Active; 'I' for Inactive)
    1  A    between atoms: O_2  and  C_22
    2  A    between atoms: C_5  and  C_10
    3  A    between atoms: C_5  and  C_14
    4  A    between atoms: C_8  and  C_19
    5  A    between atoms: C_8  and  N_20
    6  A    between atoms: C_9  and  C_13
    7  A    between atoms: C_13  and  C_14
    8  A    between atoms: C_23  and  C_27
                            x       y       z     vdW  Elec       q    Type
                         _______ _______ _______ _____ _____    ______ ____

>  <TORSDO>
F 8

$$$$
