=
 OpenBabel11072408503D

 26 28  0  0  1  0  0  0  0  0999 V2000
  188.0400  176.0270  146.1220 N   0  0  0  0  0  2  0  0  0  0  0  0
  187.8290  177.8570  147.5620 O   0  0  0  0  0  0  0  0  0  0  0  0
  187.2730  177.0270  146.7940 C   0  0  0  0  0  0  0  0  0  0  0  0
  190.7910  178.3790  143.6750 C   0  0  0  0  0  3  0  0  0  0  0  0
  191.5150  177.4510  142.9050 C   0  0  0  0  0  3  0  0  0  0  0  0
  191.5430  176.1350  143.2620 N   0  0  0  0  0  0  0  0  0  0  0  0
  190.0950  177.9410  144.8100 C   0  0  0  0  0  3  0  0  0  0  0  0
  190.8040  174.3230  144.8680 C   0  0  1  0  0  3  0  0  0  0  0  0
  189.9040  174.4360  146.1100 C   0  0  0  0  0  2  0  0  0  0  0  0
  189.4830  175.9090  146.2690 C   0  0  1  0  0  3  0  0  0  0  0  0
  190.8730  175.7160  144.3690 C   0  0  0  0  0  0  0  0  0  0  0  0
  190.1500  176.5860  145.1370 C   0  0  0  0  0  0  0  0  0  0  0  0
  192.8260  174.4660  146.1780 N   0  0  0  0  0  2  0  0  0  0  0  0
  192.1560  173.8380  145.2840 C   0  0  0  0  0  3  0  0  0  0  0  0
  185.8060  177.1180  146.5430 C   0  0  0  0  0  2  0  0  0  0  0  0
  185.3890  178.5540  146.2450 C   0  0  2  0  0  3  0  0  0  0  0  0
  183.8800  178.6900  146.3320 C   0  0  0  0  0  1  0  0  0  0  0  0
  185.9060  179.0500  144.8920 C   0  0  0  0  0  2  0  0  0  0  0  0
  184.7860  179.2690  143.8810 C   0  0  0  0  0  2  0  0  0  0  0  0
  184.5600  178.0160  143.0520 C   0  0  0  0  0  2  0  0  0  0  0  0
  186.2500  176.1640  143.0310 C   0  0  0  0  0  3  0  0  0  0  0  0
  186.6660  178.1460  141.7010 C   0  0  0  0  0  3  0  0  0  0  0  0
  185.8550  177.4320  142.5900 C   0  0  0  0  0  0  0  0  0  0  0  0
  188.2670  176.3290  141.7020 C   0  0  0  0  0  3  0  0  0  0  0  0
  187.8720  177.5950  141.2580 C   0  0  0  0  0  3  0  0  0  0  0  0
  187.4570  175.6130  142.5870 C   0  0  0  0  0  3  0  0  0  0  0  0
  1  3  1  0  0  0  0
  3  2  2  0  0  0  0
  4  7  1  0  0  0  0
  5  6  1  0  0  0  0
  5  4  2  0  0  0  0
  6 11  2  0  0  0  0
  7 12  2  0  0  0  0
  8 14  1  1  0  0  0
  8  9  1  0  0  0  0
  9 10  1  0  0  0  0
 10  1  1  6  0  0  0
 11  8  1  0  0  0  0
 11 12  1  0  0  0  0
 12 10  1  0  0  0  0
 14 13  2  0  0  0  0
 15  3  1  0  0  0  0
 16 17  1  6  0  0  0
 16 15  1  0  0  0  0
 18 16  1  0  0  0  0
 19 18  1  0  0  0  0
 20 19  1  0  0  0  0
 22 23  2  0  0  0  0
 23 21  1  0  0  0  0
 23 20  1  0  0  0  0
 24 26  1  0  0  0  0
 25 22  1  0  0  0  0
 25 24  2  0  0  0  0
 26 21  2  0  0  0  0
M  END
>  <MODEL>
1

>  <REMARK>
 VINA RESULT:      -6.9      0.000      0.000
  Name = 
  8 active torsions:
  status: ('A' for Active; 'I' for Inactive)
    1  A    between atoms: C_1  and  C_12
    2  A    between atoms: C_1  and  C_22
    3  A    between atoms: C_7  and  C_18
    4  A    between atoms: N_8  and  C_21
    5  A    between atoms: C_9  and  C_12
    6  A    between atoms: C_9  and  C_17
    7  A    between atoms: C_15  and  C_23
    8  A    between atoms: C_18  and  C_22
                            x       y       z     vdW  Elec       q    Type
                         _______ _______ _______ _____ _____    ______ ____

>  <TORSDO>
F 8

$$$$
=
 OpenBabel11072408503D

 26 28  0  0  1  0  0  0  0  0999 V2000
  189.0810  177.8650  143.0460 N   0  0  0  0  0  2  0  0  0  0  0  0
  187.8830  177.7950  141.0400 O   0  0  0  0  0  0  0  0  0  0  0  0
  187.9460  178.1800  142.2380 C   0  0  0  0  0  0  0  0  0  0  0  0
  189.2260  173.5180  143.4660 C   0  0  0  0  0  3  0  0  0  0  0  0
  190.3250  173.2460  144.2990 C   0  0  0  0  0  3  0  0  0  0  0  0
  191.2860  174.1930  144.5010 N   0  0  0  0  0  0  0  0  0  0  0  0
  189.1220  174.7710  142.8470 C   0  0  0  0  0  3  0  0  0  0  0  0
  192.1410  176.5280  144.0290 C   0  0  1  0  0  3  0  0  0  0  0  0
  191.5180  177.6310  143.1570 C   0  0  0  0  0  2  0  0  0  0  0  0
  190.2080  177.0880  142.5540 C   0  0  1  0  0  3  0  0  0  0  0  0
  191.1860  175.4050  143.8930 C   0  0  0  0  0  0  0  0  0  0  0  0
  190.1270  175.7100  143.0830 C   0  0  0  0  0  0  0  0  0  0  0  0
  193.6730  176.1340  142.2060 N   0  0  0  0  0  2  0  0  0  0  0  0
  193.4800  176.1610  143.4740 C   0  0  0  0  0  3  0  0  0  0  0  0
  186.8050  178.9290  142.8370 C   0  0  0  0  0  2  0  0  0  0  0  0
  186.0330  178.0560  143.8210 C   0  0  2  0  0  3  0  0  0  0  0  0
  184.6730  177.7000  143.2490 C   0  0  0  0  0  1  0  0  0  0  0  0
  185.8950  178.7040  145.2010 C   0  0  0  0  0  2  0  0  0  0  0  0
  186.4640  177.8330  146.3160 C   0  0  0  0  0  2  0  0  0  0  0  0
  187.1770  176.6210  145.7380 C   0  0  0  0  0  2  0  0  0  0  0  0
  188.7370  175.0920  146.9690 C   0  0  0  0  0  3  0  0  0  0  0  0
  189.4120  177.3860  146.5740 C   0  0  0  0  0  3  0  0  0  0  0  0
  188.4650  176.3630  146.4470 C   0  0  0  0  0  0  0  0  0  0  0  0
  190.8920  175.8730  147.7500 C   0  0  0  0  0  3  0  0  0  0  0  0
  190.6230  177.1410  147.2260 C   0  0  0  0  0  3  0  0  0  0  0  0
  189.9490  174.8480  147.6210 C   0  0  0  0  0  3  0  0  0  0  0  0
  2  3  2  0  0  0  0
  3 15  1  0  0  0  0
  3  1  1  0  0  0  0
  4  5  1  0  0  0  0
  5  6  2  0  0  0  0
  7 12  1  0  0  0  0
  7  4  2  0  0  0  0
  8 14  1  6  0  0  0
  9  8  1  0  0  0  0
 10  1  1  1  0  0  0
 10 12  1  0  0  0  0
 10  9  1  0  0  0  0
 11  8  1  0  0  0  0
 11  6  1  0  0  0  0
 12 11  2  0  0  0  0
 13 14  2  0  0  0  0
 15 16  1  0  0  0  0
 16 17  1  6  0  0  0
 16 18  1  0  0  0  0
 18 19  1  0  0  0  0
 20 19  1  0  0  0  0
 20 23  1  0  0  0  0
 21 26  1  0  0  0  0
 22 25  2  0  0  0  0
 23 22  1  0  0  0  0
 23 21  2  0  0  0  0
 25 24  1  0  0  0  0
 26 24  2  0  0  0  0
M  END
>  <MODEL>
2

>  <REMARK>
 VINA RESULT:      -6.6      2.105      4.321
  Name = 
  8 active torsions:
  status: ('A' for Active; 'I' for Inactive)
    1  A    between atoms: C_1  and  C_12
    2  A    between atoms: C_1  and  C_22
    3  A    between atoms: C_7  and  C_18
    4  A    between atoms: N_8  and  C_21
    5  A    between atoms: C_9  and  C_12
    6  A    between atoms: C_9  and  C_17
    7  A    between atoms: C_15  and  C_23
    8  A    between atoms: C_18  and  C_22
                            x       y       z     vdW  Elec       q    Type
                         _______ _______ _______ _____ _____    ______ ____

>  <TORSDO>
F 8

$$$$
=
 OpenBabel11072408503D

 26 28  0  0  1  0  0  0  0  0999 V2000
  189.8370  177.1290  142.9550 N   0  0  0  0  0  2  0  0  0  0  0  0
  188.6450  175.6230  141.6210 O   0  0  0  0  0  0  0  0  0  0  0  0
  188.7690  176.7950  142.0670 C   0  0  0  0  0  0  0  0  0  0  0  0
  189.3290  174.8770  146.6640 C   0  0  0  0  0  3  0  0  0  0  0  0
  190.3880  175.2670  147.5030 C   0  0  0  0  0  3  0  0  0  0  0  0
  191.4840  175.8880  146.9810 N   0  0  0  0  0  0  0  0  0  0  0  0
  189.4050  175.1340  145.2890 C   0  0  0  0  0  3  0  0  0  0  0  0
  192.6750  176.8030  144.9430 C   0  0  1  0  0  3  0  0  0  0  0  0
  192.2120  176.8240  143.4770 C   0  0  0  0  0  2  0  0  0  0  0  0
  190.8250  176.1580  143.3990 C   0  0  1  0  0  3  0  0  0  0  0  0
  191.5580  176.1290  145.6440 C   0  0  0  0  0  0  0  0  0  0  0  0
  190.5440  175.7740  144.7990 C   0  0  0  0  0  0  0  0  0  0  0  0
  194.9030  176.2030  144.2360 N   0  0  0  0  0  2  0  0  0  0  0  0
  193.9330  176.0020  145.0490 C   0  0  0  0  0  3  0  0  0  0  0  0
  187.7620  177.8350  141.7080 C   0  0  0  0  0  2  0  0  0  0  0  0
  186.4010  177.2060  141.4280 C   0  0  2  0  0  3  0  0  0  0  0  0
  185.7510  177.8760  140.2310 C   0  0  0  0  0  1  0  0  0  0  0  0
  185.4740  177.2410  142.6450 C   0  0  0  0  0  2  0  0  0  0  0  0
  184.7490  178.5740  142.7920 C   0  0  0  0  0  2  0  0  0  0  0  0
  185.5000  179.4910  143.7430 C   0  0  0  0  0  2  0  0  0  0  0  0
  184.5760  178.8590  145.9870 C   0  0  0  0  0  3  0  0  0  0  0  0
  186.8630  178.2650  145.4510 C   0  0  0  0  0  3  0  0  0  0  0  0
  185.6510  178.8650  145.0910 C   0  0  0  0  0  0  0  0  0  0  0  0
  185.9270  177.6650  147.6030 C   0  0  0  0  0  3  0  0  0  0  0  0
  187.0010  177.6670  146.7070 C   0  0  0  0  0  3  0  0  0  0  0  0
  184.7150  178.2610  147.2430 C   0  0  0  0  0  3  0  0  0  0  0  0
  2  3  2  0  0  0  0
  3  1  1  0  0  0  0
  4  5  1  0  0  0  0
  6  5  2  0  0  0  0
  7  4  2  0  0  0  0
  8 14  1  6  0  0  0
  8 11  1  0  0  0  0
  9  8  1  0  0  0  0
 10  1  1  1  0  0  0
 10  9  1  0  0  0  0
 10 12  1  0  0  0  0
 11  6  1  0  0  0  0
 12  7  1  0  0  0  0
 12 11  2  0  0  0  0
 13 14  2  0  0  0  0
 15  3  1  0  0  0  0
 16 17  1  6  0  0  0
 16 15  1  0  0  0  0
 16 18  1  0  0  0  0
 18 19  1  0  0  0  0
 19 20  1  0  0  0  0
 20 23  1  0  0  0  0
 21 26  1  0  0  0  0
 22 25  2  0  0  0  0
 23 22  1  0  0  0  0
 23 21  2  0  0  0  0
 25 24  1  0  0  0  0
 26 24  2  0  0  0  0
M  END
>  <MODEL>
3

>  <REMARK>
 VINA RESULT:      -6.5      1.919      4.260
  Name = 
  8 active torsions:
  status: ('A' for Active; 'I' for Inactive)
    1  A    between atoms: C_1  and  C_12
    2  A    between atoms: C_1  and  C_22
    3  A    between atoms: C_7  and  C_18
    4  A    between atoms: N_8  and  C_21
    5  A    between atoms: C_9  and  C_12
    6  A    between atoms: C_9  and  C_17
    7  A    between atoms: C_15  and  C_23
    8  A    between atoms: C_18  and  C_22
                            x       y       z     vdW  Elec       q    Type
                         _______ _______ _______ _____ _____    ______ ____

>  <TORSDO>
F 8

$$$$
=
 OpenBabel11072408503D

 26 28  0  0  1  0  0  0  0  0999 V2000
  190.6990  174.7780  144.0630 N   0  0  0  0  0  2  0  0  0  0  0  0
  192.9230  175.4790  144.2250 O   0  0  0  0  0  0  0  0  0  0  0  0
  191.8730  175.1010  144.8090 C   0  0  0  0  0  0  0  0  0  0  0  0
  188.6680  178.0920  142.0660 C   0  0  0  0  0  3  0  0  0  0  0  0
  187.5970  177.5200  141.3570 C   0  0  0  0  0  3  0  0  0  0  0  0
  187.5800  176.1800  141.1010 N   0  0  0  0  0  0  0  0  0  0  0  0
  189.7180  177.2760  142.5100 C   0  0  0  0  0  3  0  0  0  0  0  0
  188.7140  173.9290  141.3320 C   0  0  1  0  0  3  0  0  0  0  0  0
  190.0380  173.5770  142.0310 C   0  0  0  0  0  2  0  0  0  0  0  0
  190.6370  174.8720  142.6120 C   0  0  1  0  0  3  0  0  0  0  0  0
  188.6040  175.3930  141.5260 C   0  0  0  0  0  0  0  0  0  0  0  0
  189.6580  175.9110  142.2260 C   0  0  0  0  0  0  0  0  0  0  0  0
  188.0550  172.7010  139.3610 N   0  0  0  0  0  2  0  0  0  0  0  0
  188.8210  173.5900  139.8790 C   0  0  0  0  0  3  0  0  0  0  0  0
  191.8350  175.0370  146.2980 C   0  0  0  0  0  2  0  0  0  0  0  0
  190.6580  175.8340  146.8510 C   0  0  2  0  0  3  0  0  0  0  0  0
  191.1210  176.7300  147.9860 C   0  0  0  0  0  1  0  0  0  0  0  0
  189.4980  174.9410  147.2970 C   0  0  0  0  0  2  0  0  0  0  0  0
  188.1430  175.6230  147.1470 C   0  0  0  0  0  2  0  0  0  0  0  0
  188.0810  176.4130  145.8490 C   0  0  0  0  0  2  0  0  0  0  0  0
  185.7220  176.8920  146.5500 C   0  0  0  0  0  3  0  0  0  0  0  0
  186.7900  178.3600  144.9440 C   0  0  0  0  0  3  0  0  0  0  0  0
  186.8370  177.2340  145.7750 C   0  0  0  0  0  0  0  0  0  0  0  0
  184.5160  178.7930  145.6560 C   0  0  0  0  0  3  0  0  0  0  0  0
  185.6300  179.1370  144.8840 C   0  0  0  0  0  3  0  0  0  0  0  0
  184.5620  177.6710  146.4890 C   0  0  0  0  0  3  0  0  0  0  0  0
  1  3  1  0  0  0  0
  2  3  2  0  0  0  0
  3 15  1  0  0  0  0
  4  7  1  0  0  0  0
  5  4  2  0  0  0  0
  6  5  1  0  0  0  0
  6 11  2  0  0  0  0
  8 14  1  6  0  0  0
  8 11  1  0  0  0  0
  8  9  1  0  0  0  0
  9 10  1  0  0  0  0
 10  1  1  1  0  0  0
 11 12  1  0  0  0  0
 12  7  2  0  0  0  0
 12 10  1  0  0  0  0
 13 14  2  0  0  0  0
 15 16  1  0  0  0  0
 16 18  1  0  0  0  0
 16 17  1  1  0  0  0
 19 18  1  0  0  0  0
 20 19  1  0  0  0  0
 22 23  1  0  0  0  0
 23 20  1  0  0  0  0
 23 21  2  0  0  0  0
 24 26  2  0  0  0  0
 25 22  2  0  0  0  0
 25 24  1  0  0  0  0
 26 21  1  0  0  0  0
M  END
>  <MODEL>
4

>  <REMARK>
 VINA RESULT:      -6.5      2.540      5.072
  Name = 
  8 active torsions:
  status: ('A' for Active; 'I' for Inactive)
    1  A    between atoms: C_1  and  C_12
    2  A    between atoms: C_1  and  C_22
    3  A    between atoms: C_7  and  C_18
    4  A    between atoms: N_8  and  C_21
    5  A    between atoms: C_9  and  C_12
    6  A    between atoms: C_9  and  C_17
    7  A    between atoms: C_15  and  C_23
    8  A    between atoms: C_18  and  C_22
                            x       y       z     vdW  Elec       q    Type
                         _______ _______ _______ _____ _____    ______ ____

>  <TORSDO>
F 8

$$$$
=
 OpenBabel11072408503D

 26 28  0  0  1  0  0  0  0  0999 V2000
  186.9880  175.5930  142.7000 N   0  0  0  0  0  2  0  0  0  0  0  0
  189.2620  175.7550  142.1830 O   0  0  0  0  0  0  0  0  0  0  0  0
  188.2150  175.0550  142.2050 C   0  0  0  0  0  0  0  0  0  0  0  0
  187.4200  176.4920  146.9540 C   0  0  0  0  0  3  0  0  0  0  0  0
  186.1750  176.9940  147.3720 C   0  0  0  0  0  3  0  0  0  0  0  0
  185.2720  177.4430  146.4540 N   0  0  0  0  0  0  0  0  0  0  0  0
  187.7250  176.4510  145.5870 C   0  0  0  0  0  3  0  0  0  0  0  0
  184.6920  177.8490  144.0230 C   0  0  1  0  0  3  0  0  0  0  0  0
  185.5270  177.5590  142.7660 C   0  0  0  0  0  2  0  0  0  0  0  0
  186.8720  176.9510  143.2080 C   0  0  1  0  0  3  0  0  0  0  0  0
  185.5740  177.4100  145.1280 C   0  0  0  0  0  0  0  0  0  0  0  0
  186.7700  176.9190  144.6830 C   0  0  0  0  0  0  0  0  0  0  0  0
  185.3910  180.1570  144.1270 N   0  0  0  0  0  2  0  0  0  0  0  0
  184.4220  179.3180  144.1070 C   0  0  0  0  0  3  0  0  0  0  0  0
  188.2640  173.6330  141.7580 C   0  0  0  0  0  2  0  0  0  0  0  0
  189.5430  172.9520  142.2350 C   0  0  2  0  0  3  0  0  0  0  0  0
  190.2280  172.2550  141.0730 C   0  0  0  0  0  1  0  0  0  0  0  0
  189.2980  171.9800  143.3900 C   0  0  0  0  0  2  0  0  0  0  0  0
  190.1890  172.2660  144.5950 C   0  0  0  0  0  2  0  0  0  0  0  0
  189.7510  173.5450  145.2920 C   0  0  0  0  0  2  0  0  0  0  0  0
  190.9980  175.1390  146.7720 C   0  0  0  0  0  3  0  0  0  0  0  0
  191.9380  174.5630  144.6140 C   0  0  0  0  0  3  0  0  0  0  0  0
  190.9160  174.4390  145.5620 C   0  0  0  0  0  0  0  0  0  0  0  0
  193.1140  176.0910  146.0790 C   0  0  0  0  0  3  0  0  0  0  0  0
  193.0340  175.3900  144.8710 C   0  0  0  0  0  3  0  0  0  0  0  0
  192.0960  175.9660  147.0290 C   0  0  0  0  0  3  0  0  0  0  0  0
  2  3  2  0  0  0  0
  3  1  1  0  0  0  0
  4  5  1  0  0  0  0
  6  5  2  0  0  0  0
  7  4  2  0  0  0  0
  8 14  1  1  0  0  0
  8 11  1  0  0  0  0
  9 10  1  0  0  0  0
  9  8  1  0  0  0  0
 10  1  1  6  0  0  0
 10 12  1  0  0  0  0
 11  6  1  0  0  0  0
 12 11  2  0  0  0  0
 12  7  1  0  0  0  0
 14 13  2  0  0  0  0
 15  3  1  0  0  0  0
 15 16  1  0  0  0  0
 16 17  1  6  0  0  0
 16 18  1  0  0  0  0
 18 19  1  0  0  0  0
 19 20  1  0  0  0  0
 20 23  1  0  0  0  0
 21 26  1  0  0  0  0
 22 25  2  0  0  0  0
 22 23  1  0  0  0  0
 23 21  2  0  0  0  0
 24 26  2  0  0  0  0
 25 24  1  0  0  0  0
M  END
>  <MODEL>
5

>  <REMARK>
 VINA RESULT:      -6.2      2.687      6.824
  Name = 
  8 active torsions:
  status: ('A' for Active; 'I' for Inactive)
    1  A    between atoms: C_1  and  C_12
    2  A    between atoms: C_1  and  C_22
    3  A    between atoms: C_7  and  C_18
    4  A    between atoms: N_8  and  C_21
    5  A    between atoms: C_9  and  C_12
    6  A    between atoms: C_9  and  C_17
    7  A    between atoms: C_15  and  C_23
    8  A    between atoms: C_18  and  C_22
                            x       y       z     vdW  Elec       q    Type
                         _______ _______ _______ _____ _____    ______ ____

>  <TORSDO>
F 8

$$$$
=
 OpenBabel11072408503D

 26 28  0  0  1  0  0  0  0  0999 V2000
  189.0200  176.8280  146.8040 N   0  0  0  0  0  2  0  0  0  0  0  0
  189.6500  174.5770  146.8590 O   0  0  0  0  0  0  0  0  0  0  0  0
  189.9690  175.7840  147.0260 C   0  0  0  0  0  0  0  0  0  0  0  0
  187.8520  177.1470  142.6070 C   0  0  0  0  0  3  0  0  0  0  0  0
  186.9140  178.1920  142.5430 C   0  0  0  0  0  3  0  0  0  0  0  0
  186.2910  178.6260  143.6770 N   0  0  0  0  0  0  0  0  0  0  0  0
  188.1450  176.5550  143.8420 C   0  0  0  0  0  3  0  0  0  0  0  0
  185.9860  178.4170  146.1810 C   0  0  1  0  0  3  0  0  0  0  0  0
  186.6800  177.4620  147.1660 C   0  0  0  0  0  2  0  0  0  0  0  0
  187.6540  176.5730  146.3710 C   0  0  1  0  0  3  0  0  0  0  0  0
  186.5720  178.0440  144.8730 C   0  0  0  0  0  0  0  0  0  0  0  0
  187.4860  177.0320  144.9760 C   0  0  0  0  0  0  0  0  0  0  0  0
  183.6930  179.0410  145.7630 N   0  0  0  0  0  2  0  0  0  0  0  0
  184.5140  178.1580  146.2000 C   0  0  0  0  0  3  0  0  0  0  0  0
  191.3660  176.1350  147.4120 C   0  0  0  0  0  2  0  0  0  0  0  0
  192.3120  176.0000  146.2230 C   0  0  2  0  0  3  0  0  0  0  0  0
  193.7320  176.3360  146.6430 C   0  0  0  0  0  1  0  0  0  0  0  0
  191.8790  176.8490  145.0260 C   0  0  0  0  0  2  0  0  0  0  0  0
  191.9100  176.0710  143.7140 C   0  0  0  0  0  2  0  0  0  0  0  0
  191.8450  174.5760  143.9770 C   0  0  0  0  0  2  0  0  0  0  0  0
  190.3600  174.3970  141.9660 C   0  0  0  0  0  3  0  0  0  0  0  0
  189.9980  172.8900  143.8280 C   0  0  0  0  0  3  0  0  0  0  0  0
  190.7070  173.9460  143.2450 C   0  0  0  0  0  0  0  0  0  0  0  0
  188.5920  172.7450  141.8620 C   0  0  0  0  0  3  0  0  0  0  0  0
  188.9400  172.2910  143.1380 C   0  0  0  0  0  3  0  0  0  0  0  0
  189.3020  173.7970  141.2760 C   0  0  0  0  0  3  0  0  0  0  0  0
  1  3  1  0  0  0  0
  2  3  2  0  0  0  0
  3 15  1  0  0  0  0
  4  7  1  0  0  0  0
  5  4  2  0  0  0  0
  5  6  1  0  0  0  0
  6 11  2  0  0  0  0
  7 12  2  0  0  0  0
  8 14  1  6  0  0  0
  8  9  1  0  0  0  0
 10  1  1  1  0  0  0
 10  9  1  0  0  0  0
 11 12  1  0  0  0  0
 11  8  1  0  0  0  0
 12 10  1  0  0  0  0
 13 14  2  0  0  0  0
 16 17  1  1  0  0  0
 16 15  1  0  0  0  0
 18 16  1  0  0  0  0
 19 20  1  0  0  0  0
 19 18  1  0  0  0  0
 21 23  1  0  0  0  0
 23 22  2  0  0  0  0
 23 20  1  0  0  0  0
 24 25  2  0  0  0  0
 25 22  1  0  0  0  0
 26 24  1  0  0  0  0
 26 21  2  0  0  0  0
M  END
>  <MODEL>
6

>  <REMARK>
 VINA RESULT:      -6.1      2.352      5.855
  Name = 
  8 active torsions:
  status: ('A' for Active; 'I' for Inactive)
    1  A    between atoms: C_1  and  C_12
    2  A    between atoms: C_1  and  C_22
    3  A    between atoms: C_7  and  C_18
    4  A    between atoms: N_8  and  C_21
    5  A    between atoms: C_9  and  C_12
    6  A    between atoms: C_9  and  C_17
    7  A    between atoms: C_15  and  C_23
    8  A    between atoms: C_18  and  C_22
                            x       y       z     vdW  Elec       q    Type
                         _______ _______ _______ _____ _____    ______ ____

>  <TORSDO>
F 8

$$$$
=
 OpenBabel11072408503D

 26 28  0  0  1  0  0  0  0  0999 V2000
  189.1970  176.1520  142.4520 N   0  0  0  0  0  2  0  0  0  0  0  0
  187.0950  175.1490  142.2470 O   0  0  0  0  0  0  0  0  0  0  0  0
  187.8630  176.1000  141.9440 C   0  0  0  0  0  0  0  0  0  0  0  0
  189.4920  176.8060  146.7620 C   0  0  0  0  0  3  0  0  0  0  0  0
  190.8650  176.7820  147.0650 C   0  0  0  0  0  3  0  0  0  0  0  0
  191.7530  176.2410  146.1830 N   0  0  0  0  0  0  0  0  0  0  0  0
  189.0430  176.2730  145.5470 C   0  0  0  0  0  3  0  0  0  0  0  0
  192.1590  175.1100  143.9550 C   0  0  1  0  0  3  0  0  0  0  0  0
  191.1460  174.7240  142.8650 C   0  0  0  0  0  2  0  0  0  0  0  0
  189.7410  175.1380  143.3420 C   0  0  1  0  0  3  0  0  0  0  0  0
  191.3130  175.7170  145.0080 C   0  0  0  0  0  0  0  0  0  0  0  0
  189.9870  175.7310  144.6740 C   0  0  0  0  0  0  0  0  0  0  0  0
  192.1510  172.8230  144.7260 N   0  0  0  0  0  2  0  0  0  0  0  0
  192.8340  173.8750  144.4580 C   0  0  0  0  0  3  0  0  0  0  0  0
  187.3630  177.2120  141.0850 C   0  0  0  0  0  2  0  0  0  0  0  0
  186.0870  177.8170  141.6610 C   0  0  2  0  0  3  0  0  0  0  0  0
  185.1240  178.1690  140.5420 C   0  0  0  0  0  1  0  0  0  0  0  0
  186.3610  179.0320  142.5500 C   0  0  0  0  0  2  0  0  0  0  0  0
  185.2190  179.3170  143.5200 C   0  0  0  0  0  2  0  0  0  0  0  0
  184.7930  178.0450  144.2340 C   0  0  0  0  0  2  0  0  0  0  0  0
  185.4850  176.8040  146.3000 C   0  0  0  0  0  3  0  0  0  0  0  0
  185.5660  179.2260  146.3030 C   0  0  0  0  0  3  0  0  0  0  0  0
  185.2850  178.0250  145.6430 C   0  0  0  0  0  0  0  0  0  0  0  0
  186.2360  177.9890  148.2740 C   0  0  0  0  0  3  0  0  0  0  0  0
  186.0390  179.2080  147.6180 C   0  0  0  0  0  3  0  0  0  0  0  0
  185.9590  176.7870  147.6150 C   0  0  0  0  0  3  0  0  0  0  0  0
  3  2  2  0  0  0  0
  3  1  1  0  0  0  0
  4  5  1  0  0  0  0
  6  5  2  0  0  0  0
  7  4  2  0  0  0  0
  8 14  1  1  0  0  0
  8 11  1  0  0  0  0
  9 10  1  0  0  0  0
  9  8  1  0  0  0  0
 10  1  1  6  0  0  0
 10 12  1  0  0  0  0
 11  6  1  0  0  0  0
 12 11  2  0  0  0  0
 12  7  1  0  0  0  0
 14 13  2  0  0  0  0
 15 16  1  0  0  0  0
 15  3  1  0  0  0  0
 16 17  1  6  0  0  0
 16 18  1  0  0  0  0
 18 19  1  0  0  0  0
 19 20  1  0  0  0  0
 20 23  1  0  0  0  0
 21 26  1  0  0  0  0
 22 25  2  0  0  0  0
 23 21  2  0  0  0  0
 23 22  1  0  0  0  0
 25 24  1  0  0  0  0
 26 24  2  0  0  0  0
M  END
>  <MODEL>
7

>  <REMARK>
 VINA RESULT:      -6.0      2.026      4.024
  Name = 
  8 active torsions:
  status: ('A' for Active; 'I' for Inactive)
    1  A    between atoms: C_1  and  C_12
    2  A    between atoms: C_1  and  C_22
    3  A    between atoms: C_7  and  C_18
    4  A    between atoms: N_8  and  C_21
    5  A    between atoms: C_9  and  C_12
    6  A    between atoms: C_9  and  C_17
    7  A    between atoms: C_15  and  C_23
    8  A    between atoms: C_18  and  C_22
                            x       y       z     vdW  Elec       q    Type
                         _______ _______ _______ _____ _____    ______ ____

>  <TORSDO>
F 8

$$$$
=
 OpenBabel11072408503D

 26 28  0  0  1  0  0  0  0  0999 V2000
  188.8850  176.3030  145.7820 N   0  0  0  0  0  2  0  0  0  0  0  0
  189.0410  174.5390  147.3090 O   0  0  0  0  0  0  0  0  0  0  0  0
  189.6250  175.3310  146.5220 C   0  0  0  0  0  0  0  0  0  0  0  0
  186.4440  177.3600  142.3160 C   0  0  0  0  0  3  0  0  0  0  0  0
  185.8570  178.6010  142.6200 C   0  0  0  0  0  3  0  0  0  0  0  0
  185.8120  179.0430  143.9090 N   0  0  0  0  0  0  0  0  0  0  0  0
  186.9860  176.5810  143.3480 C   0  0  0  0  0  3  0  0  0  0  0  0
  186.3640  178.6350  146.3460 C   0  0  1  0  0  3  0  0  0  0  0  0
  187.0810  177.4370  146.9910 C   0  0  0  0  0  2  0  0  0  0  0  0
  187.4390  176.4340  145.8790 C   0  0  1  0  0  3  0  0  0  0  0  0
  186.3310  178.2810  144.9090 C   0  0  0  0  0  0  0  0  0  0  0  0
  186.9190  177.0730  144.6510 C   0  0  0  0  0  0  0  0  0  0  0  0
  184.0650  177.9230  146.5260 N   0  0  0  0  0  2  0  0  0  0  0  0
  184.9800  178.7390  146.9020 C   0  0  0  0  0  3  0  0  0  0  0  0
  191.0990  175.2220  146.3200 C   0  0  0  0  0  2  0  0  0  0  0  0
  191.5550  176.0820  145.1460 C   0  0  2  0  0  3  0  0  0  0  0  0
  191.6340  175.2440  143.8830 C   0  0  0  0  0  1  0  0  0  0  0  0
  192.8840  176.7920  145.4160 C   0  0  0  0  0  2  0  0  0  0  0  0
  193.7640  176.0310  146.4030 C   0  0  0  0  0  2  0  0  0  0  0  0
  195.1090  175.7010  145.7760 C   0  0  0  0  0  2  0  0  0  0  0  0
  196.6030  173.7180  146.1250 C   0  0  0  0  0  3  0  0  0  0  0  0
  194.3200  173.3530  145.3980 C   0  0  0  0  0  3  0  0  0  0  0  0
  195.3510  174.2280  145.7600 C   0  0  0  0  0  0  0  0  0  0  0  0
  195.7940  171.4650  145.7570 C   0  0  0  0  0  3  0  0  0  0  0  0
  194.5420  171.9730  145.3950 C   0  0  0  0  0  3  0  0  0  0  0  0
  196.8240  172.3370  146.1220 C   0  0  0  0  0  3  0  0  0  0  0  0
  1  3  1  0  0  0  0
  3  2  2  0  0  0  0
  4  5  2  0  0  0  0
  4  7  1  0  0  0  0
  5  6  1  0  0  0  0
  6 11  2  0  0  0  0
  7 12  2  0  0  0  0
  8 14  1  1  0  0  0
  8  9  1  0  0  0  0
 10  1  1  6  0  0  0
 10  9  1  0  0  0  0
 11  8  1  0  0  0  0
 12 11  1  0  0  0  0
 12 10  1  0  0  0  0
 13 14  2  0  0  0  0
 15  3  1  0  0  0  0
 16 17  1  6  0  0  0
 16 18  1  0  0  0  0
 16 15  1  0  0  0  0
 18 19  1  0  0  0  0
 20 19  1  0  0  0  0
 22 23  1  0  0  0  0
 23 20  1  0  0  0  0
 23 21  2  0  0  0  0
 24 26  2  0  0  0  0
 25 22  2  0  0  0  0
 25 24  1  0  0  0  0
 26 21  1  0  0  0  0
M  END
>  <MODEL>
8

>  <REMARK>
 VINA RESULT:      -5.9      2.656      7.495
  Name = 
  8 active torsions:
  status: ('A' for Active; 'I' for Inactive)
    1  A    between atoms: C_1  and  C_12
    2  A    between atoms: C_1  and  C_22
    3  A    between atoms: C_7  and  C_18
    4  A    between atoms: N_8  and  C_21
    5  A    between atoms: C_9  and  C_12
    6  A    between atoms: C_9  and  C_17
    7  A    between atoms: C_15  and  C_23
    8  A    between atoms: C_18  and  C_22
                            x       y       z     vdW  Elec       q    Type
                         _______ _______ _______ _____ _____    ______ ____

>  <TORSDO>
F 8

$$$$
=
 OpenBabel11072408503D

 26 28  0  0  1  0  0  0  0  0999 V2000
  187.3710  176.9070  145.3290 N   0  0  0  0  0  2  0  0  0  0  0  0
  186.3740  178.9200  145.9770 O   0  0  0  0  0  0  0  0  0  0  0  0
  186.2940  177.8450  145.3260 C   0  0  0  0  0  0  0  0  0  0  0  0
  191.1260  177.7680  143.2690 C   0  0  0  0  0  3  0  0  0  0  0  0
  191.9860  176.6960  143.5650 C   0  0  0  0  0  3  0  0  0  0  0  0
  191.7150  175.8680  144.6150 N   0  0  0  0  0  0  0  0  0  0  0  0
  189.9870  177.9790  144.0580 C   0  0  0  0  0  3  0  0  0  0  0  0
  190.1880  175.2610  146.5410 C   0  0  1  0  0  3  0  0  0  0  0  0
  188.8840  175.9370  146.9950 C   0  0  0  0  0  2  0  0  0  0  0  0
  188.6080  177.1300  146.0610 C   0  0  1  0  0  3  0  0  0  0  0  0
  190.6130  176.0810  145.3830 C   0  0  0  0  0  0  0  0  0  0  0  0
  189.7490  177.1070  145.1200 C   0  0  0  0  0  0  0  0  0  0  0  0
  191.2830  176.3900  148.3710 N   0  0  0  0  0  2  0  0  0  0  0  0
  191.1920  175.3360  147.6460 C   0  0  0  0  0  3  0  0  0  0  0  0
  185.0830  177.5670  144.5010 C   0  0  0  0  0  2  0  0  0  0  0  0
  185.0200  178.4950  143.2910 C   0  0  2  0  0  3  0  0  0  0  0  0
  183.6940  178.3260  142.5710 C   0  0  0  0  0  1  0  0  0  0  0  0
  186.1940  178.2920  142.3310 C   0  0  0  0  0  2  0  0  0  0  0  0
  186.3480  176.8390  141.8920 C   0  0  0  0  0  2  0  0  0  0  0  0
  187.6300  176.6530  141.0970 C   0  0  0  0  0  2  0  0  0  0  0  0
  188.5640  174.4880  140.2470 C   0  0  0  0  0  3  0  0  0  0  0  0
  188.4490  174.8560  142.6390 C   0  0  0  0  0  3  0  0  0  0  0  0
  188.2210  175.3020  141.3320 C   0  0  0  0  0  0  0  0  0  0  0  0
  189.3540  172.7830  141.7740 C   0  0  0  0  0  3  0  0  0  0  0  0
  189.0140  173.5970  142.8600 C   0  0  0  0  0  3  0  0  0  0  0  0
  189.1300  173.2280  140.4680 C   0  0  0  0  0  3  0  0  0  0  0  0
  3  1  1  0  0  0  0
  3  2  2  0  0  0  0
  4  5  2  0  0  0  0
  4  7  1  0  0  0  0
  5  6  1  0  0  0  0
  6 11  2  0  0  0  0
  7 12  2  0  0  0  0
  8  9  1  0  0  0  0
  8 14  1  1  0  0  0
 10  1  1  6  0  0  0
 10  9  1  0  0  0  0
 11  8  1  0  0  0  0
 12 11  1  0  0  0  0
 12 10  1  0  0  0  0
 14 13  2  0  0  0  0
 15  3  1  0  0  0  0
 16 17  1  6  0  0  0
 16 15  1  0  0  0  0
 18 16  1  0  0  0  0
 19 18  1  0  0  0  0
 20 23  1  0  0  0  0
 20 19  1  0  0  0  0
 21 26  2  0  0  0  0
 21 23  1  0  0  0  0
 22 25  1  0  0  0  0
 23 22  2  0  0  0  0
 24 25  2  0  0  0  0
 26 24  1  0  0  0  0
M  END
>  <MODEL>
9

>  <REMARK>
 VINA RESULT:      -5.9      1.756      2.769
  Name = 
  8 active torsions:
  status: ('A' for Active; 'I' for Inactive)
    1  A    between atoms: C_1  and  C_12
    2  A    between atoms: C_1  and  C_22
    3  A    between atoms: C_7  and  C_18
    4  A    between atoms: N_8  and  C_21
    5  A    between atoms: C_9  and  C_12
    6  A    between atoms: C_9  and  C_17
    7  A    between atoms: C_15  and  C_23
    8  A    between atoms: C_18  and  C_22
                            x       y       z     vdW  Elec       q    Type
                         _______ _______ _______ _____ _____    ______ ____

>  <TORSDO>
F 8

$$$$
