=
 OpenBabel11062422233D

 36 41  0  0  1  0  0  0  0  0999 V2000
  190.0100  176.0750  146.9250 C   0  0  0  0  0  3  0  0  0  0  0  0
  189.2680  175.8940  145.7510 C   0  0  0  0  0  0  0  0  0  0  0  0
  192.0410  176.1260  145.7070 C   0  0  0  0  0  0  0  0  0  0  0  0
  191.3610  176.1860  146.8810 N   0  0  0  0  0  0  0  0  0  0  0  0
  189.9490  175.8160  144.5050 C   0  0  0  0  0  0  0  0  0  0  0  0
  191.3480  175.9410  144.5110 C   0  0  0  0  0  3  0  0  0  0  0  0
  187.8380  176.3280  141.3670 C   0  0  0  0  0  0  0  0  0  0  0  0
  189.3990  174.3550  142.5360 C   0  0  0  0  0  3  0  0  0  0  0  0
  187.9880  175.1150  140.7680 N   0  0  0  0  0  0  0  0  0  0  0  0
  189.2720  175.5910  143.1900 C   0  0  0  0  0  0  0  0  0  0  0  0
  188.7480  174.1340  141.3220 C   0  0  0  0  0  3  0  0  0  0  0  0
  188.4740  176.5730  142.5890 C   0  0  0  0  0  3  0  0  0  0  0  0
  187.0570  177.5210  139.4780 O   0  0  0  0  0  0  0  0  0  0  0  0
  187.0120  177.3670  140.7270 C   0  0  0  0  0  0  0  0  0  0  0  0
  186.1060  178.2430  141.5270 C   0  0  0  0  0  2  0  0  0  0  0  0
  183.7990  178.2190  140.9520 O   0  0  0  0  0  0  0  0  0  0  0  0
  183.8110  178.5320  142.3220 C   0  0  0  0  0  2  0  0  0  0  0  0
  184.7660  177.5670  141.7380 C   0  0  2  0  0  3  0  0  0  0  0  0
  193.7860  176.2920  145.6960 S   0  0  0  0  0  0  0  0  0  0  0  0
  194.2230  177.0460  144.4700 O   0  0  0  0  0  0  0  0  0  0  0  0
  194.2220  177.0530  146.9170 O   0  0  0  0  0  0  0  0  0  0  0  0
  195.7480  172.2100  145.6570 C   0  0  0  0  0  0  0  0  0  0  0  0
  194.3550  172.2980  145.5860 C   0  0  0  0  0  3  0  0  0  0  0  0
  196.4980  173.3420  145.7420 N   0  0  0  0  0  0  0  0  0  0  0  0
  195.9250  174.5760  145.7580 C   0  0  0  0  0  3  0  0  0  0  0  0
  193.7490  173.5550  145.5990 C   0  0  0  0  0  3  0  0  0  0  0  0
  194.5340  174.7060  145.6810 C   0  0  0  0  0  0  0  0  0  0  0  0
  196.3840  170.9390  145.6350 N   0  0  0  0  0  1  0  0  0  0  0  0
  187.7770  175.8210  145.8870 C   0  0  0  0  0  2  0  0  0  0  0  0
  187.3170  178.1790  145.0120 C   0  0  0  0  0  2  0  0  0  0  0  0
  184.9820  178.5600  145.7390 C   0  0  0  0  0  2  0  0  0  0  0  0
  184.8700  178.5930  147.2530 C   0  0  0  0  0  2  0  0  0  0  0  0
  187.1790  177.7390  147.5830 C   0  0  0  0  0  2  0  0  0  0  0  0
  185.9660  177.4990  145.2330 C   0  0  2  0  0  3  0  0  0  0  0  0
  187.1570  177.1910  146.1440 C   0  0  2  0  0  0  0  0  0  0  0  0
  186.2350  178.9100  147.8300 C   0  0  0  0  0  2  0  0  0  0  0  0
  2 29  1  0  0  0  0
  2  1  2  0  0  0  0
  3  4  2  0  0  0  0
  4  1  1  0  0  0  0
  5  6  2  0  0  0  0
  5  2  1  0  0  0  0
  6  3  1  0  0  0  0
  7 12  1  0  0  0  0
  8 10  1  0  0  0  0
  9 11  1  0  0  0  0
  9  7  2  0  0  0  0
 10  5  1  0  0  0  0
 11  8  2  0  0  0  0
 12 10  2  0  0  0  0
 13 14  2  0  0  0  0
 14  7  1  0  0  0  0
 14 15  1  0  0  0  0
 16 18  1  0  0  0  0
 16 17  1  0  0  0  0
 18 15  1  6  0  0  0
 18 17  1  0  0  0  0
 19  3  1  0  0  0  0
 19 21  2  0  0  0  0
 20 19  2  0  0  0  0
 22 24  1  0  0  0  0
 23 26  1  0  0  0  0
 23 22  2  0  0  0  0
 24 25  2  0  0  0  0
 26 27  2  0  0  0  0
 27 19  1  0  0  0  0
 27 25  1  0  0  0  0
 28 22  1  0  0  0  0
 30 35  1  0  0  0  0
 31 32  1  0  0  0  0
 32 36  1  0  0  0  0
 33 36  1  0  0  0  0
 34 30  1  6  0  0  0
 34 31  1  0  0  0  0
 34 35  1  0  0  0  0
 35 29  1  6  0  0  0
 35 33  1  0  0  0  0
M  END
>  <MODEL>
1

>  <REMARK>
 VINA RESULT:      -7.8      0.000      0.000
  Name = 
  8 active torsions:
  status: ('A' for Active; 'I' for Inactive)
    1  A    between atoms: C_1  and  C_27
    2  A    between atoms: C_5  and  C_28
    3  A    between atoms: C_6  and  C_13
    4  A    between atoms: C_6  and  C_34
    5  A    between atoms: S_7  and  C_17
    6  A    between atoms: S_7  and  C_30
    7  A    between atoms: C_20  and  C_24
    8  A    between atoms: C_24  and  C_27
                            x       y       z     vdW  Elec       q    Type
                         _______ _______ _______ _____ _____    ______ ____

>  <TORSDO>
F 8

$$$$
=
 OpenBabel11062422233D

 36 41  0  0  1  0  0  0  0  0999 V2000
  189.8960  177.1080  147.2880 C   0  0  0  0  0  3  0  0  0  0  0  0
  190.2930  175.9660  146.5820 C   0  0  0  0  0  0  0  0  0  0  0  0
  187.7740  177.0960  146.2390 C   0  0  0  0  0  0  0  0  0  0  0  0
  188.6640  177.6430  147.1060 N   0  0  0  0  0  0  0  0  0  0  0  0
  189.3890  175.3730  145.6570 C   0  0  0  0  0  0  0  0  0  0  0  0
  188.1220  175.9610  145.5070 C   0  0  0  0  0  3  0  0  0  0  0  0
  190.2410  173.1370  142.6850 C   0  0  0  0  0  0  0  0  0  0  0  0
  189.7210  172.8960  145.4000 C   0  0  0  0  0  3  0  0  0  0  0  0
  190.2440  171.9170  143.2870 N   0  0  0  0  0  0  0  0  0  0  0  0
  189.7080  174.1760  144.8200 C   0  0  0  0  0  0  0  0  0  0  0  0
  189.9920  171.7740  144.6150 C   0  0  0  0  0  3  0  0  0  0  0  0
  189.9650  174.2780  143.4470 C   0  0  0  0  0  3  0  0  0  0  0  0
  191.5900  172.7540  140.7770 O   0  0  0  0  0  0  0  0  0  0  0  0
  190.5290  173.2460  141.2440 C   0  0  0  0  0  0  0  0  0  0  0  0
  189.5790  173.9220  140.3100 C   0  0  0  0  0  2  0  0  0  0  0  0
  189.0030  172.0230  139.0010 O   0  0  0  0  0  0  0  0  0  0  0  0
  188.2530  173.0710  138.4390 C   0  0  0  0  0  2  0  0  0  0  0  0
  188.4750  172.9690  139.8970 C   0  0  2  0  0  3  0  0  0  0  0  0
  186.1840  177.8110  146.0500 S   0  0  0  0  0  0  0  0  0  0  0  0
  185.1400  176.9130  146.6560 O   0  0  0  0  0  0  0  0  0  0  0  0
  186.1480  179.1400  146.7490 O   0  0  0  0  0  0  0  0  0  0  0  0
  185.2280  178.3500  141.6550 C   0  0  0  0  0  0  0  0  0  0  0  0
  186.5610  178.3960  142.0740 C   0  0  0  0  0  3  0  0  0  0  0  0
  184.2360  178.1500  142.5640 N   0  0  0  0  0  0  0  0  0  0  0  0
  184.5050  177.9880  143.8880 C   0  0  0  0  0  3  0  0  0  0  0  0
  186.8570  178.2320  143.4280 C   0  0  0  0  0  3  0  0  0  0  0  0
  185.8260  178.0220  144.3460 C   0  0  0  0  0  0  0  0  0  0  0  0
  184.9080  178.5060  140.2790 N   0  0  0  0  0  1  0  0  0  0  0  0
  191.6580  175.4180  146.8740 C   0  0  0  0  0  2  0  0  0  0  0  0
  194.0980  175.5390  146.1210 C   0  0  0  0  0  2  0  0  0  0  0  0
  193.9990  174.5330  143.8630 C   0  0  0  0  0  2  0  0  0  0  0  0
  193.1730  175.3830  142.9110 C   0  0  0  0  0  2  0  0  0  0  0  0
  192.2870  176.8150  144.7370 C   0  0  0  0  0  2  0  0  0  0  0  0
  193.4090  174.4690  145.2750 C   0  0  2  0  0  3  0  0  0  0  0  0
  192.6440  175.7090  145.7470 C   0  0  2  0  0  0  0  0  0  0  0  0
  193.1140  176.7950  143.4570 C   0  0  0  0  0  2  0  0  0  0  0  0
  2 29  1  0  0  0  0
  2  1  2  0  0  0  0
  3  4  2  0  0  0  0
  4  1  1  0  0  0  0
  5  2  1  0  0  0  0
  6  5  2  0  0  0  0
  6  3  1  0  0  0  0
  7  9  2  0  0  0  0
  7 12  1  0  0  0  0
  9 11  1  0  0  0  0
 10  8  1  0  0  0  0
 10  5  1  0  0  0  0
 11  8  2  0  0  0  0
 12 10  2  0  0  0  0
 13 14  2  0  0  0  0
 14  7  1  0  0  0  0
 15 14  1  0  0  0  0
 16 18  1  0  0  0  0
 17 16  1  0  0  0  0
 17 18  1  0  0  0  0
 18 15  1  6  0  0  0
 19  3  1  0  0  0  0
 19 20  2  0  0  0  0
 19 21  2  0  0  0  0
 22 23  2  0  0  0  0
 22 24  1  0  0  0  0
 23 26  1  0  0  0  0
 24 25  2  0  0  0  0
 25 27  1  0  0  0  0
 26 27  2  0  0  0  0
 27 19  1  0  0  0  0
 28 22  1  0  0  0  0
 32 36  1  0  0  0  0
 32 31  1  0  0  0  0
 33 35  1  0  0  0  0
 34 31  1  6  0  0  0
 34 35  1  0  0  0  0
 34 30  1  0  0  0  0
 35 30  1  0  0  0  0
 35 29  1  1  0  0  0
 36 33  1  0  0  0  0
M  END
>  <MODEL>
2

>  <REMARK>
 VINA RESULT:      -7.8      3.474      7.599
  Name = 
  8 active torsions:
  status: ('A' for Active; 'I' for Inactive)
    1  A    between atoms: C_1  and  C_27
    2  A    between atoms: C_5  and  C_28
    3  A    between atoms: C_6  and  C_13
    4  A    between atoms: C_6  and  C_34
    5  A    between atoms: S_7  and  C_17
    6  A    between atoms: S_7  and  C_30
    7  A    between atoms: C_20  and  C_24
    8  A    between atoms: C_24  and  C_27
                            x       y       z     vdW  Elec       q    Type
                         _______ _______ _______ _____ _____    ______ ____

>  <TORSDO>
F 8

$$$$
=
 OpenBabel11062422233D

 36 41  0  0  1  0  0  0  0  0999 V2000
  187.8050  176.7120  141.9940 C   0  0  0  0  0  3  0  0  0  0  0  0
  188.3760  176.7190  143.2720 C   0  0  0  0  0  0  0  0  0  0  0  0
  188.9060  174.6890  141.4440 C   0  0  0  0  0  0  0  0  0  0  0  0
  188.0770  175.7130  141.1180 N   0  0  0  0  0  0  0  0  0  0  0  0
  189.2580  175.6670  143.6440 C   0  0  0  0  0  0  0  0  0  0  0  0
  189.5040  174.6530  142.7030 C   0  0  0  0  0  3  0  0  0  0  0  0
  191.9360  175.8100  146.3580 C   0  0  0  0  0  0  0  0  0  0  0  0
  189.2630  175.1170  146.0950 C   0  0  0  0  0  3  0  0  0  0  0  0
  191.2290  175.3560  147.4270 N   0  0  0  0  0  0  0  0  0  0  0  0
  189.9540  175.5810  144.9640 C   0  0  0  0  0  0  0  0  0  0  0  0
  189.9190  175.0100  147.3230 C   0  0  0  0  0  3  0  0  0  0  0  0
  191.3050  175.9190  145.1130 C   0  0  0  0  0  3  0  0  0  0  0  0
  193.6680  177.1410  147.2720 O   0  0  0  0  0  0  0  0  0  0  0  0
  193.3530  176.1830  146.5180 C   0  0  0  0  0  0  0  0  0  0  0  0
  194.4380  175.4390  145.8110 C   0  0  0  0  0  2  0  0  0  0  0  0
  194.8400  175.8790  143.5080 O   0  0  0  0  0  0  0  0  0  0  0  0
  196.1060  175.5530  144.0250 C   0  0  0  0  0  2  0  0  0  0  0  0
  195.1280  176.3400  144.8050 C   0  0  2  0  0  3  0  0  0  0  0  0
  189.2140  173.4100  140.2860 S   0  0  0  0  0  0  0  0  0  0  0  0
  187.9770  172.5750  140.1000 O   0  0  0  0  0  0  0  0  0  0  0  0
  189.5970  174.0140  138.9640 O   0  0  0  0  0  0  0  0  0  0  0  0
  192.5760  170.7640  141.7750 C   0  0  0  0  0  0  0  0  0  0  0  0
  191.2580  170.4550  142.1240 C   0  0  0  0  0  3  0  0  0  0  0  0
  192.8370  171.8520  141.0010 N   0  0  0  0  0  0  0  0  0  0  0  0
  191.8400  172.6590  140.5470 C   0  0  0  0  0  3  0  0  0  0  0  0
  190.2210  171.2700  141.6670 C   0  0  0  0  0  3  0  0  0  0  0  0
  190.5080  172.3790  140.8690 C   0  0  0  0  0  0  0  0  0  0  0  0
  193.6440  169.9400  142.2230 N   0  0  0  0  0  1  0  0  0  0  0  0
  187.9900  177.8400  144.1900 C   0  0  0  0  0  2  0  0  0  0  0  0
  185.9610  176.3880  144.7480 C   0  0  0  0  0  2  0  0  0  0  0  0
  184.9480  177.6140  146.6450 C   0  0  0  0  0  2  0  0  0  0  0  0
  184.4420  178.9810  146.2160 C   0  0  0  0  0  2  0  0  0  0  0  0
  185.5750  178.8640  144.0090 C   0  0  0  0  0  2  0  0  0  0  0  0
  186.2760  177.2330  145.9840 C   0  0  2  0  0  3  0  0  0  0  0  0
  186.5150  177.7830  144.5750 C   0  0  2  0  0  0  0  0  0  0  0  0
  184.2290  178.9660  144.7160 C   0  0  0  0  0  2  0  0  0  0  0  0
  1  2  1  0  0  0  0
  2  5  2  0  0  0  0
  2 29  1  0  0  0  0
  3  6  2  0  0  0  0
  4  3  1  0  0  0  0
  4  1  2  0  0  0  0
  5 10  1  0  0  0  0
  6  5  1  0  0  0  0
  7 14  1  0  0  0  0
  7  9  1  0  0  0  0
  8 11  1  0  0  0  0
 10 12  1  0  0  0  0
 10  8  2  0  0  0  0
 11  9  2  0  0  0  0
 12  7  2  0  0  0  0
 14 13  2  0  0  0  0
 15 14  1  0  0  0  0
 16 17  1  0  0  0  0
 16 18  1  0  0  0  0
 17 18  1  0  0  0  0
 18 15  1  1  0  0  0
 19 27  1  0  0  0  0
 19  3  1  0  0  0  0
 20 19  2  0  0  0  0
 21 19  2  0  0  0  0
 22 23  1  0  0  0  0
 22 28  1  0  0  0  0
 24 22  2  0  0  0  0
 25 27  2  0  0  0  0
 25 24  1  0  0  0  0
 26 23  2  0  0  0  0
 27 26  1  0  0  0  0
 32 31  1  0  0  0  0
 33 35  1  0  0  0  0
 33 36  1  0  0  0  0
 34 30  1  6  0  0  0
 34 31  1  0  0  0  0
 35 29  1  6  0  0  0
 35 30  1  0  0  0  0
 35 34  1  0  0  0  0
 36 32  1  0  0  0  0
M  END
>  <MODEL>
3

>  <REMARK>
 VINA RESULT:      -7.8      2.674      6.442
  Name = 
  8 active torsions:
  status: ('A' for Active; 'I' for Inactive)
    1  A    between atoms: C_1  and  C_27
    2  A    between atoms: C_5  and  C_28
    3  A    between atoms: C_6  and  C_13
    4  A    between atoms: C_6  and  C_34
    5  A    between atoms: S_7  and  C_17
    6  A    between atoms: S_7  and  C_30
    7  A    between atoms: C_20  and  C_24
    8  A    between atoms: C_24  and  C_27
                            x       y       z     vdW  Elec       q    Type
                         _______ _______ _______ _____ _____    ______ ____

>  <TORSDO>
F 8

$$$$
=
 OpenBabel11062422233D

 36 41  0  0  1  0  0  0  0  0999 V2000
  187.9500  176.5090  141.8810 C   0  0  0  0  0  3  0  0  0  0  0  0
  188.4970  176.5690  143.1690 C   0  0  0  0  0  0  0  0  0  0  0  0
  188.9720  174.4110  141.4780 C   0  0  0  0  0  0  0  0  0  0  0  0
  188.1950  175.4470  141.0730 N   0  0  0  0  0  0  0  0  0  0  0  0
  189.3250  175.5060  143.6220 C   0  0  0  0  0  0  0  0  0  0  0  0
  189.5440  174.4260  142.7500 C   0  0  0  0  0  3  0  0  0  0  0  0
  191.9470  175.7420  146.3840 C   0  0  0  0  0  0  0  0  0  0  0  0
  189.2730  175.0640  146.0940 C   0  0  0  0  0  3  0  0  0  0  0  0
  191.2120  175.3430  147.4570 N   0  0  0  0  0  0  0  0  0  0  0  0
  189.9930  175.4710  144.9590 C   0  0  0  0  0  0  0  0  0  0  0  0
  189.9010  175.0050  147.3400 C   0  0  0  0  0  3  0  0  0  0  0  0
  191.3440  175.8030  145.1230 C   0  0  0  0  0  3  0  0  0  0  0  0
  193.6710  177.1110  147.2550 O   0  0  0  0  0  0  0  0  0  0  0  0
  193.3640  176.1080  146.5580 C   0  0  0  0  0  0  0  0  0  0  0  0
  194.4570  175.3050  145.9340 C   0  0  0  0  0  2  0  0  0  0  0  0
  194.6050  175.8920  143.6350 O   0  0  0  0  0  0  0  0  0  0  0  0
  195.8140  175.2270  143.9010 C   0  0  0  0  0  2  0  0  0  0  0  0
  195.1890  176.1270  144.8920 C   0  0  2  0  0  3  0  0  0  0  0  0
  189.2460  173.0510  140.4070 S   0  0  0  0  0  0  0  0  0  0  0  0
  189.7890  171.8830  141.1850 O   0  0  0  0  0  0  0  0  0  0  0  0
  187.9460  172.6480  139.7700 O   0  0  0  0  0  0  0  0  0  0  0  0
  192.2190  174.1930  137.1870 C   0  0  0  0  0  0  0  0  0  0  0  0
  192.6820  173.9210  138.4770 C   0  0  0  0  0  3  0  0  0  0  0  0
  190.8890  174.1180  136.9110 N   0  0  0  0  0  0  0  0  0  0  0  0
  189.9820  173.7780  137.8670 C   0  0  0  0  0  3  0  0  0  0  0  0
  191.7670  173.5700  139.4710 C   0  0  0  0  0  3  0  0  0  0  0  0
  190.4060  173.4930  139.1680 C   0  0  0  0  0  0  0  0  0  0  0  0
  193.1380  174.5420  136.1590 N   0  0  0  0  0  1  0  0  0  0  0  0
  188.1440  177.7600  144.0090 C   0  0  0  0  0  2  0  0  0  0  0  0
  185.9830  176.4460  144.3790 C   0  0  0  0  0  2  0  0  0  0  0  0
  185.0210  177.5700  146.3630 C   0  0  0  0  0  2  0  0  0  0  0  0
  184.6470  179.0100  146.0590 C   0  0  0  0  0  2  0  0  0  0  0  0
  185.8310  179.0040  143.8760 C   0  0  0  0  0  2  0  0  0  0  0  0
  186.3320  177.1380  145.6970 C   0  0  2  0  0  3  0  0  0  0  0  0
  186.6590  177.7970  144.3540 C   0  0  2  0  0  0  0  0  0  0  0  0
  184.4780  179.1570  144.5600 C   0  0  0  0  0  2  0  0  0  0  0  0
  1  2  1  0  0  0  0
  2  5  2  0  0  0  0
  2 29  1  0  0  0  0
  3  6  2  0  0  0  0
  4  3  1  0  0  0  0
  4  1  2  0  0  0  0
  5 10  1  0  0  0  0
  6  5  1  0  0  0  0
  7 14  1  0  0  0  0
  7  9  1  0  0  0  0
  8 11  1  0  0  0  0
 10 12  1  0  0  0  0
 10  8  2  0  0  0  0
 11  9  2  0  0  0  0
 12  7  2  0  0  0  0
 14 13  2  0  0  0  0
 15 14  1  0  0  0  0
 16 17  1  0  0  0  0
 16 18  1  0  0  0  0
 17 18  1  0  0  0  0
 18 15  1  1  0  0  0
 19 20  2  0  0  0  0
 19  3  1  0  0  0  0
 21 19  2  0  0  0  0
 22 23  1  0  0  0  0
 23 26  2  0  0  0  0
 24 22  2  0  0  0  0
 24 25  1  0  0  0  0
 25 27  2  0  0  0  0
 27 26  1  0  0  0  0
 27 19  1  0  0  0  0
 28 22  1  0  0  0  0
 32 31  1  0  0  0  0
 33 35  1  0  0  0  0
 33 36  1  0  0  0  0
 34 30  1  6  0  0  0
 34 31  1  0  0  0  0
 35 29  1  6  0  0  0
 35 30  1  0  0  0  0
 35 34  1  0  0  0  0
 36 32  1  0  0  0  0
M  END
>  <MODEL>
4

>  <REMARK>
 VINA RESULT:      -7.8      2.966      7.112
  Name = 
  8 active torsions:
  status: ('A' for Active; 'I' for Inactive)
    1  A    between atoms: C_1  and  C_27
    2  A    between atoms: C_5  and  C_28
    3  A    between atoms: C_6  and  C_13
    4  A    between atoms: C_6  and  C_34
    5  A    between atoms: S_7  and  C_17
    6  A    between atoms: S_7  and  C_30
    7  A    between atoms: C_20  and  C_24
    8  A    between atoms: C_24  and  C_27
                            x       y       z     vdW  Elec       q    Type
                         _______ _______ _______ _____ _____    ______ ____

>  <TORSDO>
F 8

$$$$
=
 OpenBabel11062422233D

 36 41  0  0  1  0  0  0  0  0999 V2000
  190.5340  175.3200  142.6300 C   0  0  0  0  0  3  0  0  0  0  0  0
  189.4760  176.2270  142.7700 C   0  0  0  0  0  0  0  0  0  0  0  0
  189.3540  174.1030  140.9770 C   0  0  0  0  0  0  0  0  0  0  0  0
  190.4530  174.2920  141.7500 N   0  0  0  0  0  0  0  0  0  0  0  0
  188.3040  176.0530  141.9840 C   0  0  0  0  0  0  0  0  0  0  0  0
  188.2710  174.9760  141.0830 C   0  0  0  0  0  3  0  0  0  0  0  0
  185.2980  177.9850  143.3230 C   0  0  0  0  0  0  0  0  0  0  0  0
  186.5730  177.5190  140.9030 C   0  0  0  0  0  3  0  0  0  0  0  0
  184.8240  178.5330  142.1720 N   0  0  0  0  0  0  0  0  0  0  0  0
  187.0980  176.9320  142.0670 C   0  0  0  0  0  0  0  0  0  0  0  0
  185.4310  178.3190  140.9750 C   0  0  0  0  0  3  0  0  0  0  0  0
  186.4370  177.1720  143.2790 C   0  0  0  0  0  3  0  0  0  0  0  0
  183.6910  179.1070  144.6510 O   0  0  0  0  0  0  0  0  0  0  0  0
  184.6130  178.2500  144.6000 C   0  0  0  0  0  0  0  0  0  0  0  0
  184.9790  177.5150  145.8480 C   0  0  0  0  0  2  0  0  0  0  0  0
  185.9090  179.2620  147.1660 O   0  0  0  0  0  0  0  0  0  0  0  0
  185.8840  178.1520  148.0290 C   0  0  0  0  0  2  0  0  0  0  0  0
  184.7970  178.4070  147.0600 C   0  0  2  0  0  3  0  0  0  0  0  0
  189.3020  172.7710  139.8390 S   0  0  0  0  0  0  0  0  0  0  0  0
  190.1070  171.6140  140.3640 O   0  0  0  0  0  0  0  0  0  0  0  0
  187.8780  172.3280  139.6530 O   0  0  0  0  0  0  0  0  0  0  0  0
  191.0730  174.0660  135.8760 C   0  0  0  0  0  0  0  0  0  0  0  0
  189.7110  174.2730  136.1150 C   0  0  0  0  0  3  0  0  0  0  0  0
  191.8490  173.4780  136.8260 N   0  0  0  0  0  0  0  0  0  0  0  0
  191.3320  173.0810  138.0210 C   0  0  0  0  0  3  0  0  0  0  0  0
  189.1630  173.8730  137.3350 C   0  0  0  0  0  3  0  0  0  0  0  0
  189.9760  173.2760  138.3010 C   0  0  0  0  0  0  0  0  0  0  0  0
  191.6500  174.4760  134.6430 N   0  0  0  0  0  1  0  0  0  0  0  0
  189.6650  177.3570  143.7380 C   0  0  0  0  0  2  0  0  0  0  0  0
  188.9240  177.6390  146.1680 C   0  0  0  0  0  2  0  0  0  0  0  0
  188.5910  175.2950  146.8880 C   0  0  0  0  0  2  0  0  0  0  0  0
  189.8990  174.5220  146.8850 C   0  0  0  0  0  2  0  0  0  0  0  0
  191.1150  176.3100  145.6640 C   0  0  0  0  0  2  0  0  0  0  0  0
  188.4610  176.2580  145.7040 C   0  0  2  0  0  3  0  0  0  0  0  0
  189.7640  176.8670  145.1780 C   0  0  2  0  0  0  0  0  0  0  0  0
  191.0430  175.5120  146.9600 C   0  0  0  0  0  2  0  0  0  0  0  0
  1  2  1  0  0  0  0
  2 29  1  0  0  0  0
  3  6  2  0  0  0  0
  3  4  1  0  0  0  0
  4  1  2  0  0  0  0
  5 10  1  0  0  0  0
  5  2  2  0  0  0  0
  6  5  1  0  0  0  0
  7 14  1  0  0  0  0
  8 11  2  0  0  0  0
  8 10  1  0  0  0  0
  9  7  2  0  0  0  0
 10 12  2  0  0  0  0
 11  9  1  0  0  0  0
 12  7  1  0  0  0  0
 14 13  2  0  0  0  0
 14 15  1  0  0  0  0
 16 17  1  0  0  0  0
 18 15  1  6  0  0  0
 18 16  1  0  0  0  0
 18 17  1  0  0  0  0
 19 20  2  0  0  0  0
 19  3  1  0  0  0  0
 21 19  2  0  0  0  0
 22 23  2  0  0  0  0
 22 24  1  0  0  0  0
 23 26  1  0  0  0  0
 24 25  2  0  0  0  0
 25 27  1  0  0  0  0
 26 27  2  0  0  0  0
 27 19  1  0  0  0  0
 28 22  1  0  0  0  0
 32 31  1  0  0  0  0
 32 36  1  0  0  0  0
 33 36  1  0  0  0  0
 34 30  1  1  0  0  0
 34 31  1  0  0  0  0
 35 29  1  6  0  0  0
 35 33  1  0  0  0  0
 35 34  1  0  0  0  0
 35 30  1  0  0  0  0
M  END
>  <MODEL>
5

>  <REMARK>
 VINA RESULT:      -7.5      3.876      6.579
  Name = 
  8 active torsions:
  status: ('A' for Active; 'I' for Inactive)
    1  A    between atoms: C_1  and  C_27
    2  A    between atoms: C_5  and  C_28
    3  A    between atoms: C_6  and  C_13
    4  A    between atoms: C_6  and  C_34
    5  A    between atoms: S_7  and  C_17
    6  A    between atoms: S_7  and  C_30
    7  A    between atoms: C_20  and  C_24
    8  A    between atoms: C_24  and  C_27
                            x       y       z     vdW  Elec       q    Type
                         _______ _______ _______ _____ _____    ______ ____

>  <TORSDO>
F 8

$$$$
=
 OpenBabel11062422233D

 36 41  0  0  1  0  0  0  0  0999 V2000
  189.2940  175.8220  144.7310 C   0  0  0  0  0  3  0  0  0  0  0  0
  188.3640  176.6020  144.0330 C   0  0  0  0  0  0  0  0  0  0  0  0
  189.3450  174.2150  142.9930 C   0  0  0  0  0  0  0  0  0  0  0  0
  189.7600  174.6610  144.2060 N   0  0  0  0  0  0  0  0  0  0  0  0
  187.9000  176.1590  142.7640 C   0  0  0  0  0  0  0  0  0  0  0  0
  188.4160  174.9530  142.2600 C   0  0  0  0  0  3  0  0  0  0  0  0
  184.6960  177.9060  141.6520 C   0  0  0  0  0  0  0  0  0  0  0  0
  187.1610  177.1940  140.5980 C   0  0  0  0  0  3  0  0  0  0  0  0
  185.0040  178.1870  140.3570 N   0  0  0  0  0  0  0  0  0  0  0  0
  186.8860  176.8840  141.9400 C   0  0  0  0  0  0  0  0  0  0  0  0
  186.2050  177.8480  139.8190 C   0  0  0  0  0  3  0  0  0  0  0  0
  185.6330  177.2440  142.4530 C   0  0  0  0  0  3  0  0  0  0  0  0
  183.3070  178.7730  143.3620 O   0  0  0  0  0  0  0  0  0  0  0  0
  183.3840  178.2990  142.1980 C   0  0  0  0  0  0  0  0  0  0  0  0
  182.1330  178.1620  141.3940 C   0  0  0  0  0  2  0  0  0  0  0  0
  179.8090  178.6590  141.4490 O   0  0  0  0  0  0  0  0  0  0  0  0
  180.3830  179.7590  140.7890 C   0  0  0  0  0  2  0  0  0  0  0  0
  181.0600  179.0930  141.9210 C   0  0  2  0  0  3  0  0  0  0  0  0
  189.9880  172.7190  142.3450 S   0  0  0  0  0  0  0  0  0  0  0  0
  191.4320  172.5650  142.7380 O   0  0  0  0  0  0  0  0  0  0  0  0
  189.2080  171.5590  142.8980 O   0  0  0  0  0  0  0  0  0  0  0  0
  189.7350  172.7630  137.8220 C   0  0  0  0  0  0  0  0  0  0  0  0
  188.5730  172.5460  138.5690 C   0  0  0  0  0  3  0  0  0  0  0  0
  190.9240  172.9530  138.4550 N   0  0  0  0  0  0  0  0  0  0  0  0
  191.0190  172.9400  139.8120 C   0  0  0  0  0  3  0  0  0  0  0  0
  188.6500  172.5310  139.9620 C   0  0  0  0  0  3  0  0  0  0  0  0
  189.8780  172.7330  140.5940 C   0  0  0  0  0  0  0  0  0  0  0  0
  189.6750  172.7920  136.4020 N   0  0  0  0  0  1  0  0  0  0  0  0
  187.9330  177.8890  144.6700 C   0  0  0  0  0  2  0  0  0  0  0  0
  187.5120  177.7970  147.1900 C   0  0  0  0  0  2  0  0  0  0  0  0
  185.3290  178.9440  147.3970 C   0  0  0  0  0  2  0  0  0  0  0  0
  184.2230  178.1620  146.7090 C   0  0  0  0  0  2  0  0  0  0  0  0
  185.8170  176.6250  145.5850 C   0  0  0  0  0  2  0  0  0  0  0  0
  186.6500  178.9240  146.6210 C   0  0  2  0  0  3  0  0  0  0  0  0
  186.9350  177.6630  145.8010 C   0  0  2  0  0  0  0  0  0  0  0  0
  184.6650  176.7190  146.5770 C   0  0  0  0  0  2  0  0  0  0  0  0
  2 29  1  0  0  0  0
  2  1  2  0  0  0  0
  3  4  2  0  0  0  0
  4  1  1  0  0  0  0
  5  2  1  0  0  0  0
  6  5  2  0  0  0  0
  6  3  1  0  0  0  0
  7 14  1  0  0  0  0
  7 12  1  0  0  0  0
  8 10  1  0  0  0  0
  9  7  2  0  0  0  0
 10 12  2  0  0  0  0
 10  5  1  0  0  0  0
 11  9  1  0  0  0  0
 11  8  2  0  0  0  0
 14 13  2  0  0  0  0
 15 14  1  0  0  0  0
 16 18  1  0  0  0  0
 17 16  1  0  0  0  0
 17 18  1  0  0  0  0
 18 15  1  6  0  0  0
 19 20  2  0  0  0  0
 19 21  2  0  0  0  0
 19  3  1  0  0  0  0
 22 24  2  0  0  0  0
 22 23  1  0  0  0  0
 23 26  2  0  0  0  0
 24 25  1  0  0  0  0
 25 27  2  0  0  0  0
 26 27  1  0  0  0  0
 27 19  1  0  0  0  0
 28 22  1  0  0  0  0
 32 31  1  0  0  0  0
 33 35  1  0  0  0  0
 33 36  1  0  0  0  0
 34 30  1  1  0  0  0
 34 31  1  0  0  0  0
 35 29  1  6  0  0  0
 35 34  1  0  0  0  0
 35 30  1  0  0  0  0
 36 32  1  0  0  0  0
M  END
>  <MODEL>
6

>  <REMARK>
 VINA RESULT:      -7.4      3.782      5.291
  Name = 
  8 active torsions:
  status: ('A' for Active; 'I' for Inactive)
    1  A    between atoms: C_1  and  C_27
    2  A    between atoms: C_5  and  C_28
    3  A    between atoms: C_6  and  C_13
    4  A    between atoms: C_6  and  C_34
    5  A    between atoms: S_7  and  C_17
    6  A    between atoms: S_7  and  C_30
    7  A    between atoms: C_20  and  C_24
    8  A    between atoms: C_24  and  C_27
                            x       y       z     vdW  Elec       q    Type
                         _______ _______ _______ _____ _____    ______ ____

>  <TORSDO>
F 8

$$$$
=
 OpenBabel11062422233D

 36 41  0  0  1  0  0  0  0  0999 V2000
  190.7500  176.1930  147.4220 C   0  0  0  0  0  3  0  0  0  0  0  0
  189.9730  175.5650  146.4410 C   0  0  0  0  0  0  0  0  0  0  0  0
  192.7070  175.9610  146.1090 C   0  0  0  0  0  0  0  0  0  0  0  0
  192.0810  176.3760  147.2400 N   0  0  0  0  0  0  0  0  0  0  0  0
  190.5970  175.1080  145.2490 C   0  0  0  0  0  0  0  0  0  0  0  0
  191.9770  175.3250  145.1040 C   0  0  0  0  0  3  0  0  0  0  0  0
  188.5850  174.3900  142.0870 C   0  0  0  0  0  0  0  0  0  0  0  0
  189.7880  172.9930  144.1600 C   0  0  0  0  0  3  0  0  0  0  0  0
  188.5180  173.0330  142.1400 N   0  0  0  0  0  0  0  0  0  0  0  0
  189.8830  174.3940  144.1460 C   0  0  0  0  0  0  0  0  0  0  0  0
  189.0990  172.3270  143.1450 C   0  0  0  0  0  3  0  0  0  0  0  0
  189.2630  175.0840  143.0950 C   0  0  0  0  0  3  0  0  0  0  0  0
  188.2550  174.8330  139.7840 O   0  0  0  0  0  0  0  0  0  0  0  0
  187.9480  175.1160  140.9730 C   0  0  0  0  0  0  0  0  0  0  0  0
  186.9290  176.1790  141.2180 C   0  0  0  0  0  2  0  0  0  0  0  0
  188.3920  177.9820  141.7340 O   0  0  0  0  0  0  0  0  0  0  0  0
  187.1080  178.5500  141.7930 C   0  0  0  0  0  2  0  0  0  0  0  0
  187.4600  177.5310  140.7820 C   0  0  2  0  0  3  0  0  0  0  0  0
  194.4260  176.2350  145.9080 S   0  0  0  0  0  0  0  0  0  0  0  0
  194.7910  177.6050  146.4110 O   0  0  0  0  0  0  0  0  0  0  0  0
  195.1910  175.2090  146.6960 O   0  0  0  0  0  0  0  0  0  0  0  0
  195.5520  175.9700  141.5290 C   0  0  0  0  0  0  0  0  0  0  0  0
  194.3570  175.3880  141.9630 C   0  0  0  0  0  3  0  0  0  0  0  0
  196.3640  176.6020  142.4190 N   0  0  0  0  0  0  0  0  0  0  0  0
  196.0420  176.6890  143.7390 C   0  0  0  0  0  3  0  0  0  0  0  0
  194.0100  175.4680  143.3120 C   0  0  0  0  0  3  0  0  0  0  0  0
  194.8520  176.1250  144.2110 C   0  0  0  0  0  0  0  0  0  0  0  0
  195.9180  175.9070  140.1570 N   0  0  0  0  0  1  0  0  0  0  0  0
  188.5020  175.4400  146.7080 C   0  0  0  0  0  2  0  0  0  0  0  0
  188.2440  177.5510  145.2910 C   0  0  0  0  0  2  0  0  0  0  0  0
  185.7850  177.7850  145.1450 C   0  0  0  0  0  2  0  0  0  0  0  0
  185.1710  178.0580  146.5080 C   0  0  0  0  0  2  0  0  0  0  0  0
  187.2760  177.5350  147.7170 C   0  0  0  0  0  2  0  0  0  0  0  0
  186.9330  176.7710  145.1970 C   0  0  2  0  0  3  0  0  0  0  0  0
  187.7650  176.7550  146.4820 C   0  0  2  0  0  0  0  0  0  0  0  0
  186.2460  178.6170  147.4160 C   0  0  0  0  0  2  0  0  0  0  0  0
  2 29  1  0  0  0  0
  2  1  2  0  0  0  0
  3  4  2  0  0  0  0
  4  1  1  0  0  0  0
  5  2  1  0  0  0  0
  6  5  2  0  0  0  0
  6  3  1  0  0  0  0
  7  9  2  0  0  0  0
  7 12  1  0  0  0  0
  9 11  1  0  0  0  0
 10  8  1  0  0  0  0
 10  5  1  0  0  0  0
 11  8  2  0  0  0  0
 12 10  2  0  0  0  0
 13 14  2  0  0  0  0
 14 15  1  0  0  0  0
 14  7  1  0  0  0  0
 16 17  1  0  0  0  0
 18 15  1  1  0  0  0
 18 16  1  0  0  0  0
 18 17  1  0  0  0  0
 19  3  1  0  0  0  0
 19 20  2  0  0  0  0
 19 21  2  0  0  0  0
 22 23  2  0  0  0  0
 22 24  1  0  0  0  0
 23 26  1  0  0  0  0
 24 25  2  0  0  0  0
 25 27  1  0  0  0  0
 26 27  2  0  0  0  0
 27 19  1  0  0  0  0
 28 22  1  0  0  0  0
 30 35  1  0  0  0  0
 31 32  1  0  0  0  0
 32 36  1  0  0  0  0
 34 31  1  1  0  0  0
 34 30  1  0  0  0  0
 34 35  1  0  0  0  0
 35 29  1  1  0  0  0
 35 33  1  0  0  0  0
 36 33  1  0  0  0  0
M  END
>  <MODEL>
7

>  <REMARK>
 VINA RESULT:      -7.4      2.303      2.710
  Name = 
  8 active torsions:
  status: ('A' for Active; 'I' for Inactive)
    1  A    between atoms: C_1  and  C_27
    2  A    between atoms: C_5  and  C_28
    3  A    between atoms: C_6  and  C_13
    4  A    between atoms: C_6  and  C_34
    5  A    between atoms: S_7  and  C_17
    6  A    between atoms: S_7  and  C_30
    7  A    between atoms: C_20  and  C_24
    8  A    between atoms: C_24  and  C_27
                            x       y       z     vdW  Elec       q    Type
                         _______ _______ _______ _____ _____    ______ ____

>  <TORSDO>
F 8

$$$$
=
 OpenBabel11062422233D

 36 41  0  0  1  0  0  0  0  0999 V2000
  190.5940  175.4920  142.7030 C   0  0  0  0  0  3  0  0  0  0  0  0
  189.5000  176.3540  142.8470 C   0  0  0  0  0  0  0  0  0  0  0  0
  189.4870  174.2710  141.0030 C   0  0  0  0  0  0  0  0  0  0  0  0
  190.5670  174.4830  141.7970 N   0  0  0  0  0  0  0  0  0  0  0  0
  188.3480  176.1540  142.0380 C   0  0  0  0  0  0  0  0  0  0  0  0
  188.3700  175.0980  141.1120 C   0  0  0  0  0  3  0  0  0  0  0  0
  185.2780  177.9780  143.3840 C   0  0  0  0  0  0  0  0  0  0  0  0
  186.5460  177.5310  140.9580 C   0  0  0  0  0  3  0  0  0  0  0  0
  184.7700  178.4900  142.2310 N   0  0  0  0  0  0  0  0  0  0  0  0
  187.1070  176.9830  142.1230 C   0  0  0  0  0  0  0  0  0  0  0  0
  185.3730  178.2840  141.0300 C   0  0  0  0  0  3  0  0  0  0  0  0
  186.4490  177.2130  143.3380 C   0  0  0  0  0  3  0  0  0  0  0  0
  183.6730  179.0880  144.7250 O   0  0  0  0  0  0  0  0  0  0  0  0
  184.5960  178.2330  144.6650 C   0  0  0  0  0  0  0  0  0  0  0  0
  184.9660  177.4880  145.9060 C   0  0  0  0  0  2  0  0  0  0  0  0
  185.9480  179.2330  147.1880 O   0  0  0  0  0  0  0  0  0  0  0  0
  185.9460  178.1260  148.0540 C   0  0  0  0  0  2  0  0  0  0  0  0
  184.8290  178.3840  147.1210 C   0  0  2  0  0  3  0  0  0  0  0  0
  189.5040  172.9650  139.8330 S   0  0  0  0  0  0  0  0  0  0  0  0
  188.1220  172.3910  139.6820 O   0  0  0  0  0  0  0  0  0  0  0  0
  189.9600  173.4930  138.5020 O   0  0  0  0  0  0  0  0  0  0  0  0
  192.3170  169.6910  141.2060 C   0  0  0  0  0  0  0  0  0  0  0  0
  191.1550  169.9440  141.9400 C   0  0  0  0  0  3  0  0  0  0  0  0
  192.5950  170.4260  140.0960 N   0  0  0  0  0  0  0  0  0  0  0  0
  191.7620  171.4150  139.6710 C   0  0  0  0  0  3  0  0  0  0  0  0
  190.2880  170.9540  141.5200 C   0  0  0  0  0  3  0  0  0  0  0  0
  190.5860  171.6950  140.3750 C   0  0  0  0  0  0  0  0  0  0  0  0
  193.2070  168.6600  141.6140 N   0  0  0  0  0  1  0  0  0  0  0  0
  189.6300  177.4660  143.8440 C   0  0  0  0  0  2  0  0  0  0  0  0
  188.9780  177.5880  146.3130 C   0  0  0  0  0  2  0  0  0  0  0  0
  188.9340  175.2000  146.9600 C   0  0  0  0  0  2  0  0  0  0  0  0
  190.3160  174.5750  146.8710 C   0  0  0  0  0  2  0  0  0  0  0  0
  191.2740  176.5240  145.6660 C   0  0  0  0  0  2  0  0  0  0  0  0
  188.6450  176.1800  145.8180 C   0  0  2  0  0  3  0  0  0  0  0  0
  189.8490  176.9440  145.2600 C   0  0  2  0  0  0  0  0  0  0  0  0
  191.3490  175.6820  146.9340 C   0  0  0  0  0  2  0  0  0  0  0  0
  1  2  1  0  0  0  0
  2 29  1  0  0  0  0
  3  6  2  0  0  0  0
  3  4  1  0  0  0  0
  4  1  2  0  0  0  0
  5 10  1  0  0  0  0
  5  2  2  0  0  0  0
  6  5  1  0  0  0  0
  7 14  1  0  0  0  0
  8 11  2  0  0  0  0
  8 10  1  0  0  0  0
  9  7  2  0  0  0  0
 10 12  2  0  0  0  0
 11  9  1  0  0  0  0
 12  7  1  0  0  0  0
 14 13  2  0  0  0  0
 14 15  1  0  0  0  0
 16 17  1  0  0  0  0
 18 15  1  6  0  0  0
 18 16  1  0  0  0  0
 18 17  1  0  0  0  0
 19 27  1  0  0  0  0
 19  3  1  0  0  0  0
 20 19  2  0  0  0  0
 21 19  2  0  0  0  0
 22 28  1  0  0  0  0
 22 23  1  0  0  0  0
 24 22  2  0  0  0  0
 25 24  1  0  0  0  0
 25 27  2  0  0  0  0
 26 23  2  0  0  0  0
 27 26  1  0  0  0  0
 32 36  1  0  0  0  0
 32 31  1  0  0  0  0
 33 36  1  0  0  0  0
 34 30  1  1  0  0  0
 34 31  1  0  0  0  0
 35 29  1  6  0  0  0
 35 33  1  0  0  0  0
 35 34  1  0  0  0  0
 35 30  1  0  0  0  0
M  END
>  <MODEL>
8

>  <REMARK>
 VINA RESULT:      -7.4      3.720      5.613
  Name = 
  8 active torsions:
  status: ('A' for Active; 'I' for Inactive)
    1  A    between atoms: C_1  and  C_27
    2  A    between atoms: C_5  and  C_28
    3  A    between atoms: C_6  and  C_13
    4  A    between atoms: C_6  and  C_34
    5  A    between atoms: S_7  and  C_17
    6  A    between atoms: S_7  and  C_30
    7  A    between atoms: C_20  and  C_24
    8  A    between atoms: C_24  and  C_27
                            x       y       z     vdW  Elec       q    Type
                         _______ _______ _______ _____ _____    ______ ____

>  <TORSDO>
F 8

$$$$
=
 OpenBabel11062422233D

 36 41  0  0  1  0  0  0  0  0999 V2000
  189.7660  176.1470  146.8850 C   0  0  0  0  0  3  0  0  0  0  0  0
  189.0690  175.9490  145.6880 C   0  0  0  0  0  0  0  0  0  0  0  0
  191.8370  176.2250  145.7380 C   0  0  0  0  0  0  0  0  0  0  0  0
  191.1160  176.2790  146.8880 N   0  0  0  0  0  0  0  0  0  0  0  0
  189.7930  175.8760  144.4660 C   0  0  0  0  0  0  0  0  0  0  0  0
  191.1890  176.0240  144.5200 C   0  0  0  0  0  3  0  0  0  0  0  0
  188.6790  174.2050  141.2220 C   0  0  0  0  0  0  0  0  0  0  0  0
  188.4900  176.6740  142.4720 C   0  0  0  0  0  3  0  0  0  0  0  0
  188.0320  175.2390  140.6200 N   0  0  0  0  0  0  0  0  0  0  0  0
  189.1670  175.6340  143.1300 C   0  0  0  0  0  0  0  0  0  0  0  0
  187.9270  176.4580  141.2130 C   0  0  0  0  0  3  0  0  0  0  0  0
  189.2590  174.3960  142.4810 C   0  0  0  0  0  3  0  0  0  0  0  0
  189.3120  171.9250  141.1290 O   0  0  0  0  0  0  0  0  0  0  0  0
  188.7620  172.8970  140.5470 C   0  0  0  0  0  0  0  0  0  0  0  0
  188.1950  172.6890  139.1810 C   0  0  0  0  0  2  0  0  0  0  0  0
  190.0240  173.7080  138.0540 O   0  0  0  0  0  0  0  0  0  0  0  0
  189.1020  173.4250  137.0320 C   0  0  0  0  0  2  0  0  0  0  0  0
  189.3080  172.5030  138.1690 C   0  0  2  0  0  3  0  0  0  0  0  0
  193.5780  176.4200  145.7880 S   0  0  0  0  0  0  0  0  0  0  0  0
  194.0430  177.2020  144.5890 O   0  0  0  0  0  0  0  0  0  0  0  0
  193.9620  177.1660  147.0340 O   0  0  0  0  0  0  0  0  0  0  0  0
  195.5520  172.3430  145.7450 C   0  0  0  0  0  0  0  0  0  0  0  0
  196.3520  173.4890  145.7530 C   0  0  0  0  0  3  0  0  0  0  0  0
  194.1960  172.4600  145.7450 N   0  0  0  0  0  0  0  0  0  0  0  0
  193.5870  173.6770  145.7550 C   0  0  0  0  0  3  0  0  0  0  0  0
  195.7460  174.7460  145.7650 C   0  0  0  0  0  3  0  0  0  0  0  0
  194.3530  174.8470  145.7700 C   0  0  0  0  0  0  0  0  0  0  0  0
  196.1520  171.0540  145.7430 N   0  0  0  0  0  1  0  0  0  0  0  0
  187.5750  175.8520  145.7720 C   0  0  0  0  0  2  0  0  0  0  0  0
  187.3430  178.2910  145.0420 C   0  0  0  0  0  2  0  0  0  0  0  0
  184.9080  178.6740  145.2640 C   0  0  0  0  0  2  0  0  0  0  0  0
  184.4600  178.5740  146.7130 C   0  0  0  0  0  2  0  0  0  0  0  0
  186.6290  177.6270  147.4650 C   0  0  0  0  0  2  0  0  0  0  0  0
  185.9700  177.6340  144.8930 C   0  0  2  0  0  3  0  0  0  0  0  0
  186.9260  177.2110  146.0120 C   0  0  2  0  0  0  0  0  0  0  0  0
  185.6640  178.7980  147.6050 C   0  0  0  0  0  2  0  0  0  0  0  0
  1  4  1  0  0  0  0
  2 29  1  0  0  0  0
  2  1  2  0  0  0  0
  3 19  1  0  0  0  0
  3  4  2  0  0  0  0
  5  6  2  0  0  0  0
  5  2  1  0  0  0  0
  6  3  1  0  0  0  0
  7 12  1  0  0  0  0
  8 10  1  0  0  0  0
  9 11  1  0  0  0  0
  9  7  2  0  0  0  0
 10  5  1  0  0  0  0
 11  8  2  0  0  0  0
 12 10  2  0  0  0  0
 14 13  2  0  0  0  0
 14  7  1  0  0  0  0
 15 14  1  0  0  0  0
 16 18  1  0  0  0  0
 17 16  1  0  0  0  0
 17 18  1  0  0  0  0
 18 15  1  1  0  0  0
 19 21  2  0  0  0  0
 20 19  2  0  0  0  0
 22 24  2  0  0  0  0
 22 23  1  0  0  0  0
 23 26  2  0  0  0  0
 24 25  1  0  0  0  0
 25 27  2  0  0  0  0
 26 27  1  0  0  0  0
 27 19  1  0  0  0  0
 28 22  1  0  0  0  0
 30 35  1  0  0  0  0
 31 32  1  0  0  0  0
 32 36  1  0  0  0  0
 33 36  1  0  0  0  0
 34 30  1  6  0  0  0
 34 31  1  0  0  0  0
 34 35  1  0  0  0  0
 35 29  1  6  0  0  0
 35 33  1  0  0  0  0
M  END
>  <MODEL>
9

>  <REMARK>
 VINA RESULT:      -7.3      1.916      3.163
  Name = 
  8 active torsions:
  status: ('A' for Active; 'I' for Inactive)
    1  A    between atoms: C_1  and  C_27
    2  A    between atoms: C_5  and  C_28
    3  A    between atoms: C_6  and  C_13
    4  A    between atoms: C_6  and  C_34
    5  A    between atoms: S_7  and  C_17
    6  A    between atoms: S_7  and  C_30
    7  A    between atoms: C_20  and  C_24
    8  A    between atoms: C_24  and  C_27
                            x       y       z     vdW  Elec       q    Type
                         _______ _______ _______ _____ _____    ______ ____

>  <TORSDO>
F 8

$$$$
