=
 OpenBabel11072408513D

 26 28  0  0  1  0  0  0  0  0999 V2000
  186.6240  177.0750  146.6220 C   0  0  0  0  0  0  0  0  0  0  0  0
  184.5710  177.8450  146.0930 C   0  0  0  0  0  3  0  0  0  0  0  0
  184.7610  178.2690  147.2980 N   0  0  0  0  0  0  0  0  0  0  0  0
  185.7290  177.0920  145.6440 C   0  0  0  0  0  0  0  0  0  0  0  0
  186.0690  177.8430  147.7800 C   0  0  2  0  0  3  0  0  0  0  0  0
  186.8940  179.0120  148.0410 N   0  0  0  0  0  1  0  0  0  0  0  0
  188.0790  175.3280  147.2660 O   0  0  0  0  0  0  0  0  0  0  0  0
  187.9330  176.3940  146.6110 C   0  0  0  0  0  0  0  0  0  0  0  0
  189.0290  176.9340  145.8610 N   0  0  0  0  0  2  0  0  0  0  0  0
  190.3610  176.3440  145.7920 C   0  0  1  0  0  0  0  0  0  0  0  0
  190.2700  175.0950  145.1660 O   0  0  0  0  0  1  0  0  0  0  0  0
  194.5170  176.3220  146.1830 N   0  0  0  0  0  1  0  0  0  0  0  0
  191.1890  177.2160  145.0340 O   0  0  0  0  0  0  0  0  0  0  0  0
  190.9000  176.1650  147.2250 C   0  0  0  0  0  2  0  0  0  0  0  0
  192.5050  176.7020  144.8550 C   0  0  2  0  0  3  0  0  0  0  0  0
  192.3870  176.4780  147.3380 C   0  0  0  0  0  2  0  0  0  0  0  0
  192.5590  175.8620  143.7400 O   0  0  0  0  0  1  0  0  0  0  0  0
  193.1030  176.0110  146.0860 C   0  0  2  0  0  3  0  0  0  0  0  0
  185.8920  176.4480  144.3710 N   0  0  0  0  0  2  0  0  0  0  0  0
  185.5970  178.1950  140.5160 C   0  0  0  0  0  3  0  0  0  0  0  0
  186.8410  176.9250  142.1620 C   0  0  0  0  0  0  0  0  0  0  0  0
  184.5340  178.3200  141.4130 C   0  0  0  0  0  3  0  0  0  0  0  0
  188.0240  176.2180  142.5240 N   0  0  0  0  0  1  0  0  0  0  0  0
  184.6240  177.7470  142.6850 C   0  0  0  0  0  3  0  0  0  0  0  0
  185.7760  177.0440  143.0710 C   0  0  0  0  0  0  0  0  0  0  0  0
  186.7480  177.4990  140.8900 C   0  0  0  0  0  3  0  0  0  0  0  0
  1  5  1  0  0  0  0
  2  3  2  0  0  0  0
  3  5  1  0  0  0  0
  4  2  1  0  0  0  0
  4  1  2  0  0  0  0
  5  6  1  6  0  0  0
  8  1  1  0  0  0  0
  8  7  2  0  0  0  0
  9  8  1  0  0  0  0
 10 11  1  6  0  0  0
 10  9  1  0  0  0  0
 10 14  1  0  0  0  0
 13 10  1  0  0  0  0
 14 16  1  0  0  0  0
 15 17  1  6  0  0  0
 15 13  1  0  0  0  0
 15 18  1  0  0  0  0
 18 12  1  1  0  0  0
 18 16  1  0  0  0  0
 19  4  1  0  0  0  0
 20 26  2  0  0  0  0
 20 22  1  0  0  0  0
 21 23  1  0  0  0  0
 21 25  2  0  0  0  0
 22 24  2  0  0  0  0
 24 25  1  0  0  0  0
 25 19  1  0  0  0  0
 26 21  1  0  0  0  0
M  END
>  <MODEL>
1

>  <REMARK>
 VINA RESULT:      -7.6      0.000      0.000
  Name = 
  4 active torsions:
  status: ('A' for Active; 'I' for Inactive)
    1  A    between atoms: C_2  and  N_24
    2  A    between atoms: C_4  and  C_5
    3  A    between atoms: N_15  and  C_17
    4  A    between atoms: N_15  and  C_23
                            x       y       z     vdW  Elec       q    Type
                         _______ _______ _______ _____ _____    ______ ____

>  <TORSDO>
F 4

$$$$
=
 OpenBabel11072408513D

 26 28  0  0  1  0  0  0  0  0999 V2000
  186.5240  177.2630  146.5170 C   0  0  0  0  0  0  0  0  0  0  0  0
  184.3600  177.8050  146.1820 C   0  0  0  0  0  3  0  0  0  0  0  0
  184.6260  178.2940  147.3480 N   0  0  0  0  0  0  0  0  0  0  0  0
  185.5380  177.1530  145.6370 C   0  0  0  0  0  0  0  0  0  0  0  0
  186.0130  178.0180  147.7030 C   0  0  2  0  0  3  0  0  0  0  0  0
  186.7360  179.2730  147.8420 N   0  0  0  0  0  1  0  0  0  0  0  0
  188.2000  175.6800  147.0380 O   0  0  0  0  0  0  0  0  0  0  0  0
  187.8880  176.7150  146.3900 C   0  0  0  0  0  0  0  0  0  0  0  0
  188.8510  177.3480  145.5370 N   0  0  0  0  0  2  0  0  0  0  0  0
  190.2240  176.8910  145.3490 C   0  0  1  0  0  0  0  0  0  0  0  0
  190.8950  176.9580  146.5760 O   0  0  0  0  0  1  0  0  0  0  0  0
  193.3930  175.1990  143.2240 N   0  0  0  0  0  1  0  0  0  0  0  0
  190.1800  175.5500  144.8830 O   0  0  0  0  0  0  0  0  0  0  0  0
  190.9190  177.8160  144.3300 C   0  0  0  0  0  2  0  0  0  0  0  0
  191.4780  174.9840  144.7210 C   0  0  2  0  0  3  0  0  0  0  0  0
  191.8410  177.0590  143.3810 C   0  0  0  0  0  2  0  0  0  0  0  0
  191.9300  174.4350  145.9230 O   0  0  0  0  0  1  0  0  0  0  0  0
  192.5270  175.9320  144.1290 C   0  0  2  0  0  3  0  0  0  0  0  0
  185.6380  176.4780  144.3740 N   0  0  0  0  0  2  0  0  0  0  0  0
  185.5090  178.1900  140.4940 C   0  0  0  0  0  3  0  0  0  0  0  0
  186.6310  176.8380  142.1620 C   0  0  0  0  0  0  0  0  0  0  0  0
  184.4590  178.4200  141.3850 C   0  0  0  0  0  3  0  0  0  0  0  0
  187.7460  176.0350  142.5390 N   0  0  0  0  0  1  0  0  0  0  0  0
  184.4940  177.8590  142.6650 C   0  0  0  0  0  3  0  0  0  0  0  0
  185.5780  177.0640  143.0660 C   0  0  0  0  0  0  0  0  0  0  0  0
  186.5930  177.4000  140.8830 C   0  0  0  0  0  3  0  0  0  0  0  0
  1  5  1  0  0  0  0
  2  3  2  0  0  0  0
  3  5  1  0  0  0  0
  4  2  1  0  0  0  0
  4  1  2  0  0  0  0
  5  6  1  6  0  0  0
  8  1  1  0  0  0  0
  8  7  2  0  0  0  0
  9  8  1  0  0  0  0
 10  9  1  0  0  0  0
 10 11  1  1  0  0  0
 13 10  1  0  0  0  0
 14 10  1  0  0  0  0
 15 13  1  0  0  0  0
 15 17  1  1  0  0  0
 16 18  1  0  0  0  0
 16 14  1  0  0  0  0
 18 12  1  6  0  0  0
 18 15  1  0  0  0  0
 19  4  1  0  0  0  0
 20 26  2  0  0  0  0
 20 22  1  0  0  0  0
 21 23  1  0  0  0  0
 21 25  2  0  0  0  0
 22 24  2  0  0  0  0
 24 25  1  0  0  0  0
 25 19  1  0  0  0  0
 26 21  1  0  0  0  0
M  END
>  <MODEL>
2

>  <REMARK>
 VINA RESULT:      -7.5      1.265      1.588
  Name = 
  4 active torsions:
  status: ('A' for Active; 'I' for Inactive)
    1  A    between atoms: C_2  and  N_24
    2  A    between atoms: C_4  and  C_5
    3  A    between atoms: N_15  and  C_17
    4  A    between atoms: N_15  and  C_23
                            x       y       z     vdW  Elec       q    Type
                         _______ _______ _______ _____ _____    ______ ____

>  <TORSDO>
F 4

$$$$
=
 OpenBabel11072408513D

 26 28  0  0  1  0  0  0  0  0999 V2000
  186.6680  177.1090  142.0420 C   0  0  0  0  0  0  0  0  0  0  0  0
  184.7000  178.2030  141.9000 C   0  0  0  0  0  3  0  0  0  0  0  0
  185.3030  178.5040  140.7980 N   0  0  0  0  0  0  0  0  0  0  0  0
  185.5370  177.3250  142.6990 C   0  0  0  0  0  0  0  0  0  0  0  0
  186.6090  177.8560  140.7470 C   0  0  2  0  0  3  0  0  0  0  0  0
  186.6420  176.9220  139.6330 N   0  0  0  0  0  1  0  0  0  0  0  0
  187.8390  175.0680  142.2600 O   0  0  0  0  0  0  0  0  0  0  0  0
  187.8170  176.3050  142.4990 C   0  0  0  0  0  0  0  0  0  0  0  0
  188.9020  176.9210  143.2070 N   0  0  0  0  0  2  0  0  0  0  0  0
  190.0760  176.2150  143.7070 C   0  0  1  0  0  0  0  0  0  0  0  0
  190.8100  175.7290  142.6180 O   0  0  0  0  0  1  0  0  0  0  0  0
  192.7700  174.9470  146.6330 N   0  0  0  0  0  1  0  0  0  0  0  0
  190.8570  177.1370  144.4550 O   0  0  0  0  0  0  0  0  0  0  0  0
  189.6100  175.0350  144.5820 C   0  0  0  0  0  2  0  0  0  0  0  0
  192.0650  176.5620  144.9430 C   0  0  2  0  0  3  0  0  0  0  0  0
  190.4880  174.8320  145.8120 C   0  0  0  0  0  2  0  0  0  0  0  0
  193.0770  176.6530  143.9860 O   0  0  0  0  0  1  0  0  0  0  0  0
  191.9340  175.1240  145.4600 C   0  0  2  0  0  3  0  0  0  0  0  0
  185.2260  176.7890  143.9940 N   0  0  0  0  0  2  0  0  0  0  0  0
  186.4130  178.3270  147.7660 C   0  0  0  0  0  3  0  0  0  0  0  0
  184.9160  178.3470  145.8610 C   0  0  0  0  0  0  0  0  0  0  0  0
  187.1390  177.2850  147.1860 C   0  0  0  0  0  3  0  0  0  0  0  0
  183.7810  178.9010  145.2020 N   0  0  0  0  0  1  0  0  0  0  0  0
  186.7540  176.7720  145.9440 C   0  0  0  0  0  3  0  0  0  0  0  0
  185.6410  177.2970  145.2700 C   0  0  0  0  0  0  0  0  0  0  0  0
  185.3030  178.8570  147.1040 C   0  0  0  0  0  3  0  0  0  0  0  0
  1  8  1  0  0  0  0
  1  4  2  0  0  0  0
  2  4  1  0  0  0  0
  3  2  2  0  0  0  0
  4 19  1  0  0  0  0
  5  6  1  6  0  0  0
  5  3  1  0  0  0  0
  5  1  1  0  0  0  0
  7  8  2  0  0  0  0
  8  9  1  0  0  0  0
  9 10  1  0  0  0  0
 10 11  1  6  0  0  0
 10 13  1  0  0  0  0
 10 14  1  0  0  0  0
 13 15  1  0  0  0  0
 14 16  1  0  0  0  0
 15 17  1  6  0  0  0
 15 18  1  0  0  0  0
 18 16  1  0  0  0  0
 18 12  1  1  0  0  0
 19 25  1  0  0  0  0
 21 26  1  0  0  0  0
 22 20  1  0  0  0  0
 23 21  1  0  0  0  0
 24 22  2  0  0  0  0
 25 21  2  0  0  0  0
 25 24  1  0  0  0  0
 26 20  2  0  0  0  0
M  END
>  <MODEL>
3

>  <REMARK>
 VINA RESULT:      -7.4      1.799      4.447
  Name = 
  4 active torsions:
  status: ('A' for Active; 'I' for Inactive)
    1  A    between atoms: C_2  and  N_24
    2  A    between atoms: C_4  and  C_5
    3  A    between atoms: N_15  and  C_17
    4  A    between atoms: N_15  and  C_23
                            x       y       z     vdW  Elec       q    Type
                         _______ _______ _______ _____ _____    ______ ____

>  <TORSDO>
F 4

$$$$
=
 OpenBabel11072408513D

 26 28  0  0  1  0  0  0  0  0999 V2000
  186.6370  177.0970  141.7540 C   0  0  0  0  0  0  0  0  0  0  0  0
  184.6160  178.0540  142.0540 C   0  0  0  0  0  3  0  0  0  0  0  0
  184.9860  178.4680  140.8870 N   0  0  0  0  0  0  0  0  0  0  0  0
  185.6360  177.1880  142.6190 C   0  0  0  0  0  0  0  0  0  0  0  0
  186.2960  177.9210  140.5520 C   0  0  2  0  0  3  0  0  0  0  0  0
  186.1780  177.0660  139.3810 N   0  0  0  0  0  1  0  0  0  0  0  0
  188.9750  176.9840  142.0780 O   0  0  0  0  0  0  0  0  0  0  0  0
  187.8960  176.3500  141.9330 C   0  0  0  0  0  0  0  0  0  0  0  0
  187.8970  174.9160  141.9470 N   0  0  0  0  0  2  0  0  0  0  0  0
  189.0860  174.0860  142.1090 C   0  0  1  0  0  0  0  0  0  0  0  0
  189.8870  174.2150  140.9690 O   0  0  0  0  0  1  0  0  0  0  0  0
  191.7210  171.6160  144.2010 N   0  0  0  0  0  1  0  0  0  0  0  0
  189.7860  174.5420  143.2580 O   0  0  0  0  0  0  0  0  0  0  0  0
  188.6460  172.6170  142.2670 C   0  0  0  0  0  2  0  0  0  0  0  0
  191.0020  173.8320  143.4750 C   0  0  2  0  0  3  0  0  0  0  0  0
  189.4830  171.8590  143.2920 C   0  0  0  0  0  2  0  0  0  0  0  0
  192.0450  174.4070  142.7470 O   0  0  0  0  0  1  0  0  0  0  0  0
  190.9240  172.3230  143.2150 C   0  0  2  0  0  3  0  0  0  0  0  0
  185.6020  176.5470  143.9030 N   0  0  0  0  0  2  0  0  0  0  0  0
  185.8580  178.3830  147.7200 C   0  0  0  0  0  3  0  0  0  0  0  0
  186.8430  177.0450  145.9570 C   0  0  0  0  0  0  0  0  0  0  0  0
  184.6900  178.5180  146.9660 C   0  0  0  0  0  3  0  0  0  0  0  0
  187.9510  176.2980  145.4610 N   0  0  0  0  0  1  0  0  0  0  0  0
  184.5980  177.9160  145.7080 C   0  0  0  0  0  3  0  0  0  0  0  0
  185.6720  177.1750  145.1920 C   0  0  0  0  0  0  0  0  0  0  0  0
  186.9320  177.6480  147.2150 C   0  0  0  0  0  3  0  0  0  0  0  0
  1  8  1  0  0  0  0
  1  4  2  0  0  0  0
  2  4  1  0  0  0  0
  3  2  2  0  0  0  0
  4 19  1  0  0  0  0
  5  6  1  6  0  0  0
  5  3  1  0  0  0  0
  5  1  1  0  0  0  0
  8  9  1  0  0  0  0
  8  7  2  0  0  0  0
  9 10  1  0  0  0  0
 10 11  1  6  0  0  0
 10 14  1  0  0  0  0
 10 13  1  0  0  0  0
 13 15  1  0  0  0  0
 14 16  1  0  0  0  0
 15 17  1  6  0  0  0
 18 16  1  0  0  0  0
 18 15  1  0  0  0  0
 18 12  1  1  0  0  0
 19 25  1  0  0  0  0
 21 26  2  0  0  0  0
 22 20  2  0  0  0  0
 23 21  1  0  0  0  0
 24 22  1  0  0  0  0
 25 24  2  0  0  0  0
 25 21  1  0  0  0  0
 26 20  1  0  0  0  0
M  END
>  <MODEL>
4

>  <REMARK>
 VINA RESULT:      -7.4      2.850      5.079
  Name = 
  4 active torsions:
  status: ('A' for Active; 'I' for Inactive)
    1  A    between atoms: C_2  and  N_24
    2  A    between atoms: C_4  and  C_5
    3  A    between atoms: N_15  and  C_17
    4  A    between atoms: N_15  and  C_23
                            x       y       z     vdW  Elec       q    Type
                         _______ _______ _______ _____ _____    ______ ____

>  <TORSDO>
F 4

$$$$
=
 OpenBabel11072408513D

 26 28  0  0  1  0  0  0  0  0999 V2000
  189.0530  174.5900  141.8120 C   0  0  0  0  0  0  0  0  0  0  0  0
  190.4860  172.8770  141.4900 C   0  0  0  0  0  3  0  0  0  0  0  0
  189.5260  172.6410  140.6580 N   0  0  0  0  0  0  0  0  0  0  0  0
  190.2130  174.0990  142.2270 C   0  0  0  0  0  0  0  0  0  0  0  0
  188.5100  173.6830  140.7540 C   0  0  2  0  0  3  0  0  0  0  0  0
  188.4250  174.3930  139.4870 N   0  0  0  0  0  1  0  0  0  0  0  0
  188.4460  176.8680  141.6510 O   0  0  0  0  0  0  0  0  0  0  0  0
  188.3750  175.8000  142.3150 C   0  0  0  0  0  0  0  0  0  0  0  0
  187.6370  175.7640  143.5440 N   0  0  0  0  0  2  0  0  0  0  0  0
  186.9390  176.9030  144.1300 C   0  0  1  0  0  0  0  0  0  0  0  0
  187.7630  178.0320  144.0420 O   0  0  0  0  0  1  0  0  0  0  0  0
  183.6640  178.8960  145.7810 N   0  0  0  0  0  1  0  0  0  0  0  0
  185.7410  177.1090  143.3950 O   0  0  0  0  0  0  0  0  0  0  0  0
  186.6430  176.5950  145.6110 C   0  0  0  0  0  2  0  0  0  0  0  0
  185.0080  178.2420  143.8500 C   0  0  2  0  0  3  0  0  0  0  0  0
  185.2750  177.1000  146.0540 C   0  0  0  0  0  2  0  0  0  0  0  0
  185.4600  179.4060  143.2260 O   0  0  0  0  0  1  0  0  0  0  0  0
  184.9740  178.4210  145.3730 C   0  0  2  0  0  3  0  0  0  0  0  0
  191.0320  174.6840  143.2510 N   0  0  0  0  0  2  0  0  0  0  0  0
  189.8870  175.7690  147.1900 C   0  0  0  0  0  3  0  0  0  0  0  0
  190.8560  176.3440  145.0460 C   0  0  0  0  0  0  0  0  0  0  0  0
  189.6670  174.4650  146.7420 C   0  0  0  0  0  3  0  0  0  0  0  0
  191.4610  177.3160  144.1970 N   0  0  0  0  0  1  0  0  0  0  0  0
  190.0410  174.1000  145.4460 C   0  0  0  0  0  3  0  0  0  0  0  0
  190.6390  175.0340  144.5860 C   0  0  0  0  0  0  0  0  0  0  0  0
  190.4810  176.7070  146.3430 C   0  0  0  0  0  3  0  0  0  0  0  0
  1  4  2  0  0  0  0
  1  8  1  0  0  0  0
  2  4  1  0  0  0  0
  3  5  1  0  0  0  0
  3  2  2  0  0  0  0
  4 19  1  0  0  0  0
  5  6  1  6  0  0  0
  5  1  1  0  0  0  0
  7  8  2  0  0  0  0
  8  9  1  0  0  0  0
  9 10  1  0  0  0  0
 10 11  1  6  0  0  0
 10 14  1  0  0  0  0
 13 15  1  0  0  0  0
 13 10  1  0  0  0  0
 14 16  1  0  0  0  0
 15 17  1  6  0  0  0
 15 18  1  0  0  0  0
 18 12  1  1  0  0  0
 18 16  1  0  0  0  0
 19 25  1  0  0  0  0
 21 26  1  0  0  0  0
 22 20  1  0  0  0  0
 23 21  1  0  0  0  0
 24 22  2  0  0  0  0
 25 21  2  0  0  0  0
 25 24  1  0  0  0  0
 26 20  2  0  0  0  0
M  END
>  <MODEL>
5

>  <REMARK>
 VINA RESULT:      -7.3      3.116      7.010
  Name = 
  4 active torsions:
  status: ('A' for Active; 'I' for Inactive)
    1  A    between atoms: C_2  and  N_24
    2  A    between atoms: C_4  and  C_5
    3  A    between atoms: N_15  and  C_17
    4  A    between atoms: N_15  and  C_23
                            x       y       z     vdW  Elec       q    Type
                         _______ _______ _______ _____ _____    ______ ____

>  <TORSDO>
F 4

$$$$
=
 OpenBabel11072408513D

 26 28  0  0  1  0  0  0  0  0999 V2000
  188.5830  176.2000  142.6920 C   0  0  0  0  0  0  0  0  0  0  0  0
  186.9160  177.0390  141.4260 C   0  0  0  0  0  3  0  0  0  0  0  0
  187.4180  176.0990  140.6950 N   0  0  0  0  0  0  0  0  0  0  0  0
  187.6300  177.1210  142.6870 C   0  0  0  0  0  0  0  0  0  0  0  0
  188.5230  175.4550  141.3960 C   0  0  2  0  0  3  0  0  0  0  0  0
  188.1930  174.0590  141.6400 N   0  0  0  0  0  1  0  0  0  0  0  0
  189.2450  175.2410  144.7480 O   0  0  0  0  0  0  0  0  0  0  0  0
  189.5700  175.9520  143.7600 C   0  0  0  0  0  0  0  0  0  0  0  0
  190.8880  176.5110  143.6790 N   0  0  0  0  0  2  0  0  0  0  0  0
  191.9310  176.3330  144.6830 C   0  0  1  0  0  0  0  0  0  0  0  0
  191.5030  176.9090  145.8860 O   0  0  0  0  0  1  0  0  0  0  0  0
  195.5220  174.8270  146.1870 N   0  0  0  0  0  1  0  0  0  0  0  0
  192.1450  174.9390  144.8530 O   0  0  0  0  0  0  0  0  0  0  0  0
  193.2120  177.0420  144.1990 C   0  0  0  0  0  2  0  0  0  0  0  0
  193.1090  174.6510  145.8600 C   0  0  2  0  0  3  0  0  0  0  0  0
  194.4780  176.2590  144.5280 C   0  0  0  0  0  2  0  0  0  0  0  0
  192.5070  174.5990  147.1190 O   0  0  0  0  0  1  0  0  0  0  0  0
  194.3240  175.5870  145.8780 C   0  0  2  0  0  3  0  0  0  0  0  0
  187.3820  178.0490  143.7550 N   0  0  0  0  0  2  0  0  0  0  0  0
  184.2900  177.9010  146.6570 C   0  0  0  0  0  3  0  0  0  0  0  0
  185.4260  179.0440  144.8470 C   0  0  0  0  0  0  0  0  0  0  0  0
  185.1960  176.8430  146.5590 C   0  0  0  0  0  3  0  0  0  0  0  0
  185.5270  180.1730  143.9850 N   0  0  0  0  0  1  0  0  0  0  0  0
  186.2170  176.8840  145.6050 C   0  0  0  0  0  3  0  0  0  0  0  0
  186.3420  177.9830  144.7410 C   0  0  0  0  0  0  0  0  0  0  0  0
  184.4060  178.9990  145.8020 C   0  0  0  0  0  3  0  0  0  0  0  0
  1  8  1  0  0  0  0
  2  4  1  0  0  0  0
  3  5  1  0  0  0  0
  3  2  2  0  0  0  0
  4  1  2  0  0  0  0
  4 19  1  0  0  0  0
  5  6  1  1  0  0  0
  5  1  1  0  0  0  0
  8  7  2  0  0  0  0
  9  8  1  0  0  0  0
  9 10  1  0  0  0  0
 10 13  1  0  0  0  0
 10 11  1  1  0  0  0
 13 15  1  0  0  0  0
 14 16  1  0  0  0  0
 14 10  1  0  0  0  0
 15 18  1  0  0  0  0
 15 17  1  1  0  0  0
 16 18  1  0  0  0  0
 18 12  1  6  0  0  0
 19 25  1  0  0  0  0
 21 26  1  0  0  0  0
 22 20  1  0  0  0  0
 23 21  1  0  0  0  0
 24 22  2  0  0  0  0
 25 21  2  0  0  0  0
 25 24  1  0  0  0  0
 26 20  2  0  0  0  0
M  END
>  <MODEL>
6

>  <REMARK>
 VINA RESULT:      -7.2      2.141      4.332
  Name = 
  4 active torsions:
  status: ('A' for Active; 'I' for Inactive)
    1  A    between atoms: C_2  and  N_24
    2  A    between atoms: C_4  and  C_5
    3  A    between atoms: N_15  and  C_17
    4  A    between atoms: N_15  and  C_23
                            x       y       z     vdW  Elec       q    Type
                         _______ _______ _______ _____ _____    ______ ____

>  <TORSDO>
F 4

$$$$
=
 OpenBabel11072408513D

 26 28  0  0  1  0  0  0  0  0999 V2000
  186.4350  177.6070  145.7650 C   0  0  0  0  0  0  0  0  0  0  0  0
  184.4470  178.6240  145.4420 C   0  0  0  0  0  3  0  0  0  0  0  0
  184.2920  177.9850  146.5550 N   0  0  0  0  0  0  0  0  0  0  0  0
  185.7870  178.4040  144.9260 C   0  0  0  0  0  0  0  0  0  0  0  0
  185.5170  177.2700  146.8970 C   0  0  2  0  0  3  0  0  0  0  0  0
  186.0520  177.7950  148.1430 N   0  0  0  0  0  1  0  0  0  0  0  0
  188.7390  177.6150  146.2910 O   0  0  0  0  0  0  0  0  0  0  0  0
  187.8110  177.0970  145.6140 C   0  0  0  0  0  0  0  0  0  0  0  0
  188.0940  176.0190  144.7120 N   0  0  0  0  0  2  0  0  0  0  0  0
  189.4170  175.4490  144.4850 C   0  0  1  0  0  0  0  0  0  0  0  0
  190.2820  176.4670  144.0660 O   0  0  0  0  0  1  0  0  0  0  0  0
  192.3140  172.4460  144.5930 N   0  0  0  0  0  1  0  0  0  0  0  0
  189.8700  174.8900  145.7100 O   0  0  0  0  0  0  0  0  0  0  0  0
  189.3120  174.3750  143.3840 C   0  0  0  0  0  2  0  0  0  0  0  0
  191.1860  174.3550  145.6140 C   0  0  2  0  0  3  0  0  0  0  0  0
  190.1880  173.1590  143.6630 C   0  0  0  0  0  2  0  0  0  0  0  0
  192.1410  175.3480  145.8420 O   0  0  0  0  0  1  0  0  0  0  0  0
  191.4850  173.6030  144.3110 C   0  0  2  0  0  3  0  0  0  0  0  0
  186.3330  178.9300  143.7070 N   0  0  0  0  0  2  0  0  0  0  0  0
  185.5710  177.6210  139.7430 C   0  0  0  0  0  3  0  0  0  0  0  0
  187.1220  178.0810  141.5470 C   0  0  0  0  0  0  0  0  0  0  0  0
  184.5080  178.0250  140.5530 C   0  0  0  0  0  3  0  0  0  0  0  0
  188.4610  178.1020  142.0350 N   0  0  0  0  0  1  0  0  0  0  0  0
  184.7510  178.4580  141.8600 C   0  0  0  0  0  3  0  0  0  0  0  0
  186.0580  178.4900  142.3690 C   0  0  0  0  0  0  0  0  0  0  0  0
  186.8760  177.6490  140.2400 C   0  0  0  0  0  3  0  0  0  0  0  0
  1  5  1  0  0  0  0
  2  3  2  0  0  0  0
  3  5  1  0  0  0  0
  4  2  1  0  0  0  0
  4  1  2  0  0  0  0
  5  6  1  1  0  0  0
  8  1  1  0  0  0  0
  8  7  2  0  0  0  0
  9  8  1  0  0  0  0
 10 11  1  6  0  0  0
 10  9  1  0  0  0  0
 10 13  1  0  0  0  0
 14 16  1  0  0  0  0
 14 10  1  0  0  0  0
 15 13  1  0  0  0  0
 15 17  1  6  0  0  0
 16 18  1  0  0  0  0
 18 12  1  1  0  0  0
 18 15  1  0  0  0  0
 19  4  1  0  0  0  0
 20 26  2  0  0  0  0
 20 22  1  0  0  0  0
 21 23  1  0  0  0  0
 21 25  2  0  0  0  0
 22 24  2  0  0  0  0
 24 25  1  0  0  0  0
 25 19  1  0  0  0  0
 26 21  1  0  0  0  0
M  END
>  <MODEL>
7

>  <REMARK>
 VINA RESULT:      -7.1      2.058      2.395
  Name = 
  4 active torsions:
  status: ('A' for Active; 'I' for Inactive)
    1  A    between atoms: C_2  and  N_24
    2  A    between atoms: C_4  and  C_5
    3  A    between atoms: N_15  and  C_17
    4  A    between atoms: N_15  and  C_23
                            x       y       z     vdW  Elec       q    Type
                         _______ _______ _______ _____ _____    ______ ____

>  <TORSDO>
F 4

$$$$
=
 OpenBabel11072408513D

 26 28  0  0  1  0  0  0  0  0999 V2000
  188.8590  175.9580  142.8350 C   0  0  0  0  0  0  0  0  0  0  0  0
  187.2160  177.2170  141.9380 C   0  0  0  0  0  3  0  0  0  0  0  0
  187.5040  176.3710  141.0050 N   0  0  0  0  0  0  0  0  0  0  0  0
  188.0530  176.9760  143.1010 C   0  0  0  0  0  0  0  0  0  0  0  0
  188.5670  175.4760  141.4490 C   0  0  2  0  0  3  0  0  0  0  0  0
  188.0640  174.1120  141.4930 N   0  0  0  0  0  1  0  0  0  0  0  0
  189.6830  174.3030  144.3080 O   0  0  0  0  0  0  0  0  0  0  0  0
  189.8970  175.3970  143.7210 C   0  0  0  0  0  0  0  0  0  0  0  0
  191.1410  176.0850  143.9120 N   0  0  0  0  0  2  0  0  0  0  0  0
  192.2260  175.6210  144.7690 C   0  0  1  0  0  0  0  0  0  0  0  0
  191.6870  175.1980  145.9900 O   0  0  0  0  0  1  0  0  0  0  0  0
  196.1640  174.5540  145.6490 N   0  0  0  0  0  1  0  0  0  0  0  0
  192.8720  174.5390  144.1140 O   0  0  0  0  0  0  0  0  0  0  0  0
  193.2000  176.7910  145.0130 C   0  0  0  0  0  2  0  0  0  0  0  0
  193.9160  173.9700  144.8970 C   0  0  2  0  0  3  0  0  0  0  0  0
  194.6590  176.3500  145.0150 C   0  0  0  0  0  2  0  0  0  0  0  0
  193.4110  172.9980  145.7630 O   0  0  0  0  0  1  0  0  0  0  0  0
  194.7770  174.9830  145.6600 C   0  0  2  0  0  3  0  0  0  0  0  0
  188.0450  177.7160  144.3310 N   0  0  0  0  0  2  0  0  0  0  0  0
  184.7920  178.2430  147.0050 C   0  0  0  0  0  3  0  0  0  0  0  0
  186.8390  177.1090  146.3770 C   0  0  0  0  0  0  0  0  0  0  0  0
  184.8830  179.0410  145.8620 C   0  0  0  0  0  3  0  0  0  0  0  0
  187.8260  176.1200  146.6570 N   0  0  0  0  0  1  0  0  0  0  0  0
  185.9510  178.8740  144.9770 C   0  0  0  0  0  3  0  0  0  0  0  0
  186.9390  177.9080  145.2250 C   0  0  0  0  0  0  0  0  0  0  0  0
  185.7700  177.2790  147.2610 C   0  0  0  0  0  3  0  0  0  0  0  0
  1  4  2  0  0  0  0
  1  8  1  0  0  0  0
  2  4  1  0  0  0  0
  3  5  1  0  0  0  0
  3  2  2  0  0  0  0
  4 19  1  0  0  0  0
  5  6  1  1  0  0  0
  5  1  1  0  0  0  0
  8  9  1  0  0  0  0
  8  7  2  0  0  0  0
  9 10  1  0  0  0  0
 10 14  1  0  0  0  0
 10 11  1  1  0  0  0
 13 10  1  0  0  0  0
 13 15  1  0  0  0  0
 14 16  1  0  0  0  0
 15 18  1  0  0  0  0
 15 17  1  1  0  0  0
 16 18  1  0  0  0  0
 18 12  1  6  0  0  0
 19 25  1  0  0  0  0
 20 26  1  0  0  0  0
 21 23  1  0  0  0  0
 21 26  2  0  0  0  0
 22 20  2  0  0  0  0
 24 25  2  0  0  0  0
 24 22  1  0  0  0  0
 25 21  1  0  0  0  0
M  END
>  <MODEL>
8

>  <REMARK>
 VINA RESULT:      -7.1      2.134      4.367
  Name = 
  4 active torsions:
  status: ('A' for Active; 'I' for Inactive)
    1  A    between atoms: C_2  and  N_24
    2  A    between atoms: C_4  and  C_5
    3  A    between atoms: N_15  and  C_17
    4  A    between atoms: N_15  and  C_23
                            x       y       z     vdW  Elec       q    Type
                         _______ _______ _______ _____ _____    ______ ____

>  <TORSDO>
F 4

$$$$
=
 OpenBabel11072408513D

 26 28  0  0  1  0  0  0  0  0999 V2000
  191.1780  176.0000  145.2910 C   0  0  0  0  0  0  0  0  0  0  0  0
  193.1700  176.0750  144.2360 C   0  0  0  0  0  3  0  0  0  0  0  0
  193.4630  176.3130  145.4710 N   0  0  0  0  0  0  0  0  0  0  0  0
  191.7390  175.8720  144.0960 C   0  0  0  0  0  0  0  0  0  0  0  0
  192.2540  176.2950  146.2870 C   0  0  2  0  0  3  0  0  0  0  0  0
  192.3410  175.2150  147.2580 N   0  0  0  0  0  1  0  0  0  0  0  0
  189.1840  174.7770  145.6320 O   0  0  0  0  0  0  0  0  0  0  0  0
  189.7390  175.9080  145.6060 C   0  0  0  0  0  0  0  0  0  0  0  0
  188.9770  177.0900  145.8850 N   0  0  0  0  0  2  0  0  0  0  0  0
  187.5530  177.1070  146.1990 C   0  0  1  0  0  0  0  0  0  0  0  0
  187.2780  176.0780  147.1080 O   0  0  0  0  0  1  0  0  0  0  0  0
  183.6810  178.6660  146.1370 N   0  0  0  0  0  1  0  0  0  0  0  0
  187.2450  178.3690  146.7750 O   0  0  0  0  0  0  0  0  0  0  0  0
  186.7560  176.8740  144.9000 C   0  0  0  0  0  2  0  0  0  0  0  0
  185.8820  178.4700  147.1750 C   0  0  2  0  0  3  0  0  0  0  0  0
  185.4930  177.7250  144.8240 C   0  0  0  0  0  2  0  0  0  0  0  0
  185.7070  177.9640  148.4640 O   0  0  0  0  0  1  0  0  0  0  0  0
  184.8750  177.8430  146.2030 C   0  0  2  0  0  3  0  0  0  0  0  0
  191.0260  175.6020  142.8800 N   0  0  0  0  0  2  0  0  0  0  0  0
  187.5300  177.5200  141.4300 C   0  0  0  0  0  3  0  0  0  0  0  0
  188.7790  175.4990  141.9060 C   0  0  0  0  0  0  0  0  0  0  0  0
  188.5900  178.2910  141.9120 C   0  0  0  0  0  3  0  0  0  0  0  0
  188.8550  174.0770  141.8950 N   0  0  0  0  0  1  0  0  0  0  0  0
  189.7450  177.6660  142.3920 C   0  0  0  0  0  3  0  0  0  0  0  0
  189.8510  176.2660  142.3930 C   0  0  0  0  0  0  0  0  0  0  0  0
  187.6250  176.1270  141.4280 C   0  0  0  0  0  3  0  0  0  0  0  0
  1  8  1  0  0  0  0
  1  5  1  0  0  0  0
  2  3  2  0  0  0  0
  3  5  1  0  0  0  0
  4  2  1  0  0  0  0
  4  1  2  0  0  0  0
  5  6  1  1  0  0  0
  8  7  2  0  0  0  0
  8  9  1  0  0  0  0
  9 10  1  0  0  0  0
 10 13  1  0  0  0  0
 10 11  1  1  0  0  0
 13 15  1  0  0  0  0
 14 10  1  0  0  0  0
 15 17  1  1  0  0  0
 16 14  1  0  0  0  0
 16 18  1  0  0  0  0
 18 12  1  6  0  0  0
 18 15  1  0  0  0  0
 19  4  1  0  0  0  0
 20 22  1  0  0  0  0
 21 25  2  0  0  0  0
 22 24  2  0  0  0  0
 23 21  1  0  0  0  0
 24 25  1  0  0  0  0
 25 19  1  0  0  0  0
 26 20  2  0  0  0  0
 26 21  1  0  0  0  0
M  END
>  <MODEL>
9

>  <REMARK>
 VINA RESULT:      -7.0      1.965      5.797
  Name = 
  4 active torsions:
  status: ('A' for Active; 'I' for Inactive)
    1  A    between atoms: C_2  and  N_24
    2  A    between atoms: C_4  and  C_5
    3  A    between atoms: N_15  and  C_17
    4  A    between atoms: N_15  and  C_23
                            x       y       z     vdW  Elec       q    Type
                         _______ _______ _______ _____ _____    ______ ____

>  <TORSDO>
F 4

$$$$
