=
 OpenBabel11062421513D

 37 41  0  0  1  0  0  0  0  0999 V2000
  188.5880  172.5930  141.5350 C   0  0  0  0  0  2  0  0  0  0  0  0
  189.8810  171.9140  141.4660 N   0  0  0  0  0  2  0  0  0  0  0  0
  191.1250  173.9360  141.7260 C   0  0  0  0  0  0  0  0  0  0  0  0
  189.8930  174.6050  142.0260 N   0  0  0  0  0  0  0  0  0  0  0  0
  187.5400  174.7760  142.2390 N   0  0  0  0  0  2  0  0  0  0  0  0
  191.1220  172.6240  141.4610 C   0  0  0  0  0  0  0  0  0  0  0  0
  188.7280  174.0260  141.9720 C   0  0  0  0  0  0  0  0  0  0  0  0
  186.2070  178.1780  143.1870 C   0  0  0  0  0  2  0  0  0  0  0  0
  188.3600  177.5470  144.4370 C   0  0  0  0  0  0  0  0  0  0  0  0
  187.1350  178.4320  144.3970 C   0  0  2  0  0  3  0  0  0  0  0  0
  187.5520  176.2110  142.4950 C   0  0  2  0  0  3  0  0  0  0  0  0
  188.5200  176.5150  143.6010 C   0  0  0  0  0  3  0  0  0  0  0  0
  189.3340  177.7900  145.3970 O   0  0  0  0  0  1  0  0  0  0  0  0
  186.1470  176.6960  142.8400 C   0  0  0  0  0  2  0  0  0  0  0  0
  186.4430  178.4380  145.6970 N   0  0  0  0  0  0  0  0  0  0  0  0
  184.1710  178.2910  146.4220 C   0  0  0  0  0  2  0  0  0  0  0  0
  184.7520  176.9050  146.4890 C   0  0  0  0  0  2  0  0  0  0  0  0
  186.2280  177.0810  146.2050 C   0  0  0  0  0  2  0  0  0  0  0  0
  185.1300  179.0520  145.5420 C   0  0  0  0  0  2  0  0  0  0  0  0
  192.4660  171.6590  139.7750 O   0  0  0  0  0  1  0  0  0  0  0  0
  192.3770  171.8760  141.1500 C   0  0  0  0  0  2  0  0  0  0  0  0
  192.6370  174.9020  141.7180 S   0  0  0  0  0  0  0  0  0  0  0  0
  192.8990  174.6000  143.4870 C   0  0  0  0  0  2  0  0  0  0  0  0
  193.2690  176.0920  146.5680 N   0  0  0  0  0  0  0  0  0  0  0  0
  192.0400  175.7130  146.5220 C   0  0  0  0  0  0  0  0  0  0  0  0
  191.5090  175.5710  145.2180 N   0  0  0  0  0  2  0  0  0  0  0  0
  191.2540  175.4150  147.7470 C   0  0  0  0  0  1  0  0  0  0  0  0
  193.7470  176.3160  145.2110 C   0  0  2  0  0  3  0  0  0  0  0  0
  192.5910  175.8560  144.2910 C   0  0  1  0  0  3  0  0  0  0  0  0
  197.1080  175.5230  143.6600 C   0  0  0  0  0  0  0  0  0  0  0  0
  195.8740  176.1290  143.9080 C   0  0  0  0  0  3  0  0  0  0  0  0
  196.7880  174.0410  145.4870 C   0  0  0  0  0  0  0  0  0  0  0  0
  197.5350  174.5000  144.4480 N   0  0  0  0  0  0  0  0  0  0  0  0
  195.5500  174.6220  145.7700 C   0  0  0  0  0  3  0  0  0  0  0  0
  195.0920  175.6820  144.9750 C   0  0  0  0  0  0  0  0  0  0  0  0
  197.8780  175.9540  142.6330 F   0  0  0  0  0  0  0  0  0  0  0  0
  197.2420  173.0150  146.2460 F   0  0  0  0  0  0  0  0  0  0  0  0
  1  7  1  0  0  0  0
  2  1  1  0  0  0  0
  3  4  1  0  0  0  0
  6  2  1  0  0  0  0
  6  3  2  0  0  0  0
  7  4  2  0  0  0  0
  7  5  1  0  0  0  0
  9 13  1  0  0  0  0
 10  8  1  6  0  0  0
 10  9  1  0  0  0  0
 10 15  1  0  0  0  0
 11  5  1  1  0  0  0
 11 14  1  0  0  0  0
 11 12  1  0  0  0  0
 12  9  2  0  0  0  0
 14  8  1  0  0  0  0
 15 18  1  0  0  0  0
 16 17  1  0  0  0  0
 18 17  1  0  0  0  0
 19 15  1  0  0  0  0
 19 16  1  0  0  0  0
 20 21  1  0  0  0  0
 21  6  1  0  0  0  0
 22  3  1  0  0  0  0
 22 23  1  0  0  0  0
 25 24  2  0  0  0  0
 25 27  1  0  0  0  0
 26 25  1  0  0  0  0
 28 35  1  6  0  0  0
 28 24  1  0  0  0  0
 29 23  1  1  0  0  0
 29 28  1  0  0  0  0
 29 26  1  0  0  0  0
 30 31  2  0  0  0  0
 30 33  1  0  0  0  0
 31 35  1  0  0  0  0
 32 34  1  0  0  0  0
 32 37  1  0  0  0  0
 33 32  2  0  0  0  0
 35 34  2  0  0  0  0
 36 30  1  0  0  0  0
M  END
>  <MODEL>
1

>  <REMARK>
 VINA RESULT:      -8.2      0.000      0.000
  Name = 
  7 active torsions:
  status: ('A' for Active; 'I' for Inactive)
    1  A    between atoms: C_8  and  S_16
    2  A    between atoms: N_9  and  C_14
    3  A    between atoms: S_16  and  C_20
    4  A    between atoms: C_18  and  N_26
    5  A    between atoms: C_20  and  C_33
    6  A    between atoms: C_24  and  C_29
    7  A    between atoms: C_28  and  CA_31
                            x       y       z     vdW  Elec       q    Type
                         _______ _______ _______ _____ _____    ______ ____

>  <TORSDO>
F 7

$$$$
=
 OpenBabel11062421513D

 37 41  0  0  1  0  0  0  0  0999 V2000
  192.1630  173.0250  139.2450 C   0  0  0  0  0  2  0  0  0  0  0  0
  190.7760  172.8270  138.8260 N   0  0  0  0  0  2  0  0  0  0  0  0
  189.8800  173.8210  140.8040 C   0  0  0  0  0  0  0  0  0  0  0  0
  191.2090  174.2380  141.1440 N   0  0  0  0  0  0  0  0  0  0  0  0
  193.5610  174.3330  140.8870 N   0  0  0  0  0  2  0  0  0  0  0  0
  189.6660  173.1400  139.6710 C   0  0  0  0  0  0  0  0  0  0  0  0
  192.2640  173.9170  140.4520 C   0  0  0  0  0  0  0  0  0  0  0  0
  194.1780  174.8260  144.5770 C   0  0  0  0  0  2  0  0  0  0  0  0
  195.8160  176.1310  143.0910 C   0  0  0  0  0  0  0  0  0  0  0  0
  195.5330  175.5610  144.4630 C   0  0  2  0  0  3  0  0  0  0  0  0
  193.7860  175.0460  142.1370 C   0  0  2  0  0  3  0  0  0  0  0  0
  195.0450  175.8560  142.0330 C   0  0  0  0  0  3  0  0  0  0  0  0
  196.9340  176.9360  142.9150 O   0  0  0  0  0  1  0  0  0  0  0  0
  193.8560  174.0610  143.3000 C   0  0  0  0  0  2  0  0  0  0  0  0
  196.6830  174.7890  144.9630 N   0  0  0  0  0  0  0  0  0  0  0  0
  196.9780  172.6890  146.0630 C   0  0  0  0  0  2  0  0  0  0  0  0
  197.1810  172.4540  144.5920 C   0  0  0  0  0  2  0  0  0  0  0  0
  197.1710  173.8330  143.9660 C   0  0  0  0  0  2  0  0  0  0  0  0
  196.2740  174.0200  146.1330 C   0  0  0  0  0  2  0  0  0  0  0  0
  187.8720  173.4310  138.1640 O   0  0  0  0  0  1  0  0  0  0  0  0
  188.3020  172.6890  139.2640 C   0  0  0  0  0  2  0  0  0  0  0  0
  188.5440  174.2350  141.9280 S   0  0  0  0  0  0  0  0  0  0  0  0
  189.6280  175.3180  142.8980 C   0  0  0  0  0  2  0  0  0  0  0  0
  187.4810  177.5800  144.3580 N   0  0  0  0  0  0  0  0  0  0  0  0
  186.9180  177.2480  143.2500 C   0  0  0  0  0  0  0  0  0  0  0  0
  187.8020  176.7740  142.2510 N   0  0  0  0  0  2  0  0  0  0  0  0
  185.4470  177.3240  143.0510 C   0  0  0  0  0  1  0  0  0  0  0  0
  188.9210  177.4080  144.2290 C   0  0  2  0  0  3  0  0  0  0  0  0
  189.1290  176.7570  142.8410 C   0  0  1  0  0  3  0  0  0  0  0  0
  191.4170  176.2110  146.8110 C   0  0  0  0  0  0  0  0  0  0  0  0
  190.8510  176.9030  145.7390 C   0  0  0  0  0  3  0  0  0  0  0  0
  189.3640  175.0890  147.2160 C   0  0  0  0  0  0  0  0  0  0  0  0
  190.6670  175.3250  147.5220 N   0  0  0  0  0  0  0  0  0  0  0  0
  188.7600  175.7630  146.1530 C   0  0  0  0  0  3  0  0  0  0  0  0
  189.5110  176.6850  145.4110 C   0  0  0  0  0  0  0  0  0  0  0  0
  192.7120  176.4210  147.1440 F   0  0  0  0  0  0  0  0  0  0  0  0
  188.6500  174.1940  147.9410 F   0  0  0  0  0  0  0  0  0  0  0  0
  1  7  1  0  0  0  0
  2  1  1  0  0  0  0
  2  6  1  0  0  0  0
  3  4  1  0  0  0  0
  3 22  1  0  0  0  0
  6  3  2  0  0  0  0
  7  5  1  0  0  0  0
  7  4  2  0  0  0  0
  9 10  1  0  0  0  0
 10  8  1  6  0  0  0
 10 15  1  0  0  0  0
 11  5  1  6  0  0  0
 11 14  1  0  0  0  0
 12 11  1  0  0  0  0
 12  9  2  0  0  0  0
 13  9  1  0  0  0  0
 14  8  1  0  0  0  0
 15 19  1  0  0  0  0
 16 19  1  0  0  0  0
 17 16  1  0  0  0  0
 18 17  1  0  0  0  0
 18 15  1  0  0  0  0
 20 21  1  0  0  0  0
 21  6  1  0  0  0  0
 22 23  1  0  0  0  0
 25 24  2  0  0  0  0
 26 29  1  0  0  0  0
 26 25  1  0  0  0  0
 27 25  1  0  0  0  0
 28 24  1  0  0  0  0
 28 35  1  1  0  0  0
 29 23  1  1  0  0  0
 29 28  1  0  0  0  0
 30 36  1  0  0  0  0
 30 33  1  0  0  0  0
 31 30  2  0  0  0  0
 32 33  2  0  0  0  0
 32 37  1  0  0  0  0
 34 32  1  0  0  0  0
 35 31  1  0  0  0  0
 35 34  2  0  0  0  0
M  END
>  <MODEL>
2

>  <REMARK>
 VINA RESULT:      -8.2      2.932      7.303
  Name = 
  7 active torsions:
  status: ('A' for Active; 'I' for Inactive)
    1  A    between atoms: C_8  and  S_16
    2  A    between atoms: N_9  and  C_14
    3  A    between atoms: S_16  and  C_20
    4  A    between atoms: C_18  and  N_26
    5  A    between atoms: C_20  and  C_33
    6  A    between atoms: C_24  and  C_29
    7  A    between atoms: C_28  and  CA_31
                            x       y       z     vdW  Elec       q    Type
                         _______ _______ _______ _____ _____    ______ ____

>  <TORSDO>
F 7

$$$$
=
 OpenBabel11062421513D

 37 41  0  0  1  0  0  0  0  0999 V2000
  193.9040  176.1950  146.4900 C   0  0  0  0  0  2  0  0  0  0  0  0
  194.9920  175.2830  146.1390 N   0  0  0  0  0  2  0  0  0  0  0  0
  193.5140  173.6030  145.3050 C   0  0  0  0  0  0  0  0  0  0  0  0
  192.4430  174.5490  145.4190 N   0  0  0  0  0  0  0  0  0  0  0  0
  191.4540  176.6060  146.0530 N   0  0  0  0  0  2  0  0  0  0  0  0
  194.7580  173.9610  145.6480 C   0  0  0  0  0  0  0  0  0  0  0  0
  192.5850  175.7390  145.9290 C   0  0  0  0  0  0  0  0  0  0  0  0
  187.7370  176.0940  146.4550 C   0  0  0  0  0  2  0  0  0  0  0  0
  188.3710  177.2300  144.2410 C   0  0  0  0  0  0  0  0  0  0  0  0
  187.2800  176.9460  145.2480 C   0  0  2  0  0  3  0  0  0  0  0  0
  190.1000  176.1950  145.7060 C   0  0  2  0  0  3  0  0  0  0  0  0
  189.6530  176.9270  144.4750 C   0  0  0  0  0  3  0  0  0  0  0  0
  188.0380  177.8600  143.0480 O   0  0  0  0  0  1  0  0  0  0  0  0
  189.1560  176.4510  146.8770 C   0  0  0  0  0  2  0  0  0  0  0  0
  186.5650  178.1790  145.6170 N   0  0  0  0  0  0  0  0  0  0  0  0
  184.2780  178.7980  145.9230 C   0  0  0  0  0  2  0  0  0  0  0  0
  184.8320  178.4530  147.2780 C   0  0  0  0  0  2  0  0  0  0  0  0
  186.3160  178.2530  147.0590 C   0  0  0  0  0  2  0  0  0  0  0  0
  185.2660  178.1990  144.9550 C   0  0  0  0  0  2  0  0  0  0  0  0
  196.9760  173.4920  146.3080 O   0  0  0  0  0  1  0  0  0  0  0  0
  195.9110  173.0180  145.5410 C   0  0  0  0  0  2  0  0  0  0  0  0
  193.1340  171.9570  144.7000 S   0  0  0  0  0  0  0  0  0  0  0  0
  191.6770  172.5650  143.8080 C   0  0  0  0  0  2  0  0  0  0  0  0
  190.9310  173.1650  140.5010 N   0  0  0  0  0  0  0  0  0  0  0  0
  189.9200  172.5160  140.9620 C   0  0  0  0  0  0  0  0  0  0  0  0
  190.1950  171.7100  142.0930 N   0  0  0  0  0  2  0  0  0  0  0  0
  188.5620  172.6350  140.3710 C   0  0  0  0  0  1  0  0  0  0  0  0
  192.1110  172.8220  141.2820 C   0  0  2  0  0  3  0  0  0  0  0  0
  191.5920  171.9240  142.4290 C   0  0  1  0  0  3  0  0  0  0  0  0
  195.0230  175.0730  142.1690 C   0  0  0  0  0  0  0  0  0  0  0  0
  194.2880  173.9560  141.7650 C   0  0  0  0  0  3  0  0  0  0  0  0
  193.0290  176.3380  142.4220 C   0  0  0  0  0  0  0  0  0  0  0  0
  194.3830  176.2310  142.4860 N   0  0  0  0  0  0  0  0  0  0  0  0
  192.2590  175.2450  142.0190 C   0  0  0  0  0  3  0  0  0  0  0  0
  192.8960  174.0430  141.6810 C   0  0  0  0  0  0  0  0  0  0  0  0
  196.3730  175.0030  142.2460 F   0  0  0  0  0  0  0  0  0  0  0  0
  192.4260  177.5050  142.7520 F   0  0  0  0  0  0  0  0  0  0  0  0
  2  1  1  0  0  0  0
  3  4  1  0  0  0  0
  3  6  2  0  0  0  0
  4  7  2  0  0  0  0
  6  2  1  0  0  0  0
  7  5  1  0  0  0  0
  7  1  1  0  0  0  0
  8 14  1  0  0  0  0
  9 12  2  0  0  0  0
  9 10  1  0  0  0  0
 10 15  1  1  0  0  0
 10  8  1  0  0  0  0
 11  5  1  1  0  0  0
 11 14  1  0  0  0  0
 12 11  1  0  0  0  0
 13  9  1  0  0  0  0
 15 18  1  0  0  0  0
 16 17  1  0  0  0  0
 18 17  1  0  0  0  0
 19 15  1  0  0  0  0
 19 16  1  0  0  0  0
 21  6  1  0  0  0  0
 21 20  1  0  0  0  0
 22  3  1  0  0  0  0
 23 22  1  0  0  0  0
 24 25  2  0  0  0  0
 24 28  1  0  0  0  0
 25 26  1  0  0  0  0
 26 29  1  0  0  0  0
 27 25  1  0  0  0  0
 28 35  1  1  0  0  0
 28 29  1  0  0  0  0
 29 23  1  1  0  0  0
 30 36  1  0  0  0  0
 30 33  1  0  0  0  0
 31 30  2  0  0  0  0
 32 33  2  0  0  0  0
 32 37  1  0  0  0  0
 34 32  1  0  0  0  0
 35 31  1  0  0  0  0
 35 34  2  0  0  0  0
M  END
>  <MODEL>
3

>  <REMARK>
 VINA RESULT:      -8.0      2.447      4.855
  Name = 
  7 active torsions:
  status: ('A' for Active; 'I' for Inactive)
    1  A    between atoms: C_8  and  S_16
    2  A    between atoms: N_9  and  C_14
    3  A    between atoms: S_16  and  C_20
    4  A    between atoms: C_18  and  N_26
    5  A    between atoms: C_20  and  C_33
    6  A    between atoms: C_24  and  C_29
    7  A    between atoms: C_28  and  CA_31
                            x       y       z     vdW  Elec       q    Type
                         _______ _______ _______ _____ _____    ______ ____

>  <TORSDO>
F 7

$$$$
=
 OpenBabel11062421513D

 37 41  0  0  1  0  0  0  0  0999 V2000
  190.0880  171.5710  142.0820 C   0  0  0  0  0  2  0  0  0  0  0  0
  191.0190  170.4640  142.2960 N   0  0  0  0  0  2  0  0  0  0  0  0
  192.3030  171.6600  143.9150 C   0  0  0  0  0  0  0  0  0  0  0  0
  191.2900  172.6740  143.9060 N   0  0  0  0  0  0  0  0  0  0  0  0
  189.3210  173.7350  143.1280 N   0  0  0  0  0  2  0  0  0  0  0  0
  192.1690  170.5790  143.1360 C   0  0  0  0  0  0  0  0  0  0  0  0
  190.2620  172.6580  143.1080 C   0  0  0  0  0  0  0  0  0  0  0  0
  188.6860  177.2180  144.4340 C   0  0  0  0  0  2  0  0  0  0  0  0
  188.7830  175.4420  146.2860 C   0  0  0  0  0  0  0  0  0  0  0  0
  188.3380  176.8310  145.8900 C   0  0  2  0  0  3  0  0  0  0  0  0
  189.4930  174.9210  143.9550 C   0  0  2  0  0  3  0  0  0  0  0  0
  189.2630  174.5670  145.3960 C   0  0  0  0  0  3  0  0  0  0  0  0
  188.6540  175.0460  147.6120 O   0  0  0  0  0  1  0  0  0  0  0  0
  188.5450  176.0250  143.4980 C   0  0  0  0  0  2  0  0  0  0  0  0
  186.9310  177.0620  146.2560 N   0  0  0  0  0  0  0  0  0  0  0  0
  185.6990  178.8510  147.2520 C   0  0  0  0  0  2  0  0  0  0  0  0
  185.5630  178.9910  145.7600 C   0  0  0  0  0  2  0  0  0  0  0  0
  186.1960  177.7410  145.1860 C   0  0  0  0  0  2  0  0  0  0  0  0
  186.8740  177.9240  147.4310 C   0  0  0  0  0  2  0  0  0  0  0  0
  192.8270  168.4880  144.0140 O   0  0  0  0  0  1  0  0  0  0  0  0
  193.1890  169.4880  143.1130 C   0  0  0  0  0  2  0  0  0  0  0  0
  193.7280  171.8890  144.9820 S   0  0  0  0  0  0  0  0  0  0  0  0
  194.4160  173.1520  143.8780 C   0  0  0  0  0  2  0  0  0  0  0  0
  196.5060  175.8810  144.0820 N   0  0  0  0  0  0  0  0  0  0  0  0
  197.0240  175.1260  143.1780 C   0  0  0  0  0  0  0  0  0  0  0  0
  196.6850  173.7550  143.2800 N   0  0  0  0  0  2  0  0  0  0  0  0
  197.8840  175.6620  142.0920 C   0  0  0  0  0  1  0  0  0  0  0  0
  195.7350  175.0570  145.0030 C   0  0  2  0  0  3  0  0  0  0  0  0
  195.7640  173.6340  144.3970 C   0  0  1  0  0  3  0  0  0  0  0  0
  192.5350  177.0360  144.5840 C   0  0  0  0  0  0  0  0  0  0  0  0
  193.7780  176.4570  144.3180 C   0  0  0  0  0  3  0  0  0  0  0  0
  192.4900  176.0390  146.7380 C   0  0  0  0  0  0  0  0  0  0  0  0
  191.9220  176.8170  145.7780 N   0  0  0  0  0  0  0  0  0  0  0  0
  193.7310  175.4390  146.5100 C   0  0  0  0  0  3  0  0  0  0  0  0
  194.3780  175.6450  145.2840 C   0  0  0  0  0  0  0  0  0  0  0  0
  191.9410  177.8170  143.6510 F   0  0  0  0  0  0  0  0  0  0  0  0
  191.8540  175.8490  147.9190 F   0  0  0  0  0  0  0  0  0  0  0  0
  1  2  1  0  0  0  0
  1  7  1  0  0  0  0
  2  6  1  0  0  0  0
  3 22  1  0  0  0  0
  4  3  1  0  0  0  0
  6  3  2  0  0  0  0
  7  5  1  0  0  0  0
  7  4  2  0  0  0  0
  9 13  1  0  0  0  0
 10  8  1  6  0  0  0
 10 15  1  0  0  0  0
 10  9  1  0  0  0  0
 11  5  1  6  0  0  0
 11 12  1  0  0  0  0
 12  9  2  0  0  0  0
 14 11  1  0  0  0  0
 14  8  1  0  0  0  0
 15 19  1  0  0  0  0
 16 19  1  0  0  0  0
 17 16  1  0  0  0  0
 18 17  1  0  0  0  0
 18 15  1  0  0  0  0
 21  6  1  0  0  0  0
 21 20  1  0  0  0  0
 23 22  1  0  0  0  0
 24 28  1  0  0  0  0
 25 26  1  0  0  0  0
 25 24  2  0  0  0  0
 26 29  1  0  0  0  0
 27 25  1  0  0  0  0
 28 35  1  6  0  0  0
 29 23  1  6  0  0  0
 29 28  1  0  0  0  0
 30 33  1  0  0  0  0
 31 30  2  0  0  0  0
 31 35  1  0  0  0  0
 32 37  1  0  0  0  0
 33 32  2  0  0  0  0
 34 32  1  0  0  0  0
 35 34  2  0  0  0  0
 36 30  1  0  0  0  0
M  END
>  <MODEL>
4

>  <REMARK>
 VINA RESULT:      -8.0      2.564      3.851
  Name = 
  7 active torsions:
  status: ('A' for Active; 'I' for Inactive)
    1  A    between atoms: C_8  and  S_16
    2  A    between atoms: N_9  and  C_14
    3  A    between atoms: S_16  and  C_20
    4  A    between atoms: C_18  and  N_26
    5  A    between atoms: C_20  and  C_33
    6  A    between atoms: C_24  and  C_29
    7  A    between atoms: C_28  and  CA_31
                            x       y       z     vdW  Elec       q    Type
                         _______ _______ _______ _____ _____    ______ ____

>  <TORSDO>
F 7

$$$$
=
 OpenBabel11062421513D

 37 41  0  0  1  0  0  0  0  0999 V2000
  188.7340  173.1120  140.5750 C   0  0  0  0  0  2  0  0  0  0  0  0
  189.8220  172.4560  139.8520 N   0  0  0  0  0  2  0  0  0  0  0  0
  191.5120  173.7890  140.8870 C   0  0  0  0  0  0  0  0  0  0  0  0
  190.5080  174.2940  141.7760 N   0  0  0  0  0  0  0  0  0  0  0  0
  188.2970  174.5800  142.5790 N   0  0  0  0  0  2  0  0  0  0  0  0
  191.1810  172.8880  139.9540 C   0  0  0  0  0  0  0  0  0  0  0  0
  189.2440  173.9940  141.6810 C   0  0  0  0  0  0  0  0  0  0  0  0
  187.9630  177.6590  144.7360 C   0  0  0  0  0  2  0  0  0  0  0  0
  188.6140  175.5570  146.0610 C   0  0  0  0  0  0  0  0  0  0  0  0
  188.0420  176.9560  146.1110 C   0  0  2  0  0  3  0  0  0  0  0  0
  188.6630  175.5840  143.5690 C   0  0  2  0  0  3  0  0  0  0  0  0
  188.8500  174.9250  144.9050 C   0  0  0  0  0  3  0  0  0  0  0  0
  188.8680  174.8910  147.2530 O   0  0  0  0  0  1  0  0  0  0  0  0
  187.5970  176.6730  143.6340 C   0  0  0  0  0  2  0  0  0  0  0  0
  186.7860  176.9870  146.8790 N   0  0  0  0  0  0  0  0  0  0  0  0
  185.1790  178.6600  147.4520 C   0  0  0  0  0  2  0  0  0  0  0  0
  184.6690  177.9520  146.2280 C   0  0  0  0  0  2  0  0  0  0  0  0
  185.6180  176.7910  146.0180 C   0  0  0  0  0  2  0  0  0  0  0  0
  186.6410  178.2940  147.5110 C   0  0  0  0  0  2  0  0  0  0  0  0
  191.5560  171.4650  138.1060 O   0  0  0  0  0  1  0  0  0  0  0  0
  192.1890  172.3220  139.0070 C   0  0  0  0  0  2  0  0  0  0  0  0
  193.1910  174.3960  141.0660 S   0  0  0  0  0  0  0  0  0  0  0  0
  193.3510  173.6220  142.6980 C   0  0  0  0  0  2  0  0  0  0  0  0
  195.9640  175.6820  143.5840 N   0  0  0  0  0  0  0  0  0  0  0  0
  196.2480  175.2670  142.4000 C   0  0  0  0  0  0  0  0  0  0  0  0
  195.6450  174.0390  142.0380 N   0  0  0  0  0  2  0  0  0  0  0  0
  197.1170  176.0400  141.4740 C   0  0  0  0  0  1  0  0  0  0  0  0
  195.1120  174.6990  144.2390 C   0  0  2  0  0  3  0  0  0  0  0  0
  194.8050  173.6410  143.1540 C   0  0  1  0  0  3  0  0  0  0  0  0
  192.3700  175.3970  146.7550 C   0  0  0  0  0  0  0  0  0  0  0  0
  193.4890  174.8320  146.1380 C   0  0  0  0  0  3  0  0  0  0  0  0
  192.1140  176.9330  144.9630 C   0  0  0  0  0  0  0  0  0  0  0  0
  191.7110  176.4270  146.1590 N   0  0  0  0  0  0  0  0  0  0  0  0
  193.2290  176.3980  144.3160 C   0  0  0  0  0  3  0  0  0  0  0  0
  193.9280  175.3400  144.9140 C   0  0  0  0  0  0  0  0  0  0  0  0
  191.9410  174.9170  147.9470 F   0  0  0  0  0  0  0  0  0  0  0  0
  191.4280  177.9550  144.3950 F   0  0  0  0  0  0  0  0  0  0  0  0
  1  7  1  0  0  0  0
  2  6  1  0  0  0  0
  2  1  1  0  0  0  0
  3 22  1  0  0  0  0
  3  4  1  0  0  0  0
  6  3  2  0  0  0  0
  7  4  2  0  0  0  0
  7  5  1  0  0  0  0
  9 10  1  0  0  0  0
  9 13  1  0  0  0  0
 10  8  1  6  0  0  0
 10 15  1  0  0  0  0
 11  5  1  6  0  0  0
 11 14  1  0  0  0  0
 11 12  1  0  0  0  0
 12  9  2  0  0  0  0
 14  8  1  0  0  0  0
 15 19  1  0  0  0  0
 16 19  1  0  0  0  0
 17 16  1  0  0  0  0
 18 17  1  0  0  0  0
 18 15  1  0  0  0  0
 20 21  1  0  0  0  0
 21  6  1  0  0  0  0
 22 23  1  0  0  0  0
 24 28  1  0  0  0  0
 25 24  2  0  0  0  0
 26 25  1  0  0  0  0
 26 29  1  0  0  0  0
 27 25  1  0  0  0  0
 28 35  1  6  0  0  0
 29 23  1  6  0  0  0
 29 28  1  0  0  0  0
 30 36  1  0  0  0  0
 31 30  2  0  0  0  0
 32 33  2  0  0  0  0
 33 30  1  0  0  0  0
 34 35  2  0  0  0  0
 34 32  1  0  0  0  0
 35 31  1  0  0  0  0
 37 32  1  0  0  0  0
M  END
>  <MODEL>
5

>  <REMARK>
 VINA RESULT:      -8.0      2.195      3.676
  Name = 
  7 active torsions:
  status: ('A' for Active; 'I' for Inactive)
    1  A    between atoms: C_8  and  S_16
    2  A    between atoms: N_9  and  C_14
    3  A    between atoms: S_16  and  C_20
    4  A    between atoms: C_18  and  N_26
    5  A    between atoms: C_20  and  C_33
    6  A    between atoms: C_24  and  C_29
    7  A    between atoms: C_28  and  CA_31
                            x       y       z     vdW  Elec       q    Type
                         _______ _______ _______ _____ _____    ______ ____

>  <TORSDO>
F 7

$$$$
=
 OpenBabel11062421513D

 37 41  0  0  1  0  0  0  0  0999 V2000
  194.0480  177.2930  145.1820 C   0  0  0  0  0  2  0  0  0  0  0  0
  195.2890  176.6360  144.7760 N   0  0  0  0  0  2  0  0  0  0  0  0
  194.1610  174.9570  143.5070 C   0  0  0  0  0  0  0  0  0  0  0  0
  192.9470  175.6960  143.6890 N   0  0  0  0  0  0  0  0  0  0  0  0
  191.5990  177.4220  144.5910 N   0  0  0  0  0  2  0  0  0  0  0  0
  195.3050  175.4170  144.0300 C   0  0  0  0  0  0  0  0  0  0  0  0
  192.8600  176.7700  144.4200 C   0  0  0  0  0  0  0  0  0  0  0  0
  187.9480  176.4710  144.4720 C   0  0  0  0  0  2  0  0  0  0  0  0
  188.7030  177.8550  142.4440 C   0  0  0  0  0  0  0  0  0  0  0  0
  187.5410  177.3680  143.2800 C   0  0  2  0  0  3  0  0  0  0  0  0
  190.3550  176.8950  144.0440 C   0  0  2  0  0  3  0  0  0  0  0  0
  189.9740  177.6760  142.8200 C   0  0  0  0  0  3  0  0  0  0  0  0
  188.4420  178.5430  141.2660 O   0  0  0  0  0  1  0  0  0  0  0  0
  189.2540  176.9450  145.0980 C   0  0  0  0  0  2  0  0  0  0  0  0
  186.6440  178.4790  143.6390 N   0  0  0  0  0  0  0  0  0  0  0  0
  184.2800  178.7740  143.8140 C   0  0  0  0  0  2  0  0  0  0  0  0
  184.7910  178.4520  145.1910 C   0  0  0  0  0  2  0  0  0  0  0  0
  186.3000  178.4610  145.0630 C   0  0  0  0  0  2  0  0  0  0  0  0
  185.3970  178.3520  142.8940 C   0  0  0  0  0  2  0  0  0  0  0  0
  196.8900  173.9790  145.0270 O   0  0  0  0  0  1  0  0  0  0  0  0
  196.6000  174.6910  143.8640 C   0  0  0  0  0  2  0  0  0  0  0  0
  194.0940  173.4250  142.5750 S   0  0  0  0  0  0  0  0  0  0  0  0
  192.2940  173.5560  142.3930 C   0  0  0  0  0  2  0  0  0  0  0  0
  189.3250  172.7230  143.9240 N   0  0  0  0  0  0  0  0  0  0  0  0
  190.1060  173.0880  144.8790 C   0  0  0  0  0  0  0  0  0  0  0  0
  191.4880  172.9620  144.5990 N   0  0  0  0  0  2  0  0  0  0  0  0
  189.5920  173.6310  146.1630 C   0  0  0  0  0  1  0  0  0  0  0  0
  190.1290  172.2260  142.8160 C   0  0  2  0  0  3  0  0  0  0  0  0
  191.5960  172.4910  143.2290 C   0  0  1  0  0  3  0  0  0  0  0  0
  188.5120  174.5090  140.2670 C   0  0  0  0  0  0  0  0  0  0  0  0
  188.9610  173.9910  141.4830 C   0  0  0  0  0  3  0  0  0  0  0  0
  189.4660  172.6780  139.0940 C   0  0  0  0  0  0  0  0  0  0  0  0
  188.7720  173.8470  139.1070 N   0  0  0  0  0  0  0  0  0  0  0  0
  189.9330  172.1280  140.2900 C   0  0  0  0  0  3  0  0  0  0  0  0
  189.6840  172.7960  141.4960 C   0  0  0  0  0  0  0  0  0  0  0  0
  187.8180  175.6720  140.2420 F   0  0  0  0  0  0  0  0  0  0  0  0
  189.6990  172.0420  137.9210 F   0  0  0  0  0  0  0  0  0  0  0  0
  2  1  1  0  0  0  0
  3  4  1  0  0  0  0
  3  6  2  0  0  0  0
  4  7  2  0  0  0  0
  6  2  1  0  0  0  0
  7  5  1  0  0  0  0
  7  1  1  0  0  0  0
  8 14  1  0  0  0  0
  9 12  2  0  0  0  0
  9 10  1  0  0  0  0
 10 15  1  1  0  0  0
 10  8  1  0  0  0  0
 11  5  1  1  0  0  0
 11 14  1  0  0  0  0
 12 11  1  0  0  0  0
 13  9  1  0  0  0  0
 15 18  1  0  0  0  0
 16 17  1  0  0  0  0
 18 17  1  0  0  0  0
 19 15  1  0  0  0  0
 19 16  1  0  0  0  0
 21  6  1  0  0  0  0
 21 20  1  0  0  0  0
 22  3  1  0  0  0  0
 23 22  1  0  0  0  0
 24 25  2  0  0  0  0
 25 27  1  0  0  0  0
 26 25  1  0  0  0  0
 28 35  1  6  0  0  0
 28 29  1  0  0  0  0
 28 24  1  0  0  0  0
 29 23  1  6  0  0  0
 29 26  1  0  0  0  0
 30 31  1  0  0  0  0
 31 35  2  0  0  0  0
 32 33  1  0  0  0  0
 32 34  2  0  0  0  0
 33 30  2  0  0  0  0
 34 35  1  0  0  0  0
 36 30  1  0  0  0  0
 37 32  1  0  0  0  0
M  END
>  <MODEL>
6

>  <REMARK>
 VINA RESULT:      -7.9      3.346      5.785
  Name = 
  7 active torsions:
  status: ('A' for Active; 'I' for Inactive)
    1  A    between atoms: C_8  and  S_16
    2  A    between atoms: N_9  and  C_14
    3  A    between atoms: S_16  and  C_20
    4  A    between atoms: C_18  and  N_26
    5  A    between atoms: C_20  and  C_33
    6  A    between atoms: C_24  and  C_29
    7  A    between atoms: C_28  and  CA_31
                            x       y       z     vdW  Elec       q    Type
                         _______ _______ _______ _____ _____    ______ ____

>  <TORSDO>
F 7

$$$$
=
 OpenBabel11062421513D

 37 41  0  0  1  0  0  0  0  0999 V2000
  193.7930  176.4770  146.5350 C   0  0  0  0  0  2  0  0  0  0  0  0
  194.9190  175.6380  146.1280 N   0  0  0  0  0  2  0  0  0  0  0  0
  193.5150  173.9440  145.1990 C   0  0  0  0  0  0  0  0  0  0  0  0
  192.4030  174.8310  145.3730 N   0  0  0  0  0  0  0  0  0  0  0  0
  191.3240  176.7990  146.1300 N   0  0  0  0  0  2  0  0  0  0  0  0
  194.7430  174.3390  145.5600 C   0  0  0  0  0  0  0  0  0  0  0  0
  192.4920  175.9940  145.9520 C   0  0  0  0  0  0  0  0  0  0  0  0
  187.6150  176.1860  146.4700 C   0  0  0  0  0  2  0  0  0  0  0  0
  188.2580  177.3200  144.2570 C   0  0  0  0  0  0  0  0  0  0  0  0
  187.1570  177.0150  145.2480 C   0  0  2  0  0  3  0  0  0  0  0  0
  189.9880  176.3470  145.7630 C   0  0  2  0  0  3  0  0  0  0  0  0
  189.5430  177.0550  144.5170 C   0  0  0  0  0  3  0  0  0  0  0  0
  187.9290  177.9290  143.0530 O   0  0  0  0  0  1  0  0  0  0  0  0
  189.0170  176.5870  146.9140 C   0  0  0  0  0  2  0  0  0  0  0  0
  186.4010  178.2310  145.5920 N   0  0  0  0  0  0  0  0  0  0  0  0
  184.0940  178.7830  145.8690 C   0  0  0  0  0  2  0  0  0  0  0  0
  184.6460  178.4760  147.2340 C   0  0  0  0  0  2  0  0  0  0  0  0
  186.1380  178.3180  147.0300 C   0  0  0  0  0  2  0  0  0  0  0  0
  185.1080  178.2000  144.9190 C   0  0  0  0  0  2  0  0  0  0  0  0
  196.8090  173.6430  146.4680 O   0  0  0  0  0  1  0  0  0  0  0  0
  195.9390  173.4580  145.3940 C   0  0  0  0  0  2  0  0  0  0  0  0
  193.2090  172.3210  144.4990 S   0  0  0  0  0  0  0  0  0  0  0  0
  192.0520  173.0080  143.2830 C   0  0  0  0  0  2  0  0  0  0  0  0
  189.0200  172.3150  141.8060 N   0  0  0  0  0  0  0  0  0  0  0  0
  188.8410  173.4180  142.4420 C   0  0  0  0  0  0  0  0  0  0  0  0
  189.7230  173.6300  143.5290 N   0  0  0  0  0  2  0  0  0  0  0  0
  187.8070  174.4080  142.0430 C   0  0  0  0  0  1  0  0  0  0  0  0
  190.0890  171.5640  142.4500 C   0  0  2  0  0  3  0  0  0  0  0  0
  190.6400  172.5030  143.5490 C   0  0  1  0  0  3  0  0  0  0  0  0
  192.0970  171.1530  139.2680 C   0  0  0  0  0  0  0  0  0  0  0  0
  191.2030  171.6610  140.2130 C   0  0  0  0  0  3  0  0  0  0  0  0
  192.7310  169.4110  140.7510 C   0  0  0  0  0  0  0  0  0  0  0  0
  192.8360  170.0480  139.5540 N   0  0  0  0  0  0  0  0  0  0  0  0
  191.8500  169.8900  141.7240 C   0  0  0  0  0  3  0  0  0  0  0  0
  191.0830  171.0310  141.4530 C   0  0  0  0  0  0  0  0  0  0  0  0
  192.2280  171.7620  138.0650 F   0  0  0  0  0  0  0  0  0  0  0  0
  193.4780  168.3080  140.9990 F   0  0  0  0  0  0  0  0  0  0  0  0
  2  1  1  0  0  0  0
  3  4  1  0  0  0  0
  3  6  2  0  0  0  0
  4  7  2  0  0  0  0
  6  2  1  0  0  0  0
  7  5  1  0  0  0  0
  7  1  1  0  0  0  0
  8 14  1  0  0  0  0
  9 12  2  0  0  0  0
  9 10  1  0  0  0  0
 10 15  1  1  0  0  0
 10  8  1  0  0  0  0
 11  5  1  1  0  0  0
 11 14  1  0  0  0  0
 12 11  1  0  0  0  0
 13  9  1  0  0  0  0
 15 18  1  0  0  0  0
 16 17  1  0  0  0  0
 18 17  1  0  0  0  0
 19 15  1  0  0  0  0
 19 16  1  0  0  0  0
 21  6  1  0  0  0  0
 21 20  1  0  0  0  0
 22  3  1  0  0  0  0
 23 22  1  0  0  0  0
 24 25  2  0  0  0  0
 24 28  1  0  0  0  0
 25 26  1  0  0  0  0
 26 29  1  0  0  0  0
 27 25  1  0  0  0  0
 28 35  1  6  0  0  0
 28 29  1  0  0  0  0
 29 23  1  6  0  0  0
 30 33  2  0  0  0  0
 30 31  1  0  0  0  0
 31 35  2  0  0  0  0
 32 37  1  0  0  0  0
 32 34  2  0  0  0  0
 33 32  1  0  0  0  0
 35 34  1  0  0  0  0
 36 30  1  0  0  0  0
M  END
>  <MODEL>
7

>  <REMARK>
 VINA RESULT:      -7.6      2.945      5.560
  Name = 
  7 active torsions:
  status: ('A' for Active; 'I' for Inactive)
    1  A    between atoms: C_8  and  S_16
    2  A    between atoms: N_9  and  C_14
    3  A    between atoms: S_16  and  C_20
    4  A    between atoms: C_18  and  N_26
    5  A    between atoms: C_20  and  C_33
    6  A    between atoms: C_24  and  C_29
    7  A    between atoms: C_28  and  CA_31
                            x       y       z     vdW  Elec       q    Type
                         _______ _______ _______ _____ _____    ______ ____

>  <TORSDO>
F 7

$$$$
=
 OpenBabel11062421513D

 37 41  0  0  1  0  0  0  0  0999 V2000
  193.8090  176.6090  146.5110 C   0  0  0  0  0  2  0  0  0  0  0  0
  194.9520  175.7700  146.1550 N   0  0  0  0  0  2  0  0  0  0  0  0
  193.5850  174.0180  145.2820 C   0  0  0  0  0  0  0  0  0  0  0  0
  192.4580  174.8960  145.4020 N   0  0  0  0  0  0  0  0  0  0  0  0
  191.3420  176.8790  146.0590 N   0  0  0  0  0  2  0  0  0  0  0  0
  194.8020  174.4450  145.6420 C   0  0  0  0  0  0  0  0  0  0  0  0
  192.5240  176.0840  145.9320 C   0  0  0  0  0  0  0  0  0  0  0  0
  187.6490  176.1780  146.4010 C   0  0  0  0  0  2  0  0  0  0  0  0
  188.2650  177.3160  144.1820 C   0  0  0  0  0  0  0  0  0  0  0  0
  187.1720  176.9890  145.1740 C   0  0  2  0  0  3  0  0  0  0  0  0
  190.0180  176.3930  145.6940 C   0  0  2  0  0  3  0  0  0  0  0  0
  189.5560  177.0840  144.4440 C   0  0  0  0  0  3  0  0  0  0  0  0
  187.9220  177.9110  142.9750 O   0  0  0  0  0  1  0  0  0  0  0  0
  189.0400  176.6150  146.8430 C   0  0  0  0  0  2  0  0  0  0  0  0
  186.3870  178.1880  145.5120 N   0  0  0  0  0  0  0  0  0  0  0  0
  184.0700  178.6750  145.8340 C   0  0  0  0  0  2  0  0  0  0  0  0
  184.6640  178.4140  147.1910 C   0  0  0  0  0  2  0  0  0  0  0  0
  186.1550  178.2980  146.9540 C   0  0  0  0  0  2  0  0  0  0  0  0
  185.0790  178.1040  144.8710 C   0  0  0  0  0  2  0  0  0  0  0  0
  196.7530  173.9460  144.4080 O   0  0  0  0  0  1  0  0  0  0  0  0
  196.0110  173.5750  145.5290 C   0  0  0  0  0  2  0  0  0  0  0  0
  193.3100  172.3620  144.6470 S   0  0  0  0  0  0  0  0  0  0  0  0
  192.2540  172.9930  143.3150 C   0  0  0  0  0  2  0  0  0  0  0  0
  193.1420  173.4400  140.0180 N   0  0  0  0  0  0  0  0  0  0  0  0
  194.1830  172.9370  140.5820 C   0  0  0  0  0  0  0  0  0  0  0  0
  194.2690  173.1550  141.9780 N   0  0  0  0  0  2  0  0  0  0  0  0
  195.1970  172.1560  139.8270 C   0  0  0  0  0  1  0  0  0  0  0  0
  192.3600  174.1540  141.0180 C   0  0  2  0  0  3  0  0  0  0  0  0
  193.0630  173.8680  142.3650 C   0  0  1  0  0  3  0  0  0  0  0  0
  189.1100  172.5760  139.8850 C   0  0  0  0  0  0  0  0  0  0  0  0
  190.4710  172.8710  139.9960 C   0  0  0  0  0  3  0  0  0  0  0  0
  188.5950  174.1430  141.5930 C   0  0  0  0  0  0  0  0  0  0  0  0
  188.2080  173.2130  140.6800 N   0  0  0  0  0  0  0  0  0  0  0  0
  189.9470  174.4640  141.7360 C   0  0  0  0  0  3  0  0  0  0  0  0
  190.8950  173.8150  140.9330 C   0  0  0  0  0  0  0  0  0  0  0  0
  188.6890  171.6550  138.9860 F   0  0  0  0  0  0  0  0  0  0  0  0
  187.6680  174.7630  142.3620 F   0  0  0  0  0  0  0  0  0  0  0  0
  2  1  1  0  0  0  0
  3  4  1  0  0  0  0
  3  6  2  0  0  0  0
  4  7  2  0  0  0  0
  6  2  1  0  0  0  0
  7  5  1  0  0  0  0
  7  1  1  0  0  0  0
  8 14  1  0  0  0  0
  9 12  2  0  0  0  0
  9 10  1  0  0  0  0
 10 15  1  1  0  0  0
 10  8  1  0  0  0  0
 11  5  1  1  0  0  0
 11 14  1  0  0  0  0
 12 11  1  0  0  0  0
 13  9  1  0  0  0  0
 15 18  1  0  0  0  0
 16 17  1  0  0  0  0
 18 17  1  0  0  0  0
 19 15  1  0  0  0  0
 19 16  1  0  0  0  0
 20 21  1  0  0  0  0
 21  6  1  0  0  0  0
 22  3  1  0  0  0  0
 23 22  1  0  0  0  0
 24 25  2  0  0  0  0
 24 28  1  0  0  0  0
 25 26  1  0  0  0  0
 26 29  1  0  0  0  0
 27 25  1  0  0  0  0
 28 35  1  1  0  0  0
 28 29  1  0  0  0  0
 29 23  1  1  0  0  0
 30 31  2  0  0  0  0
 30 33  1  0  0  0  0
 31 35  1  0  0  0  0
 32 34  1  0  0  0  0
 32 37  1  0  0  0  0
 33 32  2  0  0  0  0
 35 34  2  0  0  0  0
 36 30  1  0  0  0  0
M  END
>  <MODEL>
8

>  <REMARK>
 VINA RESULT:      -7.6      3.277      5.986
  Name = 
  7 active torsions:
  status: ('A' for Active; 'I' for Inactive)
    1  A    between atoms: C_8  and  S_16
    2  A    between atoms: N_9  and  C_14
    3  A    between atoms: S_16  and  C_20
    4  A    between atoms: C_18  and  N_26
    5  A    between atoms: C_20  and  C_33
    6  A    between atoms: C_24  and  C_29
    7  A    between atoms: C_28  and  CA_31
                            x       y       z     vdW  Elec       q    Type
                         _______ _______ _______ _____ _____    ______ ____

>  <TORSDO>
F 7

$$$$
=
 OpenBabel11062421513D

 37 41  0  0  1  0  0  0  0  0999 V2000
  190.3640  172.9720  144.3710 C   0  0  0  0  0  2  0  0  0  0  0  0
  189.8330  173.8090  145.4460 N   0  0  0  0  0  2  0  0  0  0  0  0
  189.6590  175.7430  144.0570 C   0  0  0  0  0  0  0  0  0  0  0  0
  189.9560  174.9090  142.9300 N   0  0  0  0  0  0  0  0  0  0  0  0
  190.5900  172.8930  141.8600 N   0  0  0  0  0  2  0  0  0  0  0  0
  189.5920  175.2080  145.2820 C   0  0  0  0  0  0  0  0  0  0  0  0
  190.2580  173.6460  143.0290 C   0  0  0  0  0  0  0  0  0  0  0  0
  191.6410  173.2680  138.2540 C   0  0  0  0  0  2  0  0  0  0  0  0
  189.1130  173.5490  138.6080 C   0  0  0  0  0  0  0  0  0  0  0  0
  190.2280  173.2670  137.6270 C   0  0  2  0  0  3  0  0  0  0  0  0
  190.6920  173.4930  140.5360 C   0  0  2  0  0  3  0  0  0  0  0  0
  189.3240  173.6050  139.9280 C   0  0  0  0  0  3  0  0  0  0  0  0
  187.8210  173.7180  138.1280 O   0  0  0  0  0  1  0  0  0  0  0  0
  191.6240  172.6680  139.6540 C   0  0  0  0  0  2  0  0  0  0  0  0
  189.9300  172.0770  136.8130 N   0  0  0  0  0  0  0  0  0  0  0  0
  191.1990  170.2630  135.9150 C   0  0  0  0  0  2  0  0  0  0  0  0
  190.6070  169.7930  137.2150 C   0  0  0  0  0  2  0  0  0  0  0  0
  189.6690  170.9000  137.6450 C   0  0  0  0  0  2  0  0  0  0  0  0
  191.0830  171.7650  135.9760 C   0  0  0  0  0  2  0  0  0  0  0  0
  188.0010  175.7130  146.9530 O   0  0  0  0  0  1  0  0  0  0  0  0
  189.2770  176.0300  146.4900 C   0  0  0  0  0  2  0  0  0  0  0  0
  189.3900  177.4940  143.7710 S   0  0  0  0  0  0  0  0  0  0  0  0
  187.6500  177.2090  143.3460 C   0  0  0  0  0  2  0  0  0  0  0  0
  184.7300  178.8940  142.6470 N   0  0  0  0  0  0  0  0  0  0  0  0
  185.0420  178.2930  141.5540 C   0  0  0  0  0  0  0  0  0  0  0  0
  186.4180  177.9900  141.4120 N   0  0  0  0  0  2  0  0  0  0  0  0
  184.0270  177.9160  140.5360 C   0  0  0  0  0  1  0  0  0  0  0  0
  185.9410  179.1350  143.4190 C   0  0  2  0  0  3  0  0  0  0  0  0
  187.0700  178.4250  142.6350 C   0  0  1  0  0  3  0  0  0  0  0  0
  184.9940  177.1700  146.5120 C   0  0  0  0  0  0  0  0  0  0  0  0
  185.1850  177.5210  145.1740 C   0  0  0  0  0  3  0  0  0  0  0  0
  185.9370  179.2290  147.2260 C   0  0  0  0  0  0  0  0  0  0  0  0
  185.3710  178.0240  147.5020 N   0  0  0  0  0  0  0  0  0  0  0  0
  186.1480  179.6150  145.9010 C   0  0  0  0  0  3  0  0  0  0  0  0
  185.7750  178.7490  144.8650 C   0  0  0  0  0  0  0  0  0  0  0  0
  184.4310  175.9780  146.8240 F   0  0  0  0  0  0  0  0  0  0  0  0
  186.2930  180.0570  148.2370 F   0  0  0  0  0  0  0  0  0  0  0  0
  1  2  1  0  0  0  0
  3  6  2  0  0  0  0
  4  7  2  0  0  0  0
  4  3  1  0  0  0  0
  5  7  1  0  0  0  0
  6  2  1  0  0  0  0
  6 21  1  0  0  0  0
  7  1  1  0  0  0  0
  8 14  1  0  0  0  0
  9 12  2  0  0  0  0
 10 15  1  1  0  0  0
 10  8  1  0  0  0  0
 10  9  1  0  0  0  0
 11  5  1  1  0  0  0
 12 11  1  0  0  0  0
 13  9  1  0  0  0  0
 14 11  1  0  0  0  0
 15 18  1  0  0  0  0
 16 19  1  0  0  0  0
 16 17  1  0  0  0  0
 17 18  1  0  0  0  0
 19 15  1  0  0  0  0
 21 20  1  0  0  0  0
 22  3  1  0  0  0  0
 23 22  1  0  0  0  0
 24 28  1  0  0  0  0
 25 24  2  0  0  0  0
 26 25  1  0  0  0  0
 26 29  1  0  0  0  0
 27 25  1  0  0  0  0
 28 35  1  1  0  0  0
 29 23  1  1  0  0  0
 29 28  1  0  0  0  0
 30 36  1  0  0  0  0
 30 33  1  0  0  0  0
 31 30  2  0  0  0  0
 32 33  2  0  0  0  0
 32 37  1  0  0  0  0
 34 32  1  0  0  0  0
 35 31  1  0  0  0  0
 35 34  2  0  0  0  0
M  END
>  <MODEL>
9

>  <REMARK>
 VINA RESULT:      -7.6      4.600      9.173
  Name = 
  7 active torsions:
  status: ('A' for Active; 'I' for Inactive)
    1  A    between atoms: C_8  and  S_16
    2  A    between atoms: N_9  and  C_14
    3  A    between atoms: S_16  and  C_20
    4  A    between atoms: C_18  and  N_26
    5  A    between atoms: C_20  and  C_33
    6  A    between atoms: C_24  and  C_29
    7  A    between atoms: C_28  and  CA_31
                            x       y       z     vdW  Elec       q    Type
                         _______ _______ _______ _____ _____    ______ ____

>  <TORSDO>
F 7

$$$$
