=
 OpenBabel11062420543D

 50 54  0  0  1  0  0  0  0  0999 V2000
  189.5940  173.7300  143.3030 N   0  0  0  0  0  2  0  0  0  0  0  0
  191.2500  171.3070  140.8670 C   0  0  0  0  0  2  0  0  0  0  0  0
  193.1360  172.6350  140.5610 C   0  0  1  0  0  3  0  0  0  0  0  0
  197.9020  174.6910  141.2380 O   0  0  0  0  0  0  0  0  0  0  0  0
  190.3000  172.4600  141.2160 C   0  0  2  0  0  3  0  0  0  0  0  0
  191.9950  176.7650  144.8690 C   0  0  1  0  0  3  0  0  0  0  0  0
  191.0900  174.3970  145.0840 C   0  0  0  0  0  0  0  0  0  0  0  0
  194.0870  173.4110  141.4540 C   0  0  0  0  0  2  0  0  0  0  0  0
  194.3150  176.3190  145.0840 C   0  0  0  0  0  3  0  0  0  0  0  0
  192.5430  171.6040  141.3370 O   0  0  0  0  0  0  0  0  0  0  0  0
  190.9000  173.8000  140.7580 C   0  0  0  0  0  2  0  0  0  0  0  0
  197.4350  177.0600  143.5080 F   0  0  0  0  0  0  0  0  0  0  0  0
  195.7820  176.2170  142.0030 C   0  0  0  0  0  2  0  0  0  0  0  0
  192.0360  173.6590  144.8620 O   0  0  0  0  0  0  0  0  0  0  0  0
  195.6330  175.8680  144.5380 C   0  0  1  0  0  3  0  0  0  0  0  0
  195.5730  174.3780  144.1600 C   0  0  0  0  0  2  0  0  0  0  0  0
  196.7210  173.9710  143.4620 O   0  0  0  0  0  0  0  0  0  0  0  0
  190.1400  171.4670  143.4000 O   0  0  0  0  0  0  0  0  0  0  0  0
  189.6990  173.9640  144.7360 C   0  0  0  0  0  2  0  0  0  0  0  0
  196.0840  176.7910  143.3880 C   0  0  1  0  0  3  0  0  0  0  0  0
  191.3080  175.7190  145.7580 C   0  0  0  0  0  2  0  0  0  0  0  0
  192.1490  173.6200  139.8970 C   0  0  0  0  0  2  0  0  0  0  0  0
  190.0230  172.5080  142.6960 C   0  0  0  0  0  0  0  0  0  0  0  0
  193.2610  176.3060  144.3500 N   0  0  0  0  0  0  0  0  0  0  0  0
  195.4960  173.4590  140.8750 C   0  0  1  0  0  3  0  0  0  0  0  0
  196.5380  174.5660  141.8780 P   0  0  2  0  0  0  0  0  0  0  0  0
  196.7210  171.7400  139.7750 O   0  0  0  0  0  0  0  0  0  0  0  0
  195.9700  171.1950  141.9250 N   0  0  0  0  0  2  0  0  0  0  0  0
  196.1040  172.0930  140.8140 C   0  0  0  0  0  0  0  0  0  0  0  0
  196.4280  169.8070  141.9310 C   0  0  2  0  0  3  0  0  0  0  0  0
  195.3750  168.8930  141.3300 C   0  0  0  0  0  1  0  0  0  0  0  0
  196.7830  169.3500  143.3410 C   0  0  0  0  0  2  0  0  0  0  0  0
  196.4040  170.4100  144.3680 C   0  0  1  0  0  3  0  0  0  0  0  0
  196.5050  170.0290  146.3310 C   0  0  0  0  0  2  0  0  0  0  0  0
  195.5370  169.8630  145.3270 O   0  0  0  0  0  0  0  0  0  0  0  0
  197.5080  170.6060  145.3710 C   0  0  0  0  0  2  0  0  0  0  0  0
  191.0840  177.2810  143.7500 C   0  0  2  0  0  3  0  0  0  0  0  0
  191.7170  178.2890  143.0220 O   0  0  0  0  0  1  0  0  0  0  0  0
  189.7820  177.8240  144.3230 C   0  0  0  0  0  2  0  0  0  0  0  0
  188.5720  177.0730  143.7720 C   0  0  1  0  0  3  0  0  0  0  0  0
  185.6620  178.5120  146.6350 C   0  0  2  0  0  3  0  0  0  0  0  0
  187.3280  177.4000  144.5420 C   0  0  0  0  0  0  0  0  0  0  0  0
  184.6230  178.6650  147.6370 N   0  0  0  0  0  1  0  0  0  0  0  0
  184.9420  178.7050  144.9740 S   0  0  0  0  0  0  0  0  0  0  0  0
  187.0770  176.6670  145.8000 C   0  0  0  0  0  3  0  0  0  0  0  0
  186.5080  178.3840  144.1460 C   0  0  0  0  0  3  0  0  0  0  0  0
  186.2850  177.1550  146.7590 C   0  0  0  0  0  3  0  0  0  0  0  0
  188.7300  178.5150  141.7240 O   0  0  0  0  0  1  0  0  0  0  0  0
  187.9120  176.3780  141.5890 O   0  0  0  0  0  0  0  0  0  0  0  0
  188.3920  177.2960  142.3020 C   0  0  0  0  0  0  0  0  0  0  0  0
  1 19  1  0  0  0  0
  2  5  1  0  0  0  0
  2 10  1  0  0  0  0
  3 22  1  1  0  0  0
  3 10  1  0  0  0  0
  3  8  1  0  0  0  0
  5 11  1  1  0  0  0
  5 23  1  0  0  0  0
  6 37  1  6  0  0  0
  6 21  1  0  0  0  0
  7 21  1  0  0  0  0
 13 20  1  0  0  0  0
 14  7  2  0  0  0  0
 15 16  1  6  0  0  0
 15  9  1  0  0  0  0
 17 16  1  0  0  0  0
 19  7  1  0  0  0  0
 20 12  1  6  0  0  0
 20 15  1  0  0  0  0
 22 11  1  0  0  0  0
 23  1  1  0  0  0  0
 23 18  2  0  0  0  0
 24  6  1  0  0  0  0
 24  9  2  0  0  0  0
 25 29  1  1  0  0  0
 25  8  1  0  0  0  0
 25 26  1  0  0  0  0
 26  4  2  6  0  0  0
 26 13  1  0  0  0  0
 26 17  1  0  0  0  0
 27 29  2  0  0  0  0
 28 30  1  0  0  0  0
 29 28  1  0  0  0  0
 30 31  1  1  0  0  0
 30 32  1  0  0  0  0
 33 32  1  6  0  0  0
 33 35  1  0  0  0  0
 33 36  1  0  0  0  0
 35 34  1  0  0  0  0
 36 34  1  0  0  0  0
 37 38  1  1  0  0  0
 37 39  1  0  0  0  0
 40 39  1  1  0  0  0
 40 42  1  0  0  0  0
 41 47  1  0  0  0  0
 41 43  1  1  0  0  0
 42 45  1  0  0  0  0
 44 41  1  0  0  0  0
 45 47  2  0  0  0  0
 46 42  2  0  0  0  0
 46 44  1  0  0  0  0
 48 50  1  0  0  0  0
 49 50  2  0  0  0  0
 50 40  1  0  0  0  0
M  END
>  <MODEL>
1

>  <REMARK>
 VINA RESULT:      -7.7      0.000      0.000
  Name = 
  9 active torsions:
  status: ('A' for Active; 'I' for Inactive)
    1  A    between atoms: C_2  and  C_12
    2  A    between atoms: C_4  and  C_12
    3  A    between atoms: C_4  and  N_36
    4  A    between atoms: C_7  and  C_16
    5  A    between atoms: C_7  and  C_33
    6  A    between atoms: C_7  and  C_42
    7  A    between atoms: C_14  and  C_18
    8  A    between atoms: C_18  and  C_33
    9  A    between atoms: C_40  and  C_48
                            x       y       z     vdW  Elec       q    Type
                         _______ _______ _______ _____ _____    ______ ____

>  <TORSDO>
F 9

$$$$
=
 OpenBabel11062420543D

 50 54  0  0  1  0  0  0  0  0999 V2000
  189.5200  172.3570  142.2820 N   0  0  0  0  0  2  0  0  0  0  0  0
  192.5030  171.3540  140.1260 C   0  0  0  0  0  2  0  0  0  0  0  0
  193.8320  173.1260  140.8390 C   0  0  1  0  0  3  0  0  0  0  0  0
  197.2330  175.9410  143.6520 O   0  0  0  0  0  0  0  0  0  0  0  0
  191.1610  172.0590  140.3610 C   0  0  2  0  0  3  0  0  0  0  0  0
  190.2170  175.1940  145.2640 C   0  0  1  0  0  3  0  0  0  0  0  0
  190.1490  172.7430  144.5860 C   0  0  0  0  0  0  0  0  0  0  0  0
  194.1780  173.7720  142.1690 C   0  0  0  0  0  2  0  0  0  0  0  0
  192.3960  175.2820  146.1970 C   0  0  0  0  0  3  0  0  0  0  0  0
  193.4360  171.7850  141.0890 O   0  0  0  0  0  0  0  0  0  0  0  0
  191.3710  173.5780  140.4730 C   0  0  0  0  0  2  0  0  0  0  0  0
  195.3840  177.2400  146.0750 F   0  0  0  0  0  0  0  0  0  0  0  0
  194.5980  176.5640  143.9240 C   0  0  0  0  0  2  0  0  0  0  0  0
  191.3120  172.3740  144.5600 O   0  0  0  0  0  0  0  0  0  0  0  0
  193.8850  175.3730  146.0790 C   0  0  1  0  0  3  0  0  0  0  0  0
  194.4420  174.1240  145.3740 C   0  0  0  0  0  2  0  0  0  0  0  0
  195.8040  174.2630  145.0660 O   0  0  0  0  0  0  0  0  0  0  0  0
  190.7540  170.3940  142.0480 O   0  0  0  0  0  0  0  0  0  0  0  0
  189.1410  172.1230  143.6680 C   0  0  0  0  0  2  0  0  0  0  0  0
  194.2930  176.7040  145.4150 C   0  0  1  0  0  3  0  0  0  0  0  0
  189.7110  173.7800  145.5770 C   0  0  0  0  0  2  0  0  0  0  0  0
  192.7920  174.0020  140.1070 C   0  0  0  0  0  2  0  0  0  0  0  0
  190.4880  171.5470  141.6090 C   0  0  0  0  0  0  0  0  0  0  0  0
  191.6540  175.2560  145.1490 N   0  0  0  0  0  0  0  0  0  0  0  0
  195.5880  174.3500  142.1680 C   0  0  1  0  0  3  0  0  0  0  0  0
  195.8730  175.2830  143.7050 P   0  0  2  0  0  0  0  0  0  0  0  0
  197.6180  173.4740  141.2850 O   0  0  0  0  0  0  0  0  0  0  0  0
  196.4490  172.0200  142.7000 N   0  0  0  0  0  2  0  0  0  0  0  0
  196.6160  173.2720  142.0200 C   0  0  0  0  0  0  0  0  0  0  0  0
  197.3300  170.8650  142.5410 C   0  0  2  0  0  3  0  0  0  0  0  0
  196.8400  169.9660  141.4210 C   0  0  0  0  0  1  0  0  0  0  0  0
  197.4460  170.0780  143.8410 C   0  0  0  0  0  2  0  0  0  0  0  0
  196.2930  170.4090  144.7820 C   0  0  1  0  0  3  0  0  0  0  0  0
  196.1490  169.5440  146.5820 C   0  0  0  0  0  2  0  0  0  0  0  0
  195.7250  169.2260  145.2810 O   0  0  0  0  0  0  0  0  0  0  0  0
  196.8050  170.8200  146.1350 C   0  0  0  0  0  2  0  0  0  0  0  0
  189.5300  175.8120  144.0410 C   0  0  2  0  0  3  0  0  0  0  0  0
  190.0040  177.1030  143.8060 O   0  0  0  0  0  1  0  0  0  0  0  0
  188.0220  175.8650  144.2400 C   0  0  0  0  0  2  0  0  0  0  0  0
  187.5710  177.2360  144.7380 C   0  0  1  0  0  3  0  0  0  0  0  0
  184.5570  177.9620  141.7180 C   0  0  2  0  0  3  0  0  0  0  0  0
  186.4970  177.8100  143.8630 C   0  0  0  0  0  0  0  0  0  0  0  0
  183.7490  178.4600  140.6190 N   0  0  0  0  0  1  0  0  0  0  0  0
  183.9330  178.6360  143.2900 S   0  0  0  0  0  0  0  0  0  0  0  0
  186.8750  178.2710  142.5120 C   0  0  0  0  0  3  0  0  0  0  0  0
  185.2170  177.8300  144.2630 C   0  0  0  0  0  3  0  0  0  0  0  0
  185.9840  178.3750  141.5220 C   0  0  0  0  0  3  0  0  0  0  0  0
  186.9270  178.3870  146.8730 O   0  0  0  0  0  1  0  0  0  0  0  0
  187.0410  176.1000  146.7670 O   0  0  0  0  0  0  0  0  0  0  0  0
  187.1590  177.2060  146.1780 C   0  0  0  0  0  0  0  0  0  0  0  0
  1 19  1  0  0  0  0
  2 10  1  0  0  0  0
  3 22  1  1  0  0  0
  3 10  1  0  0  0  0
  3  8  1  0  0  0  0
  5  2  1  1  0  0  0
  5 11  1  0  0  0  0
  5 23  1  0  0  0  0
  6 37  1  6  0  0  0
  6 21  1  0  0  0  0
  7 21  1  0  0  0  0
 13 20  1  0  0  0  0
 14  7  2  0  0  0  0
 15 16  1  6  0  0  0
 15  9  1  0  0  0  0
 17 16  1  0  0  0  0
 19  7  1  0  0  0  0
 20 12  1  1  0  0  0
 20 15  1  0  0  0  0
 22 11  1  0  0  0  0
 23 18  2  0  0  0  0
 23  1  1  0  0  0  0
 24  6  1  0  0  0  0
 24  9  2  0  0  0  0
 25 29  1  1  0  0  0
 25  8  1  0  0  0  0
 25 26  1  0  0  0  0
 26  4  2  6  0  0  0
 26 13  1  0  0  0  0
 26 17  1  0  0  0  0
 27 29  2  0  0  0  0
 29 28  1  0  0  0  0
 30 31  1  6  0  0  0
 30 28  1  0  0  0  0
 30 32  1  0  0  0  0
 33 32  1  6  0  0  0
 33 35  1  0  0  0  0
 33 36  1  0  0  0  0
 35 34  1  0  0  0  0
 36 34  1  0  0  0  0
 37 38  1  1  0  0  0
 37 39  1  0  0  0  0
 40 39  1  6  0  0  0
 40 50  1  0  0  0  0
 41 43  1  6  0  0  0
 41 44  1  0  0  0  0
 42 46  2  0  0  0  0
 42 40  1  0  0  0  0
 44 46  1  0  0  0  0
 45 42  1  0  0  0  0
 47 41  1  0  0  0  0
 47 45  2  0  0  0  0
 50 49  2  0  0  0  0
 50 48  1  0  0  0  0
M  END
>  <MODEL>
2

>  <REMARK>
 VINA RESULT:      -7.7      2.070      2.595
  Name = 
  9 active torsions:
  status: ('A' for Active; 'I' for Inactive)
    1  A    between atoms: C_2  and  C_12
    2  A    between atoms: C_4  and  C_12
    3  A    between atoms: C_4  and  N_36
    4  A    between atoms: C_7  and  C_16
    5  A    between atoms: C_7  and  C_33
    6  A    between atoms: C_7  and  C_42
    7  A    between atoms: C_14  and  C_18
    8  A    between atoms: C_18  and  C_33
    9  A    between atoms: C_40  and  C_48
                            x       y       z     vdW  Elec       q    Type
                         _______ _______ _______ _____ _____    ______ ____

>  <TORSDO>
F 9

$$$$
=
 OpenBabel11062420543D

 50 54  0  0  1  0  0  0  0  0999 V2000
  189.8530  171.8600  141.9770 N   0  0  0  0  0  2  0  0  0  0  0  0
  193.0550  170.3860  140.5190 C   0  0  0  0  0  2  0  0  0  0  0  0
  194.3700  172.2110  141.1160 C   0  0  1  0  0  3  0  0  0  0  0  0
  197.4830  175.3650  143.9030 O   0  0  0  0  0  0  0  0  0  0  0  0
  191.7380  171.1680  140.4170 C   0  0  2  0  0  3  0  0  0  0  0  0
  190.2730  175.1590  144.5010 C   0  0  1  0  0  3  0  0  0  0  0  0
  190.1560  172.6300  144.2500 C   0  0  0  0  0  0  0  0  0  0  0  0
  194.5540  173.0720  142.3540 C   0  0  0  0  0  2  0  0  0  0  0  0
  192.2910  175.3370  145.7340 C   0  0  0  0  0  3  0  0  0  0  0  0
  193.8590  170.9510  141.5270 O   0  0  0  0  0  0  0  0  0  0  0  0
  192.0220  172.6750  140.2980 C   0  0  0  0  0  2  0  0  0  0  0  0
  195.3780  177.1380  145.7490 F   0  0  0  0  0  0  0  0  0  0  0  0
  194.8790  176.1160  143.6480 C   0  0  0  0  0  2  0  0  0  0  0  0
  191.2850  172.2220  144.4700 O   0  0  0  0  0  0  0  0  0  0  0  0
  193.7840  175.3550  145.8370 C   0  0  1  0  0  3  0  0  0  0  0  0
  194.3610  173.9810  145.4520 C   0  0  0  0  0  2  0  0  0  0  0  0
  195.7600  174.0160  145.3430 O   0  0  0  0  0  0  0  0  0  0  0  0
  190.9840  169.8460  142.2790 O   0  0  0  0  0  0  0  0  0  0  0  0
  189.2590  171.8910  143.3060 C   0  0  0  0  0  2  0  0  0  0  0  0
  194.3660  176.5310  145.0270 C   0  0  1  0  0  3  0  0  0  0  0  0
  189.6400  173.8410  144.9680 C   0  0  0  0  0  2  0  0  0  0  0  0
  193.5050  172.9770  140.0920 C   0  0  0  0  0  2  0  0  0  0  0  0
  190.8580  170.9110  141.6130 C   0  0  0  0  0  0  0  0  0  0  0  0
  191.7120  175.1500  144.6030 N   0  0  0  0  0  0  0  0  0  0  0  0
  195.9810  173.5910  142.4740 C   0  0  1  0  0  3  0  0  0  0  0  0
  196.0920  174.7740  143.8550 P   0  0  2  0  0  0  0  0  0  0  0  0
  197.9410  172.3660  141.9040 O   0  0  0  0  0  0  0  0  0  0  0  0
  196.7450  171.5200  143.7310 N   0  0  0  0  0  2  0  0  0  0  0  0
  196.9510  172.4700  142.6760 C   0  0  0  0  0  0  0  0  0  0  0  0
  197.5650  170.3300  143.9500 C   0  0  2  0  0  3  0  0  0  0  0  0
  197.0700  169.1740  143.0990 C   0  0  0  0  0  1  0  0  0  0  0  0
  197.5820  169.9360  145.4220 C   0  0  0  0  0  2  0  0  0  0  0  0
  196.4750  168.9350  145.7300 C   0  0  1  0  0  3  0  0  0  0  0  0
  195.7620  168.7240  147.5890 C   0  0  0  0  0  2  0  0  0  0  0  0
  196.8200  168.1660  146.8530 O   0  0  0  0  0  0  0  0  0  0  0  0
  195.3320  169.6010  146.4460 C   0  0  0  0  0  2  0  0  0  0  0  0
  189.8140  175.5710  143.0980 C   0  0  2  0  0  3  0  0  0  0  0  0
  190.8920  175.6000  142.2120 O   0  0  0  0  0  1  0  0  0  0  0  0
  189.1590  176.9450  143.1280 C   0  0  0  0  0  2  0  0  0  0  0  0
  187.6350  176.8390  143.1510 C   0  0  1  0  0  3  0  0  0  0  0  0
  185.0920  177.9800  146.4620 C   0  0  2  0  0  3  0  0  0  0  0  0
  187.0720  177.3370  144.4480 C   0  0  0  0  0  0  0  0  0  0  0  0
  184.3620  178.6700  147.5090 N   0  0  0  0  0  1  0  0  0  0  0  0
  186.5960  177.2270  147.1580 S   0  0  0  0  0  0  0  0  0  0  0  0
  186.3590  178.6300  144.4440 C   0  0  0  0  0  3  0  0  0  0  0  0
  187.1410  176.5950  145.5620 C   0  0  0  0  0  3  0  0  0  0  0  0
  185.4660  178.9520  145.3840 C   0  0  0  0  0  3  0  0  0  0  0  0
  185.6870  177.2490  141.6250 O   0  0  0  0  0  1  0  0  0  0  0  0
  187.6840  178.3180  141.2810 O   0  0  0  0  0  0  0  0  0  0  0  0
  187.0060  177.5160  141.9730 C   0  0  0  0  0  0  0  0  0  0  0  0
  1 19  1  0  0  0  0
  2 10  1  0  0  0  0
  3 22  1  6  0  0  0
  3 10  1  0  0  0  0
  3  8  1  0  0  0  0
  5 11  1  1  0  0  0
  5  2  1  0  0  0  0
  5 23  1  0  0  0  0
  6 37  1  6  0  0  0
  6 24  1  0  0  0  0
  6 21  1  0  0  0  0
  7 14  2  0  0  0  0
  7 21  1  0  0  0  0
  8 25  1  0  0  0  0
  9 15  1  0  0  0  0
 13 26  1  0  0  0  0
 13 20  1  0  0  0  0
 15 16  1  6  0  0  0
 17 16  1  0  0  0  0
 19  7  1  0  0  0  0
 20 12  1  1  0  0  0
 20 15  1  0  0  0  0
 22 11  1  0  0  0  0
 23  1  1  0  0  0  0
 23 18  2  0  0  0  0
 24  9  2  0  0  0  0
 25 29  1  1  0  0  0
 25 26  1  0  0  0  0
 26  4  2  1  0  0  0
 26 17  1  0  0  0  0
 27 29  2  0  0  0  0
 28 30  1  0  0  0  0
 29 28  1  0  0  0  0
 30 31  1  6  0  0  0
 30 32  1  0  0  0  0
 33 32  1  1  0  0  0
 33 36  1  0  0  0  0
 33 35  1  0  0  0  0
 35 34  1  0  0  0  0
 36 34  1  0  0  0  0
 37 38  1  6  0  0  0
 37 39  1  0  0  0  0
 40 39  1  1  0  0  0
 40 42  1  0  0  0  0
 41 44  1  0  0  0  0
 41 43  1  1  0  0  0
 42 46  2  0  0  0  0
 45 42  1  0  0  0  0
 45 47  2  0  0  0  0
 46 44  1  0  0  0  0
 47 41  1  0  0  0  0
 48 50  1  0  0  0  0
 49 50  2  0  0  0  0
 50 40  1  0  0  0  0
M  END
>  <MODEL>
3

>  <REMARK>
 VINA RESULT:      -7.5      1.649      2.151
  Name = 
  9 active torsions:
  status: ('A' for Active; 'I' for Inactive)
    1  A    between atoms: C_2  and  C_12
    2  A    between atoms: C_4  and  C_12
    3  A    between atoms: C_4  and  N_36
    4  A    between atoms: C_7  and  C_16
    5  A    between atoms: C_7  and  C_33
    6  A    between atoms: C_7  and  C_42
    7  A    between atoms: C_14  and  C_18
    8  A    between atoms: C_18  and  C_33
    9  A    between atoms: C_40  and  C_48
                            x       y       z     vdW  Elec       q    Type
                         _______ _______ _______ _____ _____    ______ ____

>  <TORSDO>
F 9

$$$$
=
 OpenBabel11062420543D

 50 54  0  0  1  0  0  0  0  0999 V2000
  192.7690  172.2290  140.9120 N   0  0  0  0  0  2  0  0  0  0  0  0
  189.1950  173.3600  140.2100 C   0  0  0  0  0  2  0  0  0  0  0  0
  188.7960  174.0340  142.4000 C   0  0  1  0  0  3  0  0  0  0  0  0
  188.5470  177.0280  146.6880 O   0  0  0  0  0  0  0  0  0  0  0  0
  190.2520  172.3040  140.5600 C   0  0  2  0  0  3  0  0  0  0  0  0
  194.4560  173.4470  144.5320 C   0  0  1  0  0  3  0  0  0  0  0  0
  194.0520  173.9250  142.0660 C   0  0  0  0  0  0  0  0  0  0  0  0
  189.5380  174.8400  143.4520 C   0  0  0  0  0  2  0  0  0  0  0  0
  193.6890  175.4910  145.4590 C   0  0  0  0  0  3  0  0  0  0  0  0
  189.2770  174.4280  141.1230 O   0  0  0  0  0  0  0  0  0  0  0  0
  190.1610  171.9350  142.0500 C   0  0  0  0  0  2  0  0  0  0  0  0
  191.5570  176.7330  148.0440 F   0  0  0  0  0  0  0  0  0  0  0  0
  190.4990  175.1320  146.6210 C   0  0  0  0  0  2  0  0  0  0  0  0
  193.2630  174.8560  142.0340 O   0  0  0  0  0  0  0  0  0  0  0  0
  192.6040  176.4150  145.9150 C   0  0  1  0  0  3  0  0  0  0  0  0
  191.7350  176.8480  144.7210 C   0  0  0  0  0  2  0  0  0  0  0  0
  190.5920  177.5480  145.1350 O   0  0  0  0  0  0  0  0  0  0  0  0
  191.8140  173.6930  139.3710 O   0  0  0  0  0  0  0  0  0  0  0  0
  194.0580  172.9050  140.9700 C   0  0  0  0  0  2  0  0  0  0  0  0
  191.8080  175.7800  147.0730 C   0  0  1  0  0  3  0  0  0  0  0  0
  195.0580  173.8310  143.1740 C   0  0  0  0  0  2  0  0  0  0  0  0
  188.9290  172.5320  142.7280 C   0  0  0  0  0  2  0  0  0  0  0  0
  191.6410  172.7980  140.2450 C   0  0  0  0  0  0  0  0  0  0  0  0
  193.4080  174.3470  144.9480 N   0  0  0  0  0  0  0  0  0  0  0  0
  188.5810  175.5920  144.3690 C   0  0  1  0  0  3  0  0  0  0  0  0
  189.5120  176.3730  145.7260 P   0  0  2  0  0  0  0  0  0  0  0  0
  188.4270  177.4650  142.9070 O   0  0  0  0  0  0  0  0  0  0  0  0
  186.3760  176.6640  143.7030 N   0  0  0  0  0  2  0  0  0  0  0  0
  187.8070  176.6270  143.6120 C   0  0  0  0  0  0  0  0  0  0  0  0
  185.5320  177.6930  143.0970 C   0  0  2  0  0  3  0  0  0  0  0  0
  185.5850  177.6060  141.5830 C   0  0  0  0  0  1  0  0  0  0  0  0
  185.9410  179.0850  143.5640 C   0  0  0  0  0  2  0  0  0  0  0  0
  184.9890  179.6020  144.6350 C   0  0  1  0  0  3  0  0  0  0  0  0
  184.4370  178.4440  146.1720 C   0  0  0  0  0  2  0  0  0  0  0  0
  183.9690  178.6640  144.8660 O   0  0  0  0  0  0  0  0  0  0  0  0
  185.5720  179.4160  146.0080 C   0  0  0  0  0  2  0  0  0  0  0  0
  193.9940  171.9870  144.5830 C   0  0  2  0  0  3  0  0  0  0  0  0
  192.6010  171.9090  144.6240 O   0  0  0  0  0  1  0  0  0  0  0  0
  194.5670  171.2830  145.8050 C   0  0  0  0  0  2  0  0  0  0  0  0
  195.3570  170.0360  145.4140 C   0  0  1  0  0  3  0  0  0  0  0  0
  193.0030  168.9390  141.9510 C   0  0  2  0  0  3  0  0  0  0  0  0
  194.8090  169.4110  144.1660 C   0  0  0  0  0  0  0  0  0  0  0  0
  192.1980  168.2710  140.9440 N   0  0  0  0  0  1  0  0  0  0  0  0
  194.7560  168.8930  141.4620 S   0  0  0  0  0  0  0  0  0  0  0  0
  193.6520  168.5020  144.2940 C   0  0  0  0  0  3  0  0  0  0  0  0
  195.3020  169.7290  142.9600 C   0  0  0  0  0  3  0  0  0  0  0  0
  192.8300  168.2510  143.2710 C   0  0  0  0  0  3  0  0  0  0  0  0
  197.2880  171.6040  145.0890 O   0  0  0  0  0  0  0  0  0  0  0  0
  197.6430  169.3590  145.3800 O   0  0  0  0  0  1  0  0  0  0  0  0
  196.8240  170.3110  145.3020 C   0  0  0  0  0  0  0  0  0  0  0  0
  1 19  1  0  0  0  0
  2 10  1  0  0  0  0
  3 22  1  1  0  0  0
  3  8  1  0  0  0  0
  5  2  1  1  0  0  0
  5 11  1  0  0  0  0
  6 37  1  6  0  0  0
  6 24  1  0  0  0  0
  7 21  1  0  0  0  0
  8 25  1  0  0  0  0
  9 15  1  0  0  0  0
 10  3  1  0  0  0  0
 11 22  1  0  0  0  0
 13 20  1  0  0  0  0
 14  7  2  0  0  0  0
 15 16  1  6  0  0  0
 15 20  1  0  0  0  0
 16 17  1  0  0  0  0
 17 26  1  0  0  0  0
 18 23  2  0  0  0  0
 19  7  1  0  0  0  0
 20 12  1  1  0  0  0
 21  6  1  0  0  0  0
 23  5  1  0  0  0  0
 23  1  1  0  0  0  0
 24  9  2  0  0  0  0
 25 29  1  6  0  0  0
 25 26  1  0  0  0  0
 26 13  1  0  0  0  0
 26  4  2  1  0  0  0
 27 29  2  0  0  0  0
 29 28  1  0  0  0  0
 30 31  1  6  0  0  0
 30 32  1  0  0  0  0
 30 28  1  0  0  0  0
 33 32  1  6  0  0  0
 33 35  1  0  0  0  0
 33 36  1  0  0  0  0
 35 34  1  0  0  0  0
 36 34  1  0  0  0  0
 37 38  1  1  0  0  0
 37 39  1  0  0  0  0
 40 39  1  6  0  0  0
 41 43  1  6  0  0  0
 41 47  1  0  0  0  0
 42 45  1  0  0  0  0
 42 40  1  0  0  0  0
 44 41  1  0  0  0  0
 44 46  1  0  0  0  0
 46 42  2  0  0  0  0
 47 45  2  0  0  0  0
 48 50  2  0  0  0  0
 50 49  1  0  0  0  0
 50 40  1  0  0  0  0
M  END
>  <MODEL>
4

>  <REMARK>
 VINA RESULT:      -7.3      3.433      9.249
  Name = 
  9 active torsions:
  status: ('A' for Active; 'I' for Inactive)
    1  A    between atoms: C_2  and  C_12
    2  A    between atoms: C_4  and  C_12
    3  A    between atoms: C_4  and  N_36
    4  A    between atoms: C_7  and  C_16
    5  A    between atoms: C_7  and  C_33
    6  A    between atoms: C_7  and  C_42
    7  A    between atoms: C_14  and  C_18
    8  A    between atoms: C_18  and  C_33
    9  A    between atoms: C_40  and  C_48
                            x       y       z     vdW  Elec       q    Type
                         _______ _______ _______ _____ _____    ______ ____

>  <TORSDO>
F 9

$$$$
=
 OpenBabel11062420543D

 50 54  0  0  1  0  0  0  0  0999 V2000
  193.2390  176.5170  145.3280 N   0  0  0  0  0  2  0  0  0  0  0  0
  195.5080  173.5440  144.5770 C   0  0  0  0  0  2  0  0  0  0  0  0
  193.7950  172.2410  143.6940 C   0  0  1  0  0  3  0  0  0  0  0  0
  190.4500  170.1300  140.2650 O   0  0  0  0  0  0  0  0  0  0  0  0
  194.6100  174.3820  145.4980 C   0  0  2  0  0  3  0  0  0  0  0  0
  189.4490  176.4870  143.5770 C   0  0  1  0  0  3  0  0  0  0  0  0
  191.9000  177.1490  143.4150 C   0  0  0  0  0  0  0  0  0  0  0  0
  192.6510  172.4500  142.7170 C   0  0  0  0  0  2  0  0  0  0  0  0
  189.2130  175.3480  141.5100 C   0  0  0  0  0  3  0  0  0  0  0  0
  194.7980  173.2050  143.4100 O   0  0  0  0  0  0  0  0  0  0  0  0
  193.2570  173.6800  145.7020 C   0  0  0  0  0  2  0  0  0  0  0  0
  187.9420  172.2930  140.1600 F   0  0  0  0  0  0  0  0  0  0  0  0
  189.4420  171.9760  141.9920 C   0  0  0  0  0  2  0  0  0  0  0  0
  192.3840  176.4230  142.5610 O   0  0  0  0  0  0  0  0  0  0  0  0
  189.3790  174.1480  140.6320 C   0  0  1  0  0  3  0  0  0  0  0  0
  190.8730  173.8530  140.4080 C   0  0  0  0  0  2  0  0  0  0  0  0
  191.0700  172.6240  139.7600 O   0  0  0  0  0  0  0  0  0  0  0  0
  195.2210  176.2640  144.1300 O   0  0  0  0  0  0  0  0  0  0  0  0
  192.7450  177.6430  144.5490 C   0  0  0  0  0  2  0  0  0  0  0  0
  188.5800  172.9550  141.1940 C   0  0  1  0  0  3  0  0  0  0  0  0
  190.4740  177.5960  143.3020 C   0  0  0  0  0  2  0  0  0  0  0  0
  193.2400  172.2630  145.1340 C   0  0  0  0  0  2  0  0  0  0  0  0
  194.3860  175.7610  144.9320 C   0  0  0  0  0  0  0  0  0  0  0  0
  189.6330  175.3380  142.7230 N   0  0  0  0  0  0  0  0  0  0  0  0
  192.3260  171.1760  141.9460 C   0  0  1  0  0  3  0  0  0  0  0  0
  190.8260  171.4270  140.9450 P   0  0  2  0  0  0  0  0  0  0  0  0
  193.7920  169.5520  141.0070 O   0  0  0  0  0  0  0  0  0  0  0  0
  194.1920  171.7550  140.3210 N   0  0  0  0  0  2  0  0  0  0  0  0
  193.4690  170.7670  141.0700 C   0  0  0  0  0  0  0  0  0  0  0  0
  195.3860  171.4830  139.5230 C   0  0  2  0  0  3  0  0  0  0  0  0
  196.6360  171.5700  140.3810 C   0  0  0  0  0  1  0  0  0  0  0  0
  195.4870  172.4380  138.3400 C   0  0  0  0  0  2  0  0  0  0  0  0
  196.3450  173.6480  138.6890 C   0  0  1  0  0  3  0  0  0  0  0  0
  196.4980  175.2010  137.4350 C   0  0  0  0  0  2  0  0  0  0  0  0
  197.1730  173.9800  137.6040 O   0  0  0  0  0  0  0  0  0  0  0  0
  195.5530  174.9210  138.5700 C   0  0  0  0  0  2  0  0  0  0  0  0
  189.3960  176.0840  145.0550 C   0  0  2  0  0  3  0  0  0  0  0  0
  189.9620  174.8230  145.2450 O   0  0  0  0  0  1  0  0  0  0  0  0
  187.9590  176.0650  145.5560 C   0  0  0  0  0  2  0  0  0  0  0  0
  187.4600  177.4720  145.8790 C   0  0  1  0  0  3  0  0  0  0  0  0
  184.7800  177.8990  142.5060 C   0  0  2  0  0  3  0  0  0  0  0  0
  186.4770  177.9530  144.8530 C   0  0  0  0  0  0  0  0  0  0  0  0
  184.0890  178.2960  141.2930 N   0  0  0  0  0  1  0  0  0  0  0  0
  183.9760  178.6660  143.9480 S   0  0  0  0  0  0  0  0  0  0  0  0
  186.9920  178.3270  143.5200 C   0  0  0  0  0  3  0  0  0  0  0  0
  185.1610  177.9660  145.1100 C   0  0  0  0  0  3  0  0  0  0  0  0
  186.2120  178.3370  142.4360 C   0  0  0  0  0  3  0  0  0  0  0  0
  187.0530  178.7370  148.0070 O   0  0  0  0  0  1  0  0  0  0  0  0
  186.3250  176.5770  147.7750 O   0  0  0  0  0  0  0  0  0  0  0  0
  186.9080  177.5690  147.2680 C   0  0  0  0  0  0  0  0  0  0  0  0
  3  8  1  6  0  0  0
  3 22  1  0  0  0  0
  5  2  1  6  0  0  0
  5 11  1  0  0  0  0
  6 37  1  1  0  0  0
  7 19  1  0  0  0  0
  9 24  2  0  0  0  0
 10  3  1  0  0  0  0
 10  2  1  0  0  0  0
 14  7  2  0  0  0  0
 15 16  1  1  0  0  0
 15 20  1  0  0  0  0
 15  9  1  0  0  0  0
 17 16  1  0  0  0  0
 17 26  1  0  0  0  0
 18 23  2  0  0  0  0
 19  1  1  0  0  0  0
 20 12  1  6  0  0  0
 20 13  1  0  0  0  0
 21  7  1  0  0  0  0
 21  6  1  0  0  0  0
 22 11  1  0  0  0  0
 23  1  1  0  0  0  0
 23  5  1  0  0  0  0
 24  6  1  0  0  0  0
 25 29  1  6  0  0  0
 25  8  1  0  0  0  0
 26  4  2  6  0  0  0
 26 25  1  0  0  0  0
 26 13  1  0  0  0  0
 27 29  2  0  0  0  0
 28 29  1  0  0  0  0
 30 28  1  0  0  0  0
 30 31  1  1  0  0  0
 32 30  1  0  0  0  0
 33 32  1  6  0  0  0
 34 35  1  0  0  0  0
 34 36  1  0  0  0  0
 35 33  1  0  0  0  0
 36 33  1  0  0  0  0
 37 38  1  6  0  0  0
 37 39  1  0  0  0  0
 40 39  1  6  0  0  0
 40 50  1  0  0  0  0
 41 43  1  6  0  0  0
 41 44  1  0  0  0  0
 42 46  2  0  0  0  0
 42 40  1  0  0  0  0
 44 46  1  0  0  0  0
 45 42  1  0  0  0  0
 47 41  1  0  0  0  0
 47 45  2  0  0  0  0
 50 49  2  0  0  0  0
 50 48  1  0  0  0  0
M  END
>  <MODEL>
5

>  <REMARK>
 VINA RESULT:      -7.0      3.056      5.580
  Name = 
  9 active torsions:
  status: ('A' for Active; 'I' for Inactive)
    1  A    between atoms: C_2  and  C_12
    2  A    between atoms: C_4  and  C_12
    3  A    between atoms: C_4  and  N_36
    4  A    between atoms: C_7  and  C_16
    5  A    between atoms: C_7  and  C_33
    6  A    between atoms: C_7  and  C_42
    7  A    between atoms: C_14  and  C_18
    8  A    between atoms: C_18  and  C_33
    9  A    between atoms: C_40  and  C_48
                            x       y       z     vdW  Elec       q    Type
                         _______ _______ _______ _____ _____    ______ ____

>  <TORSDO>
F 9

$$$$
=
 OpenBabel11062420543D

 50 54  0  0  1  0  0  0  0  0999 V2000
  195.6930  172.5280  143.6680 N   0  0  0  0  0  2  0  0  0  0  0  0
  195.0460  176.1970  144.4870 C   0  0  0  0  0  2  0  0  0  0  0  0
  193.0710  176.2990  143.2630 C   0  0  1  0  0  3  0  0  0  0  0  0
  187.9880  176.0190  142.0380 O   0  0  0  0  0  0  0  0  0  0  0  0
  195.6850  175.0710  143.6630 C   0  0  2  0  0  3  0  0  0  0  0  0
  192.5240  170.3780  142.0070 C   0  0  1  0  0  3  0  0  0  0  0  0
  193.7570  171.1420  144.0960 C   0  0  0  0  0  0  0  0  0  0  0  0
  191.8290  175.4370  143.1100 C   0  0  0  0  0  2  0  0  0  0  0  0
  190.3250  171.0630  142.5760 C   0  0  0  0  0  3  0  0  0  0  0  0
  193.6510  176.0160  144.5280 O   0  0  0  0  0  0  0  0  0  0  0  0
  194.9750  174.9380  142.3050 C   0  0  0  0  0  2  0  0  0  0  0  0
  187.5380  172.8400  141.2170 F   0  0  0  0  0  0  0  0  0  0  0  0
  189.5970  174.0430  141.0790 C   0  0  0  0  0  2  0  0  0  0  0  0
  193.0220  171.9540  144.6370 O   0  0  0  0  0  0  0  0  0  0  0  0
  189.2530  172.0980  142.7130 C   0  0  1  0  0  3  0  0  0  0  0  0
  189.6510  173.1400  143.7740 C   0  0  0  0  0  2  0  0  0  0  0  0
  188.7690  174.2310  143.7870 O   0  0  0  0  0  0  0  0  0  0  0  0
  195.5390  173.7330  145.6560 O   0  0  0  0  0  0  0  0  0  0  0  0
  195.2430  171.2640  144.2330 C   0  0  0  0  0  2  0  0  0  0  0  0
  188.9090  172.7030  141.3370 C   0  0  1  0  0  3  0  0  0  0  0  0
  193.1730  169.9860  143.3410 C   0  0  0  0  0  2  0  0  0  0  0  0
  193.9920  176.0780  142.0440 C   0  0  0  0  0  2  0  0  0  0  0  0
  195.6230  173.7560  144.3970 C   0  0  0  0  0  0  0  0  0  0  0  0
  191.4980  171.3820  142.1630 N   0  0  0  0  0  0  0  0  0  0  0  0
  190.5930  176.2750  142.8100 C   0  0  1  0  0  3  0  0  0  0  0  0
  189.1830  175.1830  142.4380 P   0  0  2  0  0  0  0  0  0  0  0  0
  190.4630  178.4140  143.8450 O   0  0  0  0  0  0  0  0  0  0  0  0
  189.7190  176.6310  145.1690 N   0  0  0  0  0  2  0  0  0  0  0  0
  190.2580  177.1770  143.9560 C   0  0  0  0  0  0  0  0  0  0  0  0
  189.4600  177.4020  146.3830 C   0  0  2  0  0  3  0  0  0  0  0  0
  190.4700  177.0590  147.4630 C   0  0  0  0  0  1  0  0  0  0  0  0
  188.0420  177.1700  146.8900 C   0  0  0  0  0  2  0  0  0  0  0  0
  187.0750  176.9690  145.7290 C   0  0  1  0  0  3  0  0  0  0  0  0
  185.2530  177.8000  145.7470 C   0  0  0  0  0  2  0  0  0  0  0  0
  185.8100  176.5980  146.2140 O   0  0  0  0  0  0  0  0  0  0  0  0
  186.5710  178.2900  145.2150 C   0  0  0  0  0  2  0  0  0  0  0  0
  193.5510  170.7870  140.9460 C   0  0  2  0  0  3  0  0  0  0  0  0
  193.5640  172.1720  140.7770 O   0  0  0  0  0  1  0  0  0  0  0  0
  193.2380  170.1270  139.6100 C   0  0  0  0  0  2  0  0  0  0  0  0
  191.7420  170.1640  139.3040 C   0  0  1  0  0  3  0  0  0  0  0  0
  190.8570  173.6170  136.8490 C   0  0  2  0  0  3  0  0  0  0  0  0
  191.4360  171.1120  138.1840 C   0  0  0  0  0  0  0  0  0  0  0  0
  190.2780  174.6030  135.9550 N   0  0  0  0  0  1  0  0  0  0  0  0
  192.0410  172.5800  135.9340 S   0  0  0  0  0  0  0  0  0  0  0  0
  190.0550  171.6200  138.0620 C   0  0  0  0  0  3  0  0  0  0  0  0
  192.4040  171.5510  137.3660 C   0  0  0  0  0  3  0  0  0  0  0  0
  189.7710  172.7570  137.4220 C   0  0  0  0  0  3  0  0  0  0  0  0
  191.3940  168.1690  137.8220 O   0  0  0  0  0  0  0  0  0  0  0  0
  190.5090  168.2230  139.9350 O   0  0  0  0  0  1  0  0  0  0  0  0
  191.1870  168.7970  139.0450 C   0  0  0  0  0  0  0  0  0  0  0  0
  1 19  1  0  0  0  0
  1 23  1  0  0  0  0
  2 10  1  0  0  0  0
  3 22  1  6  0  0  0
  3 10  1  0  0  0  0
  5 11  1  6  0  0  0
  5 23  1  0  0  0  0
  5  2  1  0  0  0  0
  6 37  1  6  0  0  0
  6 24  1  0  0  0  0
  6 21  1  0  0  0  0
  7 19  1  0  0  0  0
  7 14  2  0  0  0  0
  8  3  1  0  0  0  0
 13 20  1  0  0  0  0
 13 26  1  0  0  0  0
 15  9  1  6  0  0  0
 15 16  1  0  0  0  0
 16 17  1  0  0  0  0
 20 12  1  1  0  0  0
 20 15  1  0  0  0  0
 21  7  1  0  0  0  0
 22 11  1  0  0  0  0
 23 18  2  0  0  0  0
 24  9  2  0  0  0  0
 25  8  1  0  0  0  0
 25 29  1  1  0  0  0
 26  4  2  6  0  0  0
 26 25  1  0  0  0  0
 26 17  1  0  0  0  0
 27 29  2  0  0  0  0
 28 30  1  0  0  0  0
 29 28  1  0  0  0  0
 30 32  1  0  0  0  0
 30 31  1  1  0  0  0
 33 35  1  0  0  0  0
 33 32  1  1  0  0  0
 34 35  1  0  0  0  0
 36 33  1  0  0  0  0
 36 34  1  0  0  0  0
 37 38  1  6  0  0  0
 39 37  1  0  0  0  0
 40 39  1  6  0  0  0
 41 43  1  6  0  0  0
 41 47  1  0  0  0  0
 42 40  1  0  0  0  0
 44 41  1  0  0  0  0
 44 46  1  0  0  0  0
 45 42  1  0  0  0  0
 46 42  2  0  0  0  0
 47 45  2  0  0  0  0
 48 50  2  0  0  0  0
 50 40  1  0  0  0  0
 50 49  1  0  0  0  0
M  END
>  <MODEL>
6

>  <REMARK>
 VINA RESULT:      -7.0      3.660      8.862
  Name = 
  9 active torsions:
  status: ('A' for Active; 'I' for Inactive)
    1  A    between atoms: C_2  and  C_12
    2  A    between atoms: C_4  and  C_12
    3  A    between atoms: C_4  and  N_36
    4  A    between atoms: C_7  and  C_16
    5  A    between atoms: C_7  and  C_33
    6  A    between atoms: C_7  and  C_42
    7  A    between atoms: C_14  and  C_18
    8  A    between atoms: C_18  and  C_33
    9  A    between atoms: C_40  and  C_48
                            x       y       z     vdW  Elec       q    Type
                         _______ _______ _______ _____ _____    ______ ____

>  <TORSDO>
F 9

$$$$
=
 OpenBabel11062420543D

 50 54  0  0  1  0  0  0  0  0999 V2000
  192.3030  172.1190  140.7850 N   0  0  0  0  0  2  0  0  0  0  0  0
  188.7770  172.3160  142.2290 C   0  0  0  0  0  2  0  0  0  0  0  0
  189.4710  173.2480  144.2440 C   0  0  1  0  0  3  0  0  0  0  0  0
  190.7920  176.7960  147.8600 O   0  0  0  0  0  0  0  0  0  0  0  0
  190.0950  171.5880  141.9300 C   0  0  2  0  0  3  0  0  0  0  0  0
  195.2790  174.2650  142.7770 C   0  0  1  0  0  3  0  0  0  0  0  0
  193.4840  174.2220  140.9740 C   0  0  0  0  0  0  0  0  0  0  0  0
  190.4120  174.3600  144.6720 C   0  0  0  0  0  2  0  0  0  0  0  0
  194.6170  176.2210  143.9430 C   0  0  0  0  0  3  0  0  0  0  0  0
  189.0480  173.5150  142.9150 O   0  0  0  0  0  0  0  0  0  0  0  0
  190.9360  171.4650  143.2120 C   0  0  0  0  0  2  0  0  0  0  0  0
  193.9970  177.3910  147.2620 F   0  0  0  0  0  0  0  0  0  0  0  0
  192.8210  175.3830  146.7220 C   0  0  0  0  0  2  0  0  0  0  0  0
  192.5870  174.9410  141.3830 O   0  0  0  0  0  0  0  0  0  0  0  0
  193.7530  176.9520  144.9220 C   0  0  1  0  0  3  0  0  0  0  0  0
  192.2950  176.9790  144.4300 C   0  0  0  0  0  2  0  0  0  0  0  0
  191.4240  177.4770  145.4110 O   0  0  0  0  0  0  0  0  0  0  0  0
  190.3060  173.0610  140.0410 O   0  0  0  0  0  0  0  0  0  0  0  0
  193.1710  173.0570  140.0870 C   0  0  0  0  0  2  0  0  0  0  0  0
  193.9270  176.3650  146.3370 C   0  0  1  0  0  3  0  0  0  0  0  0
  194.9110  174.5350  141.3120 C   0  0  0  0  0  2  0  0  0  0  0  0
  190.1660  171.8870  144.4610 C   0  0  0  0  0  2  0  0  0  0  0  0
  190.8880  172.3100  140.8710 C   0  0  0  0  0  0  0  0  0  0  0  0
  194.4290  174.9740  143.7020 N   0  0  0  0  0  0  0  0  0  0  0  0
  189.9470  175.0320  145.9580 C   0  0  1  0  0  3  0  0  0  0  0  0
  191.2110  176.2120  146.5300 P   0  0  2  0  0  0  0  0  0  0  0  0
  187.8780  175.9030  146.7510 O   0  0  0  0  0  0  0  0  0  0  0  0
  188.2560  176.1910  144.4570 N   0  0  0  0  0  2  0  0  0  0  0  0
  188.6390  175.7320  145.7620 C   0  0  0  0  0  0  0  0  0  0  0  0
  186.9610  176.7860  144.1330 C   0  0  2  0  0  3  0  0  0  0  0  0
  186.4340  176.2400  142.8180 C   0  0  0  0  0  1  0  0  0  0  0  0
  187.0530  178.3060  144.0790 C   0  0  0  0  0  2  0  0  0  0  0  0
  186.0770  178.9460  145.0590 C   0  0  1  0  0  3  0  0  0  0  0  0
  184.0990  178.8220  144.7760 C   0  0  0  0  0  2  0  0  0  0  0  0
  185.1170  179.6970  144.3620 O   0  0  0  0  0  0  0  0  0  0  0  0
  185.0580  177.9460  145.5330 C   0  0  0  0  0  2  0  0  0  0  0  0
  195.3400  172.7690  143.1060 C   0  0  2  0  0  3  0  0  0  0  0  0
  195.7820  172.5670  144.4140 O   0  0  0  0  0  1  0  0  0  0  0  0
  196.2750  172.0450  142.1470 C   0  0  0  0  0  2  0  0  0  0  0  0
  195.7280  170.6720  141.7620 C   0  0  1  0  0  3  0  0  0  0  0  0
  194.9170  170.7120  137.5110 C   0  0  2  0  0  3  0  0  0  0  0  0
  195.7450  170.4730  140.2770 C   0  0  0  0  0  0  0  0  0  0  0  0
  194.6150  170.3910  136.1280 N   0  0  0  0  0  1  0  0  0  0  0  0
  196.7190  170.8490  137.7280 S   0  0  0  0  0  0  0  0  0  0  0  0
  194.7490  169.5560  139.6880 C   0  0  0  0  0  3  0  0  0  0  0  0
  196.5850  171.1680  139.4960 C   0  0  0  0  0  3  0  0  0  0  0  0
  194.3810  169.6350  138.4060 C   0  0  0  0  0  3  0  0  0  0  0  0
  195.7610  168.3920  142.8120 O   0  0  0  0  0  1  0  0  0  0  0  0
  197.6420  169.7020  142.8050 O   0  0  0  0  0  0  0  0  0  0  0  0
  196.4340  169.5630  142.4810 C   0  0  0  0  0  0  0  0  0  0  0  0
  1 23  1  0  0  0  0
  2 10  1  0  0  0  0
  3 22  1  6  0  0  0
  3  8  1  0  0  0  0
  5  2  1  1  0  0  0
  5 11  1  0  0  0  0
  6 37  1  1  0  0  0
  6 24  1  0  0  0  0
  7 21  1  0  0  0  0
  7 14  2  0  0  0  0
  8 25  1  0  0  0  0
 10  3  1  0  0  0  0
 11 22  1  0  0  0  0
 15  9  1  6  0  0  0
 15 20  1  0  0  0  0
 16 15  1  0  0  0  0
 16 17  1  0  0  0  0
 17 26  1  0  0  0  0
 18 23  2  0  0  0  0
 19  1  1  0  0  0  0
 19  7  1  0  0  0  0
 20 13  1  0  0  0  0
 20 12  1  1  0  0  0
 21  6  1  0  0  0  0
 23  5  1  0  0  0  0
 24  9  2  0  0  0  0
 25 29  1  6  0  0  0
 25 26  1  0  0  0  0
 26 13  1  0  0  0  0
 26  4  2  1  0  0  0
 28 29  1  0  0  0  0
 29 27  2  0  0  0  0
 30 31  1  6  0  0  0
 30 28  1  0  0  0  0
 32 30  1  0  0  0  0
 33 32  1  6  0  0  0
 33 36  1  0  0  0  0
 34 36  1  0  0  0  0
 35 34  1  0  0  0  0
 35 33  1  0  0  0  0
 37 38  1  1  0  0  0
 39 37  1  0  0  0  0
 40 39  1  6  0  0  0
 40 50  1  0  0  0  0
 41 43  1  6  0  0  0
 41 44  1  0  0  0  0
 41 47  1  0  0  0  0
 42 40  1  0  0  0  0
 44 46  1  0  0  0  0
 45 42  1  0  0  0  0
 46 42  2  0  0  0  0
 47 45  2  0  0  0  0
 50 49  2  0  0  0  0
 50 48  1  0  0  0  0
M  END
>  <MODEL>
7

>  <REMARK>
 VINA RESULT:      -7.0      3.477      9.344
  Name = 
  9 active torsions:
  status: ('A' for Active; 'I' for Inactive)
    1  A    between atoms: C_2  and  C_12
    2  A    between atoms: C_4  and  C_12
    3  A    between atoms: C_4  and  N_36
    4  A    between atoms: C_7  and  C_16
    5  A    between atoms: C_7  and  C_33
    6  A    between atoms: C_7  and  C_42
    7  A    between atoms: C_14  and  C_18
    8  A    between atoms: C_18  and  C_33
    9  A    between atoms: C_40  and  C_48
                            x       y       z     vdW  Elec       q    Type
                         _______ _______ _______ _____ _____    ______ ____

>  <TORSDO>
F 9

$$$$
=
 OpenBabel11062420543D

 50 54  0  0  1  0  0  0  0  0999 V2000
  194.2280  173.4320  144.9160 N   0  0  0  0  0  2  0  0  0  0  0  0
  192.6050  176.8000  145.6730 C   0  0  0  0  0  2  0  0  0  0  0  0
  191.2960  176.7950  143.7500 C   0  0  1  0  0  3  0  0  0  0  0  0
  187.2730  175.9600  140.5050 O   0  0  0  0  0  0  0  0  0  0  0  0
  193.7250  175.9180  145.1040 C   0  0  2  0  0  3  0  0  0  0  0  0
  192.4610  171.1170  141.9250 C   0  0  1  0  0  3  0  0  0  0  0  0
  192.5920  171.7290  144.3910 C   0  0  0  0  0  0  0  0  0  0  0  0
  190.4110  175.7930  143.0280 C   0  0  0  0  0  2  0  0  0  0  0  0
  190.1290  171.3770  141.5800 C   0  0  0  0  0  3  0  0  0  0  0  0
  191.3720  176.4120  145.1160 O   0  0  0  0  0  0  0  0  0  0  0  0
  193.6500  175.8890  143.5680 C   0  0  0  0  0  2  0  0  0  0  0  0
  187.8160  172.9100  139.3280 F   0  0  0  0  0  0  0  0  0  0  0  0
  189.4830  174.4100  140.1520 C   0  0  0  0  0  2  0  0  0  0  0  0
  191.5600  172.3330  144.6380 O   0  0  0  0  0  0  0  0  0  0  0  0
  188.9100  172.2110  141.3390 C   0  0  1  0  0  3  0  0  0  0  0  0
  188.6430  173.1280  142.5460 C   0  0  0  0  0  2  0  0  0  0  0  0
  187.6330  174.0630  142.2760 O   0  0  0  0  0  0  0  0  0  0  0  0
  193.0680  174.2880  146.7460 O   0  0  0  0  0  0  0  0  0  0  0  0
  193.8480  172.0450  145.1420 C   0  0  0  0  0  2  0  0  0  0  0  0
  189.0270  172.9600  139.9950 C   0  0  1  0  0  3  0  0  0  0  0  0
  192.5930  170.6270  143.3730 C   0  0  0  0  0  2  0  0  0  0  0  0
  192.6480  176.8980  143.0120 C   0  0  0  0  0  2  0  0  0  0  0  0
  193.6370  174.5130  145.6420 C   0  0  0  0  0  0  0  0  0  0  0  0
  191.2820  171.9240  141.7180 N   0  0  0  0  0  0  0  0  0  0  0  0
  189.2560  176.4760  142.3070 C   0  0  1  0  0  3  0  0  0  0  0  0
  188.3510  175.2580  141.2990 P   0  0  2  0  0  0  0  0  0  0  0  0
  187.8910  178.2910  143.0240 O   0  0  0  0  0  0  0  0  0  0  0  0
  187.9450  176.4600  144.4840 N   0  0  0  0  0  2  0  0  0  0  0  0
  188.3250  177.1360  143.2760 C   0  0  0  0  0  0  0  0  0  0  0  0
  187.1340  177.0510  145.5460 C   0  0  2  0  0  3  0  0  0  0  0  0
  187.4590  176.4160  146.8860 C   0  0  0  0  0  1  0  0  0  0  0  0
  185.6470  176.9180  145.2420 C   0  0  0  0  0  2  0  0  0  0  0  0
  184.9180  178.2300  145.5020 C   0  0  1  0  0  3  0  0  0  0  0  0
  185.1370  179.7950  144.2720 C   0  0  0  0  0  2  0  0  0  0  0  0
  185.8140  179.3070  145.4020 O   0  0  0  0  0  0  0  0  0  0  0  0
  184.1450  178.6660  144.2880 C   0  0  0  0  0  2  0  0  0  0  0  0
  193.7220  171.8280  141.4230 C   0  0  2  0  0  3  0  0  0  0  0  0
  193.6270  173.2050  141.6220 O   0  0  0  0  0  1  0  0  0  0  0  0
  193.9410  171.5530  139.9410 C   0  0  0  0  0  2  0  0  0  0  0  0
  193.6190  172.7810  139.0910 C   0  0  1  0  0  3  0  0  0  0  0  0
  196.2920  174.0230  135.9220 C   0  0  2  0  0  3  0  0  0  0  0  0
  194.7960  173.1930  138.2590 C   0  0  0  0  0  0  0  0  0  0  0  0
  197.3410  174.1470  134.9260 N   0  0  0  0  0  1  0  0  0  0  0  0
  196.7690  174.9260  137.4280 S   0  0  0  0  0  0  0  0  0  0  0  0
  195.3560  172.2090  137.3120 C   0  0  0  0  0  3  0  0  0  0  0  0
  195.2760  174.4450  138.3130 C   0  0  0  0  0  3  0  0  0  0  0  0
  196.0750  172.5770  136.2480 C   0  0  0  0  0  3  0  0  0  0  0  0
  191.8770  173.6240  137.4950 O   0  0  0  0  0  0  0  0  0  0  0  0
  191.8060  171.4680  138.2680 O   0  0  0  0  0  1  0  0  0  0  0  0
  192.3900  172.5830  138.2590 C   0  0  0  0  0  0  0  0  0  0  0  0
  1 19  1  0  0  0  0
  1 23  1  0  0  0  0
  3 22  1  6  0  0  0
  3 10  1  0  0  0  0
  5 11  1  6  0  0  0
  5 23  1  0  0  0  0
  5  2  1  0  0  0  0
  6 37  1  1  0  0  0
  6 21  1  0  0  0  0
  7 14  2  0  0  0  0
  7 19  1  0  0  0  0
  8  3  1  0  0  0  0
  9 24  2  0  0  0  0
 10  2  1  0  0  0  0
 13 26  1  0  0  0  0
 15  9  1  1  0  0  0
 15 16  1  0  0  0  0
 17 16  1  0  0  0  0
 20 12  1  1  0  0  0
 20 13  1  0  0  0  0
 20 15  1  0  0  0  0
 21  7  1  0  0  0  0
 22 11  1  0  0  0  0
 23 18  2  0  0  0  0
 24  6  1  0  0  0  0
 25  8  1  0  0  0  0
 25 29  1  1  0  0  0
 26  4  2  6  0  0  0
 26 17  1  0  0  0  0
 26 25  1  0  0  0  0
 27 29  2  0  0  0  0
 28 30  1  0  0  0  0
 29 28  1  0  0  0  0
 30 31  1  1  0  0  0
 32 30  1  0  0  0  0
 33 32  1  6  0  0  0
 34 36  1  0  0  0  0
 34 35  1  0  0  0  0
 35 33  1  0  0  0  0
 36 33  1  0  0  0  0
 37 38  1  6  0  0  0
 39 37  1  0  0  0  0
 40 39  1  6  0  0  0
 41 43  1  6  0  0  0
 41 47  1  0  0  0  0
 41 44  1  0  0  0  0
 42 46  2  0  0  0  0
 42 40  1  0  0  0  0
 44 46  1  0  0  0  0
 45 42  1  0  0  0  0
 47 45  2  0  0  0  0
 48 50  2  0  0  0  0
 50 49  1  0  0  0  0
 50 40  1  0  0  0  0
M  END
>  <MODEL>
8

>  <REMARK>
 VINA RESULT:      -6.9      3.835      9.638
  Name = 
  9 active torsions:
  status: ('A' for Active; 'I' for Inactive)
    1  A    between atoms: C_2  and  C_12
    2  A    between atoms: C_4  and  C_12
    3  A    between atoms: C_4  and  N_36
    4  A    between atoms: C_7  and  C_16
    5  A    between atoms: C_7  and  C_33
    6  A    between atoms: C_7  and  C_42
    7  A    between atoms: C_14  and  C_18
    8  A    between atoms: C_18  and  C_33
    9  A    between atoms: C_40  and  C_48
                            x       y       z     vdW  Elec       q    Type
                         _______ _______ _______ _____ _____    ______ ____

>  <TORSDO>
F 9

$$$$
=
 OpenBabel11062420543D

 50 54  0  0  1  0  0  0  0  0999 V2000
  192.6000  172.3480  140.5040 N   0  0  0  0  0  2  0  0  0  0  0  0
  189.1300  172.2450  142.0850 C   0  0  0  0  0  2  0  0  0  0  0  0
  189.8530  173.0730  144.1360 C   0  0  1  0  0  3  0  0  0  0  0  0
  191.1260  176.4320  147.9440 O   0  0  0  0  0  0  0  0  0  0  0  0
  190.4720  171.6150  141.6880 C   0  0  2  0  0  3  0  0  0  0  0  0
  195.5350  174.5140  142.5350 C   0  0  1  0  0  3  0  0  0  0  0  0
  193.6740  174.4950  140.8000 C   0  0  0  0  0  0  0  0  0  0  0  0
  190.7500  174.2050  144.6070 C   0  0  0  0  0  2  0  0  0  0  0  0
  194.8160  176.3450  143.8600 C   0  0  0  0  0  3  0  0  0  0  0  0
  189.3640  173.4070  142.8450 O   0  0  0  0  0  0  0  0  0  0  0  0
  191.3690  171.4510  142.9260 C   0  0  0  0  0  2  0  0  0  0  0  0
  194.2680  177.2460  147.2740 F   0  0  0  0  0  0  0  0  0  0  0  0
  193.1800  175.2180  146.6360 C   0  0  0  0  0  2  0  0  0  0  0  0
  192.7560  175.1330  141.2910 O   0  0  0  0  0  0  0  0  0  0  0  0
  193.9540  176.9570  144.9190 C   0  0  1  0  0  3  0  0  0  0  0  0
  192.4780  176.9360  144.4830 C   0  0  0  0  0  2  0  0  0  0  0  0
  191.6210  177.3150  145.5280 O   0  0  0  0  0  0  0  0  0  0  0  0
  190.5270  173.2240  139.9020 O   0  0  0  0  0  0  0  0  0  0  0  0
  193.3880  173.3790  139.8440 C   0  0  0  0  0  2  0  0  0  0  0  0
  194.2160  176.2840  146.2820 C   0  0  1  0  0  3  0  0  0  0  0  0
  195.0950  174.8640  141.1070 C   0  0  0  0  0  2  0  0  0  0  0  0
  190.6280  171.7420  144.2300 C   0  0  0  0  0  2  0  0  0  0  0  0
  191.1820  172.4520  140.6550 C   0  0  0  0  0  0  0  0  0  0  0  0
  194.6850  175.1100  143.5380 N   0  0  0  0  0  0  0  0  0  0  0  0
  190.3010  174.7590  145.9540 C   0  0  1  0  0  3  0  0  0  0  0  0
  191.5220  175.9660  146.5620 P   0  0  2  0  0  0  0  0  0  0  0  0
  188.1910  175.3870  146.8600 O   0  0  0  0  0  0  0  0  0  0  0  0
  188.5260  175.9980  144.6240 N   0  0  0  0  0  2  0  0  0  0  0  0
  188.9500  175.3960  145.8550 C   0  0  0  0  0  0  0  0  0  0  0  0
  187.1940  176.5490  144.3850 C   0  0  2  0  0  3  0  0  0  0  0  0
  186.8610  176.5240  142.9040 C   0  0  0  0  0  1  0  0  0  0  0  0
  187.0790  177.9680  144.9300 C   0  0  0  0  0  2  0  0  0  0  0  0
  185.6190  178.3720  145.0930 C   0  0  1  0  0  3  0  0  0  0  0  0
  184.7170  178.2860  146.8790 C   0  0  0  0  0  2  0  0  0  0  0  0
  184.9260  177.3890  145.8180 O   0  0  0  0  0  0  0  0  0  0  0  0
  185.4630  179.3930  146.1860 C   0  0  0  0  0  2  0  0  0  0  0  0
  195.6890  173.0060  142.7540 C   0  0  2  0  0  3  0  0  0  0  0  0
  194.8080  172.5560  143.7380 O   0  0  0  0  0  1  0  0  0  0  0  0
  197.1140  172.6640  143.1680 C   0  0  0  0  0  2  0  0  0  0  0  0
  197.4360  171.1950  142.9030 C   0  0  1  0  0  3  0  0  0  0  0  0
  195.2670  169.5010  146.2430 C   0  0  2  0  0  3  0  0  0  0  0  0
  196.8830  170.3110  143.9800 C   0  0  0  0  0  0  0  0  0  0  0  0
  194.8480  168.8960  147.4950 N   0  0  0  0  0  1  0  0  0  0  0  0
  195.3710  168.2240  144.9500 S   0  0  0  0  0  0  0  0  0  0  0  0
  197.3270  170.5460  145.3680 C   0  0  0  0  0  3  0  0  0  0  0  0
  195.9500  169.3870  143.7040 C   0  0  0  0  0  3  0  0  0  0  0  0
  196.6070  170.1490  146.4210 C   0  0  0  0  0  3  0  0  0  0  0  0
  195.6450  170.7490  141.2030 O   0  0  0  0  0  1  0  0  0  0  0  0
  197.8510  170.3760  140.7020 O   0  0  0  0  0  0  0  0  0  0  0  0
  196.9940  170.7580  141.5410 C   0  0  0  0  0  0  0  0  0  0  0  0
  1 23  1  0  0  0  0
  2 10  1  0  0  0  0
  3 22  1  6  0  0  0
  3  8  1  0  0  0  0
  5  2  1  1  0  0  0
  5 11  1  0  0  0  0
  6 37  1  6  0  0  0
  6 24  1  0  0  0  0
  7 21  1  0  0  0  0
  7 14  2  0  0  0  0
  8 25  1  0  0  0  0
 10  3  1  0  0  0  0
 11 22  1  0  0  0  0
 15  9  1  6  0  0  0
 15 20  1  0  0  0  0
 16 15  1  0  0  0  0
 16 17  1  0  0  0  0
 17 26  1  0  0  0  0
 18 23  2  0  0  0  0
 19  1  1  0  0  0  0
 19  7  1  0  0  0  0
 20 13  1  0  0  0  0
 20 12  1  1  0  0  0
 21  6  1  0  0  0  0
 23  5  1  0  0  0  0
 24  9  2  0  0  0  0
 25 29  1  6  0  0  0
 25 26  1  0  0  0  0
 26 13  1  0  0  0  0
 26  4  2  1  0  0  0
 28 29  1  0  0  0  0
 29 27  2  0  0  0  0
 30 31  1  6  0  0  0
 30 28  1  0  0  0  0
 30 32  1  0  0  0  0
 33 32  1  1  0  0  0
 33 35  1  0  0  0  0
 33 36  1  0  0  0  0
 35 34  1  0  0  0  0
 36 34  1  0  0  0  0
 37 39  1  0  0  0  0
 37 38  1  1  0  0  0
 40 39  1  1  0  0  0
 40 42  1  0  0  0  0
 41 47  1  0  0  0  0
 41 43  1  1  0  0  0
 42 45  1  0  0  0  0
 44 41  1  0  0  0  0
 45 47  2  0  0  0  0
 46 42  2  0  0  0  0
 46 44  1  0  0  0  0
 48 50  1  0  0  0  0
 49 50  2  0  0  0  0
 50 40  1  0  0  0  0
M  END
>  <MODEL>
9

>  <REMARK>
 VINA RESULT:      -6.9      3.257      8.929
  Name = 
  9 active torsions:
  status: ('A' for Active; 'I' for Inactive)
    1  A    between atoms: C_2  and  C_12
    2  A    between atoms: C_4  and  C_12
    3  A    between atoms: C_4  and  N_36
    4  A    between atoms: C_7  and  C_16
    5  A    between atoms: C_7  and  C_33
    6  A    between atoms: C_7  and  C_42
    7  A    between atoms: C_14  and  C_18
    8  A    between atoms: C_18  and  C_33
    9  A    between atoms: C_40  and  C_48
                            x       y       z     vdW  Elec       q    Type
                         _______ _______ _______ _____ _____    ______ ____

>  <TORSDO>
F 9

$$$$
