=
 OpenBabel11062418153D

 49 53  0  0  1  0  0  0  0  0999 V2000
  191.9390  174.3630  142.9330 C   0  0  1  0  0  3  0  0  0  0  0  0
  189.3230  171.7370  144.5060 O   0  0  0  0  0  0  0  0  0  0  0  0
  193.8490  172.5420  144.0080 C   0  0  0  0  0  0  0  0  0  0  0  0
  188.8730  173.5690  142.5610 C   0  0  2  0  0  3  0  0  0  0  0  0
  192.4530  172.5430  144.5840 C   0  0  0  0  0  2  0  0  0  0  0  0
  193.2640  174.2140  142.1730 C   0  0  0  0  0  2  0  0  0  0  0  0
  190.8980  175.1020  142.0760 C   0  0  0  0  0  2  0  0  0  0  0  0
  189.6170  174.0990  145.1350 O   0  0  0  0  0  0  0  0  0  0  0  0
  194.7910  172.2010  144.7110 O   0  0  0  0  0  0  0  0  0  0  0  0
  189.7800  173.0870  144.0350 S   0  0  0  0  0  0  0  0  0  0  0  0
  194.0600  172.9500  142.5580 C   0  0  1  0  0  3  0  0  0  0  0  0
  189.7910  174.2100  141.4940 C   0  0  1  0  0  3  0  0  0  0  0  0
  191.4760  173.0220  143.5170 C   0  0  1  0  0  3  0  0  0  0  0  0
  191.4060  172.8020  138.3380 C   0  0  0  0  0  3  0  0  0  0  0  0
  191.0520  171.4540  138.4370 C   0  0  0  0  0  3  0  0  0  0  0  0
  190.3390  170.9990  139.5510 C   0  0  0  0  0  3  0  0  0  0  0  0
  190.3130  173.2510  140.4560 C   0  0  0  0  0  0  0  0  0  0  0  0
  191.0380  173.6970  139.3410 C   0  0  0  0  0  3  0  0  0  0  0  0
  189.9650  171.8970  140.5520 C   0  0  0  0  0  3  0  0  0  0  0  0
  187.7250  174.4630  142.9120 C   0  0  0  0  0  3  0  0  0  0  0  0
  187.5600  175.6330  142.2940 C   0  0  0  0  0  3  0  0  0  0  0  0
  186.3100  178.4740  141.5480 C   0  0  0  0  0  2  0  0  0  0  0  0
  186.3900  176.5070  142.6250 C   0  0  1  0  0  3  0  0  0  0  0  0
  186.5190  177.5780  143.7550 C   0  0  2  0  0  0  0  0  0  0  0  0
  185.9210  177.1260  141.4530 O   0  0  0  0  0  0  0  0  0  0  0  0
  186.2760  178.8720  143.0040 C   0  0  0  0  0  2  0  0  0  0  0  0
  188.3030  176.7320  145.2760 O   0  0  0  0  0  0  0  0  0  0  0  0
  187.9120  177.7860  144.4200 C   0  0  2  0  0  3  0  0  0  0  0  0
  187.8240  177.8910  145.9100 C   0  0  0  0  0  2  0  0  0  0  0  0
  185.5350  177.3920  144.7740 O   0  0  0  0  0  0  0  0  0  0  0  0
  184.4360  178.2540  144.5870 C   0  0  0  0  0  2  0  0  0  0  0  0
  184.4020  178.0720  146.7880 C   0  0  0  0  0  1  0  0  0  0  0  0
  184.2240  178.9940  145.7540 O   0  0  0  0  0  0  0  0  0  0  0  0
  195.5270  172.9800  142.0900 C   0  0  1  0  0  3  0  0  0  0  0  0
  194.9700  171.6280  138.7240 O   0  0  0  0  0  0  0  0  0  0  0  0
  195.7250  172.1830  140.8780 N   0  0  0  0  0  0  0  0  0  0  0  0
  194.8760  172.3700  139.7350 C   0  0  0  0  0  3  0  0  0  0  0  0
  197.1720  170.9130  142.2200 O   0  0  0  0  0  1  0  0  0  0  0  0
  197.9370  171.5300  140.0380 C   0  0  0  0  0  1  0  0  0  0  0  0
  196.7530  171.1440  140.9070 C   0  0  2  0  0  3  0  0  0  0  0  0
  196.8050  174.6770  140.8580 O   0  0  0  0  0  1  0  0  0  0  0  0
  196.2560  174.3530  142.1010 C   0  0  2  0  0  3  0  0  0  0  0  0
  197.3080  174.5370  143.1840 C   0  0  0  0  0  2  0  0  0  0  0  0
  196.7340  175.1140  144.3280 O   0  0  0  0  0  0  0  0  0  0  0  0
  195.9360  176.2080  143.9190 C   0  0  2  0  0  3  0  0  0  0  0  0
  196.7050  177.2880  143.5180 F   0  0  0  0  0  0  0  0  0  0  0  0
  194.9200  176.6160  144.9820 C   0  0  0  0  0  2  0  0  0  0  0  0
  193.3460  175.6920  146.4240 C   0  0  0  0  0  1  0  0  0  0  0  0
  194.6790  175.5100  145.8870 N   0  0  0  0  0  2  0  0  0  0  0  0
  1  7  1  6  0  0  0
  1 13  1  0  0  0  0
  3  5  1  0  0  0  0
  3  9  2  0  0  0  0
  4 20  1  1  0  0  0
  4 10  1  0  0  0  0
  6 11  1  0  0  0  0
  6  1  1  0  0  0  0
 10  2  2  0  0  0  0
 10  8  2  0  0  0  0
 11 34  1  1  0  0  0
 11  3  1  0  0  0  0
 12 17  1  1  0  0  0
 12  7  1  0  0  0  0
 12  4  1  0  0  0  0
 13 10  1  0  0  0  0
 13  5  1  1  0  0  0
 14 15  2  0  0  0  0
 14 18  1  0  0  0  0
 15 16  1  0  0  0  0
 16 19  2  0  0  0  0
 17 19  1  0  0  0  0
 18 17  2  0  0  0  0
 21 20  2  0  0  0  0
 22 26  1  0  0  0  0
 23 21  1  6  0  0  0
 23 24  1  0  0  0  0
 24 28  1  0  0  0  0
 24 30  1  1  0  0  0
 25 22  1  0  0  0  0
 25 23  1  0  0  0  0
 26 24  1  0  0  0  0
 27 29  1  0  0  0  0
 28 27  1  0  0  0  0
 28 29  1  1  0  0  0
 31 30  1  0  0  0  0
 31 33  1  0  0  0  0
 33 32  1  0  0  0  0
 34 36  1  6  0  0  0
 34 42  1  0  0  0  0
 35 37  2  0  0  0  0
 36 40  1  0  0  0  0
 37 36  1  0  0  0  0
 40 39  1  6  0  0  0
 40 38  1  0  0  0  0
 42 41  1  6  0  0  0
 42 43  1  0  0  0  0
 43 44  1  0  0  0  0
 45 46  1  1  0  0  0
 45 44  1  0  0  0  0
 45 47  1  0  0  0  0
 47 49  1  0  0  0  0
 49 48  1  0  0  0  0
M  END
>  <MODEL>
1

>  <REMARK>
 VINA RESULT:      -5.7      0.000      0.000
  Name = 
  16 active torsions:
  status: ('A' for Active; 'I' for Inactive)
    1  A    between atoms: C_6  and  C_36
    2  A    between atoms: C_6  and  O_40
    3  A    between atoms: N_10  and  C_20
    4  A    between atoms: N_10  and  C_21
    5  A    between atoms: C_11  and  C_12
    6  A    between atoms: C_15  and  C_47
    7  A    between atoms: C_16  and  C_42
    8  A    between atoms: C_20  and  C_24
    9  A    between atoms: C_20  and  C_45
   10  A    between atoms: N_23  and  C_36
   11  A    between atoms: C_24  and  C_46
   12  A    between atoms: C_27  and  O_31
   13  A    between atoms: C_27  and  C_34
   14  A    between atoms: O_31  and  C_48
   15  A    between atoms: O_40  and  C_46
   16  A    between atoms: O_44  and  C_48
                            x       y       z     vdW  Elec       q    Type
                         _______ _______ _______ _____ _____    ______ ____

>  <TORSDO>
F 16

$$$$
=
 OpenBabel11062418153D

 49 53  0  0  1  0  0  0  0  0999 V2000
  191.7230  174.7670  143.6310 C   0  0  1  0  0  3  0  0  0  0  0  0
  195.1160  176.1630  141.9710 O   0  0  0  0  0  0  0  0  0  0  0  0
  190.9060  177.4840  143.3530 C   0  0  0  0  0  0  0  0  0  0  0  0
  194.2490  173.5980  142.0760 C   0  0  2  0  0  3  0  0  0  0  0  0
  192.3840  177.1760  143.3730 C   0  0  0  0  0  2  0  0  0  0  0  0
  190.2310  175.0250  143.3710 C   0  0  0  0  0  2  0  0  0  0  0  0
  192.0650  173.2840  143.4250 C   0  0  0  0  0  2  0  0  0  0  0  0
  194.8530  175.1850  144.2150 O   0  0  0  0  0  0  0  0  0  0  0  0
  190.5120  178.5750  143.7440 O   0  0  0  0  0  0  0  0  0  0  0  0
  194.2970  175.2330  142.8190 S   0  0  0  0  0  0  0  0  0  0  0  0
  189.9310  176.4390  142.8340 C   0  0  1  0  0  3  0  0  0  0  0  0
  192.8360  172.9720  142.1330 C   0  0  1  0  0  3  0  0  0  0  0  0
  192.6030  175.7580  142.8570 C   0  0  1  0  0  3  0  0  0  0  0  0
  189.9760  172.8320  139.6110 C   0  0  0  0  0  3  0  0  0  0  0  0
  190.5760  173.4260  138.4970 C   0  0  0  0  0  3  0  0  0  0  0  0
  191.8830  173.9150  138.5840 C   0  0  0  0  0  3  0  0  0  0  0  0
  191.9990  173.1940  140.8990 C   0  0  0  0  0  0  0  0  0  0  0  0
  190.6840  172.7160  140.8060 C   0  0  0  0  0  3  0  0  0  0  0  0
  192.5940  173.7920  139.7790 C   0  0  0  0  0  3  0  0  0  0  0  0
  195.2760  172.7020  142.6940 C   0  0  0  0  0  3  0  0  0  0  0  0
  195.4010  171.4350  142.2970 C   0  0  0  0  0  3  0  0  0  0  0  0
  196.9200  168.6820  141.7510 C   0  0  0  0  0  2  0  0  0  0  0  0
  196.4530  170.5540  142.8960 C   0  0  1  0  0  3  0  0  0  0  0  0
  196.0360  169.3930  143.8560 C   0  0  2  0  0  0  0  0  0  0  0  0
  197.2700  170.0380  141.8740 O   0  0  0  0  0  0  0  0  0  0  0  0
  196.5380  168.1670  143.1180 C   0  0  0  0  0  2  0  0  0  0  0  0
  193.8950  169.9690  144.9950 O   0  0  0  0  0  0  0  0  0  0  0  0
  194.5170  169.1130  144.0590 C   0  0  2  0  0  3  0  0  0  0  0  0
  194.2000  168.6760  145.4540 C   0  0  0  0  0  2  0  0  0  0  0  0
  196.6680  169.5090  145.1310 O   0  0  0  0  0  0  0  0  0  0  0  0
  197.3360  170.7430  145.2600 C   0  0  0  0  0  2  0  0  0  0  0  0
  196.8640  172.7660  146.0110 C   0  0  0  0  0  1  0  0  0  0  0  0
  196.8490  171.4200  146.3820 O   0  0  0  0  0  0  0  0  0  0  0  0
  188.4430  176.8260  142.9210 C   0  0  1  0  0  3  0  0  0  0  0  0
  187.4600  175.6450  139.5880 O   0  0  0  0  0  0  0  0  0  0  0  0
  187.7980  176.7980  141.6070 N   0  0  0  0  0  0  0  0  0  0  0  0
  187.9250  175.6470  140.7560 C   0  0  0  0  0  3  0  0  0  0  0  0
  187.1530  178.9860  142.1570 O   0  0  0  0  0  1  0  0  0  0  0  0
  185.6570  177.6950  140.8080 C   0  0  0  0  0  1  0  0  0  0  0  0
  187.1010  178.0040  141.1640 C   0  0  2  0  0  3  0  0  0  0  0  0
  186.2370  176.2040  143.8030 O   0  0  0  0  0  1  0  0  0  0  0  0
  187.6070  176.2090  144.0770 C   0  0  2  0  0  3  0  0  0  0  0  0
  187.8460  176.8010  145.4580 C   0  0  0  0  0  2  0  0  0  0  0  0
  187.7510  175.8010  146.4400 O   0  0  0  0  0  0  0  0  0  0  0  0
  189.0600  175.3870  146.7780 C   0  0  2  0  0  3  0  0  0  0  0  0
  189.0720  174.5740  147.9000 F   0  0  0  0  0  0  0  0  0  0  0  0
  190.0190  176.5640  146.9370 C   0  0  0  0  0  2  0  0  0  0  0  0
  192.3100  176.1620  146.9620 C   0  0  0  0  0  1  0  0  0  0  0  0
  191.1260  176.1890  147.7950 N   0  0  0  0  0  2  0  0  0  0  0  0
  1  6  1  6  0  0  0
  2 10  2  0  0  0  0
  3  5  1  0  0  0  0
  3  9  2  0  0  0  0
  4 12  1  0  0  0  0
  4 20  1  1  0  0  0
  4 10  1  0  0  0  0
  7  1  1  0  0  0  0
 10 13  1  0  0  0  0
 10  8  2  0  0  0  0
 11 34  1  1  0  0  0
 11  3  1  0  0  0  0
 11  6  1  0  0  0  0
 12 17  1  6  0  0  0
 12  7  1  0  0  0  0
 13  5  1  1  0  0  0
 13  1  1  0  0  0  0
 14 18  1  0  0  0  0
 15 16  1  0  0  0  0
 15 14  2  0  0  0  0
 16 19  2  0  0  0  0
 18 17  2  0  0  0  0
 19 17  1  0  0  0  0
 21 20  2  0  0  0  0
 22 25  1  0  0  0  0
 22 26  1  0  0  0  0
 23 21  1  6  0  0  0
 23 24  1  0  0  0  0
 24 28  1  0  0  0  0
 24 30  1  1  0  0  0
 25 23  1  0  0  0  0
 26 24  1  0  0  0  0
 27 29  1  0  0  0  0
 28 27  1  0  0  0  0
 28 29  1  1  0  0  0
 30 31  1  0  0  0  0
 31 33  1  0  0  0  0
 32 33  1  0  0  0  0
 34 36  1  6  0  0  0
 34 42  1  0  0  0  0
 35 37  2  0  0  0  0
 37 36  1  0  0  0  0
 40 39  1  1  0  0  0
 40 36  1  0  0  0  0
 40 38  1  0  0  0  0
 42 41  1  6  0  0  0
 42 43  1  0  0  0  0
 43 44  1  0  0  0  0
 44 45  1  0  0  0  0
 45 47  1  0  0  0  0
 45 46  1  1  0  0  0
 47 49  1  0  0  0  0
 48 49  1  0  0  0  0
M  END
>  <MODEL>
2

>  <REMARK>
 VINA RESULT:      -5.6      3.017      8.917
  Name = 
  16 active torsions:
  status: ('A' for Active; 'I' for Inactive)
    1  A    between atoms: C_6  and  C_36
    2  A    between atoms: C_6  and  O_40
    3  A    between atoms: N_10  and  C_20
    4  A    between atoms: N_10  and  C_21
    5  A    between atoms: C_11  and  C_12
    6  A    between atoms: C_15  and  C_47
    7  A    between atoms: C_16  and  C_42
    8  A    between atoms: C_20  and  C_24
    9  A    between atoms: C_20  and  C_45
   10  A    between atoms: N_23  and  C_36
   11  A    between atoms: C_24  and  C_46
   12  A    between atoms: C_27  and  O_31
   13  A    between atoms: C_27  and  C_34
   14  A    between atoms: O_31  and  C_48
   15  A    between atoms: O_40  and  C_46
   16  A    between atoms: O_44  and  C_48
                            x       y       z     vdW  Elec       q    Type
                         _______ _______ _______ _____ _____    ______ ____

>  <TORSDO>
F 16

$$$$
=
 OpenBabel11062418153D

 49 53  0  0  1  0  0  0  0  0999 V2000
  192.2820  176.0800  143.8010 C   0  0  1  0  0  3  0  0  0  0  0  0
  189.4800  175.8220  146.6830 O   0  0  0  0  0  0  0  0  0  0  0  0
  194.0180  175.3410  145.9370 C   0  0  0  0  0  0  0  0  0  0  0  0
  189.1190  175.7250  144.0000 C   0  0  2  0  0  3  0  0  0  0  0  0
  192.6850  175.9640  146.2770 C   0  0  0  0  0  2  0  0  0  0  0  0
  193.5120  175.2350  143.4400 C   0  0  0  0  0  2  0  0  0  0  0  0
  191.2810  176.1150  142.6360 C   0  0  0  0  0  2  0  0  0  0  0  0
  190.1280  177.8310  145.4160 O   0  0  0  0  0  0  0  0  0  0  0  0
  194.9620  175.4790  146.7060 O   0  0  0  0  0  0  0  0  0  0  0  0
  190.0710  176.3290  145.3990 S   0  0  0  0  0  0  0  0  0  0  0  0
  194.1650  174.5410  144.6530 C   0  0  1  0  0  3  0  0  0  0  0  0
  190.0240  175.2540  142.8370 C   0  0  1  0  0  3  0  0  0  0  0  0
  191.6960  175.6610  145.1570 C   0  0  1  0  0  3  0  0  0  0  0  0
  190.2950  171.6030  143.9080 C   0  0  0  0  0  3  0  0  0  0  0  0
  191.1370  171.0970  142.9140 C   0  0  0  0  0  3  0  0  0  0  0  0
  191.5690  171.9260  141.8750 C   0  0  0  0  0  3  0  0  0  0  0  0
  190.3330  173.7790  142.8390 C   0  0  0  0  0  0  0  0  0  0  0  0
  189.8950  172.9380  143.8710 C   0  0  0  0  0  3  0  0  0  0  0  0
  191.1740  173.2650  141.8430 C   0  0  0  0  0  3  0  0  0  0  0  0
  188.1280  176.7520  143.5470 C   0  0  0  0  0  3  0  0  0  0  0  0
  186.8400  176.4390  143.4040 C   0  0  0  0  0  3  0  0  0  0  0  0
  186.6420  179.5720  142.8290 C   0  0  0  0  0  2  0  0  0  0  0  0
  185.8490  177.4790  142.9840 C   0  0  1  0  0  3  0  0  0  0  0  0
  185.0590  178.2790  144.0690 C   0  0  2  0  0  0  0  0  0  0  0  0
  186.4640  178.3830  142.1000 O   0  0  0  0  0  0  0  0  0  0  0  0
  185.4940  179.7060  143.8010 C   0  0  0  0  0  2  0  0  0  0  0  0
  184.5120  177.2270  146.2620 O   0  0  0  0  0  0  0  0  0  0  0  0
  185.4250  178.0500  145.5660 C   0  0  2  0  0  3  0  0  0  0  0  0
  184.3940  178.6070  146.4970 C   0  0  0  0  0  2  0  0  0  0  0  0
  183.6470  178.1400  143.9040 O   0  0  0  0  0  0  0  0  0  0  0  0
  183.1810  178.9130  142.8220 C   0  0  0  0  0  2  0  0  0  0  0  0
  183.0760  178.2590  140.7150 C   0  0  0  0  0  1  0  0  0  0  0  0
  182.4490  178.0990  141.9530 O   0  0  0  0  0  0  0  0  0  0  0  0
  195.5810  174.0080  144.3670 C   0  0  1  0  0  3  0  0  0  0  0  0
  197.2510  171.0830  145.8260 O   0  0  0  0  0  0  0  0  0  0  0  0
  195.7720  172.6600  144.9080 N   0  0  0  0  0  0  0  0  0  0  0  0
  197.0420  172.2640  145.4480 C   0  0  0  0  0  3  0  0  0  0  0  0
  194.4530  171.0670  146.0170 O   0  0  0  0  0  1  0  0  0  0  0  0
  194.9140  170.7050  143.6970 C   0  0  0  0  0  1  0  0  0  0  0  0
  194.6590  171.7200  144.7980 C   0  0  2  0  0  3  0  0  0  0  0  0
  196.8720  173.1260  142.4730 O   0  0  0  0  0  1  0  0  0  0  0  0
  196.1590  174.2320  142.9420 C   0  0  2  0  0  3  0  0  0  0  0  0
  196.9930  175.4900  142.7550 C   0  0  0  0  0  2  0  0  0  0  0  0
  197.5740  175.5040  141.4760 O   0  0  0  0  0  0  0  0  0  0  0  0
  196.7030  176.1950  140.6020 C   0  0  2  0  0  3  0  0  0  0  0  0
  195.7730  176.9560  141.2920 F   0  0  0  0  0  0  0  0  0  0  0  0
  196.0240  175.2640  139.6020 C   0  0  0  0  0  2  0  0  0  0  0  0
  193.9960  175.0950  138.4750 C   0  0  0  0  0  1  0  0  0  0  0  0
  194.5850  175.3100  139.7800 N   0  0  0  0  0  2  0  0  0  0  0  0
  1  7  1  6  0  0  0
  1 13  1  0  0  0  0
  3  5  1  0  0  0  0
  3  9  2  0  0  0  0
  4 20  1  6  0  0  0
  4 10  1  0  0  0  0
  6  1  1  0  0  0  0
  6 11  1  0  0  0  0
  7 12  1  0  0  0  0
 10  8  2  0  0  0  0
 10  2  2  0  0  0  0
 11 34  1  6  0  0  0
 11  3  1  0  0  0  0
 12 17  1  1  0  0  0
 12  4  1  0  0  0  0
 13 10  1  0  0  0  0
 13  5  1  1  0  0  0
 15 14  2  0  0  0  0
 16 15  1  0  0  0  0
 17 18  2  0  0  0  0
 18 14  1  0  0  0  0
 19 16  2  0  0  0  0
 19 17  1  0  0  0  0
 21 20  2  0  0  0  0
 22 26  1  0  0  0  0
 23 21  1  1  0  0  0
 23 24  1  0  0  0  0
 24 30  1  6  0  0  0
 24 28  1  0  0  0  0
 25 22  1  0  0  0  0
 25 23  1  0  0  0  0
 26 24  1  0  0  0  0
 27 29  1  0  0  0  0
 28 27  1  0  0  0  0
 28 29  1  1  0  0  0
 31 30  1  0  0  0  0
 32 33  1  0  0  0  0
 33 31  1  0  0  0  0
 34 36  1  6  0  0  0
 36 37  1  0  0  0  0
 37 35  2  0  0  0  0
 40 39  1  6  0  0  0
 40 36  1  0  0  0  0
 40 38  1  0  0  0  0
 42 41  1  1  0  0  0
 42 34  1  0  0  0  0
 43 42  1  0  0  0  0
 44 43  1  0  0  0  0
 45 46  1  1  0  0  0
 45 44  1  0  0  0  0
 47 49  1  0  0  0  0
 47 45  1  0  0  0  0
 48 49  1  0  0  0  0
M  END
>  <MODEL>
3

>  <REMARK>
 VINA RESULT:      -5.6      2.317      3.749
  Name = 
  16 active torsions:
  status: ('A' for Active; 'I' for Inactive)
    1  A    between atoms: C_6  and  C_36
    2  A    between atoms: C_6  and  O_40
    3  A    between atoms: N_10  and  C_20
    4  A    between atoms: N_10  and  C_21
    5  A    between atoms: C_11  and  C_12
    6  A    between atoms: C_15  and  C_47
    7  A    between atoms: C_16  and  C_42
    8  A    between atoms: C_20  and  C_24
    9  A    between atoms: C_20  and  C_45
   10  A    between atoms: N_23  and  C_36
   11  A    between atoms: C_24  and  C_46
   12  A    between atoms: C_27  and  O_31
   13  A    between atoms: C_27  and  C_34
   14  A    between atoms: O_31  and  C_48
   15  A    between atoms: O_40  and  C_46
   16  A    between atoms: O_44  and  C_48
                            x       y       z     vdW  Elec       q    Type
                         _______ _______ _______ _____ _____    ______ ____

>  <TORSDO>
F 16

$$$$
=
 OpenBabel11062418153D

 49 53  0  0  1  0  0  0  0  0999 V2000
  192.4930  174.5770  141.4530 C   0  0  1  0  0  3  0  0  0  0  0  0
  193.3850  170.6590  141.7170 O   0  0  0  0  0  0  0  0  0  0  0  0
  190.2510  173.7950  143.0290 C   0  0  0  0  0  0  0  0  0  0  0  0
  195.0540  172.7080  141.1190 C   0  0  2  0  0  3  0  0  0  0  0  0
  190.9610  172.7390  142.2160 C   0  0  0  0  0  2  0  0  0  0  0  0
  191.9460  175.6090  142.4490 C   0  0  0  0  0  2  0  0  0  0  0  0
  193.8740  175.0010  140.9290 C   0  0  0  0  0  2  0  0  0  0  0  0
  192.8710  171.9310  139.6730 O   0  0  0  0  0  0  0  0  0  0  0  0
  189.0610  173.6590  143.2860 O   0  0  0  0  0  0  0  0  0  0  0  0
  193.3960  172.0180  141.0790 S   0  0  0  0  0  0  0  0  0  0  0  0
  191.0280  175.0020  143.5300 C   0  0  1  0  0  3  0  0  0  0  0  0
  195.0550  174.2050  141.5060 C   0  0  1  0  0  3  0  0  0  0  0  0
  192.4150  173.1550  142.0250 C   0  0  1  0  0  3  0  0  0  0  0  0
  195.3210  173.7350  145.2820 C   0  0  0  0  0  3  0  0  0  0  0  0
  195.4260  175.0610  145.7080 C   0  0  0  0  0  3  0  0  0  0  0  0
  195.4630  176.0960  144.7690 C   0  0  0  0  0  3  0  0  0  0  0  0
  195.2660  174.4750  142.9740 C   0  0  0  0  0  0  0  0  0  0  0  0
  195.2410  173.4420  143.9220 C   0  0  0  0  0  3  0  0  0  0  0  0
  195.3760  175.8030  143.4070 C   0  0  0  0  0  3  0  0  0  0  0  0
  195.7590  172.4730  139.8190 C   0  0  0  0  0  3  0  0  0  0  0  0
  196.1510  173.4980  139.0620 C   0  0  0  0  0  3  0  0  0  0  0  0
  197.5380  175.0960  136.6730 C   0  0  0  0  0  2  0  0  0  0  0  0
  196.8860  173.2570  137.7810 C   0  0  1  0  0  3  0  0  0  0  0  0
  196.0960  173.2030  136.4330 C   0  0  2  0  0  0  0  0  0  0  0  0
  197.9390  174.1820  137.6630 O   0  0  0  0  0  0  0  0  0  0  0  0
  196.7040  174.3540  135.6550 C   0  0  0  0  0  2  0  0  0  0  0  0
  193.7420  172.3890  136.5130 O   0  0  0  0  0  0  0  0  0  0  0  0
  194.5730  173.5300  136.4570 C   0  0  2  0  0  3  0  0  0  0  0  0
  193.8580  173.0010  135.2540 C   0  0  0  0  0  2  0  0  0  0  0  0
  196.3010  171.9660  135.7490 O   0  0  0  0  0  0  0  0  0  0  0  0
  197.0870  171.0820  136.5160 C   0  0  0  0  0  2  0  0  0  0  0  0
  196.0200  169.7290  135.1340 C   0  0  0  0  0  1  0  0  0  0  0  0
  197.2210  169.8700  135.8340 O   0  0  0  0  0  0  0  0  0  0  0  0
  190.1960  176.0520  144.2900 C   0  0  1  0  0  3  0  0  0  0  0  0
  192.4810  176.5150  147.1240 O   0  0  0  0  0  0  0  0  0  0  0  0
  190.6620  176.2170  145.6680 N   0  0  0  0  0  0  0  0  0  0  0  0
  192.0490  176.4680  145.9440 C   0  0  0  0  0  3  0  0  0  0  0  0
  188.7610  175.0480  146.3950 O   0  0  0  0  0  1  0  0  0  0  0  0
  188.9740  177.3390  147.0540 C   0  0  0  0  0  1  0  0  0  0  0  0
  189.6880  176.0340  146.7430 C   0  0  2  0  0  3  0  0  0  0  0  0
  190.4140  178.4950  144.1680 O   0  0  0  0  0  1  0  0  0  0  0  0
  189.8560  177.3740  143.5480 C   0  0  2  0  0  3  0  0  0  0  0  0
  188.3800  177.6250  143.2810 C   0  0  0  0  0  2  0  0  0  0  0  0
  187.6010  176.6030  143.8480 O   0  0  0  0  0  0  0  0  0  0  0  0
  186.4100  177.1790  144.3470 C   0  0  2  0  0  3  0  0  0  0  0  0
  185.8430  176.4090  145.3500 F   0  0  0  0  0  0  0  0  0  0  0  0
  185.4020  177.4780  143.2420 C   0  0  0  0  0  2  0  0  0  0  0  0
  184.9270  179.5570  144.1730 C   0  0  0  0  0  1  0  0  0  0  0  0
  184.3280  178.3040  143.7600 N   0  0  0  0  0  2  0  0  0  0  0  0
  1  7  1  1  0  0  0
  1 13  1  0  0  0  0
  1  6  1  0  0  0  0
  3  9  2  0  0  0  0
  3 11  1  0  0  0  0
  4 20  1  6  0  0  0
  4 12  1  0  0  0  0
  5  3  1  0  0  0  0
  6 11  1  0  0  0  0
  7 12  1  0  0  0  0
  8 10  2  0  0  0  0
 10  4  1  0  0  0  0
 10  2  2  0  0  0  0
 10 13  1  0  0  0  0
 11 34  1  6  0  0  0
 12 17  1  1  0  0  0
 13  5  1  6  0  0  0
 14 15  1  0  0  0  0
 16 15  2  0  0  0  0
 17 19  2  0  0  0  0
 17 18  1  0  0  0  0
 18 14  2  0  0  0  0
 19 16  1  0  0  0  0
 21 20  2  0  0  0  0
 22 25  1  0  0  0  0
 23 21  1  1  0  0  0
 24 30  1  6  0  0  0
 24 28  1  0  0  0  0
 24 23  1  0  0  0  0
 25 23  1  0  0  0  0
 26 24  1  0  0  0  0
 26 22  1  0  0  0  0
 28 29  1  6  0  0  0
 28 27  1  0  0  0  0
 29 27  1  0  0  0  0
 30 31  1  0  0  0  0
 32 33  1  0  0  0  0
 33 31  1  0  0  0  0
 34 36  1  1  0  0  0
 36 37  1  0  0  0  0
 36 40  1  0  0  0  0
 37 35  2  0  0  0  0
 38 40  1  0  0  0  0
 40 39  1  6  0  0  0
 42 41  1  1  0  0  0
 42 34  1  0  0  0  0
 43 42  1  0  0  0  0
 43 44  1  0  0  0  0
 44 45  1  0  0  0  0
 45 46  1  1  0  0  0
 47 49  1  0  0  0  0
 47 45  1  0  0  0  0
 49 48  1  0  0  0  0
M  END
>  <MODEL>
4

>  <REMARK>
 VINA RESULT:      -5.3      3.457      9.769
  Name = 
  16 active torsions:
  status: ('A' for Active; 'I' for Inactive)
    1  A    between atoms: C_6  and  C_36
    2  A    between atoms: C_6  and  O_40
    3  A    between atoms: N_10  and  C_20
    4  A    between atoms: N_10  and  C_21
    5  A    between atoms: C_11  and  C_12
    6  A    between atoms: C_15  and  C_47
    7  A    between atoms: C_16  and  C_42
    8  A    between atoms: C_20  and  C_24
    9  A    between atoms: C_20  and  C_45
   10  A    between atoms: N_23  and  C_36
   11  A    between atoms: C_24  and  C_46
   12  A    between atoms: C_27  and  O_31
   13  A    between atoms: C_27  and  C_34
   14  A    between atoms: O_31  and  C_48
   15  A    between atoms: O_40  and  C_46
   16  A    between atoms: O_44  and  C_48
                            x       y       z     vdW  Elec       q    Type
                         _______ _______ _______ _____ _____    ______ ____

>  <TORSDO>
F 16

$$$$
=
 OpenBabel11062418153D

 49 53  0  0  1  0  0  0  0  0999 V2000
  190.7740  173.6790  142.1300 C   0  0  1  0  0  3  0  0  0  0  0  0
  192.4270  170.0090  142.2400 O   0  0  0  0  0  0  0  0  0  0  0  0
  190.2270  173.1120  144.8690 C   0  0  0  0  0  0  0  0  0  0  0  0
  192.8870  171.9870  140.4460 C   0  0  2  0  0  3  0  0  0  0  0  0
  190.4750  171.9550  143.9310 C   0  0  0  0  0  2  0  0  0  0  0  0
  190.7670  174.8690  143.1010 C   0  0  0  0  0  2  0  0  0  0  0  0
  191.4020  174.0760  140.7850 C   0  0  0  0  0  2  0  0  0  0  0  0
  190.5020  170.7310  140.8860 O   0  0  0  0  0  0  0  0  0  0  0  0
  189.5180  172.9480  145.8530 O   0  0  0  0  0  0  0  0  0  0  0  0
  191.7550  171.1810  141.5850 S   0  0  0  0  0  0  0  0  0  0  0  0
  190.8730  174.4580  144.5840 C   0  0  1  0  0  3  0  0  0  0  0  0
  192.8170  173.5290  140.5460 C   0  0  1  0  0  3  0  0  0  0  0  0
  191.3670  172.4260  142.7870 C   0  0  1  0  0  3  0  0  0  0  0  0
  195.4090  173.9810  143.3090 C   0  0  0  0  0  3  0  0  0  0  0  0
  195.5350  175.3720  143.3300 C   0  0  0  0  0  3  0  0  0  0  0  0
  194.8210  176.1520  142.4160 C   0  0  0  0  0  3  0  0  0  0  0  0
  193.8340  174.1450  141.4720 C   0  0  0  0  0  0  0  0  0  0  0  0
  194.5620  173.3700  142.3860 C   0  0  0  0  0  3  0  0  0  0  0  0
  193.9680  175.5400  141.4950 C   0  0  0  0  0  3  0  0  0  0  0  0
  192.6590  171.5140  139.0440 C   0  0  0  0  0  3  0  0  0  0  0  0
  193.0600  172.2460  138.0050 C   0  0  0  0  0  3  0  0  0  0  0  0
  194.2550  172.5970  135.0660 C   0  0  0  0  0  2  0  0  0  0  0  0
  192.8600  171.7510  136.6070 C   0  0  1  0  0  3  0  0  0  0  0  0
  191.9310  172.5430  135.6300 C   0  0  2  0  0  0  0  0  0  0  0  0
  194.1110  171.5520  135.9960 O   0  0  0  0  0  0  0  0  0  0  0  0
  192.8880  172.9350  134.5210 C   0  0  0  0  0  2  0  0  0  0  0  0
  190.2330  173.7700  136.9800 O   0  0  0  0  0  0  0  0  0  0  0  0
  191.3400  173.9010  136.1120 C   0  0  2  0  0  3  0  0  0  0  0  0
  189.9330  174.1070  135.6490 C   0  0  0  0  0  2  0  0  0  0  0  0
  190.8760  171.7250  135.1230 O   0  0  0  0  0  0  0  0  0  0  0  0
  190.7900  170.5080  135.8280 C   0  0  0  0  0  2  0  0  0  0  0  0
  189.8930  169.5640  137.6120 C   0  0  0  0  0  1  0  0  0  0  0  0
  189.6360  170.5100  136.6180 O   0  0  0  0  0  0  0  0  0  0  0  0
  190.5010  175.5880  145.5630 C   0  0  1  0  0  3  0  0  0  0  0  0
  193.8560  177.0110  145.9930 O   0  0  0  0  0  0  0  0  0  0  0  0
  191.6830  176.1470  146.2200 N   0  0  0  0  0  0  0  0  0  0  0  0
  192.7950  176.6190  145.4430 C   0  0  0  0  0  3  0  0  0  0  0  0
  190.9830  175.0480  148.1720 O   0  0  0  0  0  1  0  0  0  0  0  0
  191.1950  177.4300  148.2550 C   0  0  0  0  0  1  0  0  0  0  0  0
  191.7230  176.1260  147.6810 C   0  0  2  0  0  3  0  0  0  0  0  0
  189.9500  177.9420  145.1310 O   0  0  0  0  0  1  0  0  0  0  0  0
  189.4560  176.6350  145.0870 C   0  0  2  0  0  3  0  0  0  0  0  0
  188.1010  176.5810  145.7750 C   0  0  0  0  0  2  0  0  0  0  0  0
  187.4160  177.7950  145.5980 O   0  0  0  0  0  0  0  0  0  0  0  0
  186.0580  177.5020  145.3310 C   0  0  2  0  0  3  0  0  0  0  0  0
  185.6150  176.4020  146.0480 F   0  0  0  0  0  0  0  0  0  0  0  0
  185.7820  177.3380  143.8390 C   0  0  0  0  0  2  0  0  0  0  0  0
  186.9650  178.3900  142.1350 C   0  0  0  0  0  1  0  0  0  0  0  0
  185.9630  178.6050  143.1590 N   0  0  0  0  0  2  0  0  0  0  0  0
  1  7  1  6  0  0  0
  1 13  1  0  0  0  0
  1  6  1  0  0  0  0
  3  9  2  0  0  0  0
  4 20  1  6  0  0  0
  4 12  1  0  0  0  0
  4 10  1  0  0  0  0
  5  3  1  0  0  0  0
  6 11  1  0  0  0  0
  8 10  2  0  0  0  0
 10  2  2  0  0  0  0
 10 13  1  0  0  0  0
 11  3  1  0  0  0  0
 11 34  1  1  0  0  0
 12  7  1  0  0  0  0
 12 17  1  1  0  0  0
 13  5  1  1  0  0  0
 14 15  1  0  0  0  0
 16 15  2  0  0  0  0
 17 19  2  0  0  0  0
 17 18  1  0  0  0  0
 18 14  2  0  0  0  0
 19 16  1  0  0  0  0
 21 20  2  0  0  0  0
 22 25  1  0  0  0  0
 23 21  1  1  0  0  0
 24 30  1  6  0  0  0
 24 28  1  0  0  0  0
 24 23  1  0  0  0  0
 25 23  1  0  0  0  0
 26 22  1  0  0  0  0
 26 24  1  0  0  0  0
 28 29  1  6  0  0  0
 28 27  1  0  0  0  0
 29 27  1  0  0  0  0
 30 31  1  0  0  0  0
 31 33  1  0  0  0  0
 33 32  1  0  0  0  0
 34 36  1  6  0  0  0
 36 40  1  0  0  0  0
 37 35  2  0  0  0  0
 37 36  1  0  0  0  0
 40 38  1  0  0  0  0
 40 39  1  1  0  0  0
 42 41  1  1  0  0  0
 42 34  1  0  0  0  0
 42 43  1  0  0  0  0
 44 43  1  0  0  0  0
 45 44  1  0  0  0  0
 45 46  1  1  0  0  0
 47 45  1  0  0  0  0
 48 49  1  0  0  0  0
 49 47  1  0  0  0  0
M  END
>  <MODEL>
5

>  <REMARK>
 VINA RESULT:      -5.3      3.416      8.487
  Name = 
  16 active torsions:
  status: ('A' for Active; 'I' for Inactive)
    1  A    between atoms: C_6  and  C_36
    2  A    between atoms: C_6  and  O_40
    3  A    between atoms: N_10  and  C_20
    4  A    between atoms: N_10  and  C_21
    5  A    between atoms: C_11  and  C_12
    6  A    between atoms: C_15  and  C_47
    7  A    between atoms: C_16  and  C_42
    8  A    between atoms: C_20  and  C_24
    9  A    between atoms: C_20  and  C_45
   10  A    between atoms: N_23  and  C_36
   11  A    between atoms: C_24  and  C_46
   12  A    between atoms: C_27  and  O_31
   13  A    between atoms: C_27  and  C_34
   14  A    between atoms: O_31  and  C_48
   15  A    between atoms: O_40  and  C_46
   16  A    between atoms: O_44  and  C_48
                            x       y       z     vdW  Elec       q    Type
                         _______ _______ _______ _____ _____    ______ ____

>  <TORSDO>
F 16

$$$$
=
 OpenBabel11062418153D

 49 53  0  0  1  0  0  0  0  0999 V2000
  192.4410  175.1950  142.1200 C   0  0  1  0  0  3  0  0  0  0  0  0
  194.1130  177.1640  145.2100 O   0  0  0  0  0  0  0  0  0  0  0  0
  195.0790  175.3750  141.0570 C   0  0  0  0  0  0  0  0  0  0  0  0
  191.8280  175.7090  145.2060 C   0  0  2  0  0  3  0  0  0  0  0  0
  194.6680  176.3560  142.1290 C   0  0  0  0  0  2  0  0  0  0  0  0
  192.9100  174.0450  141.2180 C   0  0  0  0  0  2  0  0  0  0  0  0
  191.1600  174.8100  142.8760 C   0  0  0  0  0  2  0  0  0  0  0  0
  192.3050  177.9640  143.7420 O   0  0  0  0  0  0  0  0  0  0  0  0
  195.9330  175.6970  140.2410 O   0  0  0  0  0  0  0  0  0  0  0  0
  192.9850  176.7490  144.3090 S   0  0  0  0  0  0  0  0  0  0  0  0
  194.4390  173.9970  141.0190 C   0  0  1  0  0  3  0  0  0  0  0  0
  191.3580  174.4980  144.3670 C   0  0  1  0  0  3  0  0  0  0  0  0
  193.5870  175.7200  142.9960 C   0  0  1  0  0  3  0  0  0  0  0  0
  194.1190  172.0790  145.4050 C   0  0  0  0  0  3  0  0  0  0  0  0
  193.7030  170.9090  144.7640 C   0  0  0  0  0  3  0  0  0  0  0  0
  192.5050  170.8960  144.0430 C   0  0  0  0  0  3  0  0  0  0  0  0
  192.1510  173.2350  144.5870 C   0  0  0  0  0  0  0  0  0  0  0  0
  193.3480  173.2360  145.3170 C   0  0  0  0  0  3  0  0  0  0  0  0
  191.7360  172.0580  143.9490 C   0  0  0  0  0  3  0  0  0  0  0  0
  190.6700  176.5130  145.7110 C   0  0  0  0  0  3  0  0  0  0  0  0
  189.6150  176.7510  144.9310 C   0  0  0  0  0  3  0  0  0  0  0  0
  187.1240  176.4360  146.9000 C   0  0  0  0  0  2  0  0  0  0  0  0
  188.4460  177.5260  145.4530 C   0  0  1  0  0  3  0  0  0  0  0  0
  187.0650  177.4300  144.7260 C   0  0  2  0  0  0  0  0  0  0  0  0
  188.2700  177.2460  146.8190 O   0  0  0  0  0  0  0  0  0  0  0  0
  186.1700  176.8560  145.8070 C   0  0  0  0  0  2  0  0  0  0  0  0
  187.5710  176.8310  142.3600 O   0  0  0  0  0  0  0  0  0  0  0  0
  186.9220  176.4220  143.5470 C   0  0  2  0  0  3  0  0  0  0  0  0
  186.1770  177.0050  142.3870 C   0  0  0  0  0  2  0  0  0  0  0  0
  186.5970  178.7130  144.3090 O   0  0  0  0  0  0  0  0  0  0  0  0
  185.5630  179.1770  145.1460 C   0  0  0  0  0  2  0  0  0  0  0  0
  183.6740  179.0440  144.0080 C   0  0  0  0  0  1  0  0  0  0  0  0
  184.6680  179.9450  144.3960 O   0  0  0  0  0  0  0  0  0  0  0  0
  194.8780  173.0990  139.8470 C   0  0  1  0  0  3  0  0  0  0  0  0
  196.9760  170.8680  141.8690 O   0  0  0  0  0  0  0  0  0  0  0  0
  195.9890  172.2220  140.2230 N   0  0  0  0  0  0  0  0  0  0  0  0
  195.9870  171.5450  141.4900 C   0  0  0  0  0  3  0  0  0  0  0  0
  197.1960  173.2760  138.5090 O   0  0  0  0  0  1  0  0  0  0  0  0
  197.0220  170.8910  138.4390 C   0  0  0  0  0  1  0  0  0  0  0  0
  197.1250  172.1320  139.3080 C   0  0  2  0  0  3  0  0  0  0  0  0
  193.7330  171.0340  139.1700 O   0  0  0  0  0  1  0  0  0  0  0  0
  193.7620  172.4210  139.0040 C   0  0  2  0  0  3  0  0  0  0  0  0
  193.7560  172.7550  137.5200 C   0  0  0  0  0  2  0  0  0  0  0  0
  194.2060  174.0690  137.3140 O   0  0  0  0  0  0  0  0  0  0  0  0
  193.0780  174.8950  137.0980 C   0  0  2  0  0  3  0  0  0  0  0  0
  192.0610  174.2190  136.4430 F   0  0  0  0  0  0  0  0  0  0  0  0
  193.4360  176.1910  136.3770 C   0  0  0  0  0  2  0  0  0  0  0  0
  195.2960  176.6120  135.0440 C   0  0  0  0  0  1  0  0  0  0  0  0
  194.0390  175.8930  135.0920 N   0  0  0  0  0  2  0  0  0  0  0  0
  1  6  1  1  0  0  0
  1  7  1  0  0  0  0
  1 13  1  0  0  0  0
  3  5  1  0  0  0  0
  4 20  1  6  0  0  0
  7 12  1  0  0  0  0
  8 10  2  0  0  0  0
  9  3  2  0  0  0  0
 10  4  1  0  0  0  0
 10  2  2  0  0  0  0
 11 34  1  6  0  0  0
 11  3  1  0  0  0  0
 11  6  1  0  0  0  0
 12 17  1  6  0  0  0
 12  4  1  0  0  0  0
 13  5  1  6  0  0  0
 13 10  1  0  0  0  0
 15 14  2  0  0  0  0
 16 15  1  0  0  0  0
 17 18  2  0  0  0  0
 18 14  1  0  0  0  0
 19 16  2  0  0  0  0
 19 17  1  0  0  0  0
 21 20  2  0  0  0  0
 23 21  1  6  0  0  0
 23 25  1  0  0  0  0
 24 30  1  6  0  0  0
 24 23  1  0  0  0  0
 24 26  1  0  0  0  0
 25 22  1  0  0  0  0
 26 22  1  0  0  0  0
 27 29  1  0  0  0  0
 27 28  1  0  0  0  0
 28 29  1  6  0  0  0
 28 24  1  0  0  0  0
 30 31  1  0  0  0  0
 32 33  1  0  0  0  0
 33 31  1  0  0  0  0
 34 36  1  1  0  0  0
 36 37  1  0  0  0  0
 37 35  2  0  0  0  0
 38 40  1  0  0  0  0
 40 39  1  6  0  0  0
 40 36  1  0  0  0  0
 42 41  1  6  0  0  0
 42 34  1  0  0  0  0
 43 42  1  0  0  0  0
 44 43  1  0  0  0  0
 45 46  1  6  0  0  0
 45 44  1  0  0  0  0
 47 45  1  0  0  0  0
 48 49  1  0  0  0  0
 49 47  1  0  0  0  0
M  END
>  <MODEL>
6

>  <REMARK>
 VINA RESULT:      -5.2      2.782      5.102
  Name = 
  16 active torsions:
  status: ('A' for Active; 'I' for Inactive)
    1  A    between atoms: C_6  and  C_36
    2  A    between atoms: C_6  and  O_40
    3  A    between atoms: N_10  and  C_20
    4  A    between atoms: N_10  and  C_21
    5  A    between atoms: C_11  and  C_12
    6  A    between atoms: C_15  and  C_47
    7  A    between atoms: C_16  and  C_42
    8  A    between atoms: C_20  and  C_24
    9  A    between atoms: C_20  and  C_45
   10  A    between atoms: N_23  and  C_36
   11  A    between atoms: C_24  and  C_46
   12  A    between atoms: C_27  and  O_31
   13  A    between atoms: C_27  and  C_34
   14  A    between atoms: O_31  and  C_48
   15  A    between atoms: O_40  and  C_46
   16  A    between atoms: O_44  and  C_48
                            x       y       z     vdW  Elec       q    Type
                         _______ _______ _______ _____ _____    ______ ____

>  <TORSDO>
F 16

$$$$
=
 OpenBabel11062418153D

 49 53  0  0  1  0  0  0  0  0999 V2000
  191.9860  176.2530  143.9420 C   0  0  1  0  0  3  0  0  0  0  0  0
  189.0550  175.8410  146.6730 O   0  0  0  0  0  0  0  0  0  0  0  0
  193.6040  175.2690  146.0720 C   0  0  0  0  0  0  0  0  0  0  0  0
  188.8080  175.9940  143.9790 C   0  0  2  0  0  3  0  0  0  0  0  0
  192.2770  175.9050  146.4130 C   0  0  0  0  0  2  0  0  0  0  0  0
  193.2040  175.4010  143.5570 C   0  0  0  0  0  2  0  0  0  0  0  0
  191.0390  176.4250  142.7450 C   0  0  0  0  0  2  0  0  0  0  0  0
  189.8200  177.9300  145.6180 O   0  0  0  0  0  0  0  0  0  0  0  0
  194.5160  175.3050  146.8880 O   0  0  0  0  0  0  0  0  0  0  0  0
  189.7160  176.4380  145.4640 S   0  0  0  0  0  0  0  0  0  0  0  0
  193.7810  174.5800  144.7290 C   0  0  1  0  0  3  0  0  0  0  0  0
  189.7480  175.5950  142.8170 C   0  0  1  0  0  3  0  0  0  0  0  0
  191.3290  175.7370  145.2300 C   0  0  1  0  0  3  0  0  0  0  0  0
  190.9440  172.2120  141.5240 C   0  0  0  0  0  3  0  0  0  0  0  0
  190.2680  171.3440  142.3860 C   0  0  0  0  0  3  0  0  0  0  0  0
  189.4720  171.8590  143.4130 C   0  0  0  0  0  3  0  0  0  0  0  0
  190.0100  174.1160  142.7000 C   0  0  0  0  0  0  0  0  0  0  0  0
  190.8150  173.5910  141.6790 C   0  0  0  0  0  3  0  0  0  0  0  0
  189.3380  173.2410  143.5640 C   0  0  0  0  0  3  0  0  0  0  0  0
  187.8710  177.0910  143.5800 C   0  0  0  0  0  3  0  0  0  0  0  0
  186.5910  176.8290  143.3130 C   0  0  0  0  0  3  0  0  0  0  0  0
  186.3170  180.0020  143.5120 C   0  0  0  0  0  2  0  0  0  0  0  0
  185.6510  177.9350  142.9480 C   0  0  1  0  0  3  0  0  0  0  0  0
  184.5860  178.4210  143.9850 C   0  0  2  0  0  0  0  0  0  0  0  0
  186.3860  179.0420  142.4880 O   0  0  0  0  0  0  0  0  0  0  0  0
  184.9740  179.8720  144.1910 C   0  0  0  0  0  2  0  0  0  0  0  0
  184.0660  178.6520  146.4110 O   0  0  0  0  0  0  0  0  0  0  0  0
  184.6230  177.8150  145.4190 C   0  0  2  0  0  3  0  0  0  0  0  0
  185.4700  178.6180  146.3560 C   0  0  0  0  0  2  0  0  0  0  0  0
  183.2590  178.3200  143.4660 O   0  0  0  0  0  0  0  0  0  0  0  0
  183.2620  178.2910  142.0570 C   0  0  0  0  0  2  0  0  0  0  0  0
  181.1860  179.0400  141.9990 C   0  0  0  0  0  1  0  0  0  0  0  0
  181.9830  177.9660  141.5970 O   0  0  0  0  0  0  0  0  0  0  0  0
  195.1910  174.0240  144.4540 C   0  0  1  0  0  3  0  0  0  0  0  0
  194.5230  170.7730  146.0200 O   0  0  0  0  0  0  0  0  0  0  0  0
  195.4250  172.7660  145.1660 N   0  0  0  0  0  0  0  0  0  0  0  0
  194.3650  171.8110  145.3290 C   0  0  0  0  0  3  0  0  0  0  0  0
  197.3560  173.7910  146.0210 O   0  0  0  0  0  1  0  0  0  0  0  0
  197.6200  171.7060  144.8770 C   0  0  0  0  0  1  0  0  0  0  0  0
  196.7400  172.5620  145.7710 C   0  0  2  0  0  3  0  0  0  0  0  0
  195.9580  175.3510  142.5350 O   0  0  0  0  0  1  0  0  0  0  0  0
  195.7010  174.0540  142.9870 C   0  0  2  0  0  3  0  0  0  0  0  0
  194.8380  173.3240  141.9690 C   0  0  0  0  0  2  0  0  0  0  0  0
  194.7590  174.0630  140.7770 O   0  0  0  0  0  0  0  0  0  0  0  0
  194.5160  173.1630  139.7130 C   0  0  2  0  0  3  0  0  0  0  0  0
  193.1960  173.2020  139.2940 F   0  0  0  0  0  0  0  0  0  0  0  0
  194.9490  171.7380  140.0470 C   0  0  0  0  0  2  0  0  0  0  0  0
  193.6590  169.8790  140.5870 C   0  0  0  0  0  1  0  0  0  0  0  0
  193.9910  170.7910  139.5110 N   0  0  0  0  0  2  0  0  0  0  0  0
  1  7  1  6  0  0  0
  1 13  1  0  0  0  0
  3  5  1  0  0  0  0
  3  9  2  0  0  0  0
  4 20  1  6  0  0  0
  4 10  1  0  0  0  0
  6  1  1  0  0  0  0
  6 11  1  0  0  0  0
  7 12  1  0  0  0  0
 10  8  2  0  0  0  0
 10  2  2  0  0  0  0
 11 34  1  6  0  0  0
 11  3  1  0  0  0  0
 12 17  1  1  0  0  0
 12  4  1  0  0  0  0
 13 10  1  0  0  0  0
 13  5  1  1  0  0  0
 14 18  2  0  0  0  0
 14 15  1  0  0  0  0
 15 16  2  0  0  0  0
 16 19  1  0  0  0  0
 17 19  2  0  0  0  0
 18 17  1  0  0  0  0
 21 20  2  0  0  0  0
 22 26  1  0  0  0  0
 23 21  1  1  0  0  0
 23 24  1  0  0  0  0
 24 30  1  6  0  0  0
 24 26  1  0  0  0  0
 24 28  1  0  0  0  0
 25 23  1  0  0  0  0
 25 22  1  0  0  0  0
 28 29  1  1  0  0  0
 28 27  1  0  0  0  0
 29 27  1  0  0  0  0
 31 30  1  0  0  0  0
 33 32  1  0  0  0  0
 33 31  1  0  0  0  0
 34 36  1  6  0  0  0
 36 37  1  0  0  0  0
 36 40  1  0  0  0  0
 37 35  2  0  0  0  0
 40 39  1  6  0  0  0
 40 38  1  0  0  0  0
 42 41  1  6  0  0  0
 42 34  1  0  0  0  0
 43 42  1  0  0  0  0
 44 43  1  0  0  0  0
 45 46  1  1  0  0  0
 45 47  1  0  0  0  0
 45 44  1  0  0  0  0
 49 47  1  0  0  0  0
 49 48  1  0  0  0  0
M  END
>  <MODEL>
7

>  <REMARK>
 VINA RESULT:      -5.2      2.344      4.077
  Name = 
  16 active torsions:
  status: ('A' for Active; 'I' for Inactive)
    1  A    between atoms: C_6  and  C_36
    2  A    between atoms: C_6  and  O_40
    3  A    between atoms: N_10  and  C_20
    4  A    between atoms: N_10  and  C_21
    5  A    between atoms: C_11  and  C_12
    6  A    between atoms: C_15  and  C_47
    7  A    between atoms: C_16  and  C_42
    8  A    between atoms: C_20  and  C_24
    9  A    between atoms: C_20  and  C_45
   10  A    between atoms: N_23  and  C_36
   11  A    between atoms: C_24  and  C_46
   12  A    between atoms: C_27  and  O_31
   13  A    between atoms: C_27  and  C_34
   14  A    between atoms: O_31  and  C_48
   15  A    between atoms: O_40  and  C_46
   16  A    between atoms: O_44  and  C_48
                            x       y       z     vdW  Elec       q    Type
                         _______ _______ _______ _____ _____    ______ ____

>  <TORSDO>
F 16

$$$$
=
 OpenBabel11062418153D

 49 53  0  0  1  0  0  0  0  0999 V2000
  192.3990  174.9000  142.1290 C   0  0  1  0  0  3  0  0  0  0  0  0
  194.1920  177.0590  145.0160 O   0  0  0  0  0  0  0  0  0  0  0  0
  194.9830  175.0350  140.9350 C   0  0  0  0  0  0  0  0  0  0  0  0
  191.9230  175.5890  145.2050 C   0  0  2  0  0  3  0  0  0  0  0  0
  194.6120  176.0750  141.9650 C   0  0  0  0  0  2  0  0  0  0  0  0
  192.8360  173.7010  141.2740 C   0  0  0  0  0  2  0  0  0  0  0  0
  191.1570  174.5510  142.9640 C   0  0  0  0  0  2  0  0  0  0  0  0
  192.3100  177.7580  143.5900 O   0  0  0  0  0  0  0  0  0  0  0  0
  195.7950  175.3140  140.0620 O   0  0  0  0  0  0  0  0  0  0  0  0
  193.0280  176.5830  144.1950 S   0  0  0  0  0  0  0  0  0  0  0  0
  194.3550  173.6520  141.0070 C   0  0  1  0  0  3  0  0  0  0  0  0
  191.4280  174.3280  144.4600 C   0  0  1  0  0  3  0  0  0  0  0  0
  193.5790  175.4830  142.9170 C   0  0  1  0  0  3  0  0  0  0  0  0
  194.2430  171.9910  145.5410 C   0  0  0  0  0  3  0  0  0  0  0  0
  193.8290  170.7900  144.9580 C   0  0  0  0  0  3  0  0  0  0  0  0
  192.6160  170.7300  144.2650 C   0  0  0  0  0  3  0  0  0  0  0  0
  192.2420  173.0860  144.7170 C   0  0  0  0  0  0  0  0  0  0  0  0
  193.4540  173.1340  145.4200 C   0  0  0  0  0  3  0  0  0  0  0  0
  191.8300  171.8770  144.1390 C   0  0  0  0  0  3  0  0  0  0  0  0
  190.7820  176.4140  145.7150 C   0  0  0  0  0  3  0  0  0  0  0  0
  189.7380  176.6890  144.9320 C   0  0  0  0  0  3  0  0  0  0  0  0
  187.2550  176.4200  146.9190 C   0  0  0  0  0  2  0  0  0  0  0  0
  188.5850  177.4850  145.4590 C   0  0  1  0  0  3  0  0  0  0  0  0
  187.1980  177.4080  144.7420 C   0  0  2  0  0  0  0  0  0  0  0  0
  188.4130  177.2120  146.8280 O   0  0  0  0  0  0  0  0  0  0  0  0
  186.3020  176.8520  145.8310 C   0  0  0  0  0  2  0  0  0  0  0  0
  187.7150  176.7720  142.3880 O   0  0  0  0  0  0  0  0  0  0  0  0
  187.0310  176.3990  143.5670 C   0  0  2  0  0  3  0  0  0  0  0  0
  186.3290  177.0040  142.3920 C   0  0  0  0  0  2  0  0  0  0  0  0
  186.7470  178.6970  144.3230 O   0  0  0  0  0  0  0  0  0  0  0  0
  185.6750  179.1460  145.1190 C   0  0  0  0  0  2  0  0  0  0  0  0
  183.6530  179.0500  144.2350 C   0  0  0  0  0  1  0  0  0  0  0  0
  184.7800  179.8700  144.3250 O   0  0  0  0  0  0  0  0  0  0  0  0
  194.7480  172.6900  139.8700 C   0  0  1  0  0  3  0  0  0  0  0  0
  197.5700  171.1610  141.6500 O   0  0  0  0  0  0  0  0  0  0  0  0
  196.0600  172.0830  140.1050 N   0  0  0  0  0  0  0  0  0  0  0  0
  196.4150  171.5950  141.4090 C   0  0  0  0  0  3  0  0  0  0  0  0
  196.6410  173.0050  138.0270 O   0  0  0  0  0  1  0  0  0  0  0  0
  197.1060  170.6840  138.3800 C   0  0  0  0  0  1  0  0  0  0  0  0
  197.0120  172.0700  138.9960 C   0  0  2  0  0  3  0  0  0  0  0  0
  193.9980  170.3750  139.5380 O   0  0  0  0  0  1  0  0  0  0  0  0
  193.6570  171.7160  139.3440 C   0  0  2  0  0  3  0  0  0  0  0  0
  193.2210  171.9260  137.9020 C   0  0  0  0  0  2  0  0  0  0  0  0
  192.0190  172.6510  137.8560 O   0  0  0  0  0  0  0  0  0  0  0  0
  190.9620  171.7400  137.6230 C   0  0  2  0  0  3  0  0  0  0  0  0
  190.9010  171.3470  136.2960 F   0  0  0  0  0  0  0  0  0  0  0  0
  189.6170  172.2760  138.1040 C   0  0  0  0  0  2  0  0  0  0  0  0
  188.2170  174.1260  138.2790 C   0  0  0  0  0  1  0  0  0  0  0  0
  189.4620  173.6600  137.7030 N   0  0  0  0  0  2  0  0  0  0  0  0
  1  6  1  1  0  0  0
  1 13  1  0  0  0  0
  1  7  1  0  0  0  0
  3 11  1  0  0  0  0
  3  5  1  0  0  0  0
  4 20  1  6  0  0  0
  7 12  1  0  0  0  0
  8 10  2  0  0  0  0
  9  3  2  0  0  0  0
 10  2  2  0  0  0  0
 10  4  1  0  0  0  0
 11 34  1  6  0  0  0
 11  6  1  0  0  0  0
 12 17  1  6  0  0  0
 12  4  1  0  0  0  0
 13  5  1  6  0  0  0
 13 10  1  0  0  0  0
 15 14  2  0  0  0  0
 16 15  1  0  0  0  0
 17 18  2  0  0  0  0
 18 14  1  0  0  0  0
 19 16  2  0  0  0  0
 19 17  1  0  0  0  0
 21 20  2  0  0  0  0
 23 21  1  6  0  0  0
 23 25  1  0  0  0  0
 24 30  1  6  0  0  0
 24 23  1  0  0  0  0
 24 26  1  0  0  0  0
 25 22  1  0  0  0  0
 26 22  1  0  0  0  0
 27 29  1  0  0  0  0
 27 28  1  0  0  0  0
 28 29  1  6  0  0  0
 28 24  1  0  0  0  0
 30 31  1  0  0  0  0
 32 33  1  0  0  0  0
 33 31  1  0  0  0  0
 34 36  1  1  0  0  0
 36 37  1  0  0  0  0
 37 35  2  0  0  0  0
 38 40  1  0  0  0  0
 40 39  1  6  0  0  0
 40 36  1  0  0  0  0
 42 41  1  6  0  0  0
 42 34  1  0  0  0  0
 43 42  1  0  0  0  0
 44 43  1  0  0  0  0
 45 46  1  6  0  0  0
 45 44  1  0  0  0  0
 45 47  1  0  0  0  0
 49 47  1  0  0  0  0
 49 48  1  0  0  0  0
M  END
>  <MODEL>
8

>  <REMARK>
 VINA RESULT:      -5.1      2.835      5.225
  Name = 
  16 active torsions:
  status: ('A' for Active; 'I' for Inactive)
    1  A    between atoms: C_6  and  C_36
    2  A    between atoms: C_6  and  O_40
    3  A    between atoms: N_10  and  C_20
    4  A    between atoms: N_10  and  C_21
    5  A    between atoms: C_11  and  C_12
    6  A    between atoms: C_15  and  C_47
    7  A    between atoms: C_16  and  C_42
    8  A    between atoms: C_20  and  C_24
    9  A    between atoms: C_20  and  C_45
   10  A    between atoms: N_23  and  C_36
   11  A    between atoms: C_24  and  C_46
   12  A    between atoms: C_27  and  O_31
   13  A    between atoms: C_27  and  C_34
   14  A    between atoms: O_31  and  C_48
   15  A    between atoms: O_40  and  C_46
   16  A    between atoms: O_44  and  C_48
                            x       y       z     vdW  Elec       q    Type
                         _______ _______ _______ _____ _____    ______ ____

>  <TORSDO>
F 16

$$$$
=
 OpenBabel11062418153D

 49 53  0  0  1  0  0  0  0  0999 V2000
  191.9460  173.9950  141.7360 C   0  0  1  0  0  3  0  0  0  0  0  0
  193.4780  170.2730  141.8580 O   0  0  0  0  0  0  0  0  0  0  0  0
  190.6200  173.1290  144.1050 C   0  0  0  0  0  0  0  0  0  0  0  0
  194.4520  172.4290  140.5370 C   0  0  2  0  0  3  0  0  0  0  0  0
  191.1270  172.0830  143.1410 C   0  0  0  0  0  2  0  0  0  0  0  0
  191.6610  175.0600  142.8050 C   0  0  0  0  0  2  0  0  0  0  0  0
  192.9420  174.5230  140.6910 C   0  0  0  0  0  2  0  0  0  0  0  0
  192.0370  171.2290  140.1060 O   0  0  0  0  0  0  0  0  0  0  0  0
  189.6530  172.8790  144.8130 O   0  0  0  0  0  0  0  0  0  0  0  0
  193.0330  171.5410  141.1880 S   0  0  0  0  0  0  0  0  0  0  0  0
  191.3270  174.4720  144.1910 C   0  0  1  0  0  3  0  0  0  0  0  0
  194.3630  173.9500  140.8060 C   0  0  1  0  0  3  0  0  0  0  0  0
  192.3160  172.6490  142.3740 C   0  0  1  0  0  3  0  0  0  0  0  0
  195.8720  176.1730  143.5130 C   0  0  0  0  0  3  0  0  0  0  0  0
  196.5910  175.2340  144.2580 C   0  0  0  0  0  3  0  0  0  0  0  0
  196.5410  173.8810  143.9100 C   0  0  0  0  0  3  0  0  0  0  0  0
  195.0670  174.4100  142.0560 C   0  0  0  0  0  0  0  0  0  0  0  0
  195.1140  175.7640  142.4170 C   0  0  0  0  0  3  0  0  0  0  0  0
  195.7880  173.4720  142.8080 C   0  0  0  0  0  3  0  0  0  0  0  0
  194.6410  172.1360  139.0810 C   0  0  0  0  0  3  0  0  0  0  0  0
  194.9180  173.1150  138.2200 C   0  0  0  0  0  3  0  0  0  0  0  0
  196.5570  171.1240  136.3390 C   0  0  0  0  0  2  0  0  0  0  0  0
  195.1410  172.8090  136.7720 C   0  0  1  0  0  3  0  0  0  0  0  0
  196.3300  173.4820  136.0120 C   0  0  2  0  0  0  0  0  0  0  0  0
  195.2050  171.4170  136.5900 O   0  0  0  0  0  0  0  0  0  0  0  0
  197.1600  172.2860  135.5860 C   0  0  0  0  0  2  0  0  0  0  0  0
  196.8970  175.6900  137.0190 O   0  0  0  0  0  0  0  0  0  0  0  0
  197.3260  174.3580  136.8290 C   0  0  2  0  0  3  0  0  0  0  0  0
  197.8730  175.4970  136.0270 C   0  0  0  0  0  2  0  0  0  0  0  0
  195.8810  174.2180  134.8730 O   0  0  0  0  0  0  0  0  0  0  0  0
  194.4970  174.4730  134.9430 C   0  0  0  0  0  2  0  0  0  0  0  0
  193.4680  176.0730  136.0640 C   0  0  0  0  0  1  0  0  0  0  0  0
  194.2800  175.8540  134.9490 O   0  0  0  0  0  0  0  0  0  0  0  0
  190.6900  175.4920  145.1540 C   0  0  1  0  0  3  0  0  0  0  0  0
  193.8000  176.6270  146.7370 O   0  0  0  0  0  0  0  0  0  0  0  0
  191.6290  175.9130  146.1950 N   0  0  0  0  0  0  0  0  0  0  0  0
  192.9510  176.3550  145.8500 C   0  0  0  0  0  3  0  0  0  0  0  0
  190.0710  174.9710  147.6770 O   0  0  0  0  0  1  0  0  0  0  0  0
  190.9130  177.1510  148.1900 C   0  0  0  0  0  1  0  0  0  0  0  0
  191.2020  175.7870  147.5870 C   0  0  2  0  0  3  0  0  0  0  0  0
  190.2460  177.9000  144.9670 O   0  0  0  0  0  1  0  0  0  0  0  0
  189.8430  176.6360  144.5300 C   0  0  2  0  0  3  0  0  0  0  0  0
  188.3350  176.5030  144.6820 C   0  0  0  0  0  2  0  0  0  0  0  0
  187.7860  177.7050  145.1600 O   0  0  0  0  0  0  0  0  0  0  0  0
  186.3790  177.5650  145.1960 C   0  0  2  0  0  3  0  0  0  0  0  0
  185.9800  176.5690  146.0730 F   0  0  0  0  0  0  0  0  0  0  0  0
  185.7800  177.3520  143.8080 C   0  0  0  0  0  2  0  0  0  0  0  0
  185.5070  178.2950  141.7000 C   0  0  0  0  0  1  0  0  0  0  0  0
  185.7160  178.6140  143.0970 N   0  0  0  0  0  2  0  0  0  0  0  0
  1  7  1  6  0  0  0
  1 13  1  0  0  0  0
  1  6  1  0  0  0  0
  3 11  1  0  0  0  0
  3  9  2  0  0  0  0
  4 20  1  6  0  0  0
  4 12  1  0  0  0  0
  4 10  1  0  0  0  0
  5  3  1  0  0  0  0
  6 11  1  0  0  0  0
  7 12  1  0  0  0  0
  8 10  2  0  0  0  0
 10  2  2  0  0  0  0
 10 13  1  0  0  0  0
 11 34  1  6  0  0  0
 12 17  1  1  0  0  0
 13  5  1  6  0  0  0
 14 15  1  0  0  0  0
 16 15  2  0  0  0  0
 17 18  1  0  0  0  0
 17 19  2  0  0  0  0
 18 14  2  0  0  0  0
 19 16  1  0  0  0  0
 21 20  2  0  0  0  0
 22 25  1  0  0  0  0
 23 21  1  1  0  0  0
 24 30  1  6  0  0  0
 24 23  1  0  0  0  0
 24 28  1  0  0  0  0
 25 23  1  0  0  0  0
 26 24  1  0  0  0  0
 26 22  1  0  0  0  0
 28 29  1  6  0  0  0
 28 27  1  0  0  0  0
 29 27  1  0  0  0  0
 30 31  1  0  0  0  0
 31 33  1  0  0  0  0
 33 32  1  0  0  0  0
 34 36  1  6  0  0  0
 36 40  1  0  0  0  0
 37 36  1  0  0  0  0
 37 35  2  0  0  0  0
 40 38  1  0  0  0  0
 40 39  1  6  0  0  0
 42 43  1  0  0  0  0
 42 41  1  1  0  0  0
 42 34  1  0  0  0  0
 43 44  1  0  0  0  0
 44 45  1  0  0  0  0
 45 46  1  1  0  0  0
 47 45  1  0  0  0  0
 48 49  1  0  0  0  0
 49 47  1  0  0  0  0
M  END
>  <MODEL>
9

>  <REMARK>
 VINA RESULT:      -5.1      3.506      9.296
  Name = 
  16 active torsions:
  status: ('A' for Active; 'I' for Inactive)
    1  A    between atoms: C_6  and  C_36
    2  A    between atoms: C_6  and  O_40
    3  A    between atoms: N_10  and  C_20
    4  A    between atoms: N_10  and  C_21
    5  A    between atoms: C_11  and  C_12
    6  A    between atoms: C_15  and  C_47
    7  A    between atoms: C_16  and  C_42
    8  A    between atoms: C_20  and  C_24
    9  A    between atoms: C_20  and  C_45
   10  A    between atoms: N_23  and  C_36
   11  A    between atoms: C_24  and  C_46
   12  A    between atoms: C_27  and  O_31
   13  A    between atoms: C_27  and  C_34
   14  A    between atoms: O_31  and  C_48
   15  A    between atoms: O_40  and  C_46
   16  A    between atoms: O_44  and  C_48
                            x       y       z     vdW  Elec       q    Type
                         _______ _______ _______ _____ _____    ______ ____

>  <TORSDO>
F 16

$$$$
