=
 OpenBabel11072408503D

 26 27  0  0  1  0  0  0  0  0999 V2000
  189.8050  174.4640  143.9680 O   0  0  0  0  0  0  0  0  0  0  0  0
  193.7180  174.5690  145.8920 C   0  0  1  0  0  3  0  0  0  0  0  0
  191.6520  175.4610  145.0070 N   0  0  0  0  0  0  0  0  0  0  0  0
  190.3700  175.5180  144.3600 C   0  0  0  0  0  0  0  0  0  0  0  0
  191.9940  173.1310  144.9890 O   0  0  0  0  0  0  0  0  0  0  0  0
  193.6390  176.0780  146.1700 C   0  0  0  0  0  3  0  0  0  0  0  0
  192.4090  174.2910  145.2540 C   0  0  0  0  0  0  0  0  0  0  0  0
  192.3800  176.6200  145.4810 C   0  0  0  0  0  3  0  0  0  0  0  0
  189.7000  176.8320  144.1160 C   0  0  0  0  0  2  0  0  0  0  0  0
  185.3680  178.7410  147.3680 C   0  0  0  0  0  1  0  0  0  0  0  0
  188.6460  177.3400  146.3320 C   0  0  0  0  0  2  0  0  0  0  0  0
  186.5320  178.6780  145.1350 C   0  0  2  0  0  3  0  0  0  0  0  0
  188.3940  176.9230  144.8880 C   0  0  1  0  0  3  0  0  0  0  0  0
  187.4500  177.8990  144.1810 C   0  0  0  0  0  2  0  0  0  0  0  0
  186.1190  177.8590  146.3870 C   0  0  0  0  0  0  0  0  0  0  0  0
  187.3410  177.2930  147.1300 C   0  0  0  0  0  2  0  0  0  0  0  0
  185.2150  176.6960  146.0010 C   0  0  0  0  0  1  0  0  0  0  0  0
  185.3520  179.2360  144.3440 C   0  0  0  0  0  2  0  0  0  0  0  0
  185.6070  179.1560  142.9750 O   0  0  0  0  0  1  0  0  0  0  0  0
  194.8760  174.2660  144.9340 C   0  0  1  0  0  3  0  0  0  0  0  0
  196.2130  175.8000  143.4260 C   0  0  0  0  0  0  0  0  0  0  0  0
  195.6770  175.4650  144.7060 N   0  0  0  0  0  2  0  0  0  0  0  0
  195.9800  175.0760  142.4220 O   0  0  0  0  0  0  0  0  0  0  0  0
  197.0150  176.9660  143.2820 N   0  0  0  0  0  1  0  0  0  0  0  0
  195.7670  173.1410  145.4610 C   0  0  0  0  0  2  0  0  0  0  0  0
  196.7610  173.6510  146.3000 O   0  0  0  0  0  1  0  0  0  0  0  0
  1  4  2  0  0  0  0
  2 20  1  6  0  0  0
  2  6  1  0  0  0  0
  3  7  1  0  0  0  0
  3  8  1  0  0  0  0
  4  3  1  0  0  0  0
  5  7  2  0  0  0  0
  7  2  1  0  0  0  0
  8  6  2  0  0  0  0
  9  4  1  0  0  0  0
 11 16  1  0  0  0  0
 12 18  1  6  0  0  0
 12 15  1  0  0  0  0
 13  9  1  6  0  0  0
 13 11  1  0  0  0  0
 14 13  1  0  0  0  0
 14 12  1  0  0  0  0
 15 16  1  0  0  0  0
 15 10  1  0  0  0  0
 17 15  1  0  0  0  0
 19 18  1  0  0  0  0
 20 25  1  1  0  0  0
 21 22  1  0  0  0  0
 22 20  1  0  0  0  0
 23 21  2  0  0  0  0
 24 21  1  0  0  0  0
 25 26  1  0  0  0  0
M  END
>  <MODEL>
1

>  <REMARK>
 VINA RESULT:      -6.8      0.000      0.000
  Name = 
  6 active torsions:
  status: ('A' for Active; 'I' for Inactive)
    1  A    between atoms: C_2  and  CA_22
    2  A    between atoms: C_4  and  CA_22
    3  A    between atoms: C_8  and  C_17
    4  A    between atoms: C_10  and  C_16
    5  A    between atoms: N_11  and  CA_22
    6  A    between atoms: C_15  and  C_17
                            x       y       z     vdW  Elec       q    Type
                         _______ _______ _______ _____ _____    ______ ____

>  <TORSDO>
F 6

$$$$
=
 OpenBabel11072408503D

 26 27  0  0  1  0  0  0  0  0999 V2000
  189.6700  174.5110  143.6720 O   0  0  0  0  0  0  0  0  0  0  0  0
  193.2810  174.5890  146.1160 C   0  0  1  0  0  3  0  0  0  0  0  0
  191.3210  175.4830  145.0180 N   0  0  0  0  0  0  0  0  0  0  0  0
  190.1360  175.5500  144.2080 C   0  0  0  0  0  0  0  0  0  0  0  0
  191.7510  173.1710  144.8900 O   0  0  0  0  0  0  0  0  0  0  0  0
  193.1080  176.0710  146.4820 C   0  0  0  0  0  3  0  0  0  0  0  0
  192.0810  174.3200  145.2880 C   0  0  0  0  0  0  0  0  0  0  0  0
  191.9330  176.6240  145.6660 C   0  0  0  0  0  3  0  0  0  0  0  0
  189.4550  176.8580  143.9640 C   0  0  0  0  0  2  0  0  0  0  0  0
  185.2980  178.8020  147.4170 C   0  0  0  0  0  1  0  0  0  0  0  0
  188.4970  177.3410  146.2280 C   0  0  0  0  0  2  0  0  0  0  0  0
  186.3770  178.7610  145.1410 C   0  0  2  0  0  3  0  0  0  0  0  0
  188.1820  176.9640  144.7860 C   0  0  1  0  0  3  0  0  0  0  0  0
  187.2390  177.9810  144.1370 C   0  0  0  0  0  2  0  0  0  0  0  0
  185.9880  177.9230  146.3890 C   0  0  0  0  0  0  0  0  0  0  0  0
  187.2220  177.3090  147.0730 C   0  0  0  0  0  2  0  0  0  0  0  0
  185.0400  176.7940  146.0110 C   0  0  0  0  0  1  0  0  0  0  0  0
  185.1850  179.3680  144.4070 C   0  0  0  0  0  2  0  0  0  0  0  0
  185.2950  179.1400  143.0360 O   0  0  0  0  0  1  0  0  0  0  0  0
  194.5690  174.3890  145.3070 C   0  0  1  0  0  3  0  0  0  0  0  0
  196.4580  172.7770  145.8010 C   0  0  0  0  0  0  0  0  0  0  0  0
  195.0870  173.0390  145.4980 N   0  0  0  0  0  2  0  0  0  0  0  0
  197.2760  173.7240  145.9490 O   0  0  0  0  0  0  0  0  0  0  0  0
  196.9040  171.4330  145.9390 N   0  0  0  0  0  1  0  0  0  0  0  0
  194.3470  174.6530  143.8180 C   0  0  0  0  0  2  0  0  0  0  0  0
  194.9090  175.8750  143.4430 O   0  0  0  0  0  1  0  0  0  0  0  0
  1  4  2  0  0  0  0
  2 20  1  6  0  0  0
  2  6  1  0  0  0  0
  3  7  1  0  0  0  0
  3  8  1  0  0  0  0
  4  3  1  0  0  0  0
  5  7  2  0  0  0  0
  7  2  1  0  0  0  0
  8  6  2  0  0  0  0
  9  4  1  0  0  0  0
 11 16  1  0  0  0  0
 12 18  1  6  0  0  0
 12 15  1  0  0  0  0
 13  9  1  6  0  0  0
 13 11  1  0  0  0  0
 14 13  1  0  0  0  0
 14 12  1  0  0  0  0
 15 16  1  0  0  0  0
 15 10  1  0  0  0  0
 17 15  1  0  0  0  0
 19 18  1  0  0  0  0
 20 25  1  6  0  0  0
 20 22  1  0  0  0  0
 21 24  1  0  0  0  0
 21 23  2  0  0  0  0
 22 21  1  0  0  0  0
 26 25  1  0  0  0  0
M  END
>  <MODEL>
2

>  <REMARK>
 VINA RESULT:      -6.6      1.269      1.971
  Name = 
  6 active torsions:
  status: ('A' for Active; 'I' for Inactive)
    1  A    between atoms: C_2  and  CA_22
    2  A    between atoms: C_4  and  CA_22
    3  A    between atoms: C_8  and  C_17
    4  A    between atoms: C_10  and  C_16
    5  A    between atoms: N_11  and  CA_22
    6  A    between atoms: C_15  and  C_17
                            x       y       z     vdW  Elec       q    Type
                         _______ _______ _______ _____ _____    ______ ____

>  <TORSDO>
F 6

$$$$
=
 OpenBabel11072408503D

 26 27  0  0  1  0  0  0  0  0999 V2000
  189.2450  177.9820  142.3300 O   0  0  0  0  0  0  0  0  0  0  0  0
  192.7280  175.9140  143.9490 C   0  0  1  0  0  3  0  0  0  0  0  0
  190.4160  176.2010  143.3010 N   0  0  0  0  0  0  0  0  0  0  0  0
  189.2150  176.8170  142.8080 C   0  0  0  0  0  0  0  0  0  0  0  0
  191.9540  177.9260  142.8470 O   0  0  0  0  0  0  0  0  0  0  0  0
  191.9560  174.6060  144.1770 C   0  0  0  0  0  3  0  0  0  0  0  0
  191.7030  176.7880  143.3300 C   0  0  0  0  0  0  0  0  0  0  0  0
  190.4760  174.8720  143.8750 C   0  0  0  0  0  3  0  0  0  0  0  0
  187.9060  176.0990  142.8820 C   0  0  0  0  0  2  0  0  0  0  0  0
  185.8240  179.2010  147.2440 C   0  0  0  0  0  1  0  0  0  0  0  0
  188.0520  177.0500  145.1950 C   0  0  0  0  0  2  0  0  0  0  0  0
  185.8290  178.6580  144.7850 C   0  0  2  0  0  3  0  0  0  0  0  0
  187.1180  176.5400  144.1040 C   0  0  1  0  0  3  0  0  0  0  0  0
  186.0990  177.6080  143.6970 C   0  0  0  0  0  2  0  0  0  0  0  0
  185.9210  178.0810  146.2240 C   0  0  0  0  0  0  0  0  0  0  0  0
  187.2580  177.3600  146.4660 C   0  0  0  0  0  2  0  0  0  0  0  0
  184.7910  177.0950  146.4860 C   0  0  0  0  0  1  0  0  0  0  0  0
  184.5070  179.3580  144.4820 C   0  0  0  0  0  2  0  0  0  0  0  0
  183.8310  178.6920  143.4600 O   0  0  0  0  0  1  0  0  0  0  0  0
  193.2080  176.4870  145.2890 C   0  0  1  0  0  3  0  0  0  0  0  0
  191.6420  176.0160  147.2220 C   0  0  0  0  0  0  0  0  0  0  0  0
  192.7470  175.6530  146.3940 N   0  0  0  0  0  2  0  0  0  0  0  0
  190.9930  177.0730  147.0010 O   0  0  0  0  0  0  0  0  0  0  0  0
  191.2680  175.1740  148.3060 N   0  0  0  0  0  1  0  0  0  0  0  0
  194.7300  176.6140  145.3360 C   0  0  0  0  0  2  0  0  0  0  0  0
  195.3350  175.5720  144.6280 O   0  0  0  0  0  1  0  0  0  0  0  0
  1  4  2  0  0  0  0
  2  6  1  0  0  0  0
  2 20  1  1  0  0  0
  3  7  1  0  0  0  0
  3  8  1  0  0  0  0
  4  9  1  0  0  0  0
  4  3  1  0  0  0  0
  5  7  2  0  0  0  0
  7  2  1  0  0  0  0
  8  6  2  0  0  0  0
 11 16  1  0  0  0  0
 12 18  1  6  0  0  0
 12 15  1  0  0  0  0
 13  9  1  6  0  0  0
 13 11  1  0  0  0  0
 14 13  1  0  0  0  0
 14 12  1  0  0  0  0
 15 16  1  0  0  0  0
 15 17  1  0  0  0  0
 15 10  1  0  0  0  0
 19 18  1  0  0  0  0
 20 25  1  6  0  0  0
 20 22  1  0  0  0  0
 21 24  1  0  0  0  0
 22 21  1  0  0  0  0
 23 21  2  0  0  0  0
 26 25  1  0  0  0  0
M  END
>  <MODEL>
3

>  <REMARK>
 VINA RESULT:      -6.6      2.296      3.365
  Name = 
  6 active torsions:
  status: ('A' for Active; 'I' for Inactive)
    1  A    between atoms: C_2  and  CA_22
    2  A    between atoms: C_4  and  CA_22
    3  A    between atoms: C_8  and  C_17
    4  A    between atoms: C_10  and  C_16
    5  A    between atoms: N_11  and  CA_22
    6  A    between atoms: C_15  and  C_17
                            x       y       z     vdW  Elec       q    Type
                         _______ _______ _______ _____ _____    ______ ____

>  <TORSDO>
F 6

$$$$
=
 OpenBabel11072408503D

 26 27  0  0  1  0  0  0  0  0999 V2000
  189.6920  173.6170  145.7510 O   0  0  0  0  0  0  0  0  0  0  0  0
  193.7050  175.3190  145.8910 C   0  0  1  0  0  3  0  0  0  0  0  0
  191.3380  175.1680  146.3590 N   0  0  0  0  0  0  0  0  0  0  0  0
  189.9830  174.6890  146.3440 C   0  0  0  0  0  0  0  0  0  0  0  0
  192.3760  173.4400  145.1420 O   0  0  0  0  0  0  0  0  0  0  0  0
  193.2880  176.4520  146.8400 C   0  0  0  0  0  3  0  0  0  0  0  0
  192.4470  174.5490  145.7370 C   0  0  0  0  0  0  0  0  0  0  0  0
  191.7640  176.3920  147.0050 C   0  0  0  0  0  3  0  0  0  0  0  0
  188.8930  175.4710  147.0030 C   0  0  0  0  0  2  0  0  0  0  0  0
  185.9010  179.0060  143.6070 C   0  0  0  0  0  1  0  0  0  0  0  0
  187.0280  177.0900  146.5810 C   0  0  0  0  0  2  0  0  0  0  0  0
  188.0350  177.7550  144.0830 C   0  0  2  0  0  3  0  0  0  0  0  0
  187.9190  176.0140  145.9710 C   0  0  1  0  0  3  0  0  0  0  0  0
  188.6970  176.5500  144.7670 C   0  0  0  0  0  2  0  0  0  0  0  0
  186.4840  177.7070  144.1350 C   0  0  0  0  0  0  0  0  0  0  0  0
  185.9640  177.5270  145.5710 C   0  0  0  0  0  2  0  0  0  0  0  0
  185.9470  176.5630  143.2860 C   0  0  0  0  0  1  0  0  0  0  0  0
  188.6030  177.9010  142.6740 C   0  0  0  0  0  2  0  0  0  0  0  0
  189.3440  176.7710  142.3320 O   0  0  0  0  0  1  0  0  0  0  0  0
  194.1690  175.8960  144.5480 C   0  0  1  0  0  3  0  0  0  0  0  0
  196.4790  175.7560  143.5190 C   0  0  0  0  0  0  0  0  0  0  0  0
  195.2980  175.1330  144.0270 N   0  0  0  0  0  2  0  0  0  0  0  0
  196.6010  177.0100  143.5340 O   0  0  0  0  0  0  0  0  0  0  0  0
  197.5280  174.9520  142.9930 N   0  0  0  0  0  1  0  0  0  0  0  0
  193.0380  175.9140  143.5190 C   0  0  0  0  0  2  0  0  0  0  0  0
  192.3810  177.1470  143.5290 O   0  0  0  0  0  1  0  0  0  0  0  0
  1  4  2  0  0  0  0
  2 20  1  6  0  0  0
  2  6  1  0  0  0  0
  3  8  1  0  0  0  0
  4  3  1  0  0  0  0
  4  9  1  0  0  0  0
  5  7  2  0  0  0  0
  6  8  2  0  0  0  0
  7  2  1  0  0  0  0
  7  3  1  0  0  0  0
 10 15  1  0  0  0  0
 12 18  1  6  0  0  0
 12 15  1  0  0  0  0
 12 14  1  0  0  0  0
 13 11  1  0  0  0  0
 13  9  1  1  0  0  0
 14 13  1  0  0  0  0
 15 16  1  0  0  0  0
 16 11  1  0  0  0  0
 17 15  1  0  0  0  0
 19 18  1  0  0  0  0
 20 25  1  6  0  0  0
 21 23  2  0  0  0  0
 21 22  1  0  0  0  0
 22 20  1  0  0  0  0
 24 21  1  0  0  0  0
 25 26  1  0  0  0  0
M  END
>  <MODEL>
4

>  <REMARK>
 VINA RESULT:      -6.6      1.876      2.617
  Name = 
  6 active torsions:
  status: ('A' for Active; 'I' for Inactive)
    1  A    between atoms: C_2  and  CA_22
    2  A    between atoms: C_4  and  CA_22
    3  A    between atoms: C_8  and  C_17
    4  A    between atoms: C_10  and  C_16
    5  A    between atoms: N_11  and  CA_22
    6  A    between atoms: C_15  and  C_17
                            x       y       z     vdW  Elec       q    Type
                         _______ _______ _______ _____ _____    ______ ____

>  <TORSDO>
F 6

$$$$
=
 OpenBabel11072408503D

 26 27  0  0  1  0  0  0  0  0999 V2000
  189.3960  178.1250  142.1820 O   0  0  0  0  0  0  0  0  0  0  0  0
  191.8940  174.7780  143.4380 C   0  0  1  0  0  3  0  0  0  0  0  0
  189.8610  175.9100  142.7820 N   0  0  0  0  0  0  0  0  0  0  0  0
  188.9630  176.9620  142.3920 C   0  0  0  0  0  0  0  0  0  0  0  0
  191.8890  177.1060  142.7750 O   0  0  0  0  0  0  0  0  0  0  0  0
  190.7410  173.7670  143.3450 C   0  0  0  0  0  3  0  0  0  0  0  0
  191.2550  176.0370  142.9880 C   0  0  0  0  0  0  0  0  0  0  0  0
  189.4530  174.5470  143.0530 C   0  0  0  0  0  3  0  0  0  0  0  0
  187.4970  176.7000  142.2580 C   0  0  0  0  0  2  0  0  0  0  0  0
  183.6930  178.4550  146.1860 C   0  0  0  0  0  1  0  0  0  0  0  0
  185.2110  177.4600  142.9480 C   0  0  0  0  0  2  0  0  0  0  0  0
  185.8520  177.2780  145.6400 C   0  0  2  0  0  3  0  0  0  0  0  0
  186.7060  177.5570  143.2310 C   0  0  1  0  0  3  0  0  0  0  0  0
  187.0300  177.1330  144.6660 C   0  0  0  0  0  2  0  0  0  0  0  0
  184.9260  178.4780  145.3020 C   0  0  0  0  0  0  0  0  0  0  0  0
  184.4400  178.4320  143.8430 C   0  0  0  0  0  2  0  0  0  0  0  0
  185.6490  179.8000  145.5230 C   0  0  0  0  0  1  0  0  0  0  0  0
  186.3870  177.2940  147.0690 C   0  0  0  0  0  2  0  0  0  0  0  0
  187.7500  177.5860  147.0710 O   0  0  0  0  0  1  0  0  0  0  0  0
  192.3830  174.8930  144.8880 C   0  0  1  0  0  3  0  0  0  0  0  0
  190.6530  175.3960  146.6680 C   0  0  0  0  0  0  0  0  0  0  0  0
  191.3350  174.4760  145.8140 N   0  0  0  0  0  2  0  0  0  0  0  0
  190.9160  176.6280  146.6260 O   0  0  0  0  0  0  0  0  0  0  0  0
  189.6660  174.9170  147.5730 N   0  0  0  0  0  1  0  0  0  0  0  0
  193.6440  174.0620  145.1260 C   0  0  0  0  0  2  0  0  0  0  0  0
  194.6960  174.5220  144.3310 O   0  0  0  0  0  1  0  0  0  0  0  0
  1  4  2  0  0  0  0
  2 20  1  1  0  0  0
  3  7  1  0  0  0  0
  3  8  1  0  0  0  0
  4  3  1  0  0  0  0
  5  7  2  0  0  0  0
  6  2  1  0  0  0  0
  7  2  1  0  0  0  0
  8  6  2  0  0  0  0
  9  4  1  0  0  0  0
 11 13  1  0  0  0  0
 11 16  1  0  0  0  0
 12 18  1  1  0  0  0
 13  9  1  6  0  0  0
 13 14  1  0  0  0  0
 14 12  1  0  0  0  0
 15 17  1  0  0  0  0
 15 12  1  0  0  0  0
 15 10  1  0  0  0  0
 16 15  1  0  0  0  0
 18 19  1  0  0  0  0
 20 25  1  6  0  0  0
 20 22  1  0  0  0  0
 21 24  1  0  0  0  0
 22 21  1  0  0  0  0
 23 21  2  0  0  0  0
 26 25  1  0  0  0  0
M  END
>  <MODEL>
5

>  <REMARK>
 VINA RESULT:      -6.4      2.588      4.087
  Name = 
  6 active torsions:
  status: ('A' for Active; 'I' for Inactive)
    1  A    between atoms: C_2  and  CA_22
    2  A    between atoms: C_4  and  CA_22
    3  A    between atoms: C_8  and  C_17
    4  A    between atoms: C_10  and  C_16
    5  A    between atoms: N_11  and  CA_22
    6  A    between atoms: C_15  and  C_17
                            x       y       z     vdW  Elec       q    Type
                         _______ _______ _______ _____ _____    ______ ____

>  <TORSDO>
F 6

$$$$
=
 OpenBabel11072408503D

 26 27  0  0  1  0  0  0  0  0999 V2000
  191.1460  175.3390  148.1140 O   0  0  0  0  0  0  0  0  0  0  0  0
  188.0080  176.4280  145.2870 C   0  0  1  0  0  3  0  0  0  0  0  0
  190.2220  176.4320  146.2610 N   0  0  0  0  0  0  0  0  0  0  0  0
  191.3050  176.1460  147.1620 C   0  0  0  0  0  0  0  0  0  0  0  0
  188.5700  175.0260  147.1790 O   0  0  0  0  0  0  0  0  0  0  0  0
  188.9570  177.2740  144.4240 C   0  0  0  0  0  3  0  0  0  0  0  0
  188.9150  175.8950  146.3320 C   0  0  0  0  0  0  0  0  0  0  0  0
  190.3080  177.3520  145.1460 C   0  0  0  0  0  3  0  0  0  0  0  0
  192.6260  176.8250  147.0010 C   0  0  0  0  0  2  0  0  0  0  0  0
  195.6760  173.4160  143.5280 C   0  0  0  0  0  1  0  0  0  0  0  0
  193.0010  174.6720  145.7750 C   0  0  0  0  0  2  0  0  0  0  0  0
  195.1360  175.7320  144.3570 C   0  0  2  0  0  3  0  0  0  0  0  0
  193.6670  175.8570  146.4640 C   0  0  1  0  0  3  0  0  0  0  0  0
  194.6100  176.5980  145.5120 C   0  0  0  0  0  2  0  0  0  0  0  0
  195.3310  174.2430  144.7530 C   0  0  0  0  0  0  0  0  0  0  0  0
  194.0540  173.6410  145.3630 C   0  0  0  0  0  2  0  0  0  0  0  0
  196.4600  174.0940  145.7640 C   0  0  0  0  0  1  0  0  0  0  0  0
  196.3850  176.3860  143.7740 C   0  0  0  0  0  2  0  0  0  0  0  0
  196.1510  176.7880  142.4600 O   0  0  0  0  0  1  0  0  0  0  0  0
  186.9170  177.3140  145.9000 C   0  0  1  0  0  3  0  0  0  0  0  0
  185.2770  178.5670  144.4330 C   0  0  0  0  0  0  0  0  0  0  0  0
  185.7460  177.3580  145.0290 N   0  0  0  0  0  2  0  0  0  0  0  0
  185.8890  179.6540  144.6150 O   0  0  0  0  0  0  0  0  0  0  0  0
  184.1080  178.5450  143.6230 N   0  0  0  0  0  1  0  0  0  0  0  0
  186.5090  176.8280  147.2910 C   0  0  0  0  0  2  0  0  0  0  0  0
  185.9020  177.8560  148.0150 O   0  0  0  0  0  1  0  0  0  0  0  0
  2 20  1  1  0  0  0
  2  7  1  0  0  0  0
  3  7  1  0  0  0  0
  3  4  1  0  0  0  0
  4  1  2  0  0  0  0
  6  8  2  0  0  0  0
  6  2  1  0  0  0  0
  7  5  2  0  0  0  0
  8  3  1  0  0  0  0
  9  4  1  0  0  0  0
 10 15  1  0  0  0  0
 11 13  1  0  0  0  0
 12 18  1  1  0  0  0
 12 15  1  0  0  0  0
 12 14  1  0  0  0  0
 13  9  1  6  0  0  0
 14 13  1  0  0  0  0
 15 16  1  0  0  0  0
 15 17  1  0  0  0  0
 16 11  1  0  0  0  0
 19 18  1  0  0  0  0
 20 25  1  1  0  0  0
 21 23  2  0  0  0  0
 21 22  1  0  0  0  0
 22 20  1  0  0  0  0
 24 21  1  0  0  0  0
 25 26  1  0  0  0  0
M  END
>  <MODEL>
6

>  <REMARK>
 VINA RESULT:      -6.2      2.755      8.513
  Name = 
  6 active torsions:
  status: ('A' for Active; 'I' for Inactive)
    1  A    between atoms: C_2  and  CA_22
    2  A    between atoms: C_4  and  CA_22
    3  A    between atoms: C_8  and  C_17
    4  A    between atoms: C_10  and  C_16
    5  A    between atoms: N_11  and  CA_22
    6  A    between atoms: C_15  and  C_17
                            x       y       z     vdW  Elec       q    Type
                         _______ _______ _______ _____ _____    ______ ____

>  <TORSDO>
F 6

$$$$
=
 OpenBabel11072408503D

 26 27  0  0  1  0  0  0  0  0999 V2000
  188.8360  174.9970  146.4420 O   0  0  0  0  0  0  0  0  0  0  0  0
  191.2850  173.4790  143.1680 C   0  0  1  0  0  3  0  0  0  0  0  0
  190.3490  175.1360  144.6600 N   0  0  0  0  0  0  0  0  0  0  0  0
  189.5540  175.7220  145.7040 C   0  0  0  0  0  0  0  0  0  0  0  0
  189.8120  172.8660  144.9880 O   0  0  0  0  0  0  0  0  0  0  0  0
  191.9100  174.8530  142.8800 C   0  0  0  0  0  3  0  0  0  0  0  0
  190.4120  173.7610  144.3330 C   0  0  0  0  0  0  0  0  0  0  0  0
  191.1960  175.8890  143.7580 C   0  0  0  0  0  3  0  0  0  0  0  0
  189.5420  177.2020  145.9110 C   0  0  0  0  0  2  0  0  0  0  0  0
  184.4430  177.9210  143.3680 C   0  0  0  0  0  1  0  0  0  0  0  0
  188.0470  177.2040  143.9000 C   0  0  0  0  0  2  0  0  0  0  0  0
  185.7750  177.4990  145.4640 C   0  0  2  0  0  3  0  0  0  0  0  0
  188.3180  177.8270  145.2650 C   0  0  1  0  0  3  0  0  0  0  0  0
  187.1130  177.6720  146.1980 C   0  0  0  0  0  2  0  0  0  0  0  0
  185.7110  178.2780  144.1220 C   0  0  0  0  0  0  0  0  0  0  0  0
  186.8980  177.9360  143.2050 C   0  0  0  0  0  2  0  0  0  0  0  0
  185.7150  179.7810  144.3670 C   0  0  0  0  0  1  0  0  0  0  0  0
  184.6350  177.8260  146.4240 C   0  0  0  0  0  2  0  0  0  0  0  0
  185.1430  178.3060  147.6310 O   0  0  0  0  0  1  0  0  0  0  0  0
  190.4650  173.0060  141.9620 C   0  0  1  0  0  3  0  0  0  0  0  0
  188.4890  174.4540  141.3200 C   0  0  0  0  0  0  0  0  0  0  0  0
  189.8820  174.1470  141.2620 N   0  0  0  0  0  2  0  0  0  0  0  0
  187.7050  173.7570  142.0170 O   0  0  0  0  0  0  0  0  0  0  0  0
  187.9810  175.5620  140.5840 N   0  0  0  0  0  1  0  0  0  0  0  0
  191.3100  172.1810  140.9920 C   0  0  0  0  0  2  0  0  0  0  0  0
  190.7120  172.1370  139.7300 O   0  0  0  0  0  1  0  0  0  0  0  0
  2 20  1  6  0  0  0
  2  7  1  0  0  0  0
  3  4  1  0  0  0  0
  4  9  1  0  0  0  0
  4  1  2  0  0  0  0
  6  2  1  0  0  0  0
  6  8  2  0  0  0  0
  7  3  1  0  0  0  0
  7  5  2  0  0  0  0
  8  3  1  0  0  0  0
 10 15  1  0  0  0  0
 11 13  1  0  0  0  0
 12 14  1  0  0  0  0
 12 18  1  1  0  0  0
 13  9  1  1  0  0  0
 13 14  1  0  0  0  0
 15 17  1  0  0  0  0
 15 12  1  0  0  0  0
 16 11  1  0  0  0  0
 16 15  1  0  0  0  0
 18 19  1  0  0  0  0
 20 25  1  6  0  0  0
 21 23  2  0  0  0  0
 22 21  1  0  0  0  0
 22 20  1  0  0  0  0
 24 21  1  0  0  0  0
 26 25  1  0  0  0  0
M  END
>  <MODEL>
7

>  <REMARK>
 VINA RESULT:      -6.2      3.465      4.729
  Name = 
  6 active torsions:
  status: ('A' for Active; 'I' for Inactive)
    1  A    between atoms: C_2  and  CA_22
    2  A    between atoms: C_4  and  CA_22
    3  A    between atoms: C_8  and  C_17
    4  A    between atoms: C_10  and  C_16
    5  A    between atoms: N_11  and  CA_22
    6  A    between atoms: C_15  and  C_17
                            x       y       z     vdW  Elec       q    Type
                         _______ _______ _______ _____ _____    ______ ____

>  <TORSDO>
F 6

$$$$
=
 OpenBabel11072408503D

 26 27  0  0  1  0  0  0  0  0999 V2000
  192.0520  177.0660  143.5880 O   0  0  0  0  0  0  0  0  0  0  0  0
  187.7360  177.6270  143.8760 C   0  0  1  0  0  3  0  0  0  0  0  0
  189.9530  177.0170  144.6250 N   0  0  0  0  0  0  0  0  0  0  0  0
  191.3700  176.7780  144.6060 C   0  0  0  0  0  0  0  0  0  0  0  0
  189.6880  177.9580  142.4820 O   0  0  0  0  0  0  0  0  0  0  0  0
  187.6910  177.2070  145.3530 C   0  0  0  0  0  3  0  0  0  0  0  0
  189.1840  177.5540  143.5650 C   0  0  0  0  0  0  0  0  0  0  0  0
  189.0880  176.7090  145.7450 C   0  0  0  0  0  3  0  0  0  0  0  0
  192.0520  176.1570  145.7820 C   0  0  0  0  0  2  0  0  0  0  0  0
  196.5860  172.6320  145.7330 C   0  0  0  0  0  1  0  0  0  0  0  0
  194.4420  175.6100  146.2970 C   0  0  0  0  0  2  0  0  0  0  0  0
  194.0900  172.9480  145.6010 C   0  0  2  0  0  3  0  0  0  0  0  0
  193.2780  175.3740  145.3430 C   0  0  1  0  0  3  0  0  0  0  0  0
  192.9270  173.8870  145.2470 C   0  0  0  0  0  2  0  0  0  0  0  0
  195.4770  173.5180  145.1950 C   0  0  0  0  0  0  0  0  0  0  0  0
  195.7050  174.9280  145.7670 C   0  0  0  0  0  2  0  0  0  0  0  0
  195.6120  173.5890  143.6810 C   0  0  0  0  0  1  0  0  0  0  0  0
  193.8010  171.5620  145.0330 C   0  0  0  0  0  2  0  0  0  0  0  0
  192.5790  171.5600  144.3610 O   0  0  0  0  0  1  0  0  0  0  0  0
  186.9350  176.6390  143.0190 C   0  0  1  0  0  3  0  0  0  0  0  0
  185.1470  177.9010  141.7440 C   0  0  0  0  0  0  0  0  0  0  0  0
  186.4390  177.2950  141.8130 N   0  0  0  0  0  2  0  0  0  0  0  0
  184.3910  177.9190  142.7510 O   0  0  0  0  0  0  0  0  0  0  0  0
  184.7120  178.4920  140.5250 N   0  0  0  0  0  1  0  0  0  0  0  0
  187.7700  175.4170  142.6370 C   0  0  0  0  0  2  0  0  0  0  0  0
  187.8640  175.2980  141.2480 O   0  0  0  0  0  1  0  0  0  0  0  0
  1  4  2  0  0  0  0
  2 20  1  6  0  0  0
  2  6  1  0  0  0  0
  3  8  1  0  0  0  0
  4  3  1  0  0  0  0
  4  9  1  0  0  0  0
  5  7  2  0  0  0  0
  6  8  2  0  0  0  0
  7  2  1  0  0  0  0
  7  3  1  0  0  0  0
 12 18  1  6  0  0  0
 13  9  1  1  0  0  0
 13 11  1  0  0  0  0
 14 13  1  0  0  0  0
 14 12  1  0  0  0  0
 15 12  1  0  0  0  0
 15 10  1  0  0  0  0
 15 16  1  0  0  0  0
 16 11  1  0  0  0  0
 17 15  1  0  0  0  0
 19 18  1  0  0  0  0
 20 25  1  6  0  0  0
 21 22  1  0  0  0  0
 21 23  2  0  0  0  0
 22 20  1  0  0  0  0
 24 21  1  0  0  0  0
 26 25  1  0  0  0  0
M  END
>  <MODEL>
8

>  <REMARK>
 VINA RESULT:      -6.1      2.845      8.517
  Name = 
  6 active torsions:
  status: ('A' for Active; 'I' for Inactive)
    1  A    between atoms: C_2  and  CA_22
    2  A    between atoms: C_4  and  CA_22
    3  A    between atoms: C_8  and  C_17
    4  A    between atoms: C_10  and  C_16
    5  A    between atoms: N_11  and  CA_22
    6  A    between atoms: C_15  and  C_17
                            x       y       z     vdW  Elec       q    Type
                         _______ _______ _______ _____ _____    ______ ____

>  <TORSDO>
F 6

$$$$
=
 OpenBabel11072408503D

 26 27  0  0  1  0  0  0  0  0999 V2000
  189.5610  173.5730  143.2340 O   0  0  0  0  0  0  0  0  0  0  0  0
  187.5440  177.4220  143.6050 C   0  0  1  0  0  3  0  0  0  0  0  0
  188.9800  175.5920  144.2670 N   0  0  0  0  0  0  0  0  0  0  0  0
  189.6620  174.3280  144.2370 C   0  0  0  0  0  0  0  0  0  0  0  0
  187.9600  175.5380  142.1440 O   0  0  0  0  0  0  0  0  0  0  0  0
  188.2340  177.7550  144.9370 C   0  0  0  0  0  3  0  0  0  0  0  0
  188.1450  176.1140  143.2510 C   0  0  0  0  0  0  0  0  0  0  0  0
  189.0290  176.5200  145.3780 C   0  0  0  0  0  3  0  0  0  0  0  0
  190.4760  173.8750  145.4050 C   0  0  0  0  0  2  0  0  0  0  0  0
  196.1710  174.1980  146.0690 C   0  0  0  0  0  1  0  0  0  0  0  0
  192.5380  174.8850  146.4070 C   0  0  0  0  0  2  0  0  0  0  0  0
  194.1450  172.8650  145.3910 C   0  0  2  0  0  3  0  0  0  0  0  0
  191.9470  174.1850  145.1890 C   0  0  1  0  0  3  0  0  0  0  0  0
  192.7000  172.8900  144.8690 C   0  0  0  0  0  2  0  0  0  0  0  0
  194.8210  174.2630  145.3780 C   0  0  0  0  0  0  0  0  0  0  0  0
  193.9790  175.3130  146.1220 C   0  0  0  0  0  2  0  0  0  0  0  0
  195.0370  174.7480  143.9510 C   0  0  0  0  0  1  0  0  0  0  0  0
  194.9260  171.7920  144.6380 C   0  0  0  0  0  2  0  0  0  0  0  0
  194.0500  170.9120  144.0040 O   0  0  0  0  0  1  0  0  0  0  0  0
  186.0290  177.2990  143.8080 C   0  0  1  0  0  3  0  0  0  0  0  0
  185.1210  177.6640  146.1440 C   0  0  0  0  0  0  0  0  0  0  0  0
  185.5870  178.1700  144.8930 N   0  0  0  0  0  2  0  0  0  0  0  0
  185.1060  176.4250  146.3710 O   0  0  0  0  0  0  0  0  0  0  0  0
  184.6710  178.5680  147.1460 N   0  0  0  0  0  1  0  0  0  0  0  0
  185.2580  177.6320  142.5310 C   0  0  0  0  0  2  0  0  0  0  0  0
  184.0050  178.1670  142.8360 O   0  0  0  0  0  1  0  0  0  0  0  0
  1  4  2  0  0  0  0
  2 20  1  1  0  0  0
  2  6  1  0  0  0  0
  3  8  1  0  0  0  0
  4  3  1  0  0  0  0
  4  9  1  0  0  0  0
  5  7  2  0  0  0  0
  6  8  2  0  0  0  0
  7  2  1  0  0  0  0
  7  3  1  0  0  0  0
 12 18  1  6  0  0  0
 13  9  1  1  0  0  0
 13 11  1  0  0  0  0
 14 13  1  0  0  0  0
 14 12  1  0  0  0  0
 15 12  1  0  0  0  0
 15 10  1  0  0  0  0
 15 16  1  0  0  0  0
 16 11  1  0  0  0  0
 17 15  1  0  0  0  0
 19 18  1  0  0  0  0
 20 25  1  6  0  0  0
 20 22  1  0  0  0  0
 21 23  2  0  0  0  0
 21 24  1  0  0  0  0
 22 21  1  0  0  0  0
 25 26  1  0  0  0  0
M  END
>  <MODEL>
9

>  <REMARK>
 VINA RESULT:      -6.1      2.870      8.774
  Name = 
  6 active torsions:
  status: ('A' for Active; 'I' for Inactive)
    1  A    between atoms: C_2  and  CA_22
    2  A    between atoms: C_4  and  CA_22
    3  A    between atoms: C_8  and  C_17
    4  A    between atoms: C_10  and  C_16
    5  A    between atoms: N_11  and  CA_22
    6  A    between atoms: C_15  and  C_17
                            x       y       z     vdW  Elec       q    Type
                         _______ _______ _______ _____ _____    ______ ____

>  <TORSDO>
F 6

$$$$
