=
 OpenBabel11062419473D

 46 51  0  0  1  0  0  0  0  0999 V2000
  190.4170  173.8000  144.1430 C   0  0  1  0  0  3  0  0  0  0  0  0
  189.6850  172.9700  145.2000 C   0  0  0  0  0  1  0  0  0  0  0  0
  189.9270  177.6330  143.2720 C   0  0  0  0  0  2  0  0  0  0  0  0
  189.2430  175.7440  145.3450 C   0  0  0  0  0  3  0  0  0  0  0  0
  190.3030  175.3220  144.3610 C   0  0  2  0  0  3  0  0  0  0  0  0
  190.2050  176.1290  143.0470 C   0  0  1  0  0  3  0  0  0  0  0  0
  189.8390  178.0410  144.7500 C   0  0  0  0  0  2  0  0  0  0  0  0
  189.0160  177.0470  145.5320 C   0  0  0  0  0  0  0  0  0  0  0  0
  186.8040  178.2130  145.6490 C   0  0  0  0  0  2  0  0  0  0  0  0
  187.8960  177.4780  146.4330 C   0  0  1  0  0  3  0  0  0  0  0  0
  185.6030  177.5540  146.1590 C   0  0  0  0  0  0  0  0  0  0  0  0
  187.3020  176.3350  147.1510 N   0  0  0  0  0  0  0  0  0  0  0  0
  185.9150  176.4940  147.0230 N   0  0  0  0  0  0  0  0  0  0  0  0
  184.4260  177.8830  145.8680 O   0  0  0  0  0  0  0  0  0  0  0  0
  189.1400  175.5660  142.1150 C   0  0  0  0  0  2  0  0  0  0  0  0
  188.3160  176.7010  141.5190 C   0  0  1  0  0  3  0  0  0  0  0  0
  187.2530  176.1300  140.5870 C   0  0  0  0  0  2  0  0  0  0  0  0
  186.8490  176.6740  141.9410 C   0  0  1  0  0  0  0  0  0  0  0  0
  186.3900  175.6160  142.9390 C   0  0  0  0  0  1  0  0  0  0  0  0
  184.6990  178.0410  142.2920 C   0  0  0  0  0  2  0  0  0  0  0  0
  186.8570  179.1110  142.5520 O   0  0  0  0  0  1  0  0  0  0  0  0
  185.1720  178.4330  140.8970 C   0  0  0  0  0  2  0  0  0  0  0  0
  186.1740  178.0470  141.9630 C   0  0  0  0  0  0  0  0  0  0  0  0
  191.8630  173.3140  143.8420 C   0  0  1  0  0  0  0  0  0  0  0  0
  193.5960  175.2240  144.3940 N   0  0  0  0  0  0  0  0  0  0  0  0
  192.8360  174.3860  144.1510 C   0  0  0  0  0  0  0  0  0  0  0  0
  193.5790  172.0510  144.7780 C   0  0  0  0  0  1  0  0  0  0  0  0
  192.1890  172.1350  144.5670 O   0  0  0  0  0  0  0  0  0  0  0  0
  192.0180  173.0210  142.3440 C   0  0  0  0  0  2  0  0  0  0  0  0
  191.3460  171.7840  141.9730 N   0  0  0  0  0  2  0  0  0  0  0  0
  191.1590  171.8150  140.5330 C   0  0  0  0  0  2  0  0  0  0  0  0
  188.8140  173.2790  138.3970 N   0  0  0  0  0  2  0  0  0  0  0  0
  192.3720  174.0050  138.5020 C   0  0  0  0  0  3  0  0  0  0  0  0
  191.0750  173.6150  138.8260 C   0  0  0  0  0  0  0  0  0  0  0  0
  192.6300  174.4370  137.2330 N   0  0  0  0  0  0  0  0  0  0  0  0
  188.2140  172.5610  140.5570 O   0  0  0  0  0  0  0  0  0  0  0  0
  191.6510  174.5040  136.2790 C   0  0  0  0  0  3  0  0  0  0  0  0
  190.0750  173.6800  137.8830 C   0  0  0  0  0  0  0  0  0  0  0  0
  190.3330  174.1280  136.5860 C   0  0  0  0  0  0  0  0  0  0  0  0
  189.1020  172.9540  139.7560 C   0  0  0  0  0  0  0  0  0  0  0  0
  190.5400  173.1450  140.1380 C   0  0  1  0  0  3  0  0  0  0  0  0
  189.2610  174.2280  135.5500 C   0  0  0  0  0  2  0  0  0  0  0  0
  187.5250  175.6680  136.4640 O   0  0  0  0  0  1  0  0  0  0  0  0
  188.4980  177.7340  134.9270 O   0  0  0  0  0  0  0  0  0  0  0  0
  189.0530  176.6070  134.8490 C   0  0  0  0  0  3  0  0  0  0  0  0
  188.5840  175.5120  135.6350 N   0  0  0  0  0  0  0  0  0  0  0  0
  1  2  1  1  0  0  0
  3  7  1  0  0  0  0
  4  8  2  0  0  0  0
  5  1  1  6  0  0  0
  5  4  1  0  0  0  0
  6 15  1  6  0  0  0
  6  3  1  0  0  0  0
  6  5  1  0  0  0  0
  7  8  1  0  0  0  0
  9 11  1  0  0  0  0
  9 10  1  0  0  0  0
 10  8  1  6  0  0  0
 10 12  1  0  0  0  0
 11 13  1  0  0  0  0
 13 12  2  0  0  0  0
 14 11  2  0  0  0  0
 16 18  1  0  0  0  0
 16 15  1  1  0  0  0
 17 16  1  0  0  0  0
 17 18  1  0  0  0  0
 18 23  1  0  0  0  0
 18 19  1  1  0  0  0
 22 23  1  0  0  0  0
 22 20  1  0  0  0  0
 23 20  1  0  0  0  0
 23 21  1  0  0  0  0
 24 29  1  6  0  0  0
 24  1  1  0  0  0  0
 24 26  1  0  0  0  0
 24 28  1  0  0  0  0
 26 25  3  0  0  0  0
 28 27  1  0  0  0  0
 30 29  1  0  0  0  0
 31 30  1  0  0  0  0
 32 40  1  0  0  0  0
 33 34  1  0  0  0  0
 34 41  1  0  0  0  0
 35 33  2  0  0  0  0
 37 39  2  0  0  0  0
 37 35  1  0  0  0  0
 38 32  1  0  0  0  0
 38 34  2  0  0  0  0
 39 38  1  0  0  0  0
 40 41  1  0  0  0  0
 40 36  2  0  0  0  0
 41 31  1  6  0  0  0
 42 46  1  0  0  0  0
 42 39  1  0  0  0  0
 45 44  2  0  0  0  0
 45 46  1  0  0  0  0
 46 43  1  0  0  0  0
M  END
>  <MODEL>
1

>  <REMARK>
 VINA RESULT:      -6.6      0.000      0.000
  Name = 
  14 active torsions:
  status: ('A' for Active; 'I' for Inactive)
    1  A    between atoms: C_1  and  C_43
    2  A    between atoms: C_6  and  N_38
    3  A    between atoms: C_6  and  C_46
    4  A    between atoms: C_12  and  C_42
    5  A    between atoms: C_13  and  C_32
    6  A    between atoms: C_13  and  N_39
    7  A    between atoms: C_17  and  C_26
    8  A    between atoms: C_21  and  N_38
    9  A    between atoms: C_21  and  C_44
   10  A    between atoms: C_23  and  C_34
   11  A    between atoms: C_26  and  C_46
   12  A    between atoms: O_29  and  C_46
   13  A    between atoms: C_35  and  C_43
   14  A    between atoms: C_36  and  C_46
                            x       y       z     vdW  Elec       q    Type
                         _______ _______ _______ _____ _____    ______ ____

>  <TORSDO>
F 14

$$$$
=
 OpenBabel11062419473D

 46 51  0  0  1  0  0  0  0  0999 V2000
  193.0350  175.4550  143.9670 C   0  0  1  0  0  3  0  0  0  0  0  0
  192.8010  176.4100  142.7950 C   0  0  0  0  0  1  0  0  0  0  0  0
  190.0200  173.7080  145.8510 C   0  0  0  0  0  2  0  0  0  0  0  0
  190.7680  174.5310  143.1870 C   0  0  0  0  0  3  0  0  0  0  0  0
  191.8650  174.4830  144.2190 C   0  0  2  0  0  3  0  0  0  0  0  0
  191.2930  174.5630  145.6530 C   0  0  1  0  0  3  0  0  0  0  0  0
  189.5910  172.9210  144.6040 C   0  0  0  0  0  2  0  0  0  0  0  0
  189.6750  173.7850  143.3700 C   0  0  0  0  0  0  0  0  0  0  0  0
  188.8790  174.8500  141.2490 C   0  0  0  0  0  2  0  0  0  0  0  0
  188.5350  173.8990  142.4010 C   0  0  1  0  0  3  0  0  0  0  0  0
  188.4440  174.0610  140.0980 C   0  0  0  0  0  0  0  0  0  0  0  0
  188.1460  172.5860  141.8560 N   0  0  0  0  0  0  0  0  0  0  0  0
  188.0190  172.7790  140.4740 N   0  0  0  0  0  0  0  0  0  0  0  0
  188.4450  174.4670  138.9090 O   0  0  0  0  0  0  0  0  0  0  0  0
  190.9910  175.9980  146.0630 C   0  0  0  0  0  2  0  0  0  0  0  0
  189.5010  176.1610  146.3310 C   0  0  1  0  0  3  0  0  0  0  0  0
  189.2300  177.5500  146.9000 C   0  0  0  0  0  2  0  0  0  0  0  0
  188.8420  177.2360  145.4700 C   0  0  1  0  0  0  0  0  0  0  0  0
  189.6800  177.9480  144.4140 C   0  0  0  0  0  1  0  0  0  0  0  0
  186.4320  178.1300  145.5750 C   0  0  0  0  0  2  0  0  0  0  0  0
  186.9990  176.3880  143.9880 O   0  0  0  0  0  1  0  0  0  0  0  0
  186.3780  176.8070  146.3290 C   0  0  0  0  0  2  0  0  0  0  0  0
  187.3570  176.9970  145.1910 C   0  0  0  0  0  0  0  0  0  0  0  0
  194.4310  174.7700  143.9610 C   0  0  1  0  0  0  0  0  0  0  0  0
  196.0540  176.0260  142.3060 N   0  0  0  0  0  0  0  0  0  0  0  0
  195.3410  175.4750  143.0320 C   0  0  0  0  0  0  0  0  0  0  0  0
  194.7830  175.9310  145.9470 C   0  0  0  0  0  1  0  0  0  0  0  0
  195.0040  174.7200  145.2630 O   0  0  0  0  0  0  0  0  0  0  0  0
  194.3100  173.3360  143.4290 C   0  0  0  0  0  2  0  0  0  0  0  0
  194.8730  173.2170  142.0930 N   0  0  0  0  0  2  0  0  0  0  0  0
  194.1520  172.1500  141.4190 C   0  0  0  0  0  2  0  0  0  0  0  0
  191.0380  170.9880  140.3420 N   0  0  0  0  0  2  0  0  0  0  0  0
  192.7710  173.9390  139.1200 C   0  0  0  0  0  3  0  0  0  0  0  0
  192.3280  172.8720  139.8990 C   0  0  0  0  0  0  0  0  0  0  0  0
  192.2780  174.0750  137.8540 N   0  0  0  0  0  0  0  0  0  0  0  0
  191.7630  170.6570  142.5570 O   0  0  0  0  0  0  0  0  0  0  0  0
  191.3590  173.2030  137.3380 C   0  0  0  0  0  3  0  0  0  0  0  0
  191.4000  171.9870  139.4000 C   0  0  0  0  0  0  0  0  0  0  0  0
  190.8880  172.1290  138.1090 C   0  0  0  0  0  0  0  0  0  0  0  0
  191.8200  171.3200  141.4890 C   0  0  0  0  0  0  0  0  0  0  0  0
  192.6860  172.5310  141.3070 C   0  0  1  0  0  3  0  0  0  0  0  0
  189.8650  171.1930  137.5510 C   0  0  0  0  0  2  0  0  0  0  0  0
  190.1460  168.7860  137.7820 O   0  0  0  0  0  1  0  0  0  0  0  0
  191.9610  168.8490  135.7140 O   0  0  0  0  0  0  0  0  0  0  0  0
  191.4340  169.9280  136.0910 C   0  0  0  0  0  3  0  0  0  0  0  0
  190.4820  169.9370  137.1540 N   0  0  0  0  0  0  0  0  0  0  0  0
  1  2  1  6  0  0  0
  4  8  2  0  0  0  0
  4  5  1  0  0  0  0
  5  1  1  6  0  0  0
  5  6  1  0  0  0  0
  6  3  1  0  0  0  0
  6 15  1  6  0  0  0
  7  3  1  0  0  0  0
  8  7  1  0  0  0  0
  9 10  1  0  0  0  0
 10  8  1  1  0  0  0
 11 13  1  0  0  0  0
 11  9  1  0  0  0  0
 12 10  1  0  0  0  0
 13 12  2  0  0  0  0
 14 11  2  0  0  0  0
 16 15  1  6  0  0  0
 16 17  1  0  0  0  0
 18 19  1  6  0  0  0
 18 16  1  0  0  0  0
 18 17  1  0  0  0  0
 20 22  1  0  0  0  0
 21 23  1  0  0  0  0
 23 18  1  0  0  0  0
 23 20  1  0  0  0  0
 23 22  1  0  0  0  0
 24 26  1  6  0  0  0
 24  1  1  0  0  0  0
 24 28  1  0  0  0  0
 25 26  3  0  0  0  0
 28 27  1  0  0  0  0
 29 24  1  0  0  0  0
 30 29  1  0  0  0  0
 31 30  1  0  0  0  0
 32 40  1  0  0  0  0
 33 34  1  0  0  0  0
 34 41  1  0  0  0  0
 35 33  2  0  0  0  0
 37 35  1  0  0  0  0
 37 39  2  0  0  0  0
 38 34  2  0  0  0  0
 38 32  1  0  0  0  0
 39 38  1  0  0  0  0
 40 36  2  0  0  0  0
 41 31  1  6  0  0  0
 41 40  1  0  0  0  0
 42 39  1  0  0  0  0
 44 45  2  0  0  0  0
 45 46  1  0  0  0  0
 46 42  1  0  0  0  0
 46 43  1  0  0  0  0
M  END
>  <MODEL>
2

>  <REMARK>
 VINA RESULT:      -6.5      2.739      4.747
  Name = 
  14 active torsions:
  status: ('A' for Active; 'I' for Inactive)
    1  A    between atoms: C_1  and  C_43
    2  A    between atoms: C_6  and  N_38
    3  A    between atoms: C_6  and  C_46
    4  A    between atoms: C_12  and  C_42
    5  A    between atoms: C_13  and  C_32
    6  A    between atoms: C_13  and  N_39
    7  A    between atoms: C_17  and  C_26
    8  A    between atoms: C_21  and  N_38
    9  A    between atoms: C_21  and  C_44
   10  A    between atoms: C_23  and  C_34
   11  A    between atoms: C_26  and  C_46
   12  A    between atoms: O_29  and  C_46
   13  A    between atoms: C_35  and  C_43
   14  A    between atoms: C_36  and  C_46
                            x       y       z     vdW  Elec       q    Type
                         _______ _______ _______ _____ _____    ______ ____

>  <TORSDO>
F 14

$$$$
=
 OpenBabel11062419473D

 46 51  0  0  1  0  0  0  0  0999 V2000
  192.3970  172.6310  140.4600 C   0  0  1  0  0  3  0  0  0  0  0  0
  192.6610  173.9430  139.7180 C   0  0  0  0  0  1  0  0  0  0  0  0
  194.2140  172.1860  143.9530 C   0  0  0  0  0  2  0  0  0  0  0  0
  192.5910  174.1170  142.5480 C   0  0  0  0  0  3  0  0  0  0  0  0
  192.6340  172.7220  141.9810 C   0  0  2  0  0  3  0  0  0  0  0  0
  193.8900  171.9580  142.4570 C   0  0  1  0  0  3  0  0  0  0  0  0
  193.2110  173.0920  144.6810 C   0  0  0  0  0  2  0  0  0  0  0  0
  192.8700  174.2980  143.8420 C   0  0  0  0  0  0  0  0  0  0  0  0
  192.3430  176.7060  143.4050 C   0  0  0  0  0  2  0  0  0  0  0  0
  192.9290  175.6920  144.3940 C   0  0  1  0  0  3  0  0  0  0  0  0
  191.4740  177.4850  144.2850 C   0  0  0  0  0  0  0  0  0  0  0  0
  192.2230  175.8000  145.6840 N   0  0  0  0  0  0  0  0  0  0  0  0
  191.4340  176.9530  145.5820 N   0  0  0  0  0  0  0  0  0  0  0  0
  190.8340  178.5080  143.9380 O   0  0  0  0  0  0  0  0  0  0  0  0
  195.1170  172.3140  141.6290 C   0  0  0  0  0  2  0  0  0  0  0  0
  196.1880  172.9300  142.5200 C   0  0  1  0  0  3  0  0  0  0  0  0
  197.4490  173.1890  141.7040 C   0  0  0  0  0  2  0  0  0  0  0  0
  196.5710  174.3510  142.1170 C   0  0  1  0  0  0  0  0  0  0  0  0
  195.8200  175.0180  140.9700 C   0  0  0  0  0  1  0  0  0  0  0  0
  196.3110  176.5110  143.4900 C   0  0  0  0  0  2  0  0  0  0  0  0
  197.4310  174.5960  144.4660 O   0  0  0  0  0  1  0  0  0  0  0  0
  197.7550  176.5440  143.0030 C   0  0  0  0  0  2  0  0  0  0  0  0
  197.0700  175.2220  143.2720 C   0  0  0  0  0  0  0  0  0  0  0  0
  191.0610  171.9370  140.0720 C   0  0  1  0  0  0  0  0  0  0  0  0
  190.9680  171.5380  137.4670 N   0  0  0  0  0  0  0  0  0  0  0  0
  191.0080  171.7140  138.6100 C   0  0  0  0  0  0  0  0  0  0  0  0
  191.7000  169.7040  140.2030 C   0  0  0  0  0  1  0  0  0  0  0  0
  190.8830  170.7060  140.7610 O   0  0  0  0  0  0  0  0  0  0  0  0
  189.8770  172.8550  140.4030 C   0  0  0  0  0  2  0  0  0  0  0  0
  188.9510  172.2140  141.3250 N   0  0  0  0  0  2  0  0  0  0  0  0
  188.0890  173.2550  141.8570 C   0  0  0  0  0  2  0  0  0  0  0  0
  188.5450  175.5170  144.4810 N   0  0  0  0  0  2  0  0  0  0  0  0
  187.7630  176.3550  141.0330 C   0  0  0  0  0  3  0  0  0  0  0  0
  188.2000  175.7120  142.1890 C   0  0  0  0  0  0  0  0  0  0  0  0
  187.1260  177.5570  141.1520 N   0  0  0  0  0  0  0  0  0  0  0  0
  189.6990  173.4660  144.4250 O   0  0  0  0  0  0  0  0  0  0  0  0
  186.9170  178.1480  142.3680 C   0  0  0  0  0  3  0  0  0  0  0  0
  188.0040  176.2920  143.4220 C   0  0  0  0  0  0  0  0  0  0  0  0
  187.3600  177.5250  143.5460 C   0  0  0  0  0  0  0  0  0  0  0  0
  189.1060  174.3900  143.8090 C   0  0  0  0  0  0  0  0  0  0  0  0
  188.9430  174.4240  142.3190 C   0  0  1  0  0  3  0  0  0  0  0  0
  187.1530  178.1850  144.8710 C   0  0  0  0  0  2  0  0  0  0  0  0
  185.4580  176.7170  145.8180 O   0  0  0  0  0  1  0  0  0  0  0  0
  183.6910  178.8280  145.7990 O   0  0  0  0  0  0  0  0  0  0  0  0
  184.8560  179.0080  145.3580 C   0  0  0  0  0  3  0  0  0  0  0  0
  185.8040  177.9430  145.3580 N   0  0  0  0  0  0  0  0  0  0  0  0
  1  2  1  1  0  0  0
  3  7  1  0  0  0  0
  4  8  2  0  0  0  0
  5  1  1  6  0  0  0
  5  6  1  0  0  0  0
  5  4  1  0  0  0  0
  6 15  1  6  0  0  0
  6  3  1  0  0  0  0
  8  7  1  0  0  0  0
  9 11  1  0  0  0  0
  9 10  1  0  0  0  0
 10  8  1  6  0  0  0
 10 12  1  0  0  0  0
 11 13  1  0  0  0  0
 13 12  2  0  0  0  0
 14 11  2  0  0  0  0
 16 15  1  6  0  0  0
 17 18  1  0  0  0  0
 17 16  1  0  0  0  0
 18 19  1  6  0  0  0
 18 16  1  0  0  0  0
 18 23  1  0  0  0  0
 22 23  1  0  0  0  0
 22 20  1  0  0  0  0
 23 20  1  0  0  0  0
 23 21  1  0  0  0  0
 24 26  1  6  0  0  0
 24 29  1  0  0  0  0
 24  1  1  0  0  0  0
 24 28  1  0  0  0  0
 25 26  3  0  0  0  0
 27 28  1  0  0  0  0
 29 30  1  0  0  0  0
 30 31  1  0  0  0  0
 33 35  2  0  0  0  0
 33 34  1  0  0  0  0
 34 41  1  0  0  0  0
 34 38  2  0  0  0  0
 35 37  1  0  0  0  0
 37 39  2  0  0  0  0
 38 39  1  0  0  0  0
 38 32  1  0  0  0  0
 39 42  1  0  0  0  0
 40 36  2  0  0  0  0
 40 32  1  0  0  0  0
 41 31  1  1  0  0  0
 41 40  1  0  0  0  0
 42 46  1  0  0  0  0
 45 46  1  0  0  0  0
 45 44  2  0  0  0  0
 46 43  1  0  0  0  0
M  END
>  <MODEL>
3

>  <REMARK>
 VINA RESULT:      -6.5      2.953      7.551
  Name = 
  14 active torsions:
  status: ('A' for Active; 'I' for Inactive)
    1  A    between atoms: C_1  and  C_43
    2  A    between atoms: C_6  and  N_38
    3  A    between atoms: C_6  and  C_46
    4  A    between atoms: C_12  and  C_42
    5  A    between atoms: C_13  and  C_32
    6  A    between atoms: C_13  and  N_39
    7  A    between atoms: C_17  and  C_26
    8  A    between atoms: C_21  and  N_38
    9  A    between atoms: C_21  and  C_44
   10  A    between atoms: C_23  and  C_34
   11  A    between atoms: C_26  and  C_46
   12  A    between atoms: O_29  and  C_46
   13  A    between atoms: C_35  and  C_43
   14  A    between atoms: C_36  and  C_46
                            x       y       z     vdW  Elec       q    Type
                         _______ _______ _______ _____ _____    ______ ____

>  <TORSDO>
F 14

$$$$
=
 OpenBabel11062419473D

 46 51  0  0  1  0  0  0  0  0999 V2000
  188.9340  174.1130  141.3870 C   0  0  1  0  0  3  0  0  0  0  0  0
  187.7540  173.4120  142.0620 C   0  0  0  0  0  1  0  0  0  0  0  0
  189.3970  177.8730  142.5460 C   0  0  0  0  0  2  0  0  0  0  0  0
  189.3100  175.2180  143.6770 C   0  0  0  0  0  3  0  0  0  0  0  0
  189.4770  175.3180  142.1830 C   0  0  2  0  0  3  0  0  0  0  0  0
  188.9840  176.6820  141.6500 C   0  0  1  0  0  3  0  0  0  0  0  0
  190.2430  177.4780  143.7650 C   0  0  0  0  0  2  0  0  0  0  0  0
  189.6740  176.2540  144.4380 C   0  0  0  0  0  0  0  0  0  0  0  0
  190.1430  175.0200  146.5650 C   0  0  0  0  0  2  0  0  0  0  0  0
  189.4190  176.2060  145.9160 C   0  0  1  0  0  3  0  0  0  0  0  0
  190.7590  175.6690  147.7210 C   0  0  0  0  0  0  0  0  0  0  0  0
  189.8280  177.4560  146.5830 N   0  0  0  0  0  0  0  0  0  0  0  0
  190.5530  177.0560  147.7130 N   0  0  0  0  0  0  0  0  0  0  0  0
  191.3990  175.0710  148.6220 O   0  0  0  0  0  0  0  0  0  0  0  0
  187.4730  176.7060  141.4660 C   0  0  0  0  0  2  0  0  0  0  0  0
  186.8830  177.9280  142.1570 C   0  0  1  0  0  3  0  0  0  0  0  0
  185.3680  177.9340  141.9850 C   0  0  0  0  0  2  0  0  0  0  0  0
  185.9680  177.5810  143.3290 C   0  0  1  0  0  0  0  0  0  0  0  0
  185.8090  176.1190  143.7310 C   0  0  0  0  0  1  0  0  0  0  0  0
  184.5170  179.0870  144.8280 C   0  0  0  0  0  2  0  0  0  0  0  0
  186.7820  178.5480  145.5010 O   0  0  0  0  0  1  0  0  0  0  0  0
  185.4400  180.0560  144.0990 C   0  0  0  0  0  2  0  0  0  0  0  0
  185.9060  178.6520  144.4200 C   0  0  0  0  0  0  0  0  0  0  0  0
  190.0400  173.1480  140.8750 C   0  0  1  0  0  0  0  0  0  0  0  0
  189.1660  171.7860  138.7940 N   0  0  0  0  0  0  0  0  0  0  0  0
  189.5500  172.3830  139.7080 C   0  0  0  0  0  0  0  0  0  0  0  0
  191.4980  173.7330  139.1590 C   0  0  0  0  0  1  0  0  0  0  0  0
  191.2360  173.8410  140.5380 O   0  0  0  0  0  0  0  0  0  0  0  0
  190.3700  172.1090  141.9540 C   0  0  0  0  0  2  0  0  0  0  0  0
  191.7430  172.2440  142.4190 N   0  0  0  0  0  2  0  0  0  0  0  0
  192.4420  171.0260  142.0470 C   0  0  0  0  0  2  0  0  0  0  0  0
  194.5960  172.6470  144.2700 N   0  0  0  0  0  2  0  0  0  0  0  0
  194.7360  172.8040  140.6430 C   0  0  0  0  0  3  0  0  0  0  0  0
  194.5000  172.4110  141.9580 C   0  0  0  0  0  0  0  0  0  0  0  0
  195.3340  174.0100  140.4160 N   0  0  0  0  0  0  0  0  0  0  0  0
  193.6180  170.5750  144.8130 O   0  0  0  0  0  0  0  0  0  0  0  0
  195.7150  174.8330  141.4400 C   0  0  0  0  0  3  0  0  0  0  0  0
  194.8800  173.2220  143.0040 C   0  0  0  0  0  0  0  0  0  0  0  0
  195.5000  174.4520  142.7750 C   0  0  0  0  0  0  0  0  0  0  0  0
  194.0010  171.3940  143.9360 C   0  0  0  0  0  0  0  0  0  0  0  0
  193.9000  171.1400  142.4610 C   0  0  1  0  0  3  0  0  0  0  0  0
  195.9390  175.3410  143.8920 C   0  0  0  0  0  2  0  0  0  0  0  0
  193.7560  176.4120  143.7840 O   0  0  0  0  0  1  0  0  0  0  0  0
  193.7670  176.6010  146.5300 O   0  0  0  0  0  0  0  0  0  0  0  0
  194.7620  176.0890  145.9530 C   0  0  0  0  0  3  0  0  0  0  0  0
  194.7920  175.9650  144.5330 N   0  0  0  0  0  0  0  0  0  0  0  0
  1  2  1  1  0  0  0
  3  7  1  0  0  0  0
  4  8  2  0  0  0  0
  5  1  1  6  0  0  0
  5  4  1  0  0  0  0
  6 15  1  1  0  0  0
  6  5  1  0  0  0  0
  6  3  1  0  0  0  0
  7  8  1  0  0  0  0
  9 11  1  0  0  0  0
 10  8  1  6  0  0  0
 10  9  1  0  0  0  0
 10 12  1  0  0  0  0
 11 14  2  0  0  0  0
 12 13  2  0  0  0  0
 13 11  1  0  0  0  0
 16 15  1  6  0  0  0
 16 18  1  0  0  0  0
 17 16  1  0  0  0  0
 17 18  1  0  0  0  0
 18 19  1  1  0  0  0
 18 23  1  0  0  0  0
 22 23  1  0  0  0  0
 22 20  1  0  0  0  0
 23 20  1  0  0  0  0
 23 21  1  0  0  0  0
 24 26  1  6  0  0  0
 24  1  1  0  0  0  0
 24 29  1  0  0  0  0
 25 26  3  0  0  0  0
 27 28  1  0  0  0  0
 28 24  1  0  0  0  0
 29 30  1  0  0  0  0
 31 30  1  0  0  0  0
 33 34  1  0  0  0  0
 34 41  1  0  0  0  0
 34 38  2  0  0  0  0
 35 33  2  0  0  0  0
 35 37  1  0  0  0  0
 37 39  2  0  0  0  0
 38 32  1  0  0  0  0
 39 38  1  0  0  0  0
 39 42  1  0  0  0  0
 40 32  1  0  0  0  0
 40 36  2  0  0  0  0
 41 31  1  6  0  0  0
 41 40  1  0  0  0  0
 42 46  1  0  0  0  0
 43 46  1  0  0  0  0
 45 44  2  0  0  0  0
 46 45  1  0  0  0  0
M  END
>  <MODEL>
4

>  <REMARK>
 VINA RESULT:      -6.3      2.636      5.652
  Name = 
  14 active torsions:
  status: ('A' for Active; 'I' for Inactive)
    1  A    between atoms: C_1  and  C_43
    2  A    between atoms: C_6  and  N_38
    3  A    between atoms: C_6  and  C_46
    4  A    between atoms: C_12  and  C_42
    5  A    between atoms: C_13  and  C_32
    6  A    between atoms: C_13  and  N_39
    7  A    between atoms: C_17  and  C_26
    8  A    between atoms: C_21  and  N_38
    9  A    between atoms: C_21  and  C_44
   10  A    between atoms: C_23  and  C_34
   11  A    between atoms: C_26  and  C_46
   12  A    between atoms: O_29  and  C_46
   13  A    between atoms: C_35  and  C_43
   14  A    between atoms: C_36  and  C_46
                            x       y       z     vdW  Elec       q    Type
                         _______ _______ _______ _____ _____    ______ ____

>  <TORSDO>
F 14

$$$$
=
 OpenBabel11062419473D

 46 51  0  0  1  0  0  0  0  0999 V2000
  190.8110  174.2130  144.1220 C   0  0  1  0  0  3  0  0  0  0  0  0
  189.7780  173.0860  144.1910 C   0  0  0  0  0  1  0  0  0  0  0  0
  189.8900  178.0150  144.7480 C   0  0  0  0  0  2  0  0  0  0  0  0
  189.0780  175.3840  145.6150 C   0  0  0  0  0  3  0  0  0  0  0  0
  190.3920  175.4860  144.8860 C   0  0  2  0  0  3  0  0  0  0  0  0
  190.4650  176.7710  144.0310 C   0  0  1  0  0  3  0  0  0  0  0  0
  189.3950  177.7440  146.1760 C   0  0  0  0  0  2  0  0  0  0  0  0
  188.5960  176.4660  146.2330 C   0  0  0  0  0  0  0  0  0  0  0  0
  186.9140  177.7120  147.6060 C   0  0  0  0  0  2  0  0  0  0  0  0
  187.2420  176.4040  146.8770 C   0  0  1  0  0  3  0  0  0  0  0  0
  185.5540  177.9620  147.1320 C   0  0  0  0  0  0  0  0  0  0  0  0
  186.1820  176.1090  145.8950 N   0  0  0  0  0  0  0  0  0  0  0  0
  185.1570  177.0250  146.1660 N   0  0  0  0  0  0  0  0  0  0  0  0
  184.8160  178.8970  147.5300 O   0  0  0  0  0  0  0  0  0  0  0  0
  189.7540  176.6020  142.6940 C   0  0  0  0  0  2  0  0  0  0  0  0
  188.7070  177.6940  142.5190 C   0  0  1  0  0  3  0  0  0  0  0  0
  188.0610  177.5700  141.1430 C   0  0  0  0  0  2  0  0  0  0  0  0
  187.2860  177.1560  142.3760 C   0  0  1  0  0  0  0  0  0  0  0  0
  187.0510  175.6550  142.5030 C   0  0  0  0  0  1  0  0  0  0  0  0
  184.7930  177.5510  142.8750 C   0  0  0  0  0  2  0  0  0  0  0  0
  186.4680  178.9150  143.9740 O   0  0  0  0  0  1  0  0  0  0  0  0
  185.1660  178.6660  141.9040 C   0  0  0  0  0  2  0  0  0  0  0  0
  186.1970  178.1130  142.8650 C   0  0  0  0  0  0  0  0  0  0  0  0
  192.2690  173.7580  144.4110 C   0  0  1  0  0  0  0  0  0  0  0  0
  193.4940  175.5380  145.9220 N   0  0  0  0  0  0  0  0  0  0  0  0
  192.9570  174.7560  145.2590 C   0  0  0  0  0  0  0  0  0  0  0  0
  193.5860  171.8950  144.8730 C   0  0  0  0  0  1  0  0  0  0  0  0
  192.3130  172.4780  145.0300 O   0  0  0  0  0  0  0  0  0  0  0  0
  193.0680  173.6920  143.1020 C   0  0  0  0  0  2  0  0  0  0  0  0
  192.8840  174.8970  142.3070 N   0  0  0  0  0  2  0  0  0  0  0  0
  192.9130  174.4960  140.9110 C   0  0  0  0  0  2  0  0  0  0  0  0
  192.2300  171.9500  138.6170 N   0  0  0  0  0  2  0  0  0  0  0  0
  189.7790  173.8710  140.4890 C   0  0  0  0  0  3  0  0  0  0  0  0
  190.9460  173.2400  140.0660 C   0  0  0  0  0  0  0  0  0  0  0  0
  188.6750  173.8130  139.6890 N   0  0  0  0  0  0  0  0  0  0  0  0
  194.1940  171.9260  139.9160 O   0  0  0  0  0  0  0  0  0  0  0  0
  188.6820  173.1470  138.4940 C   0  0  0  0  0  3  0  0  0  0  0  0
  190.9730  172.5600  138.8700 C   0  0  0  0  0  0  0  0  0  0  0  0
  189.8430  172.4920  138.0520 C   0  0  0  0  0  0  0  0  0  0  0  0
  193.0020  172.3020  139.7650 C   0  0  0  0  0  0  0  0  0  0  0  0
  192.2590  173.1320  140.7690 C   0  0  1  0  0  3  0  0  0  0  0  0
  189.8410  171.7430  136.7590 C   0  0  0  0  0  2  0  0  0  0  0  0
  189.3230  169.6580  137.9030 O   0  0  0  0  0  1  0  0  0  0  0  0
  191.2600  168.4090  136.3970 O   0  0  0  0  0  0  0  0  0  0  0  0
  191.0650  169.6420  136.2330 C   0  0  0  0  0  3  0  0  0  0  0  0
  190.0660  170.3250  136.9880 N   0  0  0  0  0  0  0  0  0  0  0  0
  1  2  1  1  0  0  0
  1 24  1  0  0  0  0
  3  7  1  0  0  0  0
  4  8  2  0  0  0  0
  5  1  1  6  0  0  0
  5  4  1  0  0  0  0
  6 15  1  6  0  0  0
  6  3  1  0  0  0  0
  6  5  1  0  0  0  0
  7  8  1  0  0  0  0
 10  8  1  6  0  0  0
 10  9  1  0  0  0  0
 11 14  2  0  0  0  0
 11  9  1  0  0  0  0
 12 13  2  0  0  0  0
 12 10  1  0  0  0  0
 13 11  1  0  0  0  0
 16 15  1  6  0  0  0
 17 18  1  0  0  0  0
 17 16  1  0  0  0  0
 18 19  1  1  0  0  0
 18 16  1  0  0  0  0
 18 23  1  0  0  0  0
 22 23  1  0  0  0  0
 22 20  1  0  0  0  0
 23 20  1  0  0  0  0
 23 21  1  0  0  0  0
 24 29  1  6  0  0  0
 24 28  1  0  0  0  0
 24 26  1  0  0  0  0
 26 25  3  0  0  0  0
 27 28  1  0  0  0  0
 30 29  1  0  0  0  0
 31 30  1  0  0  0  0
 32 38  1  0  0  0  0
 32 40  1  0  0  0  0
 34 33  1  0  0  0  0
 34 41  1  0  0  0  0
 35 33  2  0  0  0  0
 37 35  1  0  0  0  0
 38 34  2  0  0  0  0
 39 37  2  0  0  0  0
 39 38  1  0  0  0  0
 40 36  2  0  0  0  0
 40 41  1  0  0  0  0
 41 31  1  6  0  0  0
 42 46  1  0  0  0  0
 42 39  1  0  0  0  0
 45 44  2  0  0  0  0
 45 46  1  0  0  0  0
 46 43  1  0  0  0  0
M  END
>  <MODEL>
5

>  <REMARK>
 VINA RESULT:      -6.2      2.433      3.042
  Name = 
  14 active torsions:
  status: ('A' for Active; 'I' for Inactive)
    1  A    between atoms: C_1  and  C_43
    2  A    between atoms: C_6  and  N_38
    3  A    between atoms: C_6  and  C_46
    4  A    between atoms: C_12  and  C_42
    5  A    between atoms: C_13  and  C_32
    6  A    between atoms: C_13  and  N_39
    7  A    between atoms: C_17  and  C_26
    8  A    between atoms: C_21  and  N_38
    9  A    between atoms: C_21  and  C_44
   10  A    between atoms: C_23  and  C_34
   11  A    between atoms: C_26  and  C_46
   12  A    between atoms: O_29  and  C_46
   13  A    between atoms: C_35  and  C_43
   14  A    between atoms: C_36  and  C_46
                            x       y       z     vdW  Elec       q    Type
                         _______ _______ _______ _____ _____    ______ ____

>  <TORSDO>
F 14

$$$$
=
 OpenBabel11062419473D

 46 51  0  0  1  0  0  0  0  0999 V2000
  191.6070  177.1250  144.5000 C   0  0  1  0  0  3  0  0  0  0  0  0
  191.8150  178.6080  144.1880 C   0  0  0  0  0  1  0  0  0  0  0  0
  188.3060  175.0640  143.7560 C   0  0  0  0  0  2  0  0  0  0  0  0
  189.6800  177.4270  142.8270 C   0  0  0  0  0  3  0  0  0  0  0  0
  190.4680  176.4750  143.6880 C   0  0  2  0  0  3  0  0  0  0  0  0
  189.5370  175.5810  144.5380 C   0  0  1  0  0  3  0  0  0  0  0  0
  188.2640  175.5060  142.2860 C   0  0  0  0  0  2  0  0  0  0  0  0
  188.6210  176.9660  142.1550 C   0  0  0  0  0  0  0  0  0  0  0  0
  186.9590  177.1950  140.2970 C   0  0  0  0  0  2  0  0  0  0  0  0
  187.7710  177.9240  141.3740 C   0  0  1  0  0  3  0  0  0  0  0  0
  185.6340  177.7760  140.5060 C   0  0  0  0  0  0  0  0  0  0  0  0
  186.8580  178.6840  142.2480 N   0  0  0  0  0  0  0  0  0  0  0  0
  185.6080  178.6310  141.6170 N   0  0  0  0  0  0  0  0  0  0  0  0
  184.6300  177.5480  139.7870 O   0  0  0  0  0  0  0  0  0  0  0  0
  189.0570  176.2950  145.7940 C   0  0  0  0  0  2  0  0  0  0  0  0
  187.5600  176.5620  145.7030 C   0  0  1  0  0  3  0  0  0  0  0  0
  186.8790  176.1160  146.9920 C   0  0  0  0  0  2  0  0  0  0  0  0
  187.0640  177.5930  146.7140 C   0  0  1  0  0  0  0  0  0  0  0  0
  188.0790  178.2870  147.6150 C   0  0  0  0  0  1  0  0  0  0  0  0
  184.9680  178.9310  147.3750 C   0  0  0  0  0  2  0  0  0  0  0  0
  185.9540  179.2490  145.1840 O   0  0  0  0  0  1  0  0  0  0  0  0
  184.4380  177.8150  146.4820 C   0  0  0  0  0  2  0  0  0  0  0  0
  185.8280  178.3740  146.2630 C   0  0  0  0  0  0  0  0  0  0  0  0
  192.9180  176.2890  144.5240 C   0  0  1  0  0  0  0  0  0  0  0  0
  194.5310  177.1840  146.4080 N   0  0  0  0  0  0  0  0  0  0  0  0
  193.8230  176.7910  145.5820 C   0  0  0  0  0  0  0  0  0  0  0  0
  192.5590  174.6060  146.0900 C   0  0  0  0  0  1  0  0  0  0  0  0
  192.6610  174.9040  144.7170 O   0  0  0  0  0  0  0  0  0  0  0  0
  193.6750  176.4630  143.2010 C   0  0  0  0  0  2  0  0  0  0  0  0
  193.8930  175.1830  142.5430 N   0  0  0  0  0  2  0  0  0  0  0  0
  193.3490  175.2950  141.2000 C   0  0  0  0  0  2  0  0  0  0  0  0
  192.0880  173.5530  138.4460 N   0  0  0  0  0  2  0  0  0  0  0  0
  191.1500  173.0500  141.9200 C   0  0  0  0  0  3  0  0  0  0  0  0
  191.8310  173.3830  140.7510 C   0  0  0  0  0  0  0  0  0  0  0  0
  189.8830  172.5520  141.8210 N   0  0  0  0  0  0  0  0  0  0  0  0
  194.2940  174.3770  138.4610 O   0  0  0  0  0  0  0  0  0  0  0  0
  189.2730  172.3620  140.6110 C   0  0  0  0  0  3  0  0  0  0  0  0
  191.2370  173.1960  139.5240 C   0  0  0  0  0  0  0  0  0  0  0  0
  189.9440  172.6780  139.4190 C   0  0  0  0  0  0  0  0  0  0  0  0
  193.2810  173.9850  139.0990 C   0  0  0  0  0  0  0  0  0  0  0  0
  193.2200  173.9070  140.5960 C   0  0  1  0  0  3  0  0  0  0  0  0
  189.2850  172.4450  138.0990 C   0  0  0  0  0  2  0  0  0  0  0  0
  187.8390  174.3980  138.2350 O   0  0  0  0  0  1  0  0  0  0  0  0
  188.8640  175.2650  135.8320 O   0  0  0  0  0  0  0  0  0  0  0  0
  189.2730  174.1740  136.3080 C   0  0  0  0  0  3  0  0  0  0  0  0
  188.7740  173.6940  137.5550 N   0  0  0  0  0  0  0  0  0  0  0  0
  1  2  1  6  0  0  0
  1 24  1  0  0  0  0
  3  6  1  0  0  0  0
  4  5  1  0  0  0  0
  5  1  1  1  0  0  0
  5  6  1  0  0  0  0
  6 15  1  1  0  0  0
  7  3  1  0  0  0  0
  8  7  1  0  0  0  0
  8  4  2  0  0  0  0
  9 11  1  0  0  0  0
  9 10  1  0  0  0  0
 10  8  1  1  0  0  0
 10 12  1  0  0  0  0
 11 13  1  0  0  0  0
 13 12  2  0  0  0  0
 14 11  2  0  0  0  0
 16 15  1  1  0  0  0
 16 18  1  0  0  0  0
 16 17  1  0  0  0  0
 18 17  1  0  0  0  0
 18 19  1  1  0  0  0
 21 23  1  0  0  0  0
 22 20  1  0  0  0  0
 23 22  1  0  0  0  0
 23 18  1  0  0  0  0
 23 20  1  0  0  0  0
 24 29  1  6  0  0  0
 24 28  1  0  0  0  0
 24 26  1  0  0  0  0
 26 25  3  0  0  0  0
 28 27  1  0  0  0  0
 30 29  1  0  0  0  0
 31 30  1  0  0  0  0
 32 40  1  0  0  0  0
 32 38  1  0  0  0  0
 34 33  2  0  0  0  0
 35 33  1  0  0  0  0
 36 40  2  0  0  0  0
 37 35  2  0  0  0  0
 38 34  1  0  0  0  0
 39 38  2  0  0  0  0
 39 37  1  0  0  0  0
 40 41  1  0  0  0  0
 41 34  1  0  0  0  0
 41 31  1  1  0  0  0
 42 39  1  0  0  0  0
 44 45  2  0  0  0  0
 45 46  1  0  0  0  0
 46 42  1  0  0  0  0
 46 43  1  0  0  0  0
M  END
>  <MODEL>
6

>  <REMARK>
 VINA RESULT:      -6.2      2.279      4.202
  Name = 
  14 active torsions:
  status: ('A' for Active; 'I' for Inactive)
    1  A    between atoms: C_1  and  C_43
    2  A    between atoms: C_6  and  N_38
    3  A    between atoms: C_6  and  C_46
    4  A    between atoms: C_12  and  C_42
    5  A    between atoms: C_13  and  C_32
    6  A    between atoms: C_13  and  N_39
    7  A    between atoms: C_17  and  C_26
    8  A    between atoms: C_21  and  N_38
    9  A    between atoms: C_21  and  C_44
   10  A    between atoms: C_23  and  C_34
   11  A    between atoms: C_26  and  C_46
   12  A    between atoms: O_29  and  C_46
   13  A    between atoms: C_35  and  C_43
   14  A    between atoms: C_36  and  C_46
                            x       y       z     vdW  Elec       q    Type
                         _______ _______ _______ _____ _____    ______ ____

>  <TORSDO>
F 14

$$$$
=
 OpenBabel11062419473D

 46 51  0  0  1  0  0  0  0  0999 V2000
  191.1300  175.8740  145.1850 C   0  0  1  0  0  3  0  0  0  0  0  0
  190.9780  176.3590  146.6280 C   0  0  0  0  0  1  0  0  0  0  0  0
  188.6800  176.3560  142.1090 C   0  0  0  0  0  2  0  0  0  0  0  0
  189.0190  177.2930  144.8190 C   0  0  0  0  0  3  0  0  0  0  0  0
  190.1920  176.5870  144.1900 C   0  0  2  0  0  3  0  0  0  0  0  0
  189.7460  175.6920  143.0120 C   0  0  1  0  0  3  0  0  0  0  0  0
  188.2980  177.7830  142.5320 C   0  0  0  0  0  2  0  0  0  0  0  0
  188.1080  177.8650  144.0260 C   0  0  0  0  0  0  0  0  0  0  0  0
  185.9490  179.0450  143.5620 C   0  0  0  0  0  2  0  0  0  0  0  0
  186.8850  178.4840  144.6380 C   0  0  1  0  0  3  0  0  0  0  0  0
  184.6620  178.5160  144.0080 C   0  0  0  0  0  0  0  0  0  0  0  0
  186.1470  177.5230  145.4780 N   0  0  0  0  0  0  0  0  0  0  0  0
  184.8020  177.6600  145.1110 N   0  0  0  0  0  0  0  0  0  0  0  0
  183.5540  178.7850  143.4800 O   0  0  0  0  0  0  0  0  0  0  0  0
  189.2150  174.3480  143.4920 C   0  0  0  0  0  2  0  0  0  0  0  0
  190.1440  173.2290  143.0400 C   0  0  1  0  0  3  0  0  0  0  0  0
  189.4490  171.8830  143.2120 C   0  0  0  0  0  2  0  0  0  0  0  0
  189.6270  172.4630  141.8250 C   0  0  1  0  0  0  0  0  0  0  0  0
  188.3350  172.9240  141.1590 C   0  0  0  0  0  1  0  0  0  0  0  0
  190.2410  171.0840  139.7410 C   0  0  0  0  0  2  0  0  0  0  0  0
  191.8670  172.6070  140.6950 O   0  0  0  0  0  1  0  0  0  0  0  0
  190.9170  170.3500  140.8930 C   0  0  0  0  0  2  0  0  0  0  0  0
  190.7240  171.8500  140.9520 C   0  0  0  0  0  0  0  0  0  0  0  0
  192.6030  175.7750  144.6990 C   0  0  1  0  0  0  0  0  0  0  0  0
  194.2120  176.9540  146.4240 N   0  0  0  0  0  0  0  0  0  0  0  0
  193.5060  176.4370  145.6660 C   0  0  0  0  0  0  0  0  0  0  0  0
  193.2100  173.7820  145.7350 C   0  0  0  0  0  1  0  0  0  0  0  0
  193.0060  174.4250  144.4990 O   0  0  0  0  0  0  0  0  0  0  0  0
  192.7720  176.5320  143.3750 C   0  0  0  0  0  2  0  0  0  0  0  0
  193.3290  175.6750  142.3400 N   0  0  0  0  0  2  0  0  0  0  0  0
  194.4340  176.3980  141.7350 C   0  0  0  0  0  2  0  0  0  0  0  0
  195.2390  173.0080  141.4690 N   0  0  0  0  0  2  0  0  0  0  0  0
  196.5890  175.3540  143.8940 C   0  0  0  0  0  3  0  0  0  0  0  0
  196.0100  174.7800  142.7640 C   0  0  0  0  0  0  0  0  0  0  0  0
  196.9280  174.5440  144.9390 N   0  0  0  0  0  0  0  0  0  0  0  0
  194.6470  174.2730  139.5730 O   0  0  0  0  0  0  0  0  0  0  0  0
  196.7260  173.1920  144.9030 C   0  0  0  0  0  3  0  0  0  0  0  0
  195.8020  173.4210  142.7050 C   0  0  0  0  0  0  0  0  0  0  0  0
  196.1560  172.5890  143.7700 C   0  0  0  0  0  0  0  0  0  0  0  0
  195.1080  174.2300  140.7440 C   0  0  0  0  0  0  0  0  0  0  0  0
  195.5870  175.4380  141.4930 C   0  0  1  0  0  3  0  0  0  0  0  0
  195.9590  171.1080  143.7220 C   0  0  0  0  0  2  0  0  0  0  0  0
  194.7200  170.4620  145.7150 O   0  0  0  0  0  1  0  0  0  0  0  0
  192.4240  170.3750  144.1980 O   0  0  0  0  0  0  0  0  0  0  0  0
  193.5110  170.6710  143.6370 C   0  0  0  0  0  3  0  0  0  0  0  0
  194.7220  170.7350  144.3890 N   0  0  0  0  0  0  0  0  0  0  0  0
  1  2  1  1  0  0  0
  3  7  1  0  0  0  0
  3  6  1  0  0  0  0
  5  4  1  0  0  0  0
  5  1  1  1  0  0  0
  6 15  1  1  0  0  0
  6  5  1  0  0  0  0
  7  8  1  0  0  0  0
  8  4  2  0  0  0  0
  9 11  1  0  0  0  0
  9 10  1  0  0  0  0
 10  8  1  6  0  0  0
 10 12  1  0  0  0  0
 11 13  1  0  0  0  0
 13 12  2  0  0  0  0
 14 11  2  0  0  0  0
 16 17  1  0  0  0  0
 16 15  1  1  0  0  0
 18 19  1  6  0  0  0
 18 16  1  0  0  0  0
 18 17  1  0  0  0  0
 20 22  1  0  0  0  0
 20 23  1  0  0  0  0
 21 23  1  0  0  0  0
 22 23  1  0  0  0  0
 23 18  1  0  0  0  0
 24 29  1  6  0  0  0
 24  1  1  0  0  0  0
 24 26  1  0  0  0  0
 26 25  3  0  0  0  0
 28 24  1  0  0  0  0
 28 27  1  0  0  0  0
 30 29  1  0  0  0  0
 31 30  1  0  0  0  0
 32 38  1  0  0  0  0
 33 35  1  0  0  0  0
 34 33  2  0  0  0  0
 36 40  2  0  0  0  0
 37 35  2  0  0  0  0
 38 34  1  0  0  0  0
 38 39  2  0  0  0  0
 39 37  1  0  0  0  0
 40 32  1  0  0  0  0
 40 41  1  0  0  0  0
 41 31  1  1  0  0  0
 41 34  1  0  0  0  0
 42 39  1  0  0  0  0
 42 46  1  0  0  0  0
 45 44  2  0  0  0  0
 45 46  1  0  0  0  0
 46 43  1  0  0  0  0
M  END
>  <MODEL>
7

>  <REMARK>
 VINA RESULT:      -6.2      3.458      6.382
  Name = 
  14 active torsions:
  status: ('A' for Active; 'I' for Inactive)
    1  A    between atoms: C_1  and  C_43
    2  A    between atoms: C_6  and  N_38
    3  A    between atoms: C_6  and  C_46
    4  A    between atoms: C_12  and  C_42
    5  A    between atoms: C_13  and  C_32
    6  A    between atoms: C_13  and  N_39
    7  A    between atoms: C_17  and  C_26
    8  A    between atoms: C_21  and  N_38
    9  A    between atoms: C_21  and  C_44
   10  A    between atoms: C_23  and  C_34
   11  A    between atoms: C_26  and  C_46
   12  A    between atoms: O_29  and  C_46
   13  A    between atoms: C_35  and  C_43
   14  A    between atoms: C_36  and  C_46
                            x       y       z     vdW  Elec       q    Type
                         _______ _______ _______ _____ _____    ______ ____

>  <TORSDO>
F 14

$$$$
=
 OpenBabel11062419473D

 46 51  0  0  1  0  0  0  0  0999 V2000
  192.9530  174.9620  144.0990 C   0  0  1  0  0  3  0  0  0  0  0  0
  193.1920  175.7180  142.7910 C   0  0  0  0  0  1  0  0  0  0  0  0
  192.0580  171.1120  143.8280 C   0  0  0  0  0  2  0  0  0  0  0  0
  193.9800  173.0020  142.7930 C   0  0  0  0  0  3  0  0  0  0  0  0
  193.1670  173.4390  143.9840 C   0  0  2  0  0  3  0  0  0  0  0  0
  191.8620  172.6210  144.1070 C   0  0  1  0  0  3  0  0  0  0  0  0
  193.5090  170.7140  143.5210 C   0  0  0  0  0  2  0  0  0  0  0  0
  194.1440  171.6960  142.5670 C   0  0  0  0  0  0  0  0  0  0  0  0
  194.4130  172.0460  140.1030 C   0  0  0  0  0  2  0  0  0  0  0  0
  194.8670  171.2480  141.3300 C   0  0  1  0  0  3  0  0  0  0  0  0
  195.7010  172.3880  139.5020 C   0  0  0  0  0  0  0  0  0  0  0  0
  196.3290  171.3620  141.4790 N   0  0  0  0  0  0  0  0  0  0  0  0
  196.7770  171.9760  140.3020 N   0  0  0  0  0  0  0  0  0  0  0  0
  195.8450  172.9800  138.4030 O   0  0  0  0  0  0  0  0  0  0  0  0
  190.7710  173.1530  143.1870 C   0  0  0  0  0  2  0  0  0  0  0  0
  190.3300  172.0650  142.2170 C   0  0  1  0  0  3  0  0  0  0  0  0
  189.1530  172.5630  141.3860 C   0  0  0  0  0  2  0  0  0  0  0  0
  190.5220  172.4430  140.7500 C   0  0  1  0  0  0  0  0  0  0  0  0
  191.1850  173.7750  140.4150 C   0  0  0  0  0  1  0  0  0  0  0  0
  190.9610  171.5990  138.3600 C   0  0  0  0  0  2  0  0  0  0  0  0
  191.5790  170.2180  140.2540 O   0  0  0  0  0  1  0  0  0  0  0  0
  189.7040  170.8570  138.7990 C   0  0  0  0  0  2  0  0  0  0  0  0
  190.7520  171.2530  139.8170 C   0  0  0  0  0  0  0  0  0  0  0  0
  193.6410  175.6020  145.3380 C   0  0  1  0  0  0  0  0  0  0  0  0
  196.0110  174.5120  145.7250 N   0  0  0  0  0  0  0  0  0  0  0  0
  194.9710  174.9910  145.5550 C   0  0  0  0  0  0  0  0  0  0  0  0
  194.5500  177.5400  146.2520 C   0  0  0  0  0  1  0  0  0  0  0  0
  193.7670  177.0130  145.2060 O   0  0  0  0  0  0  0  0  0  0  0  0
  192.8270  175.3040  146.6040 C   0  0  0  0  0  2  0  0  0  0  0  0
  191.3990  175.4470  146.3620 N   0  0  0  0  0  2  0  0  0  0  0  0
  190.9260  176.5250  147.2130 C   0  0  0  0  0  2  0  0  0  0  0  0
  188.1510  175.7940  145.2190 N   0  0  0  0  0  2  0  0  0  0  0  0
  190.7260  178.2540  144.5000 C   0  0  0  0  0  3  0  0  0  0  0  0
  189.8580  177.3720  145.1390 C   0  0  0  0  0  0  0  0  0  0  0  0
  190.6990  178.3310  143.1370 N   0  0  0  0  0  0  0  0  0  0  0  0
  188.0550  175.5930  147.5630 O   0  0  0  0  0  0  0  0  0  0  0  0
  189.8390  177.5750  142.3880 C   0  0  0  0  0  3  0  0  0  0  0  0
  188.9830  176.6060  144.4030 C   0  0  0  0  0  0  0  0  0  0  0  0
  188.9460  176.6880  143.0100 C   0  0  0  0  0  0  0  0  0  0  0  0
  188.5770  176.1140  146.5430 C   0  0  0  0  0  0  0  0  0  0  0  0
  189.6760  177.1340  146.6010 C   0  0  1  0  0  3  0  0  0  0  0  0
  187.9900  175.8820  142.1900 C   0  0  0  0  0  2  0  0  0  0  0  0
  185.8120  176.7900  142.7880 O   0  0  0  0  0  1  0  0  0  0  0  0
  185.6930  178.0000  140.3180 O   0  0  0  0  0  0  0  0  0  0  0  0
  186.7000  177.2990  140.6030 C   0  0  0  0  0  3  0  0  0  0  0  0
  186.8030  176.6620  141.8750 N   0  0  0  0  0  0  0  0  0  0  0  0
  1  2  1  6  0  0  0
  1 24  1  0  0  0  0
  3  6  1  0  0  0  0
  4  5  1  0  0  0  0
  5  1  1  6  0  0  0
  5  6  1  0  0  0  0
  6 15  1  6  0  0  0
  7  3  1  0  0  0  0
  8  4  2  0  0  0  0
  8  7  1  0  0  0  0
  9 10  1  0  0  0  0
 10 12  1  0  0  0  0
 10  8  1  1  0  0  0
 11  9  1  0  0  0  0
 11 13  1  0  0  0  0
 13 12  2  0  0  0  0
 14 11  2  0  0  0  0
 16 15  1  1  0  0  0
 17 16  1  0  0  0  0
 18 19  1  6  0  0  0
 18 17  1  0  0  0  0
 18 16  1  0  0  0  0
 20 22  1  0  0  0  0
 20 23  1  0  0  0  0
 22 23  1  0  0  0  0
 23 21  1  0  0  0  0
 23 18  1  0  0  0  0
 24 26  1  1  0  0  0
 24 29  1  0  0  0  0
 26 25  3  0  0  0  0
 28 24  1  0  0  0  0
 28 27  1  0  0  0  0
 30 29  1  0  0  0  0
 30 31  1  0  0  0  0
 32 40  1  0  0  0  0
 33 34  1  0  0  0  0
 34 41  1  0  0  0  0
 35 33  2  0  0  0  0
 37 39  2  0  0  0  0
 37 35  1  0  0  0  0
 38 34  2  0  0  0  0
 38 32  1  0  0  0  0
 39 38  1  0  0  0  0
 40 41  1  0  0  0  0
 40 36  2  0  0  0  0
 41 31  1  6  0  0  0
 42 39  1  0  0  0  0
 44 45  2  0  0  0  0
 45 46  1  0  0  0  0
 46 42  1  0  0  0  0
 46 43  1  0  0  0  0
M  END
>  <MODEL>
8

>  <REMARK>
 VINA RESULT:      -6.1      3.073      7.610
  Name = 
  14 active torsions:
  status: ('A' for Active; 'I' for Inactive)
    1  A    between atoms: C_1  and  C_43
    2  A    between atoms: C_6  and  N_38
    3  A    between atoms: C_6  and  C_46
    4  A    between atoms: C_12  and  C_42
    5  A    between atoms: C_13  and  C_32
    6  A    between atoms: C_13  and  N_39
    7  A    between atoms: C_17  and  C_26
    8  A    between atoms: C_21  and  N_38
    9  A    between atoms: C_21  and  C_44
   10  A    between atoms: C_23  and  C_34
   11  A    between atoms: C_26  and  C_46
   12  A    between atoms: O_29  and  C_46
   13  A    between atoms: C_35  and  C_43
   14  A    between atoms: C_36  and  C_46
                            x       y       z     vdW  Elec       q    Type
                         _______ _______ _______ _____ _____    ______ ____

>  <TORSDO>
F 14

$$$$
=
 OpenBabel11062419473D

 46 51  0  0  1  0  0  0  0  0999 V2000
  189.4500  174.5460  143.9630 C   0  0  1  0  0  3  0  0  0  0  0  0
  189.8280  173.6440  145.1410 C   0  0  0  0  0  1  0  0  0  0  0  0
  190.7530  178.2870  143.9510 C   0  0  0  0  0  2  0  0  0  0  0  0
  191.7230  175.6220  144.4930 C   0  0  0  0  0  3  0  0  0  0  0  0
  190.4110  175.7340  143.7600 C   0  0  2  0  0  3  0  0  0  0  0  0
  189.7500  177.1110  143.9950 C   0  0  1  0  0  3  0  0  0  0  0  0
  192.1990  177.8680  143.6470 C   0  0  0  0  0  2  0  0  0  0  0  0
  192.5810  176.6450  144.4420 C   0  0  0  0  0  0  0  0  0  0  0  0
  193.9740  175.2440  145.9800 C   0  0  0  0  0  2  0  0  0  0  0  0
  193.8450  176.5850  145.2500 C   0  0  1  0  0  3  0  0  0  0  0  0
  195.3580  174.8900  145.6710 C   0  0  0  0  0  0  0  0  0  0  0  0
  195.0390  176.8070  144.4140 N   0  0  0  0  0  0  0  0  0  0  0  0
  195.9460  175.8050  144.7850 N   0  0  0  0  0  0  0  0  0  0  0  0
  195.9640  173.8910  146.1330 O   0  0  0  0  0  0  0  0  0  0  0  0
  188.9960  177.1580  145.3180 C   0  0  0  0  0  2  0  0  0  0  0  0
  187.6820  177.9070  145.1420 C   0  0  1  0  0  3  0  0  0  0  0  0
  186.5910  176.9360  144.7030 C   0  0  0  0  0  2  0  0  0  0  0  0
  186.5960  177.4680  146.1210 C   0  0  1  0  0  0  0  0  0  0  0  0
  186.9400  176.4320  147.1860 C   0  0  0  0  0  1  0  0  0  0  0  0
  184.1330  178.0970  146.5170 C   0  0  0  0  0  2  0  0  0  0  0  0
  185.8900  179.4780  147.4540 O   0  0  0  0  0  1  0  0  0  0  0  0
  184.5920  179.0430  145.4130 C   0  0  0  0  0  2  0  0  0  0  0  0
  185.5730  178.5540  146.4580 C   0  0  0  0  0  0  0  0  0  0  0  0
  189.1160  173.7760  142.6540 C   0  0  1  0  0  0  0  0  0  0  0  0
  189.4820  171.1880  143.0030 N   0  0  0  0  0  0  0  0  0  0  0  0
  189.3210  172.3240  142.8500 C   0  0  0  0  0  0  0  0  0  0  0  0
  187.7170  175.2500  141.5200 C   0  0  0  0  0  1  0  0  0  0  0  0
  187.7860  174.0270  142.2160 O   0  0  0  0  0  0  0  0  0  0  0  0
  190.0820  174.1940  141.5380 C   0  0  0  0  0  2  0  0  0  0  0  0
  190.6030  173.0360  140.8260 N   0  0  0  0  0  2  0  0  0  0  0  0
  190.9810  173.4860  139.4980 C   0  0  0  0  0  2  0  0  0  0  0  0
  193.3630  171.1100  140.4400 N   0  0  0  0  0  2  0  0  0  0  0  0
  193.8120  174.7150  140.4310 C   0  0  0  0  0  3  0  0  0  0  0  0
  193.3690  173.4200  140.1720 C   0  0  0  0  0  0  0  0  0  0  0  0
  194.7710  174.9020  141.3840 N   0  0  0  0  0  0  0  0  0  0  0  0
  191.7510  170.6320  138.7920 O   0  0  0  0  0  0  0  0  0  0  0  0
  195.3130  173.8560  142.0800 C   0  0  0  0  0  3  0  0  0  0  0  0
  193.9040  172.3530  140.8580 C   0  0  0  0  0  0  0  0  0  0  0  0
  194.8920  172.5400  141.8280 C   0  0  0  0  0  0  0  0  0  0  0  0
  192.4340  171.4810  139.4230 C   0  0  0  0  0  0  0  0  0  0  0  0
  192.3670  172.9580  139.1670 C   0  0  1  0  0  3  0  0  0  0  0  0
  195.5040  171.3980  142.5710 C   0  0  0  0  0  2  0  0  0  0  0  0
  193.9540  171.8220  144.4000 O   0  0  0  0  0  1  0  0  0  0  0  0
  193.6290  169.1050  144.6910 O   0  0  0  0  0  0  0  0  0  0  0  0
  194.4190  169.5300  143.8070 C   0  0  0  0  0  3  0  0  0  0  0  0
  194.6090  170.9310  143.6190 N   0  0  0  0  0  0  0  0  0  0  0  0
  1  2  1  1  0  0  0
  3  6  1  0  0  0  0
  5  1  1  1  0  0  0
  5  6  1  0  0  0  0
  5  4  1  0  0  0  0
  6 15  1  1  0  0  0
  7  3  1  0  0  0  0
  7  8  1  0  0  0  0
  8  4  2  0  0  0  0
 10  8  1  6  0  0  0
 10  9  1  0  0  0  0
 11  9  1  0  0  0  0
 11 14  2  0  0  0  0
 12 13  2  0  0  0  0
 12 10  1  0  0  0  0
 13 11  1  0  0  0  0
 16 15  1  1  0  0  0
 16 18  1  0  0  0  0
 17 16  1  0  0  0  0
 17 18  1  0  0  0  0
 18 23  1  0  0  0  0
 18 19  1  1  0  0  0
 22 23  1  0  0  0  0
 22 20  1  0  0  0  0
 23 20  1  0  0  0  0
 23 21  1  0  0  0  0
 24 29  1  6  0  0  0
 24 26  1  0  0  0  0
 24  1  1  0  0  0  0
 26 25  3  0  0  0  0
 27 28  1  0  0  0  0
 28 24  1  0  0  0  0
 30 29  1  0  0  0  0
 31 30  1  0  0  0  0
 32 38  1  0  0  0  0
 33 35  1  0  0  0  0
 34 33  2  0  0  0  0
 34 38  1  0  0  0  0
 35 37  2  0  0  0  0
 36 40  2  0  0  0  0
 38 39  2  0  0  0  0
 39 37  1  0  0  0  0
 39 42  1  0  0  0  0
 40 32  1  0  0  0  0
 41 40  1  0  0  0  0
 41 31  1  1  0  0  0
 41 34  1  0  0  0  0
 42 46  1  0  0  0  0
 45 44  2  0  0  0  0
 46 45  1  0  0  0  0
 46 43  1  0  0  0  0
M  END
>  <MODEL>
9

>  <REMARK>
 VINA RESULT:      -6.1      3.278      6.259
  Name = 
  14 active torsions:
  status: ('A' for Active; 'I' for Inactive)
    1  A    between atoms: C_1  and  C_43
    2  A    between atoms: C_6  and  N_38
    3  A    between atoms: C_6  and  C_46
    4  A    between atoms: C_12  and  C_42
    5  A    between atoms: C_13  and  C_32
    6  A    between atoms: C_13  and  N_39
    7  A    between atoms: C_17  and  C_26
    8  A    between atoms: C_21  and  N_38
    9  A    between atoms: C_21  and  C_44
   10  A    between atoms: C_23  and  C_34
   11  A    between atoms: C_26  and  C_46
   12  A    between atoms: O_29  and  C_46
   13  A    between atoms: C_35  and  C_43
   14  A    between atoms: C_36  and  C_46
                            x       y       z     vdW  Elec       q    Type
                         _______ _______ _______ _____ _____    ______ ____

>  <TORSDO>
F 14

$$$$
