=
 OpenBabel11062419473D

 46 49  0  0  1  0  0  0  0  0999 V2000
  188.8470  173.0350  141.7680 C   0  0  0  0  0  0  0  0  0  0  0  0
  187.9770  172.3520  142.3750 O   0  0  0  0  0  0  0  0  0  0  0  0
  190.2900  172.8990  138.1030 C   0  0  0  0  0  2  0  0  0  0  0  0
  190.8190  169.6520  141.3390 C   0  0  0  0  0  1  0  0  0  0  0  0
  192.4820  171.1520  140.2790 C   0  0  2  0  0  3  0  0  0  0  0  0
  189.2580  172.5790  140.4180 C   0  0  1  0  0  3  0  0  0  0  0  0
  188.7910  173.5100  138.9570 S   0  0  0  0  0  0  0  0  0  0  0  0
  190.2280  171.7080  140.1610 C   0  0  1  0  0  3  0  0  0  0  0  0
  192.1350  171.4010  138.8680 N   0  0  0  0  0  2  0  0  0  0  0  0
  190.7880  171.7840  138.8850 N   0  0  2  0  0  0  0  0  0  0  0  0
  191.1840  171.1050  141.1010 C   0  0  1  0  0  3  0  0  0  0  0  0
  193.3740  172.2780  140.7810 C   0  0  0  0  0  2  0  0  0  0  0  0
  194.2540  171.7940  141.9210 C   0  0  0  0  0  2  0  0  0  0  0  0
  193.7250  173.1940  145.4380 C   0  0  0  0  0  3  0  0  0  0  0  0
  193.8090  172.2530  144.3980 C   0  0  0  0  0  0  0  0  0  0  0  0
  194.2660  174.9910  143.9180 C   0  0  0  0  0  3  0  0  0  0  0  0
  194.3560  174.0740  142.8720 C   0  0  0  0  0  3  0  0  0  0  0  0
  194.1270  172.7110  143.0940 C   0  0  0  0  0  0  0  0  0  0  0  0
  193.9440  174.5530  145.2020 C   0  0  0  0  0  0  0  0  0  0  0  0
  192.4910  170.2730  144.3410 O   0  0  0  0  0  0  0  0  0  0  0  0
  193.5560  170.8270  144.7260 C   0  0  0  0  0  0  0  0  0  0  0  0
  194.4720  170.0750  145.4490 O   0  0  0  0  0  1  0  0  0  0  0  0
  193.8660  175.5270  146.3260 C   0  0  0  0  0  2  0  0  0  0  0  0
  192.4720  175.5230  146.9240 C   0  0  0  0  0  1  0  0  0  0  0  0
  190.8890  174.4670  142.0990 C   0  0  0  0  0  1  0  0  0  0  0  0
  187.9990  176.1090  143.2620 C   0  0  2  0  0  3  0  0  0  0  0  0
  188.8040  175.5830  144.4460 C   0  0  1  0  0  3  0  0  0  0  0  0
  189.2080  174.2010  143.9680 C   0  0  1  0  0  3  0  0  0  0  0  0
  189.9380  176.3760  144.6540 O   0  0  0  0  0  1  0  0  0  0  0  0
  188.6420  175.5090  142.0140 C   0  0  0  0  0  2  0  0  0  0  0  0
  189.4170  174.2670  142.4450 C   0  0  2  0  0  0  0  0  0  0  0  0
  189.7490  172.1610  145.1670 O   0  0  0  0  0  1  0  0  0  0  0  0
  190.2200  173.4290  144.8240 C   0  0  0  0  0  2  0  0  0  0  0  0
  187.8950  177.6420  143.1960 C   0  0  1  0  0  3  0  0  0  0  0  0
  189.4950  178.6940  141.7630 O   0  0  0  0  0  1  0  0  0  0  0  0
  188.3510  178.1810  141.8680 C   0  0  0  0  0  0  0  0  0  0  0  0
  187.5170  178.1260  140.7580 O   0  0  0  0  0  0  0  0  0  0  0  0
  186.4940  178.1400  143.5880 C   0  0  1  0  0  3  0  0  0  0  0  0
  185.4180  177.1860  143.0820 C   0  0  0  0  0  2  0  0  0  0  0  0
  184.3220  177.9290  142.4000 C   0  0  0  0  0  0  0  0  0  0  0  0
  183.3750  178.6150  143.1490 O   0  0  0  0  0  1  0  0  0  0  0  0
  184.2470  177.9250  141.1440 O   0  0  0  0  0  0  0  0  0  0  0  0
  186.3650  178.3920  145.0920 C   0  0  0  0  0  2  0  0  0  0  0  0
  185.6160  177.2590  145.7820 C   0  0  0  0  0  2  0  0  0  0  0  0
  186.3570  176.7820  147.0210 C   0  0  0  0  0  2  0  0  0  0  0  0
  187.5520  177.5830  147.2260 N   0  0  0  0  0  1  0  0  0  0  0  0
  1  2  2  0  0  0  0
  1 31  1  0  0  0  0
  3 10  1  0  0  0  0
  3  7  1  0  0  0  0
  5 12  1  1  0  0  0
  5 11  1  0  0  0  0
  6  1  1  1  0  0  0
  7  6  1  0  0  0  0
  8  6  1  0  0  0  0
  8 11  1  0  0  0  0
  9 10  1  0  0  0  0
  9  5  1  0  0  0  0
 10  8  1  0  0  0  0
 11  4  1  0  0  0  0
 12 13  1  0  0  0  0
 13 18  1  0  0  0  0
 15 21  1  0  0  0  0
 15 14  2  0  0  0  0
 16 19  2  0  0  0  0
 17 18  2  0  0  0  0
 17 16  1  0  0  0  0
 18 15  1  0  0  0  0
 19 14  1  0  0  0  0
 19 23  1  0  0  0  0
 20 21  2  0  0  0  0
 21 22  1  0  0  0  0
 23 24  1  0  0  0  0
 25 31  1  0  0  0  0
 26 27  1  0  0  0  0
 27 29  1  0  0  0  0
 28 27  1  0  0  0  0
 28 33  1  0  0  0  0
 30 31  1  0  0  0  0
 30 26  1  0  0  0  0
 31 28  1  0  0  0  0
 33 32  1  0  0  0  0
 34 26  1  0  0  0  0
 34 38  1  0  0  0  0
 35 36  1  0  0  0  0
 36 34  1  0  0  0  0
 37 36  2  0  0  0  0
 38 43  1  0  0  0  0
 39 38  1  0  0  0  0
 40 39  1  0  0  0  0
 40 41  1  0  0  0  0
 42 40  2  0  0  0  0
 43 44  1  0  0  0  0
 44 45  1  0  0  0  0
 45 46  1  0  0  0  0
M  END
>  <MODEL>
1

>  <REMARK>
 VINA RESULT:      -6.4      0.000      0.000
  Name = 
  16 active torsions:
  status: ('A' for Active; 'I' for Inactive)
    1  A    between atoms: C_2  and  C_45
    2  A    between atoms: C_5  and  C_22
    3  A    between atoms: C_5  and  C_23
    4  A    between atoms: C_7  and  C_15
    5  A    between atoms: C_8  and  C_24
    6  A    between atoms: C_8  and  C_31
    7  A    between atoms: C_9  and  C_44
    8  A    between atoms: C_11  and  C_13
    9  A    between atoms: C_11  and  C_35
   10  A    between atoms: C_13  and  C_15
   11  A    between atoms: C_13  and  C_34
   12  A    between atoms: C_14  and  C_15
   13  A    between atoms: C_16  and  C_25
   14  A    between atoms: C_19  and  C_27
   15  A    between atoms: C_23  and  C_39
   16  A    between atoms: C_25  and  C_34
                            x       y       z     vdW  Elec       q    Type
                         _______ _______ _______ _____ _____    ______ ____

>  <TORSDO>
F 16

$$$$
=
 OpenBabel11062419473D

 46 49  0  0  1  0  0  0  0  0999 V2000
  195.0490  173.0300  143.5310 C   0  0  0  0  0  0  0  0  0  0  0  0
  195.3630  171.9810  144.1590 O   0  0  0  0  0  0  0  0  0  0  0  0
  196.1010  176.7950  144.0320 C   0  0  0  0  0  2  0  0  0  0  0  0
  193.0300  174.4830  146.5860 C   0  0  0  0  0  1  0  0  0  0  0  0
  192.7210  176.3900  145.0350 C   0  0  2  0  0  3  0  0  0  0  0  0
  195.4370  174.3300  144.1300 C   0  0  1  0  0  3  0  0  0  0  0  0
  196.8800  175.2160  143.5350 S   0  0  0  0  0  0  0  0  0  0  0  0
  194.6500  175.1050  144.8680 C   0  0  1  0  0  3  0  0  0  0  0  0
  193.8880  177.2910  145.0760 N   0  0  0  0  0  2  0  0  0  0  0  0
  195.0000  176.4550  144.9130 N   0  0  2  0  0  0  0  0  0  0  0  0
  193.2170  174.9410  145.1520 C   0  0  1  0  0  3  0  0  0  0  0  0
  191.9870  176.5830  143.7160 C   0  0  0  0  0  2  0  0  0  0  0  0
  191.1650  177.8610  143.7440 C   0  0  0  0  0  2  0  0  0  0  0  0
  187.4420  177.1680  144.2630 C   0  0  0  0  0  3  0  0  0  0  0  0
  188.6490  177.4220  143.5910 C   0  0  0  0  0  0  0  0  0  0  0  0
  188.5610  177.2570  146.4020 C   0  0  0  0  0  3  0  0  0  0  0  0
  189.7690  177.5090  145.7550 C   0  0  0  0  0  3  0  0  0  0  0  0
  189.8290  177.5990  144.3590 C   0  0  0  0  0  0  0  0  0  0  0  0
  187.3940  177.0910  145.6570 C   0  0  0  0  0  0  0  0  0  0  0  0
  188.4950  176.4400  141.4300 O   0  0  0  0  0  0  0  0  0  0  0  0
  188.6200  177.4950  142.1090 C   0  0  0  0  0  0  0  0  0  0  0  0
  188.7240  178.7070  141.4380 O   0  0  0  0  0  1  0  0  0  0  0  0
  186.1040  176.8030  146.3430 C   0  0  0  0  0  2  0  0  0  0  0  0
  186.1040  177.4130  147.7320 C   0  0  0  0  0  1  0  0  0  0  0  0
  195.1080  172.1270  141.1840 C   0  0  0  0  0  1  0  0  0  0  0  0
  191.8540  173.1510  142.0570 C   0  0  2  0  0  3  0  0  0  0  0  0
  192.4870  174.1830  141.1300 C   0  0  1  0  0  3  0  0  0  0  0  0
  193.8950  174.2880  141.6850 C   0  0  1  0  0  3  0  0  0  0  0  0
  192.5170  173.7040  139.8150 O   0  0  0  0  0  1  0  0  0  0  0  0
  192.9720  172.1840  142.4390 C   0  0  0  0  0  2  0  0  0  0  0  0
  194.3000  172.9030  142.2190 C   0  0  2  0  0  0  0  0  0  0  0  0
  194.6390  176.4640  140.9060 O   0  0  0  0  0  1  0  0  0  0  0  0
  194.9130  175.0960  140.8690 C   0  0  0  0  0  2  0  0  0  0  0  0
  190.6280  172.4340  141.4660 C   0  0  1  0  0  3  0  0  0  0  0  0
  190.4450  170.1460  142.1360 O   0  0  0  0  0  1  0  0  0  0  0  0
  190.8720  170.9620  141.2790 C   0  0  0  0  0  0  0  0  0  0  0  0
  191.5720  170.4950  140.1730 O   0  0  0  0  0  0  0  0  0  0  0  0
  189.3500  172.7260  142.2690 C   0  0  1  0  0  3  0  0  0  0  0  0
  189.6100  173.7820  143.3380 C   0  0  0  0  0  2  0  0  0  0  0  0
  189.6100  173.1770  144.6990 C   0  0  0  0  0  0  0  0  0  0  0  0
  189.6330  173.9910  145.8230 O   0  0  0  0  0  1  0  0  0  0  0  0
  189.6030  171.9250  144.8300 O   0  0  0  0  0  0  0  0  0  0  0  0
  188.1710  173.1080  141.3710 C   0  0  0  0  0  2  0  0  0  0  0  0
  188.4710  172.8090  139.9070 C   0  0  0  0  0  2  0  0  0  0  0  0
  188.2800  174.0450  139.0420 C   0  0  0  0  0  2  0  0  0  0  0  0
  189.0260  173.9080  137.8030 N   0  0  0  0  0  1  0  0  0  0  0  0
  1  2  2  0  0  0  0
  3 10  1  0  0  0  0
  5 12  1  6  0  0  0
  5  9  1  0  0  0  0
  5 11  1  0  0  0  0
  6  1  1  6  0  0  0
  6  8  1  0  0  0  0
  7  3  1  0  0  0  0
  7  6  1  0  0  0  0
  8 10  1  0  0  0  0
  8 11  1  0  0  0  0
 10  9  1  0  0  0  0
 11  4  1  0  0  0  0
 12 13  1  0  0  0  0
 13 18  1  0  0  0  0
 14 19  1  0  0  0  0
 15 14  2  0  0  0  0
 15 18  1  0  0  0  0
 17 16  1  0  0  0  0
 18 17  2  0  0  0  0
 19 23  1  0  0  0  0
 19 16  2  0  0  0  0
 20 21  2  0  0  0  0
 21 15  1  0  0  0  0
 22 21  1  0  0  0  0
 23 24  1  0  0  0  0
 25 31  1  0  0  0  0
 26 30  1  0  0  0  0
 27 28  1  0  0  0  0
 27 26  1  0  0  0  0
 28 31  1  0  0  0  0
 29 27  1  0  0  0  0
 31 30  1  0  0  0  0
 31  1  1  0  0  0  0
 33 32  1  0  0  0  0
 33 28  1  0  0  0  0
 34 26  1  0  0  0  0
 34 38  1  0  0  0  0
 36 34  1  0  0  0  0
 36 35  1  0  0  0  0
 37 36  2  0  0  0  0
 38 39  1  0  0  0  0
 39 40  1  0  0  0  0
 40 42  2  0  0  0  0
 40 41  1  0  0  0  0
 43 38  1  0  0  0  0
 44 43  1  0  0  0  0
 45 44  1  0  0  0  0
 46 45  1  0  0  0  0
M  END
>  <MODEL>
2

>  <REMARK>
 VINA RESULT:      -6.3      2.936      7.387
  Name = 
  16 active torsions:
  status: ('A' for Active; 'I' for Inactive)
    1  A    between atoms: C_2  and  C_45
    2  A    between atoms: C_5  and  C_22
    3  A    between atoms: C_5  and  C_23
    4  A    between atoms: C_7  and  C_15
    5  A    between atoms: C_8  and  C_24
    6  A    between atoms: C_8  and  C_31
    7  A    between atoms: C_9  and  C_44
    8  A    between atoms: C_11  and  C_13
    9  A    between atoms: C_11  and  C_35
   10  A    between atoms: C_13  and  C_15
   11  A    between atoms: C_13  and  C_34
   12  A    between atoms: C_14  and  C_15
   13  A    between atoms: C_16  and  C_25
   14  A    between atoms: C_19  and  C_27
   15  A    between atoms: C_23  and  C_39
   16  A    between atoms: C_25  and  C_34
                            x       y       z     vdW  Elec       q    Type
                         _______ _______ _______ _____ _____    ______ ____

>  <TORSDO>
F 16

$$$$
=
 OpenBabel11062419473D

 46 49  0  0  1  0  0  0  0  0999 V2000
  192.9610  175.6750  143.2190 C   0  0  0  0  0  0  0  0  0  0  0  0
  192.5510  176.7460  142.6940 O   0  0  0  0  0  0  0  0  0  0  0  0
  193.7260  176.7710  146.9270 C   0  0  0  0  0  2  0  0  0  0  0  0
  190.4100  173.8490  145.6010 C   0  0  0  0  0  1  0  0  0  0  0  0
  190.2540  176.1090  146.6040 C   0  0  2  0  0  3  0  0  0  0  0  0
  193.1830  175.6720  144.6860 C   0  0  1  0  0  3  0  0  0  0  0  0
  194.6550  176.4190  145.3900 S   0  0  0  0  0  0  0  0  0  0  0  0
  192.2490  175.4550  145.6060 C   0  0  1  0  0  3  0  0  0  0  0  0
  191.3520  176.3300  147.5630 N   0  0  0  0  0  2  0  0  0  0  0  0
  192.5170  175.9710  146.8740 N   0  0  2  0  0  0  0  0  0  0  0  0
  190.7990  175.3030  145.4150 C   0  0  1  0  0  3  0  0  0  0  0  0
  189.7310  177.4550  146.1240 C   0  0  0  0  0  2  0  0  0  0  0  0
  188.2250  177.5370  146.3050 C   0  0  0  0  0  2  0  0  0  0  0  0
  185.6200  177.9970  143.5460 C   0  0  0  0  0  3  0  0  0  0  0  0
  186.1510  177.8320  144.8370 C   0  0  0  0  0  0  0  0  0  0  0  0
  187.8300  177.9130  142.5750 C   0  0  0  0  0  3  0  0  0  0  0  0
  188.3780  177.7500  143.8460 C   0  0  0  0  0  3  0  0  0  0  0  0
  187.5560  177.7030  144.9790 C   0  0  0  0  0  0  0  0  0  0  0  0
  186.4480  178.0310  142.4230 C   0  0  0  0  0  0  0  0  0  0  0  0
  184.6910  178.8710  146.4010 O   0  0  0  0  0  0  0  0  0  0  0  0
  185.2060  177.8000  145.9810 C   0  0  0  0  0  0  0  0  0  0  0  0
  184.8650  176.6090  146.6090 O   0  0  0  0  0  1  0  0  0  0  0  0
  185.8610  178.2240  141.0680 C   0  0  0  0  0  2  0  0  0  0  0  0
  186.6320  177.4140  140.0440 C   0  0  0  0  0  1  0  0  0  0  0  0
  194.3460  173.6060  142.8620 C   0  0  0  0  0  1  0  0  0  0  0  0
  191.4940  173.5860  140.7950 C   0  0  2  0  0  3  0  0  0  0  0  0
  192.7270  173.9330  139.9680 C   0  0  1  0  0  3  0  0  0  0  0  0
  193.4600  174.9000  140.8790 C   0  0  1  0  0  3  0  0  0  0  0  0
  193.5040  172.7900  139.7460 O   0  0  0  0  0  1  0  0  0  0  0  0
  191.9430  173.6130  142.2540 C   0  0  0  0  0  2  0  0  0  0  0  0
  193.2040  174.4690  142.3330 C   0  0  2  0  0  0  0  0  0  0  0  0
  195.1850  176.6080  140.9020 O   0  0  0  0  0  1  0  0  0  0  0  0
  194.8770  175.3180  140.4670 C   0  0  0  0  0  2  0  0  0  0  0  0
  190.8240  172.2560  140.4070 C   0  0  1  0  0  3  0  0  0  0  0  0
  192.1170  170.4920  141.3740 O   0  0  0  0  0  0  0  0  0  0  0  0
  191.0670  171.1830  141.4320 C   0  0  0  0  0  0  0  0  0  0  0  0
  190.1370  170.9390  142.4360 O   0  0  0  0  0  1  0  0  0  0  0  0
  189.3320  172.4400  140.0830 C   0  0  1  0  0  3  0  0  0  0  0  0
  188.8400  173.8080  140.5430 C   0  0  0  0  0  2  0  0  0  0  0  0
  187.8370  173.6760  141.6350 C   0  0  0  0  0  0  0  0  0  0  0  0
  187.3090  172.4310  141.9490 O   0  0  0  0  0  0  0  0  0  0  0  0
  187.4570  174.6970  142.2660 O   0  0  0  0  0  1  0  0  0  0  0  0
  189.0230  172.1940  138.6050 C   0  0  0  0  0  2  0  0  0  0  0  0
  190.1940  171.5240  137.8980 C   0  0  0  0  0  2  0  0  0  0  0  0
  189.8320  170.1180  137.4430 C   0  0  0  0  0  2  0  0  0  0  0  0
  190.8770  169.5870  136.5840 N   0  0  0  0  0  1  0  0  0  0  0  0
  2  1  2  0  0  0  0
  5 12  1  6  0  0  0
  5  9  1  0  0  0  0
  6  1  1  6  0  0  0
  6  7  1  0  0  0  0
  6  8  1  0  0  0  0
  7  3  1  0  0  0  0
  8 10  1  0  0  0  0
 10  3  1  0  0  0  0
 10  9  1  0  0  0  0
 11  4  1  0  0  0  0
 11  8  1  0  0  0  0
 11  5  1  0  0  0  0
 12 13  1  0  0  0  0
 14 15  1  0  0  0  0
 15 18  2  0  0  0  0
 15 21  1  0  0  0  0
 16 17  2  0  0  0  0
 17 18  1  0  0  0  0
 18 13  1  0  0  0  0
 19 16  1  0  0  0  0
 19 14  2  0  0  0  0
 21 20  2  0  0  0  0
 21 22  1  0  0  0  0
 23 19  1  0  0  0  0
 24 23  1  0  0  0  0
 26 30  1  0  0  0  0
 27 26  1  0  0  0  0
 27 28  1  0  0  0  0
 28 31  1  0  0  0  0
 29 27  1  0  0  0  0
 30 31  1  0  0  0  0
 31 25  1  0  0  0  0
 31  1  1  0  0  0  0
 33 28  1  0  0  0  0
 33 32  1  0  0  0  0
 34 26  1  0  0  0  0
 34 36  1  0  0  0  0
 35 36  2  0  0  0  0
 36 37  1  0  0  0  0
 38 34  1  0  0  0  0
 38 39  1  0  0  0  0
 39 40  1  0  0  0  0
 40 41  2  0  0  0  0
 40 42  1  0  0  0  0
 43 38  1  0  0  0  0
 44 43  1  0  0  0  0
 45 44  1  0  0  0  0
 46 45  1  0  0  0  0
M  END
>  <MODEL>
3

>  <REMARK>
 VINA RESULT:      -6.3      2.780      8.214
  Name = 
  16 active torsions:
  status: ('A' for Active; 'I' for Inactive)
    1  A    between atoms: C_2  and  C_45
    2  A    between atoms: C_5  and  C_22
    3  A    between atoms: C_5  and  C_23
    4  A    between atoms: C_7  and  C_15
    5  A    between atoms: C_8  and  C_24
    6  A    between atoms: C_8  and  C_31
    7  A    between atoms: C_9  and  C_44
    8  A    between atoms: C_11  and  C_13
    9  A    between atoms: C_11  and  C_35
   10  A    between atoms: C_13  and  C_15
   11  A    between atoms: C_13  and  C_34
   12  A    between atoms: C_14  and  C_15
   13  A    between atoms: C_16  and  C_25
   14  A    between atoms: C_19  and  C_27
   15  A    between atoms: C_23  and  C_39
   16  A    between atoms: C_25  and  C_34
                            x       y       z     vdW  Elec       q    Type
                         _______ _______ _______ _____ _____    ______ ____

>  <TORSDO>
F 16

$$$$
=
 OpenBabel11062419473D

 46 49  0  0  1  0  0  0  0  0999 V2000
  189.7490  172.9870  143.3740 C   0  0  0  0  0  0  0  0  0  0  0  0
  189.4940  172.2630  144.3760 O   0  0  0  0  0  0  0  0  0  0  0  0
  189.7800  172.3400  139.4860 C   0  0  0  0  0  2  0  0  0  0  0  0
  192.1920  169.9860  142.6380 C   0  0  0  0  0  1  0  0  0  0  0  0
  192.9550  171.4970  140.8290 C   0  0  2  0  0  3  0  0  0  0  0  0
  189.7500  172.3370  142.0410 C   0  0  1  0  0  3  0  0  0  0  0  0
  188.5830  172.8450  140.7750 S   0  0  0  0  0  0  0  0  0  0  0  0
  190.7440  171.6140  141.5360 C   0  0  1  0  0  3  0  0  0  0  0  0
  192.0800  171.3820  139.6490 N   0  0  0  0  0  2  0  0  0  0  0  0
  190.7770  171.5180  140.1450 N   0  0  2  0  0  0  0  0  0  0  0  0
  192.0870  171.3980  142.0930 C   0  0  1  0  0  3  0  0  0  0  0  0
  193.6680  172.8410  140.7930 C   0  0  0  0  0  2  0  0  0  0  0  0
  194.9900  172.7650  141.5380 C   0  0  0  0  0  2  0  0  0  0  0  0
  195.0540  175.7040  143.9820 C   0  0  0  0  0  3  0  0  0  0  0  0
  195.1430  175.0040  142.7660 C   0  0  0  0  0  0  0  0  0  0  0  0
  194.5510  173.6640  145.1730 C   0  0  0  0  0  3  0  0  0  0  0  0
  194.6330  172.9500  143.9780 C   0  0  0  0  0  3  0  0  0  0  0  0
  194.9320  173.6010  142.7750 C   0  0  0  0  0  0  0  0  0  0  0  0
  194.7670  175.0420  145.1770 C   0  0  0  0  0  0  0  0  0  0  0  0
  194.5340  176.3560  140.9070 O   0  0  0  0  0  0  0  0  0  0  0  0
  195.4580  175.7760  141.5380 C   0  0  0  0  0  0  0  0  0  0  0  0
  196.7580  175.8840  141.0610 O   0  0  0  0  0  1  0  0  0  0  0  0
  194.6620  175.8100  146.4480 C   0  0  0  0  0  2  0  0  0  0  0  0
  194.5180  177.2910  146.1530 C   0  0  0  0  0  1  0  0  0  0  0  0
  191.3850  174.8590  142.9930 C   0  0  0  0  0  1  0  0  0  0  0  0
  188.2650  176.1080  144.0450 C   0  0  2  0  0  3  0  0  0  0  0  0
  189.2580  176.1620  145.2020 C   0  0  1  0  0  3  0  0  0  0  0  0
  189.9600  174.8220  145.0810 C   0  0  1  0  0  3  0  0  0  0  0  0
  190.1690  177.2070  145.0140 O   0  0  0  0  0  1  0  0  0  0  0  0
  188.9490  175.3080  142.9380 C   0  0  0  0  0  2  0  0  0  0  0  0
  190.0380  174.4600  143.5880 C   0  0  2  0  0  0  0  0  0  0  0  0
  190.9990  175.0830  147.2590 O   0  0  0  0  0  1  0  0  0  0  0  0
  191.1910  174.5920  145.9660 C   0  0  0  0  0  2  0  0  0  0  0  0
  187.7770  177.4850  143.5640 C   0  0  1  0  0  3  0  0  0  0  0  0
  186.4690  176.7630  141.6960 O   0  0  0  0  0  1  0  0  0  0  0  0
  187.4210  177.4780  142.1030 C   0  0  0  0  0  0  0  0  0  0  0  0
  188.1400  178.2480  141.1950 O   0  0  0  0  0  0  0  0  0  0  0  0
  186.6430  178.0320  144.4470 C   0  0  1  0  0  3  0  0  0  0  0  0
  185.8420  179.0970  143.7050 C   0  0  0  0  0  2  0  0  0  0  0  0
  184.3820  178.8090  143.7710 C   0  0  0  0  0  0  0  0  0  0  0  0
  183.7500  178.1700  142.7130 O   0  0  0  0  0  0  0  0  0  0  0  0
  183.7170  179.1570  144.7810 O   0  0  0  0  0  1  0  0  0  0  0  0
  185.7410  176.9220  144.9910 C   0  0  0  0  0  2  0  0  0  0  0  0
  185.7250  176.9170  146.5140 C   0  0  0  0  0  2  0  0  0  0  0  0
  186.5820  178.0400  147.0780 C   0  0  0  0  0  2  0  0  0  0  0  0
  185.7360  179.0890  147.6220 N   0  0  0  0  0  1  0  0  0  0  0  0
  1 31  1  0  0  0  0
  1  2  2  0  0  0  0
  3 10  1  0  0  0  0
  3  7  1  0  0  0  0
  5 12  1  6  0  0  0
  5 11  1  0  0  0  0
  6  1  1  6  0  0  0
  7  6  1  0  0  0  0
  8  6  1  0  0  0  0
  8 11  1  0  0  0  0
  9 10  1  0  0  0  0
  9  5  1  0  0  0  0
 10  8  1  0  0  0  0
 11  4  1  0  0  0  0
 12 13  1  0  0  0  0
 13 18  1  0  0  0  0
 14 19  1  0  0  0  0
 15 18  1  0  0  0  0
 15 14  2  0  0  0  0
 16 19  2  0  0  0  0
 17 16  1  0  0  0  0
 18 17  2  0  0  0  0
 19 23  1  0  0  0  0
 20 21  2  0  0  0  0
 21 15  1  0  0  0  0
 22 21  1  0  0  0  0
 24 23  1  0  0  0  0
 25 31  1  0  0  0  0
 26 27  1  0  0  0  0
 28 27  1  0  0  0  0
 28 33  1  0  0  0  0
 29 27  1  0  0  0  0
 30 31  1  0  0  0  0
 30 26  1  0  0  0  0
 31 28  1  0  0  0  0
 33 32  1  0  0  0  0
 34 26  1  0  0  0  0
 34 38  1  0  0  0  0
 35 36  1  0  0  0  0
 36 34  1  0  0  0  0
 37 36  2  0  0  0  0
 38 43  1  0  0  0  0
 39 40  1  0  0  0  0
 39 38  1  0  0  0  0
 40 42  1  0  0  0  0
 41 40  2  0  0  0  0
 43 44  1  0  0  0  0
 44 45  1  0  0  0  0
 45 46  1  0  0  0  0
M  END
>  <MODEL>
4

>  <REMARK>
 VINA RESULT:      -6.3      1.924      2.537
  Name = 
  16 active torsions:
  status: ('A' for Active; 'I' for Inactive)
    1  A    between atoms: C_2  and  C_45
    2  A    between atoms: C_5  and  C_22
    3  A    between atoms: C_5  and  C_23
    4  A    between atoms: C_7  and  C_15
    5  A    between atoms: C_8  and  C_24
    6  A    between atoms: C_8  and  C_31
    7  A    between atoms: C_9  and  C_44
    8  A    between atoms: C_11  and  C_13
    9  A    between atoms: C_11  and  C_35
   10  A    between atoms: C_13  and  C_15
   11  A    between atoms: C_13  and  C_34
   12  A    between atoms: C_14  and  C_15
   13  A    between atoms: C_16  and  C_25
   14  A    between atoms: C_19  and  C_27
   15  A    between atoms: C_23  and  C_39
   16  A    between atoms: C_25  and  C_34
                            x       y       z     vdW  Elec       q    Type
                         _______ _______ _______ _____ _____    ______ ____

>  <TORSDO>
F 16

$$$$
=
 OpenBabel11062419473D

 46 49  0  0  1  0  0  0  0  0999 V2000
  192.7630  175.5870  143.4030 C   0  0  0  0  0  0  0  0  0  0  0  0
  192.3310  176.6270  142.8340 O   0  0  0  0  0  0  0  0  0  0  0  0
  192.9890  176.6830  147.1820 C   0  0  0  0  0  2  0  0  0  0  0  0
  190.0390  173.5950  145.4350 C   0  0  0  0  0  1  0  0  0  0  0  0
  189.6300  175.8310  146.4190 C   0  0  2  0  0  3  0  0  0  0  0  0
  192.7970  175.5800  144.8850 C   0  0  1  0  0  3  0  0  0  0  0  0
  194.1230  176.4010  145.7730 S   0  0  0  0  0  0  0  0  0  0  0  0
  191.7680  175.3010  145.6790 C   0  0  1  0  0  3  0  0  0  0  0  0
  190.5830  176.1030  147.5100 N   0  0  0  0  0  2  0  0  0  0  0  0
  191.8440  175.8170  146.9730 N   0  0  2  0  0  0  0  0  0  0  0  0
  190.3650  175.0700  145.3050 C   0  0  1  0  0  3  0  0  0  0  0  0
  189.0950  177.1500  145.8810 C   0  0  0  0  0  2  0  0  0  0  0  0
  188.9960  177.1080  144.3650 C   0  0  0  0  0  2  0  0  0  0  0  0
  185.6360  177.0970  142.5430 C   0  0  0  0  0  3  0  0  0  0  0  0
  186.9570  176.7420  142.8640 C   0  0  0  0  0  0  0  0  0  0  0  0
  185.5990  178.7420  144.3110 C   0  0  0  0  0  3  0  0  0  0  0  0
  186.9090  178.4050  144.6470 C   0  0  0  0  0  3  0  0  0  0  0  0
  187.5990  177.4170  143.9340 C   0  0  0  0  0  0  0  0  0  0  0  0
  184.9620  178.0920  143.2540 C   0  0  0  0  0  0  0  0  0  0  0  0
  188.3580  175.9910  141.0940 O   0  0  0  0  0  0  0  0  0  0  0  0
  187.6090  175.6790  142.0590 C   0  0  0  0  0  0  0  0  0  0  0  0
  187.4210  174.3330  142.3440 O   0  0  0  0  0  1  0  0  0  0  0  0
  183.5560  178.4360  142.9040 C   0  0  0  0  0  2  0  0  0  0  0  0
  183.3140  178.2060  141.4240 C   0  0  0  0  0  1  0  0  0  0  0  0
  194.3600  173.6530  143.2100 C   0  0  0  0  0  1  0  0  0  0  0  0
  191.7920  173.4080  140.8130 C   0  0  2  0  0  3  0  0  0  0  0  0
  193.0800  173.8750  140.1420 C   0  0  1  0  0  3  0  0  0  0  0  0
  193.6070  174.8900  141.1380 C   0  0  1  0  0  3  0  0  0  0  0  0
  193.9760  172.8080  140.0140 O   0  0  0  0  0  1  0  0  0  0  0  0
  192.0570  173.4560  142.3160 C   0  0  0  0  0  2  0  0  0  0  0  0
  193.2180  174.4180  142.5500 C   0  0  2  0  0  0  0  0  0  0  0  0
  195.0930  176.8100  141.1460 O   0  0  0  0  0  1  0  0  0  0  0  0
  195.0210  175.4370  140.9020 C   0  0  0  0  0  2  0  0  0  0  0  0
  191.2950  172.0290  140.3430 C   0  0  1  0  0  3  0  0  0  0  0  0
  189.4750  171.8650  141.8860 O   0  0  0  0  0  1  0  0  0  0  0  0
  190.5050  171.3220  141.4090 C   0  0  0  0  0  0  0  0  0  0  0  0
  190.9070  170.0780  141.8800 O   0  0  0  0  0  0  0  0  0  0  0  0
  190.5410  172.1170  139.0060 C   0  0  1  0  0  3  0  0  0  0  0  0
  189.9950  173.5230  138.7810 C   0  0  0  0  0  2  0  0  0  0  0  0
  188.5080  173.5100  138.6980 C   0  0  0  0  0  0  0  0  0  0  0  0
  187.8430  174.4940  137.9780 O   0  0  0  0  0  0  0  0  0  0  0  0
  187.8520  172.6150  139.2910 O   0  0  0  0  0  1  0  0  0  0  0  0
  191.3930  171.6460  137.8250 C   0  0  0  0  0  2  0  0  0  0  0  0
  191.6540  172.7800  136.8420 C   0  0  0  0  0  2  0  0  0  0  0  0
  193.0890  172.7550  136.3400 C   0  0  0  0  0  2  0  0  0  0  0  0
  193.6370  171.4150  136.4630 N   0  0  0  0  0  1  0  0  0  0  0  0
  2  1  2  0  0  0  0
  5 12  1  6  0  0  0
  5  9  1  0  0  0  0
  6  1  1  6  0  0  0
  6  8  1  0  0  0  0
  6  7  1  0  0  0  0
  7  3  1  0  0  0  0
  8 10  1  0  0  0  0
 10  3  1  0  0  0  0
 10  9  1  0  0  0  0
 11  4  1  0  0  0  0
 11  8  1  0  0  0  0
 11  5  1  0  0  0  0
 13 12  1  0  0  0  0
 14 15  2  0  0  0  0
 14 19  1  0  0  0  0
 15 18  1  0  0  0  0
 16 17  1  0  0  0  0
 18 13  1  0  0  0  0
 18 17  2  0  0  0  0
 19 16  2  0  0  0  0
 20 21  2  0  0  0  0
 21 22  1  0  0  0  0
 21 15  1  0  0  0  0
 23 19  1  0  0  0  0
 24 23  1  0  0  0  0
 26 30  1  0  0  0  0
 27 26  1  0  0  0  0
 27 28  1  0  0  0  0
 28 31  1  0  0  0  0
 29 27  1  0  0  0  0
 30 31  1  0  0  0  0
 31 25  1  0  0  0  0
 31  1  1  0  0  0  0
 33 28  1  0  0  0  0
 33 32  1  0  0  0  0
 34 26  1  0  0  0  0
 34 36  1  0  0  0  0
 36 37  2  0  0  0  0
 36 35  1  0  0  0  0
 38 34  1  0  0  0  0
 39 38  1  0  0  0  0
 40 39  1  0  0  0  0
 40 42  1  0  0  0  0
 41 40  2  0  0  0  0
 43 38  1  0  0  0  0
 44 43  1  0  0  0  0
 45 46  1  0  0  0  0
 45 44  1  0  0  0  0
M  END
>  <MODEL>
5

>  <REMARK>
 VINA RESULT:      -6.0      2.715      8.289
  Name = 
  16 active torsions:
  status: ('A' for Active; 'I' for Inactive)
    1  A    between atoms: C_2  and  C_45
    2  A    between atoms: C_5  and  C_22
    3  A    between atoms: C_5  and  C_23
    4  A    between atoms: C_7  and  C_15
    5  A    between atoms: C_8  and  C_24
    6  A    between atoms: C_8  and  C_31
    7  A    between atoms: C_9  and  C_44
    8  A    between atoms: C_11  and  C_13
    9  A    between atoms: C_11  and  C_35
   10  A    between atoms: C_13  and  C_15
   11  A    between atoms: C_13  and  C_34
   12  A    between atoms: C_14  and  C_15
   13  A    between atoms: C_16  and  C_25
   14  A    between atoms: C_19  and  C_27
   15  A    between atoms: C_23  and  C_39
   16  A    between atoms: C_25  and  C_34
                            x       y       z     vdW  Elec       q    Type
                         _______ _______ _______ _____ _____    ______ ____

>  <TORSDO>
F 16

$$$$
=
 OpenBabel11062419473D

 46 49  0  0  1  0  0  0  0  0999 V2000
  189.5210  172.9140  142.7350 C   0  0  0  0  0  0  0  0  0  0  0  0
  188.9960  172.2000  143.6330 O   0  0  0  0  0  0  0  0  0  0  0  0
  190.4000  172.2880  138.9450 C   0  0  0  0  0  2  0  0  0  0  0  0
  192.0580  169.9070  142.5320 C   0  0  0  0  0  1  0  0  0  0  0  0
  193.2020  171.4250  140.9440 C   0  0  2  0  0  3  0  0  0  0  0  0
  189.8120  172.2710  141.4310 C   0  0  1  0  0  3  0  0  0  0  0  0
  188.9520  172.7910  139.9440 S   0  0  0  0  0  0  0  0  0  0  0  0
  190.8900  171.5470  141.1510 C   0  0  1  0  0  3  0  0  0  0  0  0
  192.6060  171.3190  139.6000 N   0  0  0  0  0  2  0  0  0  0  0  0
  191.2270  171.4580  139.8000 N   0  0  2  0  0  0  0  0  0  0  0  0
  192.0780  171.3220  141.9870 C   0  0  1  0  0  3  0  0  0  0  0  0
  193.9090  172.7660  141.0730 C   0  0  0  0  0  2  0  0  0  0  0  0
  195.1360  172.6390  141.9600 C   0  0  0  0  0  2  0  0  0  0  0  0
  195.0510  173.9100  145.5640 C   0  0  0  0  0  3  0  0  0  0  0  0
  195.2080  173.0190  144.4890 C   0  0  0  0  0  0  0  0  0  0  0  0
  194.4710  175.7030  144.0530 C   0  0  0  0  0  3  0  0  0  0  0  0
  194.6220  174.8360  142.9720 C   0  0  0  0  0  3  0  0  0  0  0  0
  194.9840  173.4980  143.1730 C   0  0  0  0  0  0  0  0  0  0  0  0
  194.6800  175.2390  145.3520 C   0  0  0  0  0  0  0  0  0  0  0  0
  194.9240  170.6630  144.3300 O   0  0  0  0  0  0  0  0  0  0  0  0
  195.6000  171.6200  144.7940 C   0  0  0  0  0  0  0  0  0  0  0  0
  196.7060  171.3310  145.5830 O   0  0  0  0  0  1  0  0  0  0  0  0
  194.5370  176.1670  146.5080 C   0  0  0  0  0  2  0  0  0  0  0  0
  194.5940  177.6070  146.0330 C   0  0  0  0  0  1  0  0  0  0  0  0
  191.0840  174.8410  142.3190 C   0  0  0  0  0  1  0  0  0  0  0  0
  188.1090  175.9400  143.8490 C   0  0  2  0  0  3  0  0  0  0  0  0
  189.2370  175.9140  144.8760 C   0  0  1  0  0  3  0  0  0  0  0  0
  189.9280  174.6020  144.5550 C   0  0  1  0  0  3  0  0  0  0  0  0
  190.1100  176.9870  144.6690 O   0  0  0  0  0  1  0  0  0  0  0  0
  188.6560  175.2490  142.6030 C   0  0  0  0  0  2  0  0  0  0  0  0
  189.8240  174.3690  143.0380 C   0  0  2  0  0  0  0  0  0  0  0  0
  191.2650  174.7950  146.5720 O   0  0  0  0  0  1  0  0  0  0  0  0
  191.2610  174.3200  145.2590 C   0  0  0  0  0  2  0  0  0  0  0  0
  187.5540  177.3440  143.5520 C   0  0  1  0  0  3  0  0  0  0  0  0
  187.0260  177.5380  141.2280 O   0  0  0  0  0  0  0  0  0  0  0  0
  187.8520  177.7820  142.1450 C   0  0  0  0  0  0  0  0  0  0  0  0
  189.0370  178.4450  141.8450 O   0  0  0  0  0  1  0  0  0  0  0  0
  186.0620  177.4570  143.9040 C   0  0  1  0  0  3  0  0  0  0  0  0
  185.7570  176.7390  145.2140 C   0  0  0  0  0  2  0  0  0  0  0  0
  185.8610  177.6710  146.3710 C   0  0  0  0  0  0  0  0  0  0  0  0
  184.7180  178.2530  146.9020 O   0  0  0  0  0  1  0  0  0  0  0  0
  186.9880  177.9420  146.8610 O   0  0  0  0  0  0  0  0  0  0  0  0
  185.5780  178.9090  143.9290 C   0  0  0  0  0  2  0  0  0  0  0  0
  184.1450  179.0250  143.4250 C   0  0  0  0  0  2  0  0  0  0  0  0
  183.8220  177.9250  142.4260 C   0  0  0  0  0  2  0  0  0  0  0  0
  183.8090  178.4650  141.0770 N   0  0  0  0  0  1  0  0  0  0  0  0
  1 31  1  0  0  0  0
  1  2  2  0  0  0  0
  3 10  1  0  0  0  0
  3  7  1  0  0  0  0
  5 12  1  6  0  0  0
  5 11  1  0  0  0  0
  6  1  1  6  0  0  0
  7  6  1  0  0  0  0
  8  6  1  0  0  0  0
  8 11  1  0  0  0  0
  9 10  1  0  0  0  0
  9  5  1  0  0  0  0
 10  8  1  0  0  0  0
 11  4  1  0  0  0  0
 12 13  1  0  0  0  0
 13 18  1  0  0  0  0
 15 21  1  0  0  0  0
 15 14  2  0  0  0  0
 16 19  2  0  0  0  0
 17 18  2  0  0  0  0
 17 16  1  0  0  0  0
 18 15  1  0  0  0  0
 19 14  1  0  0  0  0
 19 23  1  0  0  0  0
 20 21  2  0  0  0  0
 21 22  1  0  0  0  0
 24 23  1  0  0  0  0
 25 31  1  0  0  0  0
 26 27  1  0  0  0  0
 28 27  1  0  0  0  0
 28 33  1  0  0  0  0
 29 27  1  0  0  0  0
 30 31  1  0  0  0  0
 30 26  1  0  0  0  0
 31 28  1  0  0  0  0
 33 32  1  0  0  0  0
 34 26  1  0  0  0  0
 34 38  1  0  0  0  0
 35 36  2  0  0  0  0
 36 34  1  0  0  0  0
 37 36  1  0  0  0  0
 38 43  1  0  0  0  0
 38 39  1  0  0  0  0
 39 40  1  0  0  0  0
 40 42  2  0  0  0  0
 40 41  1  0  0  0  0
 44 43  1  0  0  0  0
 45 44  1  0  0  0  0
 46 45  1  0  0  0  0
M  END
>  <MODEL>
6

>  <REMARK>
 VINA RESULT:      -5.9      1.801      2.373
  Name = 
  16 active torsions:
  status: ('A' for Active; 'I' for Inactive)
    1  A    between atoms: C_2  and  C_45
    2  A    between atoms: C_5  and  C_22
    3  A    between atoms: C_5  and  C_23
    4  A    between atoms: C_7  and  C_15
    5  A    between atoms: C_8  and  C_24
    6  A    between atoms: C_8  and  C_31
    7  A    between atoms: C_9  and  C_44
    8  A    between atoms: C_11  and  C_13
    9  A    between atoms: C_11  and  C_35
   10  A    between atoms: C_13  and  C_15
   11  A    between atoms: C_13  and  C_34
   12  A    between atoms: C_14  and  C_15
   13  A    between atoms: C_16  and  C_25
   14  A    between atoms: C_19  and  C_27
   15  A    between atoms: C_23  and  C_39
   16  A    between atoms: C_25  and  C_34
                            x       y       z     vdW  Elec       q    Type
                         _______ _______ _______ _____ _____    ______ ____

>  <TORSDO>
F 16

$$$$
=
 OpenBabel11062419473D

 46 49  0  0  1  0  0  0  0  0999 V2000
  192.4090  173.7070  144.3370 C   0  0  0  0  0  0  0  0  0  0  0  0
  193.4070  173.1900  144.9100 O   0  0  0  0  0  0  0  0  0  0  0  0
  191.5010  177.4380  143.4490 C   0  0  0  0  0  2  0  0  0  0  0  0
  191.4900  175.5860  147.6750 C   0  0  0  0  0  1  0  0  0  0  0  0
  189.6210  176.4290  146.2850 C   0  0  2  0  0  3  0  0  0  0  0  0
  192.2990  175.1860  144.3530 C   0  0  1  0  0  3  0  0  0  0  0  0
  192.6670  176.1470  142.8820 S   0  0  0  0  0  0  0  0  0  0  0  0
  191.6380  175.9000  145.2580 C   0  0  1  0  0  3  0  0  0  0  0  0
  190.0520  177.5850  145.4770 N   0  0  0  0  0  2  0  0  0  0  0  0
  191.2340  177.1720  144.8490 N   0  0  2  0  0  0  0  0  0  0  0  0
  190.7770  175.4180  146.3470 C   0  0  1  0  0  3  0  0  0  0  0  0
  188.4050  175.7890  145.6320 C   0  0  0  0  0  2  0  0  0  0  0  0
  187.1370  176.5280  146.0250 C   0  0  0  0  0  2  0  0  0  0  0  0
  184.7730  178.3580  143.6430 C   0  0  0  0  0  3  0  0  0  0  0  0
  185.3740  177.9610  144.8500 C   0  0  0  0  0  0  0  0  0  0  0  0
  186.2280  176.8970  142.3850 C   0  0  0  0  0  3  0  0  0  0  0  0
  186.8390  176.4910  143.5710 C   0  0  0  0  0  3  0  0  0  0  0  0
  186.4220  177.0070  144.8040 C   0  0  0  0  0  0  0  0  0  0  0  0
  185.1890  177.8270  142.4210 C   0  0  0  0  0  0  0  0  0  0  0  0
  183.7100  178.2960  146.5170 O   0  0  0  0  0  0  0  0  0  0  0  0
  184.8730  178.5650  146.1100 C   0  0  0  0  0  0  0  0  0  0  0  0
  185.6590  179.4240  146.8670 O   0  0  0  0  0  1  0  0  0  0  0  0
  184.5470  178.2770  141.1550 C   0  0  0  0  0  2  0  0  0  0  0  0
  183.0380  178.2850  141.3090 C   0  0  0  0  0  1  0  0  0  0  0  0
  190.3210  172.3420  144.6620 C   0  0  0  0  0  1  0  0  0  0  0  0
  191.0290  172.7660  141.2380 C   0  0  2  0  0  3  0  0  0  0  0  0
  191.4050  171.3530  141.6710 C   0  0  1  0  0  3  0  0  0  0  0  0
  192.0810  171.5980  143.0070 C   0  0  1  0  0  3  0  0  0  0  0  0
  190.2560  170.5730  141.8430 O   0  0  0  0  0  1  0  0  0  0  0  0
  190.7090  173.5290  142.5220 C   0  0  0  0  0  2  0  0  0  0  0  0
  191.3910  172.7990  143.6750 C   0  0  2  0  0  0  0  0  0  0  0  0
  193.1670  169.4310  143.1420 O   0  0  0  0  0  1  0  0  0  0  0  0
  192.4210  170.3690  143.8590 C   0  0  0  0  0  2  0  0  0  0  0  0
  189.8860  172.8310  140.2100 C   0  0  1  0  0  3  0  0  0  0  0  0
  187.8080  172.8820  141.3940 O   0  0  0  0  0  1  0  0  0  0  0  0
  188.6750  173.5360  140.7570 C   0  0  0  0  0  0  0  0  0  0  0  0
  188.4990  174.9000  140.5580 O   0  0  0  0  0  0  0  0  0  0  0  0
  190.3550  173.4160  138.8680 C   0  0  1  0  0  3  0  0  0  0  0  0
  191.7750  172.9650  138.5450 C   0  0  0  0  0  2  0  0  0  0  0  0
  192.6690  174.1350  138.3200 C   0  0  0  0  0  0  0  0  0  0  0  0
  193.4930  174.5880  139.3400 O   0  0  0  0  0  1  0  0  0  0  0  0
  192.6680  174.7220  137.2060 O   0  0  0  0  0  0  0  0  0  0  0  0
  189.3880  173.1000  137.7250 C   0  0  0  0  0  2  0  0  0  0  0  0
  189.8660  171.9060  136.9080 C   0  0  0  0  0  2  0  0  0  0  0  0
  189.6580  172.1370  135.4200 C   0  0  0  0  0  2  0  0  0  0  0  0
  190.5630  173.1690  134.9440 N   0  0  0  0  0  1  0  0  0  0  0  0
  1  2  2  0  0  0  0
  3 10  1  0  0  0  0
  5 12  1  6  0  0  0
  5 11  1  0  0  0  0
  6  1  1  6  0  0  0
  6  8  1  0  0  0  0
  7  3  1  0  0  0  0
  7  6  1  0  0  0  0
  8 11  1  0  0  0  0
  9  5  1  0  0  0  0
 10  8  1  0  0  0  0
 10  9  1  0  0  0  0
 11  4  1  0  0  0  0
 12 13  1  0  0  0  0
 14 15  1  0  0  0  0
 15 21  1  0  0  0  0
 16 19  1  0  0  0  0
 16 17  2  0  0  0  0
 17 18  1  0  0  0  0
 18 15  2  0  0  0  0
 18 13  1  0  0  0  0
 19 14  2  0  0  0  0
 21 20  2  0  0  0  0
 21 22  1  0  0  0  0
 23 24  1  0  0  0  0
 23 19  1  0  0  0  0
 26 27  1  0  0  0  0
 26 30  1  0  0  0  0
 27 29  1  0  0  0  0
 27 28  1  0  0  0  0
 28 31  1  0  0  0  0
 28 33  1  0  0  0  0
 30 31  1  0  0  0  0
 31  1  1  0  0  0  0
 31 25  1  0  0  0  0
 32 33  1  0  0  0  0
 34 36  1  0  0  0  0
 34 26  1  0  0  0  0
 36 35  1  0  0  0  0
 37 36  2  0  0  0  0
 38 34  1  0  0  0  0
 39 38  1  0  0  0  0
 40 39  1  0  0  0  0
 40 41  1  0  0  0  0
 42 40  2  0  0  0  0
 43 38  1  0  0  0  0
 44 43  1  0  0  0  0
 45 44  1  0  0  0  0
 46 45  1  0  0  0  0
M  END
>  <MODEL>
7

>  <REMARK>
 VINA RESULT:      -5.9      2.646      8.418
  Name = 
  16 active torsions:
  status: ('A' for Active; 'I' for Inactive)
    1  A    between atoms: C_2  and  C_45
    2  A    between atoms: C_5  and  C_22
    3  A    between atoms: C_5  and  C_23
    4  A    between atoms: C_7  and  C_15
    5  A    between atoms: C_8  and  C_24
    6  A    between atoms: C_8  and  C_31
    7  A    between atoms: C_9  and  C_44
    8  A    between atoms: C_11  and  C_13
    9  A    between atoms: C_11  and  C_35
   10  A    between atoms: C_13  and  C_15
   11  A    between atoms: C_13  and  C_34
   12  A    between atoms: C_14  and  C_15
   13  A    between atoms: C_16  and  C_25
   14  A    between atoms: C_19  and  C_27
   15  A    between atoms: C_23  and  C_39
   16  A    between atoms: C_25  and  C_34
                            x       y       z     vdW  Elec       q    Type
                         _______ _______ _______ _____ _____    ______ ____

>  <TORSDO>
F 16

$$$$
=
 OpenBabel11062419473D

 46 49  0  0  1  0  0  0  0  0999 V2000
  193.6030  175.2580  142.6030 C   0  0  0  0  0  0  0  0  0  0  0  0
  193.3560  176.3530  142.0270 O   0  0  0  0  0  0  0  0  0  0  0  0
  194.5570  176.4380  146.2410 C   0  0  0  0  0  2  0  0  0  0  0  0
  191.0030  173.7140  145.1270 C   0  0  0  0  0  1  0  0  0  0  0  0
  191.0390  176.0160  146.0420 C   0  0  2  0  0  3  0  0  0  0  0  0
  193.8680  175.2950  144.0620 C   0  0  1  0  0  3  0  0  0  0  0  0
  195.4110  175.9610  144.6940 S   0  0  0  0  0  0  0  0  0  0  0  0
  192.9500  175.1820  145.0160 C   0  0  1  0  0  3  0  0  0  0  0  0
  192.1780  176.1950  146.9600 N   0  0  0  0  0  2  0  0  0  0  0  0
  193.2930  175.7260  146.2540 N   0  0  2  0  0  0  0  0  0  0  0  0
  191.4880  175.1280  144.8710 C   0  0  1  0  0  3  0  0  0  0  0  0
  190.5980  177.3760  145.5220 C   0  0  0  0  0  2  0  0  0  0  0  0
  189.8010  177.2240  144.2370 C   0  0  0  0  0  2  0  0  0  0  0  0
  186.1340  178.1900  143.7530 C   0  0  0  0  0  3  0  0  0  0  0  0
  187.4660  177.8840  143.4260 C   0  0  0  0  0  0  0  0  0  0  0  0
  186.5930  177.8840  146.1050 C   0  0  0  0  0  3  0  0  0  0  0  0
  187.9190  177.5760  145.8020 C   0  0  0  0  0  3  0  0  0  0  0  0
  188.3690  177.5770  144.4760 C   0  0  0  0  0  0  0  0  0  0  0  0
  185.7000  178.1970  145.0800 C   0  0  0  0  0  0  0  0  0  0  0  0
  188.9510  178.4170  141.6450 O   0  0  0  0  0  1  0  0  0  0  0  0
  187.8540  177.9020  141.9930 C   0  0  0  0  0  0  0  0  0  0  0  0
  187.0360  177.3570  141.0120 O   0  0  0  0  0  0  0  0  0  0  0  0
  184.2790  178.5080  145.3980 C   0  0  0  0  0  2  0  0  0  0  0  0
  184.0590  178.4690  146.8990 C   0  0  0  0  0  1  0  0  0  0  0  0
  194.7050  173.0240  142.2540 C   0  0  0  0  0  1  0  0  0  0  0  0
  191.6660  173.2190  140.4840 C   0  0  2  0  0  3  0  0  0  0  0  0
  192.8360  173.3730  139.5180 C   0  0  1  0  0  3  0  0  0  0  0  0
  193.7630  174.2980  140.2840 C   0  0  1  0  0  3  0  0  0  0  0  0
  193.4540  172.1360  139.3000 O   0  0  0  0  0  1  0  0  0  0  0  0
  192.2670  173.2770  141.8870 C   0  0  0  0  0  2  0  0  0  0  0  0
  193.6160  173.9820  141.7830 C   0  0  2  0  0  0  0  0  0  0  0  0
  195.6890  175.7610  140.0820 O   0  0  0  0  0  1  0  0  0  0  0  0
  195.1660  174.5230  139.7070 C   0  0  0  0  0  2  0  0  0  0  0  0
  190.8160  171.9570  140.2570 C   0  0  1  0  0  3  0  0  0  0  0  0
  191.9010  170.1130  141.3250 O   0  0  0  0  0  0  0  0  0  0  0  0
  190.9740  170.9620  141.3730 C   0  0  0  0  0  0  0  0  0  0  0  0
  190.0990  170.9650  142.4530 O   0  0  0  0  0  1  0  0  0  0  0  0
  189.3450  172.3010  139.9730 C   0  0  1  0  0  3  0  0  0  0  0  0
  189.0070  173.7010  140.4740 C   0  0  0  0  0  2  0  0  0  0  0  0
  188.2810  173.6420  141.7730 C   0  0  0  0  0  0  0  0  0  0  0  0
  187.3030  172.6790  141.9810 O   0  0  0  0  0  0  0  0  0  0  0  0
  188.5450  174.4750  142.6790 O   0  0  0  0  0  1  0  0  0  0  0  0
  188.9800  172.1250  138.4970 C   0  0  0  0  0  2  0  0  0  0  0  0
  189.8900  171.1090  137.8180 C   0  0  0  0  0  2  0  0  0  0  0  0
  190.5930  171.7160  136.6140 C   0  0  0  0  0  2  0  0  0  0  0  0
  191.6330  170.8190  136.1390 N   0  0  0  0  0  1  0  0  0  0  0  0
  2  1  2  0  0  0  0
  3 10  1  0  0  0  0
  5 12  1  6  0  0  0
  5  9  1  0  0  0  0
  6  1  1  6  0  0  0
  6  7  1  0  0  0  0
  6  8  1  0  0  0  0
  7  3  1  0  0  0  0
  8 10  1  0  0  0  0
 10  9  1  0  0  0  0
 11  8  1  0  0  0  0
 11  4  1  0  0  0  0
 11  5  1  0  0  0  0
 13 18  1  0  0  0  0
 13 12  1  0  0  0  0
 14 19  1  0  0  0  0
 15 14  2  0  0  0  0
 15 18  1  0  0  0  0
 17 16  1  0  0  0  0
 18 17  2  0  0  0  0
 19 23  1  0  0  0  0
 19 16  2  0  0  0  0
 20 21  1  0  0  0  0
 21 15  1  0  0  0  0
 22 21  2  0  0  0  0
 23 24  1  0  0  0  0
 26 30  1  0  0  0  0
 27 28  1  0  0  0  0
 27 26  1  0  0  0  0
 28 31  1  0  0  0  0
 29 27  1  0  0  0  0
 31 30  1  0  0  0  0
 31 25  1  0  0  0  0
 31  1  1  0  0  0  0
 33 32  1  0  0  0  0
 33 28  1  0  0  0  0
 34 26  1  0  0  0  0
 34 36  1  0  0  0  0
 35 36  2  0  0  0  0
 36 37  1  0  0  0  0
 38 34  1  0  0  0  0
 38 39  1  0  0  0  0
 39 40  1  0  0  0  0
 40 41  2  0  0  0  0
 40 42  1  0  0  0  0
 43 38  1  0  0  0  0
 44 43  1  0  0  0  0
 45 44  1  0  0  0  0
 46 45  1  0  0  0  0
M  END
>  <MODEL>
8

>  <REMARK>
 VINA RESULT:      -5.9      2.772      8.077
  Name = 
  16 active torsions:
  status: ('A' for Active; 'I' for Inactive)
    1  A    between atoms: C_2  and  C_45
    2  A    between atoms: C_5  and  C_22
    3  A    between atoms: C_5  and  C_23
    4  A    between atoms: C_7  and  C_15
    5  A    between atoms: C_8  and  C_24
    6  A    between atoms: C_8  and  C_31
    7  A    between atoms: C_9  and  C_44
    8  A    between atoms: C_11  and  C_13
    9  A    between atoms: C_11  and  C_35
   10  A    between atoms: C_13  and  C_15
   11  A    between atoms: C_13  and  C_34
   12  A    between atoms: C_14  and  C_15
   13  A    between atoms: C_16  and  C_25
   14  A    between atoms: C_19  and  C_27
   15  A    between atoms: C_23  and  C_39
   16  A    between atoms: C_25  and  C_34
                            x       y       z     vdW  Elec       q    Type
                         _______ _______ _______ _____ _____    ______ ____

>  <TORSDO>
F 16

$$$$
=
 OpenBabel11062419473D

 46 49  0  0  1  0  0  0  0  0999 V2000
  190.7720  174.5570  145.2440 C   0  0  0  0  0  0  0  0  0  0  0  0
  189.8210  175.0650  145.8990 O   0  0  0  0  0  0  0  0  0  0  0  0
  188.9130  171.6760  143.2990 C   0  0  0  0  0  2  0  0  0  0  0  0
  191.6100  174.9090  141.4110 C   0  0  0  0  0  1  0  0  0  0  0  0
  189.1740  174.5190  141.1920 C   0  0  2  0  0  3  0  0  0  0  0  0
  190.4460  173.4550  144.3060 C   0  0  1  0  0  3  0  0  0  0  0  0
  189.7480  171.9160  144.9100 S   0  0  0  0  0  0  0  0  0  0  0  0
  190.3070  173.5790  142.9900 C   0  0  1  0  0  3  0  0  0  0  0  0
  188.8700  173.0760  141.2330 N   0  0  0  0  0  2  0  0  0  0  0  0
  189.5370  172.5960  142.3680 N   0  0  2  0  0  0  0  0  0  0  0  0
  190.3100  174.8090  142.1850 C   0  0  1  0  0  3  0  0  0  0  0  0
  187.9290  175.3030  141.5820 C   0  0  0  0  0  2  0  0  0  0  0  0
  188.2320  176.7900  141.6420 C   0  0  0  0  0  2  0  0  0  0  0  0
  185.5600  178.6300  143.6630 C   0  0  0  0  0  3  0  0  0  0  0  0
  186.2140  178.0720  142.5510 C   0  0  0  0  0  0  0  0  0  0  0  0
  187.3420  177.9150  145.1280 C   0  0  0  0  0  3  0  0  0  0  0  0
  188.0070  177.3530  144.0390 C   0  0  0  0  0  3  0  0  0  0  0  0
  187.4610  177.4280  142.7520 C   0  0  0  0  0  0  0  0  0  0  0  0
  186.1190  178.5600  144.9400 C   0  0  0  0  0  0  0  0  0  0  0  0
  184.3550  178.5580  141.1480 O   0  0  0  0  0  1  0  0  0  0  0  0
  185.5590  178.1930  141.2240 C   0  0  0  0  0  0  0  0  0  0  0  0
  186.2450  177.9150  140.0480 O   0  0  0  0  0  0  0  0  0  0  0  0
  185.3970  179.1440  146.1040 C   0  0  0  0  0  2  0  0  0  0  0  0
  185.4590  178.1970  147.2870 C   0  0  0  0  0  1  0  0  0  0  0  0
  192.3700  175.6240  146.8670 C   0  0  0  0  0  1  0  0  0  0  0  0
  194.0720  174.4300  144.0240 C   0  0  2  0  0  3  0  0  0  0  0  0
  193.9400  175.9480  143.9460 C   0  0  1  0  0  3  0  0  0  0  0  0
  192.5100  176.1670  144.4020 C   0  0  1  0  0  3  0  0  0  0  0  0
  194.8330  176.5600  144.8330 O   0  0  0  0  0  1  0  0  0  0  0  0
  193.2000  173.9900  145.1980 C   0  0  0  0  0  2  0  0  0  0  0  0
  192.1750  175.0930  145.4500 C   0  0  2  0  0  0  0  0  0  0  0  0
  191.4530  178.1720  143.5320 O   0  0  0  0  0  1  0  0  0  0  0  0
  192.0670  177.6140  144.6540 C   0  0  0  0  0  2  0  0  0  0  0  0
  195.5200  173.9240  144.1400 C   0  0  1  0  0  3  0  0  0  0  0  0
  195.5880  172.1410  145.7320 O   0  0  0  0  0  0  0  0  0  0  0  0
  195.8120  173.3570  145.5020 C   0  0  0  0  0  0  0  0  0  0  0  0
  196.3170  174.1670  146.5120 O   0  0  0  0  0  1  0  0  0  0  0  0
  195.8790  172.9510  143.0040 C   0  0  1  0  0  3  0  0  0  0  0  0
  194.6750  172.6980  142.1040 C   0  0  0  0  0  2  0  0  0  0  0  0
  194.1050  171.3430  142.3430 C   0  0  0  0  0  0  0  0  0  0  0  0
  194.8350  170.2110  142.0050 O   0  0  0  0  0  0  0  0  0  0  0  0
  192.9550  171.2230  142.8390 O   0  0  0  0  0  1  0  0  0  0  0  0
  197.0970  173.4170  142.2020 C   0  0  0  0  0  2  0  0  0  0  0  0
  197.2660  174.9300  142.2810 C   0  0  0  0  0  2  0  0  0  0  0  0
  196.8460  175.5990  140.9810 C   0  0  0  0  0  2  0  0  0  0  0  0
  196.0640  176.7910  141.2640 N   0  0  0  0  0  1  0  0  0  0  0  0
  1 31  1  0  0  0  0
  1  2  2  0  0  0  0
  3  7  1  0  0  0  0
  4 11  1  0  0  0  0
  5  9  1  0  0  0  0
  5 12  1  1  0  0  0
  5 11  1  0  0  0  0
  6  7  1  0  0  0  0
  6  1  1  1  0  0  0
  8  6  1  0  0  0  0
  9 10  1  0  0  0  0
 10  8  1  0  0  0  0
 10  3  1  0  0  0  0
 11  8  1  0  0  0  0
 12 13  1  0  0  0  0
 13 18  1  0  0  0  0
 14 19  1  0  0  0  0
 15 18  1  0  0  0  0
 15 14  2  0  0  0  0
 17 16  1  0  0  0  0
 18 17  2  0  0  0  0
 19 16  2  0  0  0  0
 19 23  1  0  0  0  0
 20 21  1  0  0  0  0
 21 15  1  0  0  0  0
 22 21  2  0  0  0  0
 23 24  1  0  0  0  0
 26 34  1  0  0  0  0
 26 30  1  0  0  0  0
 27 26  1  0  0  0  0
 27 28  1  0  0  0  0
 27 29  1  0  0  0  0
 28 33  1  0  0  0  0
 28 31  1  0  0  0  0
 30 31  1  0  0  0  0
 31 25  1  0  0  0  0
 32 33  1  0  0  0  0
 34 36  1  0  0  0  0
 36 35  2  0  0  0  0
 36 37  1  0  0  0  0
 38 34  1  0  0  0  0
 39 40  1  0  0  0  0
 39 38  1  0  0  0  0
 40 42  1  0  0  0  0
 41 40  2  0  0  0  0
 43 44  1  0  0  0  0
 43 38  1  0  0  0  0
 45 46  1  0  0  0  0
 45 44  1  0  0  0  0
M  END
>  <MODEL>
9

>  <REMARK>
 VINA RESULT:      -5.9      2.495      8.397
  Name = 
  16 active torsions:
  status: ('A' for Active; 'I' for Inactive)
    1  A    between atoms: C_2  and  C_45
    2  A    between atoms: C_5  and  C_22
    3  A    between atoms: C_5  and  C_23
    4  A    between atoms: C_7  and  C_15
    5  A    between atoms: C_8  and  C_24
    6  A    between atoms: C_8  and  C_31
    7  A    between atoms: C_9  and  C_44
    8  A    between atoms: C_11  and  C_13
    9  A    between atoms: C_11  and  C_35
   10  A    between atoms: C_13  and  C_15
   11  A    between atoms: C_13  and  C_34
   12  A    between atoms: C_14  and  C_15
   13  A    between atoms: C_16  and  C_25
   14  A    between atoms: C_19  and  C_27
   15  A    between atoms: C_23  and  C_39
   16  A    between atoms: C_25  and  C_34
                            x       y       z     vdW  Elec       q    Type
                         _______ _______ _______ _____ _____    ______ ____

>  <TORSDO>
F 16

$$$$
