=
 OpenBabel11072409093D

 57 64  0  0  1  0  0  0  0  0999 V2000
  194.4420  174.7760  143.7030 C   0  0  2  0  0  3  0  0  0  0  0  0
  193.8940  175.7120  146.4190 C   0  0  0  0  0  2  0  0  0  0  0  0
  195.2930  175.1980  146.0570 C   0  0  0  0  0  2  0  0  0  0  0  0
  192.9380  175.5980  145.2220 C   0  0  2  0  0  3  0  0  0  0  0  0
  193.6350  175.8960  144.0340 O   0  0  0  0  0  0  0  0  0  0  0  0
  195.2110  174.1810  144.9270 C   0  0  2  0  0  3  0  0  0  0  0  0
  196.0310  176.3210  142.5620 O   0  0  0  0  0  1  0  0  0  0  0  0
  195.4390  174.3440  141.5670 O   0  0  0  0  0  0  0  0  0  0  0  0
  195.3300  175.1220  142.5490 C   0  0  0  0  0  0  0  0  0  0  0  0
  191.7230  176.5080  145.3960 C   0  0  1  0  0  3  0  0  0  0  0  0
  191.6200  177.3900  144.3150 O   0  0  0  0  0  1  0  0  0  0  0  0
  190.4330  175.6910  145.5610 C   0  0  1  0  0  3  0  0  0  0  0  0
  190.6730  174.2040  145.3530 C   0  0  0  0  0  1  0  0  0  0  0  0
  189.6600  175.9870  146.8540 C   0  0  0  0  0  2  0  0  0  0  0  0
  188.7620  177.2100  146.7370 C   0  0  0  0  0  2  0  0  0  0  0  0
  187.5080  176.8320  146.2370 O   0  0  0  0  0  0  0  0  0  0  0  0
  185.6770  178.4310  145.7330 C   0  0  1  0  0  3  0  0  0  0  0  0
  187.0550  177.8430  145.3620 C   0  0  2  0  0  3  0  0  0  0  0  0
  185.7770  179.1160  147.0820 C   0  0  0  0  0  1  0  0  0  0  0  0
  185.5650  176.0260  143.4620 F   0  0  0  0  0  0  0  0  0  0  0  0
  186.3280  177.0550  142.9340 C   0  0  1  0  0  3  0  0  0  0  0  0
  184.0890  178.5980  143.5270 S   0  0  0  0  0  0  0  0  0  0  0  0
  185.4570  178.1850  142.3840 C   0  0  2  0  0  3  0  0  0  0  0  0
  185.1830  179.4380  144.7120 C   0  0  0  0  0  2  0  0  0  0  0  0
  187.3580  177.5530  143.9070 C   0  0  0  0  0  0  0  0  0  0  0  0
  188.4930  177.7490  143.5050 O   0  0  0  0  0  0  0  0  0  0  0  0
  184.9140  177.7680  141.0250 C   0  0  2  0  0  3  0  0  0  0  0  0
  184.6760  178.9770  140.2220 N   0  0  0  0  0  2  0  0  0  0  0  0
  183.5490  178.2480  140.8170 C   0  0  0  0  0  2  0  0  0  0  0  0
  196.5050  173.6780  144.6140 O   0  0  0  0  0  0  0  0  0  0  0  0
  197.9410  171.8970  144.2850 O   0  0  0  0  0  0  0  0  0  0  0  0
  196.7620  172.3130  144.4560 C   0  0  0  0  0  0  0  0  0  0  0  0
  194.3450  169.4470  145.3890 C   0  0  0  0  0  0  0  0  0  0  0  0
  194.5400  168.6490  146.4270 C   0  0  0  0  0  2  0  0  0  0  0  0
  195.6230  171.3790  144.4740 C   0  0  0  0  0  2  0  0  0  0  0  0
  196.2680  170.0350  146.5090 C   0  0  0  0  0  3  0  0  0  0  0  0
  195.4480  170.3930  145.3580 C   0  0  0  0  0  0  0  0  0  0  0  0
  195.7320  169.0260  147.1210 N   0  0  0  0  0  0  0  0  0  0  0  0
  193.2290  169.3200  144.3980 C   0  0  0  0  0  2  0  0  0  0  0  0
  192.8650  168.2700  142.1520 C   0  0  0  0  0  3  0  0  0  0  0  0
  193.6670  168.5470  143.1870 C   0  0  0  0  0  3  0  0  0  0  0  0
  191.4430  168.7270  142.0900 C   0  0  0  0  0  2  0  0  0  0  0  0
  189.0440  172.6980  138.1310 C   0  0  0  0  0  3  0  0  0  0  0  0
  190.9680  171.1790  141.5680 C   0  0  0  0  0  0  0  0  0  0  0  0
  189.8000  173.2030  140.4080 C   0  0  0  0  0  0  0  0  0  0  0  0
  190.2240  171.0390  139.3990 C   0  0  0  0  0  0  0  0  0  0  0  0
  191.3130  169.8480  141.1700 N   0  0  0  0  0  0  0  0  0  0  0  0
  189.1450  173.5880  139.2190 C   0  0  0  0  0  3  0  0  0  0  0  0
  190.3240  171.9030  140.4700 C   0  0  0  0  0  0  0  0  0  0  0  0
  191.8330  169.1500  138.8410 C   0  0  0  0  0  2  0  0  0  0  0  0
  189.5840  171.4060  138.2150 C   0  0  0  0  0  3  0  0  0  0  0  0
  190.5420  168.3970  139.1760 C   0  0  0  0  0  2  0  0  0  0  0  0
  191.1440  171.6280  142.7320 O   0  0  0  0  0  0  0  0  0  0  0  0
  190.8290  169.7420  139.7990 C   0  0  0  0  0  0  0  0  0  0  0  0
  188.6100  174.1820  142.3410 C   0  0  0  0  0  2  0  0  0  0  0  0
  189.8800  174.1350  141.5800 C   0  0  2  0  0  3  0  0  0  0  0  0
  188.9420  175.1710  141.4030 O   0  0  0  0  0  0  0  0  0  0  0  0
  1  9  1  6  0  0  0
  1  5  1  0  0  0  0
  1  6  1  0  0  0  0
  3  2  1  0  0  0  0
  4 10  1  1  0  0  0
  4  2  1  0  0  0  0
  5  4  1  0  0  0  0
  6 30  1  6  0  0  0
  6  3  1  0  0  0  0
  8  9  2  0  0  0  0
  9  7  1  0  0  0  0
 10 11  1  6  0  0  0
 10 12  1  0  0  0  0
 12 13  1  1  0  0  0
 12 14  1  0  0  0  0
 15 14  1  0  0  0  0
 16 15  1  0  0  0  0
 17 19  1  1  0  0  0
 18 17  1  0  0  0  0
 18 16  1  1  0  0  0
 21 20  1  1  0  0  0
 21 25  1  0  0  0  0
 22 24  1  0  0  0  0
 23 21  1  0  0  0  0
 23 22  1  1  0  0  0
 24 17  1  0  0  0  0
 25 18  1  0  0  0  0
 26 25  2  0  0  0  0
 27 29  1  1  0  0  0
 27 23  1  0  0  0  0
 28 29  1  0  0  0  0
 28 27  1  0  0  0  0
 31 32  2  0  0  0  0
 32 35  1  0  0  0  0
 32 30  1  0  0  0  0
 33 34  1  0  0  0  0
 34 38  1  0  0  0  0
 35 37  1  0  0  0  0
 36 38  2  0  0  0  0
 37 33  2  0  0  0  0
 37 36  1  0  0  0  0
 39 33  1  0  0  0  0
 40 41  2  0  0  0  0
 41 39  1  0  0  0  0
 42 40  1  0  0  0  0
 43 51  2  0  0  0  0
 43 48  1  0  0  0  0
 44 53  2  0  0  0  0
 45 49  1  0  0  0  0
 46 54  1  0  0  0  0
 46 49  2  0  0  0  0
 47 44  1  0  0  0  0
 47 42  1  0  0  0  0
 48 45  2  0  0  0  0
 49 44  1  0  0  0  0
 50 52  1  0  0  0  0
 50 54  1  0  0  0  0
 51 46  1  0  0  0  0
 52 54  1  0  0  0  0
 54 47  1  0  0  0  0
 56 45  1  6  0  0  0
 56 55  1  0  0  0  0
 57 56  1  0  0  0  0
 57 55  1  0  0  0  0
M  END
>  <MODEL>
1

>  <REMARK>
 VINA RESULT:      -7.6      0.000      0.000
  Name = 
  16 active torsions:
  status: ('A' for Active; 'I' for Inactive)
    1  A    between atoms: C_2  and  O_25
    2  A    between atoms: C_3  and  C_5
    3  A    between atoms: C_3  and  C_53
    4  A    between atoms: C_9  and  C_11
    5  A    between atoms: C_9  and  C_42
    6  A    between atoms: C_10  and  C_31
    7  A    between atoms: C_11  and  C_12
    8  A    between atoms: C_12  and  C_22
    9  A    between atoms: C_15  and  C_55
   10  A    between atoms: N_20  and  C_57
   11  A    between atoms: O_25  and  C_42
   12  A    between atoms: C_27  and  C_52
   13  A    between atoms: C_28  and  C_30
   14  A    between atoms: C_36  and  C_57
   15  A    between atoms: O_43  and  C_48
   16  A    between atoms: O_43  and  C_52
                            x       y       z     vdW  Elec       q    Type
                         _______ _______ _______ _____ _____    ______ ____

>  <TORSDO>
F 16

$$$$
=
 OpenBabel11072409093D

 57 64  0  0  1  0  0  0  0  0999 V2000
  195.5470  173.4280  138.9700 C   0  0  2  0  0  3  0  0  0  0  0  0
  194.4540  171.6420  141.0110 C   0  0  0  0  0  2  0  0  0  0  0  0
  194.2400  173.1560  141.1290 C   0  0  0  0  0  2  0  0  0  0  0  0
  195.3050  171.2990  139.7780 C   0  0  2  0  0  3  0  0  0  0  0  0
  194.9620  172.1600  138.7170 O   0  0  0  0  0  0  0  0  0  0  0  0
  195.3750  173.9080  140.4470 C   0  0  2  0  0  3  0  0  0  0  0  0
  195.9650  175.2690  137.3420 O   0  0  0  0  0  0  0  0  0  0  0  0
  193.8360  174.4900  137.6700 O   0  0  0  0  0  1  0  0  0  0  0  0
  195.0580  174.4170  137.9580 C   0  0  0  0  0  0  0  0  0  0  0  0
  195.1370  169.8340  139.3810 C   0  0  1  0  0  3  0  0  0  0  0  0
  194.3270  169.1710  140.3060 O   0  0  0  0  0  1  0  0  0  0  0  0
  194.5670  169.7030  137.9600 C   0  0  1  0  0  3  0  0  0  0  0  0
  195.5870  169.1260  136.9900 C   0  0  0  0  0  1  0  0  0  0  0  0
  193.2140  168.9810  137.8870 C   0  0  0  0  0  2  0  0  0  0  0  0
  192.2030  169.7120  137.0150 C   0  0  0  0  0  2  0  0  0  0  0  0
  192.1140  171.0540  137.4130 O   0  0  0  0  0  0  0  0  0  0  0  0
  189.8650  172.0800  137.1930 C   0  0  1  0  0  3  0  0  0  0  0  0
  190.8610  171.2520  138.0310 C   0  0  2  0  0  3  0  0  0  0  0  0
  189.5420  171.3260  135.9170 C   0  0  0  0  0  1  0  0  0  0  0  0
  191.5580  173.8390  139.4270 F   0  0  0  0  0  0  0  0  0  0  0  0
  190.8280  172.8890  140.1210 C   0  0  1  0  0  3  0  0  0  0  0  0
  188.6780  173.9860  138.7340 S   0  0  0  0  0  0  0  0  0  0  0  0
  189.3660  173.3040  140.2870 C   0  0  2  0  0  3  0  0  0  0  0  0
  188.5710  172.3560  137.9350 C   0  0  0  0  0  2  0  0  0  0  0  0
  190.9640  171.5190  139.5180 C   0  0  0  0  0  0  0  0  0  0  0  0
  191.1530  170.5710  140.2630 O   0  0  0  0  0  0  0  0  0  0  0  0
  189.2730  174.3270  141.4100 C   0  0  2  0  0  3  0  0  0  0  0  0
  188.2760  173.8640  142.3870 N   0  0  0  0  0  2  0  0  0  0  0  0
  187.9540  174.9560  141.4610 C   0  0  0  0  0  2  0  0  0  0  0  0
  195.1950  175.3140  140.5870 O   0  0  0  0  0  0  0  0  0  0  0  0
  197.0340  176.5070  141.3160 O   0  0  0  0  0  0  0  0  0  0  0  0
  195.8750  176.0650  141.5490 C   0  0  0  0  0  0  0  0  0  0  0  0
  194.8030  175.8370  145.2530 C   0  0  0  0  0  0  0  0  0  0  0  0
  195.3310  174.9720  146.1040 C   0  0  0  0  0  2  0  0  0  0  0  0
  195.2150  176.3090  142.8430 C   0  0  0  0  0  2  0  0  0  0  0  0
  196.4100  174.5590  144.2120 C   0  0  0  0  0  3  0  0  0  0  0  0
  195.4500  175.6300  143.9690 C   0  0  0  0  0  0  0  0  0  0  0  0
  196.3340  174.1880  145.4520 N   0  0  0  0  0  0  0  0  0  0  0  0
  193.6850  176.7840  145.5650 C   0  0  0  0  0  2  0  0  0  0  0  0
  191.7650  175.7740  146.8200 C   0  0  0  0  0  3  0  0  0  0  0  0
  192.9610  176.3740  146.8160 C   0  0  0  0  0  3  0  0  0  0  0  0
  191.0330  175.4300  145.5630 C   0  0  0  0  0  2  0  0  0  0  0  0
  186.5580  178.4840  142.7620 C   0  0  0  0  0  3  0  0  0  0  0  0
  188.6740  176.3860  145.7510 C   0  0  0  0  0  0  0  0  0  0  0  0
  186.3860  177.3110  144.9080 C   0  0  0  0  0  0  0  0  0  0  0  0
  188.5280  177.6030  143.8090 C   0  0  0  0  0  0  0  0  0  0  0  0
  190.0240  176.4390  145.2750 N   0  0  0  0  0  0  0  0  0  0  0  0
  185.7830  177.9970  143.8320 C   0  0  0  0  0  3  0  0  0  0  0  0
  187.7750  177.1190  144.8590 C   0  0  0  0  0  0  0  0  0  0  0  0
  190.9770  178.2850  143.9080 C   0  0  0  0  0  2  0  0  0  0  0  0
  187.9470  178.2860  142.7400 C   0  0  0  0  0  3  0  0  0  0  0  0
  191.0080  177.0730  142.9710 C   0  0  0  0  0  2  0  0  0  0  0  0
  188.3190  175.7330  146.7690 O   0  0  0  0  0  0  0  0  0  0  0  0
  189.9400  177.1960  144.0310 C   0  0  0  0  0  0  0  0  0  0  0  0
  184.4960  177.7030  146.4530 C   0  0  0  0  0  2  0  0  0  0  0  0
  185.5600  176.7620  146.0320 C   0  0  2  0  0  3  0  0  0  0  0  0
  185.7050  177.5980  147.1560 O   0  0  0  0  0  0  0  0  0  0  0  0
  1  9  1  6  0  0  0
  1  6  1  0  0  0  0
  2  3  1  0  0  0  0
  4 10  1  6  0  0  0
  4  2  1  0  0  0  0
  5  1  1  0  0  0  0
  5  4  1  0  0  0  0
  6 30  1  6  0  0  0
  6  3  1  0  0  0  0
  7  9  2  0  0  0  0
  8  9  1  0  0  0  0
 10 11  1  1  0  0  0
 12 13  1  6  0  0  0
 12 10  1  0  0  0  0
 14 12  1  0  0  0  0
 15 16  1  0  0  0  0
 15 14  1  0  0  0  0
 17 19  1  6  0  0  0
 17 24  1  0  0  0  0
 17 18  1  0  0  0  0
 18 16  1  6  0  0  0
 18 25  1  0  0  0  0
 21 20  1  6  0  0  0
 21 23  1  0  0  0  0
 23 22  1  6  0  0  0
 23 27  1  0  0  0  0
 24 22  1  0  0  0  0
 25 21  1  0  0  0  0
 25 26  2  0  0  0  0
 27 29  1  6  0  0  0
 27 28  1  0  0  0  0
 29 28  1  0  0  0  0
 30 32  1  0  0  0  0
 31 32  2  0  0  0  0
 32 35  1  0  0  0  0
 33 39  1  0  0  0  0
 33 34  1  0  0  0  0
 35 37  1  0  0  0  0
 36 38  2  0  0  0  0
 37 36  1  0  0  0  0
 37 33  2  0  0  0  0
 38 34  1  0  0  0  0
 39 41  1  0  0  0  0
 41 40  2  0  0  0  0
 42 40  1  0  0  0  0
 43 48  1  0  0  0  0
 44 53  2  0  0  0  0
 46 54  1  0  0  0  0
 46 49  2  0  0  0  0
 47 42  1  0  0  0  0
 47 44  1  0  0  0  0
 48 45  2  0  0  0  0
 49 45  1  0  0  0  0
 49 44  1  0  0  0  0
 50 54  1  0  0  0  0
 51 43  2  0  0  0  0
 51 46  1  0  0  0  0
 52 50  1  0  0  0  0
 52 54  1  0  0  0  0
 54 47  1  0  0  0  0
 55 57  1  0  0  0  0
 56 45  1  6  0  0  0
 56 55  1  0  0  0  0
 56 57  1  0  0  0  0
M  END
>  <MODEL>
2

>  <REMARK>
 VINA RESULT:      -7.1      3.318      7.945
  Name = 
  16 active torsions:
  status: ('A' for Active; 'I' for Inactive)
    1  A    between atoms: C_2  and  O_25
    2  A    between atoms: C_3  and  C_5
    3  A    between atoms: C_3  and  C_53
    4  A    between atoms: C_9  and  C_11
    5  A    between atoms: C_9  and  C_42
    6  A    between atoms: C_10  and  C_31
    7  A    between atoms: C_11  and  C_12
    8  A    between atoms: C_12  and  C_22
    9  A    between atoms: C_15  and  C_55
   10  A    between atoms: N_20  and  C_57
   11  A    between atoms: O_25  and  C_42
   12  A    between atoms: C_27  and  C_52
   13  A    between atoms: C_28  and  C_30
   14  A    between atoms: C_36  and  C_57
   15  A    between atoms: O_43  and  C_48
   16  A    between atoms: O_43  and  C_52
                            x       y       z     vdW  Elec       q    Type
                         _______ _______ _______ _____ _____    ______ ____

>  <TORSDO>
F 16

$$$$
=
 OpenBabel11072409093D

 57 64  0  0  1  0  0  0  0  0999 V2000
  190.3170  172.5050  140.2610 C   0  0  2  0  0  3  0  0  0  0  0  0
  192.8150  173.2590  141.5810 C   0  0  0  0  0  2  0  0  0  0  0  0
  192.4600  173.8650  140.2180 C   0  0  0  0  0  2  0  0  0  0  0  0
  191.7450  172.2540  142.0340 C   0  0  2  0  0  3  0  0  0  0  0  0
  190.4710  172.7220  141.6550 O   0  0  0  0  0  0  0  0  0  0  0  0
  191.5740  172.9120  139.4260 C   0  0  2  0  0  3  0  0  0  0  0  0
  188.1480  172.4130  139.0360 O   0  0  0  0  0  0  0  0  0  0  0  0
  188.8040  174.3540  140.0610 O   0  0  0  0  0  1  0  0  0  0  0  0
  189.0510  173.1510  139.7900 C   0  0  0  0  0  0  0  0  0  0  0  0
  191.8200  172.0070  143.5400 C   0  0  1  0  0  3  0  0  0  0  0  0
  193.1460  172.0730  143.9750 O   0  0  0  0  0  1  0  0  0  0  0  0
  190.9390  173.0000  144.3130 C   0  0  1  0  0  3  0  0  0  0  0  0
  189.7640  172.3090  144.9890 C   0  0  0  0  0  1  0  0  0  0  0  0
  191.7120  173.9160  145.2720 C   0  0  0  0  0  2  0  0  0  0  0  0
  190.8720  175.0780  145.7820 C   0  0  0  0  0  2  0  0  0  0  0  0
  191.4210  176.2910  145.3410 O   0  0  0  0  0  0  0  0  0  0  0  0
  189.1270  177.0840  145.8580 C   0  0  1  0  0  3  0  0  0  0  0  0
  190.3660  177.1370  144.9390 C   0  0  2  0  0  3  0  0  0  0  0  0
  189.5100  177.5880  147.2370 C   0  0  0  0  0  1  0  0  0  0  0  0
  188.9370  175.1190  143.2020 F   0  0  0  0  0  0  0  0  0  0  0  0
  189.0590  176.4200  142.7420 C   0  0  1  0  0  3  0  0  0  0  0  0
  186.8520  176.8720  144.3770 S   0  0  0  0  0  0  0  0  0  0  0  0
  187.7280  177.1720  142.7990 C   0  0  2  0  0  3  0  0  0  0  0  0
  187.9800  177.9280  145.3340 C   0  0  0  0  0  2  0  0  0  0  0  0
  190.1620  177.1650  143.4390 C   0  0  0  0  0  0  0  0  0  0  0  0
  190.9250  177.8400  142.7670 O   0  0  0  0  0  0  0  0  0  0  0  0
  186.8720  176.7390  141.6180 C   0  0  2  0  0  3  0  0  0  0  0  0
  186.9620  177.7650  140.5700 N   0  0  0  0  0  2  0  0  0  0  0  0
  185.7540  177.6540  141.3970 C   0  0  0  0  0  2  0  0  0  0  0  0
  191.2730  173.4580  138.1460 O   0  0  0  0  0  0  0  0  0  0  0  0
  191.3750  172.5870  136.0090 O   0  0  0  0  0  0  0  0  0  0  0  0
  191.9760  173.0990  136.9930 C   0  0  0  0  0  0  0  0  0  0  0  0
  195.4780  174.6310  136.4350 C   0  0  0  0  0  0  0  0  0  0  0  0
  195.6640  175.8340  135.9130 C   0  0  0  0  0  3  0  0  0  0  0  0
  193.4330  173.3130  136.9650 C   0  0  0  0  0  3  0  0  0  0  0  0
  193.4570  175.6240  135.9550 C   0  0  0  0  0  3  0  0  0  0  0  0
  194.0440  174.4020  136.4910 C   0  0  0  0  0  0  0  0  0  0  0  0
  194.4040  176.4460  135.6260 N   0  0  0  0  0  0  0  0  0  0  0  0
  196.5670  173.6740  136.8090 C   0  0  0  0  0  2  0  0  0  0  0  0
  197.5630  174.5220  138.9470 C   0  0  0  0  0  3  0  0  0  0  0  0
  197.6320  174.3550  137.6210 C   0  0  0  0  0  3  0  0  0  0  0  0
  196.4140  174.0210  139.7620 C   0  0  0  0  0  2  0  0  0  0  0  0
  195.1440  175.2730  145.5940 C   0  0  0  0  0  3  0  0  0  0  0  0
  196.9320  173.5020  142.2060 C   0  0  0  0  0  0  0  0  0  0  0  0
  196.5200  173.4150  144.7800 C   0  0  0  0  0  0  0  0  0  0  0  0
  195.7470  175.1530  143.2750 C   0  0  0  0  0  0  0  0  0  0  0  0
  196.5790  174.4080  141.1560 N   0  0  0  0  0  0  0  0  0  0  0  0
  195.8510  174.0780  145.8310 C   0  0  0  0  0  3  0  0  0  0  0  0
  196.4370  173.9790  143.4990 C   0  0  0  0  0  0  0  0  0  0  0  0
  196.2290  176.8530  141.4460 C   0  0  0  0  0  2  0  0  0  0  0  0
  195.0830  175.8220  144.3050 C   0  0  0  0  0  3  0  0  0  0  0  0
  194.8470  176.3230  141.0500 C   0  0  0  0  0  2  0  0  0  0  0  0
  197.5320  172.4100  142.0140 O   0  0  0  0  0  0  0  0  0  0  0  0
  195.8100  175.4530  141.8220 C   0  0  0  0  0  0  0  0  0  0  0  0
  196.3200  170.9670  145.0610 C   0  0  0  0  0  2  0  0  0  0  0  0
  197.2440  172.1250  145.0220 C   0  0  2  0  0  3  0  0  0  0  0  0
  196.7940  171.5690  146.2360 O   0  0  0  0  0  0  0  0  0  0  0  0
  1  9  1  6  0  0  0
  1  5  1  0  0  0  0
  2  4  1  0  0  0  0
  3  2  1  0  0  0  0
  4 10  1  1  0  0  0
  5  4  1  0  0  0  0
  6 30  1  6  0  0  0
  6  3  1  0  0  0  0
  6  1  1  0  0  0  0
  7  9  2  0  0  0  0
  9  8  1  0  0  0  0
 10 11  1  1  0  0  0
 10 12  1  0  0  0  0
 12 13  1  1  0  0  0
 12 14  1  0  0  0  0
 14 15  1  0  0  0  0
 16 15  1  0  0  0  0
 17 19  1  1  0  0  0
 18 16  1  6  0  0  0
 18 17  1  0  0  0  0
 21 23  1  0  0  0  0
 21 20  1  1  0  0  0
 21 25  1  0  0  0  0
 22 24  1  0  0  0  0
 23 22  1  1  0  0  0
 24 17  1  0  0  0  0
 25 18  1  0  0  0  0
 26 25  2  0  0  0  0
 27 29  1  1  0  0  0
 27 23  1  0  0  0  0
 28 29  1  0  0  0  0
 28 27  1  0  0  0  0
 31 32  2  0  0  0  0
 32 30  1  0  0  0  0
 33 37  1  0  0  0  0
 33 39  1  0  0  0  0
 34 33  2  0  0  0  0
 35 32  1  0  0  0  0
 36 37  1  0  0  0  0
 37 35  2  0  0  0  0
 38 34  1  0  0  0  0
 38 36  2  0  0  0  0
 39 41  1  0  0  0  0
 40 42  1  0  0  0  0
 41 40  2  0  0  0  0
 42 47  1  0  0  0  0
 43 48  1  0  0  0  0
 44 49  1  0  0  0  0
 45 48  2  0  0  0  0
 46 49  2  0  0  0  0
 46 51  1  0  0  0  0
 47 54  1  0  0  0  0
 47 44  1  0  0  0  0
 49 45  1  0  0  0  0
 50 54  1  0  0  0  0
 51 43  2  0  0  0  0
 52 50  1  0  0  0  0
 52 54  1  0  0  0  0
 53 44  2  0  0  0  0
 54 46  1  0  0  0  0
 55 57  1  0  0  0  0
 56 45  1  6  0  0  0
 56 55  1  0  0  0  0
 56 57  1  0  0  0  0
M  END
>  <MODEL>
3

>  <REMARK>
 VINA RESULT:      -7.1      3.295      7.267
  Name = 
  16 active torsions:
  status: ('A' for Active; 'I' for Inactive)
    1  A    between atoms: C_2  and  O_25
    2  A    between atoms: C_3  and  C_5
    3  A    between atoms: C_3  and  C_53
    4  A    between atoms: C_9  and  C_11
    5  A    between atoms: C_9  and  C_42
    6  A    between atoms: C_10  and  C_31
    7  A    between atoms: C_11  and  C_12
    8  A    between atoms: C_12  and  C_22
    9  A    between atoms: C_15  and  C_55
   10  A    between atoms: N_20  and  C_57
   11  A    between atoms: O_25  and  C_42
   12  A    between atoms: C_27  and  C_52
   13  A    between atoms: C_28  and  C_30
   14  A    between atoms: C_36  and  C_57
   15  A    between atoms: O_43  and  C_48
   16  A    between atoms: O_43  and  C_52
                            x       y       z     vdW  Elec       q    Type
                         _______ _______ _______ _____ _____    ______ ____

>  <TORSDO>
F 16

$$$$
=
 OpenBabel11072409093D

 57 64  0  0  1  0  0  0  0  0999 V2000
  195.5700  172.2120  143.2380 C   0  0  2  0  0  3  0  0  0  0  0  0
  196.8110  171.6630  140.6480 C   0  0  0  0  0  2  0  0  0  0  0  0
  197.0020  173.0340  141.3090 C   0  0  0  0  0  2  0  0  0  0  0  0
  195.9000  170.7630  141.4960 C   0  0  2  0  0  3  0  0  0  0  0  0
  196.1650  170.9800  142.8620 O   0  0  0  0  0  0  0  0  0  0  0  0
  195.8160  173.3610  142.2070 C   0  0  2  0  0  3  0  0  0  0  0  0
  195.0250  173.0100  145.5360 O   0  0  0  0  0  1  0  0  0  0  0  0
  197.1830  172.4670  144.9930 O   0  0  0  0  0  0  0  0  0  0  0  0
  195.9820  172.5630  144.6340 C   0  0  0  0  0  0  0  0  0  0  0  0
  196.0740  169.2920  141.1230 C   0  0  1  0  0  3  0  0  0  0  0  0
  196.6290  168.5840  142.1930 O   0  0  0  0  0  1  0  0  0  0  0  0
  194.7410  168.6660  140.6830 C   0  0  1  0  0  3  0  0  0  0  0  0
  193.6440  168.8890  141.7130 C   0  0  0  0  0  1  0  0  0  0  0  0
  194.3020  169.0490  139.2630 C   0  0  0  0  0  2  0  0  0  0  0  0
  192.8660  169.5490  139.2060 C   0  0  0  0  0  2  0  0  0  0  0  0
  192.6860  170.3500  138.0690 O   0  0  0  0  0  0  0  0  0  0  0  0
  192.9830  172.4260  139.3950 C   0  0  1  0  0  3  0  0  0  0  0  0
  192.0950  171.5670  138.4720 C   0  0  2  0  0  3  0  0  0  0  0  0
  194.2290  172.8450  138.6380 C   0  0  0  0  0  1  0  0  0  0  0  0
  190.8040  170.5160  140.9940 F   0  0  0  0  0  0  0  0  0  0  0  0
  190.0800  171.3810  140.1900 C   0  0  1  0  0  3  0  0  0  0  0  0
  191.5440  173.3410  141.5190 S   0  0  0  0  0  0  0  0  0  0  0  0
  189.9530  172.7700  140.8170 C   0  0  2  0  0  3  0  0  0  0  0  0
  192.2720  173.6730  139.8870 C   0  0  0  0  0  2  0  0  0  0  0  0
  190.6200  171.4380  138.7890 C   0  0  0  0  0  0  0  0  0  0  0  0
  189.8320  171.3930  137.8580 O   0  0  0  0  0  0  0  0  0  0  0  0
  188.8770  172.7240  141.8920 C   0  0  2  0  0  3  0  0  0  0  0  0
  188.1590  174.0070  141.8940 N   0  0  0  0  0  2  0  0  0  0  0  0
  189.1290  173.6990  142.9510 C   0  0  0  0  0  2  0  0  0  0  0  0
  195.9750  174.6480  142.7940 O   0  0  0  0  0  0  0  0  0  0  0  0
  195.2980  176.5640  141.6940 O   0  0  0  0  0  0  0  0  0  0  0  0
  195.0700  175.6900  142.5750 C   0  0  0  0  0  0  0  0  0  0  0  0
  192.6440  176.2130  145.5360 C   0  0  0  0  0  0  0  0  0  0  0  0
  193.0310  176.6840  146.7110 C   0  0  0  0  0  2  0  0  0  0  0  0
  193.8590  175.7530  143.4110 C   0  0  0  0  0  2  0  0  0  0  0  0
  194.9010  176.6680  145.5190 C   0  0  0  0  0  3  0  0  0  0  0  0
  193.8190  176.1580  144.6840 C   0  0  0  0  0  0  0  0  0  0  0  0
  194.4320  176.9710  146.6890 N   0  0  0  0  0  0  0  0  0  0  0  0
  191.2580  175.7510  145.2040 C   0  0  0  0  0  2  0  0  0  0  0  0
  189.6150  176.0680  147.0690 C   0  0  0  0  0  3  0  0  0  0  0  0
  190.5230  175.3140  146.4390 C   0  0  0  0  0  3  0  0  0  0  0  0
  189.2220  177.4280  146.5860 C   0  0  0  0  0  2  0  0  0  0  0  0
  183.8870  179.0920  144.1440 C   0  0  0  0  0  3  0  0  0  0  0  0
  187.8020  177.5470  144.4700 C   0  0  0  0  0  0  0  0  0  0  0  0
  185.8840  178.3800  142.9120 C   0  0  0  0  0  0  0  0  0  0  0  0
  185.7750  178.2020  145.3280 C   0  0  0  0  0  0  0  0  0  0  0  0
  187.9500  177.3640  145.8820 N   0  0  0  0  0  0  0  0  0  0  0  0
  184.5820  178.9230  142.9300 C   0  0  0  0  0  3  0  0  0  0  0  0
  186.4620  178.0380  144.1420 C   0  0  0  0  0  0  0  0  0  0  0  0
  186.0930  176.8350  147.4490 C   0  0  0  0  0  2  0  0  0  0  0  0
  184.4850  178.7330  145.3620 C   0  0  0  0  0  3  0  0  0  0  0  0
  186.5580  178.2290  147.8810 C   0  0  0  0  0  2  0  0  0  0  0  0
  188.7350  177.3670  143.6420 O   0  0  0  0  0  0  0  0  0  0  0  0
  186.6720  177.7950  146.4390 C   0  0  0  0  0  0  0  0  0  0  0  0
  185.7500  177.8550  140.4990 C   0  0  0  0  0  2  0  0  0  0  0  0
  186.6380  178.2310  141.6240 C   0  0  2  0  0  3  0  0  0  0  0  0
  186.5210  176.9000  141.1780 O   0  0  0  0  0  0  0  0  0  0  0  0
  1  9  1  1  0  0  0
  2  3  1  0  0  0  0
  2  4  1  0  0  0  0
  3  6  1  0  0  0  0
  4 10  1  6  0  0  0
  4  5  1  0  0  0  0
  5  1  1  0  0  0  0
  6 30  1  1  0  0  0
  6  1  1  0  0  0  0
  9  8  2  0  0  0  0
  9  7  1  0  0  0  0
 10 11  1  1  0  0  0
 12 10  1  0  0  0  0
 12 13  1  1  0  0  0
 14 12  1  0  0  0  0
 15 14  1  0  0  0  0
 16 15  1  0  0  0  0
 17 19  1  6  0  0  0
 17 24  1  0  0  0  0
 18 16  1  1  0  0  0
 18 25  1  0  0  0  0
 18 17  1  0  0  0  0
 21 23  1  0  0  0  0
 21 20  1  1  0  0  0
 23 22  1  1  0  0  0
 23 27  1  0  0  0  0
 24 22  1  0  0  0  0
 25 21  1  0  0  0  0
 26 25  2  0  0  0  0
 27 28  1  0  0  0  0
 27 29  1  1  0  0  0
 28 29  1  0  0  0  0
 31 32  2  0  0  0  0
 32 30  1  0  0  0  0
 32 35  1  0  0  0  0
 33 34  1  0  0  0  0
 35 37  1  0  0  0  0
 36 38  2  0  0  0  0
 37 36  1  0  0  0  0
 37 33  2  0  0  0  0
 38 34  1  0  0  0  0
 39 33  1  0  0  0  0
 39 41  1  0  0  0  0
 41 40  2  0  0  0  0
 42 40  1  0  0  0  0
 43 51  1  0  0  0  0
 44 47  1  0  0  0  0
 45 48  1  0  0  0  0
 45 49  2  0  0  0  0
 46 51  2  0  0  0  0
 46 54  1  0  0  0  0
 47 54  1  0  0  0  0
 47 42  1  0  0  0  0
 48 43  2  0  0  0  0
 49 44  1  0  0  0  0
 49 46  1  0  0  0  0
 50 52  1  0  0  0  0
 53 44  2  0  0  0  0
 54 50  1  0  0  0  0
 54 52  1  0  0  0  0
 55 57  1  0  0  0  0
 55 56  1  0  0  0  0
 56 45  1  1  0  0  0
 57 56  1  0  0  0  0
M  END
>  <MODEL>
4

>  <REMARK>
 VINA RESULT:      -7.1      3.017      8.317
  Name = 
  16 active torsions:
  status: ('A' for Active; 'I' for Inactive)
    1  A    between atoms: C_2  and  O_25
    2  A    between atoms: C_3  and  C_5
    3  A    between atoms: C_3  and  C_53
    4  A    between atoms: C_9  and  C_11
    5  A    between atoms: C_9  and  C_42
    6  A    between atoms: C_10  and  C_31
    7  A    between atoms: C_11  and  C_12
    8  A    between atoms: C_12  and  C_22
    9  A    between atoms: C_15  and  C_55
   10  A    between atoms: N_20  and  C_57
   11  A    between atoms: O_25  and  C_42
   12  A    between atoms: C_27  and  C_52
   13  A    between atoms: C_28  and  C_30
   14  A    between atoms: C_36  and  C_57
   15  A    between atoms: O_43  and  C_48
   16  A    between atoms: O_43  and  C_52
                            x       y       z     vdW  Elec       q    Type
                         _______ _______ _______ _____ _____    ______ ____

>  <TORSDO>
F 16

$$$$
=
 OpenBabel11072409093D

 57 64  0  0  1  0  0  0  0  0999 V2000
  190.7580  171.7970  140.8510 C   0  0  2  0  0  3  0  0  0  0  0  0
  190.9880  168.9140  140.4160 C   0  0  0  0  0  2  0  0  0  0  0  0
  190.8180  169.4600  141.8390 C   0  0  0  0  0  2  0  0  0  0  0  0
  191.0590  170.0570  139.3920 C   0  0  2  0  0  3  0  0  0  0  0  0
  190.1720  171.0840  139.7720 O   0  0  0  0  0  0  0  0  0  0  0  0
  191.3860  170.8690  141.9400 C   0  0  2  0  0  3  0  0  0  0  0  0
  189.9890  174.1390  141.2190 O   0  0  0  0  0  0  0  0  0  0  0  0
  188.7530  172.3870  142.0250 O   0  0  0  0  0  1  0  0  0  0  0  0
  189.7700  172.7790  141.3980 C   0  0  0  0  0  0  0  0  0  0  0  0
  190.7550  169.5560  137.9810 C   0  0  1  0  0  3  0  0  0  0  0  0
  189.4080  169.7640  137.6730 O   0  0  0  0  0  1  0  0  0  0  0  0
  191.6650  170.2280  136.9420 C   0  0  1  0  0  3  0  0  0  0  0  0
  191.0330  171.4850  136.3630 C   0  0  0  0  0  1  0  0  0  0  0  0
  193.1050  170.4610  137.4200 C   0  0  0  0  0  2  0  0  0  0  0  0
  193.4190  171.9320  137.6470 C   0  0  0  0  0  2  0  0  0  0  0  0
  194.5080  172.3140  136.8490 O   0  0  0  0  0  0  0  0  0  0  0  0
  196.0030  172.0520  138.8120 C   0  0  1  0  0  3  0  0  0  0  0  0
  195.4640  172.9430  137.6740 C   0  0  2  0  0  3  0  0  0  0  0  0
  196.7420  170.8720  138.2110 C   0  0  0  0  0  1  0  0  0  0  0  0
  193.5130  174.0420  139.7040 F   0  0  0  0  0  0  0  0  0  0  0  0
  194.5550  174.8510  139.2810 C   0  0  1  0  0  3  0  0  0  0  0  0
  196.0180  173.4190  141.1670 S   0  0  0  0  0  0  0  0  0  0  0  0
  195.6240  175.0140  140.3620 C   0  0  2  0  0  3  0  0  0  0  0  0
  196.9490  172.7980  139.7350 C   0  0  0  0  0  2  0  0  0  0  0  0
  195.1350  174.3910  137.9730 C   0  0  0  0  0  0  0  0  0  0  0  0
  195.3660  175.2240  137.1130 O   0  0  0  0  0  0  0  0  0  0  0  0
  195.1330  176.0270  141.3860 C   0  0  2  0  0  3  0  0  0  0  0  0
  196.0660  177.1630  141.4100 N   0  0  0  0  0  2  0  0  0  0  0  0
  196.0740  176.1740  142.4950 C   0  0  0  0  0  2  0  0  0  0  0  0
  191.2600  171.3630  143.2700 O   0  0  0  0  0  0  0  0  0  0  0  0
  193.0230  170.5730  144.5390 O   0  0  0  0  0  0  0  0  0  0  0  0
  192.3640  171.5580  144.1050 C   0  0  0  0  0  0  0  0  0  0  0  0
  194.2710  174.6630  145.3880 C   0  0  0  0  0  0  0  0  0  0  0  0
  195.5190  174.6110  145.8290 C   0  0  0  0  0  2  0  0  0  0  0  0
  192.7230  172.9370  144.4810 C   0  0  0  0  0  2  0  0  0  0  0  0
  195.0880  172.5150  145.2500 C   0  0  0  0  0  3  0  0  0  0  0  0
  193.8970  173.3160  144.9930 C   0  0  0  0  0  0  0  0  0  0  0  0
  196.0210  173.2760  145.7310 N   0  0  0  0  0  0  0  0  0  0  0  0
  193.4040  175.8840  145.3910 C   0  0  0  0  0  2  0  0  0  0  0  0
  191.4350  175.8660  146.9410 C   0  0  0  0  0  3  0  0  0  0  0  0
  192.7390  176.0720  146.7250 C   0  0  0  0  0  3  0  0  0  0  0  0
  190.5040  175.4000  145.8670 C   0  0  0  0  0  2  0  0  0  0  0  0
  186.3190  178.6100  142.8050 C   0  0  0  0  0  3  0  0  0  0  0  0
  188.2400  176.5710  145.9640 C   0  0  0  0  0  0  0  0  0  0  0  0
  186.0430  177.6270  145.0340 C   0  0  0  0  0  0  0  0  0  0  0  0
  188.2030  177.6420  143.9320 C   0  0  0  0  0  0  0  0  0  0  0  0
  189.5890  176.4680  145.4950 N   0  0  0  0  0  0  0  0  0  0  0  0
  185.5030  178.2780  143.9050 C   0  0  0  0  0  3  0  0  0  0  0  0
  187.4090  177.3100  145.0110 C   0  0  0  0  0  0  0  0  0  0  0  0
  190.7020  178.1110  143.9970 C   0  0  0  0  0  2  0  0  0  0  0  0
  187.6850  178.2890  142.8090 C   0  0  0  0  0  3  0  0  0  0  0  0
  190.6270  176.8320  143.1570 C   0  0  0  0  0  2  0  0  0  0  0  0
  187.8270  176.0340  147.0260 O   0  0  0  0  0  0  0  0  0  0  0  0
  189.5730  177.1310  144.1960 C   0  0  0  0  0  0  0  0  0  0  0  0
  184.1740  178.2910  146.5110 C   0  0  0  0  0  2  0  0  0  0  0  0
  185.1710  177.2420  146.1910 C   0  0  2  0  0  3  0  0  0  0  0  0
  185.3660  178.1640  147.2380 O   0  0  0  0  0  0  0  0  0  0  0  0
  1  9  1  1  0  0  0
  1  6  1  0  0  0  0
  2  3  1  0  0  0  0
  3  6  1  0  0  0  0
  4 10  1  6  0  0  0
  4  5  1  0  0  0  0
  4  2  1  0  0  0  0
  5  1  1  0  0  0  0
  6 30  1  1  0  0  0
  7  9  2  0  0  0  0
  9  8  1  0  0  0  0
 10 11  1  6  0  0  0
 12 13  1  1  0  0  0
 12 14  1  0  0  0  0
 12 10  1  0  0  0  0
 14 15  1  0  0  0  0
 16 15  1  0  0  0  0
 17 19  1  6  0  0  0
 17 24  1  0  0  0  0
 18 16  1  1  0  0  0
 18 25  1  0  0  0  0
 18 17  1  0  0  0  0
 21 20  1  1  0  0  0
 21 23  1  0  0  0  0
 23 22  1  1  0  0  0
 23 27  1  0  0  0  0
 24 22  1  0  0  0  0
 25 21  1  0  0  0  0
 26 25  2  0  0  0  0
 27 28  1  0  0  0  0
 27 29  1  1  0  0  0
 28 29  1  0  0  0  0
 30 32  1  0  0  0  0
 32 35  1  0  0  0  0
 32 31  2  0  0  0  0
 33 39  1  0  0  0  0
 33 34  1  0  0  0  0
 35 37  1  0  0  0  0
 36 38  2  0  0  0  0
 37 36  1  0  0  0  0
 37 33  2  0  0  0  0
 38 34  1  0  0  0  0
 39 41  1  0  0  0  0
 41 40  2  0  0  0  0
 42 40  1  0  0  0  0
 43 51  2  0  0  0  0
 43 48  1  0  0  0  0
 44 53  2  0  0  0  0
 46 54  1  0  0  0  0
 46 49  2  0  0  0  0
 47 42  1  0  0  0  0
 47 44  1  0  0  0  0
 48 45  2  0  0  0  0
 49 45  1  0  0  0  0
 49 44  1  0  0  0  0
 50 54  1  0  0  0  0
 51 46  1  0  0  0  0
 52 50  1  0  0  0  0
 52 54  1  0  0  0  0
 54 47  1  0  0  0  0
 55 57  1  0  0  0  0
 56 45  1  6  0  0  0
 56 55  1  0  0  0  0
 56 57  1  0  0  0  0
M  END
>  <MODEL>
5

>  <REMARK>
 VINA RESULT:      -7.0      3.631      9.007
  Name = 
  16 active torsions:
  status: ('A' for Active; 'I' for Inactive)
    1  A    between atoms: C_2  and  O_25
    2  A    between atoms: C_3  and  C_5
    3  A    between atoms: C_3  and  C_53
    4  A    between atoms: C_9  and  C_11
    5  A    between atoms: C_9  and  C_42
    6  A    between atoms: C_10  and  C_31
    7  A    between atoms: C_11  and  C_12
    8  A    between atoms: C_12  and  C_22
    9  A    between atoms: C_15  and  C_55
   10  A    between atoms: N_20  and  C_57
   11  A    between atoms: O_25  and  C_42
   12  A    between atoms: C_27  and  C_52
   13  A    between atoms: C_28  and  C_30
   14  A    between atoms: C_36  and  C_57
   15  A    between atoms: O_43  and  C_48
   16  A    between atoms: O_43  and  C_52
                            x       y       z     vdW  Elec       q    Type
                         _______ _______ _______ _____ _____    ______ ____

>  <TORSDO>
F 16

$$$$
=
 OpenBabel11072409093D

 57 64  0  0  1  0  0  0  0  0999 V2000
  190.2130  172.8180  141.2090 C   0  0  2  0  0  3  0  0  0  0  0  0
  190.8920  170.4650  139.6100 C   0  0  0  0  0  2  0  0  0  0  0  0
  190.8350  170.3570  141.1390 C   0  0  0  0  0  2  0  0  0  0  0  0
  190.6070  171.9020  139.1470 C   0  0  2  0  0  3  0  0  0  0  0  0
  189.6150  172.4720  139.9690 O   0  0  0  0  0  0  0  0  0  0  0  0
  191.1480  171.7030  141.7790 C   0  0  2  0  0  3  0  0  0  0  0  0
  187.9360  172.5950  142.1980 O   0  0  0  0  0  0  0  0  0  0  0  0
  189.3540  174.2320  142.9440 O   0  0  0  0  0  1  0  0  0  0  0  0
  189.1550  173.2600  142.1710 C   0  0  0  0  0  0  0  0  0  0  0  0
  190.1970  171.9380  137.6760 C   0  0  1  0  0  3  0  0  0  0  0  0
  188.9950  172.6370  137.5250 O   0  0  0  0  0  1  0  0  0  0  0  0
  191.3010  172.5540  136.8030 C   0  0  1  0  0  3  0  0  0  0  0  0
  191.5500  174.0140  137.1500 C   0  0  0  0  0  1  0  0  0  0  0  0
  192.5970  171.7320  136.7540 C   0  0  0  0  0  2  0  0  0  0  0  0
  193.8120  172.5210  137.2210 C   0  0  0  0  0  2  0  0  0  0  0  0
  194.9390  171.6860  137.2480 O   0  0  0  0  0  0  0  0  0  0  0  0
  194.8650  171.7300  139.7280 C   0  0  1  0  0  3  0  0  0  0  0  0
  195.6640  171.9570  138.4280 C   0  0  2  0  0  3  0  0  0  0  0  0
  194.5010  170.2620  139.8380 C   0  0  0  0  0  1  0  0  0  0  0  0
  194.8790  174.8650  138.6660 F   0  0  0  0  0  0  0  0  0  0  0  0
  196.1940  174.5110  138.9190 C   0  0  1  0  0  3  0  0  0  0  0  0
  195.1990  173.8310  141.4280 S   0  0  0  0  0  0  0  0  0  0  0  0
  196.5250  174.5760  140.4110 C   0  0  2  0  0  3  0  0  0  0  0  0
  195.6460  172.1310  140.9650 C   0  0  0  0  0  2  0  0  0  0  0  0
  196.5480  173.1810  138.3170 C   0  0  0  0  0  0  0  0  0  0  0  0
  197.6080  173.0750  137.7210 O   0  0  0  0  0  0  0  0  0  0  0  0
  196.7470  176.0310  140.7990 C   0  0  2  0  0  3  0  0  0  0  0  0
  197.3080  176.0760  142.1570 N   0  0  0  0  0  2  0  0  0  0  0  0
  195.9020  176.4250  141.9240 C   0  0  0  0  0  2  0  0  0  0  0  0
  191.1310  171.5960  143.1990 O   0  0  0  0  0  0  0  0  0  0  0  0
  192.9520  170.9970  144.4880 O   0  0  0  0  0  0  0  0  0  0  0  0
  192.2390  171.9110  143.9890 C   0  0  0  0  0  0  0  0  0  0  0  0
  193.9680  175.1850  145.0910 C   0  0  0  0  0  0  0  0  0  0  0  0
  195.1680  175.2130  145.6500 C   0  0  0  0  0  2  0  0  0  0  0  0
  192.5400  173.3310  144.2410 C   0  0  0  0  0  2  0  0  0  0  0  0
  194.8260  173.0560  145.2720 C   0  0  0  0  0  3  0  0  0  0  0  0
  193.6530  173.7930  144.8150 C   0  0  0  0  0  0  0  0  0  0  0  0
  195.6970  173.8890  145.7510 N   0  0  0  0  0  0  0  0  0  0  0  0
  193.0870  176.3760  144.8750 C   0  0  0  0  0  2  0  0  0  0  0  0
  191.4330  177.0950  143.1350 C   0  0  0  0  0  3  0  0  0  0  0  0
  192.5000  176.3720  143.4920 C   0  0  0  0  0  3  0  0  0  0  0  0
  190.7240  178.0070  144.0850 C   0  0  0  0  0  2  0  0  0  0  0  0
  185.1940  177.3770  146.5810 C   0  0  0  0  0  3  0  0  0  0  0  0
  188.2050  177.9530  143.6780 C   0  0  0  0  0  0  0  0  0  0  0  0
  185.6730  178.0980  144.2870 C   0  0  0  0  0  0  0  0  0  0  0  0
  187.4350  177.2670  145.7310 C   0  0  0  0  0  0  0  0  0  0  0  0
  189.3840  177.5070  144.3580 N   0  0  0  0  0  0  0  0  0  0  0  0
  184.7620  177.8970  145.3450 C   0  0  0  0  0  3  0  0  0  0  0  0
  187.0190  177.7810  144.5190 C   0  0  0  0  0  0  0  0  0  0  0  0
  189.4340  175.7400  146.1060 C   0  0  0  0  0  2  0  0  0  0  0  0
  186.5460  177.0590  146.7860 C   0  0  0  0  0  3  0  0  0  0  0  0
  189.8460  177.0130  146.8520 C   0  0  0  0  0  2  0  0  0  0  0  0
  188.2170  178.4820  142.5350 O   0  0  0  0  0  0  0  0  0  0  0  0
  188.9090  177.0850  145.6700 C   0  0  0  0  0  0  0  0  0  0  0  0
  183.8840  178.1860  142.5820 C   0  0  0  0  0  2  0  0  0  0  0  0
  185.2220  178.6840  142.9820 C   0  0  2  0  0  3  0  0  0  0  0  0
  185.0620  177.6430  142.0460 O   0  0  0  0  0  0  0  0  0  0  0  0
  1  6  1  0  0  0  0
  1  9  1  1  0  0  0
  2  3  1  0  0  0  0
  3  6  1  0  0  0  0
  4 10  1  6  0  0  0
  4  2  1  0  0  0  0
  4  5  1  0  0  0  0
  5  1  1  0  0  0  0
  6 30  1  1  0  0  0
  9  7  2  0  0  0  0
  9  8  1  0  0  0  0
 10 11  1  1  0  0  0
 12 13  1  1  0  0  0
 12 10  1  0  0  0  0
 14 12  1  0  0  0  0
 14 15  1  0  0  0  0
 15 16  1  0  0  0  0
 17 19  1  1  0  0  0
 17 24  1  0  0  0  0
 18 16  1  6  0  0  0
 18 17  1  0  0  0  0
 21 20  1  1  0  0  0
 21 23  1  0  0  0  0
 23 27  1  0  0  0  0
 23 22  1  1  0  0  0
 24 22  1  0  0  0  0
 25 18  1  0  0  0  0
 25 21  1  0  0  0  0
 26 25  2  0  0  0  0
 27 29  1  1  0  0  0
 27 28  1  0  0  0  0
 29 28  1  0  0  0  0
 30 32  1  0  0  0  0
 32 35  1  0  0  0  0
 32 31  2  0  0  0  0
 33 34  1  0  0  0  0
 34 38  1  0  0  0  0
 35 37  1  0  0  0  0
 36 38  2  0  0  0  0
 37 33  2  0  0  0  0
 37 36  1  0  0  0  0
 39 33  1  0  0  0  0
 40 41  2  0  0  0  0
 40 42  1  0  0  0  0
 41 39  1  0  0  0  0
 42 47  1  0  0  0  0
 43 51  1  0  0  0  0
 44 47  1  0  0  0  0
 44 49  1  0  0  0  0
 45 49  2  0  0  0  0
 45 48  1  0  0  0  0
 46 51  2  0  0  0  0
 47 54  1  0  0  0  0
 48 43  2  0  0  0  0
 49 46  1  0  0  0  0
 50 52  1  0  0  0  0
 53 44  2  0  0  0  0
 54 46  1  0  0  0  0
 54 50  1  0  0  0  0
 54 52  1  0  0  0  0
 55 56  1  0  0  0  0
 56 45  1  1  0  0  0
 57 55  1  0  0  0  0
 57 56  1  0  0  0  0
M  END
>  <MODEL>
6

>  <REMARK>
 VINA RESULT:      -6.9      3.579      9.194
  Name = 
  16 active torsions:
  status: ('A' for Active; 'I' for Inactive)
    1  A    between atoms: C_2  and  O_25
    2  A    between atoms: C_3  and  C_5
    3  A    between atoms: C_3  and  C_53
    4  A    between atoms: C_9  and  C_11
    5  A    between atoms: C_9  and  C_42
    6  A    between atoms: C_10  and  C_31
    7  A    between atoms: C_11  and  C_12
    8  A    between atoms: C_12  and  C_22
    9  A    between atoms: C_15  and  C_55
   10  A    between atoms: N_20  and  C_57
   11  A    between atoms: O_25  and  C_42
   12  A    between atoms: C_27  and  C_52
   13  A    between atoms: C_28  and  C_30
   14  A    between atoms: C_36  and  C_57
   15  A    between atoms: O_43  and  C_48
   16  A    between atoms: O_43  and  C_52
                            x       y       z     vdW  Elec       q    Type
                         _______ _______ _______ _____ _____    ______ ____

>  <TORSDO>
F 16

$$$$
=
 OpenBabel11072409093D

 57 64  0  0  1  0  0  0  0  0999 V2000
  192.9380  173.4900  143.8150 C   0  0  2  0  0  3  0  0  0  0  0  0
  191.9020  170.8300  143.1830 C   0  0  0  0  0  2  0  0  0  0  0  0
  193.0870  170.9780  144.1460 C   0  0  0  0  0  2  0  0  0  0  0  0
  191.4580  172.1960  142.6410 C   0  0  2  0  0  3  0  0  0  0  0  0
  191.5660  173.1640  143.6590 O   0  0  0  0  0  0  0  0  0  0  0  0
  193.8760  172.2410  143.8280 C   0  0  2  0  0  3  0  0  0  0  0  0
  193.6980  175.6280  144.8480 O   0  0  0  0  0  0  0  0  0  0  0  0
  192.7360  174.0050  146.1480 O   0  0  0  0  0  1  0  0  0  0  0  0
  193.1100  174.3800  145.0070 C   0  0  0  0  0  0  0  0  0  0  0  0
  190.0370  172.1340  142.0820 C   0  0  1  0  0  3  0  0  0  0  0  0
  189.1210  171.9120  143.1140 O   0  0  0  0  0  1  0  0  0  0  0  0
  189.6870  173.4120  141.3040 C   0  0  1  0  0  3  0  0  0  0  0  0
  190.4210  173.4850  139.9740 C   0  0  0  0  0  1  0  0  0  0  0  0
  188.1810  173.6690  141.1590 C   0  0  0  0  0  2  0  0  0  0  0  0
  187.6960  174.8300  142.0160 C   0  0  0  0  0  2  0  0  0  0  0  0
  188.1240  176.0430  141.4580 O   0  0  0  0  0  0  0  0  0  0  0  0
  189.1390  176.5540  143.6640 C   0  0  1  0  0  3  0  0  0  0  0  0
  188.2340  176.9950  142.4940 C   0  0  2  0  0  3  0  0  0  0  0  0
  190.5580  176.3840  143.1570 C   0  0  0  0  0  1  0  0  0  0  0  0
  185.9150  175.9860  144.1490 F   0  0  0  0  0  0  0  0  0  0  0  0
  186.0720  177.3540  143.9930 C   0  0  1  0  0  3  0  0  0  0  0  0
  187.9250  177.0580  146.0490 S   0  0  0  0  0  0  0  0  0  0  0  0
  186.5740  178.0190  145.2750 C   0  0  2  0  0  3  0  0  0  0  0  0
  189.1480  177.5590  144.8000 C   0  0  0  0  0  2  0  0  0  0  0  0
  186.9270  177.6930  142.8050 C   0  0  0  0  0  0  0  0  0  0  0  0
  186.5600  178.5870  142.0590 O   0  0  0  0  0  0  0  0  0  0  0  0
  185.4040  178.1710  146.2370 C   0  0  2  0  0  3  0  0  0  0  0  0
  185.5800  179.4170  146.9980 N   0  0  0  0  0  2  0  0  0  0  0  0
  185.8400  178.1180  147.6310 C   0  0  0  0  0  2  0  0  0  0  0  0
  194.9970  172.3610  144.6990 O   0  0  0  0  0  0  0  0  0  0  0  0
  197.2960  172.3190  144.9220 O   0  0  0  0  0  0  0  0  0  0  0  0
  196.2860  172.6260  144.2300 C   0  0  0  0  0  0  0  0  0  0  0  0
  196.7160  175.2860  141.4620 C   0  0  0  0  0  0  0  0  0  0  0  0
  196.8610  176.5770  141.7190 C   0  0  0  0  0  3  0  0  0  0  0  0
  196.4340  173.2900  142.9230 C   0  0  0  0  0  3  0  0  0  0  0  0
  196.6910  175.6650  143.7320 C   0  0  0  0  0  3  0  0  0  0  0  0
  196.5850  174.6040  142.7380 C   0  0  0  0  0  0  0  0  0  0  0  0
  196.8530  176.8020  143.1310 N   0  0  0  0  0  0  0  0  0  0  0  0
  196.6220  174.6830  140.0950 C   0  0  0  0  0  2  0  0  0  0  0  0
  194.7590  174.3060  138.4600 C   0  0  0  0  0  3  0  0  0  0  0  0
  195.3160  175.0300  139.4380 C   0  0  0  0  0  3  0  0  0  0  0  0
  195.3800  173.0520  137.9340 C   0  0  0  0  0  2  0  0  0  0  0  0
  190.3970  169.7190  139.0550 C   0  0  0  0  0  3  0  0  0  0  0  0
  193.2670  172.0010  136.9640 C   0  0  0  0  0  0  0  0  0  0  0  0
  190.8800  170.9510  136.9910 C   0  0  0  0  0  0  0  0  0  0  0  0
  192.5540  170.7180  138.7300 C   0  0  0  0  0  0  0  0  0  0  0  0
  194.3860  171.9910  137.8570 N   0  0  0  0  0  0  0  0  0  0  0  0
  189.9930  170.2060  137.7960 C   0  0  0  0  0  3  0  0  0  0  0  0
  192.1630  171.2020  137.4980 C   0  0  0  0  0  0  0  0  0  0  0  0
  194.9310  170.1460  139.4320 C   0  0  0  0  0  2  0  0  0  0  0  0
  191.6890  169.9760  139.5360 C   0  0  0  0  0  3  0  0  0  0  0  0
  194.5900  171.3280  140.3460 C   0  0  0  0  0  2  0  0  0  0  0  0
  193.2320  172.6700  135.8960 O   0  0  0  0  0  0  0  0  0  0  0  0
  193.9370  171.1920  138.9920 C   0  0  0  0  0  0  0  0  0  0  0  0
  189.6970  172.7730  135.8100 C   0  0  0  0  0  2  0  0  0  0  0  0
  190.4410  171.5000  135.6670 C   0  0  2  0  0  3  0  0  0  0  0  0
  189.0330  171.5490  135.6370 O   0  0  0  0  0  0  0  0  0  0  0  0
  1  6  1  0  0  0  0
  1  9  1  1  0  0  0
  2  3  1  0  0  0  0
  4 10  1  1  0  0  0
  4  2  1  0  0  0  0
  4  5  1  0  0  0  0
  5  1  1  0  0  0  0
  6  3  1  0  0  0  0
  6 30  1  1  0  0  0
  7  9  2  0  0  0  0
  9  8  1  0  0  0  0
 10 11  1  1  0  0  0
 12 13  1  6  0  0  0
 12 10  1  0  0  0  0
 14 12  1  0  0  0  0
 14 15  1  0  0  0  0
 16 15  1  0  0  0  0
 17 19  1  6  0  0  0
 17 24  1  0  0  0  0
 18 16  1  1  0  0  0
 18 25  1  0  0  0  0
 18 17  1  0  0  0  0
 21 20  1  1  0  0  0
 21 23  1  0  0  0  0
 23 22  1  1  0  0  0
 23 27  1  0  0  0  0
 24 22  1  0  0  0  0
 25 21  1  0  0  0  0
 26 25  2  0  0  0  0
 27 28  1  0  0  0  0
 27 29  1  1  0  0  0
 28 29  1  0  0  0  0
 32 30  1  0  0  0  0
 32 31  2  0  0  0  0
 33 34  2  0  0  0  0
 33 37  1  0  0  0  0
 34 38  1  0  0  0  0
 35 32  1  0  0  0  0
 37 35  2  0  0  0  0
 37 36  1  0  0  0  0
 38 36  2  0  0  0  0
 39 33  1  0  0  0  0
 40 41  2  0  0  0  0
 41 39  1  0  0  0  0
 42 40  1  0  0  0  0
 43 51  1  0  0  0  0
 44 49  1  0  0  0  0
 44 47  1  0  0  0  0
 45 49  2  0  0  0  0
 45 48  1  0  0  0  0
 46 54  1  0  0  0  0
 46 51  2  0  0  0  0
 47 42  1  0  0  0  0
 47 54  1  0  0  0  0
 48 43  2  0  0  0  0
 49 46  1  0  0  0  0
 50 52  1  0  0  0  0
 53 44  2  0  0  0  0
 54 50  1  0  0  0  0
 54 52  1  0  0  0  0
 56 55  1  0  0  0  0
 56 45  1  1  0  0  0
 57 56  1  0  0  0  0
 57 55  1  0  0  0  0
M  END
>  <MODEL>
7

>  <REMARK>
 VINA RESULT:      -6.9      2.938      5.168
  Name = 
  16 active torsions:
  status: ('A' for Active; 'I' for Inactive)
    1  A    between atoms: C_2  and  O_25
    2  A    between atoms: C_3  and  C_5
    3  A    between atoms: C_3  and  C_53
    4  A    between atoms: C_9  and  C_11
    5  A    between atoms: C_9  and  C_42
    6  A    between atoms: C_10  and  C_31
    7  A    between atoms: C_11  and  C_12
    8  A    between atoms: C_12  and  C_22
    9  A    between atoms: C_15  and  C_55
   10  A    between atoms: N_20  and  C_57
   11  A    between atoms: O_25  and  C_42
   12  A    between atoms: C_27  and  C_52
   13  A    between atoms: C_28  and  C_30
   14  A    between atoms: C_36  and  C_57
   15  A    between atoms: O_43  and  C_48
   16  A    between atoms: O_43  and  C_52
                            x       y       z     vdW  Elec       q    Type
                         _______ _______ _______ _____ _____    ______ ____

>  <TORSDO>
F 16

$$$$
=
 OpenBabel11072409093D

 57 64  0  0  1  0  0  0  0  0999 V2000
  195.9900  173.4130  141.9190 C   0  0  2  0  0  3  0  0  0  0  0  0
  194.5140  175.5230  140.5340 C   0  0  0  0  0  2  0  0  0  0  0  0
  194.3010  175.3040  142.0370 C   0  0  0  0  0  2  0  0  0  0  0  0
  195.5030  174.4960  139.9610 C   0  0  2  0  0  3  0  0  0  0  0  0
  196.5210  174.2490  140.9030 O   0  0  0  0  0  0  0  0  0  0  0  0
  194.5720  173.8510  142.4070 C   0  0  2  0  0  3  0  0  0  0  0  0
  197.3410  172.0080  143.4740 O   0  0  0  0  0  0  0  0  0  0  0  0
  197.4980  174.2920  143.5620 O   0  0  0  0  0  1  0  0  0  0  0  0
  196.9870  173.2750  143.0270 C   0  0  0  0  0  0  0  0  0  0  0  0
  196.0810  174.9680  138.6290 C   0  0  1  0  0  3  0  0  0  0  0  0
  197.1890  174.1910  138.2790 O   0  0  0  0  0  1  0  0  0  0  0  0
  195.0200  174.9400  137.5180 C   0  0  1  0  0  3  0  0  0  0  0  0
  195.5350  175.5550  136.2260 C   0  0  0  0  0  1  0  0  0  0  0  0
  194.3730  173.5660  137.2980 C   0  0  0  0  0  2  0  0  0  0  0  0
  192.8520  173.6250  137.2880 C   0  0  0  0  0  2  0  0  0  0  0  0
  192.3300  172.3790  136.9120 O   0  0  0  0  0  0  0  0  0  0  0  0
  190.0310  173.2520  137.2450 C   0  0  1  0  0  3  0  0  0  0  0  0
  191.1010  172.1920  137.5800 C   0  0  2  0  0  3  0  0  0  0  0  0
  189.6780  173.1540  135.7730 C   0  0  0  0  0  1  0  0  0  0  0  0
  191.7540  173.8800  140.0000 F   0  0  0  0  0  0  0  0  0  0  0  0
  191.1000  172.6730  140.1910 C   0  0  1  0  0  3  0  0  0  0  0  0
  188.8390  174.1530  139.5220 S   0  0  0  0  0  0  0  0  0  0  0  0
  189.6310  172.8750  140.5650 C   0  0  2  0  0  3  0  0  0  0  0  0
  188.7640  173.0740  138.0610 C   0  0  0  0  0  2  0  0  0  0  0  0
  191.2650  171.7480  139.0180 C   0  0  0  0  0  0  0  0  0  0  0  0
  191.5310  170.5770  139.2330 O   0  0  0  0  0  0  0  0  0  0  0  0
  189.5490  173.2550  142.0360 C   0  0  2  0  0  3  0  0  0  0  0  0
  188.5680  172.3810  142.6940 N   0  0  0  0  0  2  0  0  0  0  0  0
  188.2290  173.7750  142.3870 C   0  0  0  0  0  2  0  0  0  0  0  0
  194.3400  173.6390  143.7950 O   0  0  0  0  0  0  0  0  0  0  0  0
  192.5550  172.1720  143.7590 O   0  0  0  0  0  0  0  0  0  0  0  0
  193.1200  173.1690  144.2890 C   0  0  0  0  0  0  0  0  0  0  0  0
  192.3570  175.7410  147.0690 C   0  0  0  0  0  0  0  0  0  0  0  0
  193.0670  176.8450  147.2440 C   0  0  0  0  0  2  0  0  0  0  0  0
  192.5040  173.8760  145.4250 C   0  0  0  0  0  2  0  0  0  0  0  0
  194.0350  175.8790  145.4990 C   0  0  0  0  0  3  0  0  0  0  0  0
  192.9340  175.0310  145.9390 C   0  0  0  0  0  0  0  0  0  0  0  0
  194.1010  176.9270  146.2600 N   0  0  0  0  0  0  0  0  0  0  0  0
  191.2270  175.2910  147.9430 C   0  0  0  0  0  2  0  0  0  0  0  0
  189.1710  175.5060  146.5280 C   0  0  0  0  0  3  0  0  0  0  0  0
  190.0940  174.7430  147.1240 C   0  0  0  0  0  3  0  0  0  0  0  0
  189.1910  176.9990  146.6000 C   0  0  0  0  0  2  0  0  0  0  0  0
  187.0810  177.4980  140.9000 C   0  0  0  0  0  3  0  0  0  0  0  0
  187.2380  177.6950  145.1140 C   0  0  0  0  0  0  0  0  0  0  0  0
  185.7740  177.7760  142.9560 C   0  0  0  0  0  0  0  0  0  0  0  0
  188.1880  177.5460  143.0280 C   0  0  0  0  0  0  0  0  0  0  0  0
  188.6390  177.5710  145.3810 N   0  0  0  0  0  0  0  0  0  0  0  0
  185.8420  177.6610  141.5510 C   0  0  0  0  0  3  0  0  0  0  0  0
  186.9770  177.7020  143.6730 C   0  0  0  0  0  0  0  0  0  0  0  0
  190.4500  178.3520  143.8670 C   0  0  0  0  0  2  0  0  0  0  0  0
  188.2720  177.4350  141.6390 C   0  0  0  0  0  3  0  0  0  0  0  0
  190.6120  176.8290  143.8870 C   0  0  0  0  0  2  0  0  0  0  0  0
  186.3560  177.7280  146.0130 O   0  0  0  0  0  0  0  0  0  0  0  0
  189.2510  177.4570  144.0620 C   0  0  0  0  0  0  0  0  0  0  0  0
  183.4700  178.6650  142.8400 C   0  0  0  0  0  2  0  0  0  0  0  0
  184.4550  177.9150  143.6540 C   0  0  2  0  0  3  0  0  0  0  0  0
  184.1950  179.2830  143.8690 O   0  0  0  0  0  0  0  0  0  0  0  0
  1  6  1  0  0  0  0
  1  9  1  1  0  0  0
  2  3  1  0  0  0  0
  3  6  1  0  0  0  0
  4 10  1  6  0  0  0
  4  2  1  0  0  0  0
  4  5  1  0  0  0  0
  5  1  1  0  0  0  0
  6 30  1  1  0  0  0
  9  7  2  0  0  0  0
  9  8  1  0  0  0  0
 10 11  1  6  0  0  0
 12 13  1  6  0  0  0
 12 10  1  0  0  0  0
 14 12  1  0  0  0  0
 15 14  1  0  0  0  0
 16 15  1  0  0  0  0
 17 19  1  6  0  0  0
 17 18  1  0  0  0  0
 17 24  1  0  0  0  0
 18 16  1  1  0  0  0
 18 25  1  0  0  0  0
 21 20  1  6  0  0  0
 21 23  1  0  0  0  0
 23 22  1  6  0  0  0
 23 27  1  0  0  0  0
 24 22  1  0  0  0  0
 25 26  2  0  0  0  0
 25 21  1  0  0  0  0
 27 29  1  6  0  0  0
 27 28  1  0  0  0  0
 29 28  1  0  0  0  0
 30 32  1  0  0  0  0
 31 32  2  0  0  0  0
 32 35  1  0  0  0  0
 33 34  1  0  0  0  0
 33 39  1  0  0  0  0
 35 37  1  0  0  0  0
 36 37  1  0  0  0  0
 36 38  2  0  0  0  0
 37 33  2  0  0  0  0
 38 34  1  0  0  0  0
 40 42  1  0  0  0  0
 40 41  2  0  0  0  0
 41 39  1  0  0  0  0
 43 48  2  0  0  0  0
 43 51  1  0  0  0  0
 44 47  1  0  0  0  0
 44 53  2  0  0  0  0
 45 49  2  0  0  0  0
 46 49  1  0  0  0  0
 46 54  1  0  0  0  0
 47 42  1  0  0  0  0
 48 45  1  0  0  0  0
 49 44  1  0  0  0  0
 50 52  1  0  0  0  0
 50 54  1  0  0  0  0
 51 46  2  0  0  0  0
 52 54  1  0  0  0  0
 54 47  1  0  0  0  0
 55 56  1  0  0  0  0
 55 57  1  0  0  0  0
 56 45  1  6  0  0  0
 56 57  1  0  0  0  0
M  END
>  <MODEL>
8

>  <REMARK>
 VINA RESULT:      -6.9      3.187      7.751
  Name = 
  16 active torsions:
  status: ('A' for Active; 'I' for Inactive)
    1  A    between atoms: C_2  and  O_25
    2  A    between atoms: C_3  and  C_5
    3  A    between atoms: C_3  and  C_53
    4  A    between atoms: C_9  and  C_11
    5  A    between atoms: C_9  and  C_42
    6  A    between atoms: C_10  and  C_31
    7  A    between atoms: C_11  and  C_12
    8  A    between atoms: C_12  and  C_22
    9  A    between atoms: C_15  and  C_55
   10  A    between atoms: N_20  and  C_57
   11  A    between atoms: O_25  and  C_42
   12  A    between atoms: C_27  and  C_52
   13  A    between atoms: C_28  and  C_30
   14  A    between atoms: C_36  and  C_57
   15  A    between atoms: O_43  and  C_48
   16  A    between atoms: O_43  and  C_52
                            x       y       z     vdW  Elec       q    Type
                         _______ _______ _______ _____ _____    ______ ____

>  <TORSDO>
F 16

$$$$
=
 OpenBabel11072409093D

 57 64  0  0  1  0  0  0  0  0999 V2000
  196.3420  173.8260  138.9170 C   0  0  2  0  0  3  0  0  0  0  0  0
  195.5450  171.6160  140.6580 C   0  0  0  0  0  2  0  0  0  0  0  0
  194.9290  173.0060  140.8600 C   0  0  0  0  0  2  0  0  0  0  0  0
  196.5830  171.6310  139.5240 C   0  0  2  0  0  3  0  0  0  0  0  0
  196.1410  172.4860  138.4950 O   0  0  0  0  0  0  0  0  0  0  0  0
  195.8930  174.0880  140.3900 C   0  0  2  0  0  3  0  0  0  0  0  0
  194.3610  174.6740  137.6640 O   0  0  0  0  0  1  0  0  0  0  0  0
  196.4210  175.6170  137.3250 O   0  0  0  0  0  0  0  0  0  0  0  0
  195.7220  174.7620  137.9270 C   0  0  0  0  0  0  0  0  0  0  0  0
  196.8490  170.2220  138.9990 C   0  0  1  0  0  3  0  0  0  0  0  0
  196.7010  169.2860  140.0270 O   0  0  0  0  0  1  0  0  0  0  0  0
  195.9300  169.8840  137.8150 C   0  0  1  0  0  3  0  0  0  0  0  0
  196.7070  169.3090  136.6400 C   0  0  0  0  0  1  0  0  0  0  0  0
  194.7100  169.0310  138.1870 C   0  0  0  0  0  2  0  0  0  0  0  0
  193.4700  169.3930  137.3810 C   0  0  0  0  0  2  0  0  0  0  0  0
  193.0600  170.6960  137.7000 O   0  0  0  0  0  0  0  0  0  0  0  0
  190.6370  171.2000  137.5130 C   0  0  1  0  0  3  0  0  0  0  0  0
  191.8040  170.6220  138.3400 C   0  0  2  0  0  3  0  0  0  0  0  0
  190.4660  170.3760  136.2510 C   0  0  0  0  0  1  0  0  0  0  0  0
  191.9390  173.3180  139.6970 F   0  0  0  0  0  0  0  0  0  0  0  0
  191.4470  172.2400  140.4140 C   0  0  1  0  0  3  0  0  0  0  0  0
  189.0860  172.8190  139.0590 S   0  0  0  0  0  0  0  0  0  0  0  0
  189.9320  172.3260  140.6040 C   0  0  2  0  0  3  0  0  0  0  0  0
  189.3270  171.1950  138.2770 C   0  0  0  0  0  2  0  0  0  0  0  0
  191.8710  170.9250  139.8220 C   0  0  0  0  0  0  0  0  0  0  0  0
  192.2760  170.0520  140.5720 O   0  0  0  0  0  0  0  0  0  0  0  0
  189.6360  173.3190  141.7190 C   0  0  2  0  0  3  0  0  0  0  0  0
  188.8580  172.6350  142.7630 N   0  0  0  0  0  2  0  0  0  0  0  0
  188.2030  173.5760  141.8470 C   0  0  0  0  0  2  0  0  0  0  0  0
  195.3360  175.3800  140.6100 O   0  0  0  0  0  0  0  0  0  0  0  0
  196.4650  177.1660  141.5470 O   0  0  0  0  0  0  0  0  0  0  0  0
  195.6960  176.1760  141.7000 C   0  0  0  0  0  0  0  0  0  0  0  0
  195.3450  174.7510  145.2740 C   0  0  0  0  0  0  0  0  0  0  0  0
  196.3190  174.0960  145.8880 C   0  0  0  0  0  2  0  0  0  0  0  0
  195.1750  175.8200  143.0320 C   0  0  0  0  0  2  0  0  0  0  0  0
  197.2070  174.6240  143.9260 C   0  0  0  0  0  3  0  0  0  0  0  0
  195.8410  175.1310  143.9620 C   0  0  0  0  0  0  0  0  0  0  0  0
  197.4730  174.0280  145.0470 N   0  0  0  0  0  0  0  0  0  0  0  0
  193.9700  174.9700  145.8250 C   0  0  0  0  0  2  0  0  0  0  0  0
  191.8590  174.4460  144.5800 C   0  0  0  0  0  3  0  0  0  0  0  0
  192.9780  174.0380  145.1890 C   0  0  0  0  0  3  0  0  0  0  0  0
  191.4930  175.8900  144.4510 C   0  0  0  0  0  2  0  0  0  0  0  0
  186.2630  178.3430  146.4080 C   0  0  0  0  0  3  0  0  0  0  0  0
  189.1570  176.6950  143.8140 C   0  0  0  0  0  0  0  0  0  0  0  0
  186.9210  178.0130  144.0690 C   0  0  0  0  0  0  0  0  0  0  0  0
  188.2400  177.0890  145.8830 C   0  0  0  0  0  0  0  0  0  0  0  0
  190.0750  176.0760  144.7220 N   0  0  0  0  0  0  0  0  0  0  0  0
  186.0400  178.5490  145.0320 C   0  0  0  0  0  3  0  0  0  0  0  0
  188.0300  177.2910  144.5330 C   0  0  0  0  0  0  0  0  0  0  0  0
  189.4590  175.1200  146.9340 C   0  0  0  0  0  2  0  0  0  0  0  0
  187.3750  177.6090  146.8470 C   0  0  0  0  0  3  0  0  0  0  0  0
  190.3740  176.2990  147.2790 C   0  0  0  0  0  2  0  0  0  0  0  0
  189.3460  176.7650  142.5700 O   0  0  0  0  0  0  0  0  0  0  0  0
  189.5100  176.3360  146.0420 C   0  0  0  0  0  0  0  0  0  0  0  0
  185.2720  178.1880  142.2350 C   0  0  0  0  0  2  0  0  0  0  0  0
  186.7050  178.2590  142.6060 C   0  0  2  0  0  3  0  0  0  0  0  0
  186.1400  177.1050  142.0270 O   0  0  0  0  0  0  0  0  0  0  0  0
  1  9  1  6  0  0  0
  1  6  1  0  0  0  0
  2  3  1  0  0  0  0
  4 10  1  6  0  0  0
  4  2  1  0  0  0  0
  5  1  1  0  0  0  0
  5  4  1  0  0  0  0
  6 30  1  6  0  0  0
  6  3  1  0  0  0  0
  7  9  1  0  0  0  0
  8  9  2  0  0  0  0
 10 11  1  1  0  0  0
 12 13  1  6  0  0  0
 12 14  1  0  0  0  0
 12 10  1  0  0  0  0
 15 16  1  0  0  0  0
 15 14  1  0  0  0  0
 17 19  1  6  0  0  0
 17 24  1  0  0  0  0
 17 18  1  0  0  0  0
 18 16  1  6  0  0  0
 18 25  1  0  0  0  0
 21 20  1  6  0  0  0
 21 23  1  0  0  0  0
 23 22  1  6  0  0  0
 23 27  1  0  0  0  0
 24 22  1  0  0  0  0
 25 21  1  0  0  0  0
 25 26  2  0  0  0  0
 27 29  1  6  0  0  0
 27 28  1  0  0  0  0
 29 28  1  0  0  0  0
 30 32  1  0  0  0  0
 31 32  2  0  0  0  0
 32 35  1  0  0  0  0
 33 39  1  0  0  0  0
 33 34  1  0  0  0  0
 35 37  1  0  0  0  0
 36 37  1  0  0  0  0
 36 38  2  0  0  0  0
 37 33  2  0  0  0  0
 38 34  1  0  0  0  0
 40 41  2  0  0  0  0
 41 39  1  0  0  0  0
 42 40  1  0  0  0  0
 42 47  1  0  0  0  0
 43 51  1  0  0  0  0
 44 49  1  0  0  0  0
 44 47  1  0  0  0  0
 45 49  2  0  0  0  0
 45 48  1  0  0  0  0
 46 54  1  0  0  0  0
 46 51  2  0  0  0  0
 47 54  1  0  0  0  0
 48 43  2  0  0  0  0
 49 46  1  0  0  0  0
 50 52  1  0  0  0  0
 53 44  2  0  0  0  0
 54 50  1  0  0  0  0
 54 52  1  0  0  0  0
 55 56  1  0  0  0  0
 56 45  1  1  0  0  0
 57 55  1  0  0  0  0
 57 56  1  0  0  0  0
M  END
>  <MODEL>
9

>  <REMARK>
 VINA RESULT:      -6.8      3.235      8.201
  Name = 
  16 active torsions:
  status: ('A' for Active; 'I' for Inactive)
    1  A    between atoms: C_2  and  O_25
    2  A    between atoms: C_3  and  C_5
    3  A    between atoms: C_3  and  C_53
    4  A    between atoms: C_9  and  C_11
    5  A    between atoms: C_9  and  C_42
    6  A    between atoms: C_10  and  C_31
    7  A    between atoms: C_11  and  C_12
    8  A    between atoms: C_12  and  C_22
    9  A    between atoms: C_15  and  C_55
   10  A    between atoms: N_20  and  C_57
   11  A    between atoms: O_25  and  C_42
   12  A    between atoms: C_27  and  C_52
   13  A    between atoms: C_28  and  C_30
   14  A    between atoms: C_36  and  C_57
   15  A    between atoms: O_43  and  C_48
   16  A    between atoms: O_43  and  C_52
                            x       y       z     vdW  Elec       q    Type
                         _______ _______ _______ _____ _____    ______ ____

>  <TORSDO>
F 16

$$$$
