=
 OpenBabel11062422553D

 29 32  0  0  1  0  0  0  0  0999 V2000
  189.7400  175.2800  143.5530 C   0  0  0  0  0  2  0  0  0  0  0  0
  189.7950  173.5740  141.9020 O   0  0  0  0  0  0  0  0  0  0  0  0
  189.2350  174.6250  142.3060 C   0  0  0  0  0  0  0  0  0  0  0  0
  188.1860  175.2030  141.5200 N   0  0  0  0  0  2  0  0  0  0  0  0
  185.4600  179.7110  144.2240 S   0  0  0  0  0  0  0  0  0  0  0  0
  186.3550  175.9950  142.8640 C   0  0  0  0  0  3  0  0  0  0  0  0
  185.3960  177.1300  143.1230 C   0  0  2  0  0  3  0  0  0  0  0  0
  186.3630  178.2700  143.5340 C   0  0  2  0  0  0  0  0  0  0  0  0
  187.4030  177.6500  141.4140 C   0  0  0  0  0  3  0  0  0  0  0  0
  185.1830  177.8990  144.3730 C   0  0  1  0  0  0  0  0  0  0  0  0
  186.8550  178.6410  142.1510 C   0  0  0  0  0  3  0  0  0  0  0  0
  187.3010  176.2480  141.9360 C   0  0  0  0  0  0  0  0  0  0  0  0
  184.8910  176.7110  146.4640 O   0  0  0  0  0  1  0  0  0  0  0  0
  185.6680  177.3050  145.6680 C   0  0  0  0  0  0  0  0  0  0  0  0
  187.0180  177.3890  145.9750 O   0  0  0  0  0  0  0  0  0  0  0  0
  189.7310  174.3110  144.7340 C   0  0  0  0  0  2  0  0  0  0  0  0
  190.8340  175.1670  148.1050 O   0  0  0  0  0  1  0  0  0  0  0  0
  188.6950  174.9230  147.3380 O   0  0  0  0  0  0  0  0  0  0  0  0
  190.0670  174.9720  147.1260 C   0  0  0  0  0  0  0  0  0  0  0  0
  190.6010  174.7800  145.8090 N   0  0  0  0  0  0  0  0  0  0  0  0
  192.0370  174.8480  145.5650 C   0  0  0  0  0  2  0  0  0  0  0  0
  195.2790  176.3280  144.5470 C   0  0  1  0  0  3  0  0  0  0  0  0
  192.8430  176.8460  144.2810 C   0  0  0  0  0  2  0  0  0  0  0  0
  194.0560  176.1660  143.6480 C   0  0  0  0  0  2  0  0  0  0  0  0
  193.7900  176.3810  146.5650 C   0  0  0  0  0  2  0  0  0  0  0  0
  192.5500  176.2800  145.6720 C   0  0  2  0  0  3  0  0  0  0  0  0
  195.0040  175.7130  145.9160 C   0  0  0  0  0  2  0  0  0  0  0  0
  196.9900  176.6710  143.1870 C   0  0  0  0  0  1  0  0  0  0  0  0
  196.3750  175.6890  143.9650 O   0  0  0  0  0  0  0  0  0  0  0  0
  1 16  1  0  0  0  0
  2  3  2  0  0  0  0
  3  1  1  0  0  0  0
  4 12  1  0  0  0  0
  4  3  1  0  0  0  0
  5 10  1  0  0  0  0
  7  6  1  1  0  0  0
  7  8  1  0  0  0  0
  7 10  1  0  0  0  0
  8 11  1  1  0  0  0
  8  5  1  0  0  0  0
  8 10  1  0  0  0  0
  9 12  1  0  0  0  0
  9 11  2  0  0  0  0
 10 14  1  1  0  0  0
 12  6  2  0  0  0  0
 14 15  2  0  0  0  0
 14 13  1  0  0  0  0
 16 20  1  0  0  0  0
 19 18  2  0  0  0  0
 19 17  1  0  0  0  0
 20 19  1  0  0  0  0
 21 20  1  0  0  0  0
 22 29  1  6  0  0  0
 22 27  1  0  0  0  0
 23 26  1  0  0  0  0
 24 23  1  0  0  0  0
 24 22  1  0  0  0  0
 26 21  1  6  0  0  0
 26 25  1  0  0  0  0
 27 25  1  0  0  0  0
 28 29  1  0  0  0  0
M  END
>  <MODEL>
1

>  <REMARK>
 VINA RESULT:      -7.1      0.000      0.000
  Name = 
  8 active torsions:
  status: ('A' for Active; 'I' for Inactive)
    1  A    between atoms: C_2  and  O_27
    2  A    between atoms: C_11  and  C_21
    3  A    between atoms: C_11  and  N_28
    4  A    between atoms: C_13  and  C_21
    5  A    between atoms: C_14  and  C_19
    6  A    between atoms: C_15  and  C_22
    7  A    between atoms: C_15  and  N_28
    8  A    between atoms: N_24  and  C_25
                            x       y       z     vdW  Elec       q    Type
                         _______ _______ _______ _____ _____    ______ ____

>  <TORSDO>
F 8

$$$$
=
 OpenBabel11062422553D

 29 32  0  0  1  0  0  0  0  0999 V2000
  191.0800  175.2670  147.3500 C   0  0  0  0  0  2  0  0  0  0  0  0
  191.9940  177.0950  148.5600 O   0  0  0  0  0  0  0  0  0  0  0  0
  191.0870  176.6990  147.7840 C   0  0  0  0  0  0  0  0  0  0  0  0
  190.0470  177.6090  147.4070 N   0  0  0  0  0  2  0  0  0  0  0  0
  185.7260  178.0490  143.3820 S   0  0  0  0  0  0  0  0  0  0  0  0
  187.8330  177.0030  146.6880 C   0  0  0  0  0  2  0  0  0  0  0  0
  186.9470  176.6850  145.5090 C   0  0  2  0  0  3  0  0  0  0  0  0
  186.9800  178.0200  144.7210 C   0  0  2  0  0  0  0  0  0  0  0  0
  189.3860  177.6500  144.9230 C   0  0  0  0  0  3  0  0  0  0  0  0
  185.6930  177.3510  145.0830 C   0  0  1  0  0  0  0  0  0  0  0  0
  188.3450  177.8580  144.0860 C   0  0  0  0  0  3  0  0  0  0  0  0
  189.0820  177.4010  146.3700 C   0  0  1  0  0  3  0  0  0  0  0  0
  183.8520  177.8580  146.5730 O   0  0  0  0  0  1  0  0  0  0  0  0
  184.9610  178.2040  146.0850 C   0  0  0  0  0  0  0  0  0  0  0  0
  185.5460  179.3900  146.5030 O   0  0  0  0  0  0  0  0  0  0  0  0
  192.3630  174.9070  146.6020 C   0  0  0  0  0  2  0  0  0  0  0  0
  192.5860  175.8350  143.0800 O   0  0  0  0  0  0  0  0  0  0  0  0
  193.0150  177.1320  144.9130 O   0  0  0  0  0  1  0  0  0  0  0  0
  192.5760  175.9480  144.3340 C   0  0  0  0  0  0  0  0  0  0  0  0
  192.1380  174.8590  145.1600 N   0  0  0  0  0  0  0  0  0  0  0  0
  191.6540  173.6180  144.5700 C   0  0  0  0  0  2  0  0  0  0  0  0
  189.0700  172.5790  142.1230 C   0  0  1  0  0  3  0  0  0  0  0  0
  189.7110  172.0340  144.4830 C   0  0  0  0  0  2  0  0  0  0  0  0
  189.8770  171.6390  143.0160 C   0  0  0  0  0  2  0  0  0  0  0  0
  189.3850  174.4300  143.7870 C   0  0  0  0  0  2  0  0  0  0  0  0
  190.1430  173.4830  144.7210 C   0  0  2  0  0  3  0  0  0  0  0  0
  189.5410  174.0170  142.3220 C   0  0  0  0  0  2  0  0  0  0  0  0
  188.5560  173.1910  140.0610 C   0  0  0  0  0  1  0  0  0  0  0  0
  189.2440  172.2170  140.7860 O   0  0  0  0  0  0  0  0  0  0  0  0
  1  3  1  0  0  0  0
  3  2  2  0  0  0  0
  4  3  1  0  0  0  0
  5  8  1  0  0  0  0
  5 10  1  0  0  0  0
  7  6  1  1  0  0  0
  8 11  1  1  0  0  0
  8 10  1  0  0  0  0
  8  7  1  0  0  0  0
  9 12  1  0  0  0  0
 10  7  1  0  0  0  0
 10 14  1  1  0  0  0
 11  9  2  0  0  0  0
 12  6  1  0  0  0  0
 12  4  1  1  0  0  0
 14 15  2  0  0  0  0
 14 13  1  0  0  0  0
 16  1  1  0  0  0  0
 17 19  2  0  0  0  0
 19 18  1  0  0  0  0
 19 20  1  0  0  0  0
 20 16  1  0  0  0  0
 21 20  1  0  0  0  0
 22 29  1  6  0  0  0
 22 27  1  0  0  0  0
 22 24  1  0  0  0  0
 23 26  1  0  0  0  0
 24 23  1  0  0  0  0
 25 26  1  0  0  0  0
 26 21  1  6  0  0  0
 27 25  1  0  0  0  0
 28 29  1  0  0  0  0
M  END
>  <MODEL>
2

>  <REMARK>
 VINA RESULT:      -7.1      2.441      5.003
  Name = 
  8 active torsions:
  status: ('A' for Active; 'I' for Inactive)
    1  A    between atoms: C_2  and  O_27
    2  A    between atoms: C_11  and  C_21
    3  A    between atoms: C_11  and  N_28
    4  A    between atoms: C_13  and  C_21
    5  A    between atoms: C_14  and  C_19
    6  A    between atoms: C_15  and  C_22
    7  A    between atoms: C_15  and  N_28
    8  A    between atoms: N_24  and  C_25
                            x       y       z     vdW  Elec       q    Type
                         _______ _______ _______ _____ _____    ______ ____

>  <TORSDO>
F 8

$$$$
=
 OpenBabel11062422553D

 29 32  0  0  1  0  0  0  0  0999 V2000
  188.1920  174.8260  142.4690 C   0  0  0  0  0  2  0  0  0  0  0  0
  188.7890  173.0540  141.0050 O   0  0  0  0  0  0  0  0  0  0  0  0
  188.9590  173.5860  142.1320 C   0  0  0  0  0  0  0  0  0  0  0  0
  189.8180  172.9450  143.0820 N   0  0  0  0  0  2  0  0  0  0  0  0
  191.3640  176.4880  147.5680 S   0  0  0  0  0  0  0  0  0  0  0  0
  191.5550  174.0000  144.3690 C   0  0  0  0  0  2  0  0  0  0  0  0
  191.9920  174.4540  145.7400 C   0  0  2  0  0  3  0  0  0  0  0  0
  190.9150  175.5180  146.0770 C   0  0  2  0  0  0  0  0  0  0  0  0
  189.4360  173.6550  145.5240 C   0  0  0  0  0  3  0  0  0  0  0  0
  192.3760  175.8140  146.1890 C   0  0  1  0  0  0  0  0  0  0  0  0
  189.7920  174.5720  146.4500 C   0  0  0  0  0  3  0  0  0  0  0  0
  190.2970  173.5190  144.3030 C   0  0  1  0  0  3  0  0  0  0  0  0
  193.9510  177.1540  144.9280 O   0  0  0  0  0  1  0  0  0  0  0  0
  192.7520  176.8310  145.1450 C   0  0  0  0  0  0  0  0  0  0  0  0
  191.7460  177.4050  144.3810 O   0  0  0  0  0  0  0  0  0  0  0  0
  187.9840  175.7050  141.2370 C   0  0  0  0  0  2  0  0  0  0  0  0
  185.2750  178.0550  140.5670 O   0  0  0  0  0  1  0  0  0  0  0  0
  186.7340  177.1190  139.0770 O   0  0  0  0  0  0  0  0  0  0  0  0
  186.2900  177.3360  140.3760 C   0  0  0  0  0  0  0  0  0  0  0  0
  186.9710  176.7270  141.4820 N   0  0  0  0  0  0  0  0  0  0  0  0
  186.5330  176.9600  142.8520 C   0  0  0  0  0  2  0  0  0  0  0  0
  186.2630  178.4510  146.2360 C   0  0  1  0  0  3  0  0  0  0  0  0
  188.0790  177.6850  144.6900 C   0  0  0  0  0  2  0  0  0  0  0  0
  187.1680  177.2830  145.8490 C   0  0  0  0  0  2  0  0  0  0  0  0
  186.3090  179.2720  143.8660 C   0  0  0  0  0  2  0  0  0  0  0  0
  187.2670  178.1420  143.4770 C   0  0  2  0  0  3  0  0  0  0  0  0
  185.4140  178.8690  145.0390 C   0  0  0  0  0  2  0  0  0  0  0  0
  184.1580  177.9630  146.7100 C   0  0  0  0  0  1  0  0  0  0  0  0
  185.4250  178.0660  147.2840 O   0  0  0  0  0  0  0  0  0  0  0  0
  2  3  2  0  0  0  0
  3  1  1  0  0  0  0
  3  4  1  0  0  0  0
  7  6  1  6  0  0  0
  7  8  1  0  0  0  0
  7 10  1  0  0  0  0
  8 10  1  0  0  0  0
  8 11  1  6  0  0  0
  8  5  1  0  0  0  0
  9 11  2  0  0  0  0
 10 14  1  6  0  0  0
 10  5  1  0  0  0  0
 12  4  1  6  0  0  0
 12  6  1  0  0  0  0
 12  9  1  0  0  0  0
 13 14  1  0  0  0  0
 15 14  2  0  0  0  0
 16 20  1  0  0  0  0
 16  1  1  0  0  0  0
 18 19  2  0  0  0  0
 19 17  1  0  0  0  0
 19 20  1  0  0  0  0
 20 21  1  0  0  0  0
 22 29  1  1  0  0  0
 23 24  1  0  0  0  0
 24 22  1  0  0  0  0
 25 27  1  0  0  0  0
 26 21  1  1  0  0  0
 26 25  1  0  0  0  0
 26 23  1  0  0  0  0
 27 22  1  0  0  0  0
 28 29  1  0  0  0  0
M  END
>  <MODEL>
3

>  <REMARK>
 VINA RESULT:      -7.0      2.615      7.303
  Name = 
  8 active torsions:
  status: ('A' for Active; 'I' for Inactive)
    1  A    between atoms: C_2  and  O_27
    2  A    between atoms: C_11  and  C_21
    3  A    between atoms: C_11  and  N_28
    4  A    between atoms: C_13  and  C_21
    5  A    between atoms: C_14  and  C_19
    6  A    between atoms: C_15  and  C_22
    7  A    between atoms: C_15  and  N_28
    8  A    between atoms: N_24  and  C_25
                            x       y       z     vdW  Elec       q    Type
                         _______ _______ _______ _____ _____    ______ ____

>  <TORSDO>
F 8

$$$$
=
 OpenBabel11062422553D

 29 32  0  0  1  0  0  0  0  0999 V2000
  190.5450  175.6470  142.2840 C   0  0  0  0  0  2  0  0  0  0  0  0
  191.8900  177.5180  142.8590 O   0  0  0  0  0  0  0  0  0  0  0  0
  190.7250  177.0780  142.6840 C   0  0  0  0  0  0  0  0  0  0  0  0
  189.6090  177.9360  142.9490 N   0  0  0  0  0  2  0  0  0  0  0  0
  183.8590  178.2350  141.5660 S   0  0  0  0  0  0  0  0  0  0  0  0
  187.3200  177.5100  143.5550 C   0  0  0  0  0  2  0  0  0  0  0  0
  185.9520  177.1110  143.0600 C   0  0  2  0  0  3  0  0  0  0  0  0
  185.6170  178.2750  142.0910 C   0  0  2  0  0  0  0  0  0  0  0  0
  187.7840  177.6320  141.1650 C   0  0  0  0  0  3  0  0  0  0  0  0
  184.6720  177.8530  143.1700 C   0  0  1  0  0  0  0  0  0  0  0  0
  186.4690  177.8280  140.9210 C   0  0  0  0  0  3  0  0  0  0  0  0
  188.2470  177.6790  142.5900 C   0  0  1  0  0  3  0  0  0  0  0  0
  183.8050  178.8720  145.1890 O   0  0  0  0  0  1  0  0  0  0  0  0
  184.5710  178.9540  144.1920 C   0  0  0  0  0  0  0  0  0  0  0  0
  185.3700  180.0780  144.0410 O   0  0  0  0  0  0  0  0  0  0  0  0
  191.2560  174.7040  143.2530 C   0  0  0  0  0  2  0  0  0  0  0  0
  189.7390  171.8580  144.9600 O   0  0  0  0  0  1  0  0  0  0  0  0
  191.2950  171.8360  143.2860 O   0  0  0  0  0  0  0  0  0  0  0  0
  190.4150  172.5110  144.1230 C   0  0  0  0  0  0  0  0  0  0  0  0
  190.2970  173.9390  144.0450 N   0  0  0  0  0  0  0  0  0  0  0  0
  189.3640  174.6620  144.9000 C   0  0  0  0  0  2  0  0  0  0  0  0
  188.4630  177.2070  147.4410 C   0  0  1  0  0  3  0  0  0  0  0  0
  188.9520  174.7510  147.3730 C   0  0  0  0  0  2  0  0  0  0  0  0
  187.8530  175.8120  147.3260 C   0  0  0  0  0  2  0  0  0  0  0  0
  190.5560  176.3840  146.3280 C   0  0  0  0  0  2  0  0  0  0  0  0
  189.9810  174.9660  146.2620 C   0  0  2  0  0  3  0  0  0  0  0  0
  189.4490  177.4390  146.2990 C   0  0  0  0  0  2  0  0  0  0  0  0
  186.2730  177.4330  147.2250 C   0  0  0  0  0  1  0  0  0  0  0  0
  187.4510  178.1660  147.3800 O   0  0  0  0  0  0  0  0  0  0  0  0
  1  3  1  0  0  0  0
  1 16  1  0  0  0  0
  3  2  2  0  0  0  0
  3  4  1  0  0  0  0
  5  8  1  0  0  0  0
  5 10  1  0  0  0  0
  7 10  1  0  0  0  0
  7  6  1  1  0  0  0
  8 11  1  1  0  0  0
  8  7  1  0  0  0  0
  8 10  1  0  0  0  0
  9 12  1  0  0  0  0
 10 14  1  1  0  0  0
 11  9  2  0  0  0  0
 12  4  1  1  0  0  0
 12  6  1  0  0  0  0
 14 13  1  0  0  0  0
 15 14  2  0  0  0  0
 16 20  1  0  0  0  0
 18 19  2  0  0  0  0
 19 17  1  0  0  0  0
 20 19  1  0  0  0  0
 20 21  1  0  0  0  0
 22 29  1  6  0  0  0
 24 23  1  0  0  0  0
 24 22  1  0  0  0  0
 26 21  1  6  0  0  0
 26 25  1  0  0  0  0
 26 23  1  0  0  0  0
 27 25  1  0  0  0  0
 27 22  1  0  0  0  0
 28 29  1  0  0  0  0
M  END
>  <MODEL>
4

>  <REMARK>
 VINA RESULT:      -6.9      2.848      4.556
  Name = 
  8 active torsions:
  status: ('A' for Active; 'I' for Inactive)
    1  A    between atoms: C_2  and  O_27
    2  A    between atoms: C_11  and  C_21
    3  A    between atoms: C_11  and  N_28
    4  A    between atoms: C_13  and  C_21
    5  A    between atoms: C_14  and  C_19
    6  A    between atoms: C_15  and  C_22
    7  A    between atoms: C_15  and  N_28
    8  A    between atoms: N_24  and  C_25
                            x       y       z     vdW  Elec       q    Type
                         _______ _______ _______ _____ _____    ______ ____

>  <TORSDO>
F 8

$$$$
=
 OpenBabel11062422553D

 29 32  0  0  1  0  0  0  0  0999 V2000
  188.0690  176.8030  142.0010 C   0  0  0  0  0  2  0  0  0  0  0  0
  186.7700  177.1240  140.0380 O   0  0  0  0  0  0  0  0  0  0  0  0
  186.8300  177.2470  141.2890 C   0  0  0  0  0  0  0  0  0  0  0  0
  185.7450  177.8780  141.9800 N   0  0  0  0  0  2  0  0  0  0  0  0
  186.2050  178.4240  147.8580 S   0  0  0  0  0  0  0  0  0  0  0  0
  185.9210  176.8300  144.1380 C   0  0  0  0  0  2  0  0  0  0  0  0
  185.5380  176.9040  145.5960 C   0  0  2  0  0  3  0  0  0  0  0  0
  186.2240  178.2230  146.0340 C   0  0  2  0  0  0  0  0  0  0  0  0
  184.9720  179.0760  144.1190 C   0  0  0  0  0  3  0  0  0  0  0  0
  186.4210  176.9470  146.7860 C   0  0  1  0  0  0  0  0  0  0  0  0
  185.2210  179.1910  145.4420 C   0  0  0  0  0  3  0  0  0  0  0  0
  185.5470  177.8940  143.3970 C   0  0  1  0  0  3  0  0  0  0  0  0
  188.2500  175.3780  147.0420 O   0  0  0  0  0  1  0  0  0  0  0  0
  187.8510  176.5010  146.6310 C   0  0  0  0  0  0  0  0  0  0  0  0
  188.7450  177.3440  145.9870 O   0  0  0  0  0  0  0  0  0  0  0  0
  188.5840  175.4760  141.4460 C   0  0  0  0  0  2  0  0  0  0  0  0
  189.0080  172.2980  143.1880 O   0  0  0  0  0  1  0  0  0  0  0  0
  187.7600  172.7310  141.3220 O   0  0  0  0  0  0  0  0  0  0  0  0
  188.5630  173.1510  142.3760 C   0  0  0  0  0  0  0  0  0  0  0  0
  188.8950  174.5390  142.5210 N   0  0  0  0  0  0  0  0  0  0  0  0
  189.7180  175.0000  143.6320 C   0  0  0  0  0  2  0  0  0  0  0  0
  192.6940  176.0140  145.5970 C   0  0  1  0  0  3  0  0  0  0  0  0
  191.9510  174.0380  144.2490 C   0  0  0  0  0  2  0  0  0  0  0  0
  192.0190  174.6460  145.6500 C   0  0  0  0  0  2  0  0  0  0  0  0
  191.8310  176.3510  143.2650 C   0  0  0  0  0  2  0  0  0  0  0  0
  191.2020  174.9550  143.2800 C   0  0  2  0  0  3  0  0  0  0  0  0
  191.9130  176.9440  144.6720 C   0  0  0  0  0  2  0  0  0  0  0  0
  191.6820  175.9560  147.5630 C   0  0  0  0  0  1  0  0  0  0  0  0
  192.7350  176.5650  146.8790 O   0  0  0  0  0  0  0  0  0  0  0  0
  2  3  2  0  0  0  0
  3  4  1  0  0  0  0
  3  1  1  0  0  0  0
  7  6  1  6  0  0  0
  7  8  1  0  0  0  0
  7 10  1  0  0  0  0
  8 11  1  6  0  0  0
  8 10  1  0  0  0  0
  8  5  1  0  0  0  0
  9 11  2  0  0  0  0
 10 14  1  6  0  0  0
 10  5  1  0  0  0  0
 12  4  1  1  0  0  0
 12  9  1  0  0  0  0
 12  6  1  0  0  0  0
 14 13  1  0  0  0  0
 15 14  2  0  0  0  0
 16  1  1  0  0  0  0
 16 20  1  0  0  0  0
 18 19  2  0  0  0  0
 19 20  1  0  0  0  0
 19 17  1  0  0  0  0
 20 21  1  0  0  0  0
 22 24  1  0  0  0  0
 22 29  1  1  0  0  0
 23 24  1  0  0  0  0
 25 26  1  0  0  0  0
 25 27  1  0  0  0  0
 26 21  1  1  0  0  0
 26 23  1  0  0  0  0
 27 22  1  0  0  0  0
 29 28  1  0  0  0  0
M  END
>  <MODEL>
5

>  <REMARK>
 VINA RESULT:      -6.9      2.236      3.870
  Name = 
  8 active torsions:
  status: ('A' for Active; 'I' for Inactive)
    1  A    between atoms: C_2  and  O_27
    2  A    between atoms: C_11  and  C_21
    3  A    between atoms: C_11  and  N_28
    4  A    between atoms: C_13  and  C_21
    5  A    between atoms: C_14  and  C_19
    6  A    between atoms: C_15  and  C_22
    7  A    between atoms: C_15  and  N_28
    8  A    between atoms: N_24  and  C_25
                            x       y       z     vdW  Elec       q    Type
                         _______ _______ _______ _____ _____    ______ ____

>  <TORSDO>
F 8

$$$$
=
 OpenBabel11062422553D

 29 32  0  0  1  0  0  0  0  0999 V2000
  187.8610  175.2440  141.8770 C   0  0  0  0  0  2  0  0  0  0  0  0
  188.4630  174.2410  139.8100 O   0  0  0  0  0  0  0  0  0  0  0  0
  188.8380  174.5730  140.9640 C   0  0  0  0  0  0  0  0  0  0  0  0
  190.1600  174.2270  141.3930 N   0  0  0  0  0  2  0  0  0  0  0  0
  194.0200  175.9930  145.5220 S   0  0  0  0  0  0  0  0  0  0  0  0
  191.2050  173.8570  143.5280 C   0  0  0  0  0  2  0  0  0  0  0  0
  191.7640  174.5010  144.7730 C   0  0  2  0  0  3  0  0  0  0  0  0
  192.9370  175.3350  144.1950 C   0  0  2  0  0  0  0  0  0  0  0  0
  191.1470  176.1690  142.7590 C   0  0  0  0  0  3  0  0  0  0  0  0
  193.1300  174.3940  145.3400 C   0  0  1  0  0  0  0  0  0  0  0  0
  192.1250  176.4850  143.6360 C   0  0  0  0  0  3  0  0  0  0  0  0
  190.8190  174.7190  142.5650 C   0  0  1  0  0  3  0  0  0  0  0  0
  194.5840  173.2500  143.7770 O   0  0  0  0  0  0  0  0  0  0  0  0
  194.0010  173.2500  144.8940 C   0  0  0  0  0  0  0  0  0  0  0  0
  194.1880  172.1800  145.7570 O   0  0  0  0  0  1  0  0  0  0  0  0
  187.4400  176.6090  141.3350 C   0  0  0  0  0  2  0  0  0  0  0  0
  184.2760  178.2450  142.1280 O   0  0  0  0  0  1  0  0  0  0  0  0
  185.4270  178.2770  140.1540 O   0  0  0  0  0  0  0  0  0  0  0  0
  185.3150  177.9250  141.4930 C   0  0  0  0  0  0  0  0  0  0  0  0
  186.3640  177.1860  142.1350 N   0  0  0  0  0  0  0  0  0  0  0  0
  186.2720  176.8260  143.5450 C   0  0  0  0  0  2  0  0  0  0  0  0
  187.9050  176.5180  146.8580 C   0  0  1  0  0  3  0  0  0  0  0  0
  188.4070  177.5620  144.6380 C   0  0  0  0  0  2  0  0  0  0  0  0
  188.5910  176.3200  145.5090 C   0  0  0  0  0  2  0  0  0  0  0  0
  186.2110  178.0220  145.7790 C   0  0  0  0  0  2  0  0  0  0  0  0
  186.9250  177.8820  144.4310 C   0  0  2  0  0  3  0  0  0  0  0  0
  186.4160  176.7820  146.6520 C   0  0  0  0  0  2  0  0  0  0  0  0
  189.3070  174.8550  147.2600 C   0  0  0  0  0  1  0  0  0  0  0  0
  188.0670  175.3710  147.6380 O   0  0  0  0  0  0  0  0  0  0  0  0
  2  3  2  0  0  0  0
  3  4  1  0  0  0  0
  3  1  1  0  0  0  0
  7  6  1  6  0  0  0
  7 10  1  0  0  0  0
  8 11  1  6  0  0  0
  8  7  1  0  0  0  0
  8 10  1  0  0  0  0
  8  5  1  0  0  0  0
  9 11  2  0  0  0  0
 10 14  1  6  0  0  0
 10  5  1  0  0  0  0
 12  4  1  6  0  0  0
 12  9  1  0  0  0  0
 12  6  1  0  0  0  0
 13 14  2  0  0  0  0
 14 15  1  0  0  0  0
 16  1  1  0  0  0  0
 16 20  1  0  0  0  0
 18 19  2  0  0  0  0
 19 17  1  0  0  0  0
 19 20  1  0  0  0  0
 20 21  1  0  0  0  0
 22 29  1  1  0  0  0
 23 24  1  0  0  0  0
 24 22  1  0  0  0  0
 25 27  1  0  0  0  0
 26 21  1  6  0  0  0
 26 23  1  0  0  0  0
 26 25  1  0  0  0  0
 27 22  1  0  0  0  0
 28 29  1  0  0  0  0
M  END
>  <MODEL>
6

>  <REMARK>
 VINA RESULT:      -6.8      2.939      7.032
  Name = 
  8 active torsions:
  status: ('A' for Active; 'I' for Inactive)
    1  A    between atoms: C_2  and  O_27
    2  A    between atoms: C_11  and  C_21
    3  A    between atoms: C_11  and  N_28
    4  A    between atoms: C_13  and  C_21
    5  A    between atoms: C_14  and  C_19
    6  A    between atoms: C_15  and  C_22
    7  A    between atoms: C_15  and  N_28
    8  A    between atoms: N_24  and  C_25
                            x       y       z     vdW  Elec       q    Type
                         _______ _______ _______ _____ _____    ______ ____

>  <TORSDO>
F 8

$$$$
=
 OpenBabel11062422553D

 29 32  0  0  1  0  0  0  0  0999 V2000
  189.7060  176.5250  145.4660 C   0  0  0  0  0  2  0  0  0  0  0  0
  188.6040  175.4340  147.2660 O   0  0  0  0  0  0  0  0  0  0  0  0
  189.7050  175.7450  146.7440 C   0  0  0  0  0  0  0  0  0  0  0  0
  190.9190  175.4130  147.4280 N   0  0  0  0  0  2  0  0  0  0  0  0
  195.7350  176.2600  144.0890 S   0  0  0  0  0  0  0  0  0  0  0  0
  192.7000  174.4790  146.1080 C   0  0  0  0  0  2  0  0  0  0  0  0
  194.1480  174.6010  145.7020 C   0  0  2  0  0  3  0  0  0  0  0  0
  194.1590  175.9750  144.9830 C   0  0  2  0  0  0  0  0  0  0  0  0
  193.1380  176.6670  147.0910 C   0  0  0  0  0  3  0  0  0  0  0  0
  194.7210  174.7470  144.3420 C   0  0  1  0  0  0  0  0  0  0  0  0
  194.1480  176.8580  146.2140 C   0  0  0  0  0  3  0  0  0  0  0  0
  192.2390  175.4850  146.8800 C   0  0  1  0  0  3  0  0  0  0  0  0
  194.2110  173.4800  142.3420 O   0  0  0  0  0  0  0  0  0  0  0  0
  193.8650  174.3730  143.1620 C   0  0  0  0  0  0  0  0  0  0  0  0
  192.6460  175.0130  142.9940 O   0  0  0  0  0  1  0  0  0  0  0  0
  188.9930  175.7640  144.3490 C   0  0  0  0  0  2  0  0  0  0  0  0
  187.7220  176.9700  141.1490 O   0  0  0  0  0  0  0  0  0  0  0  0
  189.0590  175.1590  141.5460 O   0  0  0  0  0  1  0  0  0  0  0  0
  188.3870  176.2950  141.9780 C   0  0  0  0  0  0  0  0  0  0  0  0
  188.4330  176.6790  143.3600 N   0  0  0  0  0  0  0  0  0  0  0  0
  187.7510  177.8800  143.8270 C   0  0  0  0  0  2  0  0  0  0  0  0
  184.9380  178.2980  146.2050 C   0  0  1  0  0  3  0  0  0  0  0  0
  185.5740  179.1210  143.9260 C   0  0  0  0  0  2  0  0  0  0  0  0
  185.6150  179.4210  145.4240 C   0  0  0  0  0  2  0  0  0  0  0  0
  185.6160  176.6560  144.4320 C   0  0  0  0  0  2  0  0  0  0  0  0
  186.2450  177.7830  143.6080 C   0  0  2  0  0  3  0  0  0  0  0  0
  185.6440  176.9730  145.9290 C   0  0  0  0  0  2  0  0  0  0  0  0
  186.2570  178.1300  147.9730 C   0  0  0  0  0  1  0  0  0  0  0  0
  184.9970  178.5760  147.5710 O   0  0  0  0  0  0  0  0  0  0  0  0
  1  3  1  0  0  0  0
  3  2  2  0  0  0  0
  3  4  1  0  0  0  0
  5 10  1  0  0  0  0
  5  8  1  0  0  0  0
  6 12  1  0  0  0  0
  7  6  1  6  0  0  0
  8  7  1  0  0  0  0
  8 11  1  6  0  0  0
 10 14  1  6  0  0  0
 10  8  1  0  0  0  0
 10  7  1  0  0  0  0
 11  9  2  0  0  0  0
 12  9  1  0  0  0  0
 12  4  1  6  0  0  0
 13 14  2  0  0  0  0
 15 14  1  0  0  0  0
 16  1  1  0  0  0  0
 17 19  2  0  0  0  0
 18 19  1  0  0  0  0
 19 20  1  0  0  0  0
 20 21  1  0  0  0  0
 20 16  1  0  0  0  0
 22 29  1  1  0  0  0
 23 24  1  0  0  0  0
 24 22  1  0  0  0  0
 25 27  1  0  0  0  0
 26 21  1  1  0  0  0
 26 23  1  0  0  0  0
 26 25  1  0  0  0  0
 27 22  1  0  0  0  0
 29 28  1  0  0  0  0
M  END
>  <MODEL>
7

>  <REMARK>
 VINA RESULT:      -6.8      2.722      8.075
  Name = 
  8 active torsions:
  status: ('A' for Active; 'I' for Inactive)
    1  A    between atoms: C_2  and  O_27
    2  A    between atoms: C_11  and  C_21
    3  A    between atoms: C_11  and  N_28
    4  A    between atoms: C_13  and  C_21
    5  A    between atoms: C_14  and  C_19
    6  A    between atoms: C_15  and  C_22
    7  A    between atoms: C_15  and  N_28
    8  A    between atoms: N_24  and  C_25
                            x       y       z     vdW  Elec       q    Type
                         _______ _______ _______ _____ _____    ______ ____

>  <TORSDO>
F 8

$$$$
=
 OpenBabel11062422553D

 29 32  0  0  1  0  0  0  0  0999 V2000
  188.5630  177.0310  142.1990 C   0  0  0  0  0  2  0  0  0  0  0  0
  187.4420  176.4040  140.2020 O   0  0  0  0  0  0  0  0  0  0  0  0
  187.3320  176.8740  141.3630 C   0  0  0  0  0  0  0  0  0  0  0  0
  186.0470  177.3140  141.8170 N   0  0  0  0  0  2  0  0  0  0  0  0
  185.9500  179.0410  147.4810 S   0  0  0  0  0  0  0  0  0  0  0  0
  185.8400  176.7370  144.1440 C   0  0  0  0  0  3  0  0  0  0  0  0
  185.3190  177.1630  145.4940 C   0  0  2  0  0  3  0  0  0  0  0  0
  186.1350  178.4560  145.7520 C   0  0  2  0  0  0  0  0  0  0  0  0
  185.2280  179.0220  143.5560 C   0  0  0  0  0  3  0  0  0  0  0  0
  186.0670  177.3540  146.7590 C   0  0  1  0  0  0  0  0  0  0  0  0
  185.3480  179.3860  144.8520 C   0  0  0  0  0  3  0  0  0  0  0  0
  185.7020  177.6540  143.1640 C   0  0  0  0  0  0  0  0  0  0  0  0
  187.6130  175.6660  147.5510 O   0  0  0  0  0  1  0  0  0  0  0  0
  187.4270  176.7210  146.8880 C   0  0  0  0  0  0  0  0  0  0  0  0
  188.4990  177.3060  146.2280 O   0  0  0  0  0  0  0  0  0  0  0  0
  188.8930  175.7430  142.9520 C   0  0  0  0  0  2  0  0  0  0  0  0
  191.8610  174.3630  141.3400 O   0  0  0  0  0  1  0  0  0  0  0  0
  189.6670  173.9090  140.8870 O   0  0  0  0  0  0  0  0  0  0  0  0
  190.6510  174.5270  141.6470 C   0  0  0  0  0  0  0  0  0  0  0  0
  190.2890  175.3610  142.7570 N   0  0  0  0  0  0  0  0  0  0  0  0
  191.3080  176.0010  143.5790 C   0  0  0  0  0  2  0  0  0  0  0  0
  194.1720  175.1550  145.7760 C   0  0  1  0  0  3  0  0  0  0  0  0
  191.9990  176.3880  145.9590 C   0  0  0  0  0  2  0  0  0  0  0  0
  193.4970  176.5210  145.6840 C   0  0  0  0  0  2  0  0  0  0  0  0
  192.0480  174.0530  145.0220 C   0  0  0  0  0  2  0  0  0  0  0  0
  191.3400  175.4100  144.9850 C   0  0  2  0  0  3  0  0  0  0  0  0
  193.5490  174.1970  144.7640 C   0  0  0  0  0  2  0  0  0  0  0  0
  195.5940  175.9480  144.2780 C   0  0  0  0  0  1  0  0  0  0  0  0
  195.5360  175.2890  145.5070 O   0  0  0  0  0  0  0  0  0  0  0  0
  1 16  1  0  0  0  0
  2  3  2  0  0  0  0
  3  4  1  0  0  0  0
  3  1  1  0  0  0  0
  4 12  1  0  0  0  0
  7  6  1  6  0  0  0
  7  8  1  0  0  0  0
  7 10  1  0  0  0  0
  8 11  1  6  0  0  0
  8 10  1  0  0  0  0
  8  5  1  0  0  0  0
  9 11  2  0  0  0  0
 10 14  1  1  0  0  0
 10  5  1  0  0  0  0
 12  9  1  0  0  0  0
 12  6  2  0  0  0  0
 14 13  1  0  0  0  0
 15 14  2  0  0  0  0
 17 19  1  0  0  0  0
 18 19  2  0  0  0  0
 19 20  1  0  0  0  0
 20 16  1  0  0  0  0
 20 21  1  0  0  0  0
 22 29  1  6  0  0  0
 24 22  1  0  0  0  0
 24 23  1  0  0  0  0
 26 21  1  6  0  0  0
 26 25  1  0  0  0  0
 26 23  1  0  0  0  0
 27 25  1  0  0  0  0
 27 22  1  0  0  0  0
 28 29  1  0  0  0  0
M  END
>  <MODEL>
8

>  <REMARK>
 VINA RESULT:      -6.6      1.784      3.208
  Name = 
  8 active torsions:
  status: ('A' for Active; 'I' for Inactive)
    1  A    between atoms: C_2  and  O_27
    2  A    between atoms: C_11  and  C_21
    3  A    between atoms: C_11  and  N_28
    4  A    between atoms: C_13  and  C_21
    5  A    between atoms: C_14  and  C_19
    6  A    between atoms: C_15  and  C_22
    7  A    between atoms: C_15  and  N_28
    8  A    between atoms: N_24  and  C_25
                            x       y       z     vdW  Elec       q    Type
                         _______ _______ _______ _____ _____    ______ ____

>  <TORSDO>
F 8

$$$$
=
 OpenBabel11062422553D

 29 32  0  0  1  0  0  0  0  0999 V2000
  189.1310  174.8570  145.3500 C   0  0  0  0  0  2  0  0  0  0  0  0
  189.8700  174.9600  147.6050 O   0  0  0  0  0  0  0  0  0  0  0  0
  189.0510  175.3830  146.7490 C   0  0  0  0  0  0  0  0  0  0  0  0
  188.0230  176.2920  147.1580 N   0  0  0  0  0  2  0  0  0  0  0  0
  184.3820  178.1890  142.8910 S   0  0  0  0  0  0  0  0  0  0  0  0
  187.6770  177.6330  145.1900 C   0  0  0  0  0  3  0  0  0  0  0  0
  186.7090  178.5020  144.4270 C   0  0  2  0  0  3  0  0  0  0  0  0
  185.5740  177.4970  144.1020 C   0  0  2  0  0  0  0  0  0  0  0  0
  185.6880  177.1570  146.5170 C   0  0  0  0  0  3  0  0  0  0  0  0
  186.2080  178.3380  143.0410 C   0  0  1  0  0  0  0  0  0  0  0  0
  184.9080  177.4810  145.4620 C   0  0  0  0  0  3  0  0  0  0  0  0
  187.1660  177.0380  146.2880 C   0  0  0  0  0  0  0  0  0  0  0  0
  187.7610  177.9120  141.2310 O   0  0  0  0  0  0  0  0  0  0  0  0
  186.9790  177.4470  142.1040 C   0  0  0  0  0  0  0  0  0  0  0  0
  186.8440  176.0720  142.2300 O   0  0  0  0  0  1  0  0  0  0  0  0
  189.9420  173.5640  145.2870 C   0  0  0  0  0  2  0  0  0  0  0  0
  190.8510  172.8760  141.8200 O   0  0  0  0  0  0  0  0  0  0  0  0
  189.1770  171.9310  143.0560 O   0  0  0  0  0  1  0  0  0  0  0  0
  190.2810  172.7650  142.9370 C   0  0  0  0  0  0  0  0  0  0  0  0
  190.7510  173.5070  144.0720 N   0  0  0  0  0  0  0  0  0  0  0  0
  191.9200  174.3710  143.9720 C   0  0  0  0  0  2  0  0  0  0  0  0
  195.1290  176.0200  144.8230 C   0  0  1  0  0  3  0  0  0  0  0  0
  192.8320  175.8220  145.8030 C   0  0  0  0  0  2  0  0  0  0  0  0
  193.7480  176.6640  144.9150 C   0  0  0  0  0  2  0  0  0  0  0  0
  194.0940  173.7540  145.1200 C   0  0  0  0  0  2  0  0  0  0  0  0
  192.7100  174.3900  145.2770 C   0  0  2  0  0  3  0  0  0  0  0  0
  195.0100  174.6120  144.2460 C   0  0  0  0  0  2  0  0  0  0  0  0
  196.8820  175.8890  143.4800 C   0  0  0  0  0  1  0  0  0  0  0  0
  195.9490  176.7900  143.9970 O   0  0  0  0  0  0  0  0  0  0  0  0
  1  3  1  0  0  0  0
  3  4  1  0  0  0  0
  3  2  2  0  0  0  0
  5 10  1  0  0  0  0
  5  8  1  0  0  0  0
  6 12  2  0  0  0  0
  7  6  1  6  0  0  0
  8  7  1  0  0  0  0
  8 11  1  1  0  0  0
 10 14  1  6  0  0  0
 10  8  1  0  0  0  0
 10  7  1  0  0  0  0
 11  9  2  0  0  0  0
 12  9  1  0  0  0  0
 12  4  1  0  0  0  0
 13 14  2  0  0  0  0
 14 15  1  0  0  0  0
 16  1  1  0  0  0  0
 17 19  2  0  0  0  0
 19 18  1  0  0  0  0
 19 20  1  0  0  0  0
 20 16  1  0  0  0  0
 21 20  1  0  0  0  0
 22 29  1  6  0  0  0
 22 24  1  0  0  0  0
 24 23  1  0  0  0  0
 25 26  1  0  0  0  0
 26 21  1  6  0  0  0
 26 23  1  0  0  0  0
 27 22  1  0  0  0  0
 27 25  1  0  0  0  0
 28 29  1  0  0  0  0
M  END
>  <MODEL>
9

>  <REMARK>
 VINA RESULT:      -6.6      1.867      3.602
  Name = 
  8 active torsions:
  status: ('A' for Active; 'I' for Inactive)
    1  A    between atoms: C_2  and  O_27
    2  A    between atoms: C_11  and  C_21
    3  A    between atoms: C_11  and  N_28
    4  A    between atoms: C_13  and  C_21
    5  A    between atoms: C_14  and  C_19
    6  A    between atoms: C_15  and  C_22
    7  A    between atoms: C_15  and  N_28
    8  A    between atoms: N_24  and  C_25
                            x       y       z     vdW  Elec       q    Type
                         _______ _______ _______ _____ _____    ______ ____

>  <TORSDO>
F 8

$$$$
