=
 OpenBabel11062421273D

 31 34  0  0  1  0  0  0  0  0999 V2000
  184.1550  177.8860  140.2440 C   0  0  0  0  0  3  0  0  0  0  0  0
  183.1510  178.1190  141.1010 C   0  0  0  0  0  3  0  0  0  0  0  0
  184.7680  178.0830  142.9820 C   0  0  0  0  0  0  0  0  0  0  0  0
  185.7170  177.8530  142.1200 N   0  0  0  0  0  0  0  0  0  0  0  0
  183.4450  178.6280  142.4930 C   0  0  0  0  0  2  0  0  0  0  0  0
  185.5720  178.1420  140.6860 C   0  0  1  0  0  3  0  0  0  0  0  0
  186.5530  177.3210  139.8500 C   0  0  0  0  0  2  0  0  0  0  0  0
  187.4630  176.5690  140.7030 N   0  0  0  0  0  2  0  0  0  0  0  0
  187.9550  175.2850  140.3090 C   0  0  0  0  0  0  0  0  0  0  0  0
  187.8990  174.9270  139.1000 O   0  0  0  0  0  0  0  0  0  0  0  0
  189.8600  173.2920  143.0510 C   0  0  0  0  0  0  0  0  0  0  0  0
  188.8070  172.5340  142.5480 C   0  0  0  0  0  3  0  0  0  0  0  0
  188.5560  174.4010  141.3090 C   0  0  0  0  0  0  0  0  0  0  0  0
  188.0920  173.1600  141.5720 N   0  0  0  0  0  0  0  0  0  0  0  0
  189.8960  174.7760  142.2550 S   0  0  0  0  0  0  0  0  0  0  0  0
  191.0530  171.6520  144.2690 O   0  0  0  0  0  0  0  0  0  0  0  0
  190.7850  172.8720  144.1090 C   0  0  0  0  0  0  0  0  0  0  0  0
  191.3570  173.8150  144.9540 O   0  0  0  0  0  1  0  0  0  0  0  0
  185.0230  177.8280  144.3400 O   0  0  0  0  0  0  0  0  0  0  0  0
  189.8340  177.3020  147.5900 O   0  0  0  0  0  0  0  0  0  0  0  0
  189.4580  177.4390  145.2080 C   0  0  0  0  0  0  0  0  0  0  0  0
  187.5780  177.2140  146.6590 C   0  0  2  0  0  3  0  0  0  0  0  0
  189.0560  177.3300  146.5990 C   0  0  0  0  0  0  0  0  0  0  0  0
  185.7480  178.8070  146.5310 C   0  0  1  0  0  3  0  0  0  0  0  0
  187.1950  177.3850  145.2680 N   0  0  0  0  0  0  0  0  0  0  0  0
  186.1150  178.3380  145.1160 C   0  0  1  0  0  3  0  0  0  0  0  0
  188.3700  177.4830  144.4600 C   0  0  0  0  0  3  0  0  0  0  0  0
  184.4750  178.1740  147.0690 C   0  0  0  0  0  1  0  0  0  0  0  0
  186.9230  178.3700  147.4020 C   0  0  0  0  0  2  0  0  0  0  0  0
  190.8510  177.4980  144.6890 C   0  0  0  0  0  2  0  0  0  0  0  0
  190.8750  178.2220  143.4320 N   0  0  0  0  0  1  0  0  0  0  0  0
  1  6  1  0  0  0  0
  1  2  2  0  0  0  0
  2  5  1  0  0  0  0
  3 19  1  0  0  0  0
  4  3  2  0  0  0  0
  5  3  1  0  0  0  0
  6  7  1  6  0  0  0
  6  4  1  0  0  0  0
  7  8  1  0  0  0  0
  9  8  1  0  0  0  0
  9 13  1  0  0  0  0
 10  9  2  0  0  0  0
 11 17  1  0  0  0  0
 12 11  2  0  0  0  0
 13 14  2  0  0  0  0
 13 15  1  0  0  0  0
 14 12  1  0  0  0  0
 15 11  1  0  0  0  0
 17 16  2  0  0  0  0
 17 18  1  0  0  0  0
 21 23  1  0  0  0  0
 22 29  1  1  0  0  0
 23 22  1  0  0  0  0
 23 20  2  0  0  0  0
 24 28  1  1  0  0  0
 24 29  1  0  0  0  0
 25 22  1  0  0  0  0
 26 19  1  1  0  0  0
 26 25  1  0  0  0  0
 26 24  1  0  0  0  0
 27 21  2  0  0  0  0
 27 25  1  0  0  0  0
 30 21  1  0  0  0  0
 31 30  1  0  0  0  0
M  END
>  <MODEL>
1

>  <REMARK>
 VINA RESULT:      -7.3      0.000      0.000
  Name = 
  7 active torsions:
  status: ('A' for Active; 'I' for Inactive)
    1  A    between atoms: C_1  and  C_13
    2  A    between atoms: C_7  and  C_22
    3  A    between atoms: C_8  and  C_10
    4  A    between atoms: N_14  and  C_24
    5  A    between atoms: C_20  and  O_29
    6  A    between atoms: C_23  and  O_29
    7  A    between atoms: C_24  and  C_31
                            x       y       z     vdW  Elec       q    Type
                         _______ _______ _______ _____ _____    ______ ____

>  <TORSDO>
F 7

$$$$
=
 OpenBabel11062421273D

 31 34  0  0  1  0  0  0  0  0999 V2000
  191.4910  175.3850  146.8760 C   0  0  0  0  0  3  0  0  0  0  0  0
  190.3530  175.1570  147.5460 C   0  0  0  0  0  3  0  0  0  0  0  0
  189.1810  176.7740  146.0750 C   0  0  0  0  0  0  0  0  0  0  0  0
  190.3060  176.9730  145.4500 N   0  0  0  0  0  0  0  0  0  0  0  0
  189.0250  175.5420  146.9370 C   0  0  0  0  0  2  0  0  0  0  0  0
  191.4260  176.0230  145.5130 C   0  0  1  0  0  3  0  0  0  0  0  0
  192.7520  176.7010  145.1730 C   0  0  0  0  0  2  0  0  0  0  0  0
  193.8800  175.8680  145.5720 N   0  0  0  0  0  2  0  0  0  0  0  0
  194.5390  175.0150  144.6310 C   0  0  0  0  0  0  0  0  0  0  0  0
  194.3970  175.2060  143.3920 O   0  0  0  0  0  0  0  0  0  0  0  0
  196.5200  171.8540  145.7270 C   0  0  0  0  0  0  0  0  0  0  0  0
  197.2030  173.0050  146.1050 C   0  0  0  0  0  3  0  0  0  0  0  0
  195.4060  173.9390  145.1130 C   0  0  0  0  0  0  0  0  0  0  0  0
  196.5680  174.1620  145.7640 N   0  0  0  0  0  0  0  0  0  0  0  0
  195.0910  172.2940  144.9520 S   0  0  0  0  0  0  0  0  0  0  0  0
  197.9410  170.0100  145.3040 O   0  0  0  0  0  0  0  0  0  0  0  0
  196.9730  170.4780  145.9590 C   0  0  0  0  0  0  0  0  0  0  0  0
  196.3240  169.6750  146.8890 O   0  0  0  0  0  1  0  0  0  0  0  0
  188.1480  177.7110  145.9050 O   0  0  0  0  0  0  0  0  0  0  0  0
  182.9980  179.1100  143.5570 O   0  0  0  0  0  0  0  0  0  0  0  0
  185.0720  178.2970  142.6240 C   0  0  0  0  0  0  0  0  0  0  0  0
  185.0200  178.9450  144.9180 C   0  0  2  0  0  3  0  0  0  0  0  0
  184.2150  178.8050  143.6800 C   0  0  0  0  0  0  0  0  0  0  0  0
  185.7710  177.3980  146.6350 C   0  0  1  0  0  3  0  0  0  0  0  0
  186.3010  178.3850  144.5230 N   0  0  0  0  0  0  0  0  0  0  0  0
  186.8020  177.4370  145.4980 C   0  0  1  0  0  3  0  0  0  0  0  0
  186.2650  178.0490  143.1340 C   0  0  0  0  0  3  0  0  0  0  0  0
  186.2010  178.1700  147.8720 C   0  0  0  0  0  1  0  0  0  0  0  0
  184.5230  178.0570  146.0510 C   0  0  0  0  0  2  0  0  0  0  0  0
  184.6940  178.0800  141.2010 C   0  0  0  0  0  2  0  0  0  0  0  0
  185.8870  178.0680  140.3740 N   0  0  0  0  0  1  0  0  0  0  0  0
  1  2  2  0  0  0  0
  3  5  1  0  0  0  0
  4  6  1  0  0  0  0
  4  3  2  0  0  0  0
  5  2  1  0  0  0  0
  6  7  1  1  0  0  0
  6  1  1  0  0  0  0
  7  8  1  0  0  0  0
  9 13  1  0  0  0  0
  9  8  1  0  0  0  0
 10  9  2  0  0  0  0
 11 17  1  0  0  0  0
 11 12  2  0  0  0  0
 13 14  2  0  0  0  0
 14 12  1  0  0  0  0
 15 13  1  0  0  0  0
 15 11  1  0  0  0  0
 16 17  2  0  0  0  0
 17 18  1  0  0  0  0
 19  3  1  0  0  0  0
 20 23  2  0  0  0  0
 21 27  2  0  0  0  0
 21 23  1  0  0  0  0
 22 29  1  1  0  0  0
 23 22  1  0  0  0  0
 24 28  1  1  0  0  0
 25 22  1  0  0  0  0
 25 26  1  0  0  0  0
 26 19  1  1  0  0  0
 26 24  1  0  0  0  0
 27 25  1  0  0  0  0
 29 24  1  0  0  0  0
 30 21  1  0  0  0  0
 31 30  1  0  0  0  0
M  END
>  <MODEL>
2

>  <REMARK>
 VINA RESULT:      -7.1      3.822      6.675
  Name = 
  7 active torsions:
  status: ('A' for Active; 'I' for Inactive)
    1  A    between atoms: C_1  and  C_13
    2  A    between atoms: C_7  and  C_22
    3  A    between atoms: C_8  and  C_10
    4  A    between atoms: N_14  and  C_24
    5  A    between atoms: C_20  and  O_29
    6  A    between atoms: C_23  and  O_29
    7  A    between atoms: C_24  and  C_31
                            x       y       z     vdW  Elec       q    Type
                         _______ _______ _______ _____ _____    ______ ____

>  <TORSDO>
F 7

$$$$
=
 OpenBabel11062421273D

 31 34  0  0  1  0  0  0  0  0999 V2000
  192.0430  175.5490  146.8380 C   0  0  0  0  0  3  0  0  0  0  0  0
  191.0210  175.2600  147.6550 C   0  0  0  0  0  3  0  0  0  0  0  0
  189.5290  176.6750  146.2670 C   0  0  0  0  0  0  0  0  0  0  0  0
  190.5470  176.9370  145.4970 N   0  0  0  0  0  0  0  0  0  0  0  0
  189.5980  175.4870  147.2000 C   0  0  0  0  0  2  0  0  0  0  0  0
  191.7530  176.0970  145.4650 C   0  0  1  0  0  3  0  0  0  0  0  0
  192.9570  176.8700  144.9290 C   0  0  0  0  0  2  0  0  0  0  0  0
  193.6180  176.1290  143.8620 N   0  0  0  0  0  2  0  0  0  0  0  0
  195.0280  176.2430  143.6470 C   0  0  0  0  0  0  0  0  0  0  0  0
  195.7750  176.7000  144.5550 O   0  0  0  0  0  0  0  0  0  0  0  0
  196.2060  175.2980  140.0640 C   0  0  0  0  0  0  0  0  0  0  0  0
  197.0620  174.7480  141.0130 C   0  0  0  0  0  3  0  0  0  0  0  0
  195.6040  175.7960  142.3780 C   0  0  0  0  0  0  0  0  0  0  0  0
  196.7110  175.0270  142.3000 N   0  0  0  0  0  0  0  0  0  0  0  0
  194.9840  176.1480  140.8530 S   0  0  0  0  0  0  0  0  0  0  0  0
  195.3650  174.8020  137.9080 O   0  0  0  0  0  0  0  0  0  0  0  0
  196.3460  175.1650  138.6100 C   0  0  0  0  0  0  0  0  0  0  0  0
  197.5670  175.4190  137.9980 O   0  0  0  0  0  1  0  0  0  0  0  0
  188.3980  177.5040  146.1840 O   0  0  0  0  0  0  0  0  0  0  0  0
  183.5620  178.8160  143.2040 O   0  0  0  0  0  0  0  0  0  0  0  0
  185.8080  178.2320  142.5330 C   0  0  0  0  0  0  0  0  0  0  0  0
  185.3660  178.6370  144.8410 C   0  0  2  0  0  3  0  0  0  0  0  0
  184.7670  178.5750  143.4850 C   0  0  0  0  0  0  0  0  0  0  0  0
  185.9700  176.9710  146.5040 C   0  0  1  0  0  3  0  0  0  0  0  0
  186.7300  178.2010  144.6000 N   0  0  0  0  0  0  0  0  0  0  0  0
  187.1520  177.1900  145.5490 C   0  0  1  0  0  3  0  0  0  0  0  0
  186.9270  178.0070  143.1970 C   0  0  0  0  0  3  0  0  0  0  0  0
  186.1520  177.6380  147.8580 C   0  0  0  0  0  1  0  0  0  0  0  0
  184.7760  177.6090  145.7960 C   0  0  0  0  0  2  0  0  0  0  0  0
  185.6630  178.1390  141.0540 C   0  0  0  0  0  2  0  0  0  0  0  0
  186.9050  177.6690  140.4690 N   0  0  0  0  0  1  0  0  0  0  0  0
  1  2  2  0  0  0  0
  3  5  1  0  0  0  0
  4  3  2  0  0  0  0
  5  2  1  0  0  0  0
  6  7  1  1  0  0  0
  6  4  1  0  0  0  0
  6  1  1  0  0  0  0
  8  7  1  0  0  0  0
  9  8  1  0  0  0  0
  9 10  2  0  0  0  0
 11 15  1  0  0  0  0
 11 12  2  0  0  0  0
 12 14  1  0  0  0  0
 13  9  1  0  0  0  0
 14 13  2  0  0  0  0
 15 13  1  0  0  0  0
 16 17  2  0  0  0  0
 17 11  1  0  0  0  0
 18 17  1  0  0  0  0
 19  3  1  0  0  0  0
 20 23  2  0  0  0  0
 21 27  2  0  0  0  0
 21 23  1  0  0  0  0
 22 29  1  1  0  0  0
 23 22  1  0  0  0  0
 24 28  1  1  0  0  0
 25 22  1  0  0  0  0
 25 26  1  0  0  0  0
 26 19  1  1  0  0  0
 26 24  1  0  0  0  0
 27 25  1  0  0  0  0
 29 24  1  0  0  0  0
 30 21  1  0  0  0  0
 31 30  1  0  0  0  0
M  END
>  <MODEL>
3

>  <REMARK>
 VINA RESULT:      -6.9      4.197      6.819
  Name = 
  7 active torsions:
  status: ('A' for Active; 'I' for Inactive)
    1  A    between atoms: C_1  and  C_13
    2  A    between atoms: C_7  and  C_22
    3  A    between atoms: C_8  and  C_10
    4  A    between atoms: N_14  and  C_24
    5  A    between atoms: C_20  and  O_29
    6  A    between atoms: C_23  and  O_29
    7  A    between atoms: C_24  and  C_31
                            x       y       z     vdW  Elec       q    Type
                         _______ _______ _______ _____ _____    ______ ____

>  <TORSDO>
F 7

$$$$
=
 OpenBabel11062421273D

 31 34  0  0  1  0  0  0  0  0999 V2000
  192.0850  175.2210  146.5380 C   0  0  0  0  0  3  0  0  0  0  0  0
  191.8310  176.3110  147.2760 C   0  0  0  0  0  3  0  0  0  0  0  0
  189.6960  176.6240  146.0530 C   0  0  0  0  0  0  0  0  0  0  0  0
  189.9780  175.5630  145.3530 N   0  0  0  0  0  0  0  0  0  0  0  0
  190.4280  176.8640  147.3550 C   0  0  0  0  0  2  0  0  0  0  0  0
  190.9540  174.5570  145.7960 C   0  0  1  0  0  3  0  0  0  0  0  0
  191.4880  173.7410  144.6210 C   0  0  0  0  0  2  0  0  0  0  0  0
  190.8320  174.1270  143.3780 N   0  0  0  0  0  2  0  0  0  0  0  0
  190.0360  173.1930  142.6420 C   0  0  0  0  0  0  0  0  0  0  0  0
  189.6060  172.1460  143.1990 O   0  0  0  0  0  0  0  0  0  0  0  0
  189.5430  173.7230  138.8210 C   0  0  0  0  0  0  0  0  0  0  0  0
  188.4650  174.2500  139.5240 C   0  0  0  0  0  3  0  0  0  0  0  0
  189.6960  173.4750  141.2460 C   0  0  0  0  0  0  0  0  0  0  0  0
  188.5650  174.1130  140.8750 N   0  0  0  0  0  0  0  0  0  0  0  0
  190.6460  173.0730  139.9160 S   0  0  0  0  0  0  0  0  0  0  0  0
  188.8210  174.2660  136.6340 O   0  0  0  0  0  0  0  0  0  0  0  0
  189.6950  173.7260  137.3620 C   0  0  0  0  0  0  0  0  0  0  0  0
  190.7940  173.1140  136.7710 O   0  0  0  0  0  1  0  0  0  0  0  0
  188.7060  177.4970  145.5730 O   0  0  0  0  0  0  0  0  0  0  0  0
  183.6180  178.5930  142.9450 O   0  0  0  0  0  0  0  0  0  0  0  0
  185.8280  178.0770  142.1160 C   0  0  0  0  0  0  0  0  0  0  0  0
  185.5440  178.5030  144.4450 C   0  0  2  0  0  3  0  0  0  0  0  0
  184.8490  178.3990  143.1380 C   0  0  0  0  0  0  0  0  0  0  0  0
  186.3280  176.8860  146.0800 C   0  0  1  0  0  3  0  0  0  0  0  0
  186.9010  178.1110  144.1090 N   0  0  0  0  0  0  0  0  0  0  0  0
  187.4280  177.1300  145.0370 C   0  0  1  0  0  3  0  0  0  0  0  0
  187.0010  177.9010  142.6980 C   0  0  0  0  0  3  0  0  0  0  0  0
  186.5860  177.5790  147.4080 C   0  0  0  0  0  1  0  0  0  0  0  0
  185.0630  177.4700  145.4550 C   0  0  0  0  0  2  0  0  0  0  0  0
  185.5770  177.9560  140.6540 C   0  0  0  0  0  2  0  0  0  0  0  0
  186.7810  177.4930  139.9880 N   0  0  0  0  0  1  0  0  0  0  0  0
  1  2  2  0  0  0  0
  2  5  1  0  0  0  0
  3  5  1  0  0  0  0
  4  6  1  0  0  0  0
  4  3  2  0  0  0  0
  6  7  1  6  0  0  0
  6  1  1  0  0  0  0
  8  7  1  0  0  0  0
  9 10  2  0  0  0  0
  9  8  1  0  0  0  0
 11 12  2  0  0  0  0
 11 15  1  0  0  0  0
 12 14  1  0  0  0  0
 13  9  1  0  0  0  0
 14 13  2  0  0  0  0
 15 13  1  0  0  0  0
 16 17  2  0  0  0  0
 17 11  1  0  0  0  0
 18 17  1  0  0  0  0
 19  3  1  0  0  0  0
 20 23  2  0  0  0  0
 21 27  2  0  0  0  0
 21 23  1  0  0  0  0
 22 29  1  1  0  0  0
 23 22  1  0  0  0  0
 24 28  1  1  0  0  0
 25 22  1  0  0  0  0
 25 26  1  0  0  0  0
 26 19  1  1  0  0  0
 26 24  1  0  0  0  0
 27 25  1  0  0  0  0
 29 24  1  0  0  0  0
 30 21  1  0  0  0  0
 31 30  1  0  0  0  0
M  END
>  <MODEL>
4

>  <REMARK>
 VINA RESULT:      -6.8      2.162      5.783
  Name = 
  7 active torsions:
  status: ('A' for Active; 'I' for Inactive)
    1  A    between atoms: C_1  and  C_13
    2  A    between atoms: C_7  and  C_22
    3  A    between atoms: C_8  and  C_10
    4  A    between atoms: N_14  and  C_24
    5  A    between atoms: C_20  and  O_29
    6  A    between atoms: C_23  and  O_29
    7  A    between atoms: C_24  and  C_31
                            x       y       z     vdW  Elec       q    Type
                         _______ _______ _______ _____ _____    ______ ____

>  <TORSDO>
F 7

$$$$
=
 OpenBabel11062421273D

 31 34  0  0  1  0  0  0  0  0999 V2000
  188.9750  173.4450  140.3240 C   0  0  0  0  0  3  0  0  0  0  0  0
  189.7260  172.4340  140.7820 C   0  0  0  0  0  3  0  0  0  0  0  0
  189.7460  173.4860  143.0280 C   0  0  0  0  0  0  0  0  0  0  0  0
  189.0200  174.4530  142.5470 N   0  0  0  0  0  0  0  0  0  0  0  0
  189.8340  172.1820  142.2670 C   0  0  0  0  0  2  0  0  0  0  0  0
  188.2420  174.3190  141.3080 C   0  0  1  0  0  3  0  0  0  0  0  0
  187.9340  175.6820  140.6910 C   0  0  0  0  0  2  0  0  0  0  0  0
  187.0690  176.4660  141.5630 N   0  0  0  0  0  2  0  0  0  0  0  0
  187.5370  177.6670  142.1840 C   0  0  0  0  0  0  0  0  0  0  0  0
  188.5610  178.2550  141.7390 O   0  0  0  0  0  0  0  0  0  0  0  0
  185.8060  178.8320  145.4650 C   0  0  0  0  0  0  0  0  0  0  0  0
  185.3930  179.6210  144.3960 C   0  0  0  0  0  3  0  0  0  0  0  0
  186.8020  178.2290  143.3180 C   0  0  0  0  0  0  0  0  0  0  0  0
  185.9490  179.2700  143.2030 N   0  0  0  0  0  0  0  0  0  0  0  0
  186.8890  177.6700  144.9030 S   0  0  0  0  0  0  0  0  0  0  0  0
  184.3300  178.4180  147.2670 O   0  0  0  0  0  0  0  0  0  0  0  0
  185.3750  178.9880  146.8590 C   0  0  0  0  0  0  0  0  0  0  0  0
  186.1060  179.7840  147.7320 O   0  0  0  0  0  1  0  0  0  0  0  0
  190.4080  173.6910  144.2500 O   0  0  0  0  0  0  0  0  0  0  0  0
  194.5040  176.7690  147.0330 O   0  0  0  0  0  0  0  0  0  0  0  0
  194.3540  175.8580  144.8010 C   0  0  0  0  0  0  0  0  0  0  0  0
  192.6860  175.2660  146.3980 C   0  0  2  0  0  3  0  0  0  0  0  0
  193.9170  176.0620  146.1700 C   0  0  0  0  0  0  0  0  0  0  0  0
  190.3350  175.5960  145.8780 C   0  0  1  0  0  3  0  0  0  0  0  0
  192.4130  174.7270  145.0780 N   0  0  0  0  0  0  0  0  0  0  0  0
  191.0270  174.9060  144.6950 C   0  0  1  0  0  3  0  0  0  0  0  0
  193.4670  175.0970  144.1860 C   0  0  0  0  0  3  0  0  0  0  0  0
  189.4850  174.6560  146.7180 C   0  0  0  0  0  1  0  0  0  0  0  0
  191.4780  176.1290  146.7390 C   0  0  0  0  0  2  0  0  0  0  0  0
  195.5880  176.4050  144.1720 C   0  0  0  0  0  2  0  0  0  0  0  0
  195.4770  176.3250  142.7270 N   0  0  0  0  0  1  0  0  0  0  0  0
  1  2  2  0  0  0  0
  1  6  1  0  0  0  0
  2  5  1  0  0  0  0
  3 19  1  0  0  0  0
  4  3  2  0  0  0  0
  5  3  1  0  0  0  0
  6  7  1  6  0  0  0
  6  4  1  0  0  0  0
  7  8  1  0  0  0  0
  8  9  1  0  0  0  0
  9 13  1  0  0  0  0
 10  9  2  0  0  0  0
 11 17  1  0  0  0  0
 12 11  2  0  0  0  0
 13 15  1  0  0  0  0
 14 13  2  0  0  0  0
 14 12  1  0  0  0  0
 15 11  1  0  0  0  0
 17 16  2  0  0  0  0
 17 18  1  0  0  0  0
 21 23  1  0  0  0  0
 22 29  1  6  0  0  0
 23 22  1  0  0  0  0
 23 20  2  0  0  0  0
 24 28  1  1  0  0  0
 24 29  1  0  0  0  0
 25 22  1  0  0  0  0
 26 19  1  1  0  0  0
 26 25  1  0  0  0  0
 26 24  1  0  0  0  0
 27 21  2  0  0  0  0
 27 25  1  0  0  0  0
 30 21  1  0  0  0  0
 31 30  1  0  0  0  0
M  END
>  <MODEL>
5

>  <REMARK>
 VINA RESULT:      -6.8      2.910      6.163
  Name = 
  7 active torsions:
  status: ('A' for Active; 'I' for Inactive)
    1  A    between atoms: C_1  and  C_13
    2  A    between atoms: C_7  and  C_22
    3  A    between atoms: C_8  and  C_10
    4  A    between atoms: N_14  and  C_24
    5  A    between atoms: C_20  and  O_29
    6  A    between atoms: C_23  and  O_29
    7  A    between atoms: C_24  and  C_31
                            x       y       z     vdW  Elec       q    Type
                         _______ _______ _______ _____ _____    ______ ____

>  <TORSDO>
F 7

$$$$
=
 OpenBabel11062421273D

 31 34  0  0  1  0  0  0  0  0999 V2000
  184.4840  178.6140  145.9280 C   0  0  0  0  0  3  0  0  0  0  0  0
  184.6760  177.9620  147.0840 C   0  0  0  0  0  3  0  0  0  0  0  0
  187.0780  177.7030  146.5240 C   0  0  0  0  0  0  0  0  0  0  0  0
  186.8540  178.3360  145.4080 N   0  0  0  0  0  0  0  0  0  0  0  0
  186.0690  177.8060  147.6450 C   0  0  0  0  0  2  0  0  0  0  0  0
  185.6740  179.1890  145.2040 C   0  0  1  0  0  3  0  0  0  0  0  0
  185.3640  179.3680  143.7190 C   0  0  0  0  0  2  0  0  0  0  0  0
  183.9670  179.0670  143.4380 N   0  0  0  0  0  2  0  0  0  0  0  0
  183.5730  178.4750  142.1970 C   0  0  0  0  0  0  0  0  0  0  0  0
  184.4250  177.8950  141.4700 O   0  0  0  0  0  0  0  0  0  0  0  0
  179.9740  178.3350  140.7290 C   0  0  0  0  0  0  0  0  0  0  0  0
  179.9760  179.0250  141.9370 C   0  0  0  0  0  3  0  0  0  0  0  0
  182.1670  178.5170  141.7890 C   0  0  0  0  0  0  0  0  0  0  0  0
  181.2060  179.1270  142.5140 N   0  0  0  0  0  0  0  0  0  0  0  0
  181.5470  177.8430  140.3770 S   0  0  0  0  0  0  0  0  0  0  0  0
  178.3670  178.9490  139.1060 O   0  0  0  0  0  0  0  0  0  0  0  0
  178.7950  178.0700  139.8990 C   0  0  0  0  0  0  0  0  0  0  0  0
  178.1290  176.8540  139.9960 O   0  0  0  0  0  1  0  0  0  0  0  0
  188.2640  176.9590  146.6420 O   0  0  0  0  0  0  0  0  0  0  0  0
  191.1890  173.7000  142.7940 O   0  0  0  0  0  0  0  0  0  0  0  0
  189.1060  174.9190  142.6800 C   0  0  0  0  0  0  0  0  0  0  0  0
  190.1950  174.6960  144.7900 C   0  0  2  0  0  3  0  0  0  0  0  0
  190.2750  174.3710  143.3450 C   0  0  0  0  0  0  0  0  0  0  0  0
  190.6970  176.6710  146.1130 C   0  0  1  0  0  3  0  0  0  0  0  0
  189.0110  175.5340  144.8570 N   0  0  0  0  0  0  0  0  0  0  0  0
  189.2450  176.7430  145.6200 C   0  0  1  0  0  3  0  0  0  0  0  0
  188.3990  175.5970  143.5660 C   0  0  0  0  0  3  0  0  0  0  0  0
  190.8220  176.2910  147.5800 C   0  0  0  0  0  1  0  0  0  0  0  0
  191.3420  175.5780  145.2630 C   0  0  0  0  0  2  0  0  0  0  0  0
  188.7460  174.7610  141.2450 C   0  0  0  0  0  2  0  0  0  0  0  0
  188.2950  173.4040  141.0000 N   0  0  0  0  0  1  0  0  0  0  0  0
  1  2  2  0  0  0  0
  2  5  1  0  0  0  0
  3 19  1  0  0  0  0
  3  5  1  0  0  0  0
  4  3  2  0  0  0  0
  6  7  1  6  0  0  0
  6  4  1  0  0  0  0
  6  1  1  0  0  0  0
  8  7  1  0  0  0  0
  9  8  1  0  0  0  0
 10  9  2  0  0  0  0
 11 12  2  0  0  0  0
 12 14  1  0  0  0  0
 13  9  1  0  0  0  0
 13 14  2  0  0  0  0
 15 11  1  0  0  0  0
 15 13  1  0  0  0  0
 16 17  2  0  0  0  0
 17 18  1  0  0  0  0
 17 11  1  0  0  0  0
 20 23  2  0  0  0  0
 21 23  1  0  0  0  0
 21 27  2  0  0  0  0
 22 25  1  0  0  0  0
 22 29  1  6  0  0  0
 23 22  1  0  0  0  0
 24 28  1  1  0  0  0
 25 26  1  0  0  0  0
 26 24  1  0  0  0  0
 26 19  1  1  0  0  0
 27 25  1  0  0  0  0
 29 24  1  0  0  0  0
 30 21  1  0  0  0  0
 31 30  1  0  0  0  0
M  END
>  <MODEL>
6

>  <REMARK>
 VINA RESULT:      -6.8      3.373      7.336
  Name = 
  7 active torsions:
  status: ('A' for Active; 'I' for Inactive)
    1  A    between atoms: C_1  and  C_13
    2  A    between atoms: C_7  and  C_22
    3  A    between atoms: C_8  and  C_10
    4  A    between atoms: N_14  and  C_24
    5  A    between atoms: C_20  and  O_29
    6  A    between atoms: C_23  and  O_29
    7  A    between atoms: C_24  and  C_31
                            x       y       z     vdW  Elec       q    Type
                         _______ _______ _______ _____ _____    ______ ____

>  <TORSDO>
F 7

$$$$
=
 OpenBabel11062421273D

 31 34  0  0  1  0  0  0  0  0999 V2000
  189.2510  172.6190  142.7960 C   0  0  0  0  0  3  0  0  0  0  0  0
  188.5140  172.6030  141.6760 C   0  0  0  0  0  3  0  0  0  0  0  0
  187.9430  174.9900  142.0360 C   0  0  0  0  0  0  0  0  0  0  0  0
  188.6650  174.9670  143.1200 N   0  0  0  0  0  0  0  0  0  0  0  0
  188.1270  173.9000  141.0050 C   0  0  0  0  0  2  0  0  0  0  0  0
  189.6890  173.9420  143.3680 C   0  0  1  0  0  3  0  0  0  0  0  0
  189.9950  173.8080  144.8590 C   0  0  0  0  0  2  0  0  0  0  0  0
  191.4280  173.8910  145.1060 N   0  0  0  0  0  2  0  0  0  0  0  0
  192.1070  175.1500  145.1040 C   0  0  0  0  0  0  0  0  0  0  0  0
  191.4560  176.2240  145.2300 O   0  0  0  0  0  0  0  0  0  0  0  0
  195.9160  175.2380  144.3230 C   0  0  0  0  0  0  0  0  0  0  0  0
  195.7050  175.2650  145.6970 C   0  0  0  0  0  3  0  0  0  0  0  0
  193.5660  175.1860  144.9880 C   0  0  0  0  0  0  0  0  0  0  0  0
  194.3910  175.2280  146.0560 N   0  0  0  0  0  0  0  0  0  0  0  0
  194.4250  175.1640  143.5410 S   0  0  0  0  0  0  0  0  0  0  0  0
  197.9410  174.2420  143.6150 O   0  0  0  0  0  1  0  0  0  0  0  0
  197.2230  175.2750  143.6580 C   0  0  0  0  0  0  0  0  0  0  0  0
  197.6860  176.4550  143.0900 O   0  0  0  0  0  0  0  0  0  0  0  0
  187.0300  176.0440  141.8640 O   0  0  0  0  0  0  0  0  0  0  0  0
  184.1140  179.0850  145.8950 O   0  0  0  0  0  0  0  0  0  0  0  0
  185.7390  177.3020  146.0260 C   0  0  0  0  0  0  0  0  0  0  0  0
  184.8540  177.8960  143.8930 C   0  0  2  0  0  3  0  0  0  0  0  0
  184.8310  178.2050  145.3440 C   0  0  0  0  0  0  0  0  0  0  0  0
  186.3570  178.4500  142.0660 C   0  0  1  0  0  3  0  0  0  0  0  0
  185.8890  176.8800  143.8070 N   0  0  0  0  0  0  0  0  0  0  0  0
  186.8340  177.1580  142.7440 C   0  0  1  0  0  3  0  0  0  0  0  0
  186.3480  176.5560  145.1210 C   0  0  0  0  0  3  0  0  0  0  0  0
  185.6590  178.2160  140.7350 C   0  0  0  0  0  1  0  0  0  0  0  0
  185.3570  179.0580  143.0470 C   0  0  0  0  0  2  0  0  0  0  0  0
  185.9660  177.2120  147.4940 C   0  0  0  0  0  2  0  0  0  0  0  0
  186.5250  178.4610  147.9800 N   0  0  0  0  0  1  0  0  0  0  0  0
  1  6  1  0  0  0  0
  2  1  2  0  0  0  0
  3  4  2  0  0  0  0
  4  6  1  0  0  0  0
  5  2  1  0  0  0  0
  5  3  1  0  0  0  0
  6  7  1  1  0  0  0
  7  8  1  0  0  0  0
  9  8  1  0  0  0  0
  9 10  2  0  0  0  0
 11 12  2  0  0  0  0
 12 14  1  0  0  0  0
 13  9  1  0  0  0  0
 13 14  2  0  0  0  0
 15 11  1  0  0  0  0
 15 13  1  0  0  0  0
 16 17  1  0  0  0  0
 17 11  1  0  0  0  0
 18 17  2  0  0  0  0
 19  3  1  0  0  0  0
 21 30  1  0  0  0  0
 22 29  1  6  0  0  0
 22 23  1  0  0  0  0
 23 20  2  0  0  0  0
 23 21  1  0  0  0  0
 24 28  1  6  0  0  0
 24 26  1  0  0  0  0
 24 29  1  0  0  0  0
 25 22  1  0  0  0  0
 25 27  1  0  0  0  0
 26 19  1  6  0  0  0
 26 25  1  0  0  0  0
 27 21  2  0  0  0  0
 30 31  1  0  0  0  0
M  END
>  <MODEL>
7

>  <REMARK>
 VINA RESULT:      -6.6      3.404      5.930
  Name = 
  7 active torsions:
  status: ('A' for Active; 'I' for Inactive)
    1  A    between atoms: C_1  and  C_13
    2  A    between atoms: C_7  and  C_22
    3  A    between atoms: C_8  and  C_10
    4  A    between atoms: N_14  and  C_24
    5  A    between atoms: C_20  and  O_29
    6  A    between atoms: C_23  and  O_29
    7  A    between atoms: C_24  and  C_31
                            x       y       z     vdW  Elec       q    Type
                         _______ _______ _______ _____ _____    ______ ____

>  <TORSDO>
F 7

$$$$
=
 OpenBabel11062421273D

 31 34  0  0  1  0  0  0  0  0999 V2000
  190.6470  175.3520  147.5460 C   0  0  0  0  0  3  0  0  0  0  0  0
  191.8930  175.0300  147.1700 C   0  0  0  0  0  3  0  0  0  0  0  0
  191.8010  176.7840  145.4180 C   0  0  0  0  0  0  0  0  0  0  0  0
  190.5910  177.0660  145.8090 N   0  0  0  0  0  0  0  0  0  0  0  0
  192.7050  175.9910  146.3360 C   0  0  0  0  0  2  0  0  0  0  0  0
  190.0750  176.6820  147.1300 C   0  0  1  0  0  3  0  0  0  0  0  0
  188.5480  176.6380  147.1420 C   0  0  0  0  0  2  0  0  0  0  0  0
  188.0020  177.1730  145.9020 N   0  0  0  0  0  2  0  0  0  0  0  0
  186.6740  177.7030  145.8470 C   0  0  0  0  0  0  0  0  0  0  0  0
  186.0770  178.0330  146.9080 O   0  0  0  0  0  0  0  0  0  0  0  0
  185.3760  178.1210  142.2050 C   0  0  0  0  0  0  0  0  0  0  0  0
  184.3330  178.2850  143.1100 C   0  0  0  0  0  3  0  0  0  0  0  0
  186.0240  177.8910  144.5490 C   0  0  0  0  0  0  0  0  0  0  0  0
  184.7080  178.1620  144.4150 N   0  0  0  0  0  0  0  0  0  0  0  0
  186.7980  177.8180  143.0560 S   0  0  0  0  0  0  0  0  0  0  0  0
  186.2310  177.8710  140.0130 O   0  0  0  0  0  0  0  0  0  0  0  0
  185.2580  178.1940  140.7450 C   0  0  0  0  0  0  0  0  0  0  0  0
  184.0790  178.6380  140.1590 O   0  0  0  0  0  1  0  0  0  0  0  0
  192.2210  177.2440  144.1590 O   0  0  0  0  0  0  0  0  0  0  0  0
  191.2940  172.5050  140.8940 O   0  0  0  0  0  0  0  0  0  0  0  0
  189.8410  174.2430  141.7310 C   0  0  0  0  0  0  0  0  0  0  0  0
  192.0970  174.1600  142.5010 C   0  0  2  0  0  3  0  0  0  0  0  0
  191.0960  173.5230  141.6100 C   0  0  0  0  0  0  0  0  0  0  0  0
  193.5130  176.1260  142.3250 C   0  0  1  0  0  3  0  0  0  0  0  0
  191.3730  175.3110  143.0110 N   0  0  0  0  0  0  0  0  0  0  0  0
  192.1560  176.5270  142.9200 C   0  0  1  0  0  3  0  0  0  0  0  0
  190.0260  175.2770  142.5320 C   0  0  0  0  0  3  0  0  0  0  0  0
  194.6290  176.0510  143.3550 C   0  0  0  0  0  1  0  0  0  0  0  0
  193.2850  174.7330  141.7420 C   0  0  0  0  0  2  0  0  0  0  0  0
  188.5520  173.8970  141.0730 C   0  0  0  0  0  2  0  0  0  0  0  0
  187.4660  174.0230  142.0270 N   0  0  0  0  0  1  0  0  0  0  0  0
  2  1  2  0  0  0  0
  3  4  2  0  0  0  0
  3  5  1  0  0  0  0
  4  6  1  0  0  0  0
  5  2  1  0  0  0  0
  6  7  1  6  0  0  0
  6  1  1  0  0  0  0
  8  7  1  0  0  0  0
  9  8  1  0  0  0  0
  9 10  2  0  0  0  0
 11 15  1  0  0  0  0
 11 12  2  0  0  0  0
 12 14  1  0  0  0  0
 13  9  1  0  0  0  0
 14 13  2  0  0  0  0
 15 13  1  0  0  0  0
 16 17  2  0  0  0  0
 17 11  1  0  0  0  0
 18 17  1  0  0  0  0
 19  3  1  0  0  0  0
 20 23  2  0  0  0  0
 21 27  2  0  0  0  0
 22 29  1  6  0  0  0
 22 25  1  0  0  0  0
 23 21  1  0  0  0  0
 23 22  1  0  0  0  0
 24 26  1  0  0  0  0
 24 28  1  1  0  0  0
 26 25  1  0  0  0  0
 26 19  1  1  0  0  0
 27 25  1  0  0  0  0
 29 24  1  0  0  0  0
 30 21  1  0  0  0  0
 30 31  1  0  0  0  0
M  END
>  <MODEL>
8

>  <REMARK>
 VINA RESULT:      -6.5      2.636      7.623
  Name = 
  7 active torsions:
  status: ('A' for Active; 'I' for Inactive)
    1  A    between atoms: C_1  and  C_13
    2  A    between atoms: C_7  and  C_22
    3  A    between atoms: C_8  and  C_10
    4  A    between atoms: N_14  and  C_24
    5  A    between atoms: C_20  and  O_29
    6  A    between atoms: C_23  and  O_29
    7  A    between atoms: C_24  and  C_31
                            x       y       z     vdW  Elec       q    Type
                         _______ _______ _______ _____ _____    ______ ____

>  <TORSDO>
F 7

$$$$
=
 OpenBabel11062421273D

 31 34  0  0  1  0  0  0  0  0999 V2000
  185.5400  178.4780  146.7430 C   0  0  0  0  0  3  0  0  0  0  0  0
  184.9200  179.0960  145.7270 C   0  0  0  0  0  3  0  0  0  0  0  0
  185.3490  177.1240  144.2850 C   0  0  0  0  0  0  0  0  0  0  0  0
  185.9470  176.5570  145.2930 N   0  0  0  0  0  0  0  0  0  0  0  0
  184.4340  178.3010  144.5390 C   0  0  0  0  0  2  0  0  0  0  0  0
  185.7370  176.9860  146.6830 C   0  0  1  0  0  3  0  0  0  0  0  0
  186.8990  176.5610  147.5800 C   0  0  0  0  0  2  0  0  0  0  0  0
  188.1280  176.4240  146.8100 N   0  0  0  0  0  2  0  0  0  0  0  0
  189.0280  175.3370  147.0410 C   0  0  0  0  0  0  0  0  0  0  0  0
  188.6360  174.3060  147.6540 O   0  0  0  0  0  0  0  0  0  0  0  0
  192.6660  175.9940  145.8340 C   0  0  0  0  0  0  0  0  0  0  0  0
  192.3110  174.6710  145.5960 C   0  0  0  0  0  3  0  0  0  0  0  0
  190.4000  175.4120  146.5340 C   0  0  0  0  0  0  0  0  0  0  0  0
  191.0420  174.3600  145.9840 N   0  0  0  0  0  0  0  0  0  0  0  0
  191.3630  176.7920  146.5430 S   0  0  0  0  0  0  0  0  0  0  0  0
  194.5600  177.3000  146.3840 O   0  0  0  0  0  1  0  0  0  0  0  0
  193.9660  176.5980  145.5250 C   0  0  0  0  0  0  0  0  0  0  0  0
  194.5430  176.4170  144.2730 O   0  0  0  0  0  0  0  0  0  0  0  0
  185.5690  176.6050  142.9980 O   0  0  0  0  0  0  0  0  0  0  0  0
  191.3800  176.3030  142.6360 O   0  0  0  0  0  0  0  0  0  0  0  0
  189.6440  174.6280  142.7510 C   0  0  0  0  0  0  0  0  0  0  0  0
  189.0590  176.9160  143.0860 C   0  0  2  0  0  3  0  0  0  0  0  0
  190.1720  175.9800  142.7910 C   0  0  0  0  0  0  0  0  0  0  0  0
  187.2970  177.9260  141.7520 C   0  0  1  0  0  3  0  0  0  0  0  0
  187.9030  176.0360  143.0850 N   0  0  0  0  0  0  0  0  0  0  0  0
  186.8150  176.5720  142.2910 C   0  0  1  0  0  3  0  0  0  0  0  0
  188.3340  174.6840  142.9090 C   0  0  0  0  0  3  0  0  0  0  0  0
  186.7090  179.1170  142.4920 C   0  0  0  0  0  1  0  0  0  0  0  0
  188.8090  177.9120  141.9620 C   0  0  0  0  0  2  0  0  0  0  0  0
  190.4250  173.3750  142.5630 C   0  0  0  0  0  2  0  0  0  0  0  0
  189.6980  172.4720  141.6910 N   0  0  0  0  0  1  0  0  0  0  0  0
  2  1  2  0  0  0  0
  3  5  1  0  0  0  0
  3  4  2  0  0  0  0
  4  6  1  0  0  0  0
  5  2  1  0  0  0  0
  6  1  1  0  0  0  0
  6  7  1  1  0  0  0
  8  9  1  0  0  0  0
  8  7  1  0  0  0  0
  9 10  2  0  0  0  0
 11 15  1  0  0  0  0
 12 11  2  0  0  0  0
 12 14  1  0  0  0  0
 13 15  1  0  0  0  0
 13  9  1  0  0  0  0
 14 13  2  0  0  0  0
 17 11  1  0  0  0  0
 17 16  1  0  0  0  0
 18 17  2  0  0  0  0
 19  3  1  0  0  0  0
 20 23  2  0  0  0  0
 21 23  1  0  0  0  0
 21 27  2  0  0  0  0
 22 29  1  6  0  0  0
 23 22  1  0  0  0  0
 24 29  1  0  0  0  0
 24 26  1  0  0  0  0
 24 28  1  1  0  0  0
 25 22  1  0  0  0  0
 26 19  1  1  0  0  0
 26 25  1  0  0  0  0
 27 25  1  0  0  0  0
 30 21  1  0  0  0  0
 31 30  1  0  0  0  0
M  END
>  <MODEL>
9

>  <REMARK>
 VINA RESULT:      -6.5      2.643      5.161
  Name = 
  7 active torsions:
  status: ('A' for Active; 'I' for Inactive)
    1  A    between atoms: C_1  and  C_13
    2  A    between atoms: C_7  and  C_22
    3  A    between atoms: C_8  and  C_10
    4  A    between atoms: N_14  and  C_24
    5  A    between atoms: C_20  and  O_29
    6  A    between atoms: C_23  and  O_29
    7  A    between atoms: C_24  and  C_31
                            x       y       z     vdW  Elec       q    Type
                         _______ _______ _______ _____ _____    ______ ____

>  <TORSDO>
F 7

$$$$
