=
 OpenBabel11062422273D

 36 41  0  0  1  0  0  0  0  0999 V2000
  188.7740  177.6520  142.2320 O   0  0  0  0  0  0  0  0  0  0  0  0
  188.2130  176.3090  145.5380 C   0  0  2  0  0  3  0  0  0  0  0  0
  189.5870  175.6920  143.1570 O   0  0  0  0  0  0  0  0  0  0  0  0
  188.5890  177.4520  144.5700 C   0  0  2  0  0  3  0  0  0  0  0  0
  187.5330  178.1210  142.6230 C   0  0  0  0  0  0  0  0  0  0  0  0
  191.1050  178.7860  143.7020 O   0  0  0  0  0  0  0  0  0  0  0  0
  187.3590  177.9980  143.9210 C   0  0  0  0  0  0  0  0  0  0  0  0
  190.8960  175.4840  142.6580 C   0  0  1  0  0  3  0  0  0  0  0  0
  187.5930  177.8210  147.5010 C   0  0  0  0  0  1  0  0  0  0  0  0
  189.4600  177.0840  143.3420 C   0  0  2  0  0  0  0  0  0  0  0  0
  192.4410  176.2210  144.3680 O   0  0  0  0  0  1  0  0  0  0  0  0
  191.8220  176.5880  143.1690 C   0  0  2  0  0  3  0  0  0  0  0  0
  187.0990  176.7670  146.5150 C   0  0  1  0  0  3  0  0  0  0  0  0
  185.9130  177.3030  145.7600 C   0  0  0  0  0  0  0  0  0  0  0  0
  190.8310  177.6240  143.4480 C   0  0  0  0  0  0  0  0  0  0  0  0
  184.7850  176.9660  146.0820 O   0  0  0  0  0  0  0  0  0  0  0  0
  186.1030  178.3150  144.6640 C   0  0  0  0  0  2  0  0  0  0  0  0
  189.6140  174.3070  146.0060 C   0  0  0  0  0  2  0  0  0  0  0  0
  189.0460  174.7540  147.3280 C   0  0  0  0  0  2  0  0  0  0  0  0
  189.4440  175.7880  146.2870 C   0  0  0  0  0  3  0  0  0  0  0  0
  191.3950  174.0770  142.9650 C   0  0  0  0  0  2  0  0  0  0  0  0
  191.6760  173.3700  141.7270 N   0  0  0  0  0  0  0  0  0  0  0  0
  191.0120  171.4100  140.4150 C   0  0  1  0  0  0  0  0  0  0  0  0
  192.3350  171.7160  139.6950 C   0  0  0  0  0  2  0  0  0  0  0  0
  190.8890  169.9150  140.6310 C   0  0  0  0  0  1  0  0  0  0  0  0
  193.1110  173.0690  141.7070 C   0  0  0  0  0  2  0  0  0  0  0  0
  193.4780  171.9820  140.6790 C   0  0  0  0  0  2  0  0  0  0  0  0
  190.9320  172.1160  141.7730 C   0  0  0  0  0  2  0  0  0  0  0  0
  189.9050  171.8630  139.5890 N   0  0  0  0  0  0  0  0  0  0  0  0
  189.0630  171.6730  138.5020 O   0  0  0  0  0  0  0  0  0  0  0  0
  188.3380  173.8990  139.5410 O   0  0  0  0  0  0  0  0  0  0  0  0
  188.9210  172.8120  139.2880 C   0  0  0  0  0  0  0  0  0  0  0  0
  186.5700  178.6410  141.7530 O   0  0  0  0  0  0  0  0  0  0  0  0
  186.7170  177.1080  139.9060 O   0  0  0  0  0  0  0  0  0  0  0  0
  184.6960  177.9380  140.5830 O   0  0  0  0  0  1  0  0  0  0  0  0
  185.9450  177.8980  140.7460 C   0  0  0  0  0  0  0  0  0  0  0  0
  1  5  1  0  0  0  0
  2 20  1  1  0  0  0
  2 13  1  0  0  0  0
  3 10  1  0  0  0  0
  4  7  1  6  0  0  0
  4  2  1  0  0  0  0
  5  7  2  0  0  0  0
  7 17  1  0  0  0  0
  8 21  1  1  0  0  0
  8  3  1  0  0  0  0
  8 12  1  0  0  0  0
 10  1  1  6  0  0  0
 10 15  1  0  0  0  0
 10  4  1  0  0  0  0
 12 15  1  0  0  0  0
 12 11  1  1  0  0  0
 13  9  1  1  0  0  0
 14 16  2  0  0  0  0
 14 13  1  0  0  0  0
 15  6  2  0  0  0  0
 17 14  1  0  0  0  0
 18 20  1  0  0  0  0
 18 19  1  0  0  0  0
 20 19  1  0  0  0  0
 22 28  1  0  0  0  0
 22 21  1  0  0  0  0
 23 25  1  1  0  0  0
 23 28  1  0  0  0  0
 24 23  1  0  0  0  0
 24 27  1  0  0  0  0
 26 22  1  0  0  0  0
 27 26  1  0  0  0  0
 29 23  1  0  0  0  0
 30 32  1  0  0  0  0
 30 29  1  0  0  0  0
 32 31  2  0  0  0  0
 32 29  1  0  0  0  0
 33  5  1  0  0  0  0
 34 36  2  0  0  0  0
 35 36  1  0  0  0  0
 36 33  1  0  0  0  0
M  END
>  <MODEL>
1

>  <REMARK>
 VINA RESULT:      -8.1      0.000      0.000
  Name = 
  6 active torsions:
  status: ('A' for Active; 'I' for Inactive)
    1  A    between atoms: C_4  and  C_33
    2  A    between atoms: N_7  and  C_10
    3  A    between atoms: N_9  and  C_19
    4  A    between atoms: C_11  and  O_25
    5  A    between atoms: C_16  and  C_19
    6  A    between atoms: O_25  and  C_35
                            x       y       z     vdW  Elec       q    Type
                         _______ _______ _______ _____ _____    ______ ____

>  <TORSDO>
F 6

$$$$
=
 OpenBabel11062422273D

 36 41  0  0  1  0  0  0  0  0999 V2000
  188.7560  177.5510  142.1560 O   0  0  0  0  0  0  0  0  0  0  0  0
  188.1940  176.3250  145.5060 C   0  0  2  0  0  3  0  0  0  0  0  0
  189.4850  175.5760  143.1170 O   0  0  0  0  0  0  0  0  0  0  0  0
  188.6080  177.4210  144.5020 C   0  0  2  0  0  3  0  0  0  0  0  0
  187.5500  178.0940  142.5580 C   0  0  0  0  0  0  0  0  0  0  0  0
  191.1730  178.5990  143.5510 O   0  0  0  0  0  0  0  0  0  0  0  0
  187.3960  178.0140  143.8620 C   0  0  0  0  0  0  0  0  0  0  0  0
  190.7720  175.2870  142.5990 C   0  0  1  0  0  3  0  0  0  0  0  0
  187.6930  177.9160  147.4400 C   0  0  0  0  0  1  0  0  0  0  0  0
  189.4350  176.9770  143.2670 C   0  0  2  0  0  0  0  0  0  0  0  0
  192.3870  175.9850  144.2590 O   0  0  0  0  0  1  0  0  0  0  0  0
  191.7630  176.3530  143.0630 C   0  0  2  0  0  3  0  0  0  0  0  0
  187.1250  176.8650  146.4920 C   0  0  1  0  0  3  0  0  0  0  0  0
  185.9530  177.4430  145.7460 C   0  0  0  0  0  0  0  0  0  0  0  0
  190.8330  177.4470  143.3330 C   0  0  0  0  0  0  0  0  0  0  0  0
  184.8160  177.1740  146.0980 O   0  0  0  0  0  0  0  0  0  0  0  0
  186.1730  178.4150  144.6200 C   0  0  0  0  0  2  0  0  0  0  0  0
  189.5390  174.2780  145.9440 C   0  0  0  0  0  2  0  0  0  0  0  0
  188.9860  174.7220  147.2740 C   0  0  0  0  0  2  0  0  0  0  0  0
  189.4110  175.7590  146.2450 C   0  0  0  0  0  3  0  0  0  0  0  0
  191.2020  173.8640  142.9340 C   0  0  0  0  0  2  0  0  0  0  0  0
  191.3530  173.0910  141.7130 N   0  0  0  0  0  0  0  0  0  0  0  0
  190.9000  173.1550  139.3060 C   0  0  1  0  0  0  0  0  0  0  0  0
  191.1780  171.6480  139.4350 C   0  0  0  0  0  2  0  0  0  0  0  0
  189.7010  173.3710  138.4040 C   0  0  0  0  0  1  0  0  0  0  0  0
  190.7250  171.7850  141.9370 C   0  0  0  0  0  2  0  0  0  0  0  0
  190.4420  171.0280  140.6250 C   0  0  0  0  0  2  0  0  0  0  0  0
  190.6170  173.7960  140.6690 C   0  0  0  0  0  2  0  0  0  0  0  0
  192.0600  173.8040  138.7180 N   0  0  0  0  0  0  0  0  0  0  0  0
  192.7700  174.2040  137.5940 O   0  0  0  0  0  0  0  0  0  0  0  0
  194.1920  174.9390  139.5930 O   0  0  0  0  0  0  0  0  0  0  0  0
  193.2860  174.4630  138.8600 C   0  0  0  0  0  0  0  0  0  0  0  0
  186.5970  178.6420  141.6920 O   0  0  0  0  0  0  0  0  0  0  0  0
  186.6920  177.1750  139.7890 O   0  0  0  0  0  0  0  0  0  0  0  0
  184.6860  177.9270  140.5920 O   0  0  0  0  0  1  0  0  0  0  0  0
  185.9420  177.9160  140.6920 C   0  0  0  0  0  0  0  0  0  0  0  0
  1  5  1  0  0  0  0
  2 20  1  1  0  0  0
  2 13  1  0  0  0  0
  3 10  1  0  0  0  0
  4  7  1  6  0  0  0
  4  2  1  0  0  0  0
  5  7  2  0  0  0  0
  7 17  1  0  0  0  0
  8 21  1  1  0  0  0
  8 12  1  0  0  0  0
  8  3  1  0  0  0  0
 10  1  1  6  0  0  0
 10 15  1  0  0  0  0
 10  4  1  0  0  0  0
 12 15  1  0  0  0  0
 12 11  1  1  0  0  0
 13  9  1  6  0  0  0
 14 16  2  0  0  0  0
 14 13  1  0  0  0  0
 15  6  2  0  0  0  0
 17 14  1  0  0  0  0
 18 20  1  0  0  0  0
 18 19  1  0  0  0  0
 20 19  1  0  0  0  0
 22 26  1  0  0  0  0
 22 21  1  0  0  0  0
 23 25  1  6  0  0  0
 23 24  1  0  0  0  0
 23 28  1  0  0  0  0
 24 27  1  0  0  0  0
 27 26  1  0  0  0  0
 28 22  1  0  0  0  0
 29 32  1  0  0  0  0
 29 23  1  0  0  0  0
 30 29  1  0  0  0  0
 30 32  1  0  0  0  0
 32 31  2  0  0  0  0
 33  5  1  0  0  0  0
 34 36  2  0  0  0  0
 35 36  1  0  0  0  0
 36 33  1  0  0  0  0
M  END
>  <MODEL>
2

>  <REMARK>
 VINA RESULT:      -8.0      1.483      1.929
  Name = 
  6 active torsions:
  status: ('A' for Active; 'I' for Inactive)
    1  A    between atoms: C_4  and  C_33
    2  A    between atoms: N_7  and  C_10
    3  A    between atoms: N_9  and  C_19
    4  A    between atoms: C_11  and  O_25
    5  A    between atoms: C_16  and  C_19
    6  A    between atoms: O_25  and  C_35
                            x       y       z     vdW  Elec       q    Type
                         _______ _______ _______ _____ _____    ______ ____

>  <TORSDO>
F 6

$$$$
=
 OpenBabel11062422273D

 36 41  0  0  1  0  0  0  0  0999 V2000
  188.2730  177.7270  142.2510 O   0  0  0  0  0  0  0  0  0  0  0  0
  188.0200  176.4110  145.6050 C   0  0  2  0  0  3  0  0  0  0  0  0
  189.0360  175.7030  143.0740 O   0  0  0  0  0  0  0  0  0  0  0  0
  188.3630  177.5260  144.5950 C   0  0  2  0  0  3  0  0  0  0  0  0
  187.1310  178.2890  142.7910 C   0  0  0  0  0  0  0  0  0  0  0  0
  190.8500  178.6630  143.4170 O   0  0  0  0  0  0  0  0  0  0  0  0
  187.1090  178.1720  144.1010 C   0  0  0  0  0  0  0  0  0  0  0  0
  190.2530  175.3950  142.4180 C   0  0  1  0  0  3  0  0  0  0  0  0
  187.7700  177.9530  147.6250 C   0  0  0  0  0  1  0  0  0  0  0  0
  189.0440  177.0990  143.2690 C   0  0  2  0  0  0  0  0  0  0  0  0
  192.0510  175.9960  143.9210 O   0  0  0  0  0  1  0  0  0  0  0  0
  191.3190  176.4190  142.8070 C   0  0  2  0  0  3  0  0  0  0  0  0
  187.0760  176.9480  146.7110 C   0  0  1  0  0  3  0  0  0  0  0  0
  185.8520  177.5820  146.1070 C   0  0  0  0  0  0  0  0  0  0  0  0
  190.4550  177.5280  143.2030 C   0  0  0  0  0  0  0  0  0  0  0  0
  184.7490  177.3320  146.5670 O   0  0  0  0  0  0  0  0  0  0  0  0
  185.9840  178.5820  144.9930 C   0  0  0  0  0  2  0  0  0  0  0  0
  189.3200  174.3060  145.8780 C   0  0  0  0  0  2  0  0  0  0  0  0
  188.9410  174.7620  147.2640 C   0  0  0  0  0  2  0  0  0  0  0  0
  189.2890  175.7890  146.1980 C   0  0  0  0  0  3  0  0  0  0  0  0
  190.6720  173.9510  142.6660 C   0  0  0  0  0  2  0  0  0  0  0  0
  190.3460  173.1350  141.5090 N   0  0  0  0  0  0  0  0  0  0  0  0
  190.8080  172.8830  139.1160 C   0  0  1  0  0  0  0  0  0  0  0  0
  189.5530  171.9980  139.1890 C   0  0  0  0  0  2  0  0  0  0  0  0
  190.7430  173.7480  137.8720 C   0  0  0  0  0  1  0  0  0  0  0  0
  188.8860  173.1340  141.3680 C   0  0  0  0  0  2  0  0  0  0  0  0
  188.4220  172.6660  139.9750 C   0  0  0  0  0  2  0  0  0  0  0  0
  190.9310  173.7900  140.3440 C   0  0  0  0  0  2  0  0  0  0  0  0
  191.9860  172.0350  139.0430 N   0  0  0  0  0  0  0  0  0  0  0  0
  193.2470  171.7750  138.5250 O   0  0  0  0  0  0  0  0  0  0  0  0
  192.7340  169.8080  140.0830 O   0  0  0  0  0  0  0  0  0  0  0  0
  192.6750  170.8770  139.4210 C   0  0  0  0  0  0  0  0  0  0  0  0
  186.1120  178.8900  142.0450 O   0  0  0  0  0  0  0  0  0  0  0  0
  183.9020  178.0260  141.6560 O   0  0  0  0  0  1  0  0  0  0  0  0
  185.5800  177.6800  140.1410 O   0  0  0  0  0  0  0  0  0  0  0  0
  185.2160  178.1830  141.2370 C   0  0  0  0  0  0  0  0  0  0  0  0
  1  5  1  0  0  0  0
  2 20  1  1  0  0  0
  2 13  1  0  0  0  0
  3 10  1  0  0  0  0
  4  7  1  6  0  0  0
  4  2  1  0  0  0  0
  5  7  2  0  0  0  0
  7 17  1  0  0  0  0
  8 21  1  1  0  0  0
  8 12  1  0  0  0  0
  8  3  1  0  0  0  0
 10  1  1  6  0  0  0
 10  4  1  0  0  0  0
 12 15  1  0  0  0  0
 12 11  1  1  0  0  0
 13  9  1  6  0  0  0
 14 16  2  0  0  0  0
 14 13  1  0  0  0  0
 15 10  1  0  0  0  0
 15  6  2  0  0  0  0
 17 14  1  0  0  0  0
 18 20  1  0  0  0  0
 18 19  1  0  0  0  0
 20 19  1  0  0  0  0
 22 21  1  0  0  0  0
 23 25  1  6  0  0  0
 23 24  1  0  0  0  0
 23 28  1  0  0  0  0
 24 27  1  0  0  0  0
 26 22  1  0  0  0  0
 27 26  1  0  0  0  0
 28 22  1  0  0  0  0
 29 23  1  0  0  0  0
 29 32  1  0  0  0  0
 30 29  1  0  0  0  0
 30 32  1  0  0  0  0
 32 31  2  0  0  0  0
 33  5  1  0  0  0  0
 35 36  2  0  0  0  0
 36 34  1  0  0  0  0
 36 33  1  0  0  0  0
M  END
>  <MODEL>
3

>  <REMARK>
 VINA RESULT:      -7.7      1.440      2.239
  Name = 
  6 active torsions:
  status: ('A' for Active; 'I' for Inactive)
    1  A    between atoms: C_4  and  C_33
    2  A    between atoms: N_7  and  C_10
    3  A    between atoms: N_9  and  C_19
    4  A    between atoms: C_11  and  O_25
    5  A    between atoms: C_16  and  C_19
    6  A    between atoms: O_25  and  C_35
                            x       y       z     vdW  Elec       q    Type
                         _______ _______ _______ _____ _____    ______ ____

>  <TORSDO>
F 6

$$$$
=
 OpenBabel11062422273D

 36 41  0  0  1  0  0  0  0  0999 V2000
  189.0740  177.5500  142.2660 O   0  0  0  0  0  0  0  0  0  0  0  0
  188.3590  176.2280  145.5500 C   0  0  2  0  0  3  0  0  0  0  0  0
  189.7870  175.5630  143.2150 O   0  0  0  0  0  0  0  0  0  0  0  0
  188.8050  177.3560  144.5970 C   0  0  2  0  0  3  0  0  0  0  0  0
  187.8380  178.0610  142.6170 C   0  0  0  0  0  0  0  0  0  0  0  0
  191.3930  178.6030  143.8130 O   0  0  0  0  0  0  0  0  0  0  0  0
  187.6170  177.9450  143.9080 C   0  0  0  0  0  0  0  0  0  0  0  0
  191.1050  175.3100  142.7590 C   0  0  1  0  0  3  0  0  0  0  0  0
  187.7280  177.7600  147.4940 C   0  0  0  0  0  1  0  0  0  0  0  0
  189.7030  176.9590  143.3970 C   0  0  2  0  0  0  0  0  0  0  0  0
  192.6170  175.9930  144.5190 O   0  0  0  0  0  1  0  0  0  0  0  0
  192.0510  176.3810  143.3010 C   0  0  2  0  0  3  0  0  0  0  0  0
  187.2300  176.7240  146.4910 C   0  0  1  0  0  3  0  0  0  0  0  0
  186.0890  177.3010  145.6980 C   0  0  0  0  0  0  0  0  0  0  0  0
  191.0870  177.4510  143.5480 C   0  0  0  0  0  0  0  0  0  0  0  0
  184.9400  177.0030  145.9830 O   0  0  0  0  0  0  0  0  0  0  0  0
  186.3490  178.3050  144.6110 C   0  0  0  0  0  2  0  0  0  0  0  0
  189.6840  174.1820  146.0490 C   0  0  0  0  0  2  0  0  0  0  0  0
  189.0800  174.6330  147.3540 C   0  0  0  0  0  2  0  0  0  0  0  0
  189.5460  175.6640  146.3380 C   0  0  0  0  0  3  0  0  0  0  0  0
  191.5440  173.8860  143.0810 C   0  0  0  0  0  2  0  0  0  0  0  0
  192.9940  173.8180  143.1420 N   0  0  0  0  0  0  0  0  0  0  0  0
  194.9970  173.7420  141.7340 C   0  0  1  0  0  0  0  0  0  0  0  0
  195.6420  173.2870  143.0530 C   0  0  0  0  0  2  0  0  0  0  0  0
  195.5260  172.8930  140.5950 C   0  0  0  0  0  1  0  0  0  0  0  0
  193.3460  172.6420  143.9460 C   0  0  0  0  0  2  0  0  0  0  0  0
  194.8120  172.2090  143.7570 C   0  0  0  0  0  2  0  0  0  0  0  0
  193.4710  173.6170  141.7790 C   0  0  0  0  0  2  0  0  0  0  0  0
  195.3430  175.1320  141.4900 N   0  0  0  0  0  0  0  0  0  0  0  0
  195.3000  176.2540  140.6740 O   0  0  0  0  0  0  0  0  0  0  0  0
  196.6610  176.9590  142.7260 O   0  0  0  0  0  0  0  0  0  0  0  0
  195.9780  176.3150  141.8880 C   0  0  0  0  0  0  0  0  0  0  0  0
  186.9220  178.6150  141.7160 O   0  0  0  0  0  0  0  0  0  0  0  0
  184.6940  177.7520  141.4380 O   0  0  0  0  0  1  0  0  0  0  0  0
  186.3330  177.2800  139.9140 O   0  0  0  0  0  0  0  0  0  0  0  0
  186.0000  177.8630  140.9800 C   0  0  0  0  0  0  0  0  0  0  0  0
  1  5  1  0  0  0  0
  2 20  1  1  0  0  0
  2 13  1  0  0  0  0
  3 10  1  0  0  0  0
  4  7  1  6  0  0  0
  4  2  1  0  0  0  0
  5  7  2  0  0  0  0
  7 17  1  0  0  0  0
  8 21  1  1  0  0  0
  8  3  1  0  0  0  0
  8 12  1  0  0  0  0
 10  1  1  6  0  0  0
 10 15  1  0  0  0  0
 10  4  1  0  0  0  0
 12 15  1  0  0  0  0
 12 11  1  1  0  0  0
 13  9  1  1  0  0  0
 14 16  2  0  0  0  0
 14 13  1  0  0  0  0
 15  6  2  0  0  0  0
 17 14  1  0  0  0  0
 18 20  1  0  0  0  0
 18 19  1  0  0  0  0
 20 19  1  0  0  0  0
 21 22  1  0  0  0  0
 22 26  1  0  0  0  0
 23 25  1  6  0  0  0
 23 28  1  0  0  0  0
 23 24  1  0  0  0  0
 24 27  1  0  0  0  0
 27 26  1  0  0  0  0
 28 22  1  0  0  0  0
 29 23  1  0  0  0  0
 29 32  1  0  0  0  0
 30 29  1  0  0  0  0
 30 32  1  0  0  0  0
 32 31  2  0  0  0  0
 33  5  1  0  0  0  0
 35 36  2  0  0  0  0
 36 34  1  0  0  0  0
 36 33  1  0  0  0  0
M  END
>  <MODEL>
4

>  <REMARK>
 VINA RESULT:      -7.5      2.118      3.272
  Name = 
  6 active torsions:
  status: ('A' for Active; 'I' for Inactive)
    1  A    between atoms: C_4  and  C_33
    2  A    between atoms: N_7  and  C_10
    3  A    between atoms: N_9  and  C_19
    4  A    between atoms: C_11  and  O_25
    5  A    between atoms: C_16  and  C_19
    6  A    between atoms: O_25  and  C_35
                            x       y       z     vdW  Elec       q    Type
                         _______ _______ _______ _____ _____    ______ ____

>  <TORSDO>
F 6

$$$$
=
 OpenBabel11062422273D

 36 41  0  0  1  0  0  0  0  0999 V2000
  191.3540  174.2690  142.2130 O   0  0  0  0  0  0  0  0  0  0  0  0
  193.7380  175.5180  144.6220 C   0  0  2  0  0  3  0  0  0  0  0  0
  191.0040  175.7290  143.9740 O   0  0  0  0  0  0  0  0  0  0  0  0
  193.0650  174.3790  143.8260 C   0  0  2  0  0  3  0  0  0  0  0  0
  192.5770  174.2690  141.5670 C   0  0  0  0  0  0  0  0  0  0  0  0
  191.0470  172.2660  144.3970 O   0  0  0  0  0  0  0  0  0  0  0  0
  193.5720  174.3670  142.4210 C   0  0  0  0  0  0  0  0  0  0  0  0
  189.7180  175.4690  144.5080 C   0  0  1  0  0  3  0  0  0  0  0  0
  195.8680  174.2250  145.1800 C   0  0  0  0  0  1  0  0  0  0  0  0
  191.5330  174.4740  143.6090 C   0  0  2  0  0  0  0  0  0  0  0  0
  190.0240  174.1100  146.4860 O   0  0  0  0  0  1  0  0  0  0  0  0
  189.6920  174.0720  145.1280 C   0  0  2  0  0  3  0  0  0  0  0  0
  195.2800  175.4450  144.4790 C   0  0  1  0  0  3  0  0  0  0  0  0
  195.6820  175.4320  143.0290 C   0  0  0  0  0  0  0  0  0  0  0  0
  190.7940  173.4600  144.3900 C   0  0  0  0  0  0  0  0  0  0  0  0
  196.5990  176.1420  142.6460 O   0  0  0  0  0  0  0  0  0  0  0  0
  195.0170  174.4920  142.0630 C   0  0  0  0  0  2  0  0  0  0  0  0
  192.5770  176.7910  146.4170 C   0  0  0  0  0  2  0  0  0  0  0  0
  194.0010  176.6020  146.8740 C   0  0  0  0  0  2  0  0  0  0  0  0
  193.3040  175.5000  146.0910 C   0  0  0  0  0  3  0  0  0  0  0  0
  189.2760  176.5700  145.4640 C   0  0  0  0  0  2  0  0  0  0  0  0
  187.8250  176.6500  145.4910 N   0  0  0  0  0  0  0  0  0  0  0  0
  185.9440  178.0630  144.8060 C   0  0  1  0  0  0  0  0  0  0  0  0
  185.1910  177.1650  145.8010 C   0  0  0  0  0  2  0  0  0  0  0  0
  185.5060  179.5020  144.9940 C   0  0  0  0  0  1  0  0  0  0  0  0
  187.4030  176.5260  146.8890 C   0  0  0  0  0  2  0  0  0  0  0  0
  185.9540  177.0000  147.1180 C   0  0  0  0  0  2  0  0  0  0  0  0
  187.4610  177.9760  145.0040 C   0  0  0  0  0  2  0  0  0  0  0  0
  185.6260  177.6430  143.4520 N   0  0  0  0  0  0  0  0  0  0  0  0
  185.9210  176.8750  142.3330 O   0  0  0  0  0  0  0  0  0  0  0  0
  183.8260  178.2100  141.7080 O   0  0  0  0  0  0  0  0  0  0  0  0
  184.8180  177.7240  142.3110 C   0  0  0  0  0  0  0  0  0  0  0  0
  192.7430  174.1960  140.1800 O   0  0  0  0  0  0  0  0  0  0  0  0
  191.7960  172.0360  139.7070 O   0  0  0  0  0  1  0  0  0  0  0  0
  191.4900  173.7910  138.2730 O   0  0  0  0  0  0  0  0  0  0  0  0
  191.9900  173.3620  139.3470 C   0  0  0  0  0  0  0  0  0  0  0  0
  2 20  1  1  0  0  0
  3  8  1  0  0  0  0
  4  7  1  6  0  0  0
  4  2  1  0  0  0  0
  5  1  1  0  0  0  0
  5  7  2  0  0  0  0
  8 12  1  0  0  0  0
  8 21  1  1  0  0  0
 10  1  1  6  0  0  0
 10  4  1  0  0  0  0
 10  3  1  0  0  0  0
 10 15  1  0  0  0  0
 12 11  1  1  0  0  0
 13  2  1  0  0  0  0
 13  9  1  6  0  0  0
 14 13  1  0  0  0  0
 15  6  2  0  0  0  0
 15 12  1  0  0  0  0
 16 14  2  0  0  0  0
 17  7  1  0  0  0  0
 17 14  1  0  0  0  0
 18 19  1  0  0  0  0
 20 18  1  0  0  0  0
 20 19  1  0  0  0  0
 21 22  1  0  0  0  0
 22 26  1  0  0  0  0
 23 25  1  1  0  0  0
 23 28  1  0  0  0  0
 23 24  1  0  0  0  0
 24 27  1  0  0  0  0
 26 27  1  0  0  0  0
 28 22  1  0  0  0  0
 29 23  1  0  0  0  0
 30 29  1  0  0  0  0
 31 32  2  0  0  0  0
 32 30  1  0  0  0  0
 32 29  1  0  0  0  0
 33  5  1  0  0  0  0
 35 36  2  0  0  0  0
 36 34  1  0  0  0  0
 36 33  1  0  0  0  0
M  END
>  <MODEL>
5

>  <REMARK>
 VINA RESULT:      -7.4      3.044      7.396
  Name = 
  6 active torsions:
  status: ('A' for Active; 'I' for Inactive)
    1  A    between atoms: C_4  and  C_33
    2  A    between atoms: N_7  and  C_10
    3  A    between atoms: N_9  and  C_19
    4  A    between atoms: C_11  and  O_25
    5  A    between atoms: C_16  and  C_19
    6  A    between atoms: O_25  and  C_35
                            x       y       z     vdW  Elec       q    Type
                         _______ _______ _______ _____ _____    ______ ____

>  <TORSDO>
F 6

$$$$
=
 OpenBabel11062422273D

 36 41  0  0  1  0  0  0  0  0999 V2000
  192.2270  174.8820  141.2780 O   0  0  0  0  0  0  0  0  0  0  0  0
  191.7180  175.2010  144.8400 C   0  0  2  0  0  3  0  0  0  0  0  0
  190.2370  175.0450  142.4480 O   0  0  0  0  0  0  0  0  0  0  0  0
  192.3570  174.5350  143.6030 C   0  0  2  0  0  3  0  0  0  0  0  0
  193.3510  175.5240  141.7630 C   0  0  0  0  0  0  0  0  0  0  0  0
  191.9340  172.0210  142.0620 O   0  0  0  0  0  0  0  0  0  0  0  0
  193.4550  175.3950  143.0670 C   0  0  0  0  0  0  0  0  0  0  0  0
  189.2760  174.2350  141.7930 C   0  0  1  0  0  3  0  0  0  0  0  0
  193.4630  174.3780  146.5130 C   0  0  0  0  0  1  0  0  0  0  0  0
  191.4590  174.3500  142.3520 C   0  0  2  0  0  0  0  0  0  0  0  0
  189.1300  172.1580  143.0240 O   0  0  0  0  0  1  0  0  0  0  0  0
  189.6880  172.7670  141.8960 C   0  0  2  0  0  3  0  0  0  0  0  0
  192.8080  175.5960  145.8700 C   0  0  1  0  0  3  0  0  0  0  0  0
  193.8640  176.4540  145.2270 C   0  0  0  0  0  0  0  0  0  0  0  0
  191.1230  172.9330  142.1100 C   0  0  0  0  0  0  0  0  0  0  0  0
  194.2610  177.4580  145.7980 O   0  0  0  0  0  0  0  0  0  0  0  0
  194.4920  176.0410  143.9260 C   0  0  0  0  0  2  0  0  0  0  0  0
  189.3160  175.0270  145.4660 C   0  0  0  0  0  2  0  0  0  0  0  0
  190.1050  174.9150  146.7460 C   0  0  0  0  0  2  0  0  0  0  0  0
  190.6480  174.3010  145.4650 C   0  0  0  0  0  3  0  0  0  0  0  0
  187.8680  174.5130  142.3040 C   0  0  0  0  0  2  0  0  0  0  0  0
  187.6300  175.9460  142.3440 N   0  0  0  0  0  0  0  0  0  0  0  0
  186.0700  177.6340  143.1950 C   0  0  1  0  0  0  0  0  0  0  0  0
  186.8130  178.5160  142.1790 C   0  0  0  0  0  2  0  0  0  0  0  0
  184.5830  177.9160  143.1160 C   0  0  0  0  0  1  0  0  0  0  0  0
  187.6150  176.4300  140.9600 C   0  0  0  0  0  2  0  0  0  0  0  0
  186.9730  177.8240  140.8230 C   0  0  0  0  0  2  0  0  0  0  0  0
  186.3070  176.1440  142.9270 C   0  0  0  0  0  2  0  0  0  0  0  0
  186.5420  177.9480  144.5330 N   0  0  0  0  0  0  0  0  0  0  0  0
  187.5490  177.9160  145.4890 O   0  0  0  0  0  0  0  0  0  0  0  0
  185.5590  179.0500  146.6350 O   0  0  0  0  0  0  0  0  0  0  0  0
  186.3180  178.4810  145.8080 C   0  0  0  0  0  0  0  0  0  0  0  0
  194.2580  176.2410  140.9750 O   0  0  0  0  0  0  0  0  0  0  0  0
  196.5490  175.5120  141.0260 O   0  0  0  0  0  1  0  0  0  0  0  0
  195.2890  175.2910  139.1300 O   0  0  0  0  0  0  0  0  0  0  0  0
  195.3580  175.6660  140.3310 C   0  0  0  0  0  0  0  0  0  0  0  0
  1  5  1  0  0  0  0
  2 20  1  1  0  0  0
  2 13  1  0  0  0  0
  4  7  1  6  0  0  0
  4  2  1  0  0  0  0
  5  7  2  0  0  0  0
  6 15  2  0  0  0  0
  7 17  1  0  0  0  0
  8 12  1  0  0  0  0
  8 21  1  1  0  0  0
  8  3  1  0  0  0  0
 10  1  1  6  0  0  0
 10  3  1  0  0  0  0
 10  4  1  0  0  0  0
 12 15  1  0  0  0  0
 12 11  1  1  0  0  0
 13  9  1  6  0  0  0
 14 16  2  0  0  0  0
 14 13  1  0  0  0  0
 15 10  1  0  0  0  0
 17 14  1  0  0  0  0
 18 19  1  0  0  0  0
 20 18  1  0  0  0  0
 20 19  1  0  0  0  0
 21 22  1  0  0  0  0
 22 28  1  0  0  0  0
 23 25  1  6  0  0  0
 23 29  1  0  0  0  0
 24 23  1  0  0  0  0
 26 22  1  0  0  0  0
 27 26  1  0  0  0  0
 27 24  1  0  0  0  0
 28 23  1  0  0  0  0
 29 30  1  0  0  0  0
 29 32  1  0  0  0  0
 30 32  1  0  0  0  0
 32 31  2  0  0  0  0
 33  5  1  0  0  0  0
 35 36  2  0  0  0  0
 36 33  1  0  0  0  0
 36 34  1  0  0  0  0
M  END
>  <MODEL>
6

>  <REMARK>
 VINA RESULT:      -7.4      3.063      7.016
  Name = 
  6 active torsions:
  status: ('A' for Active; 'I' for Inactive)
    1  A    between atoms: C_4  and  C_33
    2  A    between atoms: N_7  and  C_10
    3  A    between atoms: N_9  and  C_19
    4  A    between atoms: C_11  and  O_25
    5  A    between atoms: C_16  and  C_19
    6  A    between atoms: O_25  and  C_35
                            x       y       z     vdW  Elec       q    Type
                         _______ _______ _______ _____ _____    ______ ____

>  <TORSDO>
F 6

$$$$
=
 OpenBabel11062422273D

 36 41  0  0  1  0  0  0  0  0999 V2000
  189.0250  177.6560  142.3110 O   0  0  0  0  0  0  0  0  0  0  0  0
  188.3020  176.4110  145.6240 C   0  0  2  0  0  3  0  0  0  0  0  0
  189.8680  175.7780  143.3690 O   0  0  0  0  0  0  0  0  0  0  0  0
  188.6870  177.5350  144.6380 C   0  0  2  0  0  3  0  0  0  0  0  0
  187.7380  178.0730  142.5970 C   0  0  0  0  0  0  0  0  0  0  0  0
  191.1880  178.9670  143.8880 O   0  0  0  0  0  0  0  0  0  0  0  0
  187.4800  177.9900  143.8840 C   0  0  0  0  0  0  0  0  0  0  0  0
  191.2180  175.6210  142.9690 C   0  0  1  0  0  3  0  0  0  0  0  0
  187.4720  177.9610  147.4760 C   0  0  0  0  0  1  0  0  0  0  0  0
  189.6600  177.1670  143.4870 C   0  0  2  0  0  0  0  0  0  0  0  0
  192.6010  176.5020  144.7480 O   0  0  0  0  0  1  0  0  0  0  0  0
  192.0500  176.7910  143.4960 C   0  0  2  0  0  3  0  0  0  0  0  0
  187.1020  176.8460  146.5030 C   0  0  1  0  0  3  0  0  0  0  0  0
  185.9460  177.2900  145.6480 C   0  0  0  0  0  0  0  0  0  0  0  0
  190.9910  177.7830  143.6630 C   0  0  0  0  0  0  0  0  0  0  0  0
  184.8170  176.9060  145.9060 O   0  0  0  0  0  0  0  0  0  0  0  0
  186.1610  178.2680  144.5270 C   0  0  0  0  0  2  0  0  0  0  0  0
  189.8130  174.5240  146.2110 C   0  0  0  0  0  2  0  0  0  0  0  0
  189.1000  174.9160  147.4800 C   0  0  0  0  0  2  0  0  0  0  0  0
  189.5020  175.9850  146.4750 C   0  0  0  0  0  3  0  0  0  0  0  0
  191.7640  174.2550  143.3670 C   0  0  0  0  0  2  0  0  0  0  0  0
  192.5100  173.6780  142.2620 N   0  0  0  0  0  0  0  0  0  0  0  0
  194.7720  173.4630  141.3460 C   0  0  1  0  0  0  0  0  0  0  0  0
  193.9890  173.0360  140.0940 C   0  0  0  0  0  2  0  0  0  0  0  0
  195.9020  174.3890  140.9420 C   0  0  0  0  0  1  0  0  0  0  0  0
  191.9030  174.1660  141.0190 C   0  0  0  0  0  2  0  0  0  0  0  0
  192.8210  173.9790  139.7950 C   0  0  0  0  0  2  0  0  0  0  0  0
  193.8730  174.1880  142.3530 C   0  0  0  0  0  2  0  0  0  0  0  0
  195.3300  172.2830  141.9840 N   0  0  0  0  0  0  0  0  0  0  0  0
  196.2330  171.7120  142.8700 O   0  0  0  0  0  0  0  0  0  0  0  0
  194.9470  169.7460  141.8500 O   0  0  0  0  0  0  0  0  0  0  0  0
  195.3730  170.8930  142.1460 C   0  0  0  0  0  0  0  0  0  0  0  0
  186.8130  178.5090  141.6420 O   0  0  0  0  0  0  0  0  0  0  0  0
  185.0330  177.9160  140.1380 O   0  0  0  0  0  1  0  0  0  0  0  0
  187.0240  176.7900  140.1020 O   0  0  0  0  0  0  0  0  0  0  0  0
  186.3220  177.7050  140.6090 C   0  0  0  0  0  0  0  0  0  0  0  0
  1  5  1  0  0  0  0
  2 20  1  1  0  0  0
  2 13  1  0  0  0  0
  3 10  1  0  0  0  0
  4  7  1  6  0  0  0
  4  2  1  0  0  0  0
  5  7  2  0  0  0  0
  7 17  1  0  0  0  0
  8 21  1  1  0  0  0
  8  3  1  0  0  0  0
  8 12  1  0  0  0  0
 10  1  1  6  0  0  0
 10 15  1  0  0  0  0
 10  4  1  0  0  0  0
 12 15  1  0  0  0  0
 12 11  1  1  0  0  0
 13  9  1  1  0  0  0
 14 16  2  0  0  0  0
 14 13  1  0  0  0  0
 15  6  2  0  0  0  0
 17 14  1  0  0  0  0
 18 20  1  0  0  0  0
 18 19  1  0  0  0  0
 20 19  1  0  0  0  0
 22 28  1  0  0  0  0
 22 21  1  0  0  0  0
 23 25  1  6  0  0  0
 23 29  1  0  0  0  0
 23 28  1  0  0  0  0
 24 23  1  0  0  0  0
 26 22  1  0  0  0  0
 27 24  1  0  0  0  0
 27 26  1  0  0  0  0
 29 32  1  0  0  0  0
 29 30  1  0  0  0  0
 31 32  2  0  0  0  0
 32 30  1  0  0  0  0
 33  5  1  0  0  0  0
 34 36  1  0  0  0  0
 35 36  2  0  0  0  0
 36 33  1  0  0  0  0
M  END
>  <MODEL>
7

>  <REMARK>
 VINA RESULT:      -7.2      1.948      3.028
  Name = 
  6 active torsions:
  status: ('A' for Active; 'I' for Inactive)
    1  A    between atoms: C_4  and  C_33
    2  A    between atoms: N_7  and  C_10
    3  A    between atoms: N_9  and  C_19
    4  A    between atoms: C_11  and  O_25
    5  A    between atoms: C_16  and  C_19
    6  A    between atoms: O_25  and  C_35
                            x       y       z     vdW  Elec       q    Type
                         _______ _______ _______ _____ _____    ______ ____

>  <TORSDO>
F 6

$$$$
=
 OpenBabel11062422273D

 36 41  0  0  1  0  0  0  0  0999 V2000
  190.2110  173.7900  141.6260 O   0  0  0  0  0  0  0  0  0  0  0  0
  193.1060  175.4400  143.0190 C   0  0  2  0  0  3  0  0  0  0  0  0
  190.2950  175.4780  143.2070 O   0  0  0  0  0  0  0  0  0  0  0  0
  192.3100  174.1800  142.6180 C   0  0  2  0  0  3  0  0  0  0  0  0
  191.1850  173.7310  140.6460 C   0  0  0  0  0  0  0  0  0  0  0  0
  190.7040  172.1150  144.0400 O   0  0  0  0  0  0  0  0  0  0  0  0
  192.3790  173.9800  141.1390 C   0  0  0  0  0  0  0  0  0  0  0  0
  189.2460  175.2620  144.1340 C   0  0  1  0  0  3  0  0  0  0  0  0
  195.3920  174.3010  143.0680 C   0  0  0  0  0  1  0  0  0  0  0  0
  190.7790  174.1990  142.8640 C   0  0  2  0  0  0  0  0  0  0  0  0
  190.2170  174.2110  146.0840 O   0  0  0  0  0  1  0  0  0  0  0  0
  189.5030  173.9690  144.9070 C   0  0  2  0  0  3  0  0  0  0  0  0
  194.5390  175.3900  142.4260 C   0  0  1  0  0  3  0  0  0  0  0  0
  194.4940  175.1800  140.9370 C   0  0  0  0  0  0  0  0  0  0  0  0
  190.3780  173.2880  143.9560 C   0  0  0  0  0  0  0  0  0  0  0  0
  195.2040  175.8530  140.2070 O   0  0  0  0  0  0  0  0  0  0  0  0
  193.6410  174.0920  140.3480 C   0  0  0  0  0  2  0  0  0  0  0  0
  192.4980  176.9540  144.8970 C   0  0  0  0  0  2  0  0  0  0  0  0
  193.9980  176.8070  144.9300 C   0  0  0  0  0  2  0  0  0  0  0  0
  193.1290  175.6220  144.5400 C   0  0  0  0  0  3  0  0  0  0  0  0
  189.0310  176.4770  145.0280 C   0  0  0  0  0  2  0  0  0  0  0  0
  187.6080  176.7150  145.2050 N   0  0  0  0  0  0  0  0  0  0  0  0
  185.8260  178.3130  144.6840 C   0  0  1  0  0  0  0  0  0  0  0  0
  185.0930  177.5190  145.7780 C   0  0  0  0  0  2  0  0  0  0  0  0
  185.5670  179.7940  144.8780 C   0  0  0  0  0  1  0  0  0  0  0  0
  187.3280  176.6590  146.6440 C   0  0  0  0  0  2  0  0  0  0  0  0
  185.9710  177.2920  147.0110 C   0  0  0  0  0  2  0  0  0  0  0  0
  187.3380  178.0650  144.7240 C   0  0  0  0  0  2  0  0  0  0  0  0
  185.3210  177.9090  143.3830 N   0  0  0  0  0  0  0  0  0  0  0  0
  185.5020  177.2390  142.1810 O   0  0  0  0  0  0  0  0  0  0  0  0
  183.1710  178.2880  142.0290 O   0  0  0  0  0  0  0  0  0  0  0  0
  184.3130  177.9230  142.4120 C   0  0  0  0  0  0  0  0  0  0  0  0
  190.9380  173.4640  139.2950 O   0  0  0  0  0  0  0  0  0  0  0  0
  189.3220  171.9000  138.4430 O   0  0  0  0  0  0  0  0  0  0  0  0
  188.8360  174.1310  138.5830 O   0  0  0  0  0  1  0  0  0  0  0  0
  189.6680  173.2040  138.7710 C   0  0  0  0  0  0  0  0  0  0  0  0
  2 20  1  1  0  0  0
  3  8  1  0  0  0  0
  4  7  1  6  0  0  0
  4 10  1  0  0  0  0
  4  2  1  0  0  0  0
  5  7  2  0  0  0  0
  5  1  1  0  0  0  0
  8 12  1  0  0  0  0
  8 21  1  1  0  0  0
 10  1  1  6  0  0  0
 10  3  1  0  0  0  0
 10 15  1  0  0  0  0
 12 11  1  1  0  0  0
 13  2  1  0  0  0  0
 13  9  1  1  0  0  0
 14 13  1  0  0  0  0
 15  6  2  0  0  0  0
 15 12  1  0  0  0  0
 16 14  2  0  0  0  0
 17 14  1  0  0  0  0
 17  7  1  0  0  0  0
 18 19  1  0  0  0  0
 20 18  1  0  0  0  0
 20 19  1  0  0  0  0
 21 22  1  0  0  0  0
 22 26  1  0  0  0  0
 23 28  1  0  0  0  0
 23 25  1  1  0  0  0
 23 24  1  0  0  0  0
 24 27  1  0  0  0  0
 26 27  1  0  0  0  0
 28 22  1  0  0  0  0
 29 23  1  0  0  0  0
 30 32  1  0  0  0  0
 30 29  1  0  0  0  0
 31 32  2  0  0  0  0
 32 29  1  0  0  0  0
 33  5  1  0  0  0  0
 34 36  2  0  0  0  0
 35 36  1  0  0  0  0
 36 33  1  0  0  0  0
M  END
>  <MODEL>
8

>  <REMARK>
 VINA RESULT:      -7.2      2.642      7.288
  Name = 
  6 active torsions:
  status: ('A' for Active; 'I' for Inactive)
    1  A    between atoms: C_4  and  C_33
    2  A    between atoms: N_7  and  C_10
    3  A    between atoms: N_9  and  C_19
    4  A    between atoms: C_11  and  O_25
    5  A    between atoms: C_16  and  C_19
    6  A    between atoms: O_25  and  C_35
                            x       y       z     vdW  Elec       q    Type
                         _______ _______ _______ _____ _____    ______ ____

>  <TORSDO>
F 6

$$$$
=
 OpenBabel11062422273D

 36 41  0  0  1  0  0  0  0  0999 V2000
  189.1750  177.4100  144.1310 O   0  0  0  0  0  0  0  0  0  0  0  0
  189.9520  173.9630  143.3840 C   0  0  2  0  0  3  0  0  0  0  0  0
  190.9940  176.1550  144.8160 O   0  0  0  0  0  0  0  0  0  0  0  0
  188.9940  175.0800  143.8490 C   0  0  2  0  0  3  0  0  0  0  0  0
  188.6000  177.1530  142.9000 C   0  0  0  0  0  0  0  0  0  0  0  0
  187.9170  176.0340  146.4560 O   0  0  0  0  0  0  0  0  0  0  0  0
  188.5090  175.8610  142.6710 C   0  0  0  0  0  0  0  0  0  0  0  0
  191.3320  176.5560  146.1320 C   0  0  1  0  0  3  0  0  0  0  0  0
  188.1250  172.2910  142.7630 C   0  0  0  0  0  1  0  0  0  0  0  0
  189.5870  176.1960  144.7480 C   0  0  2  0  0  0  0  0  0  0  0  0
  190.3960  174.9160  147.6440 O   0  0  0  0  0  1  0  0  0  0  0  0
  190.1990  176.1840  147.0880 C   0  0  2  0  0  3  0  0  0  0  0  0
  189.3010  173.1200  142.2570 C   0  0  1  0  0  3  0  0  0  0  0  0
  188.8440  174.0020  141.1270 C   0  0  0  0  0  0  0  0  0  0  0  0
  189.0930  176.1150  146.1370 C   0  0  0  0  0  0  0  0  0  0  0  0
  189.0800  173.6820  139.9730 O   0  0  0  0  0  0  0  0  0  0  0  0
  188.0280  175.2330  141.4050 C   0  0  0  0  0  2  0  0  0  0  0  0
  191.9120  173.0890  144.6430 C   0  0  0  0  0  2  0  0  0  0  0  0
  191.1980  171.8910  144.0710 C   0  0  0  0  0  2  0  0  0  0  0  0
  190.3980  173.0880  144.5600 C   0  0  0  0  0  3  0  0  0  0  0  0
  192.6910  176.0100  146.5520 C   0  0  0  0  0  2  0  0  0  0  0  0
  193.6620  176.2320  145.4940 N   0  0  0  0  0  0  0  0  0  0  0  0
  195.5390  175.1750  144.3250 C   0  0  1  0  0  0  0  0  0  0  0  0
  195.7770  176.6200  143.8580 C   0  0  0  0  0  2  0  0  0  0  0  0
  196.8650  174.5400  144.6950 C   0  0  0  0  0  1  0  0  0  0  0  0
  194.3750  177.4760  145.8030 C   0  0  0  0  0  2  0  0  0  0  0  0
  195.6900  177.6210  145.0130 C   0  0  0  0  0  2  0  0  0  0  0  0
  194.6080  175.1220  145.5410 C   0  0  0  0  0  2  0  0  0  0  0  0
  194.9350  174.4180  143.2430 N   0  0  0  0  0  0  0  0  0  0  0  0
  194.7780  173.2210  142.5580 O   0  0  0  0  0  0  0  0  0  0  0  0
  193.3300  174.9180  141.3000 O   0  0  0  0  0  0  0  0  0  0  0  0
  194.1070  174.3570  142.1150 C   0  0  0  0  0  0  0  0  0  0  0  0
  188.1860  178.1370  141.9950 O   0  0  0  0  0  0  0  0  0  0  0  0
  186.1980  178.2860  140.6500 O   0  0  0  0  0  0  0  0  0  0  0  0
  186.2500  179.1540  142.7650 O   0  0  0  0  0  1  0  0  0  0  0  0
  186.8570  178.5470  141.8430 C   0  0  0  0  0  0  0  0  0  0  0  0
  2  4  1  0  0  0  0
  2 20  1  1  0  0  0
  3  8  1  0  0  0  0
  4  7  1  6  0  0  0
  4 10  1  0  0  0  0
  5  1  1  0  0  0  0
  7  5  2  0  0  0  0
  8 21  1  1  0  0  0
  8 12  1  0  0  0  0
 10  1  1  6  0  0  0
 10  3  1  0  0  0  0
 10 15  1  0  0  0  0
 12 11  1  6  0  0  0
 13  9  1  1  0  0  0
 13  2  1  0  0  0  0
 14 17  1  0  0  0  0
 14 13  1  0  0  0  0
 15  6  2  0  0  0  0
 15 12  1  0  0  0  0
 16 14  2  0  0  0  0
 17  7  1  0  0  0  0
 19 20  1  0  0  0  0
 19 18  1  0  0  0  0
 20 18  1  0  0  0  0
 22 28  1  0  0  0  0
 22 26  1  0  0  0  0
 22 21  1  0  0  0  0
 23 25  1  1  0  0  0
 23 28  1  0  0  0  0
 24 23  1  0  0  0  0
 24 27  1  0  0  0  0
 27 26  1  0  0  0  0
 29 23  1  0  0  0  0
 30 29  1  0  0  0  0
 31 32  2  0  0  0  0
 32 30  1  0  0  0  0
 32 29  1  0  0  0  0
 33  5  1  0  0  0  0
 34 36  2  0  0  0  0
 36 33  1  0  0  0  0
 36 35  1  0  0  0  0
M  END
>  <MODEL>
9

>  <REMARK>
 VINA RESULT:      -6.9      2.836      5.059
  Name = 
  6 active torsions:
  status: ('A' for Active; 'I' for Inactive)
    1  A    between atoms: C_4  and  C_33
    2  A    between atoms: N_7  and  C_10
    3  A    between atoms: N_9  and  C_19
    4  A    between atoms: C_11  and  O_25
    5  A    between atoms: C_16  and  C_19
    6  A    between atoms: O_25  and  C_35
                            x       y       z     vdW  Elec       q    Type
                         _______ _______ _______ _____ _____    ______ ____

>  <TORSDO>
F 6

$$$$
