=
 OpenBabel11062420283D

 53 55  0  0  1  0  0  0  0  0999 V2000
  191.3450  174.1400  143.3330 C   0  0  2  0  0  3  0  0  0  0  0  0
  188.4680  173.5470  140.6860 C   0  0  0  0  0  3  0  0  0  0  0  0
  188.7840  174.2630  142.1760 S   0  0  0  0  0  0  0  0  0  0  0  0
  189.6790  172.9980  140.2540 C   0  0  0  0  0  0  0  0  0  0  0  0
  190.4060  173.8430  142.1960 C   0  0  0  0  0  0  0  0  0  0  0  0
  190.7470  173.1590  141.0860 N   0  0  0  0  0  0  0  0  0  0  0  0
  189.7960  172.2550  138.9620 C   0  0  0  0  0  2  0  0  0  0  0  0
  190.2220  170.9230  139.1620 O   0  0  0  0  0  0  0  0  0  0  0  0
  191.3480  170.5960  138.3530 C   0  0  1  0  0  3  0  0  0  0  0  0
  191.8890  171.6950  137.4300 C   0  0  0  0  0  2  0  0  0  0  0  0
  193.1020  174.5290  137.8410 N   0  0  0  0  0  2  0  0  0  0  0  0
  193.3230  172.0750  137.7910 C   0  0  1  0  0  3  0  0  0  0  0  0
  193.9240  175.9440  135.9170 C   0  0  2  0  0  3  0  0  0  0  0  0
  195.3260  175.2250  137.7040 O   0  0  0  0  0  0  0  0  0  0  0  0
  194.3030  173.7590  134.6930 C   0  0  0  0  0  2  0  0  0  0  0  0
  194.2880  172.0950  136.5920 C   0  0  0  0  0  2  0  0  0  0  0  0
  193.3900  174.9690  134.8710 C   0  0  0  0  0  2  0  0  0  0  0  0
  194.1620  175.2440  137.2130 C   0  0  0  0  0  0  0  0  0  0  0  0
  193.6360  172.5240  135.2730 C   0  0  0  0  0  2  0  0  0  0  0  0
  193.3770  173.3470  138.6460 C   0  0  0  0  0  2  0  0  0  0  0  0
  193.0210  176.9950  136.0990 O   0  0  0  0  0  0  0  0  0  0  0  0
  192.0380  176.7910  135.1260 C   0  0  0  0  0  1  0  0  0  0  0  0
  192.4640  169.9750  139.1800 C   0  0  0  0  0  2  0  0  0  0  0  0
  192.0820  169.9540  140.5270 O   0  0  0  0  0  0  0  0  0  0  0  0
  193.1530  169.8930  142.6530 C   0  0  0  0  0  1  0  0  0  0  0  0
  193.1750  170.4600  141.2400 C   0  0  0  0  0  3  0  0  0  0  0  0
  194.4750  170.0550  140.5550 C   0  0  0  0  0  1  0  0  0  0  0  0
  193.7360  173.3820  143.7650 C   0  0  0  0  0  1  0  0  0  0  0  0
  192.7970  174.1080  142.8090 C   0  0  2  0  0  3  0  0  0  0  0  0
  193.2830  175.4720  142.6230 N   0  0  0  0  0  0  0  0  0  0  0  0
  194.9490  174.8870  141.1270 O   0  0  0  0  0  1  0  0  0  0  0  0
  194.3840  175.7700  141.8080 N   0  0  0  0  0  0  0  0  0  0  0  0
  190.4040  171.9100  144.1620 C   0  0  0  0  0  1  0  0  0  0  0  0
  191.1040  173.2110  144.5530 C   0  0  2  0  0  3  0  0  0  0  0  0
  190.2330  173.9250  145.5940 C   0  0  0  0  0  2  0  0  0  0  0  0
  190.7470  175.3330  145.8920 C   0  0  0  0  0  2  0  0  0  0  0  0
  188.4330  174.9600  147.4130 O   0  0  0  0  0  0  0  0  0  0  0  0
  189.6400  176.2820  145.9270 N   0  0  0  0  0  0  0  0  0  0  0  0
  188.4270  175.9490  146.6260 C   0  0  0  0  0  0  0  0  0  0  0  0
  185.4460  179.2630  146.3800 C   0  0  0  0  0  3  0  0  0  0  0  0
  187.1690  176.7280  146.4640 C   0  0  0  0  0  0  0  0  0  0  0  0
  185.6000  177.4920  144.6560 C   0  0  0  0  0  3  0  0  0  0  0  0
  185.2870  179.9340  144.0620 C   0  0  0  0  0  1  0  0  0  0  0  0
  186.3400  176.5480  145.2520 C   0  0  0  0  0  3  0  0  0  0  0  0
  185.4560  178.8900  145.1000 C   0  0  0  0  0  0  0  0  0  0  0  0
  185.5190  178.2920  147.5130 C   0  0  0  0  0  2  0  0  0  0  0  0
  186.7910  177.5220  147.4760 C   0  0  0  0  0  3  0  0  0  0  0  0
  189.8860  177.5960  145.3430 C   0  0  0  0  0  2  0  0  0  0  0  0
  191.0010  177.5150  144.3050 C   0  0  0  0  0  2  0  0  0  0  0  0
  190.4450  177.7190  142.9100 C   0  0  0  0  0  2  0  0  0  0  0  0
  188.9530  177.9970  142.9950 C   0  0  0  0  0  2  0  0  0  0  0  0
  188.3490  178.0100  141.6280 C   0  0  0  0  0  3  0  0  0  0  0  0
  187.0770  177.9050  141.4770 N   0  0  0  0  0  2  0  0  0  0  0  0
  1 29  1  6  0  0  0
  1 34  1  0  0  0  0
  2  3  1  0  0  0  0
  3  5  1  0  0  0  0
  4  2  2  0  0  0  0
  4  6  1  0  0  0  0
  5  1  1  0  0  0  0
  6  5  2  0  0  0  0
  7  8  1  0  0  0  0
  7  4  1  0  0  0  0
  9 10  1  1  0  0  0
  9  8  1  0  0  0  0
  9 23  1  0  0  0  0
 11 20  1  0  0  0  0
 12 10  1  6  0  0  0
 12 20  1  0  0  0  0
 13 21  1  1  0  0  0
 13 18  1  0  0  0  0
 15 17  1  0  0  0  0
 15 19  1  0  0  0  0
 16 12  1  0  0  0  0
 17 13  1  0  0  0  0
 18 14  2  0  0  0  0
 18 11  1  0  0  0  0
 19 16  1  0  0  0  0
 22 21  1  0  0  0  0
 23 24  1  0  0  0  0
 24 26  1  0  0  0  0
 26 25  1  0  0  0  0
 27 26  1  0  0  0  0
 29 28  1  1  0  0  0
 30 29  1  0  0  0  0
 31 32  1  0  0  0  0
 32 30  2  0  0  0  0
 34 33  1  6  0  0  0
 34 35  1  0  0  0  0
 35 36  1  0  0  0  0
 36 38  1  0  0  0  0
 38 39  1  0  0  0  0
 39 37  2  0  0  0  0
 40 46  1  0  0  0  0
 41 39  1  0  0  0  0
 41 47  2  0  0  0  0
 42 45  1  0  0  0  0
 42 44  2  0  0  0  0
 43 45  1  0  0  0  0
 44 41  1  0  0  0  0
 45 40  2  0  0  0  0
 47 46  1  0  0  0  0
 48 38  1  0  0  0  0
 49 48  1  0  0  0  0
 50 51  1  0  0  0  0
 50 49  1  0  0  0  0
 52 51  1  0  0  0  0
 53 52  2  0  0  0  0
M  END
>  <MODEL>
1

>  <REMARK>
 VINA RESULT:      -5.6      0.000      0.000
  Name = 
  23 active torsions:
  status: ('A' for Active; 'I' for Inactive)
    1  A    between atoms: N_6  and  N_40
    2  A    between atoms: N_6  and  C_50
    3  A    between atoms: C_7  and  C_10
    4  A    between atoms: C_7  and  O_51
    5  A    between atoms: C_11  and  C_32
    6  A    between atoms: C_11  and  O_45
    7  A    between atoms: C_12  and  C_17
    8  A    between atoms: C_13  and  C_26
    9  A    between atoms: C_13  and  N_33
   10  A    between atoms: C_15  and  C_34
   11  A    between atoms: C_15  and  C_39
   12  A    between atoms: C_16  and  O_18
   13  A    between atoms: C_17  and  C_32
   14  A    between atoms: C_19  and  C_28
   15  A    between atoms: C_19  and  C_36
   16  A    between atoms: C_20  and  C_49
   17  A    between atoms: C_22  and  O_45
   18  A    between atoms: C_26  and  C_34
   19  A    between atoms: C_28  and  C_37
   20  A    between atoms: C_30  and  C_36
   21  A    between atoms: C_32  and  O_51
   22  A    between atoms: N_33  and  C_37
   23  A    between atoms: C_36  and  C_50
                            x       y       z     vdW  Elec       q    Type
                         _______ _______ _______ _____ _____    ______ ____

>  <TORSDO>
F 23

$$$$
=
 OpenBabel11062420283D

 53 55  0  0  1  0  0  0  0  0999 V2000
  193.2660  175.7920  143.9420 C   0  0  2  0  0  3  0  0  0  0  0  0
  196.9250  176.2270  142.5060 C   0  0  0  0  0  3  0  0  0  0  0  0
  196.0330  176.2970  143.9330 S   0  0  0  0  0  0  0  0  0  0  0  0
  196.0240  175.8620  141.5020 C   0  0  0  0  0  0  0  0  0  0  0  0
  194.5800  175.8740  143.2140 C   0  0  0  0  0  0  0  0  0  0  0  0
  194.7310  175.6690  141.8900 N   0  0  0  0  0  0  0  0  0  0  0  0
  196.4450  175.7120  140.0750 C   0  0  0  0  0  2  0  0  0  0  0  0
  196.4130  174.3610  139.6600 O   0  0  0  0  0  0  0  0  0  0  0  0
  195.8200  174.2130  138.3750 C   0  0  1  0  0  3  0  0  0  0  0  0
  194.2880  174.1730  138.3120 C   0  0  0  0  0  2  0  0  0  0  0  0
  191.3510  173.1720  138.1020 N   0  0  0  0  0  2  0  0  0  0  0  0
  193.7780  172.7850  137.9280 C   0  0  1  0  0  3  0  0  0  0  0  0
  190.0490  172.3590  140.1070 C   0  0  2  0  0  3  0  0  0  0  0  0
  190.5130  170.9950  138.2100 O   0  0  0  0  0  0  0  0  0  0  0  0
  192.2970  171.7790  141.1190 C   0  0  0  0  0  2  0  0  0  0  0  0
  193.7920  171.7700  139.0850 C   0  0  0  0  0  2  0  0  0  0  0  0
  191.1430  172.7780  141.0850 C   0  0  0  0  0  2  0  0  0  0  0  0
  190.6180  172.1350  138.7470 C   0  0  0  0  0  0  0  0  0  0  0  0
  193.5230  172.3880  140.4610 C   0  0  0  0  0  2  0  0  0  0  0  0
  192.4390  172.8550  137.1860 C   0  0  0  0  0  2  0  0  0  0  0  0
  189.0530  173.3380  140.0530 O   0  0  0  0  0  0  0  0  0  0  0  0
  188.2220  173.0590  141.1430 C   0  0  0  0  0  1  0  0  0  0  0  0
  196.3840  175.2200  137.3830 C   0  0  0  0  0  2  0  0  0  0  0  0
  195.6490  175.1560  136.1930 O   0  0  0  0  0  0  0  0  0  0  0  0
  196.3340  177.1800  135.1420 C   0  0  0  0  0  1  0  0  0  0  0  0
  196.4910  175.6660  135.1980 C   0  0  0  0  0  3  0  0  0  0  0  0
  197.9410  175.3210  135.5170 C   0  0  0  0  0  1  0  0  0  0  0  0
  193.7510  174.4740  146.0640 C   0  0  0  0  0  1  0  0  0  0  0  0
  193.1710  174.4260  144.6560 C   0  0  2  0  0  3  0  0  0  0  0  0
  193.8940  173.4170  143.8880 N   0  0  0  0  0  2  0  0  0  0  0  0
  193.2170  171.3140  144.5750 O   0  0  0  0  0  1  0  0  0  0  0  0
  194.1430  172.1320  144.3870 N   0  0  0  0  0  2  0  0  0  0  0  0
  191.7580  177.5900  142.9230 C   0  0  0  0  0  1  0  0  0  0  0  0
  192.0600  176.0940  143.0140 C   0  0  2  0  0  3  0  0  0  0  0  0
  190.8030  175.3870  143.5360 C   0  0  0  0  0  2  0  0  0  0  0  0
  189.5270  176.0060  142.9660 C   0  0  0  0  0  2  0  0  0  0  0  0
  186.7380  175.8940  142.8700 O   0  0  0  0  0  0  0  0  0  0  0  0
  188.6620  176.4700  144.0450 N   0  0  0  0  0  0  0  0  0  0  0  0
  187.2350  176.5050  143.8590 C   0  0  0  0  0  0  0  0  0  0  0  0
  185.2110  178.0570  147.5220 C   0  0  0  0  0  3  0  0  0  0  0  0
  186.3230  177.2250  144.7890 C   0  0  0  0  0  0  0  0  0  0  0  0
  185.9170  179.5430  145.6710 C   0  0  0  0  0  3  0  0  0  0  0  0
  186.2600  180.1570  148.1050 C   0  0  0  0  0  1  0  0  0  0  0  0
  186.1490  178.6900  144.6660 C   0  0  0  0  0  3  0  0  0  0  0  0
  185.7740  179.1880  147.0950 C   0  0  0  0  0  0  0  0  0  0  0  0
  184.6050  177.0480  146.6020 C   0  0  0  0  0  2  0  0  0  0  0  0
  185.6250  176.4950  145.6700 C   0  0  0  0  0  3  0  0  0  0  0  0
  189.3040  176.7550  145.3230 C   0  0  0  0  0  2  0  0  0  0  0  0
  189.0120  175.6410  146.3240 C   0  0  0  0  0  2  0  0  0  0  0  0
  190.2440  175.3340  147.1520 C   0  0  0  0  0  2  0  0  0  0  0  0
  191.1000  176.5850  147.2710 C   0  0  0  0  0  2  0  0  0  0  0  0
  191.5020  176.8030  148.6930 C   0  0  0  0  0  3  0  0  0  0  0  0
  191.4700  177.9820  149.2060 N   0  0  0  0  0  2  0  0  0  0  0  0
  1 34  1  6  0  0  0
  1 29  1  0  0  0  0
  2  3  1  0  0  0  0
  4  6  1  0  0  0  0
  4  2  2  0  0  0  0
  5  3  1  0  0  0  0
  5  1  1  0  0  0  0
  6  5  2  0  0  0  0
  7  4  1  0  0  0  0
  8  7  1  0  0  0  0
  9 23  1  6  0  0  0
  9  8  1  0  0  0  0
 10  9  1  0  0  0  0
 11 18  1  0  0  0  0
 12 10  1  1  0  0  0
 12 16  1  0  0  0  0
 13 21  1  6  0  0  0
 13 17  1  0  0  0  0
 14 18  2  0  0  0  0
 16 19  1  0  0  0  0
 17 15  1  0  0  0  0
 18 13  1  0  0  0  0
 19 15  1  0  0  0  0
 20 12  1  0  0  0  0
 20 11  1  0  0  0  0
 21 22  1  0  0  0  0
 24 23  1  0  0  0  0
 25 26  1  0  0  0  0
 26 27  1  0  0  0  0
 26 24  1  0  0  0  0
 29 28  1  1  0  0  0
 30 32  1  0  0  0  0
 30 29  1  0  0  0  0
 32 31  1  0  0  0  0
 34 33  1  1  0  0  0
 34 35  1  0  0  0  0
 36 35  1  0  0  0  0
 36 38  1  0  0  0  0
 37 39  2  0  0  0  0
 38 48  1  0  0  0  0
 39 38  1  0  0  0  0
 39 41  1  0  0  0  0
 41 47  2  0  0  0  0
 42 45  1  0  0  0  0
 44 41  1  0  0  0  0
 44 42  2  0  0  0  0
 45 40  2  0  0  0  0
 45 43  1  0  0  0  0
 46 40  1  0  0  0  0
 47 46  1  0  0  0  0
 48 49  1  0  0  0  0
 49 50  1  0  0  0  0
 50 51  1  0  0  0  0
 51 52  1  0  0  0  0
 52 53  2  0  0  0  0
M  END
>  <MODEL>
2

>  <REMARK>
 VINA RESULT:      -5.6      2.526      5.387
  Name = 
  23 active torsions:
  status: ('A' for Active; 'I' for Inactive)
    1  A    between atoms: N_6  and  N_40
    2  A    between atoms: N_6  and  C_50
    3  A    between atoms: C_7  and  C_10
    4  A    between atoms: C_7  and  O_51
    5  A    between atoms: C_11  and  C_32
    6  A    between atoms: C_11  and  O_45
    7  A    between atoms: C_12  and  C_17
    8  A    between atoms: C_13  and  C_26
    9  A    between atoms: C_13  and  N_33
   10  A    between atoms: C_15  and  C_34
   11  A    between atoms: C_15  and  C_39
   12  A    between atoms: C_16  and  O_18
   13  A    between atoms: C_17  and  C_32
   14  A    between atoms: C_19  and  C_28
   15  A    between atoms: C_19  and  C_36
   16  A    between atoms: C_20  and  C_49
   17  A    between atoms: C_22  and  O_45
   18  A    between atoms: C_26  and  C_34
   19  A    between atoms: C_28  and  C_37
   20  A    between atoms: C_30  and  C_36
   21  A    between atoms: C_32  and  O_51
   22  A    between atoms: N_33  and  C_37
   23  A    between atoms: C_36  and  C_50
                            x       y       z     vdW  Elec       q    Type
                         _______ _______ _______ _____ _____    ______ ____

>  <TORSDO>
F 23

$$$$
=
 OpenBabel11062420283D

 53 55  0  0  1  0  0  0  0  0999 V2000
  194.3960  175.3660  145.1840 C   0  0  2  0  0  3  0  0  0  0  0  0
  193.0240  175.2310  141.4780 C   0  0  0  0  0  3  0  0  0  0  0  0
  192.5290  175.3820  143.0800 S   0  0  0  0  0  0  0  0  0  0  0  0
  194.4190  175.1490  141.5070 C   0  0  0  0  0  0  0  0  0  0  0  0
  194.0790  175.3310  143.7140 C   0  0  0  0  0  0  0  0  0  0  0  0
  195.0020  175.2030  142.7390 N   0  0  0  0  0  0  0  0  0  0  0  0
  195.2310  174.9890  140.2620 C   0  0  0  0  0  2  0  0  0  0  0  0
  194.4140  174.9320  139.1100 O   0  0  0  0  0  0  0  0  0  0  0  0
  194.4420  173.6460  138.5000 C   0  0  1  0  0  3  0  0  0  0  0  0
  193.3910  173.3610  137.4200 C   0  0  0  0  0  2  0  0  0  0  0  0
  191.2650  171.5840  138.8300 N   0  0  0  0  0  2  0  0  0  0  0  0
  191.9880  173.7420  137.8880 C   0  0  1  0  0  3  0  0  0  0  0  0
  189.6980  170.0710  137.5520 C   0  0  2  0  0  3  0  0  0  0  0  0
  188.9480  171.8510  138.9460 O   0  0  0  0  0  0  0  0  0  0  0  0
  190.0060  171.6720  135.6130 C   0  0  0  0  0  2  0  0  0  0  0  0
  190.9260  173.7160  136.7740 C   0  0  0  0  0  2  0  0  0  0  0  0
  190.4050  170.3320  136.2240 C   0  0  0  0  0  2  0  0  0  0  0  0
  189.9340  171.1970  138.5010 C   0  0  0  0  0  0  0  0  0  0  0  0
  191.1690  172.6440  135.7050 C   0  0  0  0  0  2  0  0  0  0  0  0
  191.5780  172.9700  139.1470 C   0  0  0  0  0  2  0  0  0  0  0  0
  190.1490  168.8720  138.1090 O   0  0  0  0  0  0  0  0  0  0  0  0
  191.0460  168.3580  137.1670 C   0  0  0  0  0  1  0  0  0  0  0  0
  195.8400  173.2930  138.0130 C   0  0  0  0  0  2  0  0  0  0  0  0
  195.7470  172.6530  136.7710 O   0  0  0  0  0  0  0  0  0  0  0  0
  197.8920  173.6580  137.0180 C   0  0  0  0  0  1  0  0  0  0  0  0
  197.0430  172.6580  136.2420 C   0  0  0  0  0  3  0  0  0  0  0  0
  197.6610  171.2710  136.3650 C   0  0  0  0  0  1  0  0  0  0  0  0
  196.3150  173.8140  145.8050 C   0  0  0  0  0  1  0  0  0  0  0  0
  194.8060  173.9500  145.6440 C   0  0  2  0  0  3  0  0  0  0  0  0
  194.3500  172.9640  144.6690 N   0  0  0  0  0  2  0  0  0  0  0  0
  194.0330  170.6840  144.4310 O   0  0  0  0  0  1  0  0  0  0  0  0
  193.7820  171.7410  145.0500 N   0  0  0  0  0  2  0  0  0  0  0  0
  193.7480  177.0040  147.0390 C   0  0  0  0  0  1  0  0  0  0  0  0
  193.2430  175.9820  146.0200 C   0  0  2  0  0  3  0  0  0  0  0  0
  192.4970  174.8800  146.7810 C   0  0  0  0  0  2  0  0  0  0  0  0
  191.3800  175.4520  147.6540 C   0  0  0  0  0  2  0  0  0  0  0  0
  190.3220  177.8120  146.5960 O   0  0  0  0  0  0  0  0  0  0  0  0
  190.1300  175.5140  146.9040 N   0  0  0  0  0  0  0  0  0  0  0  0
  189.5860  176.7870  146.5140 C   0  0  0  0  0  0  0  0  0  0  0  0
  185.3810  178.1610  145.9120 C   0  0  0  0  0  3  0  0  0  0  0  0
  188.1940  176.9440  146.0110 C   0  0  0  0  0  0  0  0  0  0  0  0
  186.9590  177.8670  144.0260 C   0  0  0  0  0  3  0  0  0  0  0  0
  185.4050  179.8610  144.1910 C   0  0  0  0  0  1  0  0  0  0  0  0
  187.9490  177.1440  144.5650 C   0  0  0  0  0  3  0  0  0  0  0  0
  185.9120  178.5930  144.7670 C   0  0  0  0  0  0  0  0  0  0  0  0
  185.7480  176.8560  146.5410 C   0  0  0  0  0  2  0  0  0  0  0  0
  187.1930  176.8210  146.8940 C   0  0  0  0  0  3  0  0  0  0  0  0
  189.5620  174.2410  146.4740 C   0  0  0  0  0  2  0  0  0  0  0  0
  189.7470  174.0570  144.9710 C   0  0  0  0  0  2  0  0  0  0  0  0
  190.0300  172.6050  144.6440 C   0  0  0  0  0  2  0  0  0  0  0  0
  189.2710  172.2110  143.3870 C   0  0  0  0  0  2  0  0  0  0  0  0
  190.1150  171.3280  142.5270 C   0  0  0  0  0  3  0  0  0  0  0  0
  191.3750  171.5540  142.4000 N   0  0  0  0  0  2  0  0  0  0  0  0
  1 29  1  1  0  0  0
  1 34  1  0  0  0  0
  2  4  2  0  0  0  0
  2  3  1  0  0  0  0
  3  5  1  0  0  0  0
  4  6  1  0  0  0  0
  5  1  1  0  0  0  0
  6  5  2  0  0  0  0
  7  4  1  0  0  0  0
  8  7  1  0  0  0  0
  9 10  1  6  0  0  0
  9  8  1  0  0  0  0
 11 20  1  0  0  0  0
 12 10  1  6  0  0  0
 12 20  1  0  0  0  0
 13 21  1  1  0  0  0
 13 18  1  0  0  0  0
 15 19  1  0  0  0  0
 15 17  1  0  0  0  0
 16 12  1  0  0  0  0
 17 13  1  0  0  0  0
 18 11  1  0  0  0  0
 18 14  2  0  0  0  0
 19 16  1  0  0  0  0
 22 21  1  0  0  0  0
 23  9  1  0  0  0  0
 24 23  1  0  0  0  0
 26 27  1  0  0  0  0
 26 24  1  0  0  0  0
 26 25  1  0  0  0  0
 29 28  1  6  0  0  0
 30 32  1  0  0  0  0
 30 29  1  0  0  0  0
 31 32  1  0  0  0  0
 34 35  1  0  0  0  0
 34 33  1  1  0  0  0
 35 36  1  0  0  0  0
 38 36  1  0  0  0  0
 39 37  2  0  0  0  0
 39 38  1  0  0  0  0
 40 46  1  0  0  0  0
 41 39  1  0  0  0  0
 41 47  2  0  0  0  0
 42 44  2  0  0  0  0
 42 45  1  0  0  0  0
 43 45  1  0  0  0  0
 44 41  1  0  0  0  0
 45 40  2  0  0  0  0
 46 47  1  0  0  0  0
 48 38  1  0  0  0  0
 49 48  1  0  0  0  0
 50 49  1  0  0  0  0
 51 50  1  0  0  0  0
 52 51  1  0  0  0  0
 53 52  2  0  0  0  0
M  END
>  <MODEL>
3

>  <REMARK>
 VINA RESULT:      -5.4      2.475      4.776
  Name = 
  23 active torsions:
  status: ('A' for Active; 'I' for Inactive)
    1  A    between atoms: N_6  and  N_40
    2  A    between atoms: N_6  and  C_50
    3  A    between atoms: C_7  and  C_10
    4  A    between atoms: C_7  and  O_51
    5  A    between atoms: C_11  and  C_32
    6  A    between atoms: C_11  and  O_45
    7  A    between atoms: C_12  and  C_17
    8  A    between atoms: C_13  and  C_26
    9  A    between atoms: C_13  and  N_33
   10  A    between atoms: C_15  and  C_34
   11  A    between atoms: C_15  and  C_39
   12  A    between atoms: C_16  and  O_18
   13  A    between atoms: C_17  and  C_32
   14  A    between atoms: C_19  and  C_28
   15  A    between atoms: C_19  and  C_36
   16  A    between atoms: C_20  and  C_49
   17  A    between atoms: C_22  and  O_45
   18  A    between atoms: C_26  and  C_34
   19  A    between atoms: C_28  and  C_37
   20  A    between atoms: C_30  and  C_36
   21  A    between atoms: C_32  and  O_51
   22  A    between atoms: N_33  and  C_37
   23  A    between atoms: C_36  and  C_50
                            x       y       z     vdW  Elec       q    Type
                         _______ _______ _______ _____ _____    ______ ____

>  <TORSDO>
F 23

$$$$
=
 OpenBabel11062420283D

 53 55  0  0  1  0  0  0  0  0999 V2000
  194.5200  175.0870  145.8250 C   0  0  2  0  0  3  0  0  0  0  0  0
  190.8400  173.7100  145.3890 C   0  0  0  0  0  3  0  0  0  0  0  0
  192.4180  173.4970  144.8440 S   0  0  0  0  0  0  0  0  0  0  0  0
  190.8930  174.7240  146.3490 C   0  0  0  0  0  0  0  0  0  0  0  0
  193.0710  174.6820  145.8310 C   0  0  0  0  0  0  0  0  0  0  0  0
  192.1220  175.2620  146.5920 N   0  0  0  0  0  0  0  0  0  0  0  0
  189.6690  175.2110  147.0560 C   0  0  0  0  0  2  0  0  0  0  0  0
  189.6870  176.6140  147.2250 O   0  0  0  0  0  0  0  0  0  0  0  0
  188.6330  177.2500  146.5080 C   0  0  1  0  0  3  0  0  0  0  0  0
  187.9970  176.4640  145.3550 C   0  0  0  0  0  2  0  0  0  0  0  0
  187.0310  175.6280  142.5210 N   0  0  0  0  0  2  0  0  0  0  0  0
  187.8230  177.3340  144.1120 C   0  0  1  0  0  3  0  0  0  0  0  0
  188.5880  174.6460  140.7910 C   0  0  2  0  0  3  0  0  0  0  0  0
  187.3840  176.6750  140.4630 O   0  0  0  0  0  0  0  0  0  0  0  0
  190.4350  175.8950  141.9930 C   0  0  0  0  0  2  0  0  0  0  0  0
  189.1270  177.5860  143.3350 C   0  0  0  0  0  2  0  0  0  0  0  0
  189.7480  174.5490  141.7790 C   0  0  0  0  0  2  0  0  0  0  0  0
  187.6180  175.6930  141.2240 C   0  0  0  0  0  0  0  0  0  0  0  0
  190.1180  176.4180  143.3820 C   0  0  0  0  0  2  0  0  0  0  0  0
  186.6660  176.8450  143.2330 C   0  0  0  0  0  2  0  0  0  0  0  0
  187.9440  173.4100  140.6850 O   0  0  0  0  0  0  0  0  0  0  0  0
  188.6780  172.7090  139.7230 C   0  0  0  0  0  1  0  0  0  0  0  0
  187.5720  177.7970  147.4520 C   0  0  0  0  0  2  0  0  0  0  0  0
  186.3440  177.1870  147.1660 O   0  0  0  0  0  0  0  0  0  0  0  0
  186.0290  179.5020  147.6300 C   0  0  0  0  0  1  0  0  0  0  0  0
  185.3660  178.1390  147.4770 C   0  0  0  0  0  3  0  0  0  0  0  0
  184.3310  178.2040  146.3610 C   0  0  0  0  0  1  0  0  0  0  0  0
  194.6680  177.6280  145.8090 C   0  0  0  0  0  1  0  0  0  0  0  0
  194.6840  176.3590  144.9650 C   0  0  2  0  0  3  0  0  0  0  0  0
  193.6030  176.4350  143.9880 N   0  0  0  0  0  2  0  0  0  0  0  0
  194.6160  176.6760  141.9210 O   0  0  0  0  0  1  0  0  0  0  0  0
  193.7830  176.0860  142.6420 N   0  0  0  0  0  2  0  0  0  0  0  0
  196.6100  173.7190  146.3800 C   0  0  0  0  0  1  0  0  0  0  0  0
  195.4550  173.9240  145.4000 C   0  0  2  0  0  3  0  0  0  0  0  0
  196.0510  174.2070  144.0160 C   0  0  0  0  0  2  0  0  0  0  0  0
  196.7540  172.9770  143.4410 C   0  0  0  0  0  2  0  0  0  0  0  0
  197.8970  174.5410  141.4270 O   0  0  0  0  0  0  0  0  0  0  0  0
  196.4410  172.8280  142.0250 N   0  0  0  0  0  0  0  0  0  0  0  0
  196.9670  173.7640  141.0670 C   0  0  0  0  0  0  0  0  0  0  0  0
  195.3130  175.2450  137.1940 C   0  0  0  0  0  3  0  0  0  0  0  0
  196.4650  173.8470  139.6680 C   0  0  0  0  0  0  0  0  0  0  0  0
  197.3320  173.8170  137.3090 C   0  0  0  0  0  3  0  0  0  0  0  0
  197.1820  175.8260  135.7740 C   0  0  0  0  0  1  0  0  0  0  0  0
  197.2900  173.3270  138.5550 C   0  0  0  0  0  3  0  0  0  0  0  0
  196.5540  174.9610  136.8000 C   0  0  0  0  0  0  0  0  0  0  0  0
  194.5470  174.3950  138.1560 C   0  0  0  0  0  2  0  0  0  0  0  0
  195.2310  174.3330  139.4750 C   0  0  0  0  0  3  0  0  0  0  0  0
  195.6980  171.6320  141.6420 C   0  0  0  0  0  2  0  0  0  0  0  0
  194.1970  171.8970  141.7040 C   0  0  0  0  0  2  0  0  0  0  0  0
  193.4570  170.6610  142.1770 C   0  0  0  0  0  2  0  0  0  0  0  0
  192.1230  170.5620  141.4560 C   0  0  0  0  0  2  0  0  0  0  0  0
  192.1610  171.3470  140.1850 C   0  0  0  0  0  3  0  0  0  0  0  0
  191.7400  170.8290  139.0860 N   0  0  0  0  0  2  0  0  0  0  0  0
  1 29  1  6  0  0  0
  1  5  1  0  0  0  0
  2  4  2  0  0  0  0
  3  2  1  0  0  0  0
  3  5  1  0  0  0  0
  4  6  1  0  0  0  0
  4  7  1  0  0  0  0
  5  6  2  0  0  0  0
  7  8  1  0  0  0  0
  9 10  1  6  0  0  0
  9  8  1  0  0  0  0
  9 23  1  0  0  0  0
 11 20  1  0  0  0  0
 12 10  1  1  0  0  0
 13 21  1  1  0  0  0
 13 18  1  0  0  0  0
 13 17  1  0  0  0  0
 14 18  2  0  0  0  0
 15 19  1  0  0  0  0
 16 19  1  0  0  0  0
 16 12  1  0  0  0  0
 17 15  1  0  0  0  0
 18 11  1  0  0  0  0
 20 12  1  0  0  0  0
 22 21  1  0  0  0  0
 24 23  1  0  0  0  0
 24 26  1  0  0  0  0
 26 25  1  0  0  0  0
 27 26  1  0  0  0  0
 29 28  1  1  0  0  0
 30 29  1  0  0  0  0
 31 32  1  0  0  0  0
 32 30  1  0  0  0  0
 34  1  1  0  0  0  0
 34 33  1  1  0  0  0
 35 34  1  0  0  0  0
 36 35  1  0  0  0  0
 38 36  1  0  0  0  0
 39 37  2  0  0  0  0
 39 38  1  0  0  0  0
 40 46  1  0  0  0  0
 41 39  1  0  0  0  0
 42 44  2  0  0  0  0
 43 45  1  0  0  0  0
 44 41  1  0  0  0  0
 45 40  2  0  0  0  0
 45 42  1  0  0  0  0
 46 47  1  0  0  0  0
 47 41  2  0  0  0  0
 48 49  1  0  0  0  0
 48 38  1  0  0  0  0
 49 50  1  0  0  0  0
 51 50  1  0  0  0  0
 52 51  1  0  0  0  0
 53 52  2  0  0  0  0
M  END
>  <MODEL>
4

>  <REMARK>
 VINA RESULT:      -5.0      2.569      9.328
  Name = 
  23 active torsions:
  status: ('A' for Active; 'I' for Inactive)
    1  A    between atoms: N_6  and  N_40
    2  A    between atoms: N_6  and  C_50
    3  A    between atoms: C_7  and  C_10
    4  A    between atoms: C_7  and  O_51
    5  A    between atoms: C_11  and  C_32
    6  A    between atoms: C_11  and  O_45
    7  A    between atoms: C_12  and  C_17
    8  A    between atoms: C_13  and  C_26
    9  A    between atoms: C_13  and  N_33
   10  A    between atoms: C_15  and  C_34
   11  A    between atoms: C_15  and  C_39
   12  A    between atoms: C_16  and  O_18
   13  A    between atoms: C_17  and  C_32
   14  A    between atoms: C_19  and  C_28
   15  A    between atoms: C_19  and  C_36
   16  A    between atoms: C_20  and  C_49
   17  A    between atoms: C_22  and  O_45
   18  A    between atoms: C_26  and  C_34
   19  A    between atoms: C_28  and  C_37
   20  A    between atoms: C_30  and  C_36
   21  A    between atoms: C_32  and  O_51
   22  A    between atoms: N_33  and  C_37
   23  A    between atoms: C_36  and  C_50
                            x       y       z     vdW  Elec       q    Type
                         _______ _______ _______ _____ _____    ______ ____

>  <TORSDO>
F 23

$$$$
=
 OpenBabel11062420283D

 53 55  0  0  1  0  0  0  0  0999 V2000
  193.3710  175.1460  144.4020 C   0  0  2  0  0  3  0  0  0  0  0  0
  196.2110  172.7170  145.6950 C   0  0  0  0  0  3  0  0  0  0  0  0
  195.7150  174.3260  145.7240 S   0  0  0  0  0  0  0  0  0  0  0  0
  195.2420  172.0230  144.9660 C   0  0  0  0  0  0  0  0  0  0  0  0
  194.3260  174.0630  144.8250 C   0  0  0  0  0  0  0  0  0  0  0  0
  194.2030  172.7640  144.4850 N   0  0  0  0  0  0  0  0  0  0  0  0
  195.3440  170.5550  144.7070 C   0  0  0  0  0  2  0  0  0  0  0  0
  196.3490  170.2600  143.7580 O   0  0  0  0  0  0  0  0  0  0  0  0
  195.8650  169.4270  142.7100 C   0  0  1  0  0  3  0  0  0  0  0  0
  194.6210  169.9080  141.9520 C   0  0  0  0  0  2  0  0  0  0  0  0
  192.4980  169.0570  139.8460 N   0  0  0  0  0  2  0  0  0  0  0  0
  193.4550  168.9340  142.1130 C   0  0  1  0  0  3  0  0  0  0  0  0
  190.4200  170.4170  139.3880 C   0  0  2  0  0  3  0  0  0  0  0  0
  190.3630  168.1670  140.1660 O   0  0  0  0  0  0  0  0  0  0  0  0
  190.6600  171.2690  141.7610 C   0  0  0  0  0  2  0  0  0  0  0  0
  192.2090  169.5500  142.7720 C   0  0  0  0  0  2  0  0  0  0  0  0
  190.8820  171.5660  140.2810 C   0  0  0  0  0  2  0  0  0  0  0  0
  191.0760  169.1410  139.7940 C   0  0  0  0  0  0  0  0  0  0  0  0
  191.9960  171.0320  142.4430 C   0  0  0  0  0  2  0  0  0  0  0  0
  193.1560  168.1840  140.8090 C   0  0  0  0  0  2  0  0  0  0  0  0
  190.7100  170.7020  138.0510 O   0  0  0  0  0  0  0  0  0  0  0  0
  191.3730  171.9320  138.0860 C   0  0  0  0  0  1  0  0  0  0  0  0
  196.9790  169.0420  141.7480 C   0  0  0  0  0  2  0  0  0  0  0  0
  196.4700  168.1660  140.7810 O   0  0  0  0  0  0  0  0  0  0  0  0
  196.1010  168.6350  138.4750 C   0  0  0  0  0  1  0  0  0  0  0  0
  197.1290  168.4910  139.5890 C   0  0  0  0  0  3  0  0  0  0  0  0
  197.8820  169.8050  139.7530 C   0  0  0  0  0  1  0  0  0  0  0  0
  193.0150  175.2380  141.8840 C   0  0  0  0  0  1  0  0  0  0  0  0
  193.8470  175.7400  143.0590 C   0  0  2  0  0  3  0  0  0  0  0  0
  195.2430  175.3810  142.8280 N   0  0  0  0  0  2  0  0  0  0  0  0
  196.5140  177.1560  143.5970 O   0  0  0  0  0  1  0  0  0  0  0  0
  196.2500  176.3450  142.6830 N   0  0  0  0  0  2  0  0  0  0  0  0
  194.4100  176.4110  146.3680 C   0  0  0  0  0  1  0  0  0  0  0  0
  193.1590  176.2090  145.5120 C   0  0  2  0  0  3  0  0  0  0  0  0
  192.0140  175.7830  146.4390 C   0  0  0  0  0  2  0  0  0  0  0  0
  190.8080  175.2740  145.6490 C   0  0  0  0  0  2  0  0  0  0  0  0
  188.5890  174.9270  147.3120 O   0  0  0  0  0  0  0  0  0  0  0  0
  189.7060  176.2250  145.7370 N   0  0  0  0  0  0  0  0  0  0  0  0
  188.5370  175.9050  146.5120 C   0  0  0  0  0  0  0  0  0  0  0  0
  185.5410  179.2150  146.4520 C   0  0  0  0  0  3  0  0  0  0  0  0
  187.2720  176.6840  146.4150 C   0  0  0  0  0  0  0  0  0  0  0  0
  185.6350  177.4830  144.6840 C   0  0  0  0  0  3  0  0  0  0  0  0
  185.2950  179.9380  144.1570 C   0  0  0  0  0  1  0  0  0  0  0  0
  186.3980  176.5290  145.2310 C   0  0  0  0  0  3  0  0  0  0  0  0
  185.5050  178.8710  145.1640 C   0  0  0  0  0  0  0  0  0  0  0  0
  185.6580  178.2190  147.5600 C   0  0  0  0  0  2  0  0  0  0  0  0
  186.9300  177.4540  147.4580 C   0  0  0  0  0  3  0  0  0  0  0  0
  189.9170  177.5310  145.1200 C   0  0  0  0  0  2  0  0  0  0  0  0
  190.0960  177.3830  143.6130 C   0  0  0  0  0  2  0  0  0  0  0  0
  188.8210  177.7660  142.8860 C   0  0  0  0  0  2  0  0  0  0  0  0
  188.3520  176.5970  142.0360 C   0  0  0  0  0  2  0  0  0  0  0  0
  187.0540  176.9270  141.3720 C   0  0  0  0  0  3  0  0  0  0  0  0
  187.0110  177.1720  140.1110 N   0  0  0  0  0  2  0  0  0  0  0  0
  1 29  1  6  0  0  0
  1  5  1  0  0  0  0
  1 34  1  0  0  0  0
  2  3  1  0  0  0  0
  4  2  2  0  0  0  0
  5  3  1  0  0  0  0
  6  5  2  0  0  0  0
  6  4  1  0  0  0  0
  7  4  1  0  0  0  0
  8  7  1  0  0  0  0
  9 23  1  6  0  0  0
  9  8  1  0  0  0  0
 10  9  1  0  0  0  0
 11 20  1  0  0  0  0
 12 10  1  6  0  0  0
 12 16  1  0  0  0  0
 13 21  1  6  0  0  0
 13 18  1  0  0  0  0
 13 17  1  0  0  0  0
 15 19  1  0  0  0  0
 17 15  1  0  0  0  0
 18 11  1  0  0  0  0
 18 14  2  0  0  0  0
 19 16  1  0  0  0  0
 20 12  1  0  0  0  0
 21 22  1  0  0  0  0
 24 23  1  0  0  0  0
 25 26  1  0  0  0  0
 26 27  1  0  0  0  0
 26 24  1  0  0  0  0
 29 28  1  6  0  0  0
 30 29  1  0  0  0  0
 32 30  1  0  0  0  0
 32 31  1  0  0  0  0
 34 33  1  1  0  0  0
 34 35  1  0  0  0  0
 36 38  1  0  0  0  0
 36 35  1  0  0  0  0
 38 39  1  0  0  0  0
 39 37  2  0  0  0  0
 40 46  1  0  0  0  0
 41 39  1  0  0  0  0
 41 47  2  0  0  0  0
 42 45  1  0  0  0  0
 42 44  2  0  0  0  0
 43 45  1  0  0  0  0
 44 41  1  0  0  0  0
 45 40  2  0  0  0  0
 47 46  1  0  0  0  0
 48 38  1  0  0  0  0
 49 48  1  0  0  0  0
 50 49  1  0  0  0  0
 51 50  1  0  0  0  0
 52 51  1  0  0  0  0
 53 52  2  0  0  0  0
M  END
>  <MODEL>
5

>  <REMARK>
 VINA RESULT:      -4.9      2.931      4.873
  Name = 
  23 active torsions:
  status: ('A' for Active; 'I' for Inactive)
    1  A    between atoms: N_6  and  N_40
    2  A    between atoms: N_6  and  C_50
    3  A    between atoms: C_7  and  C_10
    4  A    between atoms: C_7  and  O_51
    5  A    between atoms: C_11  and  C_32
    6  A    between atoms: C_11  and  O_45
    7  A    between atoms: C_12  and  C_17
    8  A    between atoms: C_13  and  C_26
    9  A    between atoms: C_13  and  N_33
   10  A    between atoms: C_15  and  C_34
   11  A    between atoms: C_15  and  C_39
   12  A    between atoms: C_16  and  O_18
   13  A    between atoms: C_17  and  C_32
   14  A    between atoms: C_19  and  C_28
   15  A    between atoms: C_19  and  C_36
   16  A    between atoms: C_20  and  C_49
   17  A    between atoms: C_22  and  O_45
   18  A    between atoms: C_26  and  C_34
   19  A    between atoms: C_28  and  C_37
   20  A    between atoms: C_30  and  C_36
   21  A    between atoms: C_32  and  O_51
   22  A    between atoms: N_33  and  C_37
   23  A    between atoms: C_36  and  C_50
                            x       y       z     vdW  Elec       q    Type
                         _______ _______ _______ _____ _____    ______ ____

>  <TORSDO>
F 23

$$$$
=
 OpenBabel11062420283D

 53 55  0  0  1  0  0  0  0  0999 V2000
  194.5690  174.9380  145.7890 C   0  0  2  0  0  3  0  0  0  0  0  0
  190.7500  173.9290  145.6200 C   0  0  0  0  0  3  0  0  0  0  0  0
  192.2650  173.5260  145.0080 S   0  0  0  0  0  0  0  0  0  0  0  0
  190.9590  174.9810  146.5170 C   0  0  0  0  0  0  0  0  0  0  0  0
  193.0890  174.6860  145.8920 C   0  0  0  0  0  0  0  0  0  0  0  0
  192.2470  175.4000  146.6660 N   0  0  0  0  0  0  0  0  0  0  0  0
  189.8320  175.6280  147.2570 C   0  0  0  0  0  2  0  0  0  0  0  0
  189.6740  176.9820  146.8870 O   0  0  0  0  0  0  0  0  0  0  0  0
  188.3660  177.2500  146.3930 C   0  0  1  0  0  3  0  0  0  0  0  0
  187.8600  176.3760  145.2400 C   0  0  0  0  0  2  0  0  0  0  0  0
  187.0990  175.3600  142.4010 N   0  0  0  0  0  2  0  0  0  0  0  0
  187.7400  177.1730  143.9420 C   0  0  1  0  0  3  0  0  0  0  0  0
  188.7890  174.3380  140.8270 C   0  0  2  0  0  3  0  0  0  0  0  0
  187.5510  176.3080  140.3150 O   0  0  0  0  0  0  0  0  0  0  0  0
  190.5210  175.7070  142.0700 C   0  0  0  0  0  2  0  0  0  0  0  0
  189.0830  177.4250  143.2340 C   0  0  0  0  0  2  0  0  0  0  0  0
  189.8870  174.3300  141.8880 C   0  0  0  0  0  2  0  0  0  0  0  0
  187.7640  175.3750  141.1410 C   0  0  0  0  0  0  0  0  0  0  0  0
  190.1020  176.2920  143.4060 C   0  0  0  0  0  2  0  0  0  0  0  0
  186.6550  176.6010  143.0210 C   0  0  0  0  0  2  0  0  0  0  0  0
  188.1890  173.0790  140.7490 O   0  0  0  0  0  0  0  0  0  0  0  0
  188.6360  172.4010  141.8870 C   0  0  0  0  0  1  0  0  0  0  0  0
  187.3480  177.3110  147.5230 C   0  0  0  0  0  2  0  0  0  0  0  0
  186.0590  177.1940  146.9890 O   0  0  0  0  0  0  0  0  0  0  0  0
  184.2280  178.4790  146.1710 C   0  0  0  0  0  1  0  0  0  0  0  0
  185.6880  178.4890  146.6070 C   0  0  0  0  0  3  0  0  0  0  0  0
  185.8570  179.4470  147.7800 C   0  0  0  0  0  1  0  0  0  0  0  0
  194.7900  177.4600  145.5340 C   0  0  0  0  0  1  0  0  0  0  0  0
  194.8140  176.1140  144.8200 C   0  0  2  0  0  3  0  0  0  0  0  0
  193.7870  176.1190  143.7820 N   0  0  0  0  0  2  0  0  0  0  0  0
  194.1830  175.9040  141.5120 O   0  0  0  0  0  1  0  0  0  0  0  0
  194.0160  176.6460  142.5040 N   0  0  0  0  0  2  0  0  0  0  0  0
  196.6600  173.5270  146.2160 C   0  0  0  0  0  1  0  0  0  0  0  0
  195.3600  173.6540  145.4220 C   0  0  2  0  0  3  0  0  0  0  0  0
  195.7140  173.6630  143.9300 C   0  0  0  0  0  2  0  0  0  0  0  0
  196.3620  172.3480  143.4950 C   0  0  0  0  0  2  0  0  0  0  0  0
  194.8310  170.2450  144.5130 O   0  0  0  0  0  0  0  0  0  0  0  0
  195.4310  171.5630  142.6930 N   0  0  0  0  0  0  0  0  0  0  0  0
  194.7850  170.4100  143.2610 C   0  0  0  0  0  0  0  0  0  0  0  0
  191.8620  168.4160  140.5380 C   0  0  0  0  0  3  0  0  0  0  0  0
  194.0600  169.4080  142.4320 C   0  0  0  0  0  0  0  0  0  0  0  0
  194.3100  168.1660  140.2610 C   0  0  0  0  0  3  0  0  0  0  0  0
  192.7570  168.5290  138.2940 C   0  0  0  0  0  1  0  0  0  0  0  0
  194.7960  168.6080  141.4280 C   0  0  0  0  0  3  0  0  0  0  0  0
  192.9410  168.3780  139.7560 C   0  0  0  0  0  0  0  0  0  0  0  0
  191.9140  168.1870  142.0140 C   0  0  0  0  0  2  0  0  0  0  0  0
  192.7580  169.2130  142.6840 C   0  0  0  0  0  3  0  0  0  0  0  0
  195.1060  172.0860  141.3700 C   0  0  0  0  0  2  0  0  0  0  0  0
  193.6530  172.5470  141.3230 C   0  0  0  0  0  2  0  0  0  0  0  0
  193.1140  172.4630  139.9090 C   0  0  0  0  0  2  0  0  0  0  0  0
  191.6700  171.9880  139.9440 C   0  0  0  0  0  2  0  0  0  0  0  0
  191.2110  171.6250  138.5690 C   0  0  0  0  0  3  0  0  0  0  0  0
  189.9670  171.3960  138.3370 N   0  0  0  0  0  2  0  0  0  0  0  0
  1 29  1  6  0  0  0
  1  5  1  0  0  0  0
  2  4  2  0  0  0  0
  3  2  1  0  0  0  0
  3  5  1  0  0  0  0
  4  6  1  0  0  0  0
  4  7  1  0  0  0  0
  5  6  2  0  0  0  0
  8  7  1  0  0  0  0
  9 10  1  6  0  0  0
  9  8  1  0  0  0  0
  9 23  1  0  0  0  0
 11 20  1  0  0  0  0
 12 10  1  1  0  0  0
 13 21  1  1  0  0  0
 13 18  1  0  0  0  0
 13 17  1  0  0  0  0
 14 18  2  0  0  0  0
 15 19  1  0  0  0  0
 16 19  1  0  0  0  0
 16 12  1  0  0  0  0
 17 15  1  0  0  0  0
 18 11  1  0  0  0  0
 20 12  1  0  0  0  0
 21 22  1  0  0  0  0
 24 23  1  0  0  0  0
 25 26  1  0  0  0  0
 26 24  1  0  0  0  0
 26 27  1  0  0  0  0
 29 28  1  1  0  0  0
 30 29  1  0  0  0  0
 31 32  1  0  0  0  0
 32 30  1  0  0  0  0
 34  1  1  0  0  0  0
 34 33  1  1  0  0  0
 35 34  1  0  0  0  0
 36 35  1  0  0  0  0
 38 39  1  0  0  0  0
 38 36  1  0  0  0  0
 39 37  2  0  0  0  0
 40 46  1  0  0  0  0
 41 47  2  0  0  0  0
 41 39  1  0  0  0  0
 42 44  2  0  0  0  0
 43 45  1  0  0  0  0
 44 41  1  0  0  0  0
 45 42  1  0  0  0  0
 45 40  2  0  0  0  0
 46 47  1  0  0  0  0
 48 38  1  0  0  0  0
 49 48  1  0  0  0  0
 50 51  1  0  0  0  0
 50 49  1  0  0  0  0
 52 51  1  0  0  0  0
 53 52  2  0  0  0  0
M  END
>  <MODEL>
6

>  <REMARK>
 VINA RESULT:      -4.9      2.809      9.042
  Name = 
  23 active torsions:
  status: ('A' for Active; 'I' for Inactive)
    1  A    between atoms: N_6  and  N_40
    2  A    between atoms: N_6  and  C_50
    3  A    between atoms: C_7  and  C_10
    4  A    between atoms: C_7  and  O_51
    5  A    between atoms: C_11  and  C_32
    6  A    between atoms: C_11  and  O_45
    7  A    between atoms: C_12  and  C_17
    8  A    between atoms: C_13  and  C_26
    9  A    between atoms: C_13  and  N_33
   10  A    between atoms: C_15  and  C_34
   11  A    between atoms: C_15  and  C_39
   12  A    between atoms: C_16  and  O_18
   13  A    between atoms: C_17  and  C_32
   14  A    between atoms: C_19  and  C_28
   15  A    between atoms: C_19  and  C_36
   16  A    between atoms: C_20  and  C_49
   17  A    between atoms: C_22  and  O_45
   18  A    between atoms: C_26  and  C_34
   19  A    between atoms: C_28  and  C_37
   20  A    between atoms: C_30  and  C_36
   21  A    between atoms: C_32  and  O_51
   22  A    between atoms: N_33  and  C_37
   23  A    between atoms: C_36  and  C_50
                            x       y       z     vdW  Elec       q    Type
                         _______ _______ _______ _____ _____    ______ ____

>  <TORSDO>
F 23

$$$$
=
 OpenBabel11062420283D

 53 55  0  0  1  0  0  0  0  0999 V2000
  195.0250  174.8240  139.5860 C   0  0  2  0  0  3  0  0  0  0  0  0
  192.6110  171.6970  139.4230 C   0  0  0  0  0  3  0  0  0  0  0  0
  194.1800  172.1920  139.0680 S   0  0  0  0  0  0  0  0  0  0  0  0
  191.9750  172.8010  139.9960 C   0  0  0  0  0  0  0  0  0  0  0  0
  193.9730  173.7510  139.6440 C   0  0  0  0  0  0  0  0  0  0  0  0
  192.7230  173.9340  140.1170 N   0  0  0  0  0  0  0  0  0  0  0  0
  190.5460  172.7550  140.4340 C   0  0  0  0  0  2  0  0  0  0  0  0
  190.0000  174.0500  140.5730 O   0  0  0  0  0  0  0  0  0  0  0  0
  188.5830  174.0490  140.4290 C   0  0  1  0  0  3  0  0  0  0  0  0
  187.7680  174.7420  141.5270 C   0  0  0  0  0  2  0  0  0  0  0  0
  187.3990  176.0800  144.3100 N   0  0  0  0  0  2  0  0  0  0  0  0
  188.5230  175.9290  142.1230 C   0  0  1  0  0  3  0  0  0  0  0  0
  185.6430  177.8410  144.7470 C   0  0  2  0  0  3  0  0  0  0  0  0
  187.9770  178.2310  145.0110 O   0  0  0  0  0  0  0  0  0  0  0  0
  185.7990  178.3670  142.2740 C   0  0  0  0  0  2  0  0  0  0  0  0
  188.0020  177.3010  141.6580 C   0  0  0  0  0  2  0  0  0  0  0  0
  185.0080  177.6590  143.3700 C   0  0  0  0  0  2  0  0  0  0  0  0
  187.0670  177.4010  144.7290 C   0  0  0  0  0  0  0  0  0  0  0  0
  186.4920  177.3400  141.3970 C   0  0  0  0  0  2  0  0  0  0  0  0
  188.6660  175.8080  143.6440 C   0  0  0  0  0  2  0  0  0  0  0  0
  184.9280  177.1160  145.7040 O   0  0  0  0  0  0  0  0  0  0  0  0
  185.0400  177.8690  146.8770 C   0  0  0  0  0  1  0  0  0  0  0  0
  188.1660  174.5330  139.0470 C   0  0  0  0  0  2  0  0  0  0  0  0
  188.1650  173.4490  138.1610 O   0  0  0  0  0  0  0  0  0  0  0  0
  189.3220  172.5520  136.2830 C   0  0  0  0  0  1  0  0  0  0  0  0
  189.0890  173.7740  137.1610 C   0  0  0  0  0  3  0  0  0  0  0  0
  188.5500  174.9150  136.3060 C   0  0  0  0  0  1  0  0  0  0  0  0
  197.4120  175.0970  138.7450 C   0  0  0  0  0  1  0  0  0  0  0  0
  196.0470  174.4680  138.4850 C   0  0  2  0  0  3  0  0  0  0  0  0
  195.5590  174.9330  137.1910 N   0  0  0  0  0  2  0  0  0  0  0  0
  195.5870  173.3950  135.4610 O   0  0  0  0  0  1  0  0  0  0  0  0
  196.0540  174.4320  135.9790 N   0  0  0  0  0  2  0  0  0  0  0  0
  196.3930  176.4360  141.0270 C   0  0  0  0  0  1  0  0  0  0  0  0
  195.6710  175.0890  140.9720 C   0  0  2  0  0  3  0  0  0  0  0  0
  196.6900  173.9910  141.2970 C   0  0  0  0  0  2  0  0  0  0  0  0
  196.2050  173.0870  142.4300 C   0  0  0  0  0  2  0  0  0  0  0  0
  193.5320  172.9480  143.2290 O   0  0  0  0  0  0  0  0  0  0  0  0
  195.6420  173.8860  143.5120 N   0  0  0  0  0  0  0  0  0  0  0  0
  194.2260  173.8550  143.7690 C   0  0  0  0  0  0  0  0  0  0  0  0
  191.2720  176.6980  145.5370 C   0  0  0  0  0  3  0  0  0  0  0  0
  193.5500  174.8470  144.6500 C   0  0  0  0  0  0  0  0  0  0  0  0
  192.4180  174.9700  146.8910 C   0  0  0  0  0  3  0  0  0  0  0  0
  189.9490  175.4710  147.1470 C   0  0  0  0  0  1  0  0  0  0  0  0
  193.4280  174.5830  146.1010 C   0  0  0  0  0  3  0  0  0  0  0  0
  191.2380  175.7470  146.4710 C   0  0  0  0  0  0  0  0  0  0  0  0
  192.5290  177.1240  144.8520 C   0  0  0  0  0  2  0  0  0  0  0  0
  193.1350  175.9950  144.0960 C   0  0  0  0  0  3  0  0  0  0  0  0
  196.5910  174.5840  144.3720 C   0  0  0  0  0  2  0  0  0  0  0  0
  197.5010  173.5850  145.0800 C   0  0  0  0  0  2  0  0  0  0  0  0
  196.7930  172.9730  146.2720 C   0  0  0  0  0  2  0  0  0  0  0  0
  196.8480  171.4570  146.1710 C   0  0  0  0  0  2  0  0  0  0  0  0
  195.6430  170.9420  145.4520 C   0  0  0  0  0  3  0  0  0  0  0  0
  194.9090  170.0290  145.9810 N   0  0  0  0  0  2  0  0  0  0  0  0
  1 29  1  6  0  0  0
  1  5  1  0  0  0  0
  1 34  1  0  0  0  0
  2  4  2  0  0  0  0
  3  2  1  0  0  0  0
  3  5  1  0  0  0  0
  4  6  1  0  0  0  0
  4  7  1  0  0  0  0
  5  6  2  0  0  0  0
  7  8  1  0  0  0  0
  9 23  1  6  0  0  0
  9  8  1  0  0  0  0
  9 10  1  0  0  0  0
 11 18  1  0  0  0  0
 12 10  1  1  0  0  0
 12 20  1  0  0  0  0
 13 21  1  1  0  0  0
 15 17  1  0  0  0  0
 16 12  1  0  0  0  0
 17 13  1  0  0  0  0
 18 13  1  0  0  0  0
 18 14  2  0  0  0  0
 19 16  1  0  0  0  0
 19 15  1  0  0  0  0
 20 11  1  0  0  0  0
 21 22  1  0  0  0  0
 24 23  1  0  0  0  0
 25 26  1  0  0  0  0
 26 24  1  0  0  0  0
 27 26  1  0  0  0  0
 29 28  1  1  0  0  0
 30 29  1  0  0  0  0
 31 32  1  0  0  0  0
 32 30  1  0  0  0  0
 34 33  1  6  0  0  0
 34 35  1  0  0  0  0
 35 36  1  0  0  0  0
 36 38  1  0  0  0  0
 37 39  2  0  0  0  0
 38 39  1  0  0  0  0
 38 48  1  0  0  0  0
 39 41  1  0  0  0  0
 40 45  2  0  0  0  0
 41 44  1  0  0  0  0
 44 42  2  0  0  0  0
 45 42  1  0  0  0  0
 45 43  1  0  0  0  0
 46 40  1  0  0  0  0
 47 41  2  0  0  0  0
 47 46  1  0  0  0  0
 48 49  1  0  0  0  0
 49 50  1  0  0  0  0
 51 50  1  0  0  0  0
 52 53  2  0  0  0  0
 52 51  1  0  0  0  0
M  END
>  <MODEL>
7

>  <REMARK>
 VINA RESULT:      -4.8      2.939      7.987
  Name = 
  23 active torsions:
  status: ('A' for Active; 'I' for Inactive)
    1  A    between atoms: N_6  and  N_40
    2  A    between atoms: N_6  and  C_50
    3  A    between atoms: C_7  and  C_10
    4  A    between atoms: C_7  and  O_51
    5  A    between atoms: C_11  and  C_32
    6  A    between atoms: C_11  and  O_45
    7  A    between atoms: C_12  and  C_17
    8  A    between atoms: C_13  and  C_26
    9  A    between atoms: C_13  and  N_33
   10  A    between atoms: C_15  and  C_34
   11  A    between atoms: C_15  and  C_39
   12  A    between atoms: C_16  and  O_18
   13  A    between atoms: C_17  and  C_32
   14  A    between atoms: C_19  and  C_28
   15  A    between atoms: C_19  and  C_36
   16  A    between atoms: C_20  and  C_49
   17  A    between atoms: C_22  and  O_45
   18  A    between atoms: C_26  and  C_34
   19  A    between atoms: C_28  and  C_37
   20  A    between atoms: C_30  and  C_36
   21  A    between atoms: C_32  and  O_51
   22  A    between atoms: N_33  and  C_37
   23  A    between atoms: C_36  and  C_50
                            x       y       z     vdW  Elec       q    Type
                         _______ _______ _______ _____ _____    ______ ____

>  <TORSDO>
F 23

$$$$
=
 OpenBabel11062420283D

 53 55  0  0  1  0  0  0  0  0999 V2000
  189.7810  172.0150  139.3370 C   0  0  2  0  0  3  0  0  0  0  0  0
  192.8820  172.4830  141.7440 C   0  0  0  0  0  3  0  0  0  0  0  0
  191.7650  171.3420  141.2130 S   0  0  0  0  0  0  0  0  0  0  0  0
  192.5940  173.6620  141.0510 C   0  0  0  0  0  0  0  0  0  0  0  0
  190.9870  172.3840  140.1570 C   0  0  0  0  0  0  0  0  0  0  0  0
  191.5490  173.6090  140.1770 N   0  0  0  0  0  0  0  0  0  0  0  0
  193.3720  174.9200  141.2680 C   0  0  0  0  0  2  0  0  0  0  0  0
  194.6150  174.8880  140.5970 O   0  0  0  0  0  0  0  0  0  0  0  0
  195.6960  175.2260  141.4610 C   0  0  1  0  0  3  0  0  0  0  0  0
  195.8210  174.4330  142.7680 C   0  0  0  0  0  2  0  0  0  0  0  0
  195.8930  171.3350  143.0260 N   0  0  0  0  0  2  0  0  0  0  0  0
  197.0310  173.5020  142.7450 C   0  0  1  0  0  3  0  0  0  0  0  0
  195.8750  170.1590  145.2610 C   0  0  2  0  0  3  0  0  0  0  0  0
  197.6470  169.9410  143.6830 O   0  0  0  0  0  0  0  0  0  0  0  0
  196.9150  172.2730  146.1900 C   0  0  0  0  0  2  0  0  0  0  0  0
  197.7650  173.3950  144.0940 C   0  0  0  0  0  2  0  0  0  0  0  0
  195.6360  171.4570  146.0280 C   0  0  0  0  0  2  0  0  0  0  0  0
  196.5150  170.4400  143.9430 C   0  0  0  0  0  0  0  0  0  0  0  0
  196.8470  173.5130  145.3160 C   0  0  0  0  0  2  0  0  0  0  0  0
  196.6940  172.1440  142.1180 C   0  0  0  0  0  2  0  0  0  0  0  0
  194.6660  169.4830  145.0720 O   0  0  0  0  0  0  0  0  0  0  0  0
  194.5560  168.6370  146.1800 C   0  0  0  0  0  1  0  0  0  0  0  0
  197.0180  175.2580  140.7090 C   0  0  0  0  0  2  0  0  0  0  0  0
  196.7870  175.6610  139.3880 O   0  0  0  0  0  0  0  0  0  0  0  0
  197.6810  173.5320  138.8040 C   0  0  0  0  0  1  0  0  0  0  0  0
  197.7820  175.0410  138.6220 C   0  0  0  0  0  3  0  0  0  0  0  0
  197.5950  175.3850  137.1500 C   0  0  0  0  0  1  0  0  0  0  0  0
  189.0270  171.6080  136.9400 C   0  0  0  0  0  1  0  0  0  0  0  0
  190.1270  172.1620  137.8390 C   0  0  2  0  0  3  0  0  0  0  0  0
  191.3680  171.4510  137.5490 N   0  0  0  0  0  2  0  0  0  0  0  0
  192.8360  172.6020  136.1790 O   0  0  0  0  0  1  0  0  0  0  0  0
  192.0700  171.6290  136.3490 N   0  0  0  0  0  2  0  0  0  0  0  0
  188.5710  174.2690  139.3240 C   0  0  0  0  0  1  0  0  0  0  0  0
  188.5160  172.8060  139.7630 C   0  0  2  0  0  3  0  0  0  0  0  0
  188.3630  172.7740  141.2880 C   0  0  0  0  0  2  0  0  0  0  0  0
  188.1040  174.1680  141.8600 C   0  0  0  0  0  2  0  0  0  0  0  0
  189.2440  172.3130  143.6110 O   0  0  0  0  0  0  0  0  0  0  0  0
  189.1200  174.5080  142.8500 N   0  0  0  0  0  0  0  0  0  0  0  0
  189.5530  173.5230  143.8050 C   0  0  0  0  0  0  0  0  0  0  0  0
  192.3970  175.4890  146.6310 C   0  0  0  0  0  3  0  0  0  0  0  0
  190.3580  173.8730  145.0090 C   0  0  0  0  0  0  0  0  0  0  0  0
  190.0710  174.9280  147.2720 C   0  0  0  0  0  3  0  0  0  0  0  0
  191.1530  177.1310  147.8970 C   0  0  0  0  0  1  0  0  0  0  0  0
  189.6860  174.0780  146.3110 C   0  0  0  0  0  3  0  0  0  0  0  0
  191.2480  175.8150  147.2240 C   0  0  0  0  0  0  0  0  0  0  0  0
  192.6400  174.1570  145.9990 C   0  0  0  0  0  2  0  0  0  0  0  0
  191.6910  173.9170  144.8780 C   0  0  0  0  0  3  0  0  0  0  0  0
  189.7410  175.8220  142.7250 C   0  0  0  0  0  2  0  0  0  0  0  0
  188.7150  176.8530  142.2670 C   0  0  0  0  0  2  0  0  0  0  0  0
  187.6910  177.1040  143.3560 C   0  0  0  0  0  2  0  0  0  0  0  0
  188.4020  177.5210  144.6340 C   0  0  0  0  0  2  0  0  0  0  0  0
  187.5430  177.2330  145.8220 C   0  0  0  0  0  3  0  0  0  0  0  0
  186.2920  176.9720  145.6740 N   0  0  0  0  0  2  0  0  0  0  0  0
  1 29  1  6  0  0  0
  1 34  1  0  0  0  0
  1  5  1  0  0  0  0
  3  2  1  0  0  0  0
  4  7  1  0  0  0  0
  4  2  2  0  0  0  0
  5  6  2  0  0  0  0
  5  3  1  0  0  0  0
  6  4  1  0  0  0  0
  8  7  1  0  0  0  0
  8  9  1  0  0  0  0
  9 23  1  6  0  0  0
  9 10  1  0  0  0  0
 11 18  1  0  0  0  0
 12 10  1  1  0  0  0
 12 16  1  0  0  0  0
 13 21  1  6  0  0  0
 13 17  1  0  0  0  0
 14 18  2  0  0  0  0
 16 19  1  0  0  0  0
 17 15  1  0  0  0  0
 18 13  1  0  0  0  0
 19 15  1  0  0  0  0
 20 12  1  0  0  0  0
 20 11  1  0  0  0  0
 21 22  1  0  0  0  0
 24 23  1  0  0  0  0
 26 25  1  0  0  0  0
 26 24  1  0  0  0  0
 27 26  1  0  0  0  0
 29 28  1  6  0  0  0
 30 29  1  0  0  0  0
 31 32  1  0  0  0  0
 32 30  1  0  0  0  0
 34 33  1  1  0  0  0
 34 35  1  0  0  0  0
 35 36  1  0  0  0  0
 36 38  1  0  0  0  0
 37 39  2  0  0  0  0
 38 39  1  0  0  0  0
 39 41  1  0  0  0  0
 40 45  2  0  0  0  0
 41 44  1  0  0  0  0
 44 42  2  0  0  0  0
 45 42  1  0  0  0  0
 45 43  1  0  0  0  0
 46 40  1  0  0  0  0
 47 41  2  0  0  0  0
 47 46  1  0  0  0  0
 48 38  1  0  0  0  0
 49 48  1  0  0  0  0
 49 50  1  0  0  0  0
 50 51  1  0  0  0  0
 51 52  1  0  0  0  0
 53 52  2  0  0  0  0
M  END
>  <MODEL>
8

>  <REMARK>
 VINA RESULT:      -4.7      2.971      6.866
  Name = 
  23 active torsions:
  status: ('A' for Active; 'I' for Inactive)
    1  A    between atoms: N_6  and  N_40
    2  A    between atoms: N_6  and  C_50
    3  A    between atoms: C_7  and  C_10
    4  A    between atoms: C_7  and  O_51
    5  A    between atoms: C_11  and  C_32
    6  A    between atoms: C_11  and  O_45
    7  A    between atoms: C_12  and  C_17
    8  A    between atoms: C_13  and  C_26
    9  A    between atoms: C_13  and  N_33
   10  A    between atoms: C_15  and  C_34
   11  A    between atoms: C_15  and  C_39
   12  A    between atoms: C_16  and  O_18
   13  A    between atoms: C_17  and  C_32
   14  A    between atoms: C_19  and  C_28
   15  A    between atoms: C_19  and  C_36
   16  A    between atoms: C_20  and  C_49
   17  A    between atoms: C_22  and  O_45
   18  A    between atoms: C_26  and  C_34
   19  A    between atoms: C_28  and  C_37
   20  A    between atoms: C_30  and  C_36
   21  A    between atoms: C_32  and  O_51
   22  A    between atoms: N_33  and  C_37
   23  A    between atoms: C_36  and  C_50
                            x       y       z     vdW  Elec       q    Type
                         _______ _______ _______ _____ _____    ______ ____

>  <TORSDO>
F 23

$$$$
=
 OpenBabel11062420283D

 53 55  0  0  1  0  0  0  0  0999 V2000
  188.4280  175.7040  142.8920 C   0  0  2  0  0  3  0  0  0  0  0  0
  191.8410  176.2610  144.8080 C   0  0  0  0  0  3  0  0  0  0  0  0
  190.1760  176.1760  145.0440 S   0  0  0  0  0  0  0  0  0  0  0  0
  192.0540  176.0250  143.4470 C   0  0  0  0  0  0  0  0  0  0  0  0
  189.8210  175.8550  143.4380 C   0  0  0  0  0  0  0  0  0  0  0  0
  190.9420  175.8030  142.6910 N   0  0  0  0  0  0  0  0  0  0  0  0
  193.4230  176.0360  142.8450 C   0  0  0  0  0  2  0  0  0  0  0  0
  194.4080  176.3920  143.7940 O   0  0  0  0  0  0  0  0  0  0  0  0
  195.5380  175.5280  143.7380 C   0  0  1  0  0  3  0  0  0  0  0  0
  195.2640  174.0190  143.7020 C   0  0  0  0  0  2  0  0  0  0  0  0
  195.7050  171.1450  144.8040 N   0  0  0  0  0  2  0  0  0  0  0  0
  194.9500  173.4730  145.0930 C   0  0  1  0  0  3  0  0  0  0  0  0
  194.0430  169.2800  144.4320 C   0  0  2  0  0  3  0  0  0  0  0  0
  194.6620  170.0650  146.5930 O   0  0  0  0  0  0  0  0  0  0  0  0
  192.2980  171.1040  144.2290 C   0  0  0  0  0  2  0  0  0  0  0  0
  193.4780  173.0680  145.2910 C   0  0  0  0  0  2  0  0  0  0  0  0
  193.1940  170.1220  143.4820 C   0  0  0  0  0  2  0  0  0  0  0  0
  194.8330  170.1560  145.3440 C   0  0  0  0  0  0  0  0  0  0  0  0
  192.8060  172.5210  144.0260 C   0  0  0  0  0  2  0  0  0  0  0  0
  195.9490  172.3900  145.5190 C   0  0  0  0  0  2  0  0  0  0  0  0
  194.9000  168.4510  143.7020 O   0  0  0  0  0  0  0  0  0  0  0  0
  194.8280  168.9320  142.3910 C   0  0  0  0  0  1  0  0  0  0  0  0
  196.4970  175.9390  142.6300 C   0  0  0  0  0  2  0  0  0  0  0  0
  197.2350  174.8210  142.2230 O   0  0  0  0  0  0  0  0  0  0  0  0
  197.7980  175.6340  140.0560 C   0  0  0  0  0  1  0  0  0  0  0  0
  196.9530  174.6560  140.8610 C   0  0  0  0  0  3  0  0  0  0  0  0
  197.2840  173.2320  140.4310 C   0  0  0  0  0  1  0  0  0  0  0  0
  189.1120  173.2530  142.9080 C   0  0  0  0  0  1  0  0  0  0  0  0
  188.3060  174.3320  142.1940 C   0  0  2  0  0  3  0  0  0  0  0  0
  188.7830  174.4360  140.8180 N   0  0  0  0  0  2  0  0  0  0  0  0
  188.8570  172.7930  139.1890 O   0  0  0  0  0  1  0  0  0  0  0  0
  189.4020  173.3660  140.1570 N   0  0  0  0  0  2  0  0  0  0  0  0
  188.3690  178.2470  142.6180 C   0  0  0  0  0  1  0  0  0  0  0  0
  188.0170  176.8990  141.9900 C   0  0  2  0  0  3  0  0  0  0  0  0
  186.5040  176.8730  141.7390 C   0  0  0  0  0  2  0  0  0  0  0  0
  185.9280  178.2830  141.6120 C   0  0  0  0  0  2  0  0  0  0  0  0
  183.9270  177.5660  139.7990 O   0  0  0  0  0  0  0  0  0  0  0  0
  184.5060  178.2820  141.9360 N   0  0  0  0  0  0  0  0  0  0  0  0
  183.5330  178.0340  140.9050 C   0  0  0  0  0  0  0  0  0  0  0  0
  179.5860  180.0430  141.4720 C   0  0  0  0  0  3  0  0  0  0  0  0
  182.0800  178.2990  141.0940 C   0  0  0  0  0  0  0  0  0  0  0  0
  179.9330  178.2630  139.7870 C   0  0  0  0  0  3  0  0  0  0  0  0
  178.6050  180.3600  139.2850 C   0  0  0  0  0  1  0  0  0  0  0  0
  181.0940  177.7090  140.1610 C   0  0  0  0  0  3  0  0  0  0  0  0
  179.4050  179.5610  140.2430 C   0  0  0  0  0  0  0  0  0  0  0  0
  180.2980  179.2890  142.5480 C   0  0  0  0  0  2  0  0  0  0  0  0
  181.7090  179.0150  142.1640 C   0  0  0  0  0  3  0  0  0  0  0  0
  184.1550  178.4090  143.3460 C   0  0  0  0  0  2  0  0  0  0  0  0
  185.0380  179.4550  144.0200 C   0  0  0  0  0  2  0  0  0  0  0  0
  185.3300  179.0590  145.4540 C   0  0  0  0  0  2  0  0  0  0  0  0
  186.0750  177.7340  145.4720 C   0  0  0  0  0  2  0  0  0  0  0  0
  186.7290  177.5260  146.7990 C   0  0  0  0  0  3  0  0  0  0  0  0
  186.1830  177.9760  147.8730 N   0  0  0  0  0  2  0  0  0  0  0  0
  1 34  1  6  0  0  0
  1  5  1  0  0  0  0
  2  3  1  0  0  0  0
  4  2  2  0  0  0  0
  5  3  1  0  0  0  0
  6  5  2  0  0  0  0
  6  4  1  0  0  0  0
  7  4  1  0  0  0  0
  7  8  1  0  0  0  0
  9 23  1  6  0  0  0
  9  8  1  0  0  0  0
 10  9  1  0  0  0  0
 11 18  1  0  0  0  0
 11 20  1  0  0  0  0
 12 10  1  6  0  0  0
 12 16  1  0  0  0  0
 12 20  1  0  0  0  0
 13 21  1  6  0  0  0
 13 18  1  0  0  0  0
 17 15  1  0  0  0  0
 17 13  1  0  0  0  0
 18 14  2  0  0  0  0
 19 15  1  0  0  0  0
 19 16  1  0  0  0  0
 22 21  1  0  0  0  0
 24 23  1  0  0  0  0
 25 26  1  0  0  0  0
 26 24  1  0  0  0  0
 27 26  1  0  0  0  0
 29  1  1  0  0  0  0
 29 28  1  1  0  0  0
 30 29  1  0  0  0  0
 31 32  1  0  0  0  0
 32 30  1  0  0  0  0
 34 33  1  1  0  0  0
 35 34  1  0  0  0  0
 36 35  1  0  0  0  0
 36 38  1  0  0  0  0
 37 39  2  0  0  0  0
 38 48  1  0  0  0  0
 39 41  1  0  0  0  0
 39 38  1  0  0  0  0
 40 46  1  0  0  0  0
 41 47  2  0  0  0  0
 42 44  2  0  0  0  0
 42 45  1  0  0  0  0
 43 45  1  0  0  0  0
 44 41  1  0  0  0  0
 45 40  2  0  0  0  0
 47 46  1  0  0  0  0
 48 49  1  0  0  0  0
 49 50  1  0  0  0  0
 50 51  1  0  0  0  0
 51 52  1  0  0  0  0
 52 53  2  0  0  0  0
M  END
>  <MODEL>
9

>  <REMARK>
 VINA RESULT:      -4.7      3.757      7.318
  Name = 
  23 active torsions:
  status: ('A' for Active; 'I' for Inactive)
    1  A    between atoms: N_6  and  N_40
    2  A    between atoms: N_6  and  C_50
    3  A    between atoms: C_7  and  C_10
    4  A    between atoms: C_7  and  O_51
    5  A    between atoms: C_11  and  C_32
    6  A    between atoms: C_11  and  O_45
    7  A    between atoms: C_12  and  C_17
    8  A    between atoms: C_13  and  C_26
    9  A    between atoms: C_13  and  N_33
   10  A    between atoms: C_15  and  C_34
   11  A    between atoms: C_15  and  C_39
   12  A    between atoms: C_16  and  O_18
   13  A    between atoms: C_17  and  C_32
   14  A    between atoms: C_19  and  C_28
   15  A    between atoms: C_19  and  C_36
   16  A    between atoms: C_20  and  C_49
   17  A    between atoms: C_22  and  O_45
   18  A    between atoms: C_26  and  C_34
   19  A    between atoms: C_28  and  C_37
   20  A    between atoms: C_30  and  C_36
   21  A    between atoms: C_32  and  O_51
   22  A    between atoms: N_33  and  C_37
   23  A    between atoms: C_36  and  C_50
                            x       y       z     vdW  Elec       q    Type
                         _______ _______ _______ _____ _____    ______ ____

>  <TORSDO>
F 23

$$$$
