=
 OpenBabel11062419143D

 54 60  0  0  1  0  0  0  0  0999 V2000
  193.8530  173.8020  141.9980 C   0  0  2  0  0  3  0  0  0  0  0  0
  194.4400  172.5860  142.6720 C   0  0  2  0  0  3  0  0  0  0  0  0
  194.7750  174.8660  141.9830 O   0  0  0  0  0  0  0  0  0  0  0  0
  194.8560  173.9910  143.0850 C   0  0  1  0  0  0  0  0  0  0  0  0
  194.1340  174.5350  144.3440 C   0  0  2  0  0  0  0  0  0  0  0  0
  191.6290  174.6700  143.3450 C   0  0  1  0  0  3  0  0  0  0  0  0
  190.8560  176.1890  145.0010 N   0  0  0  0  0  0  0  0  0  0  0  0
  192.7190  175.1010  144.2820 C   0  0  0  0  0  0  0  0  0  0  0  0
  191.3700  173.3090  143.5090 O   0  0  0  0  0  1  0  0  0  0  0  0
  190.4070  175.4690  143.8130 C   0  0  1  0  0  3  0  0  0  0  0  0
  193.0420  176.3990  146.3570 C   0  0  0  0  0  2  0  0  0  0  0  0
  192.2470  175.9530  145.1720 C   0  0  0  0  0  0  0  0  0  0  0  0
  190.4120  177.4900  146.8870 O   0  0  0  0  0  0  0  0  0  0  0  0
  195.1160  175.2820  145.2570 C   0  0  2  0  0  3  0  0  0  0  0  0
  189.9760  176.6880  146.0160 C   0  0  0  0  0  0  0  0  0  0  0  0
  194.5260  173.9540  145.7030 C   0  0  0  0  0  2  0  0  0  0  0  0
  194.5220  176.5080  145.9890 C   0  0  0  0  0  2  0  0  0  0  0  0
  189.1270  176.1110  141.9190 O   0  0  0  0  0  0  0  0  0  0  0  0
  189.9640  176.4330  142.7510 C   0  0  0  0  0  3  0  0  0  0  0  0
  188.5580  176.1810  146.0990 C   0  0  2  0  0  3  0  0  0  0  0  0
  187.4580  177.2470  145.9030 C   0  0  0  0  0  0  0  0  0  0  0  0
  187.3450  178.0180  147.0640 O   0  0  0  0  0  1  0  0  0  0  0  0
  187.7820  178.0920  144.8400 O   0  0  0  0  0  1  0  0  0  0  0  0
  186.1070  176.5950  145.6160 C   0  0  0  0  0  2  0  0  0  0  0  0
  185.3590  177.3590  144.6760 O   0  0  0  0  0  0  0  0  0  0  0  0
  184.0810  178.3600  146.2890 O   0  0  0  0  0  1  0  0  0  0  0  0
  184.4440  178.3220  145.0870 C   0  0  0  0  0  0  0  0  0  0  0  0
  183.9410  179.2560  144.1850 O   0  0  0  0  0  0  0  0  0  0  0  0
  188.3620  175.3270  147.3540 C   0  0  0  0  0  2  0  0  0  0  0  0
  189.0580  174.1240  147.2540 O   0  0  0  0  0  1  0  0  0  0  0  0
  195.4810  171.9590  141.7640 C   0  0  0  0  0  2  0  0  0  0  0  0
  195.3340  170.4500  141.7720 C   0  0  0  0  0  2  0  0  0  0  0  0
  193.8710  170.0470  141.8670 C   0  0  1  0  0  3  0  0  0  0  0  0
  193.3960  169.6290  140.6200 O   0  0  0  0  0  0  0  0  0  0  0  0
  192.0930  170.1300  140.5450 C   0  0  0  0  0  2  0  0  0  0  0  0
  190.8230  171.8030  139.0740 N   0  0  0  0  0  0  0  0  0  0  0  0
  192.6190  170.5120  138.2680 O   0  0  0  0  0  0  0  0  0  0  0  0
  191.8750  170.8230  139.2350 C   0  0  0  0  0  0  0  0  0  0  0  0
  189.5970  172.3690  135.4430 C   0  0  0  0  0  2  0  0  0  0  0  0
  190.6210  174.3420  136.2220 C   0  0  0  0  0  2  0  0  0  0  0  0
  189.4050  173.8050  135.6180 N   0  0  0  0  0  2  0  0  0  0  0  0
  190.5200  172.4160  137.7990 C   0  0  0  0  0  0  0  0  0  0  0  0
  190.9030  173.6780  137.5410 C   0  0  0  0  0  3  0  0  0  0  0  0
  189.6340  171.6860  136.8100 C   0  0  0  0  0  2  0  0  0  0  0  0
  189.3380  172.3570  141.0820 N   0  0  0  0  0  0  0  0  0  0  0  0
  190.0070  172.1070  140.1720 C   0  0  0  0  0  0  0  0  0  0  0  0
  193.6970  168.9190  142.8750 C   0  0  0  0  0  2  0  0  0  0  0  0
  194.5390  169.7930  145.0820 C   0  0  0  0  0  0  0  0  0  0  0  0
  194.7220  169.0020  143.9020 N   0  0  0  0  0  2  0  0  0  0  0  0
  193.5360  170.5420  145.1990 O   0  0  0  0  0  0  0  0  0  0  0  0
  196.9150  169.3640  145.5300 C   0  0  2  0  0  3  0  0  0  0  0  0
  197.7810  168.7780  146.6250 C   0  0  0  0  0  1  0  0  0  0  0  0
  196.6750  170.8300  145.8070 C   0  0  0  0  0  2  0  0  0  0  0  0
  195.6000  169.8120  146.1370 C   0  0  1  0  0  3  0  0  0  0  0  0
  1  3  1  6  0  0  0
  1  2  1  0  0  0  0
  1  4  1  0  0  0  0
  2 31  1  6  0  0  0
  2  4  1  0  0  0  0
  4  3  1  6  0  0  0
  4  5  1  0  0  0  0
  5 14  1  0  0  0  0
  5 16  1  1  0  0  0
  6  9  1  1  0  0  0
  6 10  1  0  0  0  0
  6  8  1  0  0  0  0
  7 12  1  0  0  0  0
  7 15  1  0  0  0  0
  8  5  1  0  0  0  0
  8 12  2  0  0  0  0
 10 19  1  6  0  0  0
 10  7  1  0  0  0  0
 12 11  1  0  0  0  0
 14 16  1  1  0  0  0
 14 17  1  0  0  0  0
 15 20  1  0  0  0  0
 15 13  2  0  0  0  0
 17 11  1  0  0  0  0
 18 19  2  0  0  0  0
 20 29  1  1  0  0  0
 21 20  1  0  0  0  0
 21 22  1  0  0  0  0
 23 21  1  0  0  0  0
 24 21  1  0  0  0  0
 25 27  1  0  0  0  0
 25 24  1  0  0  0  0
 27 26  1  0  0  0  0
 28 27  2  0  0  0  0
 30 29  1  0  0  0  0
 31 32  1  0  0  0  0
 33 32  1  6  0  0  0
 33 47  1  0  0  0  0
 34 33  1  0  0  0  0
 35 34  1  0  0  0  0
 36 38  1  0  0  0  0
 36 46  1  0  0  0  0
 37 38  2  0  0  0  0
 38 35  1  0  0  0  0
 39 41  1  0  0  0  0
 39 44  1  0  0  0  0
 40 43  1  0  0  0  0
 41 40  1  0  0  0  0
 42 36  1  0  0  0  0
 43 42  2  0  0  0  0
 44 42  1  0  0  0  0
 46 45  3  0  0  0  0
 47 49  1  0  0  0  0
 48 50  2  0  0  0  0
 49 48  1  0  0  0  0
 51 53  1  0  0  0  0
 51 54  1  0  0  0  0
 51 52  1  1  0  0  0
 53 54  1  0  0  0  0
 54 48  1  6  0  0  0
M  END
>  <MODEL>
1

>  <REMARK>
 VINA RESULT:      -6.0      0.000      0.000
  Name = 
  19 active torsions:
  status: ('A' for Active; 'I' for Inactive)
    1  A    between atoms: C_1  and  C_30
    2  A    between atoms: C_5  and  C_21
    3  A    between atoms: C_5  and  C_29
    4  A    between atoms: C_13  and  C_50
    5  A    between atoms: C_14  and  C_21
    6  A    between atoms: N_16  and  C_20
    7  A    between atoms: N_16  and  C_45
    8  A    between atoms: C_19  and  C_25
    9  A    between atoms: C_21  and  C_41
   10  A    between atoms: C_24  and  C_25
   11  A    between atoms: C_24  and  C_51
   12  A    between atoms: C_29  and  O_53
   13  A    between atoms: C_31  and  C_49
   14  A    between atoms: C_35  and  O_53
   15  A    between atoms: N_36  and  C_42
   16  A    between atoms: C_42  and  C_51
   17  A    between atoms: C_43  and  O_47
   18  A    between atoms: C_43  and  C_54
   19  A    between atoms: O_47  and  C_51
                            x       y       z     vdW  Elec       q    Type
                         _______ _______ _______ _____ _____    ______ ____

>  <TORSDO>
F 19

$$$$
=
 OpenBabel11062419143D

 54 60  0  0  1  0  0  0  0  0999 V2000
  194.7050  176.8640  145.6720 C   0  0  2  0  0  3  0  0  0  0  0  0
  194.0550  175.6810  146.3470 C   0  0  2  0  0  3  0  0  0  0  0  0
  193.9580  177.2810  144.5530 O   0  0  0  0  0  0  0  0  0  0  0  0
  193.9180  175.9030  144.8470 C   0  0  1  0  0  0  0  0  0  0  0  0
  194.8950  175.0700  143.9780 C   0  0  2  0  0  0  0  0  0  0  0  0
  193.6110  175.2850  141.6130 C   0  0  1  0  0  3  0  0  0  0  0  0
  194.7020  173.4100  140.6440 N   0  0  0  0  0  0  0  0  0  0  0  0
  194.5200  174.5870  142.5810 C   0  0  0  0  0  0  0  0  0  0  0  0
  194.0980  176.5620  141.3360 O   0  0  0  0  0  1  0  0  0  0  0  0
  193.7040  174.4310  140.3420 C   0  0  1  0  0  3  0  0  0  0  0  0
  196.2000  172.7790  142.6500 C   0  0  0  0  0  2  0  0  0  0  0  0
  195.0910  173.5470  142.0040 C   0  0  0  0  0  0  0  0  0  0  0  0
  196.1110  171.6740  139.9740 O   0  0  0  0  0  0  0  0  0  0  0  0
  195.6840  174.0780  144.8420 C   0  0  2  0  0  3  0  0  0  0  0  0
  195.4390  172.6900  139.6470 C   0  0  0  0  0  0  0  0  0  0  0  0
  196.3950  175.2600  144.2030 C   0  0  0  0  0  2  0  0  0  0  0  0
  195.9910  172.7230  144.1630 C   0  0  0  0  0  2  0  0  0  0  0  0
  191.3980  174.0150  140.7260 O   0  0  0  0  0  0  0  0  0  0  0  0
  192.3800  173.7960  140.0310 C   0  0  0  0  0  3  0  0  0  0  0  0
  195.4880  173.2030  138.2300 C   0  0  2  0  0  3  0  0  0  0  0  0
  194.7150  172.3620  137.1900 C   0  0  0  0  0  0  0  0  0  0  0  0
  195.6200  171.7740  136.3020 O   0  0  0  0  0  1  0  0  0  0  0  0
  193.9930  171.3480  137.8230 O   0  0  0  0  0  1  0  0  0  0  0  0
  193.7430  173.2310  136.3950 C   0  0  0  0  0  2  0  0  0  0  0  0
  193.6340  174.5310  136.9650 O   0  0  0  0  0  0  0  0  0  0  0  0
  191.6230  175.2390  136.1320 O   0  0  0  0  0  0  0  0  0  0  0  0
  192.8220  175.5070  136.3980 C   0  0  0  0  0  0  0  0  0  0  0  0
  193.3160  176.7830  136.1400 O   0  0  0  0  0  1  0  0  0  0  0  0
  196.9290  173.5100  137.8150 C   0  0  0  0  0  2  0  0  0  0  0  0
  197.5170  174.4240  138.6870 O   0  0  0  0  0  1  0  0  0  0  0  0
  192.8080  176.1390  147.0780 C   0  0  0  0  0  2  0  0  0  0  0  0
  191.7150  175.0970  146.9430 C   0  0  0  0  0  2  0  0  0  0  0  0
  190.4810  175.6880  146.2810 C   0  0  1  0  0  3  0  0  0  0  0  0
  189.8030  174.7090  145.5460 O   0  0  0  0  0  0  0  0  0  0  0  0
  190.2240  174.8960  144.2260 C   0  0  0  0  0  2  0  0  0  0  0  0
  188.8330  176.6320  142.9490 N   0  0  0  0  0  0  0  0  0  0  0  0
  188.2700  174.3470  143.0040 O   0  0  0  0  0  0  0  0  0  0  0  0
  189.0610  175.2630  143.3550 C   0  0  0  0  0  0  0  0  0  0  0  0
  185.3140  177.9470  142.0070 C   0  0  0  0  0  2  0  0  0  0  0  0
  186.4250  177.2610  140.0480 C   0  0  0  0  0  2  0  0  0  0  0  0
  185.7130  178.3730  140.6700 N   0  0  0  0  0  2  0  0  0  0  0  0
  187.6670  177.0370  142.1940 C   0  0  0  0  0  0  0  0  0  0  0  0
  187.6260  176.8680  140.8620 C   0  0  0  0  0  3  0  0  0  0  0  0
  186.5540  177.7940  142.8890 C   0  0  0  0  0  2  0  0  0  0  0  0
  190.4700  178.4400  143.7230 N   0  0  0  0  0  0  0  0  0  0  0  0
  189.7290  177.6230  143.3760 C   0  0  0  0  0  0  0  0  0  0  0  0
  189.5420  176.2660  147.3310 C   0  0  0  0  0  2  0  0  0  0  0  0
  187.2630  177.1750  146.7620 C   0  0  0  0  0  0  0  0  0  0  0  0
  188.6910  177.2840  146.7360 N   0  0  0  0  0  2  0  0  0  0  0  0
  186.7110  176.1280  147.1870 O   0  0  0  0  0  0  0  0  0  0  0  0
  184.9990  178.1210  146.6800 C   0  0  2  0  0  3  0  0  0  0  0  0
  184.0620  178.7510  145.6710 C   0  0  0  0  0  1  0  0  0  0  0  0
  185.8970  179.1850  147.2680 C   0  0  0  0  0  2  0  0  0  0  0  0
  186.4220  178.2680  146.1800 C   0  0  1  0  0  3  0  0  0  0  0  0
  1  3  1  1  0  0  0
  1  2  1  0  0  0  0
  2 31  1  1  0  0  0
  4  3  1  6  0  0  0
  4  1  1  0  0  0  0
  4  2  1  0  0  0  0
  5 16  1  6  0  0  0
  5 14  1  0  0  0  0
  5  4  1  0  0  0  0
  6  9  1  6  0  0  0
  6  8  1  0  0  0  0
  7 12  1  0  0  0  0
  8  5  1  0  0  0  0
 10 19  1  1  0  0  0
 10  7  1  0  0  0  0
 10  6  1  0  0  0  0
 11 17  1  0  0  0  0
 12  8  2  0  0  0  0
 12 11  1  0  0  0  0
 14 17  1  6  0  0  0
 15 13  2  0  0  0  0
 15  7  1  0  0  0  0
 16 14  1  0  0  0  0
 19 18  2  0  0  0  0
 20 29  1  6  0  0  0
 20 15  1  0  0  0  0
 21 23  1  0  0  0  0
 21 20  1  0  0  0  0
 22 21  1  0  0  0  0
 24 25  1  0  0  0  0
 24 21  1  0  0  0  0
 26 27  2  0  0  0  0
 27 25  1  0  0  0  0
 28 27  1  0  0  0  0
 29 30  1  0  0  0  0
 32 31  1  0  0  0  0
 33 32  1  1  0  0  0
 33 47  1  0  0  0  0
 34 33  1  0  0  0  0
 35 34  1  0  0  0  0
 36 38  1  0  0  0  0
 36 46  1  0  0  0  0
 37 38  2  0  0  0  0
 38 35  1  0  0  0  0
 39 44  1  0  0  0  0
 40 41  1  0  0  0  0
 40 43  1  0  0  0  0
 41 39  1  0  0  0  0
 42 44  1  0  0  0  0
 42 36  1  0  0  0  0
 43 42  2  0  0  0  0
 46 45  3  0  0  0  0
 48 50  2  0  0  0  0
 49 48  1  0  0  0  0
 49 47  1  0  0  0  0
 51 52  1  6  0  0  0
 51 53  1  0  0  0  0
 54 51  1  0  0  0  0
 54 48  1  1  0  0  0
 54 53  1  0  0  0  0
M  END
>  <MODEL>
2

>  <REMARK>
 VINA RESULT:      -5.8      3.076      8.945
  Name = 
  19 active torsions:
  status: ('A' for Active; 'I' for Inactive)
    1  A    between atoms: C_1  and  C_30
    2  A    between atoms: C_5  and  C_21
    3  A    between atoms: C_5  and  C_29
    4  A    between atoms: C_13  and  C_50
    5  A    between atoms: C_14  and  C_21
    6  A    between atoms: N_16  and  C_20
    7  A    between atoms: N_16  and  C_45
    8  A    between atoms: C_19  and  C_25
    9  A    between atoms: C_21  and  C_41
   10  A    between atoms: C_24  and  C_25
   11  A    between atoms: C_24  and  C_51
   12  A    between atoms: C_29  and  O_53
   13  A    between atoms: C_31  and  C_49
   14  A    between atoms: C_35  and  O_53
   15  A    between atoms: N_36  and  C_42
   16  A    between atoms: C_42  and  C_51
   17  A    between atoms: C_43  and  O_47
   18  A    between atoms: C_43  and  C_54
   19  A    between atoms: O_47  and  C_51
                            x       y       z     vdW  Elec       q    Type
                         _______ _______ _______ _____ _____    ______ ____

>  <TORSDO>
F 19

$$$$
=
 OpenBabel11062419143D

 54 60  0  0  1  0  0  0  0  0999 V2000
  190.8080  173.8670  144.0020 C   0  0  2  0  0  3  0  0  0  0  0  0
  192.2010  173.9970  144.5680 C   0  0  2  0  0  3  0  0  0  0  0  0
  190.1700  172.7100  144.4900 O   0  0  0  0  0  0  0  0  0  0  0  0
  191.5700  172.6310  144.3410 C   0  0  1  0  0  0  0  0  0  0  0  0
  191.9990  171.9310  143.0260 C   0  0  2  0  0  0  0  0  0  0  0  0
  190.7880  173.5890  141.2730 C   0  0  1  0  0  3  0  0  0  0  0  0
  190.8390  172.0280  139.4820 N   0  0  0  0  0  0  0  0  0  0  0  0
  191.3480  172.2600  141.6870 C   0  0  0  0  0  0  0  0  0  0  0  0
  191.7810  174.5660  141.3400 O   0  0  0  0  0  1  0  0  0  0  0  0
  190.3940  173.3790  139.8060 C   0  0  1  0  0  3  0  0  0  0  0  0
  192.0260  170.0940  140.7140 C   0  0  0  0  0  2  0  0  0  0  0  0
  191.3430  171.4240  140.6660 C   0  0  0  0  0  0  0  0  0  0  0  0
  191.2560  170.3340  137.9320 O   0  0  0  0  0  0  0  0  0  0  0  0
  192.3110  170.4480  143.2740 C   0  0  2  0  0  3  0  0  0  0  0  0
  191.0970  171.5660  138.1510 C   0  0  0  0  0  0  0  0  0  0  0  0
  193.4340  171.4130  142.9250 C   0  0  0  0  0  2  0  0  0  0  0  0
  191.9210  169.4980  142.1180 C   0  0  0  0  0  2  0  0  0  0  0  0
  188.2160  172.5100  139.4320 O   0  0  0  0  0  0  0  0  0  0  0  0
  188.9080  173.4980  139.6330 C   0  0  0  0  0  3  0  0  0  0  0  0
  191.2730  172.5600  137.0290 C   0  0  2  0  0  3  0  0  0  0  0  0
  190.3160  172.3860  135.8300 C   0  0  0  0  0  0  0  0  0  0  0  0
  190.8630  171.4690  134.9270 O   0  0  0  0  0  1  0  0  0  0  0  0
  189.0790  171.9000  136.2590 O   0  0  0  0  0  1  0  0  0  0  0  0
  190.0960  173.7130  135.1070 C   0  0  0  0  0  2  0  0  0  0  0  0
  189.7110  174.7360  136.0190 O   0  0  0  0  0  0  0  0  0  0  0  0
  188.1980  176.0140  134.8720 O   0  0  0  0  0  0  0  0  0  0  0  0
  188.4810  175.3750  135.9170 C   0  0  0  0  0  0  0  0  0  0  0  0
  187.5510  175.2990  136.9510 O   0  0  0  0  0  1  0  0  0  0  0  0
  192.7460  172.6630  136.6240 C   0  0  0  0  0  2  0  0  0  0  0  0
  193.5720  172.6980  137.7460 O   0  0  0  0  0  1  0  0  0  0  0  0
  192.1170  174.3960  146.0290 C   0  0  0  0  0  2  0  0  0  0  0  0
  192.2040  175.9030  146.1610 C   0  0  0  0  0  2  0  0  0  0  0  0
  192.8350  176.5210  144.9230 C   0  0  1  0  0  3  0  0  0  0  0  0
  192.0130  177.5250  144.4020 O   0  0  0  0  0  0  0  0  0  0  0  0
  190.8150  177.4130  145.1150 C   0  0  0  0  0  2  0  0  0  0  0  0
  188.3000  177.4220  144.6150 N   0  0  0  0  0  0  0  0  0  0  0  0
  189.8870  178.3630  143.1530 O   0  0  0  0  0  0  0  0  0  0  0  0
  189.6530  177.7700  144.2390 C   0  0  0  0  0  0  0  0  0  0  0  0
  184.9670  178.7780  143.1780 C   0  0  0  0  0  2  0  0  0  0  0  0
  185.8490  177.1790  141.6900 C   0  0  0  0  0  2  0  0  0  0  0  0
  185.3480  178.5470  141.7890 N   0  0  0  0  0  2  0  0  0  0  0  0
  187.1660  177.6610  143.7480 C   0  0  0  0  0  0  0  0  0  0  0  0
  187.0230  176.9700  142.6060 C   0  0  0  0  0  3  0  0  0  0  0  0
  186.2190  178.8040  144.0560 C   0  0  0  0  0  2  0  0  0  0  0  0
  187.9110  176.1870  146.8220 N   0  0  0  0  0  0  0  0  0  0  0  0
  188.0850  176.7480  145.8250 C   0  0  0  0  0  0  0  0  0  0  0  0
  194.1960  177.1130  145.2630 C   0  0  0  0  0  2  0  0  0  0  0  0
  195.8430  175.2130  145.1050 C   0  0  0  0  0  0  0  0  0  0  0  0
  195.2460  176.3950  144.5580 N   0  0  0  0  0  2  0  0  0  0  0  0
  195.5630  174.8390  146.2720 O   0  0  0  0  0  0  0  0  0  0  0  0
  196.6310  172.9870  144.4340 C   0  0  2  0  0  3  0  0  0  0  0  0
  197.9410  172.2540  144.2340 C   0  0  0  0  0  1  0  0  0  0  0  0
  196.2650  173.7220  143.1660 C   0  0  0  0  0  2  0  0  0  0  0  0
  196.8860  174.4770  144.3250 C   0  0  1  0  0  3  0  0  0  0  0  0
  1  4  1  0  0  0  0
  1  3  1  1  0  0  0
  1  2  1  0  0  0  0
  2 31  1  1  0  0  0
  4  3  1  1  0  0  0
  4  2  1  0  0  0  0
  5 16  1  6  0  0  0
  5 14  1  0  0  0  0
  5  4  1  0  0  0  0
  6  9  1  6  0  0  0
  6  8  1  0  0  0  0
  7 10  1  0  0  0  0
  7 12  1  0  0  0  0
  8  5  1  0  0  0  0
 10 19  1  1  0  0  0
 10  6  1  0  0  0  0
 11 17  1  0  0  0  0
 12 11  1  0  0  0  0
 12  8  2  0  0  0  0
 13 15  2  0  0  0  0
 14 17  1  6  0  0  0
 15  7  1  0  0  0  0
 16 14  1  0  0  0  0
 18 19  2  0  0  0  0
 20 29  1  6  0  0  0
 20 15  1  0  0  0  0
 21 23  1  0  0  0  0
 21 20  1  0  0  0  0
 22 21  1  0  0  0  0
 24 21  1  0  0  0  0
 24 25  1  0  0  0  0
 26 27  2  0  0  0  0
 27 25  1  0  0  0  0
 27 28  1  0  0  0  0
 29 30  1  0  0  0  0
 31 32  1  0  0  0  0
 33 47  1  1  0  0  0
 33 32  1  0  0  0  0
 34 33  1  0  0  0  0
 34 35  1  0  0  0  0
 36 46  1  0  0  0  0
 37 38  2  0  0  0  0
 38 36  1  0  0  0  0
 38 35  1  0  0  0  0
 39 44  1  0  0  0  0
 40 41  1  0  0  0  0
 40 43  1  0  0  0  0
 41 39  1  0  0  0  0
 42 44  1  0  0  0  0
 42 36  1  0  0  0  0
 43 42  2  0  0  0  0
 46 45  3  0  0  0  0
 48 50  2  0  0  0  0
 49 48  1  0  0  0  0
 49 47  1  0  0  0  0
 51 52  1  6  0  0  0
 53 54  1  0  0  0  0
 53 51  1  0  0  0  0
 54 51  1  0  0  0  0
 54 48  1  1  0  0  0
M  END
>  <MODEL>
3

>  <REMARK>
 VINA RESULT:      -5.7      2.813      8.014
  Name = 
  19 active torsions:
  status: ('A' for Active; 'I' for Inactive)
    1  A    between atoms: C_1  and  C_30
    2  A    between atoms: C_5  and  C_21
    3  A    between atoms: C_5  and  C_29
    4  A    between atoms: C_13  and  C_50
    5  A    between atoms: C_14  and  C_21
    6  A    between atoms: N_16  and  C_20
    7  A    between atoms: N_16  and  C_45
    8  A    between atoms: C_19  and  C_25
    9  A    between atoms: C_21  and  C_41
   10  A    between atoms: C_24  and  C_25
   11  A    between atoms: C_24  and  C_51
   12  A    between atoms: C_29  and  O_53
   13  A    between atoms: C_31  and  C_49
   14  A    between atoms: C_35  and  O_53
   15  A    between atoms: N_36  and  C_42
   16  A    between atoms: C_42  and  C_51
   17  A    between atoms: C_43  and  O_47
   18  A    between atoms: C_43  and  C_54
   19  A    between atoms: O_47  and  C_51
                            x       y       z     vdW  Elec       q    Type
                         _______ _______ _______ _____ _____    ______ ____

>  <TORSDO>
F 19

$$$$
=
 OpenBabel11062419143D

 54 60  0  0  1  0  0  0  0  0999 V2000
  193.8020  176.6460  145.6680 C   0  0  2  0  0  3  0  0  0  0  0  0
  193.2590  176.0030  144.4150 C   0  0  2  0  0  3  0  0  0  0  0  0
  193.9780  175.6920  146.6890 O   0  0  0  0  0  0  0  0  0  0  0  0
  192.9170  175.4520  145.7920 C   0  0  1  0  0  0  0  0  0  0  0  0
  191.5420  175.9020  146.3470 C   0  0  2  0  0  0  0  0  0  0  0  0
  190.2100  176.1020  144.0070 C   0  0  1  0  0  3  0  0  0  0  0  0
  188.5010  177.4970  144.8900 N   0  0  0  0  0  0  0  0  0  0  0  0
  190.4520  176.4680  145.4420 C   0  0  0  0  0  0  0  0  0  0  0  0
  189.9690  174.7330  143.8970 O   0  0  0  0  0  1  0  0  0  0  0  0
  188.9280  176.8630  143.6470 C   0  0  1  0  0  3  0  0  0  0  0  0
  189.3450  177.6140  147.3270 C   0  0  0  0  0  2  0  0  0  0  0  0
  189.4880  177.2520  145.8830 C   0  0  0  0  0  0  0  0  0  0  0  0
  186.9140  178.6570  146.1470 O   0  0  0  0  0  0  0  0  0  0  0  0
  191.7010  176.5850  147.7120 C   0  0  2  0  0  3  0  0  0  0  0  0
  187.1570  177.9190  145.1540 C   0  0  0  0  0  0  0  0  0  0  0  0
  191.0250  175.2260  147.6160 C   0  0  0  0  0  2  0  0  0  0  0  0
  190.7220  177.7530  147.9750 C   0  0  0  0  0  2  0  0  0  0  0  0
  188.3710  178.1610  141.7380 O   0  0  0  0  0  0  0  0  0  0  0  0
  189.2020  177.8990  142.5960 C   0  0  0  0  0  3  0  0  0  0  0  0
  186.0240  177.4040  144.3010 C   0  0  2  0  0  3  0  0  0  0  0  0
  185.1370  178.4860  143.6480 C   0  0  0  0  0  0  0  0  0  0  0  0
  184.1420  178.8780  144.5480 O   0  0  0  0  0  1  0  0  0  0  0  0
  185.9010  179.6080  143.3170 O   0  0  0  0  0  1  0  0  0  0  0  0
  184.4700  177.9570  142.3800 C   0  0  0  0  0  2  0  0  0  0  0  0
  183.1450  178.4620  142.2500 O   0  0  0  0  0  0  0  0  0  0  0  0
  182.8590  177.8070  140.0760 O   0  0  0  0  0  0  0  0  0  0  0  0
  182.3340  178.1080  141.1770 C   0  0  0  0  0  0  0  0  0  0  0  0
  180.9500  178.0640  141.3160 O   0  0  0  0  0  1  0  0  0  0  0  0
  185.2270  176.3340  145.0500 C   0  0  0  0  0  2  0  0  0  0  0  0
  185.2310  176.5750  146.4220 O   0  0  0  0  0  1  0  0  0  0  0  0
  194.3480  175.1790  143.7570 C   0  0  0  0  0  2  0  0  0  0  0  0
  195.6540  175.9490  143.7610 C   0  0  0  0  0  2  0  0  0  0  0  0
  196.6840  175.2730  142.8690 C   0  0  1  0  0  3  0  0  0  0  0  0
  197.1390  176.1580  141.8860 O   0  0  0  0  0  0  0  0  0  0  0  0
  197.0940  175.4260  140.6960 C   0  0  0  0  0  2  0  0  0  0  0  0
  195.2330  173.8590  139.8840 N   0  0  0  0  0  0  0  0  0  0  0  0
  194.8730  176.1480  140.2960 O   0  0  0  0  0  0  0  0  0  0  0  0
  195.6730  175.1750  140.2920 C   0  0  0  0  0  0  0  0  0  0  0  0
  192.2440  173.0380  137.5610 C   0  0  0  0  0  2  0  0  0  0  0  0
  191.4320  173.4860  139.7260 C   0  0  0  0  0  2  0  0  0  0  0  0
  191.4130  172.5120  138.6390 N   0  0  0  0  0  2  0  0  0  0  0  0
  193.8970  173.6020  139.3920 C   0  0  0  0  0  0  0  0  0  0  0  0
  192.8360  173.7280  140.2060 C   0  0  0  0  0  3  0  0  0  0  0  0
  193.7090  173.0400  137.9970 C   0  0  0  0  0  2  0  0  0  0  0  0
  196.9290  171.9420  139.8760 N   0  0  0  0  0  0  0  0  0  0  0  0
  196.1600  172.8070  139.8790 C   0  0  0  0  0  0  0  0  0  0  0  0
  197.8680  174.7930  143.6980 C   0  0  0  0  0  2  0  0  0  0  0  0
  197.0960  172.5590  144.5690 C   0  0  0  0  0  0  0  0  0  0  0  0
  197.4090  173.9400  144.7830 N   0  0  0  0  0  2  0  0  0  0  0  0
  197.0880  172.0800  143.4060 O   0  0  0  0  0  0  0  0  0  0  0  0
  195.9050  170.5070  145.1980 C   0  0  2  0  0  3  0  0  0  0  0  0
  194.9650  170.0210  146.2820 C   0  0  0  0  0  1  0  0  0  0  0  0
  197.3340  170.3420  145.6590 C   0  0  0  0  0  2  0  0  0  0  0  0
  196.6720  171.7050  145.7220 C   0  0  1  0  0  3  0  0  0  0  0  0
  1  4  1  0  0  0  0
  1  3  1  6  0  0  0
  2 31  1  6  0  0  0
  2  1  1  0  0  0  0
  2  4  1  0  0  0  0
  4  5  1  0  0  0  0
  4  3  1  1  0  0  0
  5 16  1  1  0  0  0
  5 14  1  0  0  0  0
  6  9  1  1  0  0  0
  6  8  1  0  0  0  0
  7 15  1  0  0  0  0
  7 12  1  0  0  0  0
  8 12  2  0  0  0  0
  8  5  1  0  0  0  0
 10 19  1  6  0  0  0
 10  6  1  0  0  0  0
 10  7  1  0  0  0  0
 11 17  1  0  0  0  0
 12 11  1  0  0  0  0
 14 16  1  1  0  0  0
 14 17  1  0  0  0  0
 15 13  2  0  0  0  0
 18 19  2  0  0  0  0
 20 29  1  1  0  0  0
 20 15  1  0  0  0  0
 21 20  1  0  0  0  0
 21 22  1  0  0  0  0
 23 21  1  0  0  0  0
 24 21  1  0  0  0  0
 25 24  1  0  0  0  0
 26 27  2  0  0  0  0
 27 28  1  0  0  0  0
 27 25  1  0  0  0  0
 29 30  1  0  0  0  0
 31 32  1  0  0  0  0
 33 47  1  1  0  0  0
 33 32  1  0  0  0  0
 34 33  1  0  0  0  0
 35 34  1  0  0  0  0
 36 38  1  0  0  0  0
 38 37  2  0  0  0  0
 38 35  1  0  0  0  0
 39 44  1  0  0  0  0
 39 41  1  0  0  0  0
 40 43  1  0  0  0  0
 41 40  1  0  0  0  0
 42 36  1  0  0  0  0
 42 43  2  0  0  0  0
 44 42  1  0  0  0  0
 45 46  3  0  0  0  0
 46 36  1  0  0  0  0
 47 49  1  0  0  0  0
 48 49  1  0  0  0  0
 50 48  2  0  0  0  0
 51 53  1  0  0  0  0
 51 54  1  0  0  0  0
 51 52  1  1  0  0  0
 53 54  1  0  0  0  0
 54 48  1  6  0  0  0
M  END
>  <MODEL>
4

>  <REMARK>
 VINA RESULT:      -5.7      2.567      4.386
  Name = 
  19 active torsions:
  status: ('A' for Active; 'I' for Inactive)
    1  A    between atoms: C_1  and  C_30
    2  A    between atoms: C_5  and  C_21
    3  A    between atoms: C_5  and  C_29
    4  A    between atoms: C_13  and  C_50
    5  A    between atoms: C_14  and  C_21
    6  A    between atoms: N_16  and  C_20
    7  A    between atoms: N_16  and  C_45
    8  A    between atoms: C_19  and  C_25
    9  A    between atoms: C_21  and  C_41
   10  A    between atoms: C_24  and  C_25
   11  A    between atoms: C_24  and  C_51
   12  A    between atoms: C_29  and  O_53
   13  A    between atoms: C_31  and  C_49
   14  A    between atoms: C_35  and  O_53
   15  A    between atoms: N_36  and  C_42
   16  A    between atoms: C_42  and  C_51
   17  A    between atoms: C_43  and  O_47
   18  A    between atoms: C_43  and  C_54
   19  A    between atoms: O_47  and  C_51
                            x       y       z     vdW  Elec       q    Type
                         _______ _______ _______ _____ _____    ______ ____

>  <TORSDO>
F 19

$$$$
=
 OpenBabel11062419143D

 54 60  0  0  1  0  0  0  0  0999 V2000
  193.7530  174.6650  142.1900 C   0  0  2  0  0  3  0  0  0  0  0  0
  194.7070  173.6380  142.7480 C   0  0  2  0  0  3  0  0  0  0  0  0
  194.3380  175.9460  142.1790 O   0  0  0  0  0  0  0  0  0  0  0  0
  194.7480  175.0850  143.2180 C   0  0  1  0  0  0  0  0  0  0  0  0
  194.0080  175.3530  144.5530 C   0  0  2  0  0  0  0  0  0  0  0  0
  191.4810  175.4210  143.6050 C   0  0  1  0  0  3  0  0  0  0  0  0
  190.6120  176.5800  145.4890 N   0  0  0  0  0  0  0  0  0  0  0  0
  192.5480  175.7930  144.5920 C   0  0  0  0  0  0  0  0  0  0  0  0
  191.3450  174.0340  143.5490 O   0  0  0  0  0  1  0  0  0  0  0  0
  190.2030  176.0220  144.2040 C   0  0  1  0  0  3  0  0  0  0  0  0
  192.7990  176.7650  146.8480 C   0  0  0  0  0  2  0  0  0  0  0  0
  192.0220  176.4450  145.6110 C   0  0  0  0  0  0  0  0  0  0  0  0
  190.0950  177.5160  147.5630 O   0  0  0  0  0  0  0  0  0  0  0  0
  194.9400  176.0300  145.5680 C   0  0  2  0  0  3  0  0  0  0  0  0
  189.7130  176.8280  146.5770 C   0  0  0  0  0  0  0  0  0  0  0  0
  194.4780  174.5990  145.7970 C   0  0  0  0  0  2  0  0  0  0  0  0
  194.2560  177.0640  146.4920 C   0  0  0  0  0  2  0  0  0  0  0  0
  190.3190  177.5510  142.3910 O   0  0  0  0  0  0  0  0  0  0  0  0
  189.6560  177.1000  143.3140 C   0  0  0  0  0  3  0  0  0  0  0  0
  188.3470  176.1890  146.5870 C   0  0  2  0  0  3  0  0  0  0  0  0
  187.1550  177.1670  146.6790 C   0  0  0  0  0  0  0  0  0  0  0  0
  186.0220  176.4800  147.1240 O   0  0  0  0  0  1  0  0  0  0  0  0
  187.4350  178.1930  147.5850 O   0  0  0  0  0  1  0  0  0  0  0  0
  186.8480  177.7880  145.3170 C   0  0  0  0  0  2  0  0  0  0  0  0
  186.1550  179.0230  145.4620 O   0  0  0  0  0  0  0  0  0  0  0  0
  185.4560  180.5350  143.8930 O   0  0  0  0  0  0  0  0  0  0  0  0
  185.2430  179.4600  144.5080 C   0  0  0  0  0  0  0  0  0  0  0  0
  184.1060  178.7110  144.2150 O   0  0  0  0  0  1  0  0  0  0  0  0
  188.2870  175.0570  147.6150 C   0  0  0  0  0  2  0  0  0  0  0  0
  189.4020  174.2290  147.5140 O   0  0  0  0  0  1  0  0  0  0  0  0
  195.8040  173.3660  141.7370 C   0  0  0  0  0  2  0  0  0  0  0  0
  196.2580  171.9230  141.8390 C   0  0  0  0  0  2  0  0  0  0  0  0
  195.1040  170.9710  141.5630 C   0  0  1  0  0  3  0  0  0  0  0  0
  194.7610  170.9970  140.2070 O   0  0  0  0  0  0  0  0  0  0  0  0
  193.7260  170.0650  140.0810 C   0  0  0  0  0  2  0  0  0  0  0  0
  191.8290  171.5920  139.2780 N   0  0  0  0  0  0  0  0  0  0  0  0
  191.8010  170.5330  141.3800 O   0  0  0  0  0  0  0  0  0  0  0  0
  192.3990  170.7290  140.2890 C   0  0  0  0  0  0  0  0  0  0  0  0
  189.2240  174.1420  140.5880 C   0  0  0  0  0  2  0  0  0  0  0  0
  188.1700  172.6820  139.0700 C   0  0  0  0  0  2  0  0  0  0  0  0
  188.4060  174.0890  139.3810 N   0  0  0  0  0  2  0  0  0  0  0  0
  190.6000  172.3270  139.4850 C   0  0  0  0  0  0  0  0  0  0  0  0
  189.4690  171.9520  138.8660 C   0  0  0  0  0  3  0  0  0  0  0  0
  190.6270  173.6170  140.2800 C   0  0  0  0  0  2  0  0  0  0  0  0
  193.1230  171.9650  137.1020 N   0  0  0  0  0  0  0  0  0  0  0  0
  192.5360  171.7950  138.0840 C   0  0  0  0  0  0  0  0  0  0  0  0
  195.4840  169.5510  141.9570 C   0  0  0  0  0  2  0  0  0  0  0  0
  194.6620  169.0200  144.2790 C   0  0  0  0  0  0  0  0  0  0  0  0
  195.6950  169.4680  143.3940 N   0  0  0  0  0  2  0  0  0  0  0  0
  193.5000  168.8090  143.8470 O   0  0  0  0  0  0  0  0  0  0  0  0
  196.2480  169.5950  146.0620 C   0  0  2  0  0  3  0  0  0  0  0  0
  196.8370  168.9710  147.3100 C   0  0  0  0  0  1  0  0  0  0  0  0
  194.9410  170.2710  146.4050 C   0  0  0  0  0  2  0  0  0  0  0  0
  194.9360  168.9050  145.7450 C   0  0  1  0  0  3  0  0  0  0  0  0
  1  3  1  6  0  0  0
  1  2  1  0  0  0  0
  1  4  1  0  0  0  0
  2 31  1  6  0  0  0
  2  4  1  0  0  0  0
  4  3  1  6  0  0  0
  4  5  1  0  0  0  0
  5  8  1  0  0  0  0
  5 14  1  0  0  0  0
  5 16  1  1  0  0  0
  6  9  1  1  0  0  0
  6 10  1  0  0  0  0
  6  8  1  0  0  0  0
  7 12  1  0  0  0  0
  7 15  1  0  0  0  0
  8 12  2  0  0  0  0
 10 19  1  6  0  0  0
 10  7  1  0  0  0  0
 12 11  1  0  0  0  0
 14 16  1  1  0  0  0
 14 17  1  0  0  0  0
 15 20  1  0  0  0  0
 15 13  2  0  0  0  0
 17 11  1  0  0  0  0
 18 19  2  0  0  0  0
 20 21  1  0  0  0  0
 20 29  1  1  0  0  0
 21 22  1  0  0  0  0
 21 23  1  0  0  0  0
 24 25  1  0  0  0  0
 24 21  1  0  0  0  0
 26 27  2  0  0  0  0
 27 25  1  0  0  0  0
 28 27  1  0  0  0  0
 30 29  1  0  0  0  0
 31 32  1  0  0  0  0
 33 32  1  6  0  0  0
 33 47  1  0  0  0  0
 34 33  1  0  0  0  0
 35 34  1  0  0  0  0
 35 38  1  0  0  0  0
 36 42  1  0  0  0  0
 36 38  1  0  0  0  0
 38 37  2  0  0  0  0
 40 41  1  0  0  0  0
 41 39  1  0  0  0  0
 42 44  1  0  0  0  0
 43 40  1  0  0  0  0
 43 42  2  0  0  0  0
 44 39  1  0  0  0  0
 45 46  3  0  0  0  0
 46 36  1  0  0  0  0
 47 49  1  0  0  0  0
 49 48  1  0  0  0  0
 50 48  2  0  0  0  0
 51 53  1  0  0  0  0
 51 52  1  1  0  0  0
 54 48  1  6  0  0  0
 54 51  1  0  0  0  0
 54 53  1  0  0  0  0
M  END
>  <MODEL>
5

>  <REMARK>
 VINA RESULT:      -5.6      1.540      2.047
  Name = 
  19 active torsions:
  status: ('A' for Active; 'I' for Inactive)
    1  A    between atoms: C_1  and  C_30
    2  A    between atoms: C_5  and  C_21
    3  A    between atoms: C_5  and  C_29
    4  A    between atoms: C_13  and  C_50
    5  A    between atoms: C_14  and  C_21
    6  A    between atoms: N_16  and  C_20
    7  A    between atoms: N_16  and  C_45
    8  A    between atoms: C_19  and  C_25
    9  A    between atoms: C_21  and  C_41
   10  A    between atoms: C_24  and  C_25
   11  A    between atoms: C_24  and  C_51
   12  A    between atoms: C_29  and  O_53
   13  A    between atoms: C_31  and  C_49
   14  A    between atoms: C_35  and  O_53
   15  A    between atoms: N_36  and  C_42
   16  A    between atoms: C_42  and  C_51
   17  A    between atoms: C_43  and  O_47
   18  A    between atoms: C_43  and  C_54
   19  A    between atoms: O_47  and  C_51
                            x       y       z     vdW  Elec       q    Type
                         _______ _______ _______ _____ _____    ______ ____

>  <TORSDO>
F 19

$$$$
=
 OpenBabel11062419143D

 54 60  0  0  1  0  0  0  0  0999 V2000
  190.0600  174.4010  143.7540 C   0  0  2  0  0  3  0  0  0  0  0  0
  189.5050  175.7690  143.4390 C   0  0  2  0  0  3  0  0  0  0  0  0
  190.0860  174.1740  145.1440 O   0  0  0  0  0  0  0  0  0  0  0  0
  190.2700  175.5090  144.7300 C   0  0  1  0  0  0  0  0  0  0  0  0
  191.7610  175.9320  144.6950 C   0  0  2  0  0  0  0  0  0  0  0  0
  192.6210  174.2180  142.7940 C   0  0  1  0  0  3  0  0  0  0  0  0
  194.9090  174.4030  143.4050 N   0  0  0  0  0  0  0  0  0  0  0  0
  192.8230  175.0860  144.0010 C   0  0  0  0  0  0  0  0  0  0  0  0
  192.1460  174.9840  141.7290 O   0  0  0  0  0  1  0  0  0  0  0  0
  194.0320  173.7220  142.4590 C   0  0  1  0  0  3  0  0  0  0  0  0
  194.6390  176.0950  145.3360 C   0  0  0  0  0  2  0  0  0  0  0  0
  194.1050  175.1470  144.3100 C   0  0  0  0  0  0  0  0  0  0  0  0
  197.0410  174.9980  144.1460 O   0  0  0  0  0  0  0  0  0  0  0  0
  192.1780  176.5740  146.0250 C   0  0  2  0  0  3  0  0  0  0  0  0
  196.3120  174.6080  143.1940 C   0  0  0  0  0  0  0  0  0  0  0  0
  192.0850  177.4240  144.7680 C   0  0  0  0  0  2  0  0  0  0  0  0
  193.6280  176.2700  146.4690 C   0  0  0  0  0  2  0  0  0  0  0  0
  194.3040  171.7390  143.7370 O   0  0  0  0  0  0  0  0  0  0  0  0
  194.1270  172.2330  142.6330 C   0  0  0  0  0  3  0  0  0  0  0  0
  196.8970  174.4490  141.8120 C   0  0  2  0  0  3  0  0  0  0  0  0
  196.4480  175.5010  140.7750 C   0  0  0  0  0  0  0  0  0  0  0  0
  195.8570  176.5820  141.4340 O   0  0  0  0  0  1  0  0  0  0  0  0
  197.5450  175.9710  140.0500 O   0  0  0  0  0  1  0  0  0  0  0  0
  195.4330  174.9100  139.7980 C   0  0  0  0  0  2  0  0  0  0  0  0
  195.9080  174.9860  138.4580 O   0  0  0  0  0  0  0  0  0  0  0  0
  195.0170  174.4730  136.4130 O   0  0  0  0  0  0  0  0  0  0  0  0
  195.5130  174.0650  137.4930 C   0  0  0  0  0  0  0  0  0  0  0  0
  195.6790  172.6990  137.7030 O   0  0  0  0  0  1  0  0  0  0  0  0
  196.7460  173.0070  141.3230 C   0  0  0  0  0  2  0  0  0  0  0  0
  197.6390  172.1600  141.9780 O   0  0  0  0  0  1  0  0  0  0  0  0
  188.0100  175.7780  143.6890 C   0  0  0  0  0  2  0  0  0  0  0  0
  187.2690  175.4230  142.4150 C   0  0  0  0  0  2  0  0  0  0  0  0
  187.7730  176.2540  141.2450 C   0  0  1  0  0  3  0  0  0  0  0  0
  187.8460  175.4750  140.0860 O   0  0  0  0  0  0  0  0  0  0  0  0
  188.5630  174.3350  140.4640 C   0  0  0  0  0  2  0  0  0  0  0  0
  189.9130  172.4420  139.3810 N   0  0  0  0  0  0  0  0  0  0  0  0
  188.9010  174.1570  138.1260 O   0  0  0  0  0  0  0  0  0  0  0  0
  189.1210  173.6460  139.2560 C   0  0  0  0  0  0  0  0  0  0  0  0
  190.6650  170.0640  136.4180 C   0  0  0  0  0  2  0  0  0  0  0  0
  192.4620  171.5650  136.6710 C   0  0  0  0  0  2  0  0  0  0  0  0
  191.4990  171.0320  135.7130 N   0  0  0  0  0  2  0  0  0  0  0  0
  190.5500  171.8080  138.2480 C   0  0  0  0  0  0  0  0  0  0  0  0
  191.7630  172.2120  137.8340 C   0  0  0  0  0  3  0  0  0  0  0  0
  189.7800  170.7910  137.4310 C   0  0  0  0  0  2  0  0  0  0  0  0
  190.3450  171.4820  141.7130 N   0  0  0  0  0  0  0  0  0  0  0  0
  190.1470  171.9160  140.6600 C   0  0  0  0  0  0  0  0  0  0  0  0
  186.8470  177.4370  140.9980 C   0  0  0  0  0  2  0  0  0  0  0  0
  185.2980  178.3090  142.7830 C   0  0  0  0  0  0  0  0  0  0  0  0
  186.6140  178.1600  142.2380 N   0  0  0  0  0  2  0  0  0  0  0  0
  184.2920  177.9290  142.1320 O   0  0  0  0  0  0  0  0  0  0  0  0
  184.8460  178.0000  145.1760 C   0  0  2  0  0  3  0  0  0  0  0  0
  184.0530  178.6630  146.2820 C   0  0  0  0  0  1  0  0  0  0  0  0
  186.2040  178.6530  145.0680 C   0  0  0  0  0  2  0  0  0  0  0  0
  185.1090  179.0200  144.0860 C   0  0  1  0  0  3  0  0  0  0  0  0
  1  4  1  0  0  0  0
  1  3  1  1  0  0  0
  2 31  1  1  0  0  0
  2  1  1  0  0  0  0
  2  4  1  0  0  0  0
  4  3  1  1  0  0  0
  5  4  1  0  0  0  0
  5 16  1  6  0  0  0
  5 14  1  0  0  0  0
  6  9  1  6  0  0  0
  6  8  1  0  0  0  0
  7 12  1  0  0  0  0
  8 12  2  0  0  0  0
  8  5  1  0  0  0  0
 10 19  1  1  0  0  0
 10  6  1  0  0  0  0
 10  7  1  0  0  0  0
 11 17  1  0  0  0  0
 12 11  1  0  0  0  0
 14 16  1  6  0  0  0
 14 17  1  0  0  0  0
 15  7  1  0  0  0  0
 15 13  2  0  0  0  0
 19 18  2  0  0  0  0
 20 29  1  6  0  0  0
 20 15  1  0  0  0  0
 21 22  1  0  0  0  0
 21 20  1  0  0  0  0
 23 21  1  0  0  0  0
 24 21  1  0  0  0  0
 25 24  1  0  0  0  0
 26 27  2  0  0  0  0
 27 28  1  0  0  0  0
 27 25  1  0  0  0  0
 29 30  1  0  0  0  0
 32 31  1  0  0  0  0
 33 47  1  6  0  0  0
 33 32  1  0  0  0  0
 34 35  1  0  0  0  0
 34 33  1  0  0  0  0
 36 46  1  0  0  0  0
 37 38  2  0  0  0  0
 38 36  1  0  0  0  0
 38 35  1  0  0  0  0
 39 44  1  0  0  0  0
 40 43  1  0  0  0  0
 41 39  1  0  0  0  0
 41 40  1  0  0  0  0
 42 36  1  0  0  0  0
 43 42  2  0  0  0  0
 44 42  1  0  0  0  0
 46 45  3  0  0  0  0
 47 49  1  0  0  0  0
 49 48  1  0  0  0  0
 50 48  2  0  0  0  0
 51 52  1  1  0  0  0
 53 51  1  0  0  0  0
 54 48  1  6  0  0  0
 54 53  1  0  0  0  0
 54 51  1  0  0  0  0
M  END
>  <MODEL>
6

>  <REMARK>
 VINA RESULT:      -5.5      2.799      8.459
  Name = 
  19 active torsions:
  status: ('A' for Active; 'I' for Inactive)
    1  A    between atoms: C_1  and  C_30
    2  A    between atoms: C_5  and  C_21
    3  A    between atoms: C_5  and  C_29
    4  A    between atoms: C_13  and  C_50
    5  A    between atoms: C_14  and  C_21
    6  A    between atoms: N_16  and  C_20
    7  A    between atoms: N_16  and  C_45
    8  A    between atoms: C_19  and  C_25
    9  A    between atoms: C_21  and  C_41
   10  A    between atoms: C_24  and  C_25
   11  A    between atoms: C_24  and  C_51
   12  A    between atoms: C_29  and  O_53
   13  A    between atoms: C_31  and  C_49
   14  A    between atoms: C_35  and  O_53
   15  A    between atoms: N_36  and  C_42
   16  A    between atoms: C_42  and  C_51
   17  A    between atoms: C_43  and  O_47
   18  A    between atoms: C_43  and  C_54
   19  A    between atoms: O_47  and  C_51
                            x       y       z     vdW  Elec       q    Type
                         _______ _______ _______ _____ _____    ______ ____

>  <TORSDO>
F 19

$$$$
=
 OpenBabel11062419143D

 54 60  0  0  1  0  0  0  0  0999 V2000
  188.9410  176.2110  145.1820 C   0  0  2  0  0  3  0  0  0  0  0  0
  189.3380  176.8540  143.8750 C   0  0  2  0  0  3  0  0  0  0  0  0
  189.0740  177.1180  146.2510 O   0  0  0  0  0  0  0  0  0  0  0  0
  189.9840  177.2770  145.1860 C   0  0  1  0  0  0  0  0  0  0  0  0
  191.3630  176.6280  145.4680 C   0  0  2  0  0  0  0  0  0  0  0  0
  192.2180  176.3780  142.9190 C   0  0  1  0  0  3  0  0  0  0  0  0
  193.8540  174.7350  143.4360 N   0  0  0  0  0  0  0  0  0  0  0  0
  192.1880  175.9750  144.3630 C   0  0  0  0  0  0  0  0  0  0  0  0
  192.6160  177.7100  142.8030 O   0  0  0  0  0  1  0  0  0  0  0  0
  193.3010  175.4800  142.3100 C   0  0  1  0  0  3  0  0  0  0  0  0
  193.4500  174.6030  145.9830 C   0  0  0  0  0  2  0  0  0  0  0  0
  193.1020  175.0530  144.5990 C   0  0  0  0  0  0  0  0  0  0  0  0
  195.4690  173.3200  144.3500 O   0  0  0  0  0  0  0  0  0  0  0  0
  191.3600  175.9030  146.8200 C   0  0  2  0  0  3  0  0  0  0  0  0
  195.1540  174.1320  143.4380 C   0  0  0  0  0  0  0  0  0  0  0  0
  192.1850  177.1680  146.6380 C   0  0  0  0  0  2  0  0  0  0  0  0
  192.2040  174.6090  146.8680 C   0  0  0  0  0  2  0  0  0  0  0  0
  193.1240  174.5070  140.1510 O   0  0  0  0  0  0  0  0  0  0  0  0
  192.7070  174.5410  141.3000 C   0  0  0  0  0  3  0  0  0  0  0  0
  196.1760  174.5420  142.4060 C   0  0  2  0  0  3  0  0  0  0  0  0
  196.7170  173.4010  141.5170 C   0  0  0  0  0  0  0  0  0  0  0  0
  197.6380  172.6420  142.2440 O   0  0  0  0  0  1  0  0  0  0  0  0
  195.6760  172.5630  141.1110 O   0  0  0  0  0  1  0  0  0  0  0  0
  197.4110  173.9560  140.2740 C   0  0  0  0  0  2  0  0  0  0  0  0
  196.5260  174.7720  139.5150 O   0  0  0  0  0  0  0  0  0  0  0  0
  196.5590  173.3600  137.7130 O   0  0  0  0  0  1  0  0  0  0  0  0
  196.2080  174.4660  138.1960 C   0  0  0  0  0  0  0  0  0  0  0  0
  195.4880  175.3630  137.4110 O   0  0  0  0  0  0  0  0  0  0  0  0
  197.2760  175.3930  143.0430 C   0  0  0  0  0  2  0  0  0  0  0  0
  196.7690  176.6070  143.5010 O   0  0  0  0  0  1  0  0  0  0  0  0
  188.2690  177.8430  143.4540 C   0  0  0  0  0  2  0  0  0  0  0  0
  188.2590  177.9850  141.9450 C   0  0  0  0  0  2  0  0  0  0  0  0
  187.0560  177.2770  141.3420 C   0  0  1  0  0  3  0  0  0  0  0  0
  187.0960  175.9090  141.6330 O   0  0  0  0  0  0  0  0  0  0  0  0
  187.8220  175.3390  140.5840 C   0  0  0  0  0  2  0  0  0  0  0  0
  189.3270  173.3060  140.1610 N   0  0  0  0  0  0  0  0  0  0  0  0
  188.6760  173.9740  142.3220 O   0  0  0  0  0  0  0  0  0  0  0  0
  188.6330  174.1800  141.0800 C   0  0  0  0  0  0  0  0  0  0  0  0
  190.8950  170.5460  142.3800 C   0  0  0  0  0  2  0  0  0  0  0  0
  191.4360  170.1170  140.1280 C   0  0  0  0  0  2  0  0  0  0  0  0
  190.8560  169.5310  141.3330 N   0  0  0  0  0  2  0  0  0  0  0  0
  190.0340  172.1210  140.5970 C   0  0  0  0  0  0  0  0  0  0  0  0
  190.6760  171.3450  139.7090 C   0  0  0  0  0  3  0  0  0  0  0  0
  189.9200  171.6730  142.0400 C   0  0  0  0  0  2  0  0  0  0  0  0
  189.1710  173.7770  137.6500 N   0  0  0  0  0  0  0  0  0  0  0  0
  189.2390  173.5620  138.7850 C   0  0  0  0  0  0  0  0  0  0  0  0
  185.7640  177.8690  141.8880 C   0  0  0  0  0  2  0  0  0  0  0  0
  185.2840  178.2730  144.3280 C   0  0  0  0  0  0  0  0  0  0  0  0
  185.5170  177.3780  143.2340 N   0  0  0  0  0  2  0  0  0  0  0  0
  185.4160  179.5140  144.1750 O   0  0  0  0  0  0  0  0  0  0  0  0
  185.5650  178.6530  146.7360 C   0  0  2  0  0  3  0  0  0  0  0  0
  185.8440  177.8530  147.9920 C   0  0  0  0  0  1  0  0  0  0  0  0
  184.0800  178.6600  146.4630 C   0  0  0  0  0  2  0  0  0  0  0  0
  184.9860  177.7240  145.6880 C   0  0  1  0  0  3  0  0  0  0  0  0
  1  4  1  0  0  0  0
  1  3  1  1  0  0  0
  2 31  1  1  0  0  0
  2  1  1  0  0  0  0
  2  4  1  0  0  0  0
  4  5  1  0  0  0  0
  4  3  1  1  0  0  0
  5 16  1  1  0  0  0
  5 14  1  0  0  0  0
  6  9  1  1  0  0  0
  6  8  1  0  0  0  0
  7 15  1  0  0  0  0
  7 12  1  0  0  0  0
  8 12  2  0  0  0  0
  8  5  1  0  0  0  0
 10 19  1  6  0  0  0
 10  6  1  0  0  0  0
 10  7  1  0  0  0  0
 11 17  1  0  0  0  0
 12 11  1  0  0  0  0
 14 16  1  1  0  0  0
 14 17  1  0  0  0  0
 15 13  2  0  0  0  0
 18 19  2  0  0  0  0
 20 29  1  1  0  0  0
 20 15  1  0  0  0  0
 21 22  1  0  0  0  0
 21 20  1  0  0  0  0
 23 21  1  0  0  0  0
 24 21  1  0  0  0  0
 25 24  1  0  0  0  0
 26 27  1  0  0  0  0
 27 25  1  0  0  0  0
 28 27  2  0  0  0  0
 29 30  1  0  0  0  0
 32 31  1  0  0  0  0
 33 34  1  0  0  0  0
 33 47  1  1  0  0  0
 33 32  1  0  0  0  0
 35 38  1  0  0  0  0
 35 34  1  0  0  0  0
 36 42  1  0  0  0  0
 36 38  1  0  0  0  0
 38 37  2  0  0  0  0
 40 41  1  0  0  0  0
 41 39  1  0  0  0  0
 42 44  1  0  0  0  0
 43 40  1  0  0  0  0
 43 42  2  0  0  0  0
 44 39  1  0  0  0  0
 45 46  3  0  0  0  0
 46 36  1  0  0  0  0
 47 49  1  0  0  0  0
 49 48  1  0  0  0  0
 50 48  2  0  0  0  0
 51 52  1  1  0  0  0
 53 51  1  0  0  0  0
 54 48  1  6  0  0  0
 54 53  1  0  0  0  0
 54 51  1  0  0  0  0
M  END
>  <MODEL>
7

>  <REMARK>
 VINA RESULT:      -5.5      2.748      8.786
  Name = 
  19 active torsions:
  status: ('A' for Active; 'I' for Inactive)
    1  A    between atoms: C_1  and  C_30
    2  A    between atoms: C_5  and  C_21
    3  A    between atoms: C_5  and  C_29
    4  A    between atoms: C_13  and  C_50
    5  A    between atoms: C_14  and  C_21
    6  A    between atoms: N_16  and  C_20
    7  A    between atoms: N_16  and  C_45
    8  A    between atoms: C_19  and  C_25
    9  A    between atoms: C_21  and  C_41
   10  A    between atoms: C_24  and  C_25
   11  A    between atoms: C_24  and  C_51
   12  A    between atoms: C_29  and  O_53
   13  A    between atoms: C_31  and  C_49
   14  A    between atoms: C_35  and  O_53
   15  A    between atoms: N_36  and  C_42
   16  A    between atoms: C_42  and  C_51
   17  A    between atoms: C_43  and  O_47
   18  A    between atoms: C_43  and  C_54
   19  A    between atoms: O_47  and  C_51
                            x       y       z     vdW  Elec       q    Type
                         _______ _______ _______ _____ _____    ______ ____

>  <TORSDO>
F 19

$$$$
=
 OpenBabel11062419143D

 54 60  0  0  1  0  0  0  0  0999 V2000
  188.3290  174.6520  141.8930 C   0  0  2  0  0  3  0  0  0  0  0  0
  189.7170  174.3530  142.4030 C   0  0  2  0  0  3  0  0  0  0  0  0
  187.5080  173.5100  141.9620 O   0  0  0  0  0  0  0  0  0  0  0  0
  188.8790  173.2760  141.7300 C   0  0  1  0  0  0  0  0  0  0  0  0
  189.2070  173.0410  140.2330 C   0  0  2  0  0  0  0  0  0  0  0  0
  191.8120  172.3770  140.4920 C   0  0  1  0  0  3  0  0  0  0  0  0
  192.3400  172.8260  138.2200 N   0  0  0  0  0  0  0  0  0  0  0  0
  190.6430  172.9280  139.7300 C   0  0  0  0  0  0  0  0  0  0  0  0
  191.5540  171.0610  140.8740 O   0  0  0  0  0  1  0  0  0  0  0  0
  192.9530  172.3840  139.4680 C   0  0  1  0  0  3  0  0  0  0  0  0
  189.9870  173.5360  137.4290 C   0  0  0  0  0  2  0  0  0  0  0  0
  190.9870  173.1750  138.4810 C   0  0  0  0  0  0  0  0  0  0  0  0
  192.4260  173.1620  135.9120 O   0  0  0  0  0  0  0  0  0  0  0  0
  188.2400  173.8210  139.3330 C   0  0  2  0  0  3  0  0  0  0  0  0
  192.8840  172.5590  136.9210 C   0  0  0  0  0  0  0  0  0  0  0  0
  188.1760  172.3030  139.3800 C   0  0  0  0  0  2  0  0  0  0  0  0
  188.8660  174.3800  138.0340 C   0  0  0  0  0  2  0  0  0  0  0  0
  193.8130  174.5310  140.0060 O   0  0  0  0  0  0  0  0  0  0  0  0
  194.0370  173.3340  139.8870 C   0  0  0  0  0  3  0  0  0  0  0  0
  193.9340  171.4900  136.7490 C   0  0  2  0  0  3  0  0  0  0  0  0
  195.2590  171.9560  136.1070 C   0  0  0  0  0  0  0  0  0  0  0  0
  196.2390  170.9780  136.3010 O   0  0  0  0  0  1  0  0  0  0  0  0
  195.0930  172.1490  134.7330 O   0  0  0  0  0  1  0  0  0  0  0  0
  195.7420  173.2640  136.7300 C   0  0  0  0  0  2  0  0  0  0  0  0
  196.2410  174.1510  135.7360 O   0  0  0  0  0  0  0  0  0  0  0  0
  194.7610  175.8880  135.5540 O   0  0  0  0  0  0  0  0  0  0  0  0
  195.9420  175.5100  135.7580 C   0  0  0  0  0  0  0  0  0  0  0  0
  196.9330  176.4520  136.0210 O   0  0  0  0  0  1  0  0  0  0  0  0
  193.3380  170.2480  136.0840 C   0  0  0  0  0  2  0  0  0  0  0  0
  192.2320  169.7830  136.7920 O   0  0  0  0  0  1  0  0  0  0  0  0
  189.6800  174.2040  143.9120 C   0  0  0  0  0  2  0  0  0  0  0  0
  191.0840  174.2930  144.4770 C   0  0  0  0  0  2  0  0  0  0  0  0
  191.2000  175.4460  145.4610 C   0  0  1  0  0  3  0  0  0  0  0  0
  190.0750  175.4980  146.2910 O   0  0  0  0  0  0  0  0  0  0  0  0
  189.7980  176.8610  146.4350 C   0  0  0  0  0  2  0  0  0  0  0  0
  187.8730  177.5890  144.9050 N   0  0  0  0  0  0  0  0  0  0  0  0
  187.5410  176.9550  147.1480 O   0  0  0  0  0  0  0  0  0  0  0  0
  188.3440  177.1260  146.1920 C   0  0  0  0  0  0  0  0  0  0  0  0
  184.2850  178.9790  145.3530 C   0  0  0  0  0  2  0  0  0  0  0  0
  184.4420  177.9230  143.2530 C   0  0  0  0  0  2  0  0  0  0  0  0
  184.0630  179.1640  143.9220 N   0  0  0  0  0  2  0  0  0  0  0  0
  186.4920  177.9500  144.6650 C   0  0  0  0  0  0  0  0  0  0  0  0
  185.8790  177.5800  143.5290 C   0  0  0  0  0  3  0  0  0  0  0  0
  185.7850  178.8800  145.6300 C   0  0  0  0  0  2  0  0  0  0  0  0
  189.5710  177.9430  143.0240 N   0  0  0  0  0  0  0  0  0  0  0  0
  188.8030  177.7810  143.8730 C   0  0  0  0  0  0  0  0  0  0  0  0
  192.4480  175.2850  146.3190 C   0  0  0  0  0  2  0  0  0  0  0  0
  194.5730  175.9930  145.1660 C   0  0  0  0  0  0  0  0  0  0  0  0
  193.5990  174.9910  145.4790 N   0  0  0  0  0  2  0  0  0  0  0  0
  194.3890  177.1900  145.5040 O   0  0  0  0  0  0  0  0  0  0  0  0
  195.3820  174.5540  143.3480 C   0  0  2  0  0  3  0  0  0  0  0  0
  196.6220  173.7630  142.9850 C   0  0  0  0  0  1  0  0  0  0  0  0
  195.5390  175.9820  142.8790 C   0  0  0  0  0  2  0  0  0  0  0  0
  195.7680  175.6350  144.3380 C   0  0  1  0  0  3  0  0  0  0  0  0
  1  3  1  1  0  0  0
  1  2  1  0  0  0  0
  2 31  1  1  0  0  0
  4  1  1  0  0  0  0
  4  3  1  1  0  0  0
  4  2  1  0  0  0  0
  5 16  1  6  0  0  0
  5  4  1  0  0  0  0
  6  9  1  6  0  0  0
  7 12  1  0  0  0  0
  7 10  1  0  0  0  0
  8  5  1  0  0  0  0
  8  6  1  0  0  0  0
 10 19  1  1  0  0  0
 10  6  1  0  0  0  0
 11 17  1  0  0  0  0
 11 12  1  0  0  0  0
 12  8  2  0  0  0  0
 13 15  2  0  0  0  0
 14 17  1  6  0  0  0
 14 16  1  0  0  0  0
 14  5  1  0  0  0  0
 15  7  1  0  0  0  0
 19 18  2  0  0  0  0
 20 29  1  6  0  0  0
 20 15  1  0  0  0  0
 21 22  1  0  0  0  0
 21 24  1  0  0  0  0
 21 20  1  0  0  0  0
 23 21  1  0  0  0  0
 25 27  1  0  0  0  0
 25 24  1  0  0  0  0
 26 27  2  0  0  0  0
 27 28  1  0  0  0  0
 29 30  1  0  0  0  0
 31 32  1  0  0  0  0
 33 32  1  6  0  0  0
 33 34  1  0  0  0  0
 33 47  1  0  0  0  0
 34 35  1  0  0  0  0
 36 38  1  0  0  0  0
 38 35  1  0  0  0  0
 38 37  2  0  0  0  0
 39 44  1  0  0  0  0
 40 43  1  0  0  0  0
 40 41  1  0  0  0  0
 41 39  1  0  0  0  0
 42 36  1  0  0  0  0
 42 44  1  0  0  0  0
 43 42  2  0  0  0  0
 45 46  3  0  0  0  0
 46 36  1  0  0  0  0
 48 49  1  0  0  0  0
 48 50  2  0  0  0  0
 49 47  1  0  0  0  0
 51 52  1  6  0  0  0
 51 54  1  0  0  0  0
 53 51  1  0  0  0  0
 53 54  1  0  0  0  0
 54 48  1  1  0  0  0
M  END
>  <MODEL>
8

>  <REMARK>
 VINA RESULT:      -5.5      3.019      9.606
  Name = 
  19 active torsions:
  status: ('A' for Active; 'I' for Inactive)
    1  A    between atoms: C_1  and  C_30
    2  A    between atoms: C_5  and  C_21
    3  A    between atoms: C_5  and  C_29
    4  A    between atoms: C_13  and  C_50
    5  A    between atoms: C_14  and  C_21
    6  A    between atoms: N_16  and  C_20
    7  A    between atoms: N_16  and  C_45
    8  A    between atoms: C_19  and  C_25
    9  A    between atoms: C_21  and  C_41
   10  A    between atoms: C_24  and  C_25
   11  A    between atoms: C_24  and  C_51
   12  A    between atoms: C_29  and  O_53
   13  A    between atoms: C_31  and  C_49
   14  A    between atoms: C_35  and  O_53
   15  A    between atoms: N_36  and  C_42
   16  A    between atoms: C_42  and  C_51
   17  A    between atoms: C_43  and  O_47
   18  A    between atoms: C_43  and  C_54
   19  A    between atoms: O_47  and  C_51
                            x       y       z     vdW  Elec       q    Type
                         _______ _______ _______ _____ _____    ______ ____

>  <TORSDO>
F 19

$$$$
=
 OpenBabel11062419143D

 54 60  0  0  1  0  0  0  0  0999 V2000
  192.0070  174.8620  144.8500 C   0  0  2  0  0  3  0  0  0  0  0  0
  192.3570  175.9590  145.8260 C   0  0  2  0  0  3  0  0  0  0  0  0
  192.2940  173.5940  145.3910 O   0  0  0  0  0  0  0  0  0  0  0  0
  193.1320  174.6490  145.8060 C   0  0  1  0  0  0  0  0  0  0  0  0
  194.4700  174.7010  145.0250 C   0  0  2  0  0  0  0  0  0  0  0  0
  193.5410  174.0060  142.5870 C   0  0  1  0  0  3  0  0  0  0  0  0
  195.6740  173.3670  141.7560 N   0  0  0  0  0  0  0  0  0  0  0  0
  194.6150  174.1000  143.6310 C   0  0  0  0  0  0  0  0  0  0  0  0
  193.0570  175.2790  142.2850 O   0  0  0  0  0  1  0  0  0  0  0  0
  194.2720  173.4480  141.3600 C   0  0  1  0  0  3  0  0  0  0  0  0
  197.0650  173.9020  143.8640 C   0  0  0  0  0  2  0  0  0  0  0  0
  195.7750  173.7230  143.1280 C   0  0  0  0  0  0  0  0  0  0  0  0
  197.9250  173.0440  141.2350 O   0  0  0  0  0  0  0  0  0  0  0  0
  195.6620  174.4970  145.9700 C   0  0  2  0  0  3  0  0  0  0  0  0
  196.7680  173.3410  140.8310 C   0  0  0  0  0  0  0  0  0  0  0  0
  195.4300  175.8530  145.3230 C   0  0  0  0  0  2  0  0  0  0  0  0
  196.8470  173.7100  145.3650 C   0  0  0  0  0  2  0  0  0  0  0  0
  193.0780  171.4420  141.7990 O   0  0  0  0  0  0  0  0  0  0  0  0
  193.7470  172.0870  141.0030 C   0  0  0  0  0  3  0  0  0  0  0  0
  196.5530  173.7620  139.3980 C   0  0  2  0  0  3  0  0  0  0  0  0
  196.5860  172.6210  138.3580 C   0  0  0  0  0  0  0  0  0  0  0  0
  197.5230  172.9240  137.3650 O   0  0  0  0  0  1  0  0  0  0  0  0
  196.9580  171.4190  138.9640 O   0  0  0  0  0  1  0  0  0  0  0  0
  195.2190  172.4360  137.7020 C   0  0  0  0  0  2  0  0  0  0  0  0
  195.0780  173.2820  136.5660 O   0  0  0  0  0  0  0  0  0  0  0  0
  194.6770  175.5220  136.8180 O   0  0  0  0  0  1  0  0  0  0  0  0
  194.2190  174.3760  136.5770 C   0  0  0  0  0  0  0  0  0  0  0  0
  192.8630  174.2190  136.3050 O   0  0  0  0  0  0  0  0  0  0  0  0
  197.4610  174.9410  139.0390 C   0  0  0  0  0  2  0  0  0  0  0  0
  197.3990  175.9350  140.0130 O   0  0  0  0  0  1  0  0  0  0  0  0
  191.3450  175.9710  146.9550 C   0  0  0  0  0  2  0  0  0  0  0  0
  189.9520  175.7310  146.4060 C   0  0  0  0  0  2  0  0  0  0  0  0
  189.3210  177.0330  145.9420 C   0  0  1  0  0  3  0  0  0  0  0  0
  188.8610  176.9140  144.6260 O   0  0  0  0  0  0  0  0  0  0  0  0
  188.8740  175.5410  144.3650 C   0  0  0  0  0  2  0  0  0  0  0  0
  189.1460  173.9640  142.3610 N   0  0  0  0  0  0  0  0  0  0  0  0
  188.7740  176.2750  142.1150 O   0  0  0  0  0  0  0  0  0  0  0  0
  188.9180  175.2920  142.8880 C   0  0  0  0  0  0  0  0  0  0  0  0
  188.3960  173.5130  138.5870 C   0  0  0  0  0  2  0  0  0  0  0  0
  190.6580  172.9920  138.9860 C   0  0  0  0  0  2  0  0  0  0  0  0
  189.7630  173.8070  138.1700 N   0  0  0  0  0  2  0  0  0  0  0  0
  189.2950  173.7040  140.9450 C   0  0  0  0  0  0  0  0  0  0  0  0
  190.4710  173.2880  140.4490 C   0  0  0  0  0  3  0  0  0  0  0  0
  188.1630  174.0510  139.9990 C   0  0  0  0  0  2  0  0  0  0  0  0
  189.4620  172.0190  143.9930 N   0  0  0  0  0  0  0  0  0  0  0  0
  189.3170  172.8990  143.2570 C   0  0  0  0  0  0  0  0  0  0  0  0
  188.1560  177.4090  146.8480 C   0  0  0  0  0  2  0  0  0  0  0  0
  186.1380  178.8880  146.5550 C   0  0  0  0  0  0  0  0  0  0  0  0
  187.0390  177.8940  146.0530 N   0  0  0  0  0  2  0  0  0  0  0  0
  186.2140  179.2740  147.7490 O   0  0  0  0  0  0  0  0  0  0  0  0
  184.5790  178.2860  144.7570 C   0  0  2  0  0  3  0  0  0  0  0  0
  183.9740  178.9070  143.5150 C   0  0  0  0  0  1  0  0  0  0  0  0
  183.7400  178.6460  145.9610 C   0  0  0  0  0  2  0  0  0  0  0  0
  185.0300  179.3950  145.6860 C   0  0  1  0  0  3  0  0  0  0  0  0
  1  3  1  1  0  0  0
  1  4  1  0  0  0  0
  1  2  1  0  0  0  0
  2 31  1  1  0  0  0
  4  3  1  1  0  0  0
  4  2  1  0  0  0  0
  5 16  1  6  0  0  0
  5  4  1  0  0  0  0
  5 14  1  0  0  0  0
  6  9  1  6  0  0  0
  6  8  1  0  0  0  0
  7 12  1  0  0  0  0
  8  5  1  0  0  0  0
 10 19  1  1  0  0  0
 10  7  1  0  0  0  0
 10  6  1  0  0  0  0
 11 17  1  0  0  0  0
 12  8  2  0  0  0  0
 12 11  1  0  0  0  0
 14 16  1  6  0  0  0
 15 13  2  0  0  0  0
 15  7  1  0  0  0  0
 17 14  1  0  0  0  0
 19 18  2  0  0  0  0
 20 29  1  6  0  0  0
 20 15  1  0  0  0  0
 21 23  1  0  0  0  0
 21 20  1  0  0  0  0
 22 21  1  0  0  0  0
 24 21  1  0  0  0  0
 25 27  1  0  0  0  0
 25 24  1  0  0  0  0
 27 26  1  0  0  0  0
 28 27  2  0  0  0  0
 29 30  1  0  0  0  0
 32 31  1  0  0  0  0
 33 32  1  1  0  0  0
 33 47  1  0  0  0  0
 34 33  1  0  0  0  0
 35 34  1  0  0  0  0
 36 38  1  0  0  0  0
 36 46  1  0  0  0  0
 37 38  2  0  0  0  0
 38 35  1  0  0  0  0
 39 44  1  0  0  0  0
 40 43  1  0  0  0  0
 41 39  1  0  0  0  0
 41 40  1  0  0  0  0
 42 36  1  0  0  0  0
 43 42  2  0  0  0  0
 44 42  1  0  0  0  0
 46 45  3  0  0  0  0
 48 50  2  0  0  0  0
 49 48  1  0  0  0  0
 49 47  1  0  0  0  0
 51 52  1  6  0  0  0
 51 54  1  0  0  0  0
 51 53  1  0  0  0  0
 54 53  1  0  0  0  0
 54 48  1  1  0  0  0
M  END
>  <MODEL>
9

>  <REMARK>
 VINA RESULT:      -5.5      2.611      9.058
  Name = 
  19 active torsions:
  status: ('A' for Active; 'I' for Inactive)
    1  A    between atoms: C_1  and  C_30
    2  A    between atoms: C_5  and  C_21
    3  A    between atoms: C_5  and  C_29
    4  A    between atoms: C_13  and  C_50
    5  A    between atoms: C_14  and  C_21
    6  A    between atoms: N_16  and  C_20
    7  A    between atoms: N_16  and  C_45
    8  A    between atoms: C_19  and  C_25
    9  A    between atoms: C_21  and  C_41
   10  A    between atoms: C_24  and  C_25
   11  A    between atoms: C_24  and  C_51
   12  A    between atoms: C_29  and  O_53
   13  A    between atoms: C_31  and  C_49
   14  A    between atoms: C_35  and  O_53
   15  A    between atoms: N_36  and  C_42
   16  A    between atoms: C_42  and  C_51
   17  A    between atoms: C_43  and  O_47
   18  A    between atoms: C_43  and  C_54
   19  A    between atoms: O_47  and  C_51
                            x       y       z     vdW  Elec       q    Type
                         _______ _______ _______ _____ _____    ______ ____

>  <TORSDO>
F 19

$$$$
