=
 OpenBabel11062418553D

 33 35  0  0  1  0  0  0  0  0999 V2000
  188.9690  173.5940  142.4380 C   0  0  0  0  0  3  0  0  0  0  0  0
  189.4730  174.9170  144.4100 C   0  0  0  0  0  0  0  0  0  0  0  0
  189.5940  173.7240  143.6820 C   0  0  0  0  0  3  0  0  0  0  0  0
  188.7110  175.9670  143.8930 C   0  0  0  0  0  3  0  0  0  0  0  0
  188.0800  175.8410  142.6510 C   0  0  0  0  0  0  0  0  0  0  0  0
  188.2110  174.6500  141.9240 C   0  0  0  0  0  3  0  0  0  0  0  0
  190.0910  175.0690  145.7640 C   0  0  2  0  0  3  0  0  0  0  0  0
  189.2070  174.6740  146.7730 O   0  0  0  0  0  1  0  0  0  0  0  0
  190.1100  177.1020  147.2940 C   0  0  0  0  0  1  0  0  0  0  0  0
  190.6120  176.4910  145.9930 C   0  0  1  0  0  3  0  0  0  0  0  0
  194.1090  176.5040  145.2530 C   0  0  0  0  0  0  0  0  0  0  0  0
  192.0670  176.5160  145.9370 N   0  0  0  0  0  0  0  0  0  0  0  0
  192.8680  176.4860  146.9920 N   0  0  0  0  0  0  0  0  0  0  0  0
  194.1310  176.4860  146.6000 N   0  0  0  0  0  0  0  0  0  0  0  0
  192.8020  176.5250  144.8120 C   0  0  0  0  0  3  0  0  0  0  0  0
  195.3260  176.5430  144.3940 C   0  0  0  0  0  2  0  0  0  0  0  0
  196.8220  174.6390  144.9910 O   0  0  0  0  0  1  0  0  0  0  0  0
  195.4020  174.4860  143.1970 O   0  0  0  0  0  0  0  0  0  0  0  0
  195.8400  175.1640  144.1630 C   0  0  0  0  0  0  0  0  0  0  0  0
  187.2360  176.9750  142.1500 C   0  0  1  0  0  3  0  0  0  0  0  0
  187.3800  177.1540  140.7240 N   0  0  0  0  0  0  0  0  0  0  0  0
  186.3900  177.3530  139.9940 N   0  0  0  0  0  2  0  0  0  0  0  0
  185.8310  176.7960  142.5060 N   0  0  0  0  0  2  0  0  0  0  0  0
  185.9960  179.4150  142.8390 O   0  0  0  0  0  0  0  0  0  0  0  0
  185.2810  178.2010  143.3650 S   0  0  0  0  0  0  0  0  0  0  0  0
  183.8050  178.3800  143.1400 O   0  0  0  0  0  0  0  0  0  0  0  0
  186.0780  177.7860  147.8320 C   0  0  0  0  0  3  0  0  0  0  0  0
  186.0800  180.1630  148.0330 F   0  0  0  0  0  0  0  0  0  0  0  0
  185.9600  179.0570  147.2590 C   0  0  0  0  0  0  0  0  0  0  0  0
  185.7140  176.7740  145.6620 C   0  0  0  0  0  3  0  0  0  0  0  0
  185.5990  178.0440  145.0860 C   0  0  0  0  0  0  0  0  0  0  0  0
  185.7200  179.1850  145.8870 C   0  0  0  0  0  3  0  0  0  0  0  0
  185.9540  176.6450  147.0340 C   0  0  0  0  0  3  0  0  0  0  0  0
  1  3  1  0  0  0  0
  2  7  1  0  0  0  0
  3  2  2  0  0  0  0
  4  2  1  0  0  0  0
  5  4  2  0  0  0  0
  6  1  2  0  0  0  0
  6  5  1  0  0  0  0
  7 10  1  0  0  0  0
  7  8  1  1  0  0  0
 10  9  1  1  0  0  0
 11 14  1  0  0  0  0
 12 10  1  0  0  0  0
 12 13  1  0  0  0  0
 14 13  2  0  0  0  0
 15 11  2  0  0  0  0
 15 12  1  0  0  0  0
 16 11  1  0  0  0  0
 18 19  2  0  0  0  0
 19 16  1  0  0  0  0
 19 17  1  0  0  0  0
 20 21  1  6  0  0  0
 20 23  1  0  0  0  0
 20  5  1  0  0  0  0
 22 21  2  0  0  0  0
 23 25  1  0  0  0  0
 24 25  2  0  0  0  0
 25 31  1  0  0  0  0
 26 25  2  0  0  0  0
 29 27  1  0  0  0  0
 29 28  1  0  0  0  0
 30 33  1  0  0  0  0
 31 30  2  0  0  0  0
 31 32  1  0  0  0  0
 32 29  2  0  0  0  0
 33 27  2  0  0  0  0
M  END
>  <MODEL>
1

>  <REMARK>
 VINA RESULT:      -7.6      0.000      0.000
  Name = 
  10 active torsions:
  status: ('A' for Active; 'I' for Inactive)
    1  A    between atoms: C_2  and  C_18
    2  A    between atoms: N_4  and  C_15
    3  A    between atoms: C_6  and  C_20
    4  A    between atoms: N_10  and  C_26
    5  A    between atoms: C_15  and  C_27
    6  A    between atoms: C_15  and  N_30
    7  A    between atoms: S_17  and  C_21
    8  A    between atoms: S_17  and  N_30
    9  A    between atoms: C_18  and  C_33
   10  A    between atoms: C_20  and  C_26
                            x       y       z     vdW  Elec       q    Type
                         _______ _______ _______ _____ _____    ______ ____

>  <TORSDO>
F 10

$$$$
=
 OpenBabel11062418553D

 33 35  0  0  1  0  0  0  0  0999 V2000
  189.5830  172.0900  143.8510 C   0  0  0  0  0  3  0  0  0  0  0  0
  189.7680  174.1570  145.1100 C   0  0  0  0  0  0  0  0  0  0  0  0
  189.8840  172.7610  145.0400 C   0  0  0  0  0  3  0  0  0  0  0  0
  189.3340  174.8710  143.9900 C   0  0  0  0  0  3  0  0  0  0  0  0
  189.0280  174.2040  142.7990 C   0  0  0  0  0  0  0  0  0  0  0  0
  189.1540  172.8100  142.7320 C   0  0  0  0  0  3  0  0  0  0  0  0
  190.0370  174.8990  146.3810 C   0  0  2  0  0  3  0  0  0  0  0  0
  188.9280  174.8660  147.2320 O   0  0  0  0  0  1  0  0  0  0  0  0
  189.9930  177.3240  147.1500 C   0  0  0  0  0  1  0  0  0  0  0  0
  190.5030  176.3320  146.1130 C   0  0  1  0  0  3  0  0  0  0  0  0
  193.9780  176.4040  145.2760 C   0  0  0  0  0  0  0  0  0  0  0  0
  191.9560  176.3870  146.0160 N   0  0  0  0  0  0  0  0  0  0  0  0
  192.7860  176.3930  147.0480 N   0  0  0  0  0  0  0  0  0  0  0  0
  194.0380  176.4130  146.6210 N   0  0  0  0  0  0  0  0  0  0  0  0
  192.6580  176.3900  144.8710 C   0  0  0  0  0  3  0  0  0  0  0  0
  195.1690  176.4530  144.3830 C   0  0  0  0  0  2  0  0  0  0  0  0
  195.0760  173.9640  144.2510 O   0  0  0  0  0  0  0  0  0  0  0  0
  197.0910  175.0480  144.4080 O   0  0  0  0  0  1  0  0  0  0  0  0
  195.8370  175.1220  144.3380 C   0  0  0  0  0  0  0  0  0  0  0  0
  188.5260  175.0020  141.6320 C   0  0  1  0  0  3  0  0  0  0  0  0
  188.4640  174.2030  140.4300 N   0  0  0  0  0  0  0  0  0  0  0  0
  188.1670  174.7090  139.3310 N   0  0  0  0  0  2  0  0  0  0  0  0
  187.2260  175.6050  141.9150 N   0  0  0  0  0  2  0  0  0  0  0  0
  188.8450  177.6940  141.8230 O   0  0  0  0  0  0  0  0  0  0  0  0
  187.3870  177.3330  141.8960 S   0  0  0  0  0  0  0  0  0  0  0  0
  186.6950  177.8880  140.6820 O   0  0  0  0  0  0  0  0  0  0  0  0
  185.5960  179.1900  145.6530 C   0  0  0  0  0  3  0  0  0  0  0  0
  186.6390  177.4930  146.9640 F   0  0  0  0  0  0  0  0  0  0  0  0
  186.3950  178.0460  145.7510 C   0  0  0  0  0  0  0  0  0  0  0  0
  185.8900  179.1870  143.2480 C   0  0  0  0  0  3  0  0  0  0  0  0
  186.6890  178.0410  143.3450 C   0  0  0  0  0  0  0  0  0  0  0  0
  186.9420  177.4730  144.5990 C   0  0  0  0  0  3  0  0  0  0  0  0
  185.3440  179.7600  144.4010 C   0  0  0  0  0  3  0  0  0  0  0  0
  1  3  1  0  0  0  0
  2  7  1  0  0  0  0
  3  2  2  0  0  0  0
  4  2  1  0  0  0  0
  5  4  2  0  0  0  0
  6  5  1  0  0  0  0
  6  1  2  0  0  0  0
  7  8  1  1  0  0  0
 10  7  1  0  0  0  0
 10  9  1  1  0  0  0
 11 14  1  0  0  0  0
 12 10  1  0  0  0  0
 12 13  1  0  0  0  0
 14 13  2  0  0  0  0
 15 11  2  0  0  0  0
 15 12  1  0  0  0  0
 16 11  1  0  0  0  0
 17 19  2  0  0  0  0
 19 16  1  0  0  0  0
 19 18  1  0  0  0  0
 20 21  1  6  0  0  0
 20 23  1  0  0  0  0
 20  5  1  0  0  0  0
 22 21  2  0  0  0  0
 24 25  2  0  0  0  0
 25 23  1  0  0  0  0
 25 31  1  0  0  0  0
 26 25  2  0  0  0  0
 27 29  1  0  0  0  0
 29 28  1  0  0  0  0
 30 31  2  0  0  0  0
 30 33  1  0  0  0  0
 31 32  1  0  0  0  0
 32 29  2  0  0  0  0
 33 27  2  0  0  0  0
M  END
>  <MODEL>
2

>  <REMARK>
 VINA RESULT:      -7.4      1.587      2.137
  Name = 
  10 active torsions:
  status: ('A' for Active; 'I' for Inactive)
    1  A    between atoms: C_2  and  C_18
    2  A    between atoms: N_4  and  C_15
    3  A    between atoms: C_6  and  C_20
    4  A    between atoms: N_10  and  C_26
    5  A    between atoms: C_15  and  C_27
    6  A    between atoms: C_15  and  N_30
    7  A    between atoms: S_17  and  C_21
    8  A    between atoms: S_17  and  N_30
    9  A    between atoms: C_18  and  C_33
   10  A    between atoms: C_20  and  C_26
                            x       y       z     vdW  Elec       q    Type
                         _______ _______ _______ _____ _____    ______ ____

>  <TORSDO>
F 10

$$$$
=
 OpenBabel11062418553D

 33 35  0  0  1  0  0  0  0  0999 V2000
  191.0670  178.1020  143.6530 C   0  0  0  0  0  3  0  0  0  0  0  0
  189.3620  176.7020  142.6430 C   0  0  0  0  0  0  0  0  0  0  0  0
  189.7330  177.8870  143.2940 C   0  0  0  0  0  3  0  0  0  0  0  0
  190.3290  175.7310  142.3700 C   0  0  0  0  0  3  0  0  0  0  0  0
  191.6640  175.9400  142.7300 C   0  0  0  0  0  0  0  0  0  0  0  0
  192.0310  177.1300  143.3730 C   0  0  0  0  0  3  0  0  0  0  0  0
  187.9350  176.4210  142.2900 C   0  0  2  0  0  3  0  0  0  0  0  0
  187.8330  175.3390  141.4100 O   0  0  0  0  0  1  0  0  0  0  0  0
  186.9030  177.5540  140.2580 C   0  0  0  0  0  1  0  0  0  0  0  0
  187.2320  177.6650  141.7410 C   0  0  1  0  0  3  0  0  0  0  0  0
  184.6720  178.4400  144.1140 C   0  0  0  0  0  0  0  0  0  0  0  0
  186.0330  177.9570  142.5160 N   0  0  0  0  0  0  0  0  0  0  0  0
  184.7930  177.8610  142.0620 N   0  0  0  0  0  0  0  0  0  0  0  0
  183.9350  178.1610  143.0220 N   0  0  0  0  0  0  0  0  0  0  0  0
  186.0130  178.3180  143.8110 C   0  0  0  0  0  3  0  0  0  0  0  0
  184.1040  178.8620  145.4250 C   0  0  0  0  0  2  0  0  0  0  0  0
  184.8330  176.7280  146.4910 O   0  0  0  0  0  0  0  0  0  0  0  0
  185.2130  178.7380  147.5280 O   0  0  0  0  0  1  0  0  0  0  0  0
  184.7560  178.1140  146.5350 C   0  0  0  0  0  0  0  0  0  0  0  0
  192.6640  174.8560  142.4570 C   0  0  1  0  0  3  0  0  0  0  0  0
  193.4510  175.1440  141.2800 N   0  0  0  0  0  0  0  0  0  0  0  0
  194.6070  175.6010  141.3700 N   0  0  0  0  0  2  0  0  0  0  0  0
  193.5310  174.6240  143.6100 N   0  0  0  0  0  2  0  0  0  0  0  0
  192.0280  172.4650  143.8790 O   0  0  0  0  0  0  0  0  0  0  0  0
  192.7540  173.5050  144.6860 S   0  0  0  0  0  0  0  0  0  0  0  0
  193.7920  172.8180  145.5290 O   0  0  0  0  0  0  0  0  0  0  0  0
  189.7700  175.6760  147.3600 C   0  0  0  0  0  3  0  0  0  0  0  0
  191.5760  176.8290  148.4060 F   0  0  0  0  0  0  0  0  0  0  0  0
  191.1390  175.9330  147.4890 C   0  0  0  0  0  0  0  0  0  0  0  0
  190.2360  174.0820  145.5970 C   0  0  0  0  0  3  0  0  0  0  0  0
  191.6060  174.3350  145.7260 C   0  0  0  0  0  0  0  0  0  0  0  0
  192.0560  175.2640  146.6720 C   0  0  0  0  0  3  0  0  0  0  0  0
  189.3190  174.7510  146.4140 C   0  0  0  0  0  3  0  0  0  0  0  0
  2  3  1  0  0  0  0
  3  1  2  0  0  0  0
  4  2  2  0  0  0  0
  4  5  1  0  0  0  0
  5  6  2  0  0  0  0
  6  1  1  0  0  0  0
  7  8  1  6  0  0  0
  7  2  1  0  0  0  0
 10  9  1  6  0  0  0
 10  7  1  0  0  0  0
 10 12  1  0  0  0  0
 11 16  1  0  0  0  0
 12 15  1  0  0  0  0
 13 12  1  0  0  0  0
 13 14  2  0  0  0  0
 14 11  1  0  0  0  0
 15 11  2  0  0  0  0
 16 19  1  0  0  0  0
 17 19  2  0  0  0  0
 19 18  1  0  0  0  0
 20 21  1  6  0  0  0
 20  5  1  0  0  0  0
 20 23  1  0  0  0  0
 21 22  2  0  0  0  0
 23 25  1  0  0  0  0
 24 25  2  0  0  0  0
 25 26  2  0  0  0  0
 25 31  1  0  0  0  0
 27 29  1  0  0  0  0
 29 28  1  0  0  0  0
 30 31  2  0  0  0  0
 30 33  1  0  0  0  0
 31 32  1  0  0  0  0
 32 29  2  0  0  0  0
 33 27  2  0  0  0  0
M  END
>  <MODEL>
3

>  <REMARK>
 VINA RESULT:      -7.2      3.235      7.703
  Name = 
  10 active torsions:
  status: ('A' for Active; 'I' for Inactive)
    1  A    between atoms: C_2  and  C_18
    2  A    between atoms: N_4  and  C_15
    3  A    between atoms: C_6  and  C_20
    4  A    between atoms: N_10  and  C_26
    5  A    between atoms: C_15  and  C_27
    6  A    between atoms: C_15  and  N_30
    7  A    between atoms: S_17  and  C_21
    8  A    between atoms: S_17  and  N_30
    9  A    between atoms: C_18  and  C_33
   10  A    between atoms: C_20  and  C_26
                            x       y       z     vdW  Elec       q    Type
                         _______ _______ _______ _____ _____    ______ ____

>  <TORSDO>
F 10

$$$$
=
 OpenBabel11062418553D

 33 35  0  0  1  0  0  0  0  0999 V2000
  189.1370  174.5500  146.9200 C   0  0  0  0  0  3  0  0  0  0  0  0
  188.5340  176.8900  146.6920 C   0  0  0  0  0  0  0  0  0  0  0  0
  188.1860  175.5700  147.0160 C   0  0  0  0  0  3  0  0  0  0  0  0
  189.8300  177.1750  146.2580 C   0  0  0  0  0  3  0  0  0  0  0  0
  190.7850  176.1580  146.1570 C   0  0  0  0  0  0  0  0  0  0  0  0
  190.4340  174.8420  146.4890 C   0  0  0  0  0  3  0  0  0  0  0  0
  187.5260  177.9950  146.7390 C   0  0  2  0  0  3  0  0  0  0  0  0
  187.4400  178.5500  148.0200 O   0  0  0  0  0  1  0  0  0  0  0  0
  185.0180  177.9270  147.1580 C   0  0  0  0  0  1  0  0  0  0  0  0
  186.1580  177.5370  146.2270 C   0  0  1  0  0  3  0  0  0  0  0  0
  185.5980  178.1860  142.7570 C   0  0  0  0  0  0  0  0  0  0  0  0
  185.9220  178.0400  144.8810 N   0  0  0  0  0  0  0  0  0  0  0  0
  185.9090  179.3200  144.5400 N   0  0  0  0  0  0  0  0  0  0  0  0
  185.7020  179.4390  143.2390 N   0  0  0  0  0  0  0  0  0  0  0  0
  185.7330  177.2790  143.7890 C   0  0  0  0  0  3  0  0  0  0  0  0
  185.3280  177.8560  141.3290 C   0  0  0  0  0  2  0  0  0  0  0  0
  187.8130  178.0160  141.1820 O   0  0  0  0  0  1  0  0  0  0  0  0
  186.5930  177.1860  139.4270 O   0  0  0  0  0  0  0  0  0  0  0  0
  186.6080  177.6560  140.5940 C   0  0  0  0  0  0  0  0  0  0  0  0
  192.1540  176.4990  145.6470 C   0  0  1  0  0  3  0  0  0  0  0  0
  193.1210  176.5520  146.7190 N   0  0  0  0  0  0  0  0  0  0  0  0
  194.2230  177.1130  146.5690 N   0  0  0  0  0  2  0  0  0  0  0  0
  192.5870  175.5650  144.6110 N   0  0  0  0  0  2  0  0  0  0  0  0
  191.5290  177.5500  143.2190 O   0  0  0  0  0  0  0  0  0  0  0  0
  192.0590  176.1520  143.0640 S   0  0  0  0  0  0  0  0  0  0  0  0
  193.2250  176.1830  142.1160 O   0  0  0  0  0  0  0  0  0  0  0  0
  188.7820  173.4990  141.3340 C   0  0  0  0  0  3  0  0  0  0  0  0
  187.1420  174.8710  142.3890 F   0  0  0  0  0  0  0  0  0  0  0  0
  188.4440  174.5960  142.1320 C   0  0  0  0  0  0  0  0  0  0  0  0
  191.1310  174.0270  141.6050 C   0  0  0  0  0  3  0  0  0  0  0  0
  190.7940  175.1240  142.4070 C   0  0  0  0  0  0  0  0  0  0  0  0
  189.4490  175.4080  142.6680 C   0  0  0  0  0  3  0  0  0  0  0  0
  190.1260  173.2150  141.0700 C   0  0  0  0  0  3  0  0  0  0  0  0
  1  3  1  0  0  0  0
  2  7  1  0  0  0  0
  2  3  2  0  0  0  0
  4  2  1  0  0  0  0
  5  4  2  0  0  0  0
  5  6  1  0  0  0  0
  6  1  2  0  0  0  0
  7  8  1  1  0  0  0
 10  7  1  0  0  0  0
 10  9  1  1  0  0  0
 11 14  1  0  0  0  0
 11 15  2  0  0  0  0
 12 10  1  0  0  0  0
 13 12  1  0  0  0  0
 14 13  2  0  0  0  0
 15 12  1  0  0  0  0
 16 11  1  0  0  0  0
 18 19  2  0  0  0  0
 19 17  1  0  0  0  0
 19 16  1  0  0  0  0
 20 23  1  6  0  0  0
 20  5  1  0  0  0  0
 20 21  1  0  0  0  0
 22 21  2  0  0  0  0
 25 24  2  0  0  0  0
 25 23  1  0  0  0  0
 26 25  2  0  0  0  0
 27 29  1  0  0  0  0
 29 28  1  0  0  0  0
 29 32  2  0  0  0  0
 30 31  2  0  0  0  0
 31 32  1  0  0  0  0
 31 25  1  0  0  0  0
 33 27  2  0  0  0  0
 33 30  1  0  0  0  0
M  END
>  <MODEL>
4

>  <REMARK>
 VINA RESULT:      -7.2      2.986      7.294
  Name = 
  10 active torsions:
  status: ('A' for Active; 'I' for Inactive)
    1  A    between atoms: C_2  and  C_18
    2  A    between atoms: N_4  and  C_15
    3  A    between atoms: C_6  and  C_20
    4  A    between atoms: N_10  and  C_26
    5  A    between atoms: C_15  and  C_27
    6  A    between atoms: C_15  and  N_30
    7  A    between atoms: S_17  and  C_21
    8  A    between atoms: S_17  and  N_30
    9  A    between atoms: C_18  and  C_33
   10  A    between atoms: C_20  and  C_26
                            x       y       z     vdW  Elec       q    Type
                         _______ _______ _______ _____ _____    ______ ____

>  <TORSDO>
F 10

$$$$
=
 OpenBabel11062418553D

 33 35  0  0  1  0  0  0  0  0999 V2000
  189.1280  172.9250  142.4640 C   0  0  0  0  0  3  0  0  0  0  0  0
  189.6780  174.3890  144.3210 C   0  0  0  0  0  0  0  0  0  0  0  0
  189.7580  173.1370  143.6940 C   0  0  0  0  0  3  0  0  0  0  0  0
  188.9500  175.4180  143.7170 C   0  0  0  0  0  3  0  0  0  0  0  0
  188.3150  175.2100  142.4890 C   0  0  0  0  0  0  0  0  0  0  0  0
  188.4050  173.9590  141.8630 C   0  0  0  0  0  3  0  0  0  0  0  0
  190.3010  174.6330  145.6590 C   0  0  2  0  0  3  0  0  0  0  0  0
  189.4050  174.3510  146.6950 O   0  0  0  0  0  1  0  0  0  0  0  0
  190.2350  176.8530  146.9000 C   0  0  0  0  0  1  0  0  0  0  0  0
  190.8680  176.0510  145.7710 C   0  0  1  0  0  3  0  0  0  0  0  0
  194.3970  175.4840  145.7340 C   0  0  0  0  0  0  0  0  0  0  0  0
  192.3170  176.0110  145.9140 N   0  0  0  0  0  0  0  0  0  0  0  0
  193.0160  176.7440  146.7670 N   0  0  0  0  0  0  0  0  0  0  0  0
  194.3010  176.4460  146.6710 N   0  0  0  0  0  0  0  0  0  0  0  0
  193.1420  175.1940  145.2370 C   0  0  0  0  0  3  0  0  0  0  0  0
  195.6800  174.8760  145.2830 C   0  0  0  0  0  2  0  0  0  0  0  0
  196.8410  174.8210  143.0760 O   0  0  0  0  0  0  0  0  0  0  0  0
  195.9850  176.7850  143.8930 O   0  0  0  0  0  1  0  0  0  0  0  0
  196.1650  175.5490  144.0460 C   0  0  0  0  0  0  0  0  0  0  0  0
  187.5090  176.3270  141.8940 C   0  0  1  0  0  3  0  0  0  0  0  0
  187.4470  176.2280  140.4540 N   0  0  0  0  0  0  0  0  0  0  0  0
  186.8970  177.1100  139.7670 N   0  0  0  0  0  2  0  0  0  0  0  0
  186.1650  176.3800  142.4630 N   0  0  0  0  0  2  0  0  0  0  0  0
  187.0230  178.8700  142.7100 O   0  0  0  0  0  0  0  0  0  0  0  0
  185.8810  177.9710  143.0980 S   0  0  0  0  0  0  0  0  0  0  0  0
  184.6140  178.5260  142.5100 O   0  0  0  0  0  0  0  0  0  0  0  0
  185.5540  177.8850  147.6420 C   0  0  0  0  0  3  0  0  0  0  0  0
  187.0610  176.0370  147.6960 F   0  0  0  0  0  0  0  0  0  0  0  0
  186.3680  176.9580  146.9830 C   0  0  0  0  0  0  0  0  0  0  0  0
  184.9360  178.8570  145.5110 C   0  0  0  0  0  3  0  0  0  0  0  0
  185.7480  177.9290  144.8500 C   0  0  0  0  0  0  0  0  0  0  0  0
  186.4660  176.9810  145.5880 C   0  0  0  0  0  3  0  0  0  0  0  0
  184.8390  178.8340  146.9070 C   0  0  0  0  0  3  0  0  0  0  0  0
  1  3  1  0  0  0  0
  2  7  1  0  0  0  0
  3  2  2  0  0  0  0
  4  2  1  0  0  0  0
  5  4  2  0  0  0  0
  6  1  2  0  0  0  0
  6  5  1  0  0  0  0
  7 10  1  0  0  0  0
  7  8  1  1  0  0  0
 10 12  1  0  0  0  0
 10  9  1  1  0  0  0
 11 14  1  0  0  0  0
 12 13  1  0  0  0  0
 14 13  2  0  0  0  0
 15 11  2  0  0  0  0
 15 12  1  0  0  0  0
 16 11  1  0  0  0  0
 17 19  2  0  0  0  0
 18 19  1  0  0  0  0
 19 16  1  0  0  0  0
 20 21  1  6  0  0  0
 20 23  1  0  0  0  0
 20  5  1  0  0  0  0
 22 21  2  0  0  0  0
 23 25  1  0  0  0  0
 24 25  2  0  0  0  0
 25 31  1  0  0  0  0
 26 25  2  0  0  0  0
 29 27  1  0  0  0  0
 29 28  1  0  0  0  0
 30 33  1  0  0  0  0
 31 30  2  0  0  0  0
 31 32  1  0  0  0  0
 32 29  2  0  0  0  0
 33 27  2  0  0  0  0
M  END
>  <MODEL>
5

>  <REMARK>
 VINA RESULT:      -7.0      1.156      1.413
  Name = 
  10 active torsions:
  status: ('A' for Active; 'I' for Inactive)
    1  A    between atoms: C_2  and  C_18
    2  A    between atoms: N_4  and  C_15
    3  A    between atoms: C_6  and  C_20
    4  A    between atoms: N_10  and  C_26
    5  A    between atoms: C_15  and  C_27
    6  A    between atoms: C_15  and  N_30
    7  A    between atoms: S_17  and  C_21
    8  A    between atoms: S_17  and  N_30
    9  A    between atoms: C_18  and  C_33
   10  A    between atoms: C_20  and  C_26
                            x       y       z     vdW  Elec       q    Type
                         _______ _______ _______ _____ _____    ______ ____

>  <TORSDO>
F 10

$$$$
=
 OpenBabel11062418553D

 33 35  0  0  1  0  0  0  0  0999 V2000
  186.8050  177.2870  140.5420 C   0  0  0  0  0  3  0  0  0  0  0  0
  187.9550  175.6020  141.8570 C   0  0  0  0  0  0  0  0  0  0  0  0
  187.6670  176.1890  140.6160 C   0  0  0  0  0  3  0  0  0  0  0  0
  187.3630  176.1110  143.0150 C   0  0  0  0  0  3  0  0  0  0  0  0
  186.4970  177.2070  142.9460 C   0  0  0  0  0  0  0  0  0  0  0  0
  186.2190  177.7950  141.7040 C   0  0  0  0  0  3  0  0  0  0  0  0
  188.8350  174.3970  141.9640 C   0  0  2  0  0  3  0  0  0  0  0  0
  188.1170  173.2210  141.7270 O   0  0  0  0  0  1  0  0  0  0  0  0
  189.5760  172.9610  143.9300 C   0  0  0  0  0  1  0  0  0  0  0  0
  189.5720  174.3500  143.3050 C   0  0  1  0  0  3  0  0  0  0  0  0
  193.0600  175.1360  143.3230 C   0  0  0  0  0  0  0  0  0  0  0  0
  190.9310  174.8550  143.1590 N   0  0  0  0  0  0  0  0  0  0  0  0
  191.2630  175.9700  142.5260 N   0  0  0  0  0  0  0  0  0  0  0  0
  192.5690  176.1620  142.6030 N   0  0  0  0  0  0  0  0  0  0  0  0
  192.0310  174.2890  143.6840 C   0  0  0  0  0  3  0  0  0  0  0  0
  194.5050  174.9390  143.6270 C   0  0  0  0  0  2  0  0  0  0  0  0
  194.5280  175.9820  145.8920 O   0  0  0  0  0  1  0  0  0  0  0  0
  195.7680  176.8780  144.1850 O   0  0  0  0  0  0  0  0  0  0  0  0
  194.9790  175.9810  144.5790 C   0  0  0  0  0  0  0  0  0  0  0  0
  185.8490  177.6980  144.2070 C   0  0  1  0  0  3  0  0  0  0  0  0
  184.5290  178.2270  143.9540 N   0  0  0  0  0  0  0  0  0  0  0  0
  184.3300  179.4530  143.8630 N   0  0  0  0  0  2  0  0  0  0  0  0
  185.7970  176.6510  145.2250 N   0  0  0  0  0  2  0  0  0  0  0  0
  186.7230  178.6870  146.6360 O   0  0  0  0  0  0  0  0  0  0  0  0
  186.6640  177.1850  146.6310 S   0  0  0  0  0  0  0  0  0  0  0  0
  185.9420  176.7290  147.8680 O   0  0  0  0  0  0  0  0  0  0  0  0
  190.9100  175.5290  146.6690 C   0  0  0  0  0  3  0  0  0  0  0  0
  191.6370  177.4190  145.4100 F   0  0  0  0  0  0  0  0  0  0  0  0
  190.6380  176.7390  146.0220 C   0  0  0  0  0  0  0  0  0  0  0  0
  188.5750  175.3340  147.2830 C   0  0  0  0  0  3  0  0  0  0  0  0
  188.3000  176.5430  146.6340 C   0  0  0  0  0  0  0  0  0  0  0  0
  189.3340  177.2460  146.0060 C   0  0  0  0  0  3  0  0  0  0  0  0
  189.8780  174.8270  147.2990 C   0  0  0  0  0  3  0  0  0  0  0  0
  1  3  2  0  0  0  0
  1  6  1  0  0  0  0
  2  7  1  0  0  0  0
  2  4  2  0  0  0  0
  3  2  1  0  0  0  0
  5  4  1  0  0  0  0
  5 20  1  0  0  0  0
  6  5  2  0  0  0  0
  7  8  1  1  0  0  0
  7 10  1  0  0  0  0
 10  9  1  6  0  0  0
 11 16  1  0  0  0  0
 11 15  2  0  0  0  0
 12 10  1  0  0  0  0
 12 15  1  0  0  0  0
 13 14  2  0  0  0  0
 13 12  1  0  0  0  0
 14 11  1  0  0  0  0
 16 19  1  0  0  0  0
 18 19  2  0  0  0  0
 19 17  1  0  0  0  0
 20 21  1  6  0  0  0
 20 23  1  0  0  0  0
 22 21  2  0  0  0  0
 23 25  1  0  0  0  0
 25 31  1  0  0  0  0
 25 24  2  0  0  0  0
 25 26  2  0  0  0  0
 27 33  1  0  0  0  0
 28 29  1  0  0  0  0
 29 27  2  0  0  0  0
 30 33  2  0  0  0  0
 31 30  1  0  0  0  0
 32 29  1  0  0  0  0
 32 31  2  0  0  0  0
M  END
>  <MODEL>
6

>  <REMARK>
 VINA RESULT:      -6.7      2.877      3.990
  Name = 
  10 active torsions:
  status: ('A' for Active; 'I' for Inactive)
    1  A    between atoms: C_2  and  C_18
    2  A    between atoms: N_4  and  C_15
    3  A    between atoms: C_6  and  C_20
    4  A    between atoms: N_10  and  C_26
    5  A    between atoms: C_15  and  C_27
    6  A    between atoms: C_15  and  N_30
    7  A    between atoms: S_17  and  C_21
    8  A    between atoms: S_17  and  N_30
    9  A    between atoms: C_18  and  C_33
   10  A    between atoms: C_20  and  C_26
                            x       y       z     vdW  Elec       q    Type
                         _______ _______ _______ _____ _____    ______ ____

>  <TORSDO>
F 10

$$$$
=
 OpenBabel11062418553D

 33 35  0  0  1  0  0  0  0  0999 V2000
  190.1220  175.5860  147.2540 C   0  0  0  0  0  3  0  0  0  0  0  0
  192.3500  175.7370  146.3020 C   0  0  0  0  0  0  0  0  0  0  0  0
  191.5080  175.6650  147.4210 C   0  0  0  0  0  3  0  0  0  0  0  0
  191.7950  175.7460  145.0200 C   0  0  0  0  0  3  0  0  0  0  0  0
  190.4100  175.6700  144.8470 C   0  0  0  0  0  0  0  0  0  0  0  0
  189.5730  175.5900  145.9690 C   0  0  0  0  0  3  0  0  0  0  0  0
  193.8330  175.8710  146.4490 C   0  0  2  0  0  3  0  0  0  0  0  0
  194.1870  177.1530  146.8780 O   0  0  0  0  0  1  0  0  0  0  0  0
  195.4440  176.6010  144.6200 C   0  0  0  0  0  1  0  0  0  0  0  0
  194.5680  175.4800  145.1640 C   0  0  1  0  0  3  0  0  0  0  0  0
  196.0420  172.2290  145.3510 C   0  0  0  0  0  0  0  0  0  0  0  0
  195.3480  174.2680  145.3700 N   0  0  0  0  0  0  0  0  0  0  0  0
  196.4220  174.1770  146.1400 N   0  0  0  0  0  0  0  0  0  0  0  0
  196.8750  172.9340  146.1400 N   0  0  0  0  0  0  0  0  0  0  0  0
  195.0630  173.0620  144.8480 C   0  0  0  0  0  3  0  0  0  0  0  0
  196.2030  170.7800  145.0430 C   0  0  0  0  0  2  0  0  0  0  0  0
  196.4520  169.6190  147.2370 O   0  0  0  0  0  1  0  0  0  0  0  0
  194.4680  169.5300  146.0900 O   0  0  0  0  0  0  0  0  0  0  0  0
  195.6520  169.9520  146.1520 C   0  0  0  0  0  0  0  0  0  0  0  0
  189.8510  175.7240  143.4560 C   0  0  1  0  0  3  0  0  0  0  0  0
  190.4330  174.7070  142.6100 N   0  0  0  0  0  0  0  0  0  0  0  0
  190.0300  173.5290  142.6450 N   0  0  0  0  0  2  0  0  0  0  0  0
  188.3940  175.6180  143.4590 N   0  0  0  0  0  2  0  0  0  0  0  0
  188.8210  178.0200  142.4380 O   0  0  0  0  0  0  0  0  0  0  0  0
  187.7210  177.0310  142.7070 S   0  0  0  0  0  0  0  0  0  0  0  0
  187.0890  176.6490  141.3980 O   0  0  0  0  0  0  0  0  0  0  0  0
  184.6170  178.9800  145.4140 C   0  0  0  0  0  3  0  0  0  0  0  0
  184.6730  177.0610  146.8280 F   0  0  0  0  0  0  0  0  0  0  0  0
  185.1130  177.7100  145.7230 C   0  0  0  0  0  0  0  0  0  0  0  0
  186.0200  179.0480  143.4410 C   0  0  0  0  0  3  0  0  0  0  0  0
  186.5160  177.7760  143.7470 C   0  0  0  0  0  0  0  0  0  0  0  0
  186.0630  177.1090  144.8900 C   0  0  0  0  0  3  0  0  0  0  0  0
  185.0700  179.6490  144.2740 C   0  0  0  0  0  3  0  0  0  0  0  0
  1  3  1  0  0  0  0
  2  7  1  0  0  0  0
  2  3  2  0  0  0  0
  4  2  1  0  0  0  0
  5  4  2  0  0  0  0
  5  6  1  0  0  0  0
  6  1  2  0  0  0  0
  7  8  1  6  0  0  0
 10  9  1  1  0  0  0
 10 12  1  0  0  0  0
 10  7  1  0  0  0  0
 11 14  1  0  0  0  0
 12 13  1  0  0  0  0
 14 13  2  0  0  0  0
 15 11  2  0  0  0  0
 15 12  1  0  0  0  0
 16 11  1  0  0  0  0
 16 19  1  0  0  0  0
 18 19  2  0  0  0  0
 19 17  1  0  0  0  0
 20 21  1  6  0  0  0
 20 23  1  0  0  0  0
 20  5  1  0  0  0  0
 21 22  2  0  0  0  0
 24 25  2  0  0  0  0
 25 23  1  0  0  0  0
 25 31  1  0  0  0  0
 26 25  2  0  0  0  0
 27 29  1  0  0  0  0
 29 28  1  0  0  0  0
 30 31  2  0  0  0  0
 30 33  1  0  0  0  0
 31 32  1  0  0  0  0
 32 29  2  0  0  0  0
 33 27  2  0  0  0  0
M  END
>  <MODEL>
7

>  <REMARK>
 VINA RESULT:      -6.7      3.053      4.252
  Name = 
  10 active torsions:
  status: ('A' for Active; 'I' for Inactive)
    1  A    between atoms: C_2  and  C_18
    2  A    between atoms: N_4  and  C_15
    3  A    between atoms: C_6  and  C_20
    4  A    between atoms: N_10  and  C_26
    5  A    between atoms: C_15  and  C_27
    6  A    between atoms: C_15  and  N_30
    7  A    between atoms: S_17  and  C_21
    8  A    between atoms: S_17  and  N_30
    9  A    between atoms: C_18  and  C_33
   10  A    between atoms: C_20  and  C_26
                            x       y       z     vdW  Elec       q    Type
                         _______ _______ _______ _____ _____    ______ ____

>  <TORSDO>
F 10

$$$$
=
 OpenBabel11062418553D

 33 35  0  0  1  0  0  0  0  0999 V2000
  190.0920  177.3370  145.0640 C   0  0  0  0  0  3  0  0  0  0  0  0
  189.5390  175.1400  144.1950 C   0  0  0  0  0  0  0  0  0  0  0  0
  190.2900  175.9530  145.0560 C   0  0  0  0  0  3  0  0  0  0  0  0
  188.6050  175.7220  143.3340 C   0  0  0  0  0  3  0  0  0  0  0  0
  188.4060  177.1060  143.3360 C   0  0  0  0  0  0  0  0  0  0  0  0
  189.1530  177.9140  144.2040 C   0  0  0  0  0  3  0  0  0  0  0  0
  189.7610  173.6610  144.1280 C   0  0  2  0  0  3  0  0  0  0  0  0
  189.6920  173.0800  145.3980 O   0  0  0  0  0  1  0  0  0  0  0  0
  191.8810  172.2550  144.1520 C   0  0  0  0  0  1  0  0  0  0  0  0
  191.0730  173.3170  143.4180 C   0  0  1  0  0  3  0  0  0  0  0  0
  190.6970  172.8620  139.8920 C   0  0  0  0  0  0  0  0  0  0  0  0
  190.8170  172.9130  142.0420 N   0  0  0  0  0  0  0  0  0  0  0  0
  190.1380  171.8350  141.6800 N   0  0  0  0  0  0  0  0  0  0  0  0
  190.0570  171.7740  140.3610 N   0  0  0  0  0  0  0  0  0  0  0  0
  191.1920  173.6000  140.9490 C   0  0  0  0  0  3  0  0  0  0  0  0
  190.8740  173.1740  138.4460 C   0  0  0  0  0  2  0  0  0  0  0  0
  188.5890  174.1730  138.4280 O   0  0  0  0  0  1  0  0  0  0  0  0
  189.2950  172.8500  136.6940 O   0  0  0  0  0  0  0  0  0  0  0  0
  189.5510  173.3940  137.7990 C   0  0  0  0  0  0  0  0  0  0  0  0
  187.4240  177.6970  142.3680 C   0  0  1  0  0  3  0  0  0  0  0  0
  187.8020  177.4280  140.9990 N   0  0  0  0  0  0  0  0  0  0  0  0
  187.0420  176.8130  140.2270 N   0  0  0  0  0  2  0  0  0  0  0  0
  186.0660  177.2270  142.6270 N   0  0  0  0  0  2  0  0  0  0  0  0
  185.6620  179.7900  143.1350 O   0  0  0  0  0  0  0  0  0  0  0  0
  185.2240  178.4190  143.5680 S   0  0  0  0  0  0  0  0  0  0  0  0
  183.7450  178.2910  143.3310 O   0  0  0  0  0  0  0  0  0  0  0  0
  186.0820  177.8860  148.0120 C   0  0  0  0  0  3  0  0  0  0  0  0
  186.0570  180.2550  148.2800 F   0  0  0  0  0  0  0  0  0  0  0  0
  185.9410  179.1710  147.4770 C   0  0  0  0  0  0  0  0  0  0  0  0
  185.7050  176.9320  145.8180 C   0  0  0  0  0  3  0  0  0  0  0  0
  185.5660  178.2170  145.2800 C   0  0  0  0  0  0  0  0  0  0  0  0
  185.6820  179.3350  146.1120 C   0  0  0  0  0  3  0  0  0  0  0  0
  185.9640  176.7670  147.1820 C   0  0  0  0  0  3  0  0  0  0  0  0
  2  3  2  0  0  0  0
  3  1  1  0  0  0  0
  4  5  2  0  0  0  0
  4  2  1  0  0  0  0
  5  6  1  0  0  0  0
  6  1  2  0  0  0  0
  7  2  1  0  0  0  0
  7  8  1  1  0  0  0
 10  7  1  0  0  0  0
 10  9  1  1  0  0  0
 11 14  1  0  0  0  0
 11 15  2  0  0  0  0
 12 10  1  0  0  0  0
 13 12  1  0  0  0  0
 14 13  2  0  0  0  0
 15 12  1  0  0  0  0
 16 11  1  0  0  0  0
 18 19  2  0  0  0  0
 19 17  1  0  0  0  0
 19 16  1  0  0  0  0
 20 21  1  6  0  0  0
 20 23  1  0  0  0  0
 20  5  1  0  0  0  0
 22 21  2  0  0  0  0
 23 25  1  0  0  0  0
 24 25  2  0  0  0  0
 25 31  1  0  0  0  0
 26 25  2  0  0  0  0
 29 27  1  0  0  0  0
 29 28  1  0  0  0  0
 30 33  1  0  0  0  0
 31 30  2  0  0  0  0
 31 32  1  0  0  0  0
 32 29  2  0  0  0  0
 33 27  2  0  0  0  0
M  END
>  <MODEL>
8

>  <REMARK>
 VINA RESULT:      -6.7      3.128      4.613
  Name = 
  10 active torsions:
  status: ('A' for Active; 'I' for Inactive)
    1  A    between atoms: C_2  and  C_18
    2  A    between atoms: N_4  and  C_15
    3  A    between atoms: C_6  and  C_20
    4  A    between atoms: N_10  and  C_26
    5  A    between atoms: C_15  and  C_27
    6  A    between atoms: C_15  and  N_30
    7  A    between atoms: S_17  and  C_21
    8  A    between atoms: S_17  and  N_30
    9  A    between atoms: C_18  and  C_33
   10  A    between atoms: C_20  and  C_26
                            x       y       z     vdW  Elec       q    Type
                         _______ _______ _______ _____ _____    ______ ____

>  <TORSDO>
F 10

$$$$
=
 OpenBabel11062418553D

 33 35  0  0  1  0  0  0  0  0999 V2000
  186.7920  176.3820  146.9360 C   0  0  0  0  0  3  0  0  0  0  0  0
  187.0710  177.2010  144.6680 C   0  0  0  0  0  0  0  0  0  0  0  0
  186.2420  176.8900  145.7550 C   0  0  0  0  0  3  0  0  0  0  0  0
  188.4470  176.9850  144.7650 C   0  0  0  0  0  3  0  0  0  0  0  0
  189.0030  176.4730  145.9420 C   0  0  0  0  0  0  0  0  0  0  0  0
  188.1710  176.1710  147.0290 C   0  0  0  0  0  3  0  0  0  0  0  0
  186.5070  177.7010  143.3760 C   0  0  2  0  0  3  0  0  0  0  0  0
  187.4450  178.4640  142.6730 O   0  0  0  0  0  1  0  0  0  0  0  0
  185.4200  179.9160  144.0000 C   0  0  0  0  0  1  0  0  0  0  0  0
  185.1980  178.4670  143.5870 C   0  0  1  0  0  3  0  0  0  0  0  0
  182.6870  178.2260  141.0530 C   0  0  0  0  0  0  0  0  0  0  0  0
  184.3640  178.3910  142.3950 N   0  0  0  0  0  0  0  0  0  0  0  0
  184.8190  178.3240  141.1530 N   0  0  0  0  0  0  0  0  0  0  0  0
  183.8070  178.2300  140.3060 N   0  0  0  0  0  0  0  0  0  0  0  0
  183.0210  178.3300  142.3890 C   0  0  0  0  0  3  0  0  0  0  0  0
  181.3070  178.1670  140.4970 C   0  0  0  0  0  2  0  0  0  0  0  0
  180.4150  180.4950  140.4190 O   0  0  0  0  0  0  0  0  0  0  0  0
  179.8480  179.0880  142.1380 O   0  0  0  0  0  1  0  0  0  0  0  0
  180.4750  179.2660  141.0610 C   0  0  0  0  0  0  0  0  0  0  0  0
  190.4800  176.2160  145.9920 C   0  0  1  0  0  3  0  0  0  0  0  0
  191.0730  176.7580  147.1930 N   0  0  0  0  0  0  0  0  0  0  0  0
  191.4480  176.0170  148.1220 N   0  0  0  0  0  2  0  0  0  0  0  0
  190.7810  174.7920  145.8690 N   0  0  0  0  0  2  0  0  0  0  0  0
  192.0310  175.7410  143.7410 O   0  0  0  0  0  0  0  0  0  0  0  0
  191.4140  174.4820  144.2830 S   0  0  0  0  0  0  0  0  0  0  0  0
  192.4790  173.4240  144.3670 O   0  0  0  0  0  0  0  0  0  0  0  0
  188.1290  173.0790  141.4530 C   0  0  0  0  0  3  0  0  0  0  0  0
  188.4140  175.0680  140.1690 F   0  0  0  0  0  0  0  0  0  0  0  0
  188.7690  174.3020  141.2290 C   0  0  0  0  0  0  0  0  0  0  0  0
  189.5000  172.7230  143.4180 C   0  0  0  0  0  3  0  0  0  0  0  0
  190.1400  173.9490  143.1970 C   0  0  0  0  0  0  0  0  0  0  0  0
  189.7740  174.7360  142.0990 C   0  0  0  0  0  3  0  0  0  0  0  0
  188.4950  172.2900  142.5480 C   0  0  0  0  0  3  0  0  0  0  0  0
  1  6  1  0  0  0  0
  2  4  2  0  0  0  0
  2  3  1  0  0  0  0
  3  1  2  0  0  0  0
  4  5  1  0  0  0  0
  5 20  1  0  0  0  0
  5  6  2  0  0  0  0
  7  8  1  1  0  0  0
  7 10  1  0  0  0  0
  7  2  1  0  0  0  0
 10  9  1  6  0  0  0
 11 15  2  0  0  0  0
 12 10  1  0  0  0  0
 13 12  1  0  0  0  0
 14 11  1  0  0  0  0
 14 13  2  0  0  0  0
 15 12  1  0  0  0  0
 16 11  1  0  0  0  0
 16 19  1  0  0  0  0
 17 19  2  0  0  0  0
 19 18  1  0  0  0  0
 20 23  1  1  0  0  0
 20 21  1  0  0  0  0
 21 22  2  0  0  0  0
 24 25  2  0  0  0  0
 25 26  2  0  0  0  0
 25 23  1  0  0  0  0
 27 33  1  0  0  0  0
 28 29  1  0  0  0  0
 29 27  2  0  0  0  0
 29 32  1  0  0  0  0
 31 30  1  0  0  0  0
 31 25  1  0  0  0  0
 32 31  2  0  0  0  0
 33 30  2  0  0  0  0
M  END
>  <MODEL>
9

>  <REMARK>
 VINA RESULT:      -6.7      3.451      9.077
  Name = 
  10 active torsions:
  status: ('A' for Active; 'I' for Inactive)
    1  A    between atoms: C_2  and  C_18
    2  A    between atoms: N_4  and  C_15
    3  A    between atoms: C_6  and  C_20
    4  A    between atoms: N_10  and  C_26
    5  A    between atoms: C_15  and  C_27
    6  A    between atoms: C_15  and  N_30
    7  A    between atoms: S_17  and  C_21
    8  A    between atoms: S_17  and  N_30
    9  A    between atoms: C_18  and  C_33
   10  A    between atoms: C_20  and  C_26
                            x       y       z     vdW  Elec       q    Type
                         _______ _______ _______ _____ _____    ______ ____

>  <TORSDO>
F 10

$$$$
