=
 OpenBabel11062421553D

 37 41  0  0  1  0  0  0  0  0999 V2000
  189.7290  172.7710  144.7620 C   0  0  0  0  0  2  0  0  0  0  0  0
  191.0000  170.5050  141.8510 C   0  0  0  0  0  3  0  0  0  0  0  0
  190.4860  174.0750  144.8140 C   0  0  0  0  0  3  0  0  0  0  0  0
  190.5980  170.8070  140.6120 C   0  0  0  0  0  3  0  0  0  0  0  0
  187.8700  172.6570  140.5950 O   0  0  0  0  0  0  0  0  0  0  0  0
  189.6920  172.1680  143.3550 C   0  0  1  0  0  3  0  0  0  0  0  0
  190.7030  174.8520  143.7390 C   0  0  0  0  0  0  0  0  0  0  0  0
  192.0020  171.5620  143.6970 O   0  0  0  0  0  0  0  0  0  0  0  0
  189.2840  173.2680  142.3700 C   0  0  2  0  0  3  0  0  0  0  0  0
  190.1590  172.1850  140.1790 C   0  0  2  0  0  3  0  0  0  0  0  0
  190.9680  171.4410  142.9870 C   0  0  0  0  0  0  0  0  0  0  0  0
  189.0190  172.7230  141.0010 C   0  0  0  0  0  0  0  0  0  0  0  0
  190.3090  174.4040  142.3530 C   0  0  0  0  0  2  0  0  0  0  0  0
  190.4940  171.1870  137.9900 C   0  0  0  0  0  2  0  0  0  0  0  0
  191.0680  174.8540  136.3680 O   0  0  0  0  0  1  0  0  0  0  0  0
  189.9130  172.3100  138.7330 N   0  0  2  0  0  0  0  0  0  0  0  0
  190.5860  172.5780  135.9310 C   0  0  0  0  0  2  0  0  0  0  0  0
  190.5180  173.5590  138.2650 C   0  0  0  0  0  2  0  0  0  0  0  0
  190.2300  173.8160  136.7760 C   0  0  1  0  0  0  0  0  0  0  0  0
  190.0710  171.2750  136.5330 C   0  0  0  0  0  2  0  0  0  0  0  0
  188.7760  174.2800  136.5560 C   0  0  2  0  0  3  0  0  0  0  0  0
  187.1120  175.5140  137.3660 C   0  0  0  0  0  2  0  0  0  0  0  0
  187.4270  176.1500  136.0310 C   0  0  0  0  0  2  0  0  0  0  0  0
  188.5990  175.3710  135.5190 C   0  0  0  0  0  2  0  0  0  0  0  0
  188.2010  174.7230  137.7560 O   0  0  0  0  0  0  0  0  0  0  0  0
  191.3950  176.0660  143.8510 O   0  0  0  0  0  0  0  0  0  0  0  0
  190.7870  177.3070  143.9060 N   0  0  0  0  0  2  0  0  0  0  0  0
  189.6320  177.5490  144.6680 N   0  0  0  0  0  0  0  0  0  0  0  0
  188.2940  177.5540  142.6410 C   0  0  0  0  0  1  0  0  0  0  0  0
  188.4550  177.6660  144.1270 C   0  0  0  0  0  0  0  0  0  0  0  0
  186.1880  177.0020  147.0530 C   0  0  0  0  0  3  0  0  0  0  0  0
  185.0990  179.1920  145.2400 C   0  0  0  0  0  3  0  0  0  0  0  0
  184.4370  178.4760  146.1470 C   0  0  0  0  0  3  0  0  0  0  0  0
  187.2670  177.3440  146.3530 C   0  0  0  0  0  3  0  0  0  0  0  0
  186.3200  178.7550  144.5340 C   0  0  0  0  0  3  0  0  0  0  0  0
  184.8030  177.0770  146.5080 C   0  0  0  0  0  2  0  0  0  0  0  0
  187.2700  177.9130  144.9830 C   0  0  0  0  0  0  0  0  0  0  0  0
  1  3  1  0  0  0  0
  2 11  1  0  0  0  0
  4  2  2  0  0  0  0
  5 12  2  0  0  0  0
  6  1  1  1  0  0  0
  7 26  1  0  0  0  0
  7  3  2  0  0  0  0
  9 13  1  6  0  0  0
  9  6  1  0  0  0  0
 10  4  1  6  0  0  0
 10 12  1  0  0  0  0
 11  6  1  0  0  0  0
 11  8  2  0  0  0  0
 12  9  1  0  0  0  0
 13  7  1  0  0  0  0
 16 14  1  6  0  0  0
 16 10  1  0  0  0  0
 17 20  1  0  0  0  0
 17 19  1  0  0  0  0
 18 16  1  0  0  0  0
 19 15  1  6  0  0  0
 19 18  1  0  0  0  0
 20 14  1  0  0  0  0
 21 24  1  6  0  0  0
 21 19  1  0  0  0  0
 21 25  1  0  0  0  0
 22 25  1  0  0  0  0
 23 22  1  0  0  0  0
 24 23  1  0  0  0  0
 26 27  1  0  0  0  0
 27 28  1  0  0  0  0
 29 30  1  0  0  0  0
 30 28  2  0  0  0  0
 30 37  1  0  0  0  0
 32 33  2  0  0  0  0
 33 36  1  0  0  0  0
 34 31  2  0  0  0  0
 35 37  2  0  0  0  0
 35 32  1  0  0  0  0
 36 31  1  0  0  0  0
 37 34  1  0  0  0  0
M  END
>  <MODEL>
1

>  <REMARK>
 VINA RESULT:      -8.2      0.000      0.000
  Name = 
  6 active torsions:
  status: ('A' for Active; 'I' for Inactive)
    1  A    between atoms: N_8  and  C_26
    2  A    between atoms: C_10  and  C_19
    3  A    between atoms: N_12  and  N_35
    4  A    between atoms: C_13  and  O_14
    5  A    between atoms: O_14  and  N_35
    6  A    between atoms: C_28  and  C_34
                            x       y       z     vdW  Elec       q    Type
                         _______ _______ _______ _____ _____    ______ ____

>  <TORSDO>
F 6

$$$$
=
 OpenBabel11062421553D

 37 41  0  0  1  0  0  0  0  0999 V2000
  189.6810  172.6360  144.5410 C   0  0  0  0  0  2  0  0  0  0  0  0
  192.6660  174.5900  146.1200 C   0  0  0  0  0  3  0  0  0  0  0  0
  189.0330  173.4270  143.4320 C   0  0  0  0  0  3  0  0  0  0  0  0
  193.8180  174.6140  145.4420 C   0  0  0  0  0  3  0  0  0  0  0  0
  194.0350  172.1590  143.2520 O   0  0  0  0  0  0  0  0  0  0  0  0
  191.1570  172.9960  144.7350 C   0  0  1  0  0  3  0  0  0  0  0  0
  189.7210  174.0190  142.4400 C   0  0  0  0  0  0  0  0  0  0  0  0
  190.3870  175.0390  145.7610 O   0  0  0  0  0  0  0  0  0  0  0  0
  191.8390  172.9900  143.3630 C   0  0  2  0  0  3  0  0  0  0  0  0
  193.9220  174.4270  143.9480 C   0  0  2  0  0  3  0  0  0  0  0  0
  191.3580  174.2720  145.5270 C   0  0  0  0  0  0  0  0  0  0  0  0
  193.3260  173.1270  143.4760 C   0  0  0  0  0  0  0  0  0  0  0  0
  191.2290  174.0460  142.4370 C   0  0  0  0  0  2  0  0  0  0  0  0
  196.2470  174.8850  144.4750 C   0  0  0  0  0  2  0  0  0  0  0  0
  196.5250  177.3440  141.2680 O   0  0  0  0  0  1  0  0  0  0  0  0
  195.2720  174.6510  143.4050 N   0  0  2  0  0  0  0  0  0  0  0  0
  197.7250  176.0940  142.8810 C   0  0  0  0  0  2  0  0  0  0  0  0
  195.2320  175.8210  142.5270 C   0  0  0  0  0  2  0  0  0  0  0  0
  196.5870  176.0750  141.8430 C   0  0  1  0  0  0  0  0  0  0  0  0
  197.6440  174.9430  143.8780 C   0  0  0  0  0  2  0  0  0  0  0  0
  196.8420  175.0630  140.7080 C   0  0  2  0  0  3  0  0  0  0  0  0
  196.1120  174.2870  138.7550 C   0  0  0  0  0  2  0  0  0  0  0  0
  197.4760  174.8580  138.4390 C   0  0  0  0  0  2  0  0  0  0  0  0
  197.9360  175.4520  139.7340 C   0  0  0  0  0  2  0  0  0  0  0  0
  195.6720  174.8210  139.9730 O   0  0  0  0  0  0  0  0  0  0  0  0
  189.0620  174.7230  141.4230 O   0  0  0  0  0  0  0  0  0  0  0  0
  188.6220  176.0290  141.5400 N   0  0  0  0  0  2  0  0  0  0  0  0
  187.7750  176.4510  142.5780 N   0  0  0  0  0  0  0  0  0  0  0  0
  189.6330  177.6110  143.6260 C   0  0  0  0  0  1  0  0  0  0  0  0
  188.1970  177.1890  143.5620 C   0  0  0  0  0  0  0  0  0  0  0  0
  186.4040  176.8130  146.8470 C   0  0  0  0  0  3  0  0  0  0  0  0
  185.4510  179.2560  145.2990 C   0  0  0  0  0  3  0  0  0  0  0  0
  184.8360  178.6320  146.3020 C   0  0  0  0  0  3  0  0  0  0  0  0
  187.3860  176.9840  145.9640 C   0  0  0  0  0  3  0  0  0  0  0  0
  186.4190  178.6360  144.3740 C   0  0  0  0  0  3  0  0  0  0  0  0
  184.9840  177.1730  146.5680 C   0  0  0  0  0  2  0  0  0  0  0  0
  187.2540  177.6100  144.6260 C   0  0  0  0  0  0  0  0  0  0  0  0
  3  1  1  0  0  0  0
  4  2  2  0  0  0  0
  5 12  2  0  0  0  0
  6  1  1  6  0  0  0
  6 11  1  0  0  0  0
  7  3  2  0  0  0  0
  9 13  1  6  0  0  0
  9 12  1  0  0  0  0
  9  6  1  0  0  0  0
 10  4  1  1  0  0  0
 11  8  2  0  0  0  0
 11  2  1  0  0  0  0
 12 10  1  0  0  0  0
 13  7  1  0  0  0  0
 16 18  1  6  0  0  0
 16 10  1  0  0  0  0
 16 14  1  0  0  0  0
 17 20  1  0  0  0  0
 19 15  1  6  0  0  0
 19 18  1  0  0  0  0
 19 17  1  0  0  0  0
 20 14  1  0  0  0  0
 21 24  1  6  0  0  0
 21 19  1  0  0  0  0
 22 25  1  0  0  0  0
 23 22  1  0  0  0  0
 23 24  1  0  0  0  0
 25 21  1  0  0  0  0
 26 27  1  0  0  0  0
 26  7  1  0  0  0  0
 27 28  1  0  0  0  0
 28 30  2  0  0  0  0
 30 29  1  0  0  0  0
 30 37  1  0  0  0  0
 32 33  2  0  0  0  0
 33 36  1  0  0  0  0
 34 31  2  0  0  0  0
 35 37  2  0  0  0  0
 35 32  1  0  0  0  0
 36 31  1  0  0  0  0
 37 34  1  0  0  0  0
M  END
>  <MODEL>
2

>  <REMARK>
 VINA RESULT:      -8.0      3.913      5.887
  Name = 
  6 active torsions:
  status: ('A' for Active; 'I' for Inactive)
    1  A    between atoms: N_8  and  C_26
    2  A    between atoms: C_10  and  C_19
    3  A    between atoms: N_12  and  N_35
    4  A    between atoms: C_13  and  O_14
    5  A    between atoms: O_14  and  N_35
    6  A    between atoms: C_28  and  C_34
                            x       y       z     vdW  Elec       q    Type
                         _______ _______ _______ _____ _____    ______ ____

>  <TORSDO>
F 6

$$$$
=
 OpenBabel11062421553D

 37 41  0  0  1  0  0  0  0  0999 V2000
  194.5020  176.8540  145.9100 C   0  0  0  0  0  2  0  0  0  0  0  0
  195.1500  174.7200  142.7080 C   0  0  0  0  0  3  0  0  0  0  0  0
  193.0880  176.6830  146.4060 C   0  0  0  0  0  3  0  0  0  0  0  0
  195.3480  173.4080  142.8690 C   0  0  0  0  0  3  0  0  0  0  0  0
  196.2730  172.6460  145.9400 O   0  0  0  0  0  0  0  0  0  0  0  0
  195.0050  175.6330  145.1330 C   0  0  1  0  0  3  0  0  0  0  0  0
  192.4970  175.4860  146.5710 C   0  0  0  0  0  0  0  0  0  0  0  0
  193.5890  176.3660  143.3230 O   0  0  0  0  0  0  0  0  0  0  0  0
  194.6830  174.3770  145.9500 C   0  0  2  0  0  3  0  0  0  0  0  0
  194.8380  172.6150  144.0490 C   0  0  2  0  0  3  0  0  0  0  0  0
  194.5070  175.5920  143.7030 C   0  0  0  0  0  0  0  0  0  0  0  0
  195.3210  173.1530  145.3690 C   0  0  0  0  0  0  0  0  0  0  0  0
  193.1730  174.2090  146.1380 C   0  0  0  0  0  2  0  0  0  0  0  0
  195.2480  170.7610  142.5350 C   0  0  0  0  0  2  0  0  0  0  0  0
  192.7580  168.4050  144.6920 O   0  0  0  0  0  1  0  0  0  0  0  0
  195.0410  171.1620  143.9300 N   0  0  2  0  0  0  0  0  0  0  0  0
  194.4790  168.4570  143.0690 C   0  0  0  0  0  2  0  0  0  0  0  0
  193.8540  170.4830  144.4540 C   0  0  0  0  0  2  0  0  0  0  0  0
  194.0180  168.9530  144.4520 C   0  0  1  0  0  0  0  0  0  0  0  0
  195.6170  169.2870  142.4850 C   0  0  0  0  0  2  0  0  0  0  0  0
  194.9520  168.4860  145.5860 C   0  0  2  0  0  3  0  0  0  0  0  0
  197.0670  168.3030  146.2500 C   0  0  0  0  0  2  0  0  0  0  0  0
  196.4410  169.2350  147.2630 C   0  0  0  0  0  2  0  0  0  0  0  0
  195.0390  169.4230  146.7740 C   0  0  0  0  0  2  0  0  0  0  0  0
  196.2520  168.2650  145.1110 O   0  0  0  0  0  0  0  0  0  0  0  0
  191.1860  175.3880  147.0570 O   0  0  0  0  0  0  0  0  0  0  0  0
  190.0770  175.1530  146.2640 N   0  0  0  0  0  2  0  0  0  0  0  0
  188.8910  175.8970  146.3850 N   0  0  0  0  0  0  0  0  0  0  0  0
  189.6500  177.3960  144.6310 C   0  0  0  0  0  1  0  0  0  0  0  0
  188.6470  176.9400  145.6470 C   0  0  0  0  0  0  0  0  0  0  0  0
  185.5520  177.9850  147.5110 C   0  0  0  0  0  3  0  0  0  0  0  0
  185.6250  179.1240  144.6880 C   0  0  0  0  0  3  0  0  0  0  0  0
  184.5710  179.0010  145.4930 C   0  0  0  0  0  3  0  0  0  0  0  0
  186.8360  177.8440  147.1870 C   0  0  0  0  0  3  0  0  0  0  0  0
  186.8400  178.2880  144.7380 C   0  0  0  0  0  3  0  0  0  0  0  0
  184.4470  177.9210  146.5130 C   0  0  0  0  0  2  0  0  0  0  0  0
  187.3740  177.6800  145.8140 C   0  0  0  0  0  0  0  0  0  0  0  0
  1  3  1  0  0  0  0
  2  4  2  0  0  0  0
  2 11  1  0  0  0  0
  3  7  2  0  0  0  0
  6  1  1  1  0  0  0
  6  9  1  0  0  0  0
  7 26  1  0  0  0  0
  8 11  2  0  0  0  0
  9 13  1  6  0  0  0
 10  4  1  6  0  0  0
 10 12  1  0  0  0  0
 11  6  1  0  0  0  0
 12  5  2  0  0  0  0
 12  9  1  0  0  0  0
 13  7  1  0  0  0  0
 16 14  1  6  0  0  0
 16 10  1  0  0  0  0
 16 18  1  0  0  0  0
 17 19  1  0  0  0  0
 19 18  1  0  0  0  0
 19 15  1  1  0  0  0
 19 21  1  0  0  0  0
 20 14  1  0  0  0  0
 20 17  1  0  0  0  0
 21 24  1  1  0  0  0
 22 23  1  0  0  0  0
 24 23  1  0  0  0  0
 25 21  1  0  0  0  0
 25 22  1  0  0  0  0
 27 28  1  0  0  0  0
 27 26  1  0  0  0  0
 29 30  1  0  0  0  0
 30 37  1  0  0  0  0
 30 28  2  0  0  0  0
 32 35  1  0  0  0  0
 32 33  2  0  0  0  0
 33 36  1  0  0  0  0
 34 31  2  0  0  0  0
 35 37  2  0  0  0  0
 36 31  1  0  0  0  0
 37 34  1  0  0  0  0
M  END
>  <MODEL>
3

>  <REMARK>
 VINA RESULT:      -7.8      5.378      7.471
  Name = 
  6 active torsions:
  status: ('A' for Active; 'I' for Inactive)
    1  A    between atoms: N_8  and  C_26
    2  A    between atoms: C_10  and  C_19
    3  A    between atoms: N_12  and  N_35
    4  A    between atoms: C_13  and  O_14
    5  A    between atoms: O_14  and  N_35
    6  A    between atoms: C_28  and  C_34
                            x       y       z     vdW  Elec       q    Type
                         _______ _______ _______ _____ _____    ______ ____

>  <TORSDO>
F 6

$$$$
=
 OpenBabel11062421553D

 37 41  0  0  1  0  0  0  0  0999 V2000
  192.6920  175.1250  146.8310 C   0  0  0  0  0  2  0  0  0  0  0  0
  194.0980  172.1090  144.7940 C   0  0  0  0  0  3  0  0  0  0  0  0
  192.6350  176.3760  145.9900 C   0  0  0  0  0  3  0  0  0  0  0  0
  193.2750  171.5100  143.9280 C   0  0  0  0  0  3  0  0  0  0  0  0
  190.1020  172.0960  144.6030 O   0  0  0  0  0  0  0  0  0  0  0  0
  192.5890  173.8480  145.9920 C   0  0  1  0  0  3  0  0  0  0  0  0
  192.1060  176.4190  144.7550 C   0  0  0  0  0  0  0  0  0  0  0  0
  194.8630  174.2720  145.3080 O   0  0  0  0  0  0  0  0  0  0  0  0
  191.4130  174.0010  145.0220 C   0  0  2  0  0  3  0  0  0  0  0  0
  192.0810  172.1820  143.2940 C   0  0  2  0  0  3  0  0  0  0  0  0
  193.8970  173.4640  145.3320 C   0  0  0  0  0  0  0  0  0  0  0  0
  191.1070  172.7230  144.3060 C   0  0  0  0  0  0  0  0  0  0  0  0
  191.6410  175.1660  144.0550 C   0  0  0  0  0  2  0  0  0  0  0  0
  191.6580  169.9440  142.4530 C   0  0  0  0  0  2  0  0  0  0  0  0
  191.9920  171.2760  138.6420 O   0  0  0  0  0  1  0  0  0  0  0  0
  191.4180  171.3770  142.2560 N   0  0  2  0  0  0  0  0  0  0  0  0
  191.2270  169.5260  140.0400 C   0  0  0  0  0  2  0  0  0  0  0  0
  191.9460  171.7770  140.9490 C   0  0  0  0  0  2  0  0  0  0  0  0
  191.2400  171.0460  139.7940 C   0  0  1  0  0  0  0  0  0  0  0  0
  190.8210  169.1520  141.4610 C   0  0  0  0  0  2  0  0  0  0  0  0
  189.8280  171.6150  139.5490 C   0  0  2  0  0  3  0  0  0  0  0  0
  188.5630  173.4440  139.5960 C   0  0  0  0  0  2  0  0  0  0  0  0
  188.5560  173.0280  138.1420 C   0  0  0  0  0  2  0  0  0  0  0  0
  189.4710  171.8430  138.0940 C   0  0  0  0  0  2  0  0  0  0  0  0
  189.6430  172.8220  140.2370 O   0  0  0  0  0  0  0  0  0  0  0  0
  192.0610  177.6170  144.0290 O   0  0  0  0  0  0  0  0  0  0  0  0
  190.8950  178.2260  143.6030 N   0  0  0  0  0  2  0  0  0  0  0  0
  189.7460  178.3030  144.4070 N   0  0  0  0  0  0  0  0  0  0  0  0
  188.4630  177.1620  142.6890 C   0  0  0  0  0  1  0  0  0  0  0  0
  188.5990  177.8200  144.0290 C   0  0  0  0  0  0  0  0  0  0  0  0
  186.5160  176.8740  147.0140 C   0  0  0  0  0  3  0  0  0  0  0  0
  185.1320  178.9490  145.2680 C   0  0  0  0  0  3  0  0  0  0  0  0
  184.5830  178.1540  146.1840 C   0  0  0  0  0  3  0  0  0  0  0  0
  187.5270  177.3430  146.2850 C   0  0  0  0  0  3  0  0  0  0  0  0
  186.3700  178.6600  144.5180 C   0  0  0  0  0  3  0  0  0  0  0  0
  185.1130  176.8010  146.5130 C   0  0  0  0  0  2  0  0  0  0  0  0
  187.4220  177.9240  144.9250 C   0  0  0  0  0  0  0  0  0  0  0  0
  2 11  1  0  0  0  0
  3  1  1  0  0  0  0
  4  2  2  0  0  0  0
  6  1  1  6  0  0  0
  7  3  2  0  0  0  0
  8 11  2  0  0  0  0
  9 13  1  6  0  0  0
  9  6  1  0  0  0  0
 10  4  1  1  0  0  0
 10 12  1  0  0  0  0
 11  6  1  0  0  0  0
 12  5  2  0  0  0  0
 12  9  1  0  0  0  0
 13  7  1  0  0  0  0
 16 18  1  6  0  0  0
 16 14  1  0  0  0  0
 16 10  1  0  0  0  0
 17 20  1  0  0  0  0
 19 15  1  6  0  0  0
 19 17  1  0  0  0  0
 19 18  1  0  0  0  0
 20 14  1  0  0  0  0
 21 24  1  6  0  0  0
 21 19  1  0  0  0  0
 21 25  1  0  0  0  0
 22 25  1  0  0  0  0
 23 22  1  0  0  0  0
 24 23  1  0  0  0  0
 26  7  1  0  0  0  0
 27 26  1  0  0  0  0
 27 28  1  0  0  0  0
 29 30  1  0  0  0  0
 30 28  2  0  0  0  0
 30 37  1  0  0  0  0
 32 33  2  0  0  0  0
 33 36  1  0  0  0  0
 34 31  2  0  0  0  0
 35 37  2  0  0  0  0
 35 32  1  0  0  0  0
 36 31  1  0  0  0  0
 37 34  1  0  0  0  0
M  END
>  <MODEL>
4

>  <REMARK>
 VINA RESULT:      -7.8      2.041      3.374
  Name = 
  6 active torsions:
  status: ('A' for Active; 'I' for Inactive)
    1  A    between atoms: N_8  and  C_26
    2  A    between atoms: C_10  and  C_19
    3  A    between atoms: N_12  and  N_35
    4  A    between atoms: C_13  and  O_14
    5  A    between atoms: O_14  and  N_35
    6  A    between atoms: C_28  and  C_34
                            x       y       z     vdW  Elec       q    Type
                         _______ _______ _______ _____ _____    ______ ____

>  <TORSDO>
F 6

$$$$
=
 OpenBabel11062421553D

 37 41  0  0  1  0  0  0  0  0999 V2000
  190.3980  170.9560  138.7690 C   0  0  0  0  0  2  0  0  0  0  0  0
  188.2560  174.1630  138.1760 C   0  0  0  0  0  3  0  0  0  0  0  0
  191.8130  171.3050  139.1570 C   0  0  0  0  0  3  0  0  0  0  0  0
  187.8160  174.8210  139.2540 C   0  0  0  0  0  3  0  0  0  0  0  0
  187.7890  172.9300  141.9540 O   0  0  0  0  0  0  0  0  0  0  0  0
  189.3950  172.0470  139.1570 C   0  0  1  0  0  3  0  0  0  0  0  0
  192.1240  172.2020  140.1090 C   0  0  0  0  0  0  0  0  0  0  0  0
  190.2750  173.3270  137.3110 O   0  0  0  0  0  0  0  0  0  0  0  0
  189.6580  172.4470  140.6120 C   0  0  2  0  0  3  0  0  0  0  0  0
  188.4790  174.7610  140.6090 C   0  0  2  0  0  3  0  0  0  0  0  0
  189.3750  173.2080  138.1840 C   0  0  0  0  0  0  0  0  0  0  0  0
  188.5950  173.3590  141.1430 C   0  0  0  0  0  0  0  0  0  0  0  0
  191.0610  173.0350  140.7820 C   0  0  0  0  0  2  0  0  0  0  0  0
  187.0960  176.7270  140.9560 C   0  0  0  0  0  2  0  0  0  0  0  0
  189.5920  178.0100  143.8760 O   0  0  0  0  0  1  0  0  0  0  0  0
  187.9110  175.6900  141.5980 N   0  0  2  0  0  0  0  0  0  0  0  0
  187.4450  178.2300  142.9060 C   0  0  0  0  0  2  0  0  0  0  0  0
  189.0110  176.3270  142.3250 C   0  0  0  0  0  2  0  0  0  0  0  0
  188.5040  177.2510  143.4460 C   0  0  1  0  0  0  0  0  0  0  0  0
  186.4000  177.5540  142.0240 C   0  0  0  0  0  2  0  0  0  0  0  0
  187.9950  176.4410  144.6550 C   0  0  2  0  0  3  0  0  0  0  0  0
  188.5030  175.6660  146.6770 C   0  0  0  0  0  2  0  0  0  0  0  0
  187.3410  176.6020  146.9220 C   0  0  0  0  0  2  0  0  0  0  0  0
  187.0480  177.1850  145.5740 C   0  0  0  0  0  2  0  0  0  0  0  0
  189.0630  175.9610  145.4270 O   0  0  0  0  0  0  0  0  0  0  0  0
  193.4590  172.4700  140.4420 O   0  0  0  0  0  0  0  0  0  0  0  0
  194.0260  172.1920  141.6730 N   0  0  0  0  0  2  0  0  0  0  0  0
  194.1110  173.1470  142.6980 N   0  0  0  0  0  0  0  0  0  0  0  0
  192.5260  171.8700  144.0230 C   0  0  0  0  0  1  0  0  0  0  0  0
  193.4390  173.0390  143.8070 C   0  0  0  0  0  0  0  0  0  0  0  0
  192.2860  175.0100  146.7950 C   0  0  0  0  0  3  0  0  0  0  0  0
  194.9410  176.0310  145.7090 C   0  0  0  0  0  3  0  0  0  0  0  0
  194.0880  176.6640  146.5130 C   0  0  0  0  0  3  0  0  0  0  0  0
  192.6910  173.9870  146.0450 C   0  0  0  0  0  3  0  0  0  0  0  0
  194.5830  174.9630  144.7550 C   0  0  0  0  0  3  0  0  0  0  0  0
  192.6170  176.4300  146.4860 C   0  0  0  0  0  2  0  0  0  0  0  0
  193.5750  174.0760  144.8570 C   0  0  0  0  0  0  0  0  0  0  0  0
  1  3  1  0  0  0  0
  2 11  1  0  0  0  0
  2  4  2  0  0  0  0
  3  7  2  0  0  0  0
  6  1  1  6  0  0  0
  6  9  1  0  0  0  0
  7 26  1  0  0  0  0
  7 13  1  0  0  0  0
  8 11  2  0  0  0  0
  9 13  1  6  0  0  0
  9 12  1  0  0  0  0
 10  4  1  6  0  0  0
 10 12  1  0  0  0  0
 10 16  1  0  0  0  0
 11  6  1  0  0  0  0
 12  5  2  0  0  0  0
 14 20  1  0  0  0  0
 16 14  1  6  0  0  0
 16 18  1  0  0  0  0
 17 19  1  0  0  0  0
 18 19  1  0  0  0  0
 19 15  1  1  0  0  0
 19 21  1  0  0  0  0
 20 17  1  0  0  0  0
 21 25  1  0  0  0  0
 21 24  1  1  0  0  0
 22 23  1  0  0  0  0
 24 23  1  0  0  0  0
 25 22  1  0  0  0  0
 26 27  1  0  0  0  0
 27 28  1  0  0  0  0
 28 30  2  0  0  0  0
 30 29  1  0  0  0  0
 30 37  1  0  0  0  0
 32 33  2  0  0  0  0
 34 31  2  0  0  0  0
 35 37  2  0  0  0  0
 35 32  1  0  0  0  0
 36 33  1  0  0  0  0
 36 31  1  0  0  0  0
 37 34  1  0  0  0  0
M  END
>  <MODEL>
5

>  <REMARK>
 VINA RESULT:      -7.6      2.671      7.019
  Name = 
  6 active torsions:
  status: ('A' for Active; 'I' for Inactive)
    1  A    between atoms: N_8  and  C_26
    2  A    between atoms: C_10  and  C_19
    3  A    between atoms: N_12  and  N_35
    4  A    between atoms: C_13  and  O_14
    5  A    between atoms: O_14  and  N_35
    6  A    between atoms: C_28  and  C_34
                            x       y       z     vdW  Elec       q    Type
                         _______ _______ _______ _____ _____    ______ ____

>  <TORSDO>
F 6

$$$$
=
 OpenBabel11062421553D

 37 41  0  0  1  0  0  0  0  0999 V2000
  195.2710  175.0340  146.0600 C   0  0  0  0  0  2  0  0  0  0  0  0
  195.7330  175.2120  142.1890 C   0  0  0  0  0  3  0  0  0  0  0  0
  194.1380  175.9170  146.5180 C   0  0  0  0  0  3  0  0  0  0  0  0
  194.8710  174.5270  141.4320 C   0  0  0  0  0  3  0  0  0  0  0  0
  193.3670  172.1190  143.1080 O   0  0  0  0  0  0  0  0  0  0  0  0
  195.0950  174.5510  144.6170 C   0  0  1  0  0  3  0  0  0  0  0  0
  192.9210  175.9210  145.9490 C   0  0  0  0  0  0  0  0  0  0  0  0
  195.6980  176.7850  143.9350 O   0  0  0  0  0  0  0  0  0  0  0  0
  193.6670  174.0180  144.4590 C   0  0  2  0  0  3  0  0  0  0  0  0
  193.4780  174.1440  141.8730 C   0  0  2  0  0  3  0  0  0  0  0  0
  195.4900  175.5920  143.5900 C   0  0  0  0  0  0  0  0  0  0  0  0
  193.4670  173.3350  143.1420 C   0  0  0  0  0  0  0  0  0  0  0  0
  192.6330  175.1210  144.7020 C   0  0  0  0  0  2  0  0  0  0  0  0
  193.0970  173.9610  139.4810 C   0  0  0  0  0  2  0  0  0  0  0  0
  189.0920  173.9190  140.0890 O   0  0  0  0  0  1  0  0  0  0  0  0
  192.6590  173.5330  140.8140 N   0  0  2  0  0  0  0  0  0  0  0  0
  190.8420  173.4570  138.5630 C   0  0  0  0  0  2  0  0  0  0  0  0
  191.2650  173.9350  141.0130 C   0  0  0  0  0  2  0  0  0  0  0  0
  190.3210  173.2660  140.0000 C   0  0  1  0  0  0  0  0  0  0  0  0
  192.3340  173.1770  138.4250 C   0  0  0  0  0  2  0  0  0  0  0  0
  190.0840  171.7820  140.3470 C   0  0  2  0  0  3  0  0  0  0  0  0
  190.9820  169.7470  140.3720 C   0  0  0  0  0  2  0  0  0  0  0  0
  190.7030  170.0450  141.8280 C   0  0  0  0  0  2  0  0  0  0  0  0
  190.1720  171.4450  141.8220 C   0  0  0  0  0  2  0  0  0  0  0  0
  190.9800  170.9520  139.6570 O   0  0  0  0  0  0  0  0  0  0  0  0
  191.8980  176.7490  146.4320 O   0  0  0  0  0  0  0  0  0  0  0  0
  190.7000  176.2870  146.9460 N   0  0  0  0  0  2  0  0  0  0  0  0
  189.5120  177.0340  146.8780 N   0  0  0  0  0  0  0  0  0  0  0  0
  188.8140  175.7540  144.9360 C   0  0  0  0  0  1  0  0  0  0  0  0
  188.6070  176.8200  145.9690 C   0  0  0  0  0  0  0  0  0  0  0  0
  185.4140  178.1650  147.4320 C   0  0  0  0  0  3  0  0  0  0  0  0
  185.8230  179.0740  144.5540 C   0  0  0  0  0  3  0  0  0  0  0  0
  184.6920  179.0680  145.2570 C   0  0  0  0  0  3  0  0  0  0  0  0
  186.7120  177.9330  147.2490 C   0  0  0  0  0  3  0  0  0  0  0  0
  186.9770  178.1840  144.7870 C   0  0  0  0  0  3  0  0  0  0  0  0
  184.4070  178.0790  146.3350 C   0  0  0  0  0  2  0  0  0  0  0  0
  187.3690  177.6350  145.9530 C   0  0  0  0  0  0  0  0  0  0  0  0
  1  3  1  0  0  0  0
  2 11  1  0  0  0  0
  4  2  2  0  0  0  0
  5 12  2  0  0  0  0
  6  1  1  1  0  0  0
  7 26  1  0  0  0  0
  7  3  2  0  0  0  0
  9  6  1  0  0  0  0
  9 13  1  6  0  0  0
 10  4  1  6  0  0  0
 10 12  1  0  0  0  0
 11  8  2  0  0  0  0
 11  6  1  0  0  0  0
 12  9  1  0  0  0  0
 13  7  1  0  0  0  0
 16 14  1  6  0  0  0
 16 18  1  0  0  0  0
 16 10  1  0  0  0  0
 17 19  1  0  0  0  0
 19 15  1  1  0  0  0
 19 21  1  0  0  0  0
 19 18  1  0  0  0  0
 20 17  1  0  0  0  0
 20 14  1  0  0  0  0
 21 24  1  1  0  0  0
 22 23  1  0  0  0  0
 24 23  1  0  0  0  0
 25 21  1  0  0  0  0
 25 22  1  0  0  0  0
 26 27  1  0  0  0  0
 28 27  1  0  0  0  0
 29 30  1  0  0  0  0
 30 28  2  0  0  0  0
 32 35  1  0  0  0  0
 32 33  2  0  0  0  0
 33 36  1  0  0  0  0
 34 31  2  0  0  0  0
 35 37  2  0  0  0  0
 36 31  1  0  0  0  0
 37 30  1  0  0  0  0
 37 34  1  0  0  0  0
M  END
>  <MODEL>
6

>  <REMARK>
 VINA RESULT:      -7.6      2.783      4.510
  Name = 
  6 active torsions:
  status: ('A' for Active; 'I' for Inactive)
    1  A    between atoms: N_8  and  C_26
    2  A    between atoms: C_10  and  C_19
    3  A    between atoms: N_12  and  N_35
    4  A    between atoms: C_13  and  O_14
    5  A    between atoms: O_14  and  N_35
    6  A    between atoms: C_28  and  C_34
                            x       y       z     vdW  Elec       q    Type
                         _______ _______ _______ _____ _____    ______ ____

>  <TORSDO>
F 6

$$$$
=
 OpenBabel11062421553D

 37 41  0  0  1  0  0  0  0  0999 V2000
  189.2810  172.3380  140.3100 C   0  0  0  0  0  2  0  0  0  0  0  0
  191.0680  171.3590  143.6380 C   0  0  0  0  0  3  0  0  0  0  0  0
  188.5030  173.6210  140.4620 C   0  0  0  0  0  3  0  0  0  0  0  0
  192.1860  172.0190  143.9560 C   0  0  0  0  0  3  0  0  0  0  0  0
  193.5880  173.4480  141.3370 O   0  0  0  0  0  0  0  0  0  0  0  0
  190.4670  172.2510  141.2760 C   0  0  1  0  0  3  0  0  0  0  0  0
  189.0100  174.7380  141.0120 C   0  0  0  0  0  0  0  0  0  0  0  0
  188.8500  171.8270  143.0150 O   0  0  0  0  0  0  0  0  0  0  0  0
  191.2450  173.5690  141.2020 C   0  0  2  0  0  3  0  0  0  0  0  0
  192.5210  173.4040  143.4580 C   0  0  2  0  0  3  0  0  0  0  0  0
  190.0630  171.8410  142.6770 C   0  0  0  0  0  0  0  0  0  0  0  0
  192.5370  173.4990  141.9560 C   0  0  0  0  0  0  0  0  0  0  0  0
  190.3780  174.7500  141.6480 C   0  0  0  0  0  2  0  0  0  0  0  0
  194.1090  173.2750  145.2900 C   0  0  0  0  0  2  0  0  0  0  0  0
  194.2610  177.3180  145.4880 O   0  0  0  0  0  1  0  0  0  0  0  0
  193.7270  173.9880  144.0670 N   0  0  2  0  0  0  0  0  0  0  0  0
  195.3170  175.2910  146.1040 C   0  0  0  0  0  2  0  0  0  0  0  0
  193.4520  175.3880  144.3940 C   0  0  0  0  0  2  0  0  0  0  0  0
  194.6930  176.1040  144.9540 C   0  0  1  0  0  0  0  0  0  0  0  0
  195.4450  173.8050  145.7850 C   0  0  0  0  0  2  0  0  0  0  0  0
  195.7100  176.4220  143.8400 C   0  0  2  0  0  3  0  0  0  0  0  0
  197.3830  175.6210  142.6120 C   0  0  0  0  0  2  0  0  0  0  0  0
  196.3040  175.9390  141.6020 C   0  0  0  0  0  2  0  0  0  0  0  0
  195.1480  176.4040  142.4320 C   0  0  0  0  0  2  0  0  0  0  0  0
  196.8000  175.5410  143.8840 O   0  0  0  0  0  0  0  0  0  0  0  0
  188.2460  175.9090  141.1070 O   0  0  0  0  0  0  0  0  0  0  0  0
  186.9910  175.9760  141.6850 N   0  0  0  0  0  2  0  0  0  0  0  0
  186.8030  176.2270  143.0540 N   0  0  0  0  0  0  0  0  0  0  0  0
  185.1270  177.9010  142.5190 C   0  0  0  0  0  1  0  0  0  0  0  0
  185.9470  177.1050  143.4880 C   0  0  0  0  0  0  0  0  0  0  0  0
  184.4200  178.7030  146.5310 C   0  0  0  0  0  3  0  0  0  0  0  0
  186.7070  176.8280  147.2530 C   0  0  0  0  0  3  0  0  0  0  0  0
  186.1720  177.7910  148.0010 C   0  0  0  0  0  3  0  0  0  0  0  0
  184.5440  177.9760  145.4220 C   0  0  0  0  0  3  0  0  0  0  0  0
  186.7030  176.7910  145.7770 C   0  0  0  0  0  3  0  0  0  0  0  0
  185.5660  179.0260  147.4270 C   0  0  0  0  0  2  0  0  0  0  0  0
  185.7870  177.3210  144.9460 C   0  0  0  0  0  0  0  0  0  0  0  0
  1  3  1  0  0  0  0
  2  4  2  0  0  0  0
  3  7  2  0  0  0  0
  5 12  2  0  0  0  0
  6  1  1  6  0  0  0
  6 11  1  0  0  0  0
  7 26  1  0  0  0  0
  7 13  1  0  0  0  0
  9  6  1  0  0  0  0
  9 13  1  1  0  0  0
  9 12  1  0  0  0  0
 10  4  1  6  0  0  0
 10 16  1  0  0  0  0
 11  8  2  0  0  0  0
 11  2  1  0  0  0  0
 12 10  1  0  0  0  0
 14 20  1  0  0  0  0
 16 18  1  1  0  0  0
 16 14  1  0  0  0  0
 18 19  1  0  0  0  0
 19 15  1  1  0  0  0
 19 17  1  0  0  0  0
 20 17  1  0  0  0  0
 21 24  1  6  0  0  0
 21 25  1  0  0  0  0
 21 19  1  0  0  0  0
 22 25  1  0  0  0  0
 23 24  1  0  0  0  0
 23 22  1  0  0  0  0
 26 27  1  0  0  0  0
 27 28  1  0  0  0  0
 28 30  2  0  0  0  0
 29 30  1  0  0  0  0
 30 37  1  0  0  0  0
 31 36  1  0  0  0  0
 32 33  2  0  0  0  0
 34 31  2  0  0  0  0
 35 32  1  0  0  0  0
 36 33  1  0  0  0  0
 37 34  1  0  0  0  0
 37 35  2  0  0  0  0
M  END
>  <MODEL>
7

>  <REMARK>
 VINA RESULT:      -7.6      3.273      6.240
  Name = 
  6 active torsions:
  status: ('A' for Active; 'I' for Inactive)
    1  A    between atoms: N_8  and  C_26
    2  A    between atoms: C_10  and  C_19
    3  A    between atoms: N_12  and  N_35
    4  A    between atoms: C_13  and  O_14
    5  A    between atoms: O_14  and  N_35
    6  A    between atoms: C_28  and  C_34
                            x       y       z     vdW  Elec       q    Type
                         _______ _______ _______ _____ _____    ______ ____

>  <TORSDO>
F 6

$$$$
=
 OpenBabel11062421553D

 37 41  0  0  1  0  0  0  0  0999 V2000
  190.6150  174.5420  146.6670 C   0  0  0  0  0  2  0  0  0  0  0  0
  193.6250  176.9670  146.1340 C   0  0  0  0  0  3  0  0  0  0  0  0
  189.8170  174.3700  145.3990 C   0  0  0  0  0  3  0  0  0  0  0  0
  194.7010  176.4880  145.5020 C   0  0  0  0  0  3  0  0  0  0  0  0
  194.8410  173.1950  145.5850 O   0  0  0  0  0  0  0  0  0  0  0  0
  192.0800  174.8980  146.3970 C   0  0  1  0  0  3  0  0  0  0  0  0
  190.3690  174.1010  144.2040 C   0  0  0  0  0  0  0  0  0  0  0  0
  191.2990  177.1060  145.8210 O   0  0  0  0  0  0  0  0  0  0  0  0
  192.6230  173.9330  145.3380 C   0  0  2  0  0  3  0  0  0  0  0  0
  194.6670  175.3220  144.5430 C   0  0  2  0  0  3  0  0  0  0  0  0
  192.2850  176.3630  146.0710 C   0  0  0  0  0  0  0  0  0  0  0  0
  194.1030  174.0710  145.1610 C   0  0  0  0  0  0  0  0  0  0  0  0
  191.8650  174.0780  144.0160 C   0  0  0  0  0  2  0  0  0  0  0  0
  196.5560  176.3280  143.3950 C   0  0  0  0  0  2  0  0  0  0  0  0
  196.6110  173.2740  140.7360 O   0  0  0  0  0  1  0  0  0  0  0  0
  195.9420  175.0770  143.8500 N   0  0  2  0  0  0  0  0  0  0  0  0
  197.8220  175.0900  141.6500 C   0  0  0  0  0  2  0  0  0  0  0  0
  195.6840  174.2200  142.6910 C   0  0  0  0  0  2  0  0  0  0  0  0
  196.9810  173.8370  141.9570 C   0  0  1  0  0  0  0  0  0  0  0  0
  197.9400  176.0380  142.8390 C   0  0  0  0  0  2  0  0  0  0  0  0
  197.7760  172.7710  142.7380 C   0  0  2  0  0  3  0  0  0  0  0  0
  197.8980  171.6080  144.6300 C   0  0  0  0  0  2  0  0  0  0  0  0
  197.6990  170.5560  143.5630 C   0  0  0  0  0  2  0  0  0  0  0  0
  197.5380  171.3410  142.2980 C   0  0  0  0  0  2  0  0  0  0  0  0
  197.5130  172.8520  144.1130 O   0  0  0  0  0  0  0  0  0  0  0  0
  189.5740  173.9300  143.0620 O   0  0  0  0  0  0  0  0  0  0  0  0
  188.7720  174.9170  142.5170 N   0  0  0  0  0  2  0  0  0  0  0  0
  187.6300  175.4090  143.1710 N   0  0  0  0  0  0  0  0  0  0  0  0
  188.7650  177.5180  143.5720 C   0  0  0  0  0  1  0  0  0  0  0  0
  187.5780  176.6090  143.6710 C   0  0  0  0  0  0  0  0  0  0  0  0
  184.3850  178.5820  143.9070 C   0  0  0  0  0  3  0  0  0  0  0  0
  185.0170  177.1170  146.5010 C   0  0  0  0  0  3  0  0  0  0  0  0
  184.1870  178.1440  146.3230 C   0  0  0  0  0  3  0  0  0  0  0  0
  185.2760  177.6770  143.5060 C   0  0  0  0  0  3  0  0  0  0  0  0
  186.1840  176.8060  145.6530 C   0  0  0  0  0  3  0  0  0  0  0  0
  184.3890  179.1820  145.2720 C   0  0  0  0  0  2  0  0  0  0  0  0
  186.3420  177.0750  144.3430 C   0  0  0  0  0  0  0  0  0  0  0  0
  3  1  1  0  0  0  0
  4  2  2  0  0  0  0
  6  1  1  6  0  0  0
  7  3  2  0  0  0  0
  8 11  2  0  0  0  0
  9 13  1  6  0  0  0
  9  6  1  0  0  0  0
 10 12  1  0  0  0  0
 10  4  1  1  0  0  0
 11  2  1  0  0  0  0
 11  6  1  0  0  0  0
 12  9  1  0  0  0  0
 12  5  2  0  0  0  0
 13  7  1  0  0  0  0
 14 16  1  0  0  0  0
 16 18  1  6  0  0  0
 16 10  1  0  0  0  0
 17 19  1  0  0  0  0
 17 20  1  0  0  0  0
 19 15  1  6  0  0  0
 19 18  1  0  0  0  0
 19 21  1  0  0  0  0
 20 14  1  0  0  0  0
 21 24  1  6  0  0  0
 21 25  1  0  0  0  0
 23 22  1  0  0  0  0
 24 23  1  0  0  0  0
 25 22  1  0  0  0  0
 26  7  1  0  0  0  0
 27 26  1  0  0  0  0
 27 28  1  0  0  0  0
 28 30  2  0  0  0  0
 29 30  1  0  0  0  0
 30 37  1  0  0  0  0
 31 36  1  0  0  0  0
 33 32  2  0  0  0  0
 34 31  2  0  0  0  0
 34 37  1  0  0  0  0
 35 32  1  0  0  0  0
 36 33  1  0  0  0  0
 37 35  2  0  0  0  0
M  END
>  <MODEL>
8

>  <REMARK>
 VINA RESULT:      -7.5      4.542      7.052
  Name = 
  6 active torsions:
  status: ('A' for Active; 'I' for Inactive)
    1  A    between atoms: N_8  and  C_26
    2  A    between atoms: C_10  and  C_19
    3  A    between atoms: N_12  and  N_35
    4  A    between atoms: C_13  and  O_14
    5  A    between atoms: O_14  and  N_35
    6  A    between atoms: C_28  and  C_34
                            x       y       z     vdW  Elec       q    Type
                         _______ _______ _______ _____ _____    ______ ____

>  <TORSDO>
F 6

$$$$
=
 OpenBabel11062421553D

 37 41  0  0  1  0  0  0  0  0999 V2000
  195.3610  175.0440  146.1410 C   0  0  0  0  0  2  0  0  0  0  0  0
  196.3200  174.6190  142.3830 C   0  0  0  0  0  3  0  0  0  0  0  0
  194.2360  176.0330  146.3120 C   0  0  0  0  0  3  0  0  0  0  0  0
  195.5200  173.8660  141.6220 C   0  0  0  0  0  3  0  0  0  0  0  0
  193.6690  171.8030  143.4060 O   0  0  0  0  0  0  0  0  0  0  0  0
  195.3390  174.3580  144.7720 C   0  0  1  0  0  3  0  0  0  0  0  0
  193.1030  176.0030  145.5890 C   0  0  0  0  0  0  0  0  0  0  0  0
  196.1610  176.4370  143.8650 O   0  0  0  0  0  0  0  0  0  0  0  0
  193.9130  173.8690  144.5000 C   0  0  2  0  0  3  0  0  0  0  0  0
  194.0620  173.6130  141.9210 C   0  0  2  0  0  3  0  0  0  0  0  0
  195.9250  175.2150  143.6690 C   0  0  0  0  0  0  0  0  0  0  0  0
  193.8390  173.0050  143.2800 C   0  0  0  0  0  0  0  0  0  0  0  0
  192.9270  175.0390  144.4420 C   0  0  0  0  0  2  0  0  0  0  0  0
  194.2530  172.0170  140.1010 C   0  0  0  0  0  2  0  0  0  0  0  0
  191.6130  174.1610  137.8990 O   0  0  0  0  0  1  0  0  0  0  0  0
  193.3480  172.8860  140.8600 N   0  0  2  0  0  0  0  0  0  0  0  0
  192.7020  172.0750  138.1580 C   0  0  0  0  0  2  0  0  0  0  0  0
  192.7450  173.8630  139.9500 C   0  0  0  0  0  2  0  0  0  0  0  0
  191.8990  173.1880  138.8570 C   0  0  1  0  0  0  0  0  0  0  0  0
  193.4430  171.1680  139.1340 C   0  0  0  0  0  2  0  0  0  0  0  0
  190.5560  172.6800  139.4190 C   0  0  2  0  0  3  0  0  0  0  0  0
  188.6230  173.2750  140.3460 C   0  0  0  0  0  2  0  0  0  0  0  0
  188.2220  172.6320  139.0370 C   0  0  0  0  0  2  0  0  0  0  0  0
  189.5240  172.3020  138.3750 C   0  0  0  0  0  2  0  0  0  0  0  0
  189.9780  173.6250  140.2790 O   0  0  0  0  0  0  0  0  0  0  0  0
  192.0810  176.9370  145.8070 O   0  0  0  0  0  0  0  0  0  0  0  0
  190.9130  176.6670  146.4980 N   0  0  0  0  0  2  0  0  0  0  0  0
  189.6640  177.1640  146.0940 N   0  0  0  0  0  0  0  0  0  0  0  0
  188.5630  175.2930  147.1820 C   0  0  0  0  0  1  0  0  0  0  0  0
  188.5480  176.5660  146.3910 C   0  0  0  0  0  0  0  0  0  0  0  0
  186.3770  178.7320  144.2140 C   0  0  0  0  0  3  0  0  0  0  0  0
  184.7870  177.3910  146.4370 C   0  0  0  0  0  3  0  0  0  0  0  0
  184.4410  178.4510  145.7090 C   0  0  0  0  0  3  0  0  0  0  0  0
  187.1990  177.7550  144.5930 C   0  0  0  0  0  3  0  0  0  0  0  0
  186.1710  176.9620  146.7160 C   0  0  0  0  0  3  0  0  0  0  0  0
  185.4320  179.4110  145.1450 C   0  0  0  0  0  2  0  0  0  0  0  0
  187.2580  177.1430  145.9430 C   0  0  0  0  0  0  0  0  0  0  0  0
  1  3  1  0  0  0  0
  2 11  1  0  0  0  0
  4  2  2  0  0  0  0
  6  1  1  1  0  0  0
  7 26  1  0  0  0  0
  7  3  2  0  0  0  0
  9 13  1  6  0  0  0
  9  6  1  0  0  0  0
 10  4  1  6  0  0  0
 10 12  1  0  0  0  0
 11  8  2  0  0  0  0
 11  6  1  0  0  0  0
 12  5  2  0  0  0  0
 12  9  1  0  0  0  0
 13  7  1  0  0  0  0
 14 16  1  0  0  0  0
 16 18  1  6  0  0  0
 16 10  1  0  0  0  0
 17 19  1  0  0  0  0
 17 20  1  0  0  0  0
 19 15  1  6  0  0  0
 19 21  1  0  0  0  0
 19 18  1  0  0  0  0
 20 14  1  0  0  0  0
 21 24  1  6  0  0  0
 21 25  1  0  0  0  0
 23 22  1  0  0  0  0
 24 23  1  0  0  0  0
 25 22  1  0  0  0  0
 26 27  1  0  0  0  0
 28 30  2  0  0  0  0
 28 27  1  0  0  0  0
 30 29  1  0  0  0  0
 31 34  2  0  0  0  0
 31 36  1  0  0  0  0
 32 35  1  0  0  0  0
 33 32  2  0  0  0  0
 34 37  1  0  0  0  0
 36 33  1  0  0  0  0
 37 30  1  0  0  0  0
 37 35  2  0  0  0  0
M  END
>  <MODEL>
9

>  <REMARK>
 VINA RESULT:      -7.5      3.011      4.173
  Name = 
  6 active torsions:
  status: ('A' for Active; 'I' for Inactive)
    1  A    between atoms: N_8  and  C_26
    2  A    between atoms: C_10  and  C_19
    3  A    between atoms: N_12  and  N_35
    4  A    between atoms: C_13  and  O_14
    5  A    between atoms: O_14  and  N_35
    6  A    between atoms: C_28  and  C_34
                            x       y       z     vdW  Elec       q    Type
                         _______ _______ _______ _____ _____    ______ ____

>  <TORSDO>
F 6

$$$$
