=
 OpenBabel11062423083D

 28 31  0  0  1  0  0  0  0  0999 V2000
  190.7500  175.7460  147.4960 C   0  0  0  0  0  2  0  0  0  0  0  0
  191.2930  177.2790  143.3800 C   0  0  0  0  0  3  0  0  0  0  0  0
  188.9040  174.5130  146.5830 O   0  0  0  0  0  1  0  0  0  0  0  0
  192.6380  174.2490  144.8720 C   0  0  0  0  0  1  0  0  0  0  0  0
  191.3220  176.3530  144.4400 C   0  0  0  0  0  0  0  0  0  0  0  0
  190.1390  175.0860  146.2770 C   0  0  1  0  0  3  0  0  0  0  0  0
  188.9310  177.6220  143.6570 C   0  0  0  0  0  3  0  0  0  0  0  0
  192.6720  175.7830  144.9090 C   0  0  1  0  0  0  0  0  0  0  0  0
  190.1130  177.8960  142.9840 C   0  0  0  0  0  3  0  0  0  0  0  0
  188.9040  176.7090  144.7170 C   0  0  0  0  0  0  0  0  0  0  0  0
  192.2580  175.5400  147.4780 C   0  0  0  0  0  2  0  0  0  0  0  0
  192.9490  176.3020  146.3400 C   0  0  0  0  0  2  0  0  0  0  0  0
  190.1000  176.0490  145.1090 C   0  0  0  0  0  0  0  0  0  0  0  0
  194.2710  175.2400  143.0670 N   0  0  0  0  0  2  0  0  0  0  0  0
  196.1670  175.9460  144.1000 N   0  0  0  0  0  2  0  0  0  0  0  0
  196.3190  174.6510  142.2110 C   0  0  0  0  0  1  0  0  0  0  0  0
  193.8500  176.2640  144.0130 C   0  0  2  0  0  3  0  0  0  0  0  0
  195.5730  174.8560  143.4390 N   0  0  0  0  0  0  0  0  0  0  0  0
  195.0900  176.6240  144.7860 C   0  0  0  0  0  2  0  0  0  0  0  0
  187.6870  176.5290  145.4570 N   0  0  0  0  0  2  0  0  0  0  0  0
  185.6220  177.3250  144.3270 C   0  0  0  0  0  0  0  0  0  0  0  0
  186.5300  177.3770  145.4020 C   0  0  0  0  0  0  0  0  0  0  0  0
  184.5030  178.1580  144.3240 C   0  0  0  0  0  3  0  0  0  0  0  0
  185.8010  176.4320  143.2790 O   0  0  0  0  0  1  0  0  0  0  0  0
  184.2840  179.0170  145.4000 C   0  0  0  0  0  3  0  0  0  0  0  0
  187.1230  178.2880  147.6030 N   0  0  0  0  0  1  0  0  0  0  0  0
  186.2500  178.2330  146.4790 C   0  0  0  0  0  0  0  0  0  0  0  0
  185.1500  179.0330  146.4470 N   0  0  0  0  0  0  0  0  0  0  0  0
  2  5  1  0  0  0  0
  5  8  1  0  0  0  0
  5 13  2  0  0  0  0
  6  3  1  1  0  0  0
  6  1  1  0  0  0  0
  7 10  2  0  0  0  0
  8  4  1  1  0  0  0
  8 12  1  0  0  0  0
  9  2  2  0  0  0  0
  9  7  1  0  0  0  0
 10 13  1  0  0  0  0
 10 20  1  0  0  0  0
 11  1  1  0  0  0  0
 12 11  1  0  0  0  0
 13  6  1  0  0  0  0
 14 18  1  0  0  0  0
 14 17  1  0  0  0  0
 15 19  1  0  0  0  0
 16 18  1  0  0  0  0
 17 19  1  1  0  0  0
 17  8  1  0  0  0  0
 18 15  1  0  0  0  0
 21 22  1  0  0  0  0
 22 20  1  0  0  0  0
 22 27  2  0  0  0  0
 23 21  2  0  0  0  0
 23 25  1  0  0  0  0
 24 21  1  0  0  0  0
 25 28  2  0  0  0  0
 27 26  1  0  0  0  0
 28 27  1  0  0  0  0
M  END
>  <MODEL>
1

>  <REMARK>
 VINA RESULT:      -7.8      0.000      0.000
  Name = 
  3 active torsions:
  status: ('A' for Active; 'I' for Inactive)
    1  A    between atoms: C_2  and  N_20
    2  A    between atoms: C_18  and  C_21
    3  A    between atoms: N_20  and  C_24
                            x       y       z     vdW  Elec       q    Type
                         _______ _______ _______ _____ _____    ______ ____

>  <TORSDO>
F 3

$$$$
=
 OpenBabel11062423083D

 28 31  0  0  1  0  0  0  0  0999 V2000
  190.2740  174.8410  146.9980 C   0  0  0  0  0  2  0  0  0  0  0  0
  189.8420  177.7760  143.7140 C   0  0  0  0  0  3  0  0  0  0  0  0
  192.2200  176.1070  147.6090 O   0  0  0  0  0  1  0  0  0  0  0  0
  188.5850  177.9760  147.1190 C   0  0  0  0  0  1  0  0  0  0  0  0
  189.8110  177.2810  145.0310 C   0  0  0  0  0  0  0  0  0  0  0  0
  190.9720  176.1860  146.9890 C   0  0  1  0  0  3  0  0  0  0  0  0
  192.1680  177.2210  143.4880 C   0  0  0  0  0  3  0  0  0  0  0  0
  188.4720  177.2230  145.7870 C   0  0  1  0  0  0  0  0  0  0  0  0
  191.0050  177.7590  142.9560 C   0  0  0  0  0  3  0  0  0  0  0  0
  192.1930  176.7150  144.7930 C   0  0  0  0  0  0  0  0  0  0  0  0
  188.7810  175.0510  147.2060 C   0  0  0  0  0  2  0  0  0  0  0  0
  188.1050  175.7370  146.0120 C   0  0  0  0  0  2  0  0  0  0  0  0
  191.0150  176.7580  145.5880 C   0  0  0  0  0  0  0  0  0  0  0  0
  186.3600  178.5580  145.8180 N   0  0  0  0  0  2  0  0  0  0  0  0
  185.1210  177.1880  144.4940 N   0  0  0  0  0  2  0  0  0  0  0  0
  184.0810  178.8290  145.7170 C   0  0  0  0  0  1  0  0  0  0  0  0
  187.3130  177.8600  144.9670 C   0  0  2  0  0  3  0  0  0  0  0  0
  185.1480  177.8450  145.7370 N   0  0  0  0  0  0  0  0  0  0  0  0
  186.4980  176.8600  144.1930 C   0  0  0  0  0  2  0  0  0  0  0  0
  193.3830  176.0710  145.2730 N   0  0  0  0  0  2  0  0  0  0  0  0
  195.4450  175.6650  143.9480 C   0  0  0  0  0  0  0  0  0  0  0  0
  194.2410  175.2060  144.5150 C   0  0  0  0  0  0  0  0  0  0  0  0
  196.2550  174.7830  143.2310 C   0  0  0  0  0  3  0  0  0  0  0  0
  195.8620  176.9790  144.1150 O   0  0  0  0  0  1  0  0  0  0  0  0
  195.8730  173.4480  143.1060 C   0  0  0  0  0  3  0  0  0  0  0  0
  192.7250  173.3330  144.9830 N   0  0  0  0  0  1  0  0  0  0  0  0
  193.9150  173.8460  144.3920 C   0  0  0  0  0  0  0  0  0  0  0  0
  194.7250  173.0100  143.6880 N   0  0  0  0  0  0  0  0  0  0  0  0
  1 11  1  0  0  0  0
  2  5  1  0  0  0  0
  5 13  2  0  0  0  0
  5  8  1  0  0  0  0
  6  1  1  0  0  0  0
  6  3  1  6  0  0  0
  7 10  2  0  0  0  0
  8 12  1  0  0  0  0
  8  4  1  1  0  0  0
  9  7  1  0  0  0  0
  9  2  2  0  0  0  0
 10 20  1  0  0  0  0
 10 13  1  0  0  0  0
 12 11  1  0  0  0  0
 13  6  1  0  0  0  0
 15 18  1  0  0  0  0
 16 18  1  0  0  0  0
 17 19  1  1  0  0  0
 17  8  1  0  0  0  0
 17 14  1  0  0  0  0
 18 14  1  0  0  0  0
 19 15  1  0  0  0  0
 21 24  1  0  0  0  0
 21 22  1  0  0  0  0
 22 20  1  0  0  0  0
 23 21  2  0  0  0  0
 25 23  1  0  0  0  0
 25 28  2  0  0  0  0
 27 22  2  0  0  0  0
 27 26  1  0  0  0  0
 28 27  1  0  0  0  0
M  END
>  <MODEL>
2

>  <REMARK>
 VINA RESULT:      -7.6      2.220      7.721
  Name = 
  3 active torsions:
  status: ('A' for Active; 'I' for Inactive)
    1  A    between atoms: C_2  and  N_20
    2  A    between atoms: C_18  and  C_21
    3  A    between atoms: N_20  and  C_24
                            x       y       z     vdW  Elec       q    Type
                         _______ _______ _______ _____ _____    ______ ____

>  <TORSDO>
F 3

$$$$
=
 OpenBabel11062423083D

 28 31  0  0  1  0  0  0  0  0999 V2000
  189.3720  173.5620  143.1100 C   0  0  0  0  0  2  0  0  0  0  0  0
  191.1120  176.5760  145.8430 C   0  0  0  0  0  3  0  0  0  0  0  0
  188.2850  175.4270  142.0620 O   0  0  0  0  0  1  0  0  0  0  0  0
  192.3630  175.4360  142.6250 C   0  0  0  0  0  1  0  0  0  0  0  0
  190.9220  175.8570  144.6490 C   0  0  0  0  0  0  0  0  0  0  0  0
  189.4070  175.0430  142.7980 C   0  0  1  0  0  3  0  0  0  0  0  0
  188.8030  177.2340  145.8950 C   0  0  0  0  0  3  0  0  0  0  0  0
  192.0790  175.0210  144.0750 C   0  0  1  0  0  0  0  0  0  0  0  0
  190.0730  177.2660  146.4530 C   0  0  0  0  0  3  0  0  0  0  0  0
  188.5570  176.5350  144.7080 C   0  0  0  0  0  0  0  0  0  0  0  0
  190.7850  172.9990  143.0420 C   0  0  0  0  0  2  0  0  0  0  0  0
  191.6900  173.5260  144.1640 C   0  0  0  0  0  2  0  0  0  0  0  0
  189.6230  175.8520  144.0600 C   0  0  0  0  0  0  0  0  0  0  0  0
  194.5260  175.5260  144.0470 N   0  0  0  0  0  2  0  0  0  0  0  0
  195.2030  173.7940  145.3530 N   0  0  0  0  0  2  0  0  0  0  0  0
  196.7540  174.9760  144.1410 C   0  0  0  0  0  1  0  0  0  0  0  0
  193.3890  175.2010  144.8960 C   0  0  2  0  0  3  0  0  0  0  0  0
  195.4090  174.4310  144.1160 N   0  0  0  0  0  0  0  0  0  0  0  0
  193.8000  173.9690  145.6570 C   0  0  0  0  0  2  0  0  0  0  0  0
  187.2130  176.4360  144.2170 N   0  0  0  0  0  2  0  0  0  0  0  0
  185.2830  177.4650  145.3960 C   0  0  0  0  0  0  0  0  0  0  0  0
  186.1960  177.4440  144.3250 C   0  0  0  0  0  0  0  0  0  0  0  0
  184.3210  178.4730  145.4680 C   0  0  0  0  0  3  0  0  0  0  0  0
  185.3400  176.5140  146.4080 O   0  0  0  0  0  1  0  0  0  0  0  0
  184.2910  179.4650  144.4890 C   0  0  0  0  0  3  0  0  0  0  0  0
  187.0800  178.5190  142.3030 N   0  0  0  0  0  1  0  0  0  0  0  0
  186.1500  178.4820  143.3820 C   0  0  0  0  0  0  0  0  0  0  0  0
  185.2010  179.4520  143.4790 N   0  0  0  0  0  0  0  0  0  0  0  0
  2  9  1  0  0  0  0
  5  2  2  0  0  0  0
  6  3  1  1  0  0  0
  6  1  1  0  0  0  0
  6 13  1  0  0  0  0
  7  9  2  0  0  0  0
  8  4  1  6  0  0  0
  8 12  1  0  0  0  0
  8  5  1  0  0  0  0
  8 17  1  0  0  0  0
 10  7  1  0  0  0  0
 11  1  1  0  0  0  0
 11 12  1  0  0  0  0
 13  5  1  0  0  0  0
 13 10  2  0  0  0  0
 14 18  1  0  0  0  0
 14 17  1  0  0  0  0
 15 19  1  0  0  0  0
 17 19  1  6  0  0  0
 18 16  1  0  0  0  0
 18 15  1  0  0  0  0
 20 22  1  0  0  0  0
 20 10  1  0  0  0  0
 21 23  1  0  0  0  0
 21 24  1  0  0  0  0
 22 21  2  0  0  0  0
 25 23  2  0  0  0  0
 26 27  1  0  0  0  0
 27 28  2  0  0  0  0
 27 22  1  0  0  0  0
 28 25  1  0  0  0  0
M  END
>  <MODEL>
3

>  <REMARK>
 VINA RESULT:      -7.4      1.942      2.835
  Name = 
  3 active torsions:
  status: ('A' for Active; 'I' for Inactive)
    1  A    between atoms: C_2  and  N_20
    2  A    between atoms: C_18  and  C_21
    3  A    between atoms: N_20  and  C_24
                            x       y       z     vdW  Elec       q    Type
                         _______ _______ _______ _____ _____    ______ ____

>  <TORSDO>
F 3

$$$$
=
 OpenBabel11062423083D

 28 31  0  0  1  0  0  0  0  0999 V2000
  188.7860  175.8350  142.2240 C   0  0  0  0  0  2  0  0  0  0  0  0
  189.7370  173.9780  146.1270 C   0  0  0  0  0  3  0  0  0  0  0  0
  189.5070  177.8840  143.2460 O   0  0  0  0  0  1  0  0  0  0  0  0
  191.9370  174.5620  143.2930 C   0  0  0  0  0  1  0  0  0  0  0  0
  189.9780  174.5750  144.8760 C   0  0  0  0  0  0  0  0  0  0  0  0
  189.6620  176.4970  143.2670 C   0  0  1  0  0  3  0  0  0  0  0  0
  188.4450  175.8670  146.8560 C   0  0  0  0  0  3  0  0  0  0  0  0
  190.7140  173.7780  143.7850 C   0  0  1  0  0  0  0  0  0  0  0  0
  188.9920  174.6180  147.1090 C   0  0  0  0  0  3  0  0  0  0  0  0
  188.6540  176.5070  145.6280 C   0  0  0  0  0  0  0  0  0  0  0  0
  189.5250  174.6470  141.6260 C   0  0  0  0  0  2  0  0  0  0  0  0
  189.7230  173.5030  142.6300 C   0  0  0  0  0  2  0  0  0  0  0  0
  189.4410  175.8730  144.6280 C   0  0  0  0  0  0  0  0  0  0  0  0
  192.6100  172.4170  144.6810 N   0  0  0  0  0  2  0  0  0  0  0  0
  192.3620  170.6220  143.3090 N   0  0  0  0  0  2  0  0  0  0  0  0
  194.2920  170.8600  144.5300 C   0  0  0  0  0  1  0  0  0  0  0  0
  191.2030  172.3950  144.3060 C   0  0  2  0  0  3  0  0  0  0  0  0
  193.2840  171.5790  143.7720 N   0  0  0  0  0  0  0  0  0  0  0  0
  191.0780  171.2890  143.2930 C   0  0  0  0  0  2  0  0  0  0  0  0
  187.9860  177.7490  145.3620 N   0  0  0  0  0  2  0  0  0  0  0  0
  186.1400  178.4630  146.8650 C   0  0  0  0  0  0  0  0  0  0  0  0
  186.6000  178.0340  145.6060 C   0  0  0  0  0  0  0  0  0  0  0  0
  184.7860  178.7420  147.0520 C   0  0  0  0  0  3  0  0  0  0  0  0
  187.0190  178.6460  147.9260 O   0  0  0  0  0  1  0  0  0  0  0  0
  183.9060  178.6170  145.9780 C   0  0  0  0  0  3  0  0  0  0  0  0
  186.1130  177.5620  143.2460 N   0  0  0  0  0  1  0  0  0  0  0  0
  185.6830  177.9560  144.5460 C   0  0  0  0  0  0  0  0  0  0  0  0
  184.3690  178.2350  144.7580 N   0  0  0  0  0  0  0  0  0  0  0  0
  1  6  1  0  0  0  0
  2  9  1  0  0  0  0
  5  2  2  0  0  0  0
  6  3  1  1  0  0  0
  6 13  1  0  0  0  0
  7  9  2  0  0  0  0
  8  4  1  6  0  0  0
  8 17  1  0  0  0  0
  8  5  1  0  0  0  0
 10  7  1  0  0  0  0
 11  1  1  0  0  0  0
 11 12  1  0  0  0  0
 12  8  1  0  0  0  0
 13  5  1  0  0  0  0
 13 10  2  0  0  0  0
 15 18  1  0  0  0  0
 17 19  1  6  0  0  0
 17 14  1  0  0  0  0
 18 16  1  0  0  0  0
 18 14  1  0  0  0  0
 19 15  1  0  0  0  0
 20 22  1  0  0  0  0
 20 10  1  0  0  0  0
 21 23  1  0  0  0  0
 21 24  1  0  0  0  0
 22 21  2  0  0  0  0
 25 23  2  0  0  0  0
 26 27  1  0  0  0  0
 27 28  2  0  0  0  0
 27 22  1  0  0  0  0
 28 25  1  0  0  0  0
M  END
>  <MODEL>
4

>  <REMARK>
 VINA RESULT:      -7.4      2.689      4.069
  Name = 
  3 active torsions:
  status: ('A' for Active; 'I' for Inactive)
    1  A    between atoms: C_2  and  N_20
    2  A    between atoms: C_18  and  C_21
    3  A    between atoms: N_20  and  C_24
                            x       y       z     vdW  Elec       q    Type
                         _______ _______ _______ _____ _____    ______ ____

>  <TORSDO>
F 3

$$$$
=
 OpenBabel11062423083D

 28 31  0  0  1  0  0  0  0  0999 V2000
  189.3490  173.5980  143.1710 C   0  0  0  0  0  2  0  0  0  0  0  0
  191.1950  176.4610  145.9970 C   0  0  0  0  0  3  0  0  0  0  0  0
  188.2680  175.5250  142.2330 O   0  0  0  0  0  1  0  0  0  0  0  0
  192.3570  175.4500  142.7040 C   0  0  0  0  0  1  0  0  0  0  0  0
  190.9670  175.8000  144.7760 C   0  0  0  0  0  0  0  0  0  0  0  0
  189.4000  175.0920  142.9260 C   0  0  1  0  0  3  0  0  0  0  0  0
  188.8970  177.1490  146.1310 C   0  0  0  0  0  3  0  0  0  0  0  0
  192.0980  174.9740  144.1400 C   0  0  1  0  0  0  0  0  0  0  0  0
  190.1790  177.1370  146.6610 C   0  0  0  0  0  3  0  0  0  0  0  0
  188.6150  176.5080  144.9190 C   0  0  0  0  0  0  0  0  0  0  0  0
  190.7510  173.0200  143.0460 C   0  0  0  0  0  2  0  0  0  0  0  0
  191.6880  173.4820  144.1700 C   0  0  0  0  0  2  0  0  0  0  0  0
  189.6550  175.8400  144.2170 C   0  0  0  0  0  0  0  0  0  0  0  0
  194.5220  175.5810  144.1080 N   0  0  0  0  0  2  0  0  0  0  0  0
  195.3100  173.7200  145.1470 N   0  0  0  0  0  2  0  0  0  0  0  0
  196.7720  175.1180  144.0600 C   0  0  0  0  0  1  0  0  0  0  0  0
  193.4290  175.0970  144.9380 C   0  0  2  0  0  3  0  0  0  0  0  0
  195.4480  174.5250  144.0020 N   0  0  0  0  0  0  0  0  0  0  0  0
  193.9120  173.7930  145.5130 C   0  0  0  0  0  2  0  0  0  0  0  0
  187.2590  176.4510  144.4540 N   0  0  0  0  0  2  0  0  0  0  0  0
  186.3320  178.5600  143.5230 C   0  0  0  0  0  0  0  0  0  0  0  0
  186.3100  177.5280  144.4790 C   0  0  0  0  0  0  0  0  0  0  0  0
  185.3810  179.5790  143.5780 C   0  0  0  0  0  3  0  0  0  0  0  0
  187.2700  178.5690  142.4980 O   0  0  0  0  0  1  0  0  0  0  0  0
  184.3990  179.5480  144.5690 C   0  0  0  0  0  3  0  0  0  0  0  0
  185.2020  176.4730  146.4000 N   0  0  0  0  0  1  0  0  0  0  0  0
  185.2830  177.5200  145.4370 C   0  0  0  0  0  0  0  0  0  0  0  0
  184.3680  178.5270  145.4650 N   0  0  0  0  0  0  0  0  0  0  0  0
  2  9  1  0  0  0  0
  5  2  2  0  0  0  0
  6  3  1  1  0  0  0
  6  1  1  0  0  0  0
  6 13  1  0  0  0  0
  7  9  2  0  0  0  0
  8  4  1  6  0  0  0
  8 12  1  0  0  0  0
  8  5  1  0  0  0  0
  8 17  1  0  0  0  0
 10  7  1  0  0  0  0
 11  1  1  0  0  0  0
 11 12  1  0  0  0  0
 13  5  1  0  0  0  0
 13 10  2  0  0  0  0
 14 17  1  0  0  0  0
 15 19  1  0  0  0  0
 17 19  1  6  0  0  0
 18 16  1  0  0  0  0
 18 14  1  0  0  0  0
 18 15  1  0  0  0  0
 20 22  1  0  0  0  0
 20 10  1  0  0  0  0
 21 23  2  0  0  0  0
 21 22  1  0  0  0  0
 22 27  2  0  0  0  0
 23 25  1  0  0  0  0
 24 21  1  0  0  0  0
 25 28  2  0  0  0  0
 27 28  1  0  0  0  0
 27 26  1  0  0  0  0
M  END
>  <MODEL>
5

>  <REMARK>
 VINA RESULT:      -7.4      1.816      2.614
  Name = 
  3 active torsions:
  status: ('A' for Active; 'I' for Inactive)
    1  A    between atoms: C_2  and  N_20
    2  A    between atoms: C_18  and  C_21
    3  A    between atoms: N_20  and  C_24
                            x       y       z     vdW  Elec       q    Type
                         _______ _______ _______ _____ _____    ______ ____

>  <TORSDO>
F 3

$$$$
=
 OpenBabel11062423083D

 28 31  0  0  1  0  0  0  0  0999 V2000
  190.4630  173.5080  144.9000 C   0  0  0  0  0  2  0  0  0  0  0  0
  191.8410  177.5400  143.7040 C   0  0  0  0  0  3  0  0  0  0  0  0
  188.8330  173.7630  143.1580 O   0  0  0  0  0  1  0  0  0  0  0  0
  192.8350  174.3090  142.3660 C   0  0  0  0  0  1  0  0  0  0  0  0
  191.6490  176.1490  143.6120 C   0  0  0  0  0  0  0  0  0  0  0  0
  190.1080  174.1470  143.5740 C   0  0  1  0  0  3  0  0  0  0  0  0
  189.4750  177.9250  143.8590 C   0  0  0  0  0  3  0  0  0  0  0  0
  192.8710  175.2150  143.6040 C   0  0  1  0  0  0  0  0  0  0  0  0
  190.7710  178.4190  143.8130 C   0  0  0  0  0  3  0  0  0  0  0  0
  189.2270  176.5500  143.7720 C   0  0  0  0  0  0  0  0  0  0  0  0
  191.9420  173.1480  144.9060 C   0  0  0  0  0  2  0  0  0  0  0  0
  192.8550  174.3810  144.9080 C   0  0  0  0  0  2  0  0  0  0  0  0
  190.3140  175.6460  143.6280 C   0  0  0  0  0  0  0  0  0  0  0  0
  195.0360  175.6610  142.4390 N   0  0  0  0  0  2  0  0  0  0  0  0
  196.3930  175.4890  144.2530 N   0  0  0  0  0  2  0  0  0  0  0  0
  197.3070  175.4740  142.1470 C   0  0  0  0  0  1  0  0  0  0  0  0
  194.2100  176.0080  143.5860 C   0  0  2  0  0  3  0  0  0  0  0  0
  196.1820  175.0190  142.9450 N   0  0  0  0  0  0  0  0  0  0  0  0
  195.0770  175.7580  144.7910 C   0  0  0  0  0  2  0  0  0  0  0  0
  187.8840  176.0680  143.9290 N   0  0  0  0  0  2  0  0  0  0  0  0
  187.0300  176.4960  146.2230 C   0  0  0  0  0  0  0  0  0  0  0  0
  186.8950  176.5970  144.8260 C   0  0  0  0  0  0  0  0  0  0  0  0
  186.0500  177.0380  147.0560 C   0  0  0  0  0  3  0  0  0  0  0  0
  188.1420  175.8920  146.7950 O   0  0  0  0  0  1  0  0  0  0  0  0
  184.9580  177.6980  146.4920 C   0  0  0  0  0  3  0  0  0  0  0  0
  185.6430  177.4570  142.8970 N   0  0  0  0  0  1  0  0  0  0  0  0
  185.7970  177.2990  144.3050 C   0  0  0  0  0  0  0  0  0  0  0  0
  184.8580  177.8180  145.1420 N   0  0  0  0  0  0  0  0  0  0  0  0
  1 11  1  0  0  0  0
  2  9  1  0  0  0  0
  5 13  1  0  0  0  0
  5  2  2  0  0  0  0
  6  3  1  1  0  0  0
  6 13  1  0  0  0  0
  6  1  1  0  0  0  0
  8  4  1  6  0  0  0
  8  5  1  0  0  0  0
  8 12  1  0  0  0  0
  9  7  2  0  0  0  0
 10  7  1  0  0  0  0
 10 20  1  0  0  0  0
 11 12  1  0  0  0  0
 13 10  2  0  0  0  0
 14 18  1  0  0  0  0
 14 17  1  0  0  0  0
 15 19  1  0  0  0  0
 16 18  1  0  0  0  0
 17  8  1  0  0  0  0
 17 19  1  1  0  0  0
 18 15  1  0  0  0  0
 20 22  1  0  0  0  0
 21 24  1  0  0  0  0
 21 23  1  0  0  0  0
 22 21  2  0  0  0  0
 25 23  2  0  0  0  0
 26 27  1  0  0  0  0
 27 22  1  0  0  0  0
 27 28  2  0  0  0  0
 28 25  1  0  0  0  0
M  END
>  <MODEL>
6

>  <REMARK>
 VINA RESULT:      -7.3      1.777      2.291
  Name = 
  3 active torsions:
  status: ('A' for Active; 'I' for Inactive)
    1  A    between atoms: C_2  and  N_20
    2  A    between atoms: C_18  and  C_21
    3  A    between atoms: N_20  and  C_24
                            x       y       z     vdW  Elec       q    Type
                         _______ _______ _______ _____ _____    ______ ____

>  <TORSDO>
F 3

$$$$
=
 OpenBabel11062423083D

 28 31  0  0  1  0  0  0  0  0999 V2000
  191.6990  177.1090  142.7410 C   0  0  0  0  0  2  0  0  0  0  0  0
  190.9840  174.9110  146.5150 C   0  0  0  0  0  3  0  0  0  0  0  0
  190.9530  179.0410  143.9540 O   0  0  0  0  0  1  0  0  0  0  0  0
  193.9760  176.6780  145.4470 C   0  0  0  0  0  1  0  0  0  0  0  0
  191.6260  175.7840  145.6180 C   0  0  0  0  0  0  0  0  0  0  0  0
  191.5610  177.7910  144.0860 C   0  0  1  0  0  3  0  0  0  0  0  0
  188.9250  176.1360  146.3360 C   0  0  0  0  0  3  0  0  0  0  0  0
  193.0630  175.4770  145.1620 C   0  0  1  0  0  0  0  0  0  0  0  0
  189.6550  175.0900  146.8800 C   0  0  0  0  0  3  0  0  0  0  0  0
  189.5150  177.0340  145.4400 C   0  0  0  0  0  0  0  0  0  0  0  0
  193.0130  176.3430  142.6970 C   0  0  0  0  0  2  0  0  0  0  0  0
  193.0340  175.1420  143.6520 C   0  0  0  0  0  2  0  0  0  0  0  0
  190.8830  176.8780  145.0840 C   0  0  0  0  0  0  0  0  0  0  0  0
  195.0840  174.3720  146.1330 N   0  0  0  0  0  2  0  0  0  0  0  0
  194.8070  172.3380  145.1580 N   0  0  0  0  0  2  0  0  0  0  0  0
  196.8160  172.8630  146.1380 C   0  0  0  0  0  1  0  0  0  0  0  0
  193.6540  174.2370  145.8930 C   0  0  2  0  0  3  0  0  0  0  0  0
  195.7190  173.3910  145.3470 N   0  0  0  0  0  0  0  0  0  0  0  0
  193.4980  172.9520  145.1260 C   0  0  0  0  0  2  0  0  0  0  0  0
  188.7030  178.0400  144.8160 N   0  0  0  0  0  2  0  0  0  0  0  0
  186.2370  178.0940  145.1230 C   0  0  0  0  0  0  0  0  0  0  0  0
  187.3680  177.8600  144.3180 C   0  0  0  0  0  0  0  0  0  0  0  0
  184.9590  177.9210  144.5920 C   0  0  0  0  0  3  0  0  0  0  0  0
  186.3680  178.5280  146.4360 O   0  0  0  0  0  1  0  0  0  0  0  0
  184.8160  177.5410  143.2580 C   0  0  0  0  0  3  0  0  0  0  0  0
  188.2920  177.3030  142.1130 N   0  0  0  0  0  1  0  0  0  0  0  0
  187.1750  177.5120  142.9720 C   0  0  0  0  0  0  0  0  0  0  0  0
  185.9160  177.3520  142.4820 N   0  0  0  0  0  0  0  0  0  0  0  0
  1  6  1  0  0  0  0
  2  9  1  0  0  0  0
  5  2  2  0  0  0  0
  6  3  1  6  0  0  0
  6 13  1  0  0  0  0
  7  9  2  0  0  0  0
  8  4  1  1  0  0  0
  8  5  1  0  0  0  0
  8 17  1  0  0  0  0
 10  7  1  0  0  0  0
 11  1  1  0  0  0  0
 11 12  1  0  0  0  0
 12  8  1  0  0  0  0
 13 10  2  0  0  0  0
 13  5  1  0  0  0  0
 15 18  1  0  0  0  0
 17 19  1  6  0  0  0
 17 14  1  0  0  0  0
 18 14  1  0  0  0  0
 18 16  1  0  0  0  0
 19 15  1  0  0  0  0
 20 10  1  0  0  0  0
 21 24  1  0  0  0  0
 22 20  1  0  0  0  0
 22 21  2  0  0  0  0
 23 21  1  0  0  0  0
 25 23  2  0  0  0  0
 26 27  1  0  0  0  0
 27 22  1  0  0  0  0
 28 27  2  0  0  0  0
 28 25  1  0  0  0  0
M  END
>  <MODEL>
7

>  <REMARK>
 VINA RESULT:      -7.2      2.278      3.456
  Name = 
  3 active torsions:
  status: ('A' for Active; 'I' for Inactive)
    1  A    between atoms: C_2  and  N_20
    2  A    between atoms: C_18  and  C_21
    3  A    between atoms: N_20  and  C_24
                            x       y       z     vdW  Elec       q    Type
                         _______ _______ _______ _____ _____    ______ ____

>  <TORSDO>
F 3

$$$$
=
 OpenBabel11062423083D

 28 31  0  0  1  0  0  0  0  0999 V2000
  191.5570  177.5340  144.2700 C   0  0  0  0  0  2  0  0  0  0  0  0
  189.0910  174.2980  142.5290 C   0  0  0  0  0  3  0  0  0  0  0  0
  189.9240  177.5640  146.0290 O   0  0  0  0  0  1  0  0  0  0  0  0
  191.7790  174.0470  144.9630 C   0  0  0  0  0  1  0  0  0  0  0  0
  189.9890  174.9160  143.4180 C   0  0  0  0  0  0  0  0  0  0  0  0
  190.5270  176.7570  145.0630 C   0  0  1  0  0  3  0  0  0  0  0  0
  187.3870  175.9200  143.0140 C   0  0  0  0  0  3  0  0  0  0  0  0
  191.4370  174.4040  143.5110 C   0  0  1  0  0  0  0  0  0  0  0  0
  187.8040  174.7830  142.3370 C   0  0  0  0  0  3  0  0  0  0  0  0
  188.2390  176.5740  143.9120 C   0  0  0  0  0  0  0  0  0  0  0  0
  192.7370  176.6270  143.9520 C   0  0  0  0  0  2  0  0  0  0  0  0
  192.3780  175.5060  142.9680 C   0  0  0  0  0  2  0  0  0  0  0  0
  189.5480  176.0660  144.1380 C   0  0  0  0  0  0  0  0  0  0  0  0
  192.2470  172.0430  143.3950 N   0  0  0  0  0  2  0  0  0  0  0  0
  193.5340  172.2590  141.5360 N   0  0  0  0  0  2  0  0  0  0  0  0
  193.7550  170.3960  142.8580 C   0  0  0  0  0  1  0  0  0  0  0  0
  191.6630  173.1380  142.6340 C   0  0  2  0  0  3  0  0  0  0  0  0
  193.5380  171.8310  142.8750 N   0  0  0  0  0  0  0  0  0  0  0  0
  192.6000  173.3630  141.4780 C   0  0  0  0  0  2  0  0  0  0  0  0
  187.8130  177.8050  144.5140 N   0  0  0  0  0  2  0  0  0  0  0  0
  186.1620  177.5840  146.3580 C   0  0  0  0  0  0  0  0  0  0  0  0
  186.5210  178.0640  145.0850 C   0  0  0  0  0  0  0  0  0  0  0  0
  184.9000  177.8740  146.8780 C   0  0  0  0  0  3  0  0  0  0  0  0
  187.0550  176.8490  147.1270 O   0  0  0  0  0  1  0  0  0  0  0  0
  184.0170  178.6600  146.1390 C   0  0  0  0  0  3  0  0  0  0  0  0
  185.9510  179.4160  143.1170 N   0  0  0  0  0  1  0  0  0  0  0  0
  185.6120  178.8790  144.3920 C   0  0  0  0  0  0  0  0  0  0  0  0
  184.3900  179.1450  144.9250 N   0  0  0  0  0  0  0  0  0  0  0  0
  1  6  1  0  0  0  0
  2  5  1  0  0  0  0
  5  8  1  0  0  0  0
  5 13  2  0  0  0  0
  6  3  1  1  0  0  0
  7 10  2  0  0  0  0
  8  4  1  1  0  0  0
  9  2  2  0  0  0  0
  9  7  1  0  0  0  0
 10 13  1  0  0  0  0
 10 20  1  0  0  0  0
 11  1  1  0  0  0  0
 12  8  1  0  0  0  0
 12 11  1  0  0  0  0
 13  6  1  0  0  0  0
 15 18  1  0  0  0  0
 16 18  1  0  0  0  0
 17 19  1  6  0  0  0
 17 14  1  0  0  0  0
 17  8  1  0  0  0  0
 18 14  1  0  0  0  0
 19 15  1  0  0  0  0
 20 22  1  0  0  0  0
 21 23  1  0  0  0  0
 21 24  1  0  0  0  0
 22 21  2  0  0  0  0
 25 23  2  0  0  0  0
 26 27  1  0  0  0  0
 27 28  2  0  0  0  0
 27 22  1  0  0  0  0
 28 25  1  0  0  0  0
M  END
>  <MODEL>
8

>  <REMARK>
 VINA RESULT:      -7.2      2.428      3.227
  Name = 
  3 active torsions:
  status: ('A' for Active; 'I' for Inactive)
    1  A    between atoms: C_2  and  N_20
    2  A    between atoms: C_18  and  C_21
    3  A    between atoms: N_20  and  C_24
                            x       y       z     vdW  Elec       q    Type
                         _______ _______ _______ _____ _____    ______ ____

>  <TORSDO>
F 3

$$$$
=
 OpenBabel11062423083D

 28 31  0  0  1  0  0  0  0  0999 V2000
  190.1080  177.1620  142.6920 C   0  0  0  0  0  2  0  0  0  0  0  0
  188.7310  175.5670  146.5830 C   0  0  0  0  0  3  0  0  0  0  0  0
  190.6650  174.8840  142.1780 O   0  0  0  0  0  1  0  0  0  0  0  0
  186.8810  175.8670  143.4680 C   0  0  0  0  0  1  0  0  0  0  0  0
  188.7110  175.8220  145.2000 C   0  0  0  0  0  0  0  0  0  0  0  0
  189.8150  175.6950  142.9310 C   0  0  1  0  0  3  0  0  0  0  0  0
  190.8830  174.5110  146.4260 C   0  0  0  0  0  3  0  0  0  0  0  0
  187.5610  176.6500  144.5990 C   0  0  1  0  0  0  0  0  0  0  0  0
  189.7950  174.9100  147.1890 C   0  0  0  0  0  3  0  0  0  0  0  0
  190.9140  174.7390  145.0450 C   0  0  0  0  0  0  0  0  0  0  0  0
  188.8030  177.9450  142.6990 C   0  0  0  0  0  2  0  0  0  0  0  0
  188.1430  177.9880  144.0830 C   0  0  0  0  0  2  0  0  0  0  0  0
  189.8160  175.3830  144.4120 C   0  0  0  0  0  0  0  0  0  0  0  0
  185.2440  177.4690  145.0520 N   0  0  0  0  0  2  0  0  0  0  0  0
  185.7770  179.0120  146.6330 N   0  0  0  0  0  2  0  0  0  0  0  0
  183.6900  179.0410  145.6770 C   0  0  0  0  0  1  0  0  0  0  0  0
  186.4800  177.0020  145.6630 C   0  0  2  0  0  3  0  0  0  0  0  0
  185.1010  178.8220  145.4140 N   0  0  0  0  0  0  0  0  0  0  0  0
  186.8960  178.0960  146.6080 C   0  0  0  0  0  2  0  0  0  0  0  0
  192.0990  174.4080  144.3060 N   0  0  0  0  0  2  0  0  0  0  0  0
  194.0760  173.1780  145.1730 C   0  0  0  0  0  0  0  0  0  0  0  0
  193.4390  174.3830  144.8220 C   0  0  0  0  0  0  0  0  0  0  0  0
  195.3850  173.2010  145.6570 C   0  0  0  0  0  3  0  0  0  0  0  0
  193.4370  171.9550  145.0160 O   0  0  0  0  0  1  0  0  0  0  0  0
  196.0560  174.4180  145.7630 C   0  0  0  0  0  3  0  0  0  0  0  0
  193.5700  176.8170  144.5340 N   0  0  0  0  0  1  0  0  0  0  0  0
  194.1650  175.5800  144.9140 C   0  0  0  0  0  0  0  0  0  0  0  0
  195.4400  175.5710  145.3890 N   0  0  0  0  0  0  0  0  0  0  0  0
  1 11  1  0  0  0  0
  1  6  1  0  0  0  0
  2  9  1  0  0  0  0
  5  2  2  0  0  0  0
  6  3  1  6  0  0  0
  6 13  1  0  0  0  0
  7  9  2  0  0  0  0
  8  4  1  6  0  0  0
  8  5  1  0  0  0  0
  8 17  1  0  0  0  0
 10  7  1  0  0  0  0
 11 12  1  0  0  0  0
 12  8  1  0  0  0  0
 13 10  2  0  0  0  0
 13  5  1  0  0  0  0
 14 18  1  0  0  0  0
 14 17  1  0  0  0  0
 17 19  1  1  0  0  0
 18 16  1  0  0  0  0
 18 15  1  0  0  0  0
 19 15  1  0  0  0  0
 20 22  1  0  0  0  0
 20 10  1  0  0  0  0
 21 23  1  0  0  0  0
 22 27  1  0  0  0  0
 22 21  2  0  0  0  0
 23 25  2  0  0  0  0
 24 21  1  0  0  0  0
 26 27  1  0  0  0  0
 27 28  2  0  0  0  0
 28 25  1  0  0  0  0
M  END
>  <MODEL>
9

>  <REMARK>
 VINA RESULT:      -7.1      2.051      7.899
  Name = 
  3 active torsions:
  status: ('A' for Active; 'I' for Inactive)
    1  A    between atoms: C_2  and  N_20
    2  A    between atoms: C_18  and  C_21
    3  A    between atoms: N_20  and  C_24
                            x       y       z     vdW  Elec       q    Type
                         _______ _______ _______ _____ _____    ______ ____

>  <TORSDO>
F 3

$$$$
