=
 OpenBabel11072409293D

 40 43  0  0  1  0  0  0  0  0999 V2000
  190.6580  174.5060  143.6690 O   0  0  0  0  0  0  0  0  0  0  0  0
  193.3540  174.0520  140.6010 N   0  0  0  0  0  2  0  0  0  0  0  0
  188.3080  175.6230  143.9690 O   0  0  0  0  0  0  0  0  0  0  0  0
  189.7150  172.8020  141.4820 C   0  0  2  0  0  3  0  0  0  0  0  0
  193.9740  173.3570  139.4870 C   0  0  0  0  0  2  0  0  0  0  0  0
  194.8840  173.0560  142.2910 N   0  0  0  0  0  2  0  0  0  0  0  0
  192.4120  173.6800  145.1640 N   0  0  0  0  0  2  0  0  0  0  0  0
  190.1380  175.0840  142.4630 C   0  0  2  0  0  3  0  0  0  0  0  0
  188.0660  177.6680  142.8680 N   0  0  0  0  0  0  0  0  0  0  0  0
  187.6620  176.8750  144.0460 C   0  0  1  0  0  0  0  0  0  0  0  0
  191.9960  174.1360  143.8710 C   0  0  0  0  0  0  0  0  0  0  0  0
  190.8780  171.2590  139.7970 C   0  0  2  0  0  3  0  0  0  0  0  0
  193.8000  173.3620  145.5170 C   0  0  0  0  0  2  0  0  0  0  0  0
  187.0450  178.5720  142.3510 C   0  0  0  0  0  1  0  0  0  0  0  0
  187.7220  174.2920  142.0470 C   0  0  0  0  0  2  0  0  0  0  0  0
  188.3460  172.9000  142.1760 C   0  0  0  0  0  2  0  0  0  0  0  0
  194.3890  172.2820  144.6070 C   0  0  0  0  0  2  0  0  0  0  0  0
  191.8770  172.0250  138.9580 C   0  0  0  0  0  0  0  0  0  0  0  0
  193.3520  171.9750  139.2970 C   0  0  0  0  0  2  0  0  0  0  0  0
  193.7200  173.8290  141.9600 C   0  0  0  0  0  0  0  0  0  0  0  0
  192.8400  174.0690  142.8830 C   0  0  0  0  0  0  0  0  0  0  0  0
  191.4290  172.6010  137.8750 N   0  0  0  0  0  0  0  0  0  0  0  0
  195.4120  172.9000  143.6510 C   0  0  0  0  0  2  0  0  0  0  0  0
  188.3360  176.6750  141.8600 C   0  0  0  0  0  2  0  0  0  0  0  0
  188.6300  175.4030  142.6130 C   0  0  1  0  0  0  0  0  0  0  0  0
  190.3650  174.1670  141.2530 C   0  0  0  0  0  2  0  0  0  0  0  0
  189.6030  172.0280  140.1770 C   0  0  0  0  0  2  0  0  0  0  0  0
  191.5130  169.1590  140.7400 O   0  0  0  0  0  0  0  0  0  0  0  0
  191.8510  170.9730  142.0950 O   0  0  0  0  0  1  0  0  0  0  0  0
  191.4390  170.4060  140.8960 C   0  0  0  0  0  0  0  0  0  0  0  0
  192.7150  172.5530  135.8740 N   0  0  0  0  0  2  0  0  0  0  0  0
  192.0820  174.7140  136.6820 C   0  0  0  0  0  1  0  0  0  0  0  0
  192.1830  173.2390  136.8330 C   0  0  0  0  0  0  0  0  0  0  0  0
  186.1400  176.5800  144.1190 C   0  0  0  0  0  2  0  0  0  0  0  0
  185.5180  176.7860  145.4960 C   0  0  0  0  0  1  0  0  0  0  0  0
  188.1110  177.5880  145.3380 C   0  0  0  0  0  2  0  0  0  0  0  0
  189.7520  177.9380  147.0070 F   0  0  0  0  0  0  0  0  0  0  0  0
  189.4840  177.1830  145.8820 C   0  0  0  0  0  0  0  0  0  0  0  0
  189.4880  175.8480  146.2390 F   0  0  0  0  0  0  0  0  0  0  0  0
  190.4720  177.4150  144.9440 F   0  0  0  0  0  0  0  0  0  0  0  0
  1 11  1  0  0  0  0
  2 20  1  0  0  0  0
  3 10  1  0  0  0  0
  4 27  1  6  0  0  0
  4 16  1  0  0  0  0
  5  2  1  0  0  0  0
  6 23  1  0  0  0  0
  7 13  1  0  0  0  0
  8 26  1  6  0  0  0
  8 25  1  0  0  0  0
  8  1  1  0  0  0  0
  9 10  1  0  0  0  0
 10 34  1  1  0  0  0
 10 36  1  0  0  0  0
 11  7  1  0  0  0  0
 12 27  1  0  0  0  0
 12 30  1  1  0  0  0
 14  9  1  0  0  0  0
 15 16  1  0  0  0  0
 15 25  1  0  0  0  0
 17 13  1  0  0  0  0
 18 19  1  0  0  0  0
 18 12  1  0  0  0  0
 19  5  1  0  0  0  0
 20  6  1  0  0  0  0
 20 21  2  0  0  0  0
 21 11  2  0  0  0  0
 22 18  2  0  0  0  0
 23 17  1  0  0  0  0
 24  9  1  0  0  0  0
 25 24  1  6  0  0  0
 25  3  1  0  0  0  0
 26  4  1  0  0  0  0
 28 30  2  0  0  0  0
 30 29  1  0  0  0  0
 31 33  2  0  0  0  0
 32 33  1  0  0  0  0
 33 22  1  0  0  0  0
 34 35  1  0  0  0  0
 36 38  1  0  0  0  0
 38 39  1  0  0  0  0
 38 37  1  0  0  0  0
 40 38  1  0  0  0  0
M  END
>  <MODEL>
1

>  <REMARK>
 VINA RESULT:      -7.7      0.000      0.000
  Name = 
  5 active torsions:
  status: ('A' for Active; 'I' for Inactive)
    1  A    between atoms: C_4  and  C_13
    2  A    between atoms: C_4  and  C_32
    3  A    between atoms: C_13  and  C_22
    4  A    between atoms: C_15  and  C_36
    5  A    between atoms: C_30  and  N_31
                            x       y       z     vdW  Elec       q    Type
                         _______ _______ _______ _____ _____    ______ ____

>  <TORSDO>
F 5

$$$$
=
 OpenBabel11072409293D

 40 43  0  0  1  0  0  0  0  0999 V2000
  189.1000  175.4670  142.4150 O   0  0  0  0  0  0  0  0  0  0  0  0
  191.8100  172.4130  142.8780 N   0  0  0  0  0  2  0  0  0  0  0  0
  187.8930  177.1770  143.9910 O   0  0  0  0  0  0  0  0  0  0  0  0
  191.7560  176.3390  143.2870 C   0  0  2  0  0  3  0  0  0  0  0  0
  193.1370  171.8250  142.9030 C   0  0  0  0  0  2  0  0  0  0  0  0
  191.4640  171.9390  140.4610 N   0  0  0  0  0  2  0  0  0  0  0  0
  188.7900  174.6760  140.1190 N   0  0  0  0  0  2  0  0  0  0  0  0
  189.4910  175.3570  143.7920 C   0  0  2  0  0  3  0  0  0  0  0  0
  187.1970  176.2810  146.0310 N   0  0  0  0  0  0  0  0  0  0  0  0
  186.8960  177.2760  144.9840 C   0  0  1  0  0  0  0  0  0  0  0  0
  189.3370  174.4970  141.4310 C   0  0  0  0  0  0  0  0  0  0  0  0
  194.1320  175.4430  142.9290 C   0  0  2  0  0  3  0  0  0  0  0  0
  188.8900  173.6830  139.0440 C   0  0  0  0  0  2  0  0  0  0  0  0
  186.8300  176.6770  147.3860 C   0  0  0  0  0  1  0  0  0  0  0  0
  190.1310  177.6640  144.7400 C   0  0  0  0  0  2  0  0  0  0  0  0
  191.0800  177.6970  143.5400 C   0  0  0  0  0  2  0  0  0  0  0  0
  190.3440  173.3310  138.7230 C   0  0  0  0  0  2  0  0  0  0  0  0
  194.2660  174.0330  143.4570 C   0  0  0  0  0  0  0  0  0  0  0  0
  194.1940  172.8550  142.5070 C   0  0  0  0  0  2  0  0  0  0  0  0
  191.0470  172.5640  141.6840 C   0  0  0  0  0  0  0  0  0  0  0  0
  190.1520  173.5030  141.6380 C   0  0  0  0  0  0  0  0  0  0  0  0
  194.5780  173.8930  144.7170 N   0  0  0  0  0  0  0  0  0  0  0  0
  190.6670  171.9220  139.2290 C   0  0  0  0  0  2  0  0  0  0  0  0
  188.6300  176.1450  145.9780 C   0  0  0  0  0  2  0  0  0  0  0  0
  189.0280  176.5970  144.5960 C   0  0  1  0  0  0  0  0  0  0  0  0
  191.0080  175.1720  143.9350 C   0  0  0  0  0  2  0  0  0  0  0  0
  193.2090  176.3690  143.7380 C   0  0  0  0  0  2  0  0  0  0  0  0
  194.7720  176.3970  140.8360 O   0  0  0  0  0  1  0  0  0  0  0  0
  193.0590  174.8830  140.7280 O   0  0  0  0  0  0  0  0  0  0  0  0
  194.0140  175.5960  141.4410 C   0  0  0  0  0  0  0  0  0  0  0  0
  194.0140  171.8950  145.8780 N   0  0  0  0  0  2  0  0  0  0  0  0
  196.3250  172.1970  145.3380 C   0  0  0  0  0  1  0  0  0  0  0  0
  194.9250  172.6890  145.4190 C   0  0  0  0  0  0  0  0  0  0  0  0
  186.9200  178.7460  145.4830 C   0  0  0  0  0  2  0  0  0  0  0  0
  185.5450  179.3510  145.7470 C   0  0  0  0  0  1  0  0  0  0  0  0
  185.5250  176.9720  144.3460 C   0  0  0  0  0  2  0  0  0  0  0  0
  184.0360  177.4170  142.5600 F   0  0  0  0  0  0  0  0  0  0  0  0
  185.3810  177.3360  142.8660 C   0  0  0  0  0  0  0  0  0  0  0  0
  185.9620  178.5640  142.6120 F   0  0  0  0  0  0  0  0  0  0  0  0
  185.9630  176.3730  142.0630 F   0  0  0  0  0  0  0  0  0  0  0  0
  1  8  1  0  0  0  0
  2  5  1  0  0  0  0
  3 25  1  0  0  0  0
  3 10  1  0  0  0  0
  4 16  1  1  0  0  0
  4 27  1  0  0  0  0
  4 26  1  0  0  0  0
  6 20  1  0  0  0  0
  7 11  1  0  0  0  0
  8 26  1  6  0  0  0
  8 25  1  0  0  0  0
  9 14  1  0  0  0  0
 10 36  1  6  0  0  0
 10 34  1  0  0  0  0
 10  9  1  0  0  0  0
 11 21  2  0  0  0  0
 11  1  1  0  0  0  0
 12 30  1  6  0  0  0
 12 18  1  0  0  0  0
 12 27  1  0  0  0  0
 13  7  1  0  0  0  0
 16 15  1  0  0  0  0
 17 13  1  0  0  0  0
 17 23  1  0  0  0  0
 18 22  2  0  0  0  0
 19  5  1  0  0  0  0
 19 18  1  0  0  0  0
 20  2  1  0  0  0  0
 21 20  2  0  0  0  0
 22 33  1  0  0  0  0
 23  6  1  0  0  0  0
 24  9  1  0  0  0  0
 25 15  1  1  0  0  0
 25 24  1  0  0  0  0
 28 30  1  0  0  0  0
 29 30  2  0  0  0  0
 32 33  1  0  0  0  0
 33 31  2  0  0  0  0
 34 35  1  0  0  0  0
 37 38  1  0  0  0  0
 38 36  1  0  0  0  0
 39 38  1  0  0  0  0
 40 38  1  0  0  0  0
M  END
>  <MODEL>
2

>  <REMARK>
 VINA RESULT:      -7.7      2.731      5.428
  Name = 
  5 active torsions:
  status: ('A' for Active; 'I' for Inactive)
    1  A    between atoms: C_4  and  C_13
    2  A    between atoms: C_4  and  C_32
    3  A    between atoms: C_13  and  C_22
    4  A    between atoms: C_15  and  C_36
    5  A    between atoms: C_30  and  N_31
                            x       y       z     vdW  Elec       q    Type
                         _______ _______ _______ _____ _____    ______ ____

>  <TORSDO>
F 5

$$$$
=
 OpenBabel11072409293D

 40 43  0  0  1  0  0  0  0  0999 V2000
  191.2830  175.4710  144.1540 O   0  0  0  0  0  0  0  0  0  0  0  0
  194.2220  175.3590  141.2830 N   0  0  0  0  0  2  0  0  0  0  0  0
  188.7130  175.9730  144.2090 O   0  0  0  0  0  0  0  0  0  0  0  0
  190.9580  173.3300  142.1840 C   0  0  2  0  0  3  0  0  0  0  0  0
  195.0740  174.7180  140.2990 C   0  0  0  0  0  2  0  0  0  0  0  0
  195.8260  175.0030  143.1510 N   0  0  0  0  0  2  0  0  0  0  0  0
  193.0750  175.3120  145.8150 N   0  0  0  0  0  2  0  0  0  0  0  0
  190.7240  175.7450  142.8620 C   0  0  2  0  0  3  0  0  0  0  0  0
  188.0470  177.7370  142.8330 N   0  0  0  0  0  0  0  0  0  0  0  0
  187.7710  177.0160  144.0900 C   0  0  1  0  0  0  0  0  0  0  0  0
  192.6530  175.4860  144.4570 C   0  0  0  0  0  0  0  0  0  0  0  0
  192.5890  171.9470  140.7700 C   0  0  2  0  0  3  0  0  0  0  0  0
  194.4690  175.4070  146.2610 C   0  0  0  0  0  2  0  0  0  0  0  0
  186.8720  178.2780  142.1580 C   0  0  0  0  0  1  0  0  0  0  0  0
  188.6200  174.3130  142.4630 C   0  0  0  0  0  2  0  0  0  0  0  0
  189.5610  173.1550  142.8040 C   0  0  0  0  0  2  0  0  0  0  0  0
  195.3740  174.4130  145.5300 C   0  0  0  0  0  2  0  0  0  0  0  0
  193.4210  172.8360  139.8740 C   0  0  0  0  0  0  0  0  0  0  0  0
  194.8330  173.2100  140.2740 C   0  0  0  0  0  2  0  0  0  0  0  0
  194.5330  175.4040  142.6740 C   0  0  0  0  0  0  0  0  0  0  0  0
  193.5560  175.5190  143.5210 C   0  0  0  0  0  0  0  0  0  0  0  0
  192.9230  173.1430  138.7070 N   0  0  0  0  0  0  0  0  0  0  0  0
  196.2760  175.1540  144.5390 C   0  0  0  0  0  2  0  0  0  0  0  0
  188.6290  176.7340  141.9790 C   0  0  0  0  0  2  0  0  0  0  0  0
  189.1770  175.6810  142.9080 C   0  0  1  0  0  0  0  0  0  0  0  0
  191.2600  174.7790  141.7970 C   0  0  0  0  0  2  0  0  0  0  0  0
  191.1380  172.4010  140.9920 C   0  0  0  0  0  2  0  0  0  0  0  0
  193.6670  170.2140  142.0080 O   0  0  0  0  0  0  0  0  0  0  0  0
  193.4240  172.1980  143.1250 O   0  0  0  0  0  1  0  0  0  0  0  0
  193.2640  171.4060  141.9950 C   0  0  0  0  0  0  0  0  0  0  0  0
  194.3850  173.2030  136.8310 N   0  0  0  0  0  2  0  0  0  0  0  0
  193.0480  175.1520  137.2030 C   0  0  0  0  0  1  0  0  0  0  0  0
  193.5670  173.8220  137.6170 C   0  0  0  0  0  0  0  0  0  0  0  0
  186.3700  176.3500  144.1430 C   0  0  0  0  0  2  0  0  0  0  0  0
  185.4800  176.8300  145.2840 C   0  0  0  0  0  1  0  0  0  0  0  0
  187.9320  177.9710  145.2910 C   0  0  0  0  0  2  0  0  0  0  0  0
  188.5210  178.2230  147.5700 F   0  0  0  0  0  0  0  0  0  0  0  0
  188.7690  177.4410  146.4580 C   0  0  0  0  0  0  0  0  0  0  0  0
  188.4160  176.1370  146.7530 F   0  0  0  0  0  0  0  0  0  0  0  0
  190.1180  177.5000  146.1630 F   0  0  0  0  0  0  0  0  0  0  0  0
  1 11  1  0  0  0  0
  2 20  1  0  0  0  0
  4 27  1  6  0  0  0
  4 16  1  0  0  0  0
  5  2  1  0  0  0  0
  6 23  1  0  0  0  0
  7 13  1  0  0  0  0
  8 26  1  6  0  0  0
  8 25  1  0  0  0  0
  8  1  1  0  0  0  0
  9 10  1  0  0  0  0
 10 34  1  6  0  0  0
 10  3  1  0  0  0  0
 10 36  1  0  0  0  0
 11  7  1  0  0  0  0
 12 27  1  0  0  0  0
 12 30  1  1  0  0  0
 14  9  1  0  0  0  0
 15 16  1  0  0  0  0
 15 25  1  0  0  0  0
 17 13  1  0  0  0  0
 18 19  1  0  0  0  0
 18 12  1  0  0  0  0
 19  5  1  0  0  0  0
 20  6  1  0  0  0  0
 20 21  2  0  0  0  0
 21 11  2  0  0  0  0
 22 18  2  0  0  0  0
 23 17  1  0  0  0  0
 24  9  1  0  0  0  0
 25 24  1  6  0  0  0
 25  3  1  0  0  0  0
 26  4  1  0  0  0  0
 30 28  2  0  0  0  0
 30 29  1  0  0  0  0
 31 33  2  0  0  0  0
 32 33  1  0  0  0  0
 33 22  1  0  0  0  0
 34 35  1  0  0  0  0
 36 38  1  0  0  0  0
 38 39  1  0  0  0  0
 38 37  1  0  0  0  0
 40 38  1  0  0  0  0
M  END
>  <MODEL>
3

>  <REMARK>
 VINA RESULT:      -7.4      1.503      1.622
  Name = 
  5 active torsions:
  status: ('A' for Active; 'I' for Inactive)
    1  A    between atoms: C_4  and  C_13
    2  A    between atoms: C_4  and  C_32
    3  A    between atoms: C_13  and  C_22
    4  A    between atoms: C_15  and  C_36
    5  A    between atoms: C_30  and  N_31
                            x       y       z     vdW  Elec       q    Type
                         _______ _______ _______ _____ _____    ______ ____

>  <TORSDO>
F 5

$$$$
=
 OpenBabel11072409293D

 40 43  0  0  1  0  0  0  0  0999 V2000
  189.1710  174.1350  141.1840 O   0  0  0  0  0  0  0  0  0  0  0  0
  191.0690  177.1810  143.1860 N   0  0  0  0  0  2  0  0  0  0  0  0
  189.8990  171.9280  139.9740 O   0  0  0  0  0  0  0  0  0  0  0  0
  190.4230  173.3210  143.7030 C   0  0  2  0  0  3  0  0  0  0  0  0
  191.5760  177.8670  144.3610 C   0  0  0  0  0  2  0  0  0  0  0  0
  188.8500  178.2990  143.2840 N   0  0  0  0  0  2  0  0  0  0  0  0
  187.1570  175.5240  141.2380 N   0  0  0  0  0  2  0  0  0  0  0  0
  190.5820  173.8800  141.2520 C   0  0  2  0  0  3  0  0  0  0  0  0
  191.8610  172.1170  138.7240 N   0  0  0  0  0  0  0  0  0  0  0  0
  190.5510  171.4430  138.8210 C   0  0  1  0  0  0  0  0  0  0  0  0
  188.5630  175.3680  141.4580 C   0  0  0  0  0  0  0  0  0  0  0  0
  190.9130  174.5180  145.9170 C   0  0  2  0  0  3  0  0  0  0  0  0
  186.4340  176.7910  141.3950 C   0  0  0  0  0  2  0  0  0  0  0  0
  192.9310  171.3090  138.1500 C   0  0  0  0  0  1  0  0  0  0  0  0
  191.0310  171.4730  142.0530 C   0  0  0  0  0  2  0  0  0  0  0  0
  190.1390  171.8870  143.2260 C   0  0  0  0  0  2  0  0  0  0  0  0
  186.5890  177.3670  142.8050 C   0  0  0  0  0  2  0  0  0  0  0  0
  191.8040  175.7200  145.7000 C   0  0  0  0  0  0  0  0  0  0  0  0
  191.2040  177.1090  145.6340 C   0  0  0  0  0  2  0  0  0  0  0  0
  189.7250  177.3070  142.7290 C   0  0  0  0  0  0  0  0  0  0  0  0
  189.2170  176.3360  142.0330 C   0  0  0  0  0  0  0  0  0  0  0  0
  193.0940  175.5180  145.7110 N   0  0  0  0  0  0  0  0  0  0  0  0
  187.5060  178.5920  142.7740 C   0  0  0  0  0  2  0  0  0  0  0  0
  192.2040  172.4070  140.0920 C   0  0  0  0  0  2  0  0  0  0  0  0
  190.8960  172.4190  140.8430 C   0  0  1  0  0  0  0  0  0  0  0  0
  191.1420  174.1670  142.6510 C   0  0  0  0  0  2  0  0  0  0  0  0
  191.1980  173.3090  145.0130 C   0  0  0  0  0  2  0  0  0  0  0  0
  188.9420  174.5410  147.2640 O   0  0  0  0  0  1  0  0  0  0  0  0
  188.6620  175.2980  145.1220 O   0  0  0  0  0  0  0  0  0  0  0  0
  189.4560  174.7930  146.1440 C   0  0  0  0  0  0  0  0  0  0  0  0
  194.4540  177.1660  146.7570 N   0  0  0  0  0  2  0  0  0  0  0  0
  195.0890  176.5060  144.5460 C   0  0  0  0  0  1  0  0  0  0  0  0
  194.1460  176.4950  145.6950 C   0  0  0  0  0  0  0  0  0  0  0  0
  190.6420  169.9030  138.9840 C   0  0  0  0  0  2  0  0  0  0  0  0
  190.0660  169.1040  137.8200 C   0  0  0  0  0  1  0  0  0  0  0  0
  189.6930  171.7800  137.5850 C   0  0  0  0  0  2  0  0  0  0  0  0
  188.9270  173.5300  136.1870 F   0  0  0  0  0  0  0  0  0  0  0  0
  189.1600  173.2130  137.5120 C   0  0  0  0  0  0  0  0  0  0  0  0
  187.9680  173.3220  138.2040 F   0  0  0  0  0  0  0  0  0  0  0  0
  190.0790  174.1070  138.0280 F   0  0  0  0  0  0  0  0  0  0  0  0
  1  8  1  0  0  0  0
  1 11  1  0  0  0  0
  2  5  1  0  0  0  0
  3 25  1  0  0  0  0
  4 26  1  6  0  0  0
  4 27  1  0  0  0  0
  5 19  1  0  0  0  0
  7 13  1  0  0  0  0
  7 11  1  0  0  0  0
  8 26  1  1  0  0  0
  9 10  1  0  0  0  0
  9 24  1  0  0  0  0
 10 36  1  6  0  0  0
 10 34  1  0  0  0  0
 10  3  1  0  0  0  0
 11 21  2  0  0  0  0
 12 30  1  6  0  0  0
 13 17  1  0  0  0  0
 14  9  1  0  0  0  0
 15 16  1  0  0  0  0
 16  4  1  0  0  0  0
 18 22  2  0  0  0  0
 18 12  1  0  0  0  0
 19 18  1  0  0  0  0
 20  2  1  0  0  0  0
 20  6  1  0  0  0  0
 21 20  2  0  0  0  0
 23 17  1  0  0  0  0
 23  6  1  0  0  0  0
 25 24  1  6  0  0  0
 25  8  1  0  0  0  0
 25 15  1  0  0  0  0
 27 12  1  0  0  0  0
 29 30  2  0  0  0  0
 30 28  1  0  0  0  0
 32 33  1  0  0  0  0
 33 22  1  0  0  0  0
 33 31  2  0  0  0  0
 35 34  1  0  0  0  0
 37 38  1  0  0  0  0
 38 36  1  0  0  0  0
 38 40  1  0  0  0  0
 38 39  1  0  0  0  0
M  END
>  <MODEL>
4

>  <REMARK>
 VINA RESULT:      -7.2      3.221      7.611
  Name = 
  5 active torsions:
  status: ('A' for Active; 'I' for Inactive)
    1  A    between atoms: C_4  and  C_13
    2  A    between atoms: C_4  and  C_32
    3  A    between atoms: C_13  and  C_22
    4  A    between atoms: C_15  and  C_36
    5  A    between atoms: C_30  and  N_31
                            x       y       z     vdW  Elec       q    Type
                         _______ _______ _______ _____ _____    ______ ____

>  <TORSDO>
F 5

$$$$
=
 OpenBabel11072409293D

 40 43  0  0  1  0  0  0  0  0999 V2000
  191.8790  173.2300  142.8020 O   0  0  0  0  0  0  0  0  0  0  0  0
  193.4710  169.5830  143.8290 N   0  0  0  0  0  2  0  0  0  0  0  0
  190.8650  175.2770  144.0840 O   0  0  0  0  0  0  0  0  0  0  0  0
  194.4050  173.3930  144.2740 C   0  0  2  0  0  3  0  0  0  0  0  0
  194.5450  168.6610  144.1490 C   0  0  0  0  0  2  0  0  0  0  0  0
  193.5610  169.1030  141.3900 N   0  0  0  0  0  2  0  0  0  0  0  0
  191.8880  172.4400  140.4850 N   0  0  0  0  0  2  0  0  0  0  0  0
  191.9050  173.0850  144.2300 C   0  0  2  0  0  3  0  0  0  0  0  0
  189.5100  174.7030  145.8960 N   0  0  0  0  0  0  0  0  0  0  0  0
  189.7370  175.6910  144.8230 C   0  0  1  0  0  0  0  0  0  0  0  0
  192.0560  172.1850  141.8840 C   0  0  0  0  0  0  0  0  0  0  0  0
  196.4620  171.8720  144.4570 C   0  0  2  0  0  3  0  0  0  0  0  0
  191.9510  171.4070  139.4460 C   0  0  0  0  0  2  0  0  0  0  0  0
  188.9710  175.2490  147.1360 C   0  0  0  0  0  1  0  0  0  0  0  0
  192.9230  175.1780  145.3350 C   0  0  0  0  0  2  0  0  0  0  0  0
  194.0890  174.8930  144.3850 C   0  0  0  0  0  2  0  0  0  0  0  0
  193.2860  170.6590  139.4620 C   0  0  0  0  0  2  0  0  0  0  0  0
  196.0820  170.5050  144.9800 C   0  0  0  0  0  0  0  0  0  0  0  0
  195.9040  169.3460  144.0220 C   0  0  0  0  0  2  0  0  0  0  0  0
  193.0680  169.8770  142.4930 C   0  0  0  0  0  0  0  0  0  0  0  0
  192.4990  171.0190  142.2580 C   0  0  0  0  0  0  0  0  0  0  0  0
  196.0520  170.3480  146.2760 N   0  0  0  0  0  0  0  0  0  0  0  0
  193.0880  169.2420  140.0080 C   0  0  0  0  0  2  0  0  0  0  0  0
  190.8240  174.1820  146.1710 C   0  0  0  0  0  2  0  0  0  0  0  0
  191.6310  174.4420  144.9240 C   0  0  1  0  0  0  0  0  0  0  0  0
  193.2400  172.5050  144.7140 C   0  0  0  0  0  2  0  0  0  0  0  0
  195.6710  173.0510  145.0460 C   0  0  0  0  0  2  0  0  0  0  0  0
  197.9140  172.0180  142.5680 O   0  0  0  0  0  1  0  0  0  0  0  0
  195.6790  172.0600  142.0780 O   0  0  0  0  0  0  0  0  0  0  0  0
  196.7280  171.9780  142.9850 C   0  0  0  0  0  0  0  0  0  0  0  0
  196.9080  168.4210  147.3780 N   0  0  0  0  0  2  0  0  0  0  0  0
  194.5710  168.8550  147.6510 C   0  0  0  0  0  1  0  0  0  0  0  0
  195.8880  169.1310  147.0200 C   0  0  0  0  0  0  0  0  0  0  0  0
  190.0500  177.1220  145.3360 C   0  0  0  0  0  2  0  0  0  0  0  0
  190.6280  178.0620  144.2850 C   0  0  0  0  0  1  0  0  0  0  0  0
  188.5150  175.7370  143.8830 C   0  0  0  0  0  2  0  0  0  0  0  0
  187.3410  174.8310  142.0380 F   0  0  0  0  0  0  0  0  0  0  0  0
  188.5680  174.8010  142.6730 C   0  0  0  0  0  0  0  0  0  0  0  0
  189.5330  175.2230  141.7780 F   0  0  0  0  0  0  0  0  0  0  0  0
  188.8340  173.5030  143.0650 F   0  0  0  0  0  0  0  0  0  0  0  0
  1  8  1  0  0  0  0
  2  5  1  0  0  0  0
  3 10  1  0  0  0  0
  3 25  1  0  0  0  0
  4 16  1  1  0  0  0
  4 26  1  0  0  0  0
  4 27  1  0  0  0  0
  6 20  1  0  0  0  0
  7 11  1  0  0  0  0
  8 26  1  1  0  0  0
  8 25  1  0  0  0  0
  9 24  1  0  0  0  0
  9 14  1  0  0  0  0
 10 36  1  6  0  0  0
 10 34  1  0  0  0  0
 10  9  1  0  0  0  0
 11 21  2  0  0  0  0
 11  1  1  0  0  0  0
 12 30  1  6  0  0  0
 12 18  1  0  0  0  0
 12 27  1  0  0  0  0
 13 17  1  0  0  0  0
 13  7  1  0  0  0  0
 16 15  1  0  0  0  0
 17 23  1  0  0  0  0
 18 22  2  0  0  0  0
 19  5  1  0  0  0  0
 19 18  1  0  0  0  0
 20  2  1  0  0  0  0
 21 20  2  0  0  0  0
 22 33  1  0  0  0  0
 23  6  1  0  0  0  0
 25 15  1  1  0  0  0
 25 24  1  0  0  0  0
 28 30  1  0  0  0  0
 29 30  2  0  0  0  0
 33 31  2  0  0  0  0
 33 32  1  0  0  0  0
 35 34  1  0  0  0  0
 37 38  1  0  0  0  0
 38 40  1  0  0  0  0
 38 36  1  0  0  0  0
 39 38  1  0  0  0  0
M  END
>  <MODEL>
5

>  <REMARK>
 VINA RESULT:      -7.1      3.055      6.208
  Name = 
  5 active torsions:
  status: ('A' for Active; 'I' for Inactive)
    1  A    between atoms: C_4  and  C_13
    2  A    between atoms: C_4  and  C_32
    3  A    between atoms: C_13  and  C_22
    4  A    between atoms: C_15  and  C_36
    5  A    between atoms: C_30  and  N_31
                            x       y       z     vdW  Elec       q    Type
                         _______ _______ _______ _____ _____    ______ ____

>  <TORSDO>
F 5

$$$$
=
 OpenBabel11072409293D

 40 43  0  0  1  0  0  0  0  0999 V2000
  192.2520  174.8860  142.7730 O   0  0  0  0  0  0  0  0  0  0  0  0
  192.7090  172.9330  139.1870 N   0  0  0  0  0  2  0  0  0  0  0  0
  190.2460  175.5430  144.3240 O   0  0  0  0  0  0  0  0  0  0  0  0
  191.5550  172.0430  142.8550 C   0  0  2  0  0  3  0  0  0  0  0  0
  192.9550  171.7800  138.3390 C   0  0  0  0  0  2  0  0  0  0  0  0
  195.1130  173.5570  139.3230 N   0  0  0  0  0  2  0  0  0  0  0  0
  194.6020  175.5400  142.5720 N   0  0  0  0  0  2  0  0  0  0  0  0
  190.9790  174.4300  142.2920 C   0  0  2  0  0  3  0  0  0  0  0  0
  188.3460  176.2750  143.1830 N   0  0  0  0  0  0  0  0  0  0  0  0
  189.1400  176.4130  144.4200 C   0  0  1  0  0  0  0  0  0  0  0  0
  193.4240  174.9540  142.0070 C   0  0  0  0  0  0  0  0  0  0  0  0
  192.3600  169.9740  141.5740 C   0  0  2  0  0  3  0  0  0  0  0  0
  195.8510  175.7540  141.8340 C   0  0  0  0  0  2  0  0  0  0  0  0
  186.9060  176.4390  143.3500 C   0  0  0  0  0  1  0  0  0  0  0  0
  189.6910  173.2040  144.1550 C   0  0  0  0  0  2  0  0  0  0  0  0
  190.9690  172.3650  144.2400 C   0  0  0  0  0  2  0  0  0  0  0  0
  196.4060  174.4490  141.2570 C   0  0  0  0  0  2  0  0  0  0  0  0
  192.1310  170.1320  140.0870 C   0  0  0  0  0  0  0  0  0  0  0  0
  193.2720  170.5460  139.1820 C   0  0  0  0  0  2  0  0  0  0  0  0
  193.7520  173.7260  139.7470 C   0  0  0  0  0  0  0  0  0  0  0  0
  193.5100  174.3790  140.8420 C   0  0  0  0  0  0  0  0  0  0  0  0
  190.9670  169.7680  139.6200 N   0  0  0  0  0  0  0  0  0  0  0  0
  196.2200  174.4250  139.7380 C   0  0  0  0  0  2  0  0  0  0  0  0
  188.5960  174.9210  142.7610 C   0  0  0  0  0  2  0  0  0  0  0  0
  189.9040  174.5330  143.4020 C   0  0  1  0  0  0  0  0  0  0  0  0
  191.0570  172.9920  141.7640 C   0  0  0  0  0  2  0  0  0  0  0  0
  191.2850  170.5930  142.4800 C   0  0  0  0  0  2  0  0  0  0  0  0
  194.4790  169.1560  142.3080 O   0  0  0  0  0  1  0  0  0  0  0  0
  194.2800  171.4360  142.2690 O   0  0  0  0  0  0  0  0  0  0  0  0
  193.7660  170.1620  142.0610 C   0  0  0  0  0  0  0  0  0  0  0  0
  190.7410  168.5710  137.5770 N   0  0  0  0  0  2  0  0  0  0  0  0
  189.6300  170.6860  137.7010 C   0  0  0  0  0  1  0  0  0  0  0  0
  190.5550  169.6600  138.2490 C   0  0  0  0  0  0  0  0  0  0  0  0
  188.3760  176.0120  145.7100 C   0  0  0  0  0  2  0  0  0  0  0  0
  189.2700  175.6390  146.8880 C   0  0  0  0  0  1  0  0  0  0  0  0
  189.6540  177.8610  144.5550 C   0  0  0  0  0  2  0  0  0  0  0  0
  191.1910  179.5330  143.8880 F   0  0  0  0  0  0  0  0  0  0  0  0
  190.9760  178.1690  143.8460 C   0  0  0  0  0  0  0  0  0  0  0  0
  192.0270  177.5410  144.4880 F   0  0  0  0  0  0  0  0  0  0  0  0
  190.9320  177.7650  142.5250 F   0  0  0  0  0  0  0  0  0  0  0  0
  2 20  1  0  0  0  0
  3 10  1  0  0  0  0
  4 26  1  6  0  0  0
  4 16  1  0  0  0  0
  5 19  1  0  0  0  0
  5  2  1  0  0  0  0
  6 23  1  0  0  0  0
  6 20  1  0  0  0  0
  8 26  1  1  0  0  0
  8  1  1  0  0  0  0
  8 25  1  0  0  0  0
  9 14  1  0  0  0  0
  9 10  1  0  0  0  0
 10 36  1  1  0  0  0
 10 34  1  0  0  0  0
 11  7  1  0  0  0  0
 11  1  1  0  0  0  0
 12 30  1  1  0  0  0
 12 27  1  0  0  0  0
 13  7  1  0  0  0  0
 15 16  1  0  0  0  0
 17 13  1  0  0  0  0
 18 12  1  0  0  0  0
 19 18  1  0  0  0  0
 20 21  2  0  0  0  0
 21 11  2  0  0  0  0
 22 18  2  0  0  0  0
 23 17  1  0  0  0  0
 24  9  1  0  0  0  0
 25 24  1  6  0  0  0
 25 15  1  0  0  0  0
 25  3  1  0  0  0  0
 27  4  1  0  0  0  0
 30 29  2  0  0  0  0
 30 28  1  0  0  0  0
 31 33  2  0  0  0  0
 32 33  1  0  0  0  0
 33 22  1  0  0  0  0
 34 35  1  0  0  0  0
 38 37  1  0  0  0  0
 38 39  1  0  0  0  0
 38 36  1  0  0  0  0
 40 38  1  0  0  0  0
M  END
>  <MODEL>
6

>  <REMARK>
 VINA RESULT:      -7.1      2.199      2.985
  Name = 
  5 active torsions:
  status: ('A' for Active; 'I' for Inactive)
    1  A    between atoms: C_4  and  C_13
    2  A    between atoms: C_4  and  C_32
    3  A    between atoms: C_13  and  C_22
    4  A    between atoms: C_15  and  C_36
    5  A    between atoms: C_30  and  N_31
                            x       y       z     vdW  Elec       q    Type
                         _______ _______ _______ _____ _____    ______ ____

>  <TORSDO>
F 5

$$$$
=
 OpenBabel11072409293D

 40 43  0  0  1  0  0  0  0  0999 V2000
  189.6140  176.4140  144.4250 O   0  0  0  0  0  0  0  0  0  0  0  0
  193.2770  175.7870  142.6720 N   0  0  0  0  0  2  0  0  0  0  0  0
  187.1710  176.8610  143.5900 O   0  0  0  0  0  0  0  0  0  0  0  0
  189.8120  173.9130  142.9160 C   0  0  2  0  0  3  0  0  0  0  0  0
  194.3610  174.9790  142.1430 C   0  0  0  0  0  2  0  0  0  0  0  0
  194.2220  175.8500  144.9720 N   0  0  0  0  0  2  0  0  0  0  0  0
  190.8090  176.6320  146.5500 N   0  0  0  0  0  2  0  0  0  0  0  0
  189.4840  176.4090  142.9960 C   0  0  2  0  0  3  0  0  0  0  0  0
  187.0290  178.2970  141.7550 N   0  0  0  0  0  0  0  0  0  0  0  0
  186.3540  177.8390  142.9850 C   0  0  1  0  0  0  0  0  0  0  0  0
  190.8260  176.5190  145.1220 C   0  0  0  0  0  0  0  0  0  0  0  0
  191.7360  172.3070  142.3730 C   0  0  2  0  0  3  0  0  0  0  0  0
  192.0040  176.8460  147.3730 C   0  0  0  0  0  2  0  0  0  0  0  0
  186.1380  178.6650  140.6600 C   0  0  0  0  0  1  0  0  0  0  0  0
  187.5430  174.8810  142.2660 C   0  0  0  0  0  2  0  0  0  0  0  0
  188.2870  173.8370  143.1020 C   0  0  0  0  0  2  0  0  0  0  0  0
  193.0460  175.7440  147.1660 C   0  0  0  0  0  2  0  0  0  0  0  0
  192.8370  173.0150  141.6160 C   0  0  0  0  0  0  0  0  0  0  0  0
  194.0760  173.4920  142.3460 C   0  0  0  0  0  2  0  0  0  0  0  0
  193.1530  176.1190  144.0520 C   0  0  0  0  0  0  0  0  0  0  0  0
  191.9720  176.3820  144.5200 C   0  0  0  0  0  0  0  0  0  0  0  0
  192.7300  173.0690  140.3160 N   0  0  0  0  0  0  0  0  0  0  0  0
  194.2360  176.2880  146.3720 C   0  0  0  0  0  2  0  0  0  0  0  0
  187.8000  177.1540  141.3370 C   0  0  0  0  0  2  0  0  0  0  0  0
  187.9950  176.3220  142.5790 C   0  0  1  0  0  0  0  0  0  0  0  0
  190.2770  175.2590  142.3610 C   0  0  0  0  0  2  0  0  0  0  0  0
  190.3060  172.7660  142.0460 C   0  0  0  0  0  2  0  0  0  0  0  0
  191.8300  172.9660  144.6660 O   0  0  0  0  0  1  0  0  0  0  0  0
  192.4070  170.7880  144.2570 O   0  0  0  0  0  0  0  0  0  0  0  0
  191.9840  172.0400  143.8280 C   0  0  0  0  0  0  0  0  0  0  0  0
  194.6000  172.7300  138.8840 N   0  0  0  0  0  2  0  0  0  0  0  0
  193.4760  174.8330  138.6900 C   0  0  0  0  0  1  0  0  0  0  0  0
  193.7010  173.5270  139.3630 C   0  0  0  0  0  0  0  0  0  0  0  0
  184.9760  177.1670  142.7390 C   0  0  0  0  0  2  0  0  0  0  0  0
  183.7890  178.1230  142.7600 C   0  0  0  0  0  1  0  0  0  0  0  0
  186.1830  179.0200  143.9620 C   0  0  0  0  0  2  0  0  0  0  0  0
  185.8240  179.7790  146.1750 F   0  0  0  0  0  0  0  0  0  0  0  0
  186.1910  178.6610  145.4500 C   0  0  0  0  0  0  0  0  0  0  0  0
  185.2820  177.6540  145.7100 F   0  0  0  0  0  0  0  0  0  0  0  0
  187.4520  178.2640  145.8540 F   0  0  0  0  0  0  0  0  0  0  0  0
  1 11  1  0  0  0  0
  2 20  1  0  0  0  0
  4 27  1  6  0  0  0
  4 16  1  0  0  0  0
  5 19  1  0  0  0  0
  5  2  1  0  0  0  0
  6 23  1  0  0  0  0
  7 13  1  0  0  0  0
  8 26  1  6  0  0  0
  8  1  1  0  0  0  0
  9 10  1  0  0  0  0
 10 34  1  6  0  0  0
 10  3  1  0  0  0  0
 10 36  1  0  0  0  0
 11  7  1  0  0  0  0
 12 30  1  1  0  0  0
 14  9  1  0  0  0  0
 15 25  1  0  0  0  0
 15 16  1  0  0  0  0
 17 13  1  0  0  0  0
 18 19  1  0  0  0  0
 18 12  1  0  0  0  0
 20 21  2  0  0  0  0
 20  6  1  0  0  0  0
 21 11  2  0  0  0  0
 22 18  2  0  0  0  0
 23 17  1  0  0  0  0
 24  9  1  0  0  0  0
 25 24  1  6  0  0  0
 25  8  1  0  0  0  0
 25  3  1  0  0  0  0
 26  4  1  0  0  0  0
 27 12  1  0  0  0  0
 30 29  2  0  0  0  0
 30 28  1  0  0  0  0
 31 33  2  0  0  0  0
 32 33  1  0  0  0  0
 33 22  1  0  0  0  0
 34 35  1  0  0  0  0
 36 38  1  0  0  0  0
 38 39  1  0  0  0  0
 38 40  1  0  0  0  0
 38 37  1  0  0  0  0
M  END
>  <MODEL>
7

>  <REMARK>
 VINA RESULT:      -6.8      2.192      3.031
  Name = 
  5 active torsions:
  status: ('A' for Active; 'I' for Inactive)
    1  A    between atoms: C_4  and  C_13
    2  A    between atoms: C_4  and  C_32
    3  A    between atoms: C_13  and  C_22
    4  A    between atoms: C_15  and  C_36
    5  A    between atoms: C_30  and  N_31
                            x       y       z     vdW  Elec       q    Type
                         _______ _______ _______ _____ _____    ______ ____

>  <TORSDO>
F 5

$$$$
=
 OpenBabel11072409293D

 40 43  0  0  1  0  0  0  0  0999 V2000
  189.9630  173.9270  141.8130 O   0  0  0  0  0  0  0  0  0  0  0  0
  191.4300  170.0880  141.7280 N   0  0  0  0  0  2  0  0  0  0  0  0
  189.6550  175.7910  143.6270 O   0  0  0  0  0  0  0  0  0  0  0  0
  192.8410  173.7280  142.3170 C   0  0  2  0  0  3  0  0  0  0  0  0
  192.4490  169.0750  141.5280 C   0  0  0  0  0  2  0  0  0  0  0  0
  190.6400  169.9980  139.3710 N   0  0  0  0  0  2  0  0  0  0  0  0
  189.1080  173.5160  139.5570 N   0  0  0  0  0  2  0  0  0  0  0  0
  190.4560  173.5550  143.1100 C   0  0  2  0  0  3  0  0  0  0  0  0
  188.9430  175.0050  145.7060 N   0  0  0  0  0  0  0  0  0  0  0  0
  188.8920  176.1380  144.7620 C   0  0  1  0  0  0  0  0  0  0  0  0
  189.7120  173.0330  140.7620 C   0  0  0  0  0  0  0  0  0  0  0  0
  194.6720  172.0970  141.5670 C   0  0  2  0  0  3  0  0  0  0  0  0
  188.7100  172.6580  138.4350 C   0  0  0  0  0  2  0  0  0  0  0  0
  188.9130  175.3730  147.1170 C   0  0  0  0  0  1  0  0  0  0  0  0
  191.9940  175.3930  144.0550 C   0  0  0  0  0  2  0  0  0  0  0  0
  192.7350  175.2060  142.7280 C   0  0  0  0  0  2  0  0  0  0  0  0
  189.8890  171.8530  137.8840 C   0  0  0  0  0  2  0  0  0  0  0  0
  194.3550  170.6850  142.0050 C   0  0  0  0  0  0  0  0  0  0  0  0
  193.7470  169.7030  141.0250 C   0  0  0  0  0  2  0  0  0  0  0  0
  190.6300  170.6100  140.6690 C   0  0  0  0  0  0  0  0  0  0  0  0
  190.1340  171.8020  140.8000 C   0  0  0  0  0  0  0  0  0  0  0  0
  194.7500  170.3260  143.1970 N   0  0  0  0  0  0  0  0  0  0  0  0
  189.7440  170.3790  138.2730 C   0  0  0  0  0  2  0  0  0  0  0  0
  190.2130  174.3820  145.4330 C   0  0  0  0  0  2  0  0  0  0  0  0
  190.5720  174.7960  144.0290 C   0  0  1  0  0  0  0  0  0  0  0  0
  191.8100  172.8400  143.0160 C   0  0  0  0  0  2  0  0  0  0  0  0
  194.2520  173.2050  142.5450 C   0  0  0  0  0  2  0  0  0  0  0  0
  195.4100  172.4970  139.3320 O   0  0  0  0  0  0  0  0  0  0  0  0
  193.1500  172.6690  139.6530 O   0  0  0  0  0  1  0  0  0  0  0  0
  194.4340  172.4230  140.1220 C   0  0  0  0  0  0  0  0  0  0  0  0
  195.6750  168.1660  143.5680 N   0  0  0  0  0  2  0  0  0  0  0  0
  193.7680  168.7500  144.8900 C   0  0  0  0  0  1  0  0  0  0  0  0
  194.7240  169.0160  143.7840 C   0  0  0  0  0  0  0  0  0  0  0  0
  189.5040  177.4520  145.3170 C   0  0  0  0  0  2  0  0  0  0  0  0
  190.2240  178.3060  144.2800 C   0  0  0  0  0  1  0  0  0  0  0  0
  187.4360  176.3940  144.3240 C   0  0  0  0  0  2  0  0  0  0  0  0
  185.8890  176.7630  142.5700 F   0  0  0  0  0  0  0  0  0  0  0  0
  187.1630  176.2890  142.8210 C   0  0  0  0  0  0  0  0  0  0  0  0
  188.0640  177.0600  142.1110 F   0  0  0  0  0  0  0  0  0  0  0  0
  187.2410  174.9760  142.3960 F   0  0  0  0  0  0  0  0  0  0  0  0
  1  8  1  0  0  0  0
  3 25  1  0  0  0  0
  3 10  1  0  0  0  0
  4 27  1  1  0  0  0
  4 16  1  0  0  0  0
  4 26  1  0  0  0  0
  5  2  1  0  0  0  0
  6 20  1  0  0  0  0
  7 11  1  0  0  0  0
  8 26  1  6  0  0  0
  8 25  1  0  0  0  0
  9 14  1  0  0  0  0
 10 36  1  6  0  0  0
 10 34  1  0  0  0  0
 10  9  1  0  0  0  0
 11 21  2  0  0  0  0
 11  1  1  0  0  0  0
 12 30  1  6  0  0  0
 12 18  1  0  0  0  0
 12 27  1  0  0  0  0
 13  7  1  0  0  0  0
 16 15  1  0  0  0  0
 17 23  1  0  0  0  0
 17 13  1  0  0  0  0
 18 22  2  0  0  0  0
 19  5  1  0  0  0  0
 19 18  1  0  0  0  0
 20 21  2  0  0  0  0
 20  2  1  0  0  0  0
 22 33  1  0  0  0  0
 23  6  1  0  0  0  0
 24  9  1  0  0  0  0
 25 15  1  6  0  0  0
 25 24  1  0  0  0  0
 28 30  2  0  0  0  0
 29 30  1  0  0  0  0
 31 33  2  0  0  0  0
 33 32  1  0  0  0  0
 35 34  1  0  0  0  0
 37 38  1  0  0  0  0
 38 36  1  0  0  0  0
 39 38  1  0  0  0  0
 40 38  1  0  0  0  0
M  END
>  <MODEL>
8

>  <REMARK>
 VINA RESULT:      -6.7      2.669      5.288
  Name = 
  5 active torsions:
  status: ('A' for Active; 'I' for Inactive)
    1  A    between atoms: C_4  and  C_13
    2  A    between atoms: C_4  and  C_32
    3  A    between atoms: C_13  and  C_22
    4  A    between atoms: C_15  and  C_36
    5  A    between atoms: C_30  and  N_31
                            x       y       z     vdW  Elec       q    Type
                         _______ _______ _______ _____ _____    ______ ____

>  <TORSDO>
F 5

$$$$
=
 OpenBabel11072409293D

 40 43  0  0  1  0  0  0  0  0999 V2000
  192.7490  173.8030  143.3010 O   0  0  0  0  0  0  0  0  0  0  0  0
  193.6060  173.8860  139.2820 N   0  0  0  0  0  2  0  0  0  0  0  0
  190.8670  174.7610  144.8510 O   0  0  0  0  0  0  0  0  0  0  0  0
  190.8230  172.3620  141.6310 C   0  0  2  0  0  3  0  0  0  0  0  0
  193.5900  173.3740  137.9240 C   0  0  0  0  0  2  0  0  0  0  0  0
  195.7390  172.7470  139.8650 N   0  0  0  0  0  2  0  0  0  0  0  0
  194.9880  172.8690  143.6310 N   0  0  0  0  0  2  0  0  0  0  0  0
  191.7230  174.5110  142.5900 C   0  0  2  0  0  3  0  0  0  0  0  0
  190.1700  176.9190  144.3000 N   0  0  0  0  0  0  0  0  0  0  0  0
  190.3700  175.9600  145.4040 C   0  0  1  0  0  0  0  0  0  0  0  0
  194.0080  173.4730  142.7780 C   0  0  0  0  0  0  0  0  0  0  0  0
  190.9850  171.1110  139.3990 C   0  0  2  0  0  3  0  0  0  0  0  0
  196.3650  172.5720  143.2200 C   0  0  0  0  0  2  0  0  0  0  0  0
  189.0490  177.8350  144.4720 C   0  0  0  0  0  1  0  0  0  0  0  0
  189.3910  173.6700  143.2890 C   0  0  0  0  0  2  0  0  0  0  0  0
  189.9660  172.3030  142.9060 C   0  0  0  0  0  2  0  0  0  0  0  0
  196.4120  171.6500  142.0000 C   0  0  0  0  0  2  0  0  0  0  0  0
  191.4690  172.0270  138.2970 C   0  0  0  0  0  0  0  0  0  0  0  0
  192.9210  172.0020  137.8690 C   0  0  0  0  0  2  0  0  0  0  0  0
  194.5800  173.5010  140.2500 C   0  0  0  0  0  0  0  0  0  0  0  0
  194.2650  173.5760  141.5060 C   0  0  0  0  0  0  0  0  0  0  0  0
  190.5660  172.7210  137.6570 N   0  0  0  0  0  0  0  0  0  0  0  0
  196.8570  172.4370  140.7640 C   0  0  0  0  0  2  0  0  0  0  0  0
  189.8940  176.0830  143.1600 C   0  0  0  0  0  2  0  0  0  0  0  0
  190.4850  174.7370  143.4930 C   0  0  1  0  0  0  0  0  0  0  0  0
  191.3130  173.7740  141.3080 C   0  0  0  0  0  2  0  0  0  0  0  0
  190.0740  171.7630  140.4510 C   0  0  0  0  0  2  0  0  0  0  0  0
  191.9830  168.9490  139.5740 O   0  0  0  0  0  0  0  0  0  0  0  0
  192.9050  170.5550  140.9200 O   0  0  0  0  0  1  0  0  0  0  0  0
  191.9880  170.1470  139.9600 C   0  0  0  0  0  0  0  0  0  0  0  0
  190.9830  174.7910  136.5620 N   0  0  0  0  0  2  0  0  0  0  0  0
  190.9360  172.8430  135.1750 C   0  0  0  0  0  1  0  0  0  0  0  0
  190.7340  173.5250  136.4800 C   0  0  0  0  0  0  0  0  0  0  0  0
  189.0690  175.5870  146.1620 C   0  0  0  0  0  2  0  0  0  0  0  0
  189.2490  174.5450  147.2610 C   0  0  0  0  0  1  0  0  0  0  0  0
  191.4060  176.5150  146.4020 C   0  0  0  0  0  2  0  0  0  0  0  0
  193.6720  176.8360  147.0100 F   0  0  0  0  0  0  0  0  0  0  0  0
  192.8660  176.1470  146.1230 C   0  0  0  0  0  0  0  0  0  0  0  0
  193.0680  174.7930  146.3110 F   0  0  0  0  0  0  0  0  0  0  0  0
  193.2240  176.4940  144.8340 F   0  0  0  0  0  0  0  0  0  0  0  0
  2 20  1  0  0  0  0
  3 10  1  0  0  0  0
  4 27  1  6  0  0  0
  4 16  1  0  0  0  0
  5  2  1  0  0  0  0
  6 20  1  0  0  0  0
  6 23  1  0  0  0  0
  8 26  1  6  0  0  0
  8  1  1  0  0  0  0
  8 25  1  0  0  0  0
  9 14  1  0  0  0  0
  9 10  1  0  0  0  0
 10 34  1  1  0  0  0
 10 36  1  0  0  0  0
 11  1  1  0  0  0  0
 11  7  1  0  0  0  0
 12 30  1  1  0  0  0
 12 27  1  0  0  0  0
 13  7  1  0  0  0  0
 15 25  1  0  0  0  0
 16 15  1  0  0  0  0
 17 13  1  0  0  0  0
 18 12  1  0  0  0  0
 19  5  1  0  0  0  0
 19 18  1  0  0  0  0
 20 21  2  0  0  0  0
 21 11  2  0  0  0  0
 22 18  2  0  0  0  0
 23 17  1  0  0  0  0
 24  9  1  0  0  0  0
 25 24  1  6  0  0  0
 25  3  1  0  0  0  0
 26  4  1  0  0  0  0
 28 30  2  0  0  0  0
 30 29  1  0  0  0  0
 32 33  1  0  0  0  0
 33 31  2  0  0  0  0
 33 22  1  0  0  0  0
 34 35  1  0  0  0  0
 38 39  1  0  0  0  0
 38 36  1  0  0  0  0
 38 37  1  0  0  0  0
 40 38  1  0  0  0  0
M  END
>  <MODEL>
9

>  <REMARK>
 VINA RESULT:      -6.7      2.060      2.543
  Name = 
  5 active torsions:
  status: ('A' for Active; 'I' for Inactive)
    1  A    between atoms: C_4  and  C_13
    2  A    between atoms: C_4  and  C_32
    3  A    between atoms: C_13  and  C_22
    4  A    between atoms: C_15  and  C_36
    5  A    between atoms: C_30  and  N_31
                            x       y       z     vdW  Elec       q    Type
                         _______ _______ _______ _____ _____    ______ ____

>  <TORSDO>
F 5

$$$$
