=
 OpenBabel11062421313D

 55 63  0  0  1  0  0  0  0  0999 V2000
  192.8290  174.7410  145.7210 C   0  0  0  0  0  3  0  0  0  0  0  0
  192.6480  171.8440  142.0320 C   0  0  2  0  0  3  0  0  0  0  0  0
  192.3470  173.3280  143.8350 C   0  0  0  0  0  0  0  0  0  0  0  0
  191.9280  173.9210  145.0280 C   0  0  0  0  0  3  0  0  0  0  0  0
  194.5270  174.3440  144.0220 C   0  0  0  0  0  3  0  0  0  0  0  0
  191.5380  172.4710  142.9270 C   0  0  1  0  0  3  0  0  0  0  0  0
  194.1240  174.9700  145.2160 C   0  0  0  0  0  0  0  0  0  0  0  0
  193.8410  172.8120  142.0840 C   0  0  0  0  0  2  0  0  0  0  0  0
  193.6140  173.5310  143.3510 C   0  0  0  0  0  0  0  0  0  0  0  0
  194.3270  176.8980  146.7490 C   0  0  0  0  0  2  0  0  0  0  0  0
  195.0830  177.2520  145.4900 C   0  0  0  0  0  2  0  0  0  0  0  0
  195.0860  175.8170  145.9950 C   0  0  0  0  0  3  0  0  0  0  0  0
  190.5820  173.3720  142.1340 C   0  0  2  0  0  3  0  0  0  0  0  0
  189.4960  173.8940  143.0600 C   0  0  2  0  0  3  0  0  0  0  0  0
  189.1910  172.7710  142.0970 C   0  0  0  0  0  2  0  0  0  0  0  0
  188.9710  175.2010  142.5040 C   0  0  0  0  0  2  0  0  0  0  0  0
  189.6460  176.3700  143.2070 C   0  0  2  0  0  3  0  0  0  0  0  0
  188.2090  177.7150  144.8630 C   0  0  2  0  0  3  0  0  0  0  0  0
  187.3900  176.9350  143.9250 C   0  0  2  0  0  3  0  0  0  0  0  0
  188.6850  177.4740  143.4680 N   0  0  0  0  0  0  0  0  0  0  0  0
  189.0390  174.7560  147.1040 C   0  0  0  0  0  3  0  0  0  0  0  0
  190.5720  176.5540  147.6310 C   0  0  0  0  0  0  0  0  0  0  0  0
  189.9530  177.3610  146.6720 C   0  0  0  0  0  3  0  0  0  0  0  0
  188.8520  176.8810  145.9430 C   0  0  0  0  0  0  0  0  0  0  0  0
  191.6230  177.0310  148.3430 F   0  0  0  0  0  0  0  0  0  0  0  0
  188.4180  175.5640  146.1470 C   0  0  0  0  0  3  0  0  0  0  0  0
  190.1120  175.2520  147.8510 C   0  0  0  0  0  3  0  0  0  0  0  0
  186.2560  177.8000  143.4020 C   0  0  1  0  0  3  0  0  0  0  0  0
  184.5710  179.1550  144.4780 O   0  0  0  0  0  1  0  0  0  0  0  0
  185.9500  178.9460  144.3670 C   0  0  0  0  0  2  0  0  0  0  0  0
  186.6030  178.3160  142.0090 C   0  0  0  0  0  2  0  0  0  0  0  0
  184.3270  178.0470  141.3480 O   0  0  0  0  0  1  0  0  0  0  0  0
  185.5410  177.9530  141.0270 C   0  0  0  0  0  0  0  0  0  0  0  0
  185.8900  177.5400  139.7490 O   0  0  0  0  0  0  0  0  0  0  0  0
  190.8210  176.7500  142.5400 O   0  0  0  0  0  0  0  0  0  0  0  0
  191.6140  177.3460  143.5210 C   0  0  0  0  0  1  0  0  0  0  0  0
  192.2250  171.3760  140.6150 C   0  0  1  0  0  3  0  0  0  0  0  0
  190.9160  171.5430  135.4770 O   0  0  0  0  0  1  0  0  0  0  0  0
  194.2870  173.9630  138.3830 C   0  0  0  0  0  2  0  0  0  0  0  0
  192.3980  171.8420  138.0540 C   0  0  1  0  0  3  0  0  0  0  0  0
  189.5090  170.1760  136.6140 O   0  0  0  0  0  1  0  0  0  0  0  0
  191.4320  173.0290  137.9480 C   0  0  1  0  0  0  0  0  0  0  0  0
  189.0680  173.4990  137.5650 C   0  0  0  0  0  0  0  0  0  0  0  0
  193.0720  171.9390  139.4360 C   0  0  1  0  0  3  0  0  0  0  0  0
  193.2790  174.8850  137.6850 C   0  0  0  0  0  2  0  0  0  0  0  0
  190.9460  171.5540  137.9090 C   0  0  1  0  0  3  0  0  0  0  0  0
  188.1070  174.3110  137.5690 O   0  0  0  0  0  0  0  0  0  0  0  0
  190.1870  173.6410  138.5770 C   0  0  0  0  0  2  0  0  0  0  0  0
  193.6930  173.3390  139.6570 C   0  0  0  0  0  2  0  0  0  0  0  0
  192.1180  173.9980  136.5680 S   0  0  0  0  0  0  0  0  0  0  0  0
  190.1210  171.4270  136.6220 C   0  0  0  0  0  0  0  0  0  0  0  0
  189.0970  172.4430  136.6250 O   0  0  0  0  0  0  0  0  0  0  0  0
  192.2160  169.8390  140.5350 C   0  0  0  0  0  2  0  0  0  0  0  0
  190.9290  169.2090  141.0590 C   0  0  0  0  0  2  0  0  0  0  0  0
  191.2220  168.1740  141.9470 O   0  0  0  0  0  1  0  0  0  0  0  0
  2 37  1  6  0  0  0
  2  8  1  0  0  0  0
  2  6  1  0  0  0  0
  3  4  1  0  0  0  0
  4  1  2  0  0  0  0
  5  7  2  0  0  0  0
  6  3  1  1  0  0  0
  7  1  1  0  0  0  0
  7 12  1  0  0  0  0
  8  9  1  0  0  0  0
  9  3  2  0  0  0  0
  9  5  1  0  0  0  0
 11 12  1  0  0  0  0
 11 10  1  0  0  0  0
 12 10  1  0  0  0  0
 13 15  1  6  0  0  0
 13  6  1  0  0  0  0
 13 14  1  0  0  0  0
 14 16  1  6  0  0  0
 15 14  1  0  0  0  0
 17 16  1  6  0  0  0
 17 20  1  0  0  0  0
 18 24  1  1  0  0  0
 19 28  1  6  0  0  0
 19 18  1  0  0  0  0
 20 19  1  0  0  0  0
 20 18  1  0  0  0  0
 21 27  1  0  0  0  0
 22 27  2  0  0  0  0
 22 25  1  0  0  0  0
 23 22  1  0  0  0  0
 24 26  1  0  0  0  0
 24 23  2  0  0  0  0
 26 21  2  0  0  0  0
 28 31  1  6  0  0  0
 28 30  1  0  0  0  0
 30 29  1  0  0  0  0
 33 32  1  0  0  0  0
 33 31  1  0  0  0  0
 34 33  2  0  0  0  0
 35 17  1  0  0  0  0
 35 36  1  0  0  0  0
 37 53  1  1  0  0  0
 38 51  1  0  0  0  0
 39 49  1  0  0  0  0
 40 44  1  0  0  0  0
 41 51  1  0  0  0  0
 42 40  1  0  0  0  0
 42 48  1  0  0  0  0
 43 47  2  0  0  0  0
 43 48  1  0  0  0  0
 44 49  1  0  0  0  0
 44 37  1  0  0  0  0
 45 39  1  0  0  0  0
 46 42  1  0  0  0  0
 46 40  1  0  0  0  0
 50 45  1  0  0  0  0
 50 42  1  0  0  0  0
 51 52  1  0  0  0  0
 51 46  1  0  0  0  0
 52 43  1  0  0  0  0
 53 54  1  0  0  0  0
 54 55  1  0  0  0  0
M  END
>  <MODEL>
1

>  <REMARK>
 VINA RESULT:      -7.4      0.000      0.000
  Name = 
  15 active torsions:
  status: ('A' for Active; 'I' for Inactive)
    1  A    between atoms: C_1  and  C_21
    2  A    between atoms: C_2  and  C_22
    3  A    between atoms: C_2  and  C_24
    4  A    between atoms: C_2  and  C_26
    5  A    between atoms: C_4  and  C_6
    6  A    between atoms: C_4  and  C_11
    7  A    between atoms: C_4  and  C_18
    8  A    between atoms: C_7  and  C_32
    9  A    between atoms: C_7  and  C_48
   10  A    between atoms: C_17  and  C_49
   11  A    between atoms: C_18  and  C_38
   12  A    between atoms: C_24  and  C_34
   13  A    between atoms: C_32  and  N_33
   14  A    between atoms: C_32  and  O_40
   15  A    between atoms: C_39  and  C_50
                            x       y       z     vdW  Elec       q    Type
                         _______ _______ _______ _____ _____    ______ ____

>  <TORSDO>
F 15

$$$$
=
 OpenBabel11062421313D

 55 63  0  0  1  0  0  0  0  0999 V2000
  188.3350  177.9350  146.6150 C   0  0  0  0  0  3  0  0  0  0  0  0
  188.1000  176.3830  142.1910 C   0  0  2  0  0  3  0  0  0  0  0  0
  188.6060  177.0870  144.3800 C   0  0  0  0  0  0  0  0  0  0  0  0
  189.1430  177.7520  145.4840 C   0  0  0  0  0  3  0  0  0  0  0  0
  186.4920  176.7940  145.5060 C   0  0  0  0  0  3  0  0  0  0  0  0
  189.3030  176.7480  143.1100 C   0  0  1  0  0  3  0  0  0  0  0  0
  187.0140  177.4440  146.6390 C   0  0  0  0  0  0  0  0  0  0  0  0
  186.9570  175.9580  143.1270 C   0  0  0  0  0  2  0  0  0  0  0  0
  187.3130  176.6260  144.3920 C   0  0  0  0  0  0  0  0  0  0  0  0
  184.8260  178.2910  147.4160 C   0  0  0  0  0  2  0  0  0  0  0  0
  185.8870  179.1710  148.0350 C   0  0  0  0  0  2  0  0  0  0  0  0
  186.1540  177.6860  147.8430 C   0  0  0  0  0  3  0  0  0  0  0  0
  190.2300  175.5540  143.3700 C   0  0  2  0  0  3  0  0  0  0  0  0
  191.4030  176.0010  144.2260 C   0  0  2  0  0  3  0  0  0  0  0  0
  191.5900  175.7880  142.7430 C   0  0  0  0  0  2  0  0  0  0  0  0
  191.9340  174.8040  144.9870 C   0  0  0  0  0  2  0  0  0  0  0  0
  193.3180  175.1150  145.5390 C   0  0  2  0  0  3  0  0  0  0  0  0
  195.2240  173.6190  144.6770 C   0  0  2  0  0  3  0  0  0  0  0  0
  193.9080  172.9850  144.5230 C   0  0  2  0  0  3  0  0  0  0  0  0
  194.1400  173.8840  145.6690 N   0  0  0  0  0  0  0  0  0  0  0  0
  196.7820  176.6530  142.9930 C   0  0  0  0  0  3  0  0  0  0  0  0
  195.1480  175.7060  141.4780 C   0  0  0  0  0  0  0  0  0  0  0  0
  194.8480  174.7180  142.4210 C   0  0  0  0  0  3  0  0  0  0  0  0
  195.4910  174.7110  143.6710 C   0  0  0  0  0  0  0  0  0  0  0  0
  194.5100  175.7170  140.2820 F   0  0  0  0  0  0  0  0  0  0  0  0
  196.4790  175.6670  143.9370 C   0  0  0  0  0  3  0  0  0  0  0  0
  196.1130  176.6750  141.7650 C   0  0  0  0  0  3  0  0  0  0  0  0
  193.9870  171.5370  144.9760 C   0  0  1  0  0  3  0  0  0  0  0  0
  193.8670  171.1720  142.5910 O   0  0  0  0  0  1  0  0  0  0  0  0
  193.6240  170.5840  143.8360 C   0  0  0  0  0  2  0  0  0  0  0  0
  195.3790  171.2450  145.5290 C   0  0  0  0  0  2  0  0  0  0  0  0
  196.3030  169.0580  145.3200 O   0  0  0  0  0  0  0  0  0  0  0  0
  195.5040  169.8150  145.9300 C   0  0  0  0  0  0  0  0  0  0  0  0
  194.7620  169.3260  146.9960 O   0  0  0  0  0  1  0  0  0  0  0  0
  193.2340  175.8990  146.7000 O   0  0  0  0  0  0  0  0  0  0  0  0
  194.2170  176.8760  146.5470 C   0  0  0  0  0  1  0  0  0  0  0  0
  188.3890  175.4230  141.0070 C   0  0  1  0  0  3  0  0  0  0  0  0
  189.5140  171.3430  137.8090 O   0  0  0  0  0  1  0  0  0  0  0  0
  188.8700  171.8930  142.8040 C   0  0  0  0  0  2  0  0  0  0  0  0
  188.6550  172.9690  140.1640 C   0  0  1  0  0  3  0  0  0  0  0  0
  189.4800  173.2860  136.6400 O   0  0  0  0  0  1  0  0  0  0  0  0
  190.1820  172.8420  140.2360 C   0  0  1  0  0  0  0  0  0  0  0  0
  192.1640  173.2060  138.8610 C   0  0  0  0  0  0  0  0  0  0  0  0
  188.2320  173.9050  141.3120 C   0  0  1  0  0  3  0  0  0  0  0  0
  190.2480  171.3480  142.4020 C   0  0  0  0  0  2  0  0  0  0  0  0
  189.4550  173.4580  139.0090 C   0  0  1  0  0  3  0  0  0  0  0  0
  193.4150  173.2940  138.7600 O   0  0  0  0  0  0  0  0  0  0  0  0
  191.4740  173.6430  140.1360 C   0  0  0  0  0  2  0  0  0  0  0  0
  188.8070  173.4230  142.6650 C   0  0  0  0  0  2  0  0  0  0  0  0
  190.4330  171.0740  140.5930 S   0  0  0  0  0  0  0  0  0  0  0  0
  189.9590  172.6690  137.7940 C   0  0  0  0  0  0  0  0  0  0  0  0
  191.4010  172.7130  137.7770 O   0  0  0  0  0  0  0  0  0  0  0  0
  187.5110  175.7840  139.7950 C   0  0  0  0  0  2  0  0  0  0  0  0
  187.1080  177.2550  139.7510 C   0  0  0  0  0  2  0  0  0  0  0  0
  185.7200  177.3800  139.8140 O   0  0  0  0  0  1  0  0  0  0  0  0
  1  7  1  0  0  0  0
  2 37  1  6  0  0  0
  2  6  1  0  0  0  0
  2  8  1  0  0  0  0
  3  9  2  0  0  0  0
  3  4  1  0  0  0  0
  4  1  2  0  0  0  0
  5  7  2  0  0  0  0
  6 13  1  0  0  0  0
  6  3  1  1  0  0  0
  7 12  1  0  0  0  0
  8  9  1  0  0  0  0
  9  5  1  0  0  0  0
 10 12  1  0  0  0  0
 10 11  1  0  0  0  0
 12 11  1  0  0  0  0
 13 15  1  6  0  0  0
 13 14  1  0  0  0  0
 14 16  1  1  0  0  0
 15 14  1  0  0  0  0
 17 16  1  1  0  0  0
 17 20  1  0  0  0  0
 17 35  1  0  0  0  0
 18 24  1  6  0  0  0
 18 20  1  0  0  0  0
 19 18  1  0  0  0  0
 19 28  1  1  0  0  0
 19 20  1  0  0  0  0
 21 26  1  0  0  0  0
 22 27  1  0  0  0  0
 22 23  2  0  0  0  0
 23 24  1  0  0  0  0
 24 26  2  0  0  0  0
 25 22  1  0  0  0  0
 27 21  2  0  0  0  0
 28 30  1  6  0  0  0
 28 31  1  0  0  0  0
 29 30  1  0  0  0  0
 31 33  1  0  0  0  0
 32 33  2  0  0  0  0
 33 34  1  0  0  0  0
 36 35  1  0  0  0  0
 37 53  1  6  0  0  0
 37 44  1  0  0  0  0
 40 42  1  0  0  0  0
 40 44  1  0  0  0  0
 41 51  1  0  0  0  0
 42 50  1  0  0  0  0
 43 48  1  0  0  0  0
 44 49  1  0  0  0  0
 45 39  1  0  0  0  0
 46 40  1  0  0  0  0
 46 42  1  0  0  0  0
 47 43  2  0  0  0  0
 48 42  1  0  0  0  0
 49 39  1  0  0  0  0
 50 45  1  0  0  0  0
 51 38  1  0  0  0  0
 51 46  1  0  0  0  0
 52 51  1  0  0  0  0
 52 43  1  0  0  0  0
 54 53  1  0  0  0  0
 54 55  1  0  0  0  0
M  END
>  <MODEL>
2

>  <REMARK>
 VINA RESULT:      -7.0      2.989      7.555
  Name = 
  15 active torsions:
  status: ('A' for Active; 'I' for Inactive)
    1  A    between atoms: C_1  and  C_21
    2  A    between atoms: C_2  and  C_22
    3  A    between atoms: C_2  and  C_24
    4  A    between atoms: C_2  and  C_26
    5  A    between atoms: C_4  and  C_6
    6  A    between atoms: C_4  and  C_11
    7  A    between atoms: C_4  and  C_18
    8  A    between atoms: C_7  and  C_32
    9  A    between atoms: C_7  and  C_48
   10  A    between atoms: C_17  and  C_49
   11  A    between atoms: C_18  and  C_38
   12  A    between atoms: C_24  and  C_34
   13  A    between atoms: C_32  and  N_33
   14  A    between atoms: C_32  and  O_40
   15  A    between atoms: C_39  and  C_50
                            x       y       z     vdW  Elec       q    Type
                         _______ _______ _______ _____ _____    ______ ____

>  <TORSDO>
F 15

$$$$
=
 OpenBabel11062421313D

 55 63  0  0  1  0  0  0  0  0999 V2000
  193.2460  174.0720  145.4380 C   0  0  0  0  0  3  0  0  0  0  0  0
  192.5060  171.0300  141.9410 C   0  0  2  0  0  3  0  0  0  0  0  0
  192.5000  172.6620  143.6370 C   0  0  0  0  0  0  0  0  0  0  0  0
  192.2020  173.4060  144.7810 C   0  0  0  0  0  3  0  0  0  0  0  0
  194.8390  173.2290  143.8020 C   0  0  0  0  0  3  0  0  0  0  0  0
  191.5410  171.9260  142.7700 C   0  0  1  0  0  3  0  0  0  0  0  0
  194.5630  174.0010  144.9450 C   0  0  0  0  0  0  0  0  0  0  0  0
  193.8700  171.7390  141.9530 C   0  0  0  0  0  2  0  0  0  0  0  0
  193.7860  172.5730  143.1660 C   0  0  0  0  0  0  0  0  0  0  0  0
  196.9740  174.5450  144.9160 C   0  0  0  0  0  2  0  0  0  0  0  0
  196.7270  173.6910  146.1380 C   0  0  0  0  0  2  0  0  0  0  0  0
  195.6710  174.6880  145.6870 C   0  0  0  0  0  3  0  0  0  0  0  0
  190.7910  172.9450  141.9020 C   0  0  2  0  0  3  0  0  0  0  0  0
  189.7550  173.6650  142.7490 C   0  0  2  0  0  3  0  0  0  0  0  0
  189.3250  172.5780  141.7930 C   0  0  0  0  0  2  0  0  0  0  0  0
  189.4830  175.0220  142.1350 C   0  0  0  0  0  2  0  0  0  0  0  0
  190.1640  176.1070  142.9580 C   0  0  2  0  0  3  0  0  0  0  0  0
  188.7780  177.5970  144.5310 C   0  0  2  0  0  3  0  0  0  0  0  0
  187.9330  176.8380  143.5990 C   0  0  2  0  0  3  0  0  0  0  0  0
  189.2700  177.2780  143.1570 N   0  0  0  0  0  0  0  0  0  0  0  0
  189.3160  174.7010  146.9360 C   0  0  0  0  0  3  0  0  0  0  0  0
  191.0360  176.3540  147.3500 C   0  0  0  0  0  0  0  0  0  0  0  0
  190.4950  177.1660  146.3480 C   0  0  0  0  0  3  0  0  0  0  0  0
  189.3410  176.7630  145.6540 C   0  0  0  0  0  0  0  0  0  0  0  0
  192.1390  176.7570  148.0270 F   0  0  0  0  0  0  0  0  0  0  0  0
  188.7740  175.5140  145.9370 C   0  0  0  0  0  3  0  0  0  0  0  0
  190.4440  175.1230  147.6470 C   0  0  0  0  0  3  0  0  0  0  0  0
  186.8690  177.7530  143.0180 C   0  0  1  0  0  3  0  0  0  0  0  0
  185.8620  178.2210  140.8730 O   0  0  0  0  0  1  0  0  0  0  0  0
  187.0750  177.9510  141.5160 C   0  0  0  0  0  2  0  0  0  0  0  0
  185.4840  177.1940  143.3260 C   0  0  0  0  0  2  0  0  0  0  0  0
  184.9730  177.8800  145.5520 O   0  0  0  0  0  1  0  0  0  0  0  0
  184.7730  178.0480  144.3200 C   0  0  0  0  0  0  0  0  0  0  0  0
  183.9150  179.0490  143.8870 O   0  0  0  0  0  0  0  0  0  0  0  0
  191.4330  176.4100  142.4430 O   0  0  0  0  0  0  0  0  0  0  0  0
  191.7920  177.6120  143.0520 C   0  0  0  0  0  1  0  0  0  0  0  0
  192.0070  170.5620  140.5480 C   0  0  1  0  0  3  0  0  0  0  0  0
  192.8750  172.0180  135.5210 O   0  0  0  0  0  1  0  0  0  0  0  0
  195.6200  169.6960  139.0910 C   0  0  0  0  0  2  0  0  0  0  0  0
  193.0910  170.6660  138.1780 C   0  0  1  0  0  3  0  0  0  0  0  0
  190.8580  172.7710  136.2320 O   0  0  0  0  0  1  0  0  0  0  0  0
  193.8230  172.0080  138.2930 C   0  0  1  0  0  0  0  0  0  0  0  0
  193.4580  174.3880  137.8960 C   0  0  0  0  0  0  0  0  0  0  0  0
  193.1040  170.0290  139.5810 C   0  0  1  0  0  3  0  0  0  0  0  0
  196.2380  171.0000  138.5690 C   0  0  0  0  0  2  0  0  0  0  0  0
  192.3260  171.9090  137.8880 C   0  0  1  0  0  3  0  0  0  0  0  0
  193.8300  175.5820  138.0340 O   0  0  0  0  0  0  0  0  0  0  0  0
  193.7640  173.3700  138.9750 C   0  0  0  0  0  2  0  0  0  0  0  0
  194.5400  169.9690  140.1520 C   0  0  0  0  0  2  0  0  0  0  0  0
  195.2720  171.7830  137.2150 S   0  0  0  0  0  0  0  0  0  0  0  0
  192.2080  172.6710  136.5620 C   0  0  0  0  0  0  0  0  0  0  0  0
  192.7400  174.0000  136.7420 O   0  0  0  0  0  0  0  0  0  0  0  0
  190.9100  169.4930  140.7000 C   0  0  0  0  0  2  0  0  0  0  0  0
  190.4860  168.8630  139.3770 C   0  0  0  0  0  2  0  0  0  0  0  0
  189.7070  169.7560  138.6420 O   0  0  0  0  0  1  0  0  0  0  0  0
  2 37  1  6  0  0  0
  2  8  1  0  0  0  0
  2  6  1  0  0  0  0
  3  4  1  0  0  0  0
  4  1  2  0  0  0  0
  5  7  2  0  0  0  0
  6  3  1  1  0  0  0
  7  1  1  0  0  0  0
  7 12  1  0  0  0  0
  8  9  1  0  0  0  0
  9  3  2  0  0  0  0
  9  5  1  0  0  0  0
 10 12  1  0  0  0  0
 10 11  1  0  0  0  0
 12 11  1  0  0  0  0
 13 15  1  6  0  0  0
 13 14  1  0  0  0  0
 13  6  1  0  0  0  0
 14 16  1  6  0  0  0
 15 14  1  0  0  0  0
 17 16  1  6  0  0  0
 17 20  1  0  0  0  0
 18 24  1  1  0  0  0
 19 28  1  6  0  0  0
 19 18  1  0  0  0  0
 20 19  1  0  0  0  0
 20 18  1  0  0  0  0
 21 27  1  0  0  0  0
 22 27  2  0  0  0  0
 22 25  1  0  0  0  0
 23 22  1  0  0  0  0
 24 26  1  0  0  0  0
 24 23  2  0  0  0  0
 26 21  2  0  0  0  0
 28 30  1  6  0  0  0
 28 31  1  0  0  0  0
 29 30  1  0  0  0  0
 31 33  1  0  0  0  0
 33 32  1  0  0  0  0
 34 33  2  0  0  0  0
 35 17  1  0  0  0  0
 35 36  1  0  0  0  0
 37 53  1  1  0  0  0
 38 51  1  0  0  0  0
 39 49  1  0  0  0  0
 40 42  1  0  0  0  0
 40 44  1  0  0  0  0
 41 51  1  0  0  0  0
 42 48  1  0  0  0  0
 43 47  2  0  0  0  0
 43 48  1  0  0  0  0
 44 49  1  0  0  0  0
 44 37  1  0  0  0  0
 45 39  1  0  0  0  0
 46 40  1  0  0  0  0
 46 42  1  0  0  0  0
 50 42  1  0  0  0  0
 50 45  1  0  0  0  0
 51 52  1  0  0  0  0
 51 46  1  0  0  0  0
 52 43  1  0  0  0  0
 54 53  1  0  0  0  0
 55 54  1  0  0  0  0
M  END
>  <MODEL>
3

>  <REMARK>
 VINA RESULT:      -6.7      1.635      2.489
  Name = 
  15 active torsions:
  status: ('A' for Active; 'I' for Inactive)
    1  A    between atoms: C_1  and  C_21
    2  A    between atoms: C_2  and  C_22
    3  A    between atoms: C_2  and  C_24
    4  A    between atoms: C_2  and  C_26
    5  A    between atoms: C_4  and  C_6
    6  A    between atoms: C_4  and  C_11
    7  A    between atoms: C_4  and  C_18
    8  A    between atoms: C_7  and  C_32
    9  A    between atoms: C_7  and  C_48
   10  A    between atoms: C_17  and  C_49
   11  A    between atoms: C_18  and  C_38
   12  A    between atoms: C_24  and  C_34
   13  A    between atoms: C_32  and  N_33
   14  A    between atoms: C_32  and  O_40
   15  A    between atoms: C_39  and  C_50
                            x       y       z     vdW  Elec       q    Type
                         _______ _______ _______ _____ _____    ______ ____

>  <TORSDO>
F 15

$$$$
=
 OpenBabel11062421313D

 55 63  0  0  1  0  0  0  0  0999 V2000
  186.4450  176.9880  142.5110 C   0  0  0  0  0  3  0  0  0  0  0  0
  189.7660  174.1600  144.2450 C   0  0  2  0  0  3  0  0  0  0  0  0
  188.1650  175.3890  143.0330 C   0  0  0  0  0  0  0  0  0  0  0  0
  187.0670  175.7580  142.2540 C   0  0  0  0  0  3  0  0  0  0  0  0
  188.0250  177.4320  144.3090 C   0  0  0  0  0  3  0  0  0  0  0  0
  188.9920  174.1600  142.8940 C   0  0  1  0  0  3  0  0  0  0  0  0
  186.9290  177.8370  143.5260 C   0  0  0  0  0  0  0  0  0  0  0  0
  189.7890  175.6190  144.7290 C   0  0  0  0  0  2  0  0  0  0  0  0
  188.6260  176.2040  144.0370 C   0  0  0  0  0  0  0  0  0  0  0  0
  185.7420  179.1470  145.2520 C   0  0  0  0  0  2  0  0  0  0  0  0
  184.7570  178.8920  144.1350 C   0  0  0  0  0  2  0  0  0  0  0  0
  186.2240  179.1300  143.8110 C   0  0  0  0  0  3  0  0  0  0  0  0
  189.9190  174.3340  141.6840 C   0  0  2  0  0  3  0  0  0  0  0  0
  189.3790  173.5280  140.5140 C   0  0  2  0  0  3  0  0  0  0  0  0
  190.5570  173.0120  141.3060 C   0  0  0  0  0  2  0  0  0  0  0  0
  189.8660  174.1570  139.2260 C   0  0  0  0  0  2  0  0  0  0  0  0
  189.1260  173.5490  138.0430 C   0  0  2  0  0  3  0  0  0  0  0  0
  190.8960  172.5800  136.4490 C   0  0  2  0  0  3  0  0  0  0  0  0
  191.3550  173.8130  137.1030 C   0  0  2  0  0  3  0  0  0  0  0  0
  189.9210  173.6580  136.7920 N   0  0  0  0  0  0  0  0  0  0  0  0
  190.0660  169.1610  137.8920 C   0  0  0  0  0  3  0  0  0  0  0  0
  191.8910  170.0980  139.1770 C   0  0  0  0  0  0  0  0  0  0  0  0
  191.8580  171.2480  138.3820 C   0  0  0  0  0  3  0  0  0  0  0  0
  190.9080  171.3740  137.3550 C   0  0  0  0  0  0  0  0  0  0  0  0
  192.7990  169.9920  140.1780 F   0  0  0  0  0  0  0  0  0  0  0  0
  190.0320  170.3110  137.0990 C   0  0  0  0  0  3  0  0  0  0  0  0
  190.9920  169.0560  138.9350 C   0  0  0  0  0  3  0  0  0  0  0  0
  192.0120  174.7180  136.0740 C   0  0  1  0  0  3  0  0  0  0  0  0
  191.4730  176.8340  135.0420 O   0  0  0  0  0  1  0  0  0  0  0  0
  190.9700  175.5630  135.3400 C   0  0  0  0  0  2  0  0  0  0  0  0
  193.0650  175.5890  136.7530 C   0  0  0  0  0  2  0  0  0  0  0  0
  194.9870  174.1780  136.7660 O   0  0  0  0  0  0  0  0  0  0  0  0
  194.0890  174.7500  137.4380 C   0  0  0  0  0  0  0  0  0  0  0  0
  194.0710  174.6240  138.8200 O   0  0  0  0  0  1  0  0  0  0  0  0
  187.8160  174.0440  137.9580 O   0  0  0  0  0  0  0  0  0  0  0  0
  187.8710  175.0470  136.9910 C   0  0  0  0  0  1  0  0  0  0  0  0
  191.1310  173.4230  144.2710 C   0  0  1  0  0  3  0  0  0  0  0  0
  196.3970  173.9000  143.8420 O   0  0  0  0  0  1  0  0  0  0  0  0
  192.8870  175.7640  146.9840 C   0  0  0  0  0  2  0  0  0  0  0  0
  193.6080  173.9290  144.9140 C   0  0  1  0  0  3  0  0  0  0  0  0
  195.5610  172.7070  142.1050 O   0  0  0  0  0  1  0  0  0  0  0  0
  193.8080  175.2370  144.1400 C   0  0  1  0  0  0  0  0  0  0  0  0
  194.5340  176.0330  141.9500 C   0  0  0  0  0  0  0  0  0  0  0  0
  192.1340  173.8970  145.3630 C   0  0  1  0  0  3  0  0  0  0  0  0
  193.6900  176.8330  146.2300 C   0  0  0  0  0  2  0  0  0  0  0  0
  193.9920  173.8430  143.4800 C   0  0  1  0  0  3  0  0  0  0  0  0
  194.6420  176.9670  141.1150 O   0  0  0  0  0  0  0  0  0  0  0  0
  193.3530  175.9960  142.9000 C   0  0  0  0  0  2  0  0  0  0  0  0
  191.7530  175.1940  146.1160 C   0  0  0  0  0  2  0  0  0  0  0  0
  195.0150  176.1410  145.1600 S   0  0  0  0  0  0  0  0  0  0  0  0
  195.3970  173.8630  142.8650 C   0  0  0  0  0  0  0  0  0  0  0  0
  195.5070  175.0080  141.9930 O   0  0  0  0  0  0  0  0  0  0  0  0
  190.9210  171.9050  144.4090 C   0  0  0  0  0  2  0  0  0  0  0  0
  191.9400  171.0760  143.6310 C   0  0  0  0  0  2  0  0  0  0  0  0
  192.8810  170.5240  144.5010 O   0  0  0  0  0  1  0  0  0  0  0  0
  1  7  1  0  0  0  0
  2 37  1  6  0  0  0
  2  8  1  0  0  0  0
  3  9  2  0  0  0  0
  4  1  2  0  0  0  0
  4  3  1  0  0  0  0
  6  3  1  1  0  0  0
  6  2  1  0  0  0  0
  7 12  1  0  0  0  0
  7  5  2  0  0  0  0
  9  5  1  0  0  0  0
  9  8  1  0  0  0  0
 11 10  1  0  0  0  0
 12 11  1  0  0  0  0
 12 10  1  0  0  0  0
 13 15  1  1  0  0  0
 13  6  1  0  0  0  0
 14 16  1  6  0  0  0
 14 15  1  0  0  0  0
 14 13  1  0  0  0  0
 17 16  1  1  0  0  0
 18 20  1  0  0  0  0
 18 19  1  0  0  0  0
 18 24  1  1  0  0  0
 19 28  1  6  0  0  0
 20 19  1  0  0  0  0
 20 17  1  0  0  0  0
 21 27  1  0  0  0  0
 22 25  1  0  0  0  0
 23 22  1  0  0  0  0
 24 23  2  0  0  0  0
 26 24  1  0  0  0  0
 26 21  2  0  0  0  0
 27 22  2  0  0  0  0
 28 30  1  1  0  0  0
 28 31  1  0  0  0  0
 29 30  1  0  0  0  0
 31 33  1  0  0  0  0
 32 33  2  0  0  0  0
 33 34  1  0  0  0  0
 35 17  1  0  0  0  0
 36 35  1  0  0  0  0
 37 53  1  1  0  0  0
 37 44  1  0  0  0  0
 40 44  1  0  0  0  0
 41 51  1  0  0  0  0
 42 40  1  0  0  0  0
 42 50  1  0  0  0  0
 43 52  1  0  0  0  0
 43 48  1  0  0  0  0
 44 49  1  0  0  0  0
 45 39  1  0  0  0  0
 46 42  1  0  0  0  0
 46 40  1  0  0  0  0
 47 43  2  0  0  0  0
 48 42  1  0  0  0  0
 49 39  1  0  0  0  0
 50 45  1  0  0  0  0
 51 46  1  0  0  0  0
 51 38  1  0  0  0  0
 52 51  1  0  0  0  0
 54 53  1  0  0  0  0
 54 55  1  0  0  0  0
M  END
>  <MODEL>
4

>  <REMARK>
 VINA RESULT:      -6.4      3.257      8.067
  Name = 
  15 active torsions:
  status: ('A' for Active; 'I' for Inactive)
    1  A    between atoms: C_1  and  C_21
    2  A    between atoms: C_2  and  C_22
    3  A    between atoms: C_2  and  C_24
    4  A    between atoms: C_2  and  C_26
    5  A    between atoms: C_4  and  C_6
    6  A    between atoms: C_4  and  C_11
    7  A    between atoms: C_4  and  C_18
    8  A    between atoms: C_7  and  C_32
    9  A    between atoms: C_7  and  C_48
   10  A    between atoms: C_17  and  C_49
   11  A    between atoms: C_18  and  C_38
   12  A    between atoms: C_24  and  C_34
   13  A    between atoms: C_32  and  N_33
   14  A    between atoms: C_32  and  O_40
   15  A    between atoms: C_39  and  C_50
                            x       y       z     vdW  Elec       q    Type
                         _______ _______ _______ _____ _____    ______ ____

>  <TORSDO>
F 15

$$$$
=
 OpenBabel11062421313D

 55 63  0  0  1  0  0  0  0  0999 V2000
  197.1000  172.8950  144.7630 C   0  0  0  0  0  3  0  0  0  0  0  0
  192.9750  174.9780  145.5890 C   0  0  2  0  0  3  0  0  0  0  0  0
  195.0710  174.1830  144.8680 C   0  0  0  0  0  0  0  0  0  0  0  0
  196.4140  174.0890  144.4980 C   0  0  0  0  0  3  0  0  0  0  0  0
  195.0940  171.9410  145.7580 C   0  0  0  0  0  3  0  0  0  0  0  0
  194.1540  175.3320  144.6360 C   0  0  1  0  0  3  0  0  0  0  0  0
  196.4420  171.8120  145.3780 C   0  0  0  0  0  0  0  0  0  0  0  0
  193.0240  173.4550  145.7880 C   0  0  0  0  0  2  0  0  0  0  0  0
  194.4320  173.1380  145.4870 C   0  0  0  0  0  0  0  0  0  0  0  0
  197.6730  169.9060  144.3980 C   0  0  0  0  0  2  0  0  0  0  0  0
  196.4900  169.3330  145.1440 C   0  0  0  0  0  2  0  0  0  0  0  0
  197.2060  170.5600  145.6890 C   0  0  0  0  0  3  0  0  0  0  0  0
  193.7390  175.3300  143.1590 C   0  0  2  0  0  3  0  0  0  0  0  0
  194.7070  176.1870  142.3600 C   0  0  2  0  0  3  0  0  0  0  0  0
  193.3400  176.7230  142.7140 C   0  0  0  0  0  2  0  0  0  0  0  0
  194.7120  175.7060  140.9250 C   0  0  0  0  0  2  0  0  0  0  0  0
  195.8570  174.7280  140.7110 C   0  0  2  0  0  3  0  0  0  0  0  0
  195.5030  172.2530  140.1080 C   0  0  2  0  0  3  0  0  0  0  0  0
  194.2410  172.9300  140.4340 C   0  0  2  0  0  3  0  0  0  0  0  0
  195.4770  173.3500  141.1200 N   0  0  0  0  0  0  0  0  0  0  0  0
  197.9150  172.6620  137.1960 C   0  0  0  0  0  3  0  0  0  0  0  0
  195.7100  173.3230  136.4470 C   0  0  0  0  0  0  0  0  0  0  0  0
  195.1970  173.0500  137.7190 C   0  0  0  0  0  3  0  0  0  0  0  0
  196.0480  172.6100  138.7470 C   0  0  0  0  0  0  0  0  0  0  0  0
  194.8860  173.7650  135.4650 F   0  0  0  0  0  0  0  0  0  0  0  0
  197.4030  172.3920  138.4680 C   0  0  0  0  0  3  0  0  0  0  0  0
  197.0690  173.1330  136.1860 C   0  0  0  0  0  3  0  0  0  0  0  0
  193.4140  172.0460  141.3520 C   0  0  1  0  0  3  0  0  0  0  0  0
  191.9860  171.9280  139.4080 O   0  0  0  0  0  1  0  0  0  0  0  0
  192.3840  171.2400  140.5580 C   0  0  0  0  0  2  0  0  0  0  0  0
  194.3350  171.1380  142.1600 C   0  0  0  0  0  2  0  0  0  0  0  0
  193.7800  168.8950  142.7490 O   0  0  0  0  0  0  0  0  0  0  0  0
  193.5500  170.1210  142.9170 C   0  0  0  0  0  0  0  0  0  0  0  0
  192.5880  170.5270  143.8310 O   0  0  0  0  0  1  0  0  0  0  0  0
  197.0460  175.2090  141.2800 O   0  0  0  0  0  0  0  0  0  0  0  0
  197.8190  175.6290  140.1980 C   0  0  0  0  0  1  0  0  0  0  0  0
  191.5840  175.5630  145.2300 C   0  0  1  0  0  3  0  0  0  0  0  0
  186.4120  176.4210  144.4190 O   0  0  0  0  0  1  0  0  0  0  0  0
  189.6900  172.8080  143.0510 C   0  0  0  0  0  2  0  0  0  0  0  0
  189.0840  175.1020  144.6460 C   0  0  1  0  0  3  0  0  0  0  0  0
  187.3520  178.1820  145.4940 O   0  0  0  0  0  1  0  0  0  0  0  0
  189.0220  175.7620  143.2630 C   0  0  1  0  0  0  0  0  0  0  0  0
  188.5480  177.9220  142.2310 C   0  0  0  0  0  0  0  0  0  0  0  0
  190.5050  174.5270  144.8020 C   0  0  1  0  0  3  0  0  0  0  0  0
  189.0150  173.5260  141.8740 C   0  0  0  0  0  2  0  0  0  0  0  0
  188.8350  176.5670  144.5780 C   0  0  1  0  0  3  0  0  0  0  0  0
  188.5650  178.6700  141.2200 O   0  0  0  0  0  0  0  0  0  0  0  0
  189.6290  176.8770  142.4210 C   0  0  0  0  0  2  0  0  0  0  0  0
  190.8730  173.6210  143.6030 C   0  0  0  0  0  2  0  0  0  0  0  0
  187.7670  174.7740  142.3890 S   0  0  0  0  0  0  0  0  0  0  0  0
  187.4980  177.3020  144.4230 C   0  0  0  0  0  0  0  0  0  0  0  0
  187.5270  178.0660  143.1990 O   0  0  0  0  0  0  0  0  0  0  0  0
  191.0350  176.4040  146.3980 C   0  0  0  0  0  2  0  0  0  0  0  0
  191.1650  175.7190  147.7550 C   0  0  0  0  0  2  0  0  0  0  0  0
  190.0470  174.9230  148.0050 O   0  0  0  0  0  1  0  0  0  0  0  0
  1  7  1  0  0  0  0
  2 37  1  6  0  0  0
  2  8  1  0  0  0  0
  3  9  2  0  0  0  0
  4  1  2  0  0  0  0
  4  3  1  0  0  0  0
  6  3  1  6  0  0  0
  6  2  1  0  0  0  0
  7 12  1  0  0  0  0
  7  5  2  0  0  0  0
  9  5  1  0  0  0  0
  9  8  1  0  0  0  0
 10 11  1  0  0  0  0
 10 12  1  0  0  0  0
 11 12  1  0  0  0  0
 13 15  1  1  0  0  0
 13  6  1  0  0  0  0
 14 16  1  6  0  0  0
 14 15  1  0  0  0  0
 14 13  1  0  0  0  0
 17 16  1  1  0  0  0
 17 20  1  0  0  0  0
 17 35  1  0  0  0  0
 18 24  1  6  0  0  0
 18 19  1  0  0  0  0
 18 20  1  0  0  0  0
 19 20  1  0  0  0  0
 19 28  1  1  0  0  0
 21 26  1  0  0  0  0
 22 23  2  0  0  0  0
 23 24  1  0  0  0  0
 25 22  1  0  0  0  0
 26 24  2  0  0  0  0
 27 22  1  0  0  0  0
 27 21  2  0  0  0  0
 28 30  1  6  0  0  0
 28 31  1  0  0  0  0
 29 30  1  0  0  0  0
 31 33  1  0  0  0  0
 32 33  2  0  0  0  0
 33 34  1  0  0  0  0
 36 35  1  0  0  0  0
 37 53  1  1  0  0  0
 38 51  1  0  0  0  0
 39 49  1  0  0  0  0
 40 44  1  0  0  0  0
 42 46  1  0  0  0  0
 42 40  1  0  0  0  0
 43 48  1  0  0  0  0
 43 52  1  0  0  0  0
 44 37  1  0  0  0  0
 45 50  1  0  0  0  0
 45 39  1  0  0  0  0
 46 40  1  0  0  0  0
 47 43  2  0  0  0  0
 48 42  1  0  0  0  0
 49 44  1  0  0  0  0
 50 42  1  0  0  0  0
 51 46  1  0  0  0  0
 51 41  1  0  0  0  0
 52 51  1  0  0  0  0
 53 54  1  0  0  0  0
 54 55  1  0  0  0  0
M  END
>  <MODEL>
5

>  <REMARK>
 VINA RESULT:      -6.3      3.630      8.539
  Name = 
  15 active torsions:
  status: ('A' for Active; 'I' for Inactive)
    1  A    between atoms: C_1  and  C_21
    2  A    between atoms: C_2  and  C_22
    3  A    between atoms: C_2  and  C_24
    4  A    between atoms: C_2  and  C_26
    5  A    between atoms: C_4  and  C_6
    6  A    between atoms: C_4  and  C_11
    7  A    between atoms: C_4  and  C_18
    8  A    between atoms: C_7  and  C_32
    9  A    between atoms: C_7  and  C_48
   10  A    between atoms: C_17  and  C_49
   11  A    between atoms: C_18  and  C_38
   12  A    between atoms: C_24  and  C_34
   13  A    between atoms: C_32  and  N_33
   14  A    between atoms: C_32  and  O_40
   15  A    between atoms: C_39  and  C_50
                            x       y       z     vdW  Elec       q    Type
                         _______ _______ _______ _____ _____    ______ ____

>  <TORSDO>
F 15

$$$$
=
 OpenBabel11062421313D

 55 63  0  0  1  0  0  0  0  0999 V2000
  196.9700  172.8630  144.7210 C   0  0  0  0  0  3  0  0  0  0  0  0
  192.8640  174.9870  145.5330 C   0  0  2  0  0  3  0  0  0  0  0  0
  194.9480  174.1620  144.8120 C   0  0  0  0  0  0  0  0  0  0  0  0
  196.2860  174.0510  144.4290 C   0  0  0  0  0  3  0  0  0  0  0  0
  194.9720  171.9470  145.7670 C   0  0  0  0  0  3  0  0  0  0  0  0
  194.0330  175.3070  144.5570 C   0  0  1  0  0  3  0  0  0  0  0  0
  196.3150  171.8010  145.3750 C   0  0  0  0  0  0  0  0  0  0  0  0
  192.9090  173.4700  145.7770 C   0  0  0  0  0  2  0  0  0  0  0  0
  194.3120  173.1380  145.4680 C   0  0  0  0  0  0  0  0  0  0  0  0
  197.9390  170.1390  144.5330 C   0  0  0  0  0  2  0  0  0  0  0  0
  196.6560  169.3960  144.8240 C   0  0  0  0  0  2  0  0  0  0  0  0
  197.0780  170.5550  145.7150 C   0  0  0  0  0  3  0  0  0  0  0  0
  193.6000  175.2630  143.0850 C   0  0  2  0  0  3  0  0  0  0  0  0
  194.4960  176.1790  142.2670 C   0  0  2  0  0  3  0  0  0  0  0  0
  193.1000  176.6210  142.6350 C   0  0  0  0  0  2  0  0  0  0  0  0
  194.5160  175.6870  140.8350 C   0  0  0  0  0  2  0  0  0  0  0  0
  195.9510  175.6160  140.3340 C   0  0  2  0  0  3  0  0  0  0  0  0
  196.3180  173.5970  138.7830 C   0  0  2  0  0  3  0  0  0  0  0  0
  195.2470  173.3580  139.7600 C   0  0  2  0  0  3  0  0  0  0  0  0
  196.3900  174.2090  140.1430 N   0  0  0  0  0  0  0  0  0  0  0  0
  194.1640  175.6620  136.4250 C   0  0  0  0  0  3  0  0  0  0  0  0
  196.4870  176.1000  135.9020 C   0  0  0  0  0  0  0  0  0  0  0  0
  196.8790  175.2100  136.9060 C   0  0  0  0  0  3  0  0  0  0  0  0
  195.9150  174.5160  137.6560 C   0  0  0  0  0  0  0  0  0  0  0  0
  197.4240  176.7530  135.1710 F   0  0  0  0  0  0  0  0  0  0  0  0
  194.5570  174.7700  137.4270 C   0  0  0  0  0  3  0  0  0  0  0  0
  195.1290  176.3240  135.6580 C   0  0  0  0  0  3  0  0  0  0  0  0
  195.4090  171.9720  140.3610 C   0  0  1  0  0  3  0  0  0  0  0  0
  197.0280  170.5560  141.4610 O   0  0  0  0  0  1  0  0  0  0  0  0
  196.6780  171.8870  141.2110 C   0  0  0  0  0  2  0  0  0  0  0  0
  194.1670  171.6130  141.1700 C   0  0  0  0  0  2  0  0  0  0  0  0
  192.1060  172.6790  140.6210 O   0  0  0  0  0  1  0  0  0  0  0  0
  192.9330  171.7690  140.3480 C   0  0  0  0  0  0  0  0  0  0  0  0
  192.7110  170.9330  139.2630 O   0  0  0  0  0  0  0  0  0  0  0  0
  196.8020  176.4020  141.1240 O   0  0  0  0  0  0  0  0  0  0  0  0
  197.9180  175.5990  141.3610 C   0  0  0  0  0  1  0  0  0  0  0  0
  191.4710  175.5670  145.1740 C   0  0  1  0  0  3  0  0  0  0  0  0
  186.2800  176.3980  144.4580 O   0  0  0  0  0  1  0  0  0  0  0  0
  189.5510  172.8000  143.0340 C   0  0  0  0  0  2  0  0  0  0  0  0
  188.9620  175.0930  144.6370 C   0  0  1  0  0  3  0  0  0  0  0  0
  187.2320  178.1650  145.5130 O   0  0  0  0  0  1  0  0  0  0  0  0
  188.8720  175.7500  143.2550 C   0  0  1  0  0  0  0  0  0  0  0  0
  188.3670  177.9070  142.2290 C   0  0  0  0  0  0  0  0  0  0  0  0
  190.3890  174.5250  144.7670 C   0  0  1  0  0  3  0  0  0  0  0  0
  188.8500  173.5130  141.8690 C   0  0  0  0  0  2  0  0  0  0  0  0
  188.7050  176.5560  144.5720 C   0  0  1  0  0  3  0  0  0  0  0  0
  188.3630  178.6530  141.2170 O   0  0  0  0  0  0  0  0  0  0  0  0
  189.4570  176.8680  142.4000 C   0  0  0  0  0  2  0  0  0  0  0  0
  190.7400  173.6190  143.5630 C   0  0  0  0  0  2  0  0  0  0  0  0
  187.6050  174.7550  142.4060 S   0  0  0  0  0  0  0  0  0  0  0  0
  187.3620  177.2850  144.4410 C   0  0  0  0  0  0  0  0  0  0  0  0
  187.3640  178.0470  143.2160 O   0  0  0  0  0  0  0  0  0  0  0  0
  190.9290  176.4250  146.3320 C   0  0  0  0  0  2  0  0  0  0  0  0
  191.7910  176.3640  147.5900 C   0  0  0  0  0  2  0  0  0  0  0  0
  191.3380  177.2870  148.5320 O   0  0  0  0  0  1  0  0  0  0  0  0
  1  7  1  0  0  0  0
  2 37  1  6  0  0  0
  2  8  1  0  0  0  0
  3  9  2  0  0  0  0
  4  1  2  0  0  0  0
  4  3  1  0  0  0  0
  6  3  1  6  0  0  0
  6  2  1  0  0  0  0
  7 12  1  0  0  0  0
  7  5  2  0  0  0  0
  9  5  1  0  0  0  0
  9  8  1  0  0  0  0
 10 11  1  0  0  0  0
 10 12  1  0  0  0  0
 11 12  1  0  0  0  0
 13 15  1  1  0  0  0
 13  6  1  0  0  0  0
 14 16  1  6  0  0  0
 14 15  1  0  0  0  0
 14 13  1  0  0  0  0
 17 16  1  1  0  0  0
 17 35  1  0  0  0  0
 18 24  1  6  0  0  0
 18 19  1  0  0  0  0
 18 20  1  0  0  0  0
 19 20  1  0  0  0  0
 19 28  1  1  0  0  0
 20 17  1  0  0  0  0
 21 26  1  0  0  0  0
 22 23  2  0  0  0  0
 23 24  1  0  0  0  0
 25 22  1  0  0  0  0
 26 24  2  0  0  0  0
 27 22  1  0  0  0  0
 27 21  2  0  0  0  0
 28 31  1  1  0  0  0
 28 30  1  0  0  0  0
 30 29  1  0  0  0  0
 33 32  1  0  0  0  0
 33 31  1  0  0  0  0
 34 33  2  0  0  0  0
 35 36  1  0  0  0  0
 37 53  1  1  0  0  0
 39 49  1  0  0  0  0
 40 44  1  0  0  0  0
 42 46  1  0  0  0  0
 42 40  1  0  0  0  0
 43 48  1  0  0  0  0
 43 52  1  0  0  0  0
 44 37  1  0  0  0  0
 45 50  1  0  0  0  0
 45 39  1  0  0  0  0
 46 40  1  0  0  0  0
 47 43  2  0  0  0  0
 48 42  1  0  0  0  0
 49 44  1  0  0  0  0
 50 42  1  0  0  0  0
 51 38  1  0  0  0  0
 51 46  1  0  0  0  0
 51 41  1  0  0  0  0
 52 51  1  0  0  0  0
 53 54  1  0  0  0  0
 54 55  1  0  0  0  0
M  END
>  <MODEL>
6

>  <REMARK>
 VINA RESULT:      -6.1      3.804      8.642
  Name = 
  15 active torsions:
  status: ('A' for Active; 'I' for Inactive)
    1  A    between atoms: C_1  and  C_21
    2  A    between atoms: C_2  and  C_22
    3  A    between atoms: C_2  and  C_24
    4  A    between atoms: C_2  and  C_26
    5  A    between atoms: C_4  and  C_6
    6  A    between atoms: C_4  and  C_11
    7  A    between atoms: C_4  and  C_18
    8  A    between atoms: C_7  and  C_32
    9  A    between atoms: C_7  and  C_48
   10  A    between atoms: C_17  and  C_49
   11  A    between atoms: C_18  and  C_38
   12  A    between atoms: C_24  and  C_34
   13  A    between atoms: C_32  and  N_33
   14  A    between atoms: C_32  and  O_40
   15  A    between atoms: C_39  and  C_50
                            x       y       z     vdW  Elec       q    Type
                         _______ _______ _______ _____ _____    ______ ____

>  <TORSDO>
F 15

$$$$
=
 OpenBabel11062421313D

 55 63  0  0  1  0  0  0  0  0999 V2000
  193.2180  173.0140  137.3090 C   0  0  0  0  0  3  0  0  0  0  0  0
  189.8900  173.0730  140.6190 C   0  0  2  0  0  3  0  0  0  0  0  0
  191.8120  173.0990  139.2590 C   0  0  0  0  0  0  0  0  0  0  0  0
  193.0530  172.8150  138.6870 C   0  0  0  0  0  3  0  0  0  0  0  0
  190.9090  173.7640  137.1220 C   0  0  0  0  0  3  0  0  0  0  0  0
  191.4430  173.0050  140.6970 C   0  0  1  0  0  3  0  0  0  0  0  0
  192.1560  173.5040  136.5240 C   0  0  0  0  0  0  0  0  0  0  0  0
  189.5560  173.7890  139.3000 C   0  0  0  0  0  2  0  0  0  0  0  0
  190.7680  173.5560  138.4940 C   0  0  0  0  0  0  0  0  0  0  0  0
  193.8240  173.6800  134.7090 C   0  0  0  0  0  2  0  0  0  0  0  0
  193.0510  174.9780  134.7280 C   0  0  0  0  0  2  0  0  0  0  0  0
  192.3410  173.6710  135.0450 C   0  0  0  0  0  3  0  0  0  0  0  0
  192.0490  174.2080  141.4320 C   0  0  2  0  0  3  0  0  0  0  0  0
  193.2510  173.7520  142.2430 C   0  0  2  0  0  3  0  0  0  0  0  0
  191.9370  174.0270  142.9330 C   0  0  0  0  0  2  0  0  0  0  0  0
  194.1850  174.9290  142.4310 C   0  0  0  0  0  2  0  0  0  0  0  0
  195.3880  174.5060  143.2620 C   0  0  2  0  0  3  0  0  0  0  0  0
  195.4090  174.2610  145.8220 C   0  0  2  0  0  3  0  0  0  0  0  0
  194.1250  174.7710  145.3240 C   0  0  2  0  0  3  0  0  0  0  0  0
  195.3640  175.1320  144.6100 N   0  0  0  0  0  0  0  0  0  0  0  0
  197.0940  170.8660  145.5020 C   0  0  0  0  0  3  0  0  0  0  0  0
  194.7110  170.5550  145.2100 C   0  0  0  0  0  0  0  0  0  0  0  0
  194.5130  171.9290  145.3780 C   0  0  0  0  0  3  0  0  0  0  0  0
  195.6090  172.7850  145.5790 C   0  0  0  0  0  0  0  0  0  0  0  0
  193.6500  169.7380  144.9990 F   0  0  0  0  0  0  0  0  0  0  0  0
  196.8960  172.2400  145.6680 C   0  0  0  0  0  3  0  0  0  0  0  0
  196.0020  170.0240  145.2680 C   0  0  0  0  0  3  0  0  0  0  0  0
  193.6710  175.9330  146.1920 C   0  0  1  0  0  3  0  0  0  0  0  0
  194.9370  177.9170  146.7380 O   0  0  0  0  0  1  0  0  0  0  0  0
  194.2730  177.2520  145.7030 C   0  0  0  0  0  2  0  0  0  0  0  0
  192.1470  175.9890  146.2220 C   0  0  0  0  0  2  0  0  0  0  0  0
  191.4490  177.2000  148.1540 O   0  0  0  0  0  0  0  0  0  0  0  0
  191.6450  176.0750  147.6230 C   0  0  0  0  0  0  0  0  0  0  0  0
  191.3640  174.9150  148.3320 O   0  0  0  0  0  1  0  0  0  0  0  0
  196.5830  174.6820  142.5470 O   0  0  0  0  0  0  0  0  0  0  0  0
  196.9620  173.3980  142.1560 C   0  0  0  0  0  1  0  0  0  0  0  0
  189.1460  173.5990  141.8740 C   0  0  1  0  0  3  0  0  0  0  0  0
  186.9690  177.1380  145.1730 O   0  0  0  0  0  1  0  0  0  0  0  0
  186.8950  176.4120  140.1590 C   0  0  0  0  0  2  0  0  0  0  0  0
  187.5480  175.4550  142.7730 C   0  0  1  0  0  3  0  0  0  0  0  0
  188.3680  175.7540  146.2990 O   0  0  0  0  0  1  0  0  0  0  0  0
  188.5020  176.6540  142.7230 C   0  0  1  0  0  0  0  0  0  0  0  0
  190.1350  177.8150  144.1160 C   0  0  0  0  0  0  0  0  0  0  0  0
  187.9320  174.5320  141.5990 C   0  0  1  0  0  3  0  0  0  0  0  0
  187.4450  177.7780  140.5910 C   0  0  0  0  0  2  0  0  0  0  0  0
  188.4600  175.6740  143.9270 C   0  0  1  0  0  3  0  0  0  0  0  0
  191.0580  178.6630  144.2310 O   0  0  0  0  0  0  0  0  0  0  0  0
  189.9720  177.0430  142.8220 C   0  0  0  0  0  2  0  0  0  0  0  0
  187.9660  175.3140  140.2650 C   0  0  0  0  0  2  0  0  0  0  0  0
  187.3850  178.0570  142.4070 S   0  0  0  0  0  0  0  0  0  0  0  0
  188.2390  176.5530  145.1650 C   0  0  0  0  0  0  0  0  0  0  0  0
  189.2600  177.5710  145.1990 O   0  0  0  0  0  0  0  0  0  0  0  0
  188.6870  172.4270  142.7590 C   0  0  0  0  0  2  0  0  0  0  0  0
  189.8370  171.5670  143.2770 C   0  0  0  0  0  2  0  0  0  0  0  0
  190.0850  170.5110  142.3990 O   0  0  0  0  0  1  0  0  0  0  0  0
  1  4  1  0  0  0  0
  2  6  1  0  0  0  0
  2 37  1  1  0  0  0
  4  3  2  0  0  0  0
  5  9  2  0  0  0  0
  6  3  1  6  0  0  0
  6 13  1  0  0  0  0
  7  5  1  0  0  0  0
  7  1  2  0  0  0  0
  8  2  1  0  0  0  0
  9  3  1  0  0  0  0
  9  8  1  0  0  0  0
 10 11  1  0  0  0  0
 10 12  1  0  0  0  0
 11 12  1  0  0  0  0
 12  7  1  0  0  0  0
 13 14  1  0  0  0  0
 13 15  1  1  0  0  0
 14 16  1  1  0  0  0
 14 15  1  0  0  0  0
 17 16  1  6  0  0  0
 17 20  1  0  0  0  0
 18 24  1  6  0  0  0
 19 18  1  0  0  0  0
 19 28  1  1  0  0  0
 20 19  1  0  0  0  0
 20 18  1  0  0  0  0
 21 26  1  0  0  0  0
 22 27  1  0  0  0  0
 22 23  2  0  0  0  0
 23 24  1  0  0  0  0
 24 26  2  0  0  0  0
 25 22  1  0  0  0  0
 27 21  2  0  0  0  0
 28 30  1  6  0  0  0
 28 31  1  0  0  0  0
 30 29  1  0  0  0  0
 31 33  1  0  0  0  0
 33 32  2  0  0  0  0
 33 34  1  0  0  0  0
 35 17  1  0  0  0  0
 36 35  1  0  0  0  0
 37 53  1  6  0  0  0
 39 49  1  0  0  0  0
 39 45  1  0  0  0  0
 40 46  1  0  0  0  0
 42 40  1  0  0  0  0
 42 48  1  0  0  0  0
 42 46  1  0  0  0  0
 43 47  2  0  0  0  0
 43 52  1  0  0  0  0
 44 37  1  0  0  0  0
 44 40  1  0  0  0  0
 45 50  1  0  0  0  0
 46 51  1  0  0  0  0
 48 43  1  0  0  0  0
 49 44  1  0  0  0  0
 50 42  1  0  0  0  0
 51 38  1  0  0  0  0
 51 52  1  0  0  0  0
 51 41  1  0  0  0  0
 53 54  1  0  0  0  0
 55 54  1  0  0  0  0
M  END
>  <MODEL>
7

>  <REMARK>
 VINA RESULT:      -6.1      3.247      7.754
  Name = 
  15 active torsions:
  status: ('A' for Active; 'I' for Inactive)
    1  A    between atoms: C_1  and  C_21
    2  A    between atoms: C_2  and  C_22
    3  A    between atoms: C_2  and  C_24
    4  A    between atoms: C_2  and  C_26
    5  A    between atoms: C_4  and  C_6
    6  A    between atoms: C_4  and  C_11
    7  A    between atoms: C_4  and  C_18
    8  A    between atoms: C_7  and  C_32
    9  A    between atoms: C_7  and  C_48
   10  A    between atoms: C_17  and  C_49
   11  A    between atoms: C_18  and  C_38
   12  A    between atoms: C_24  and  C_34
   13  A    between atoms: C_32  and  N_33
   14  A    between atoms: C_32  and  O_40
   15  A    between atoms: C_39  and  C_50
                            x       y       z     vdW  Elec       q    Type
                         _______ _______ _______ _____ _____    ______ ____

>  <TORSDO>
F 15

$$$$
=
 OpenBabel11062421313D

 55 63  0  0  1  0  0  0  0  0999 V2000
  187.4400  176.4060  141.1400 C   0  0  0  0  0  3  0  0  0  0  0  0
  190.3820  173.7600  143.6650 C   0  0  2  0  0  3  0  0  0  0  0  0
  189.0550  174.8940  142.0860 C   0  0  0  0  0  0  0  0  0  0  0  0
  188.1510  175.2000  141.0660 C   0  0  0  0  0  3  0  0  0  0  0  0
  188.5480  176.9530  143.2370 C   0  0  0  0  0  3  0  0  0  0  0  0
  189.9380  173.7000  142.1740 C   0  0  1  0  0  3  0  0  0  0  0  0
  187.6460  177.2950  142.2140 C   0  0  0  0  0  0  0  0  0  0  0  0
  190.2370  175.2270  144.1000 C   0  0  0  0  0  2  0  0  0  0  0  0
  189.2420  175.7470  143.1450 C   0  0  0  0  0  0  0  0  0  0  0  0
  186.3250  178.7530  143.7090 C   0  0  0  0  0  2  0  0  0  0  0  0
  185.3900  178.2670  142.6260 C   0  0  0  0  0  2  0  0  0  0  0  0
  186.8450  178.5600  142.2940 C   0  0  0  0  0  3  0  0  0  0  0  0
  191.1100  173.8920  141.2030 C   0  0  2  0  0  3  0  0  0  0  0  0
  190.8430  173.1100  139.9280 C   0  0  2  0  0  3  0  0  0  0  0  0
  191.8150  172.5740  140.9510 C   0  0  0  0  0  2  0  0  0  0  0  0
  191.6030  173.7590  138.7910 C   0  0  0  0  0  2  0  0  0  0  0  0
  191.0580  173.2680  137.4580 C   0  0  2  0  0  3  0  0  0  0  0  0
  192.6730  171.4830  136.5510 C   0  0  2  0  0  3  0  0  0  0  0  0
  193.3750  172.5430  137.2880 C   0  0  2  0  0  3  0  0  0  0  0  0
  192.1560  172.8840  136.5310 N   0  0  0  0  0  0  0  0  0  0  0  0
  190.0690  169.0010  137.7860 C   0  0  0  0  0  3  0  0  0  0  0  0
  191.8310  169.1300  139.4400 C   0  0  0  0  0  0  0  0  0  0  0  0
  192.4990  170.0740  138.6540 C   0  0  0  0  0  3  0  0  0  0  0  0
  191.9390  170.5110  137.4410 C   0  0  0  0  0  0  0  0  0  0  0  0
  192.3700  168.7260  140.6170 F   0  0  0  0  0  0  0  0  0  0  0  0
  190.7350  169.9470  137.0010 C   0  0  0  0  0  3  0  0  0  0  0  0
  190.6140  168.5960  139.0080 C   0  0  0  0  0  3  0  0  0  0  0  0
  194.6060  172.9730  136.5080 C   0  0  1  0  0  3  0  0  0  0  0  0
  195.4960  174.7650  135.1550 O   0  0  0  0  0  1  0  0  0  0  0  0
  194.3150  174.2170  135.6670 C   0  0  0  0  0  2  0  0  0  0  0  0
  195.7690  173.2040  137.4680 C   0  0  0  0  0  2  0  0  0  0  0  0
  195.2050  175.2620  138.5320 O   0  0  0  0  0  0  0  0  0  0  0  0
  195.3380  174.0150  138.6420 C   0  0  0  0  0  0  0  0  0  0  0  0
  195.0520  173.3910  139.8490 O   0  0  0  0  0  1  0  0  0  0  0  0
  190.1250  174.1730  136.9290 O   0  0  0  0  0  0  0  0  0  0  0  0
  189.3450  173.4160  136.0540 C   0  0  0  0  0  1  0  0  0  0  0  0
  191.7320  173.0840  144.0230 C   0  0  1  0  0  3  0  0  0  0  0  0
  196.9150  174.1500  144.4030 O   0  0  0  0  0  1  0  0  0  0  0  0
  192.7660  175.6640  146.8870 C   0  0  0  0  0  2  0  0  0  0  0  0
  194.0040  173.8820  145.0250 C   0  0  1  0  0  3  0  0  0  0  0  0
  196.5010  172.8350  142.6030 O   0  0  0  0  0  1  0  0  0  0  0  0
  194.1800  175.1890  144.2430 C   0  0  1  0  0  0  0  0  0  0  0  0
  195.1540  176.0190  142.1650 C   0  0  0  0  0  0  0  0  0  0  0  0
  192.4900  173.6910  145.2390 C   0  0  1  0  0  3  0  0  0  0  0  0
  193.5570  176.8020  146.2270 C   0  0  0  0  0  2  0  0  0  0  0  0
  194.6190  173.8130  143.6720 C   0  0  1  0  0  3  0  0  0  0  0  0
  195.2900  176.9420  141.3210 O   0  0  0  0  0  0  0  0  0  0  0  0
  193.8490  175.8660  142.9190 C   0  0  0  0  0  2  0  0  0  0  0  0
  191.8540  174.9500  145.8750 C   0  0  0  0  0  2  0  0  0  0  0  0
  195.1030  176.2450  145.4040 S   0  0  0  0  0  0  0  0  0  0  0  0
  196.0930  173.9800  143.2840 C   0  0  0  0  0  0  0  0  0  0  0  0
  196.2140  175.1120  142.3980 O   0  0  0  0  0  0  0  0  0  0  0  0
  191.5340  171.5760  144.2580 C   0  0  0  0  0  2  0  0  0  0  0  0
  192.6970  170.7240  143.7580 C   0  0  0  0  0  2  0  0  0  0  0  0
  192.6320  169.4440  144.3080 O   0  0  0  0  0  1  0  0  0  0  0  0
  1  7  1  0  0  0  0
  2 37  1  6  0  0  0
  2  8  1  0  0  0  0
  3  9  2  0  0  0  0
  4  1  2  0  0  0  0
  4  3  1  0  0  0  0
  6  3  1  1  0  0  0
  6  2  1  0  0  0  0
  7 12  1  0  0  0  0
  7  5  2  0  0  0  0
  9  5  1  0  0  0  0
  9  8  1  0  0  0  0
 11 10  1  0  0  0  0
 12 11  1  0  0  0  0
 12 10  1  0  0  0  0
 13 15  1  1  0  0  0
 13  6  1  0  0  0  0
 14 16  1  6  0  0  0
 14 15  1  0  0  0  0
 14 13  1  0  0  0  0
 17 16  1  1  0  0  0
 18 19  1  0  0  0  0
 18 24  1  1  0  0  0
 19 28  1  6  0  0  0
 20 18  1  0  0  0  0
 20 19  1  0  0  0  0
 20 17  1  0  0  0  0
 21 27  1  0  0  0  0
 22 25  1  0  0  0  0
 23 22  1  0  0  0  0
 24 23  2  0  0  0  0
 26 24  1  0  0  0  0
 26 21  2  0  0  0  0
 27 22  2  0  0  0  0
 28 30  1  1  0  0  0
 28 31  1  0  0  0  0
 29 30  1  0  0  0  0
 31 33  1  0  0  0  0
 32 33  2  0  0  0  0
 33 34  1  0  0  0  0
 35 17  1  0  0  0  0
 36 35  1  0  0  0  0
 37 53  1  1  0  0  0
 37 44  1  0  0  0  0
 40 44  1  0  0  0  0
 41 51  1  0  0  0  0
 42 40  1  0  0  0  0
 42 50  1  0  0  0  0
 43 52  1  0  0  0  0
 43 48  1  0  0  0  0
 44 49  1  0  0  0  0
 45 39  1  0  0  0  0
 46 42  1  0  0  0  0
 46 40  1  0  0  0  0
 47 43  2  0  0  0  0
 48 42  1  0  0  0  0
 49 39  1  0  0  0  0
 50 45  1  0  0  0  0
 51 46  1  0  0  0  0
 51 38  1  0  0  0  0
 52 51  1  0  0  0  0
 54 53  1  0  0  0  0
 54 55  1  0  0  0  0
M  END
>  <MODEL>
8

>  <REMARK>
 VINA RESULT:      -6.1      3.587      8.563
  Name = 
  15 active torsions:
  status: ('A' for Active; 'I' for Inactive)
    1  A    between atoms: C_1  and  C_21
    2  A    between atoms: C_2  and  C_22
    3  A    between atoms: C_2  and  C_24
    4  A    between atoms: C_2  and  C_26
    5  A    between atoms: C_4  and  C_6
    6  A    between atoms: C_4  and  C_11
    7  A    between atoms: C_4  and  C_18
    8  A    between atoms: C_7  and  C_32
    9  A    between atoms: C_7  and  C_48
   10  A    between atoms: C_17  and  C_49
   11  A    between atoms: C_18  and  C_38
   12  A    between atoms: C_24  and  C_34
   13  A    between atoms: C_32  and  N_33
   14  A    between atoms: C_32  and  O_40
   15  A    between atoms: C_39  and  C_50
                            x       y       z     vdW  Elec       q    Type
                         _______ _______ _______ _____ _____    ______ ____

>  <TORSDO>
F 15

$$$$
=
 OpenBabel11062421313D

 55 63  0  0  1  0  0  0  0  0999 V2000
  190.7980  172.5480  138.4700 C   0  0  0  0  0  3  0  0  0  0  0  0
  195.1370  173.3660  140.0640 C   0  0  2  0  0  3  0  0  0  0  0  0
  192.8410  173.1540  139.5860 C   0  0  0  0  0  0  0  0  0  0  0  0
  191.4980  173.4220  139.3130 C   0  0  0  0  0  3  0  0  0  0  0  0
  192.7940  171.1820  138.1970 C   0  0  0  0  0  3  0  0  0  0  0  0
  193.7450  173.9200  140.4860 C   0  0  1  0  0  3  0  0  0  0  0  0
  191.4350  171.4170  137.9220 C   0  0  0  0  0  0  0  0  0  0  0  0
  194.8810  171.9770  139.4570 C   0  0  0  0  0  2  0  0  0  0  0  0
  193.4710  172.0650  139.0370 C   0  0  0  0  0  0  0  0  0  0  0  0
  191.6320  169.9040  135.9780 C   0  0  0  0  0  2  0  0  0  0  0  0
  190.7300  171.0430  135.5630 C   0  0  0  0  0  2  0  0  0  0  0  0
  190.6780  170.5180  136.9900 C   0  0  0  0  0  3  0  0  0  0  0  0
  193.3890  173.5740  141.9380 C   0  0  2  0  0  3  0  0  0  0  0  0
  192.2380  174.4540  142.3990 C   0  0  2  0  0  3  0  0  0  0  0  0
  193.6470  174.7590  142.8470 C   0  0  0  0  0  2  0  0  0  0  0  0
  191.4930  173.7380  143.5060 C   0  0  0  0  0  2  0  0  0  0  0  0
  190.1910  174.4650  143.8060 C   0  0  2  0  0  3  0  0  0  0  0  0
  189.5970  176.4530  145.3260 C   0  0  2  0  0  3  0  0  0  0  0  0
  191.0450  176.3360  145.1060 C   0  0  2  0  0  3  0  0  0  0  0  0
  190.2250  175.1100  145.1450 N   0  0  0  0  0  0  0  0  0  0  0  0
  188.8820  178.1780  142.0130 C   0  0  0  0  0  3  0  0  0  0  0  0
  186.8150  177.2130  142.8210 C   0  0  0  0  0  0  0  0  0  0  0  0
  187.4810  176.7380  143.9550 C   0  0  0  0  0  3  0  0  0  0  0  0
  188.8480  177.0070  144.1400 C   0  0  0  0  0  0  0  0  0  0  0  0
  185.4920  176.9640  142.6590 F   0  0  0  0  0  0  0  0  0  0  0  0
  189.5480  177.7050  143.1470 C   0  0  0  0  0  3  0  0  0  0  0  0
  187.5140  177.9360  141.8520 C   0  0  0  0  0  3  0  0  0  0  0  0
  191.7740  176.5130  146.4270 C   0  0  1  0  0  3  0  0  0  0  0  0
  191.1910  175.2870  148.4250 O   0  0  0  0  0  1  0  0  0  0  0  0
  190.8150  176.3580  147.6090 C   0  0  0  0  0  2  0  0  0  0  0  0
  192.9330  175.5240  146.5120 C   0  0  0  0  0  2  0  0  0  0  0  0
  194.3730  177.3870  146.8890 O   0  0  0  0  0  1  0  0  0  0  0  0
  194.2430  176.2300  146.4110 C   0  0  0  0  0  0  0  0  0  0  0  0
  195.3270  175.5980  145.8190 O   0  0  0  0  0  0  0  0  0  0  0  0
  189.0840  173.6330  143.5760 O   0  0  0  0  0  0  0  0  0  0  0  0
  188.8050  173.7720  142.2170 C   0  0  0  0  0  1  0  0  0  0  0  0
  196.2700  173.4370  141.1200 C   0  0  1  0  0  3  0  0  0  0  0  0
  197.4950  170.5580  145.4040 O   0  0  0  0  0  1  0  0  0  0  0  0
  197.7200  169.7900  140.4010 C   0  0  0  0  0  2  0  0  0  0  0  0
  197.3490  171.5790  142.5990 C   0  0  1  0  0  3  0  0  0  0  0  0
  196.5030  172.5050  146.0090 O   0  0  0  0  0  1  0  0  0  0  0  0
  196.1210  170.6880  142.8200 C   0  0  1  0  0  0  0  0  0  0  0  0
  194.2550  170.4100  144.3670 C   0  0  0  0  0  0  0  0  0  0  0  0
  197.2050  172.1960  141.1940 C   0  0  1  0  0  3  0  0  0  0  0  0
  196.8420  168.7810  141.1550 C   0  0  0  0  0  2  0  0  0  0  0  0
  196.4190  171.9280  143.7060 C   0  0  1  0  0  3  0  0  0  0  0  0
  193.1470  169.8840  144.6500 O   0  0  0  0  0  0  0  0  0  0  0  0
  194.6010  170.7180  142.9250 C   0  0  0  0  0  2  0  0  0  0  0  0
  196.9640  171.1010  140.1280 C   0  0  0  0  0  2  0  0  0  0  0  0
  196.8410  169.0230  142.9770 S   0  0  0  0  0  0  0  0  0  0  0  0
  196.4170  171.4110  145.1500 C   0  0  0  0  0  0  0  0  0  0  0  0
  195.1700  170.7280  145.3970 O   0  0  0  0  0  0  0  0  0  0  0  0
  197.1280  174.6980  140.9050 C   0  0  0  0  0  2  0  0  0  0  0  0
  196.3130  175.9310  140.5260 C   0  0  0  0  0  2  0  0  0  0  0  0
  196.1960  176.7890  141.6200 O   0  0  0  0  0  1  0  0  0  0  0  0
  1  4  1  0  0  0  0
  2  6  1  0  0  0  0
  2 37  1  1  0  0  0
  4  3  2  0  0  0  0
  5  9  2  0  0  0  0
  6  3  1  6  0  0  0
  6 13  1  0  0  0  0
  7  5  1  0  0  0  0
  7  1  2  0  0  0  0
  8  2  1  0  0  0  0
  9  8  1  0  0  0  0
  9  3  1  0  0  0  0
 10 12  1  0  0  0  0
 11 10  1  0  0  0  0
 11 12  1  0  0  0  0
 12  7  1  0  0  0  0
 13 14  1  0  0  0  0
 13 15  1  1  0  0  0
 14 15  1  0  0  0  0
 14 16  1  1  0  0  0
 17 16  1  1  0  0  0
 17 20  1  0  0  0  0
 18 24  1  6  0  0  0
 19 20  1  0  0  0  0
 19 18  1  0  0  0  0
 19 28  1  1  0  0  0
 20 18  1  0  0  0  0
 21 26  1  0  0  0  0
 22 23  2  0  0  0  0
 23 24  1  0  0  0  0
 25 22  1  0  0  0  0
 26 24  2  0  0  0  0
 27 21  2  0  0  0  0
 27 22  1  0  0  0  0
 28 31  1  1  0  0  0
 28 30  1  0  0  0  0
 30 29  1  0  0  0  0
 33 31  1  0  0  0  0
 33 32  1  0  0  0  0
 34 33  2  0  0  0  0
 35 17  1  0  0  0  0
 36 35  1  0  0  0  0
 37 53  1  6  0  0  0
 37 44  1  0  0  0  0
 39 45  1  0  0  0  0
 40 42  1  0  0  0  0
 40 46  1  0  0  0  0
 42 48  1  0  0  0  0
 42 50  1  0  0  0  0
 42 46  1  0  0  0  0
 43 47  2  0  0  0  0
 43 52  1  0  0  0  0
 44 40  1  0  0  0  0
 45 50  1  0  0  0  0
 46 51  1  0  0  0  0
 48 43  1  0  0  0  0
 49 39  1  0  0  0  0
 49 44  1  0  0  0  0
 51 52  1  0  0  0  0
 51 38  1  0  0  0  0
 51 41  1  0  0  0  0
 54 53  1  0  0  0  0
 54 55  1  0  0  0  0
M  END
>  <MODEL>
9

>  <REMARK>
 VINA RESULT:      -6.1      3.583      7.444
  Name = 
  15 active torsions:
  status: ('A' for Active; 'I' for Inactive)
    1  A    between atoms: C_1  and  C_21
    2  A    between atoms: C_2  and  C_22
    3  A    between atoms: C_2  and  C_24
    4  A    between atoms: C_2  and  C_26
    5  A    between atoms: C_4  and  C_6
    6  A    between atoms: C_4  and  C_11
    7  A    between atoms: C_4  and  C_18
    8  A    between atoms: C_7  and  C_32
    9  A    between atoms: C_7  and  C_48
   10  A    between atoms: C_17  and  C_49
   11  A    between atoms: C_18  and  C_38
   12  A    between atoms: C_24  and  C_34
   13  A    between atoms: C_32  and  N_33
   14  A    between atoms: C_32  and  O_40
   15  A    between atoms: C_39  and  C_50
                            x       y       z     vdW  Elec       q    Type
                         _______ _______ _______ _____ _____    ______ ____

>  <TORSDO>
F 15

$$$$
