=
 OpenBabel11072409253D

 39 41  0  0  1  0  0  0  0  0999 V2000
  191.0640  176.4200  146.3770 C   0  0  2  0  0  3  0  0  0  0  0  0
  190.6520  175.5630  147.5610 C   0  0  0  0  0  2  0  0  0  0  0  0
  189.8520  176.8080  147.2310 C   0  0  2  0  0  3  0  0  0  0  0  0
  188.5160  176.4240  146.5980 C   0  0  0  0  0  2  0  0  0  0  0  0
  185.8940  178.5570  145.1760 C   0  0  0  0  0  0  0  0  0  0  0  0
  185.1640  178.0200  147.5360 C   0  0  0  0  0  2  0  0  0  0  0  0
  184.7270  178.3130  146.1020 C   0  0  0  0  0  2  0  0  0  0  0  0
  186.2610  176.9640  147.5300 C   0  0  0  0  0  2  0  0  0  0  0  0
  187.1350  178.1300  145.4800 C   0  0  0  0  0  3  0  0  0  0  0  0
  187.4880  177.5210  146.8100 C   0  0  2  0  0  3  0  0  0  0  0  0
  185.5900  180.5360  143.9080 O   0  0  0  0  0  1  0  0  0  0  0  0
  185.6160  179.1440  143.8270 C   0  0  1  0  0  3  0  0  0  0  0  0
  186.6390  178.7220  142.8700 N   0  0  0  0  0  2  0  0  0  0  0  0
  186.0900  177.8000  141.8680 C   0  0  0  0  0  0  0  0  0  0  0  0
  184.9210  178.4730  141.1290 C   0  0  0  0  0  2  0  0  0  0  0  0
  183.7130  177.8320  141.4130 O   0  0  0  0  0  1  0  0  0  0  0  0
  186.6590  177.1380  139.6240 O   0  0  0  0  0  1  0  0  0  0  0  0
  187.2030  177.4910  140.8620 C   0  0  0  0  0  2  0  0  0  0  0  0
  185.6600  176.6100  142.5050 O   0  0  0  0  0  0  0  0  0  0  0  0
  186.7360  175.8990  142.7920 O   0  0  0  0  0  1  0  0  0  0  0  0
  190.6900  175.7830  145.1840 O   0  0  0  0  0  0  0  0  0  0  0  0
  191.8320  175.8110  144.3750 C   0  0  2  0  0  3  0  0  0  0  0  0
  192.8450  176.7440  144.9500 C   0  0  0  0  0  3  0  0  0  0  0  0
  195.3250  175.9530  145.1320 C   0  0  0  0  0  3  0  0  0  0  0  0
  194.0880  176.3600  145.0470 C   0  0  0  0  0  0  0  0  0  0  0  0
  196.0260  175.3590  143.9510 C   0  0  2  0  0  3  0  0  0  0  0  0
  197.2170  174.6340  144.3730 N   0  0  0  0  0  2  0  0  0  0  0  0
  196.8970  173.9860  145.6340 C   0  0  0  0  0  1  0  0  0  0  0  0
  197.3020  177.2250  143.2580 O   0  0  0  0  0  0  0  0  0  0  0  0
  196.3990  176.4470  142.9850 C   0  0  0  0  0  0  0  0  0  0  0  0
  196.3700  175.6470  140.6280 C   0  0  0  0  0  2  0  0  0  0  0  0
  195.7120  176.5530  141.6550 C   0  0  0  0  0  3  0  0  0  0  0  0
  195.0910  175.2120  141.3040 C   0  0  0  0  0  2  0  0  0  0  0  0
  191.4850  176.2050  142.9400 C   0  0  2  0  0  3  0  0  0  0  0  0
  190.1930  177.0170  142.8700 C   0  0  0  0  0  1  0  0  0  0  0  0
  191.3880  174.9630  142.0670 C   0  0  0  0  0  2  0  0  0  0  0  0
  189.9830  174.3800  142.0910 C   0  0  0  0  0  2  0  0  0  0  0  0
  189.4840  174.1340  140.6800 C   0  0  0  0  0  2  0  0  0  0  0  0
  188.1600  173.6950  140.7240 O   0  0  0  0  0  1  0  0  0  0  0  0
  1 21  1  6  0  0  0
  1  3  1  0  0  0  0
  1  2  1  0  0  0  0
  3  4  1  6  0  0  0
  3  2  1  0  0  0  0
  5  9  2  0  0  0  0
  5  7  1  0  0  0  0
  7  6  1  0  0  0  0
  8  6  1  0  0  0  0
  9 10  1  0  0  0  0
 10  4  1  6  0  0  0
 10  8  1  0  0  0  0
 12 11  1  1  0  0  0
 12  5  1  0  0  0  0
 13 12  1  0  0  0  0
 14 19  1  0  0  0  0
 14 13  1  0  0  0  0
 15 16  1  0  0  0  0
 15 14  1  0  0  0  0
 17 18  1  0  0  0  0
 18 14  1  0  0  0  0
 19 20  1  0  0  0  0
 22 23  1  1  0  0  0
 22 21  1  0  0  0  0
 23 25  2  0  0  0  0
 25 24  2  0  0  0  0
 26 27  1  0  0  0  0
 26 24  1  1  0  0  0
 27 28  1  0  0  0  0
 30 29  2  0  0  0  0
 30 26  1  0  0  0  0
 31 33  1  0  0  0  0
 31 32  1  0  0  0  0
 32 30  1  0  0  0  0
 33 32  1  0  0  0  0
 34 35  1  1  0  0  0
 34 22  1  0  0  0  0
 36 37  1  0  0  0  0
 36 34  1  0  0  0  0
 38 39  1  0  0  0  0
 38 37  1  0  0  0  0
M  END
>  <MODEL>
1

>  <REMARK>
 VINA RESULT:      -6.4      0.000      0.000
  Name = 
  19 active torsions:
  status: ('A' for Active; 'I' for Inactive)
    1  A    between atoms: C_1  and  C_6
    2  A    between atoms: C_1  and  O_21
    3  A    between atoms: C_1  and  N_32
    4  A    between atoms: C_1  and  C_36
    5  A    between atoms: C_2  and  C_31
    6  A    between atoms: C_4  and  C_12
    7  A    between atoms: C_5  and  C_35
    8  A    between atoms: C_8  and  C_16
    9  A    between atoms: N_10  and  C_12
   10  A    between atoms: C_12  and  C_34
   11  A    between atoms: C_14  and  O_19
   12  A    between atoms: C_16  and  C_26
   13  A    between atoms: C_17  and  C_26
   14  A    between atoms: C_17  and  C_31
   15  A    between atoms: O_19  and  C_31
   16  A    between atoms: C_20  and  C_24
   17  A    between atoms: C_20  and  C_30
   18  A    between atoms: C_28  and  C_34
   19  A    between atoms: N_32  and  C_35
                            x       y       z     vdW  Elec       q    Type
                         _______ _______ _______ _____ _____    ______ ____

>  <TORSDO>
F 19

$$$$
=
 OpenBabel11072409253D

 39 41  0  0  1  0  0  0  0  0999 V2000
  191.0160  176.0270  146.2800 C   0  0  2  0  0  3  0  0  0  0  0  0
  190.4430  175.5040  147.5850 C   0  0  0  0  0  2  0  0  0  0  0  0
  189.8520  176.7530  146.9630 C   0  0  2  0  0  3  0  0  0  0  0  0
  188.4930  176.4410  146.3400 C   0  0  0  0  0  2  0  0  0  0  0  0
  185.8020  178.6570  145.2020 C   0  0  0  0  0  0  0  0  0  0  0  0
  185.2160  177.9930  147.5700 C   0  0  0  0  0  2  0  0  0  0  0  0
  184.6920  178.3660  146.1850 C   0  0  0  0  0  2  0  0  0  0  0  0
  186.3040  176.9360  147.4380 C   0  0  0  0  0  2  0  0  0  0  0  0
  187.0560  178.2110  145.4050 C   0  0  0  0  0  3  0  0  0  0  0  0
  187.4880  177.5280  146.6760 C   0  0  2  0  0  3  0  0  0  0  0  0
  185.4460  180.7050  144.0640 O   0  0  0  0  0  1  0  0  0  0  0  0
  185.4450  179.3190  143.9070 C   0  0  1  0  0  3  0  0  0  0  0  0
  186.3960  178.9360  142.8640 N   0  0  0  0  0  2  0  0  0  0  0  0
  185.7990  177.9890  141.9150 C   0  0  0  0  0  0  0  0  0  0  0  0
  186.5200  176.6330  142.0120 C   0  0  0  0  0  2  0  0  0  0  0  0
  186.0660  175.9020  143.1130 O   0  0  0  0  0  1  0  0  0  0  0  0
  183.4890  178.3240  141.3220 O   0  0  0  0  0  1  0  0  0  0  0  0
  184.3310  177.8000  142.3080 C   0  0  0  0  0  2  0  0  0  0  0  0
  185.8930  178.5120  140.6010 O   0  0  0  0  0  0  0  0  0  0  0  0
  185.8140  177.4960  139.7610 O   0  0  0  0  0  1  0  0  0  0  0  0
  190.5860  175.2160  145.2190 O   0  0  0  0  0  0  0  0  0  0  0  0
  191.4160  175.5440  144.1410 C   0  0  2  0  0  3  0  0  0  0  0  0
  192.3020  176.6890  144.5050 C   0  0  0  0  0  3  0  0  0  0  0  0
  194.8310  176.2310  144.9540 C   0  0  0  0  0  3  0  0  0  0  0  0
  193.5670  176.4720  144.7320 C   0  0  0  0  0  0  0  0  0  0  0  0
  195.6510  175.4520  143.9750 C   0  0  2  0  0  3  0  0  0  0  0  0
  195.2670  175.7790  142.6080 N   0  0  0  0  0  2  0  0  0  0  0  0
  196.3180  176.6180  142.0580 C   0  0  0  0  0  1  0  0  0  0  0  0
  195.9070  173.1690  143.4210 O   0  0  0  0  0  0  0  0  0  0  0  0
  195.4730  173.9820  144.2240 C   0  0  0  0  0  0  0  0  0  0  0  0
  193.5330  172.7460  145.1760 C   0  0  0  0  0  2  0  0  0  0  0  0
  194.8180  173.4960  145.4830 C   0  0  0  0  0  3  0  0  0  0  0  0
  194.7970  171.9770  145.4840 C   0  0  0  0  0  2  0  0  0  0  0  0
  190.5990  175.8680  142.8910 C   0  0  2  0  0  3  0  0  0  0  0  0
  190.0600  177.2960  142.9180 C   0  0  0  0  0  1  0  0  0  0  0  0
  189.4620  174.8670  142.7380 C   0  0  0  0  0  2  0  0  0  0  0  0
  189.4020  174.3150  141.3220 C   0  0  0  0  0  2  0  0  0  0  0  0
  188.3830  173.1940  141.2300 C   0  0  0  0  0  2  0  0  0  0  0  0
  188.4710  172.5860  139.9780 O   0  0  0  0  0  1  0  0  0  0  0  0
  1 21  1  6  0  0  0
  1  3  1  0  0  0  0
  1  2  1  0  0  0  0
  3  4  1  6  0  0  0
  3  2  1  0  0  0  0
  5  9  2  0  0  0  0
  5  7  1  0  0  0  0
  7  6  1  0  0  0  0
  8  6  1  0  0  0  0
  9 10  1  0  0  0  0
 10  4  1  6  0  0  0
 10  8  1  0  0  0  0
 12 11  1  1  0  0  0
 12  5  1  0  0  0  0
 13 12  1  0  0  0  0
 14 15  1  0  0  0  0
 14 18  1  0  0  0  0
 14 13  1  0  0  0  0
 15 16  1  0  0  0  0
 17 18  1  0  0  0  0
 19 14  1  0  0  0  0
 20 19  1  0  0  0  0
 22 23  1  1  0  0  0
 22 21  1  0  0  0  0
 23 25  2  0  0  0  0
 25 24  2  0  0  0  0
 26 30  1  0  0  0  0
 26 24  1  1  0  0  0
 27 26  1  0  0  0  0
 28 27  1  0  0  0  0
 29 30  2  0  0  0  0
 30 32  1  0  0  0  0
 31 32  1  0  0  0  0
 31 33  1  0  0  0  0
 32 33  1  0  0  0  0
 34 35  1  1  0  0  0
 34 22  1  0  0  0  0
 36 34  1  0  0  0  0
 37 36  1  0  0  0  0
 38 37  1  0  0  0  0
 39 38  1  0  0  0  0
M  END
>  <MODEL>
2

>  <REMARK>
 VINA RESULT:      -6.0      1.376      2.385
  Name = 
  19 active torsions:
  status: ('A' for Active; 'I' for Inactive)
    1  A    between atoms: C_1  and  C_6
    2  A    between atoms: C_1  and  O_21
    3  A    between atoms: C_1  and  N_32
    4  A    between atoms: C_1  and  C_36
    5  A    between atoms: C_2  and  C_31
    6  A    between atoms: C_4  and  C_12
    7  A    between atoms: C_5  and  C_35
    8  A    between atoms: C_8  and  C_16
    9  A    between atoms: N_10  and  C_12
   10  A    between atoms: C_12  and  C_34
   11  A    between atoms: C_14  and  O_19
   12  A    between atoms: C_16  and  C_26
   13  A    between atoms: C_17  and  C_26
   14  A    between atoms: C_17  and  C_31
   15  A    between atoms: O_19  and  C_31
   16  A    between atoms: C_20  and  C_24
   17  A    between atoms: C_20  and  C_30
   18  A    between atoms: C_28  and  C_34
   19  A    between atoms: N_32  and  C_35
                            x       y       z     vdW  Elec       q    Type
                         _______ _______ _______ _____ _____    ______ ____

>  <TORSDO>
F 19

$$$$
=
 OpenBabel11072409253D

 39 41  0  0  1  0  0  0  0  0999 V2000
  194.4340  175.9980  145.1710 C   0  0  2  0  0  3  0  0  0  0  0  0
  194.5490  177.4100  145.7160 C   0  0  0  0  0  2  0  0  0  0  0  0
  193.1860  176.7510  145.6410 C   0  0  2  0  0  3  0  0  0  0  0  0
  192.7200  176.3420  147.0360 C   0  0  0  0  0  2  0  0  0  0  0  0
  189.5050  176.8840  145.3580 C   0  0  0  0  0  0  0  0  0  0  0  0
  189.1040  175.0810  147.0840 C   0  0  0  0  0  2  0  0  0  0  0  0
  188.7290  175.6370  145.7120 C   0  0  0  0  0  2  0  0  0  0  0  0
  190.6200  174.9970  147.2050 C   0  0  0  0  0  2  0  0  0  0  0  0
  190.6670  177.1860  145.9670 C   0  0  0  0  0  3  0  0  0  0  0  0
  191.2070  176.4060  147.1360 C   0  0  2  0  0  3  0  0  0  0  0  0
  190.1270  178.0780  143.4070 O   0  0  0  0  0  1  0  0  0  0  0  0
  189.0380  177.7010  144.1930 C   0  0  1  0  0  3  0  0  0  0  0  0
  188.0850  176.9360  143.3880 N   0  0  0  0  0  2  0  0  0  0  0  0
  186.8000  177.6350  143.2700 C   0  0  0  0  0  0  0  0  0  0  0  0
  186.5750  178.0670  141.8110 C   0  0  0  0  0  2  0  0  0  0  0  0
  187.6740  177.7320  141.0140 O   0  0  0  0  0  1  0  0  0  0  0  0
  185.5080  176.6660  145.0570 O   0  0  0  0  0  1  0  0  0  0  0  0
  185.6970  176.6510  143.6720 C   0  0  0  0  0  2  0  0  0  0  0  0
  186.7910  178.7600  144.1310 O   0  0  0  0  0  0  0  0  0  0  0  0
  185.9440  179.6400  143.6290 O   0  0  0  0  0  1  0  0  0  0  0  0
  194.8960  175.0840  146.1310 O   0  0  0  0  0  0  0  0  0  0  0  0
  195.3250  173.9670  145.4040 C   0  0  2  0  0  3  0  0  0  0  0  0
  194.3780  172.8310  145.6010 C   0  0  0  0  0  3  0  0  0  0  0  0
  191.9700  173.0140  144.6140 C   0  0  0  0  0  3  0  0  0  0  0  0
  193.1720  172.9110  145.1130 C   0  0  0  0  0  0  0  0  0  0  0  0
  191.7580  173.4020  143.1840 C   0  0  2  0  0  3  0  0  0  0  0  0
  190.3630  173.7500  142.9490 N   0  0  0  0  0  2  0  0  0  0  0  0
  190.3490  174.7920  141.9360 C   0  0  0  0  0  1  0  0  0  0  0  0
  191.4180  171.3150  142.1290 O   0  0  0  0  0  0  0  0  0  0  0  0
  192.1650  172.2690  142.2870 C   0  0  0  0  0  0  0  0  0  0  0  0
  193.3390  173.2130  140.3050 C   0  0  0  0  0  2  0  0  0  0  0  0
  193.4610  172.3240  141.5310 C   0  0  0  0  0  3  0  0  0  0  0  0
  193.9960  173.7460  141.5570 C   0  0  0  0  0  2  0  0  0  0  0  0
  196.7450  173.5630  145.7980 C   0  0  2  0  0  3  0  0  0  0  0  0
  197.7790  174.0580  144.7890 C   0  0  0  0  0  1  0  0  0  0  0  0
  196.8310  172.0520  145.9590 C   0  0  0  0  0  2  0  0  0  0  0  0
  197.6890  171.4300  144.8680 C   0  0  0  0  0  2  0  0  0  0  0  0
  196.8900  170.4100  144.0790 C   0  0  0  0  0  2  0  0  0  0  0  0
  196.0540  169.7030  144.9440 O   0  0  0  0  0  1  0  0  0  0  0  0
  1  3  1  0  0  0  0
  1  2  1  0  0  0  0
  1 21  1  1  0  0  0
  3  2  1  0  0  0  0
  3  4  1  1  0  0  0
  5  7  1  0  0  0  0
  5  9  2  0  0  0  0
  6  8  1  0  0  0  0
  7  6  1  0  0  0  0
  9 10  1  0  0  0  0
 10  4  1  6  0  0  0
 10  8  1  0  0  0  0
 12 11  1  6  0  0  0
 12  5  1  0  0  0  0
 13 12  1  0  0  0  0
 14 13  1  0  0  0  0
 14 18  1  0  0  0  0
 14 19  1  0  0  0  0
 15 14  1  0  0  0  0
 16 15  1  0  0  0  0
 18 17  1  0  0  0  0
 20 19  1  0  0  0  0
 22 23  1  1  0  0  0
 22 34  1  0  0  0  0
 22 21  1  0  0  0  0
 24 25  2  0  0  0  0
 25 23  2  0  0  0  0
 26 24  1  1  0  0  0
 27 26  1  0  0  0  0
 28 27  1  0  0  0  0
 29 30  2  0  0  0  0
 30 26  1  0  0  0  0
 31 32  1  0  0  0  0
 31 33  1  0  0  0  0
 32 33  1  0  0  0  0
 32 30  1  0  0  0  0
 34 35  1  6  0  0  0
 34 36  1  0  0  0  0
 37 36  1  0  0  0  0
 38 37  1  0  0  0  0
 38 39  1  0  0  0  0
M  END
>  <MODEL>
3

>  <REMARK>
 VINA RESULT:      -5.9      2.697      5.307
  Name = 
  19 active torsions:
  status: ('A' for Active; 'I' for Inactive)
    1  A    between atoms: C_1  and  C_6
    2  A    between atoms: C_1  and  O_21
    3  A    between atoms: C_1  and  N_32
    4  A    between atoms: C_1  and  C_36
    5  A    between atoms: C_2  and  C_31
    6  A    between atoms: C_4  and  C_12
    7  A    between atoms: C_5  and  C_35
    8  A    between atoms: C_8  and  C_16
    9  A    between atoms: N_10  and  C_12
   10  A    between atoms: C_12  and  C_34
   11  A    between atoms: C_14  and  O_19
   12  A    between atoms: C_16  and  C_26
   13  A    between atoms: C_17  and  C_26
   14  A    between atoms: C_17  and  C_31
   15  A    between atoms: O_19  and  C_31
   16  A    between atoms: C_20  and  C_24
   17  A    between atoms: C_20  and  C_30
   18  A    between atoms: C_28  and  C_34
   19  A    between atoms: N_32  and  C_35
                            x       y       z     vdW  Elec       q    Type
                         _______ _______ _______ _____ _____    ______ ____

>  <TORSDO>
F 19

$$$$
=
 OpenBabel11072409253D

 39 41  0  0  1  0  0  0  0  0999 V2000
  191.4510  176.1480  146.6320 C   0  0  2  0  0  3  0  0  0  0  0  0
  190.9110  175.8470  148.0190 C   0  0  0  0  0  2  0  0  0  0  0  0
  190.1820  176.8410  147.1360 C   0  0  2  0  0  3  0  0  0  0  0  0
  188.8960  176.2220  146.5940 C   0  0  0  0  0  2  0  0  0  0  0  0
  185.9500  177.5490  144.8590 C   0  0  0  0  0  0  0  0  0  0  0  0
  185.4940  177.8180  147.3310 C   0  0  0  0  0  2  0  0  0  0  0  0
  184.9020  177.5650  145.9460 C   0  0  0  0  0  2  0  0  0  0  0  0
  186.6890  176.9010  147.5510 C   0  0  0  0  0  2  0  0  0  0  0  0
  187.2510  177.3380  145.1390 C   0  0  0  0  0  3  0  0  0  0  0  0
  187.7830  177.2530  146.5450 C   0  0  2  0  0  3  0  0  0  0  0  0
  184.2480  178.2350  143.3600 O   0  0  0  0  0  1  0  0  0  0  0  0
  185.4940  177.6110  143.4350 C   0  0  1  0  0  3  0  0  0  0  0  0
  186.4650  178.3440  142.6230 N   0  0  0  0  0  2  0  0  0  0  0  0
  186.9370  177.5370  141.4910 C   0  0  0  0  0  0  0  0  0  0  0  0
  187.0350  176.0600  141.9110 C   0  0  0  0  0  2  0  0  0  0  0  0
  187.9800  175.3810  141.1380 O   0  0  0  0  0  1  0  0  0  0  0  0
  186.5090  177.4680  139.1220 O   0  0  0  0  0  1  0  0  0  0  0  0
  185.9050  177.6660  140.3670 C   0  0  0  0  0  2  0  0  0  0  0  0
  188.1970  178.0190  141.0580 O   0  0  0  0  0  0  0  0  0  0  0  0
  188.8770  178.3770  142.1330 O   0  0  0  0  0  1  0  0  0  0  0  0
  191.1650  175.0750  145.7740 O   0  0  0  0  0  0  0  0  0  0  0  0
  192.3760  174.7750  145.1380 C   0  0  2  0  0  3  0  0  0  0  0  0
  193.4520  175.6850  145.6290 C   0  0  0  0  0  3  0  0  0  0  0  0
  195.9080  174.8070  145.6980 C   0  0  0  0  0  3  0  0  0  0  0  0
  194.6830  175.2570  145.6690 C   0  0  0  0  0  0  0  0  0  0  0  0
  196.5200  174.1560  144.4980 C   0  0  2  0  0  3  0  0  0  0  0  0
  196.5600  175.0830  143.3750 N   0  0  0  0  0  2  0  0  0  0  0  0
  197.9410  175.1520  142.9270 C   0  0  0  0  0  1  0  0  0  0  0  0
  195.1990  172.8550  143.0320 O   0  0  0  0  0  0  0  0  0  0  0  0
  195.7320  172.9320  144.1290 C   0  0  0  0  0  0  0  0  0  0  0  0
  194.2270  171.6130  145.6110 C   0  0  0  0  0  2  0  0  0  0  0  0
  195.6400  171.7710  145.0760 C   0  0  0  0  0  3  0  0  0  0  0  0
  194.7110  170.7210  144.4920 C   0  0  0  0  0  2  0  0  0  0  0  0
  192.2410  174.8660  143.6190 C   0  0  2  0  0  3  0  0  0  0  0  0
  191.1930  175.8950  143.2010 C   0  0  0  0  0  1  0  0  0  0  0  0
  191.9110  173.4970  143.0420 C   0  0  0  0  0  2  0  0  0  0  0  0
  190.4240  173.3690  142.7430 C   0  0  0  0  0  2  0  0  0  0  0  0
  189.7560  172.4480  143.7460 C   0  0  0  0  0  2  0  0  0  0  0  0
  190.7310  171.7430  144.4520 O   0  0  0  0  0  1  0  0  0  0  0  0
  1 21  1  6  0  0  0
  1  3  1  0  0  0  0
  1  2  1  0  0  0  0
  3  4  1  6  0  0  0
  3  2  1  0  0  0  0
  5  9  2  0  0  0  0
  5  7  1  0  0  0  0
  6  8  1  0  0  0  0
  7  6  1  0  0  0  0
  9 10  1  0  0  0  0
 10  4  1  6  0  0  0
 10  8  1  0  0  0  0
 12 11  1  1  0  0  0
 12  5  1  0  0  0  0
 13 12  1  0  0  0  0
 14 15  1  0  0  0  0
 14 13  1  0  0  0  0
 16 15  1  0  0  0  0
 17 18  1  0  0  0  0
 18 14  1  0  0  0  0
 19 14  1  0  0  0  0
 19 20  1  0  0  0  0
 22 23  1  1  0  0  0
 22 21  1  0  0  0  0
 23 25  2  0  0  0  0
 25 24  2  0  0  0  0
 26 24  1  1  0  0  0
 27 26  1  0  0  0  0
 28 27  1  0  0  0  0
 29 30  2  0  0  0  0
 30 26  1  0  0  0  0
 30 32  1  0  0  0  0
 32 31  1  0  0  0  0
 33 32  1  0  0  0  0
 33 31  1  0  0  0  0
 34 35  1  1  0  0  0
 34 22  1  0  0  0  0
 36 34  1  0  0  0  0
 37 36  1  0  0  0  0
 37 38  1  0  0  0  0
 38 39  1  0  0  0  0
M  END
>  <MODEL>
4

>  <REMARK>
 VINA RESULT:      -5.9      1.932      2.736
  Name = 
  19 active torsions:
  status: ('A' for Active; 'I' for Inactive)
    1  A    between atoms: C_1  and  C_6
    2  A    between atoms: C_1  and  O_21
    3  A    between atoms: C_1  and  N_32
    4  A    between atoms: C_1  and  C_36
    5  A    between atoms: C_2  and  C_31
    6  A    between atoms: C_4  and  C_12
    7  A    between atoms: C_5  and  C_35
    8  A    between atoms: C_8  and  C_16
    9  A    between atoms: N_10  and  C_12
   10  A    between atoms: C_12  and  C_34
   11  A    between atoms: C_14  and  O_19
   12  A    between atoms: C_16  and  C_26
   13  A    between atoms: C_17  and  C_26
   14  A    between atoms: C_17  and  C_31
   15  A    between atoms: O_19  and  C_31
   16  A    between atoms: C_20  and  C_24
   17  A    between atoms: C_20  and  C_30
   18  A    between atoms: C_28  and  C_34
   19  A    between atoms: N_32  and  C_35
                            x       y       z     vdW  Elec       q    Type
                         _______ _______ _______ _____ _____    ______ ____

>  <TORSDO>
F 19

$$$$
=
 OpenBabel11072409253D

 39 41  0  0  1  0  0  0  0  0999 V2000
  188.7400  177.3410  144.0180 C   0  0  2  0  0  3  0  0  0  0  0  0
  188.6410  177.8160  142.5790 C   0  0  0  0  0  2  0  0  0  0  0  0
  189.0450  176.3830  142.8620 C   0  0  2  0  0  3  0  0  0  0  0  0
  187.8930  175.4350  142.5390 C   0  0  0  0  0  2  0  0  0  0  0  0
  190.5040  173.3460  141.0330 C   0  0  0  0  0  0  0  0  0  0  0  0
  189.7260  172.1200  143.1030 C   0  0  0  0  0  2  0  0  0  0  0  0
  190.8940  172.4290  142.1680 C   0  0  0  0  0  2  0  0  0  0  0  0
  189.0200  173.4150  143.4840 C   0  0  0  0  0  2  0  0  0  0  0  0
  189.4090  174.1260  141.1030 C   0  0  0  0  0  3  0  0  0  0  0  0
  188.4140  174.0430  142.2300 C   0  0  2  0  0  3  0  0  0  0  0  0
  192.7520  173.6780  140.3600 O   0  0  0  0  0  1  0  0  0  0  0  0
  191.4540  173.4930  139.8850 C   0  0  1  0  0  3  0  0  0  0  0  0
  191.4020  172.3080  139.0300 N   0  0  0  0  0  2  0  0  0  0  0  0
  190.9990  172.6510  137.6600 C   0  0  0  0  0  0  0  0  0  0  0  0
  192.1150  172.2580  136.6770 C   0  0  0  0  0  2  0  0  0  0  0  0
  192.5880  170.9700  136.9450 O   0  0  0  0  0  1  0  0  0  0  0  0
  189.3370  171.0900  138.4370 O   0  0  0  0  0  1  0  0  0  0  0  0
  189.7400  171.8440  137.3300 C   0  0  0  0  0  2  0  0  0  0  0  0
  190.7280  174.0400  137.5800 O   0  0  0  0  0  0  0  0  0  0  0  0
  190.1450  174.2650  136.4170 O   0  0  0  0  0  1  0  0  0  0  0  0
  187.4510  177.1490  144.5390 O   0  0  0  0  0  0  0  0  0  0  0  0
  187.5620  177.4140  145.9090 C   0  0  2  0  0  3  0  0  0  0  0  0
  187.5610  176.1360  146.6810 C   0  0  0  0  0  3  0  0  0  0  0  0
  189.7990  174.8210  146.9400 C   0  0  0  0  0  3  0  0  0  0  0  0
  188.6730  175.4700  146.8160 C   0  0  0  0  0  0  0  0  0  0  0  0
  191.0410  175.5110  147.4080 C   0  0  2  0  0  3  0  0  0  0  0  0
  190.8380  176.9530  147.4590 N   0  0  0  0  0  2  0  0  0  0  0  0
  191.3430  177.4090  148.7440 C   0  0  0  0  0  1  0  0  0  0  0  0
  193.3240  175.4800  146.7960 O   0  0  0  0  0  0  0  0  0  0  0  0
  192.1800  175.1830  146.4850 C   0  0  0  0  0  0  0  0  0  0  0  0
  192.1940  175.3210  144.0000 C   0  0  0  0  0  2  0  0  0  0  0  0
  191.9330  174.4360  145.2070 C   0  0  0  0  0  3  0  0  0  0  0  0
  193.2370  174.3190  144.4360 C   0  0  0  0  0  2  0  0  0  0  0  0
  186.4410  178.3360  146.3870 C   0  0  2  0  0  3  0  0  0  0  0  0
  185.3330  177.5630  147.0990 C   0  0  0  0  0  1  0  0  0  0  0  0
  185.8770  179.1240  145.2130 C   0  0  0  0  0  2  0  0  0  0  0  0
  184.3820  178.8870  145.0570 C   0  0  0  0  0  2  0  0  0  0  0  0
  184.0220  178.7010  143.5960 C   0  0  0  0  0  2  0  0  0  0  0  0
  185.1640  178.8570  142.8110 O   0  0  0  0  0  1  0  0  0  0  0  0
  1 21  1  6  0  0  0
  2  3  1  0  0  0  0
  2  1  1  0  0  0  0
  3  4  1  6  0  0  0
  3  1  1  0  0  0  0
  5  9  2  0  0  0  0
  5  7  1  0  0  0  0
  6  8  1  0  0  0  0
  7  6  1  0  0  0  0
  9 10  1  0  0  0  0
 10  4  1  1  0  0  0
 10  8  1  0  0  0  0
 12 11  1  1  0  0  0
 12  5  1  0  0  0  0
 13 12  1  0  0  0  0
 14 13  1  0  0  0  0
 15 16  1  0  0  0  0
 15 14  1  0  0  0  0
 18 14  1  0  0  0  0
 18 17  1  0  0  0  0
 19 14  1  0  0  0  0
 20 19  1  0  0  0  0
 21 22  1  0  0  0  0
 22 34  1  0  0  0  0
 22 23  1  1  0  0  0
 23 25  2  0  0  0  0
 25 24  2  0  0  0  0
 26 24  1  6  0  0  0
 26 27  1  0  0  0  0
 27 28  1  0  0  0  0
 30 29  2  0  0  0  0
 30 26  1  0  0  0  0
 31 33  1  0  0  0  0
 31 32  1  0  0  0  0
 32 30  1  0  0  0  0
 33 32  1  0  0  0  0
 34 35  1  6  0  0  0
 36 34  1  0  0  0  0
 37 36  1  0  0  0  0
 38 37  1  0  0  0  0
 39 38  1  0  0  0  0
M  END
>  <MODEL>
5

>  <REMARK>
 VINA RESULT:      -5.9      3.058      7.061
  Name = 
  19 active torsions:
  status: ('A' for Active; 'I' for Inactive)
    1  A    between atoms: C_1  and  C_6
    2  A    between atoms: C_1  and  O_21
    3  A    between atoms: C_1  and  N_32
    4  A    between atoms: C_1  and  C_36
    5  A    between atoms: C_2  and  C_31
    6  A    between atoms: C_4  and  C_12
    7  A    between atoms: C_5  and  C_35
    8  A    between atoms: C_8  and  C_16
    9  A    between atoms: N_10  and  C_12
   10  A    between atoms: C_12  and  C_34
   11  A    between atoms: C_14  and  O_19
   12  A    between atoms: C_16  and  C_26
   13  A    between atoms: C_17  and  C_26
   14  A    between atoms: C_17  and  C_31
   15  A    between atoms: O_19  and  C_31
   16  A    between atoms: C_20  and  C_24
   17  A    between atoms: C_20  and  C_30
   18  A    between atoms: C_28  and  C_34
   19  A    between atoms: N_32  and  C_35
                            x       y       z     vdW  Elec       q    Type
                         _______ _______ _______ _____ _____    ______ ____

>  <TORSDO>
F 19

$$$$
=
 OpenBabel11072409253D

 39 41  0  0  1  0  0  0  0  0999 V2000
  188.3020  174.9690  141.2280 C   0  0  2  0  0  3  0  0  0  0  0  0
  188.2940  173.4720  141.4800 C   0  0  0  0  0  2  0  0  0  0  0  0
  189.6150  174.1810  141.2570 C   0  0  2  0  0  3  0  0  0  0  0  0
  190.3730  174.3130  142.5750 C   0  0  0  0  0  2  0  0  0  0  0  0
  193.7610  173.3240  143.5710 C   0  0  0  0  0  0  0  0  0  0  0  0
  192.2560  171.3810  144.1630 C   0  0  0  0  0  2  0  0  0  0  0  0
  193.5090  172.1790  144.5220 C   0  0  0  0  0  2  0  0  0  0  0  0
  191.0950  172.3350  143.9220 C   0  0  0  0  0  2  0  0  0  0  0  0
  192.7790  173.8300  142.8010 C   0  0  0  0  0  3  0  0  0  0  0  0
  191.4090  173.2110  142.7110 C   0  0  2  0  0  3  0  0  0  0  0  0
  195.8880  173.4270  144.6120 O   0  0  0  0  0  1  0  0  0  0  0  0
  195.0960  174.0010  143.6170 C   0  0  1  0  0  3  0  0  0  0  0  0
  195.7660  173.8880  142.3220 N   0  0  0  0  0  2  0  0  0  0  0  0
  196.2460  175.1920  141.8490 C   0  0  0  0  0  0  0  0  0  0  0  0
  197.6820  175.0540  141.3140 C   0  0  0  0  0  2  0  0  0  0  0  0
  197.8080  175.6550  140.0590 O   0  0  0  0  0  1  0  0  0  0  0  0
  194.5650  176.7420  141.0930 O   0  0  0  0  0  1  0  0  0  0  0  0
  195.3300  175.6380  140.7060 C   0  0  0  0  0  2  0  0  0  0  0  0
  196.1960  176.1280  142.9120 O   0  0  0  0  0  0  0  0  0  0  0  0
  197.4400  176.4590  143.2100 O   0  0  0  0  0  1  0  0  0  0  0  0
  188.0650  175.6490  142.4320 O   0  0  0  0  0  0  0  0  0  0  0  0
  187.6650  176.9380  142.0580 C   0  0  2  0  0  3  0  0  0  0  0  0
  188.7810  177.9050  142.2730 C   0  0  0  0  0  3  0  0  0  0  0  0
  190.0730  177.8520  144.5390 C   0  0  0  0  0  3  0  0  0  0  0  0
  189.4340  177.8880  143.4020 C   0  0  0  0  0  0  0  0  0  0  0  0
  190.6140  176.5660  145.0800 C   0  0  2  0  0  3  0  0  0  0  0  0
  189.9730  176.2310  146.3450 N   0  0  0  0  0  2  0  0  0  0  0  0
  189.3380  174.9360  146.1710 C   0  0  0  0  0  1  0  0  0  0  0  0
  192.8080  177.0390  144.3390 O   0  0  0  0  0  0  0  0  0  0  0  0
  192.0990  176.6820  145.2690 C   0  0  0  0  0  0  0  0  0  0  0  0
  193.2440  174.9990  146.7020 C   0  0  0  0  0  2  0  0  0  0  0  0
  192.7190  176.4220  146.6110 C   0  0  0  0  0  3  0  0  0  0  0  0
  194.2000  176.1370  146.4320 C   0  0  0  0  0  2  0  0  0  0  0  0
  186.4160  177.3740  142.8240 C   0  0  2  0  0  3  0  0  0  0  0  0
  186.2440  178.8910  142.8160 C   0  0  0  0  0  1  0  0  0  0  0  0
  186.4680  176.8460  144.2500 C   0  0  0  0  0  2  0  0  0  0  0  0
  186.0010  177.8980  145.2450 C   0  0  0  0  0  2  0  0  0  0  0  0
  186.8050  177.8120  146.5280 C   0  0  0  0  0  2  0  0  0  0  0  0
  186.3890  176.7020  147.2640 O   0  0  0  0  0  1  0  0  0  0  0  0
  1  3  1  0  0  0  0
  1  2  1  0  0  0  0
  1 21  1  1  0  0  0
  3  2  1  0  0  0  0
  3  4  1  1  0  0  0
  5 12  1  0  0  0  0
  5  7  1  0  0  0  0
  6  7  1  0  0  0  0
  8  6  1  0  0  0  0
  9  5  2  0  0  0  0
 10  4  1  1  0  0  0
 10  9  1  0  0  0  0
 10  8  1  0  0  0  0
 12 11  1  1  0  0  0
 13 12  1  0  0  0  0
 14 13  1  0  0  0  0
 14 19  1  0  0  0  0
 15 14  1  0  0  0  0
 16 15  1  0  0  0  0
 18 17  1  0  0  0  0
 18 14  1  0  0  0  0
 19 20  1  0  0  0  0
 22 23  1  1  0  0  0
 22 21  1  0  0  0  0
 22 34  1  0  0  0  0
 23 25  2  0  0  0  0
 25 24  2  0  0  0  0
 26 24  1  1  0  0  0
 26 30  1  0  0  0  0
 26 27  1  0  0  0  0
 28 27  1  0  0  0  0
 29 30  2  0  0  0  0
 30 32  1  0  0  0  0
 32 31  1  0  0  0  0
 33 32  1  0  0  0  0
 33 31  1  0  0  0  0
 34 35  1  1  0  0  0
 34 36  1  0  0  0  0
 36 37  1  0  0  0  0
 37 38  1  0  0  0  0
 38 39  1  0  0  0  0
M  END
>  <MODEL>
6

>  <REMARK>
 VINA RESULT:      -5.8      2.367      8.028
  Name = 
  19 active torsions:
  status: ('A' for Active; 'I' for Inactive)
    1  A    between atoms: C_1  and  C_6
    2  A    between atoms: C_1  and  O_21
    3  A    between atoms: C_1  and  N_32
    4  A    between atoms: C_1  and  C_36
    5  A    between atoms: C_2  and  C_31
    6  A    between atoms: C_4  and  C_12
    7  A    between atoms: C_5  and  C_35
    8  A    between atoms: C_8  and  C_16
    9  A    between atoms: N_10  and  C_12
   10  A    between atoms: C_12  and  C_34
   11  A    between atoms: C_14  and  O_19
   12  A    between atoms: C_16  and  C_26
   13  A    between atoms: C_17  and  C_26
   14  A    between atoms: C_17  and  C_31
   15  A    between atoms: O_19  and  C_31
   16  A    between atoms: C_20  and  C_24
   17  A    between atoms: C_20  and  C_30
   18  A    between atoms: C_28  and  C_34
   19  A    between atoms: N_32  and  C_35
                            x       y       z     vdW  Elec       q    Type
                         _______ _______ _______ _____ _____    ______ ____

>  <TORSDO>
F 19

$$$$
=
 OpenBabel11072409253D

 39 41  0  0  1  0  0  0  0  0999 V2000
  193.8320  175.6300  144.3070 C   0  0  2  0  0  3  0  0  0  0  0  0
  194.4730  176.9650  144.6380 C   0  0  0  0  0  2  0  0  0  0  0  0
  193.0340  176.7120  145.0430 C   0  0  2  0  0  3  0  0  0  0  0  0
  192.9420  176.4780  146.5490 C   0  0  0  0  0  2  0  0  0  0  0  0
  189.3920  176.8210  145.7000 C   0  0  0  0  0  0  0  0  0  0  0  0
  189.5620  174.8100  147.2220 C   0  0  0  0  0  2  0  0  0  0  0  0
  188.8320  175.4630  146.0500 C   0  0  0  0  0  2  0  0  0  0  0  0
  191.0660  174.8900  146.9960 C   0  0  0  0  0  2  0  0  0  0  0  0
  190.6320  177.1890  146.0740 C   0  0  0  0  0  3  0  0  0  0  0  0
  191.4940  176.3560  146.9850 C   0  0  2  0  0  3  0  0  0  0  0  0
  189.1560  177.6820  143.5040 O   0  0  0  0  0  1  0  0  0  0  0  0
  188.5970  177.6980  144.7820 C   0  0  1  0  0  3  0  0  0  0  0  0
  187.2090  177.2430  144.7230 N   0  0  0  0  0  2  0  0  0  0  0  0
  186.3460  178.0340  145.6090 C   0  0  0  0  0  0  0  0  0  0  0  0
  185.9500  179.3470  144.9120 C   0  0  0  0  0  2  0  0  0  0  0  0
  185.8000  179.1580  143.5350 O   0  0  0  0  0  1  0  0  0  0  0  0
  183.9850  178.0570  146.0840 O   0  0  0  0  0  1  0  0  0  0  0  0
  185.0810  177.2140  145.8780 C   0  0  0  0  0  2  0  0  0  0  0  0
  187.0280  178.2980  146.8220 O   0  0  0  0  0  0  0  0  0  0  0  0
  186.5840  177.4410  147.7240 O   0  0  0  0  0  1  0  0  0  0  0  0
  194.3190  174.6450  145.1790 O   0  0  0  0  0  0  0  0  0  0  0  0
  194.5720  173.5280  144.3730 C   0  0  2  0  0  3  0  0  0  0  0  0
  193.7300  172.3770  144.8120 C   0  0  0  0  0  3  0  0  0  0  0  0
  191.1760  172.4100  144.2820 C   0  0  0  0  0  3  0  0  0  0  0  0
  192.4520  172.3830  144.5540 C   0  0  0  0  0  0  0  0  0  0  0  0
  190.6870  172.6920  142.8960 C   0  0  2  0  0  3  0  0  0  0  0  0
  191.7560  172.4960  141.9260 N   0  0  0  0  0  2  0  0  0  0  0  0
  191.5010  171.2290  141.2610 C   0  0  0  0  0  1  0  0  0  0  0  0
  190.9550  175.0390  142.8160 O   0  0  0  0  0  0  0  0  0  0  0  0
  190.1720  174.1010  142.8190 C   0  0  0  0  0  0  0  0  0  0  0  0
  188.3130  174.5610  141.2280 C   0  0  0  0  0  2  0  0  0  0  0  0
  188.7010  174.3670  142.6840 C   0  0  0  0  0  3  0  0  0  0  0  0
  188.0560  173.2340  141.9040 C   0  0  0  0  0  2  0  0  0  0  0  0
  196.0540  173.1550  144.3930 C   0  0  2  0  0  3  0  0  0  0  0  0
  196.8150  173.9060  145.4830 C   0  0  0  0  0  1  0  0  0  0  0  0
  196.6750  173.4120  143.0280 C   0  0  0  0  0  2  0  0  0  0  0  0
  197.2500  174.8180  142.9410 C   0  0  0  0  0  2  0  0  0  0  0  0
  196.6550  175.5640  141.7600 C   0  0  0  0  0  2  0  0  0  0  0  0
  196.5200  176.9140  142.0830 O   0  0  0  0  0  1  0  0  0  0  0  0
  1  2  1  0  0  0  0
  1  3  1  0  0  0  0
  1 21  1  1  0  0  0
  2  3  1  0  0  0  0
  3  4  1  1  0  0  0
  5  7  1  0  0  0  0
  5  9  2  0  0  0  0
  7  6  1  0  0  0  0
  8  6  1  0  0  0  0
  9 10  1  0  0  0  0
 10  4  1  6  0  0  0
 10  8  1  0  0  0  0
 12 11  1  6  0  0  0
 12  5  1  0  0  0  0
 13 12  1  0  0  0  0
 13 14  1  0  0  0  0
 14 18  1  0  0  0  0
 14 19  1  0  0  0  0
 15 14  1  0  0  0  0
 16 15  1  0  0  0  0
 18 17  1  0  0  0  0
 19 20  1  0  0  0  0
 22 34  1  0  0  0  0
 22 23  1  1  0  0  0
 22 21  1  0  0  0  0
 24 25  2  0  0  0  0
 25 23  2  0  0  0  0
 26 24  1  1  0  0  0
 27 26  1  0  0  0  0
 28 27  1  0  0  0  0
 29 30  2  0  0  0  0
 30 26  1  0  0  0  0
 31 33  1  0  0  0  0
 31 32  1  0  0  0  0
 32 30  1  0  0  0  0
 33 32  1  0  0  0  0
 34 35  1  1  0  0  0
 36 34  1  0  0  0  0
 37 36  1  0  0  0  0
 38 39  1  0  0  0  0
 38 37  1  0  0  0  0
M  END
>  <MODEL>
7

>  <REMARK>
 VINA RESULT:      -5.8      2.432      5.590
  Name = 
  19 active torsions:
  status: ('A' for Active; 'I' for Inactive)
    1  A    between atoms: C_1  and  C_6
    2  A    between atoms: C_1  and  O_21
    3  A    between atoms: C_1  and  N_32
    4  A    between atoms: C_1  and  C_36
    5  A    between atoms: C_2  and  C_31
    6  A    between atoms: C_4  and  C_12
    7  A    between atoms: C_5  and  C_35
    8  A    between atoms: C_8  and  C_16
    9  A    between atoms: N_10  and  C_12
   10  A    between atoms: C_12  and  C_34
   11  A    between atoms: C_14  and  O_19
   12  A    between atoms: C_16  and  C_26
   13  A    between atoms: C_17  and  C_26
   14  A    between atoms: C_17  and  C_31
   15  A    between atoms: O_19  and  C_31
   16  A    between atoms: C_20  and  C_24
   17  A    between atoms: C_20  and  C_30
   18  A    between atoms: C_28  and  C_34
   19  A    between atoms: N_32  and  C_35
                            x       y       z     vdW  Elec       q    Type
                         _______ _______ _______ _____ _____    ______ ____

>  <TORSDO>
F 19

$$$$
=
 OpenBabel11072409253D

 39 41  0  0  1  0  0  0  0  0999 V2000
  188.6040  175.2820  146.3600 C   0  0  2  0  0  3  0  0  0  0  0  0
  188.9380  174.4960  147.6150 C   0  0  0  0  0  2  0  0  0  0  0  0
  190.0350  174.7970  146.6120 C   0  0  2  0  0  3  0  0  0  0  0  0
  190.9590  175.8860  147.1510 C   0  0  0  0  0  2  0  0  0  0  0  0
  193.3840  175.0570  144.5290 C   0  0  0  0  0  0  0  0  0  0  0  0
  194.5720  176.6230  146.1190 C   0  0  0  0  0  2  0  0  0  0  0  0
  194.4200  176.1460  144.6760 C   0  0  0  0  0  2  0  0  0  0  0  0
  193.1980  176.9050  146.7110 C   0  0  0  0  0  2  0  0  0  0  0  0
  192.4280  174.8650  145.4580 C   0  0  0  0  0  3  0  0  0  0  0  0
  192.4010  175.6030  146.7690 C   0  0  2  0  0  3  0  0  0  0  0  0
  193.4350  175.1680  142.1620 O   0  0  0  0  0  1  0  0  0  0  0  0
  193.3400  174.2910  143.2430 C   0  0  1  0  0  3  0  0  0  0  0  0
  194.4340  173.3220  143.1930 N   0  0  0  0  0  2  0  0  0  0  0  0
  193.9290  171.9430  143.1880 C   0  0  0  0  0  0  0  0  0  0  0  0
  194.3220  171.2510  141.8710 C   0  0  0  0  0  2  0  0  0  0  0  0
  193.5080  171.6770  140.8180 O   0  0  0  0  0  1  0  0  0  0  0  0
  195.9610  171.0560  144.1280 O   0  0  0  0  0  1  0  0  0  0  0  0
  194.5890  171.2020  144.3540 C   0  0  0  0  0  2  0  0  0  0  0  0
  192.5210  171.9530  143.3460 O   0  0  0  0  0  0  0  0  0  0  0  0
  192.1800  170.8340  143.9580 O   0  0  0  0  0  1  0  0  0  0  0  0
  188.4380  176.6370  146.6850 O   0  0  0  0  0  0  0  0  0  0  0  0
  187.7900  177.2060  145.5820 C   0  0  2  0  0  3  0  0  0  0  0  0
  188.7740  177.9360  144.7290 C   0  0  0  0  0  3  0  0  0  0  0  0
  190.1030  176.6060  142.9210 C   0  0  0  0  0  3  0  0  0  0  0  0
  189.4450  177.2820  143.8230 C   0  0  0  0  0  0  0  0  0  0  0  0
  189.3920  175.7150  141.9510 C   0  0  2  0  0  3  0  0  0  0  0  0
  187.9480  175.8370  142.1080 N   0  0  0  0  0  2  0  0  0  0  0  0
  187.4380  176.4530  140.8940 C   0  0  0  0  0  1  0  0  0  0  0  0
  189.5970  173.7430  143.2370 O   0  0  0  0  0  0  0  0  0  0  0  0
  189.8160  174.2910  142.1670 C   0  0  0  0  0  0  0  0  0  0  0  0
  189.6210  172.2960  140.6910 C   0  0  0  0  0  2  0  0  0  0  0  0
  190.4570  173.5110  141.0570 C   0  0  0  0  0  3  0  0  0  0  0  0
  189.5520  173.5410  139.8370 C   0  0  0  0  0  2  0  0  0  0  0  0
  186.6610  178.1370  146.0240 C   0  0  2  0  0  3  0  0  0  0  0  0
  185.6410  177.4170  146.9030 C   0  0  0  0  0  1  0  0  0  0  0  0
  185.9840  178.7500  144.8060 C   0  0  0  0  0  2  0  0  0  0  0  0
  185.1130  177.7290  144.0890 C   0  0  0  0  0  2  0  0  0  0  0  0
  184.8400  178.1710  142.6630 C   0  0  0  0  0  2  0  0  0  0  0  0
  183.4640  178.2970  142.4710 O   0  0  0  0  0  1  0  0  0  0  0  0
  1  3  1  0  0  0  0
  1 21  1  1  0  0  0
  1  2  1  0  0  0  0
  3  4  1  1  0  0  0
  3  2  1  0  0  0  0
  5  7  1  0  0  0  0
  5  9  2  0  0  0  0
  6  8  1  0  0  0  0
  7  6  1  0  0  0  0
  8 10  1  0  0  0  0
  9 10  1  0  0  0  0
 10  4  1  6  0  0  0
 12 11  1  6  0  0  0
 12  5  1  0  0  0  0
 13 12  1  0  0  0  0
 14 13  1  0  0  0  0
 14 19  1  0  0  0  0
 14 18  1  0  0  0  0
 15 14  1  0  0  0  0
 16 15  1  0  0  0  0
 17 18  1  0  0  0  0
 19 20  1  0  0  0  0
 22 23  1  1  0  0  0
 22 34  1  0  0  0  0
 22 21  1  0  0  0  0
 24 25  2  0  0  0  0
 25 23  2  0  0  0  0
 26 27  1  0  0  0  0
 26 30  1  0  0  0  0
 26 24  1  1  0  0  0
 28 27  1  0  0  0  0
 30 29  2  0  0  0  0
 31 32  1  0  0  0  0
 32 30  1  0  0  0  0
 33 31  1  0  0  0  0
 33 32  1  0  0  0  0
 34 35  1  6  0  0  0
 36 34  1  0  0  0  0
 37 36  1  0  0  0  0
 38 37  1  0  0  0  0
 39 38  1  0  0  0  0
M  END
>  <MODEL>
8

>  <REMARK>
 VINA RESULT:      -5.7      2.650      7.643
  Name = 
  19 active torsions:
  status: ('A' for Active; 'I' for Inactive)
    1  A    between atoms: C_1  and  C_6
    2  A    between atoms: C_1  and  O_21
    3  A    between atoms: C_1  and  N_32
    4  A    between atoms: C_1  and  C_36
    5  A    between atoms: C_2  and  C_31
    6  A    between atoms: C_4  and  C_12
    7  A    between atoms: C_5  and  C_35
    8  A    between atoms: C_8  and  C_16
    9  A    between atoms: N_10  and  C_12
   10  A    between atoms: C_12  and  C_34
   11  A    between atoms: C_14  and  O_19
   12  A    between atoms: C_16  and  C_26
   13  A    between atoms: C_17  and  C_26
   14  A    between atoms: C_17  and  C_31
   15  A    between atoms: O_19  and  C_31
   16  A    between atoms: C_20  and  C_24
   17  A    between atoms: C_20  and  C_30
   18  A    between atoms: C_28  and  C_34
   19  A    between atoms: N_32  and  C_35
                            x       y       z     vdW  Elec       q    Type
                         _______ _______ _______ _____ _____    ______ ____

>  <TORSDO>
F 19

$$$$
=
 OpenBabel11072409253D

 39 41  0  0  1  0  0  0  0  0999 V2000
  194.0720  175.8960  144.8190 C   0  0  2  0  0  3  0  0  0  0  0  0
  194.5350  177.2190  145.4020 C   0  0  0  0  0  2  0  0  0  0  0  0
  193.0870  176.8020  145.5640 C   0  0  2  0  0  3  0  0  0  0  0  0
  192.8230  176.3590  147.0010 C   0  0  0  0  0  2  0  0  0  0  0  0
  189.3920  176.6230  145.7340 C   0  0  0  0  0  0  0  0  0  0  0  0
  189.3220  174.9340  147.6130 C   0  0  0  0  0  2  0  0  0  0  0  0
  188.7410  175.3700  146.2690 C   0  0  0  0  0  2  0  0  0  0  0  0
  190.8420  174.9310  147.5360 C   0  0  0  0  0  2  0  0  0  0  0  0
  190.6050  177.0240  146.1610 C   0  0  0  0  0  3  0  0  0  0  0  0
  191.3340  176.3580  147.2970 C   0  0  2  0  0  3  0  0  0  0  0  0
  189.6220  177.4420  143.5210 O   0  0  0  0  0  1  0  0  0  0  0  0
  188.7320  177.3300  144.5900 C   0  0  1  0  0  3  0  0  0  0  0  0
  187.5370  176.6020  144.1680 N   0  0  0  0  0  2  0  0  0  0  0  0
  186.3280  177.4230  144.3150 C   0  0  0  0  0  0  0  0  0  0  0  0
  185.5450  177.4360  142.9920 C   0  0  0  0  0  2  0  0  0  0  0  0
  186.2960  176.8690  141.9590 O   0  0  0  0  0  1  0  0  0  0  0  0
  185.8750  177.1910  146.6690 O   0  0  0  0  0  1  0  0  0  0  0  0
  185.4590  176.7790  145.4000 C   0  0  0  0  0  2  0  0  0  0  0  0
  186.6920  178.7390  144.6950 O   0  0  0  0  0  0  0  0  0  0  0  0
  185.7190  179.5470  144.3140 O   0  0  0  0  0  1  0  0  0  0  0  0
  194.5350  174.8420  145.6210 O   0  0  0  0  0  0  0  0  0  0  0  0
  194.6210  173.7360  144.7670 C   0  0  2  0  0  3  0  0  0  0  0  0
  193.5560  172.7450  145.1020 C   0  0  0  0  0  3  0  0  0  0  0  0
  191.0990  173.2450  144.3820 C   0  0  0  0  0  3  0  0  0  0  0  0
  192.3240  172.9840  144.7480 C   0  0  0  0  0  0  0  0  0  0  0  0
  190.7810  173.6380  142.9740 C   0  0  2  0  0  3  0  0  0  0  0  0
  189.3570  173.9100  142.8270 N   0  0  0  0  0  2  0  0  0  0  0  0
  189.1850  174.6150  141.5680 C   0  0  0  0  0  1  0  0  0  0  0  0
  192.1080  172.7260  141.2440 O   0  0  0  0  0  0  0  0  0  0  0  0
  191.1960  172.5410  142.0360 C   0  0  0  0  0  0  0  0  0  0  0  0
  191.0540  170.2800  141.0030 C   0  0  0  0  0  2  0  0  0  0  0  0
  190.5400  171.1930  142.1030 C   0  0  0  0  0  3  0  0  0  0  0  0
  191.5900  170.1390  142.4080 C   0  0  0  0  0  2  0  0  0  0  0  0
  196.0040  173.0890  144.8370 C   0  0  2  0  0  3  0  0  0  0  0  0
  196.9050  173.7810  145.8570 C   0  0  0  0  0  1  0  0  0  0  0  0
  196.6510  173.0920  143.4590 C   0  0  0  0  0  2  0  0  0  0  0  0
  196.8690  174.5110  142.9560 C   0  0  0  0  0  2  0  0  0  0  0  0
  196.3110  174.6720  141.5550 C   0  0  0  0  0  2  0  0  0  0  0  0
  197.1670  175.4740  140.8020 O   0  0  0  0  0  1  0  0  0  0  0  0
  1  2  1  0  0  0  0
  1  3  1  0  0  0  0
  1 21  1  1  0  0  0
  2  3  1  0  0  0  0
  3  4  1  1  0  0  0
  5  9  2  0  0  0  0
  5  7  1  0  0  0  0
  7  6  1  0  0  0  0
  8  6  1  0  0  0  0
  9 10  1  0  0  0  0
 10  4  1  6  0  0  0
 10  8  1  0  0  0  0
 12 11  1  6  0  0  0
 12  5  1  0  0  0  0
 13 14  1  0  0  0  0
 13 12  1  0  0  0  0
 14 19  1  0  0  0  0
 14 18  1  0  0  0  0
 15 14  1  0  0  0  0
 16 15  1  0  0  0  0
 18 17  1  0  0  0  0
 20 19  1  0  0  0  0
 22 34  1  0  0  0  0
 22 23  1  1  0  0  0
 22 21  1  0  0  0  0
 24 25  2  0  0  0  0
 25 23  2  0  0  0  0
 26 24  1  1  0  0  0
 27 26  1  0  0  0  0
 28 27  1  0  0  0  0
 29 30  2  0  0  0  0
 30 32  1  0  0  0  0
 30 26  1  0  0  0  0
 31 32  1  0  0  0  0
 31 33  1  0  0  0  0
 32 33  1  0  0  0  0
 34 35  1  1  0  0  0
 36 34  1  0  0  0  0
 37 36  1  0  0  0  0
 38 37  1  0  0  0  0
 39 38  1  0  0  0  0
M  END
>  <MODEL>
9

>  <REMARK>
 VINA RESULT:      -5.6      2.460      5.482
  Name = 
  19 active torsions:
  status: ('A' for Active; 'I' for Inactive)
    1  A    between atoms: C_1  and  C_6
    2  A    between atoms: C_1  and  O_21
    3  A    between atoms: C_1  and  N_32
    4  A    between atoms: C_1  and  C_36
    5  A    between atoms: C_2  and  C_31
    6  A    between atoms: C_4  and  C_12
    7  A    between atoms: C_5  and  C_35
    8  A    between atoms: C_8  and  C_16
    9  A    between atoms: N_10  and  C_12
   10  A    between atoms: C_12  and  C_34
   11  A    between atoms: C_14  and  O_19
   12  A    between atoms: C_16  and  C_26
   13  A    between atoms: C_17  and  C_26
   14  A    between atoms: C_17  and  C_31
   15  A    between atoms: O_19  and  C_31
   16  A    between atoms: C_20  and  C_24
   17  A    between atoms: C_20  and  C_30
   18  A    between atoms: C_28  and  C_34
   19  A    between atoms: N_32  and  C_35
                            x       y       z     vdW  Elec       q    Type
                         _______ _______ _______ _____ _____    ______ ____

>  <TORSDO>
F 19

$$$$
