=
 OpenBabel11062421343D

 55 64  0  0  1  0  0  0  0  0999 V2000
  191.4970  174.1300  142.1930 C   0  0  0  0  0  0  0  0  0  0  0  0
  191.9360  172.7340  142.4310 C   0  0  0  0  0  0  0  0  0  0  0  0
  193.6970  173.8940  141.8090 C   0  0  0  0  0  0  0  0  0  0  0  0
  194.8540  173.8210  141.0550 C   0  0  0  0  0  0  0  0  0  0  0  0
  194.1620  171.7710  141.6450 C   0  0  0  0  0  0  0  0  0  0  0  0
  196.2230  171.8680  140.1030 C   0  0  0  0  0  1  0  0  0  0  0  0
  191.2190  171.7410  142.7100 O   0  0  0  0  0  0  0  0  0  0  0  0
  195.1690  172.4650  140.9680 C   0  0  0  0  0  0  0  0  0  0  0  0
  193.3230  172.6780  142.1820 N   0  0  0  0  0  0  0  0  0  0  0  0
  192.5680  174.8430  141.7990 C   0  0  0  0  0  3  0  0  0  0  0  0
  187.9860  175.6480  139.4290 C   0  0  0  0  0  2  0  0  0  0  0  0
  189.0460  173.9030  137.9400 C   0  0  0  0  0  2  0  0  0  0  0  0
  190.1160  174.7290  142.3230 C   0  0  2  0  0  3  0  0  0  0  0  0
  187.9190  175.1560  140.8710 C   0  0  1  0  0  3  0  0  0  0  0  0
  187.7340  174.4980  138.4600 C   0  0  0  0  0  2  0  0  0  0  0  0
  189.0450  173.7040  142.6590 C   0  0  0  0  0  2  0  0  0  0  0  0
  190.1040  173.6570  139.0190 C   0  0  0  0  0  2  0  0  0  0  0  0
  189.1300  174.2550  141.2500 C   0  0  2  0  0  0  0  0  0  0  0  0
  189.4980  173.1110  140.2970 C   0  0  0  0  0  2  0  0  0  0  0  0
  186.3430  176.0360  143.0650 S   0  0  0  0  0  0  0  0  0  0  0  0
  187.5760  176.3510  141.7760 C   0  0  2  0  0  3  0  0  0  0  0  0
  186.3470  177.8280  143.3350 C   0  0  1  0  0  3  0  0  0  0  0  0
  186.3250  178.4640  141.9560 C   0  0  0  0  0  2  0  0  0  0  0  0
  187.2170  177.6320  141.0440 C   0  0  0  0  0  2  0  0  0  0  0  0
  185.2080  178.2560  144.1540 N   0  0  0  0  0  0  0  0  0  0  0  0
  185.1860  177.4260  145.3710 C   0  0  0  0  0  3  0  0  0  0  0  0
  185.6950  179.5580  146.0410 C   0  0  0  0  0  3  0  0  0  0  0  0
  185.6720  177.9440  147.9090 C   0  0  0  0  0  1  0  0  0  0  0  0
  185.4920  179.5480  144.6420 N   0  0  0  0  0  0  0  0  0  0  0  0
  185.5160  178.3470  146.4890 C   0  0  0  0  0  0  0  0  0  0  0  0
  196.5370  175.5440  140.7530 O   0  0  0  0  0  1  0  0  0  0  0  0
  195.4530  174.8750  140.2940 N   0  0  0  0  0  2  0  0  0  0  0  0
  193.8570  170.3080  141.5290 C   0  0  0  0  0  2  0  0  0  0  0  0
  194.8130  169.0810  145.8450 C   0  0  0  0  0  0  0  0  0  0  0  0
  194.7090  169.4670  142.4760 C   0  0  2  0  0  3  0  0  0  0  0  0
  196.0430  169.6830  145.7670 C   0  0  0  0  0  0  0  0  0  0  0  0
  195.3500  168.1880  148.0050 C   0  0  0  0  0  3  0  0  0  0  0  0
  194.0720  168.1660  142.7330 N   0  0  0  0  0  2  0  0  0  0  0  0
  194.0460  169.2900  144.6760 N   0  0  0  0  0  0  0  0  0  0  0  0
  193.4600  168.2150  144.0030 N   0  0  0  0  0  2  0  0  0  0  0  0
  196.9730  169.5570  146.8020 C   0  0  0  0  0  3  0  0  0  0  0  0
  196.2100  170.3420  144.4340 C   0  0  2  0  0  0  0  0  0  0  0  0
  196.6150  168.8080  147.9340 C   0  0  0  0  0  3  0  0  0  0  0  0
  194.7880  170.1740  143.8060 C   0  0  1  0  0  3  0  0  0  0  0  0
  194.4370  168.3140  146.9500 C   0  0  0  0  0  3  0  0  0  0  0  0
  197.9410  170.5740  142.7420 O   0  0  0  0  0  1  0  0  0  0  0  0
  197.3600  169.6860  143.6470 C   0  0  0  0  0  2  0  0  0  0  0  0
  196.4900  171.8250  144.6460 C   0  0  0  0  0  2  0  0  0  0  0  0
  195.3850  172.5080  145.4500 C   0  0  0  0  0  2  0  0  0  0  0  0
  195.8320  175.8030  144.2500 C   0  0  0  0  0  2  0  0  0  0  0  0
  195.7260  173.9620  145.7170 C   0  0  2  0  0  3  0  0  0  0  0  0
  194.5000  174.7430  145.8220 N   0  0  0  0  0  2  0  0  0  0  0  0
  194.4780  175.6860  144.7770 N   0  0  0  0  0  0  0  0  0  0  0  0
  196.5350  174.5210  144.5790 C   0  0  0  0  0  2  0  0  0  0  0  0
  194.1350  176.9680  145.3680 C   0  0  0  0  0  1  0  0  0  0  0  0
  1  2  1  0  0  0  0
  2  7  2  0  0  0  0
  3  9  1  0  0  0  0
  4  3  2  0  0  0  0
  5  9  1  0  0  0  0
  6  8  1  0  0  0  0
  8  4  1  0  0  0  0
  8  5  2  0  0  0  0
  9  2  1  0  0  0  0
 10  3  1  0  0  0  0
 10  1  2  0  0  0  0
 12 15  1  0  0  0  0
 12 17  1  0  0  0  0
 13  1  1  6  0  0  0
 13 16  1  0  0  0  0
 14 11  1  6  0  0  0
 14 18  1  0  0  0  0
 14 21  1  0  0  0  0
 15 11  1  0  0  0  0
 17 19  1  0  0  0  0
 18 19  1  6  0  0  0
 18 13  1  0  0  0  0
 18 16  1  0  0  0  0
 20 22  1  0  0  0  0
 21 24  1  6  0  0  0
 21 20  1  0  0  0  0
 22 23  1  6  0  0  0
 22 25  1  0  0  0  0
 24 23  1  0  0  0  0
 25 29  1  0  0  0  0
 25 26  1  0  0  0  0
 26 30  2  0  0  0  0
 27 30  1  0  0  0  0
 29 27  2  0  0  0  0
 30 28  1  0  0  0  0
 32 31  1  0  0  0  0
 32  4  1  0  0  0  0
 33  5  1  0  0  0  0
 34 45  1  0  0  0  0
 35 33  1  6  0  0  0
 35 38  1  0  0  0  0
 35 44  1  0  0  0  0
 36 34  2  0  0  0  0
 36 41  1  0  0  0  0
 38 40  1  0  0  0  0
 39 34  1  0  0  0  0
 40 39  1  0  0  0  0
 41 43  2  0  0  0  0
 42 47  1  6  0  0  0
 42 48  1  0  0  0  0
 42 36  1  0  0  0  0
 43 37  1  0  0  0  0
 44 42  1  0  0  0  0
 44 39  1  1  0  0  0
 45 37  2  0  0  0  0
 46 47  1  0  0  0  0
 48 49  1  0  0  0  0
 50 54  1  0  0  0  0
 50 53  1  0  0  0  0
 51 49  1  6  0  0  0
 51 52  1  0  0  0  0
 53 55  1  0  0  0  0
 53 52  1  0  0  0  0
 54 51  1  0  0  0  0
M  END
>  <MODEL>
1

>  <REMARK>
 VINA RESULT:      -7.4      0.000      0.000
  Name = 
  10 active torsions:
  status: ('A' for Active; 'I' for Inactive)
    1  A    between atoms: N_3  and  C_30
    2  A    between atoms: C_5  and  C_19
    3  A    between atoms: C_8  and  C_23
    4  A    between atoms: C_15  and  C_31
    5  A    between atoms: C_15  and  C_47
    6  A    between atoms: C_20  and  C_27
    7  A    between atoms: C_22  and  C_31
    8  A    between atoms: C_23  and  C_33
    9  A    between atoms: C_28  and  N_52
   10  A    between atoms: C_45  and  C_47
                            x       y       z     vdW  Elec       q    Type
                         _______ _______ _______ _____ _____    ______ ____

>  <TORSDO>
F 10

$$$$
=
 OpenBabel11062421343D

 55 64  0  0  1  0  0  0  0  0999 V2000
  193.7130  172.6260  143.4590 C   0  0  0  0  0  0  0  0  0  0  0  0
  192.6600  173.3880  144.1720 C   0  0  0  0  0  0  0  0  0  0  0  0
  194.3060  174.7760  143.7230 C   0  0  0  0  0  0  0  0  0  0  0  0
  195.0190  175.8430  144.2390 C   0  0  0  0  0  0  0  0  0  0  0  0
  193.0050  175.6890  145.2150 C   0  0  0  0  0  0  0  0  0  0  0  0
  194.5700  177.5190  146.1320 C   0  0  0  0  0  1  0  0  0  0  0  0
  191.6020  172.9430  144.6810 O   0  0  0  0  0  0  0  0  0  0  0  0
  194.1810  176.4450  145.1770 C   0  0  0  0  0  0  0  0  0  0  0  0
  193.1060  174.7220  144.2820 N   0  0  0  0  0  0  0  0  0  0  0  0
  194.7300  173.4680  143.1920 C   0  0  0  0  0  3  0  0  0  0  0  0
  196.3470  168.7810  144.2010 C   0  0  0  0  0  2  0  0  0  0  0  0
  196.7950  170.0840  146.3190 C   0  0  0  0  0  2  0  0  0  0  0  0
  193.7370  171.1650  143.0760 C   0  0  2  0  0  3  0  0  0  0  0  0
  194.8740  168.8670  143.8180 C   0  0  1  0  0  3  0  0  0  0  0  0
  196.5020  168.7070  145.7150 C   0  0  0  0  0  2  0  0  0  0  0  0
  192.7600  170.3180  143.8750 C   0  0  0  0  0  2  0  0  0  0  0  0
  195.9110  171.2140  145.7850 C   0  0  0  0  0  2  0  0  0  0  0  0
  194.2410  170.2400  144.1890 C   0  0  2  0  0  0  0  0  0  0  0  0
  194.4700  170.7740  145.6090 C   0  0  0  0  0  2  0  0  0  0  0  0
  195.6430  169.2450  141.1090 S   0  0  0  0  0  0  0  0  0  0  0  0
  194.7140  168.3470  142.3800 C   0  0  2  0  0  3  0  0  0  0  0  0
  194.6930  168.2780  139.9060 C   0  0  1  0  0  3  0  0  0  0  0  0
  193.2550  168.2860  140.3970 C   0  0  0  0  0  2  0  0  0  0  0  0
  193.2790  168.1660  141.9150 C   0  0  0  0  0  2  0  0  0  0  0  0
  194.8120  168.8270  138.5520 N   0  0  1  0  0  0  0  0  0  0  0  0
  193.4600  169.1780  138.0830 C   0  0  0  0  0  2  0  0  0  0  0  0
  194.5990  171.1510  138.3330 C   0  0  0  0  0  3  0  0  0  0  0  0
  192.2580  171.4770  137.6220 C   0  0  0  0  0  1  0  0  0  0  0  0
  195.4600  170.0750  138.6500 N   0  0  0  0  0  2  0  0  0  0  0  0
  193.4400  170.6600  137.9930 C   0  0  0  0  0  0  0  0  0  0  0  0
  196.8330  177.1510  143.2950 O   0  0  0  0  0  1  0  0  0  0  0  0
  196.4120  176.1150  144.0580 N   0  0  0  0  0  2  0  0  0  0  0  0
  191.9680  175.7110  146.2970 C   0  0  0  0  0  2  0  0  0  0  0  0
  187.4990  176.5730  145.7190 C   0  0  0  0  0  0  0  0  0  0  0  0
  190.8740  176.7390  146.0220 C   0  0  2  0  0  3  0  0  0  0  0  0
  187.7090  176.8980  144.4040 C   0  0  0  0  0  0  0  0  0  0  0  0
  185.2050  177.2530  145.5550 C   0  0  0  0  0  3  0  0  0  0  0  0
  190.3480  177.2910  147.2800 N   0  0  0  0  0  2  0  0  0  0  0  0
  188.6790  176.1140  146.3460 N   0  0  0  0  0  0  0  0  0  0  0  0
  189.1110  176.6700  147.5530 N   0  0  0  0  0  2  0  0  0  0  0  0
  186.6780  177.4170  143.6160 C   0  0  0  0  0  3  0  0  0  0  0  0
  189.1510  176.7100  144.0500 C   0  0  2  0  0  0  0  0  0  0  0  0
  185.4130  177.5860  144.2010 C   0  0  0  0  0  3  0  0  0  0  0  0
  189.7190  176.0420  145.3450 C   0  0  1  0  0  3  0  0  0  0  0  0
  186.2560  176.7480  146.3320 C   0  0  0  0  0  3  0  0  0  0  0  0
  189.7380  178.2820  142.2900 O   0  0  0  0  0  1  0  0  0  0  0  0
  189.7940  178.0560  143.6660 C   0  0  0  0  0  2  0  0  0  0  0  0
  189.2520  175.7220  142.8940 C   0  0  0  0  0  2  0  0  0  0  0  0
  188.8030  174.3190  143.2970 C   0  0  0  0  0  2  0  0  0  0  0  0
  190.2780  173.0560  140.3430 C   0  0  0  0  0  2  0  0  0  0  0  0
  188.7350  173.4030  142.0900 C   0  0  2  0  0  3  0  0  0  0  0  0
  189.5040  172.1920  142.3490 N   0  0  0  0  0  2  0  0  0  0  0  0
  190.5720  172.1350  141.4330 N   0  0  0  0  0  0  0  0  0  0  0  0
  189.3320  174.0830  140.8890 C   0  0  0  0  0  2  0  0  0  0  0  0
  190.5800  170.7940  140.8720 C   0  0  0  0  0  1  0  0  0  0  0  0
  1  2  1  0  0  0  0
  2  9  1  0  0  0  0
  2  7  2  0  0  0  0
  3  4  2  0  0  0  0
  3  9  1  0  0  0  0
  4  8  1  0  0  0  0
  5 33  1  0  0  0  0
  8  5  2  0  0  0  0
  8  6  1  0  0  0  0
  9  5  1  0  0  0  0
 10  1  2  0  0  0  0
 10  3  1  0  0  0  0
 11 15  1  0  0  0  0
 13  1  1  1  0  0  0
 13 16  1  0  0  0  0
 13 18  1  0  0  0  0
 14 18  1  0  0  0  0
 14 11  1  6  0  0  0
 15 12  1  0  0  0  0
 17 12  1  0  0  0  0
 18 16  1  1  0  0  0
 18 19  1  0  0  0  0
 19 17  1  0  0  0  0
 20 21  1  0  0  0  0
 21 24  1  6  0  0  0
 21 14  1  0  0  0  0
 22 23  1  1  0  0  0
 22 20  1  0  0  0  0
 23 24  1  0  0  0  0
 25 26  1  1  0  0  0
 25 29  1  0  0  0  0
 25 22  1  0  0  0  0
 27 29  1  0  0  0  0
 28 30  1  0  0  0  0
 30 26  1  0  0  0  0
 30 27  2  0  0  0  0
 31 32  1  0  0  0  0
 32  4  1  0  0  0  0
 34 45  1  0  0  0  0
 34 39  1  0  0  0  0
 35 33  1  1  0  0  0
 35 38  1  0  0  0  0
 36 34  2  0  0  0  0
 37 45  2  0  0  0  0
 38 40  1  0  0  0  0
 39 40  1  0  0  0  0
 41 43  2  0  0  0  0
 41 36  1  0  0  0  0
 42 48  1  6  0  0  0
 42 36  1  0  0  0  0
 42 44  1  0  0  0  0
 43 37  1  0  0  0  0
 44 35  1  0  0  0  0
 44 39  1  1  0  0  0
 46 47  1  0  0  0  0
 47 42  1  0  0  0  0
 48 49  1  0  0  0  0
 50 54  1  0  0  0  0
 50 53  1  0  0  0  0
 51 52  1  0  0  0  0
 51 49  1  1  0  0  0
 53 52  1  0  0  0  0
 54 51  1  0  0  0  0
 55 53  1  0  0  0  0
M  END
>  <MODEL>
2

>  <REMARK>
 VINA RESULT:      -7.4      3.070      9.715
  Name = 
  10 active torsions:
  status: ('A' for Active; 'I' for Inactive)
    1  A    between atoms: N_3  and  C_30
    2  A    between atoms: C_5  and  C_19
    3  A    between atoms: C_8  and  C_23
    4  A    between atoms: C_15  and  C_31
    5  A    between atoms: C_15  and  C_47
    6  A    between atoms: C_20  and  C_27
    7  A    between atoms: C_22  and  C_31
    8  A    between atoms: C_23  and  C_33
    9  A    between atoms: C_28  and  N_52
   10  A    between atoms: C_45  and  C_47
                            x       y       z     vdW  Elec       q    Type
                         _______ _______ _______ _____ _____    ______ ____

>  <TORSDO>
F 10

$$$$
=
 OpenBabel11062421343D

 55 64  0  0  1  0  0  0  0  0999 V2000
  191.6520  174.4850  142.8600 C   0  0  0  0  0  0  0  0  0  0  0  0
  192.9770  174.7220  142.2400 C   0  0  0  0  0  0  0  0  0  0  0  0
  192.7970  172.5670  142.6350 C   0  0  0  0  0  0  0  0  0  0  0  0
  193.5150  171.4590  143.0500 C   0  0  0  0  0  0  0  0  0  0  0  0
  194.8890  173.0350  142.2390 C   0  0  0  0  0  0  0  0  0  0  0  0
  196.0240  170.9380  143.2130 C   0  0  0  0  0  1  0  0  0  0  0  0
  193.5010  175.8260  141.9480 O   0  0  0  0  0  0  0  0  0  0  0  0
  194.8520  171.7440  142.7750 C   0  0  0  0  0  0  0  0  0  0  0  0
  193.6190  173.4720  142.1240 N   0  0  0  0  0  0  0  0  0  0  0  0
  191.5410  173.1680  143.1180 C   0  0  0  0  0  3  0  0  0  0  0  0
  189.3570  176.1150  146.6490 C   0  0  0  0  0  2  0  0  0  0  0  0
  191.5710  175.4610  147.6760 C   0  0  0  0  0  2  0  0  0  0  0  0
  190.5680  175.4800  143.2000 C   0  0  2  0  0  3  0  0  0  0  0  0
  189.5690  176.7920  145.2990 C   0  0  1  0  0  3  0  0  0  0  0  0
  190.4590  176.5120  147.6240 C   0  0  0  0  0  2  0  0  0  0  0  0
  191.0550  176.9200  143.2130 C   0  0  0  0  0  2  0  0  0  0  0  0
  192.0320  174.9560  146.3060 C   0  0  0  0  0  2  0  0  0  0  0  0
  190.7910  176.2130  144.5280 C   0  0  2  0  0  0  0  0  0  0  0  0
  192.1180  176.0750  145.2860 C   0  0  0  0  0  2  0  0  0  0  0  0
  187.9830  178.3040  143.4910 S   0  0  0  0  0  0  0  0  0  0  0  0
  188.2140  176.8740  144.5780 C   0  0  2  0  0  3  0  0  0  0  0  0
  186.2470  177.7940  143.3900 C   0  0  1  0  0  3  0  0  0  0  0  0
  185.8280  177.4390  144.8070 C   0  0  0  0  0  2  0  0  0  0  0  0
  186.9960  176.7280  145.4750 C   0  0  0  0  0  2  0  0  0  0  0  0
  185.4040  178.8470  142.8170 N   0  0  1  0  0  0  0  0  0  0  0  0
  185.1160  178.4880  141.4170 C   0  0  0  0  0  2  0  0  0  0  0  0
  183.1290  178.3500  142.5500 C   0  0  0  0  0  3  0  0  0  0  0  0
  182.9260  177.7150  140.1740 C   0  0  0  0  0  1  0  0  0  0  0  0
  184.1420  178.7740  143.4410 N   0  0  0  0  0  2  0  0  0  0  0  0
  183.6630  178.1870  141.3720 C   0  0  0  0  0  0  0  0  0  0  0  0
  193.0220  169.1020  143.3590 O   0  0  0  0  0  1  0  0  0  0  0  0
  193.0320  170.3680  143.8400 N   0  0  0  0  0  2  0  0  0  0  0  0
  196.0960  173.9160  142.1230 C   0  0  0  0  0  2  0  0  0  0  0  0
  196.5020  174.7870  137.6370 C   0  0  0  0  0  0  0  0  0  0  0  0
  196.8590  173.6770  140.8230 C   0  0  2  0  0  3  0  0  0  0  0  0
  196.1890  173.4860  137.3340 C   0  0  0  0  0  0  0  0  0  0  0  0
  196.9820  175.2430  135.3320 C   0  0  0  0  0  3  0  0  0  0  0  0
  197.9170  174.6840  140.6470 N   0  0  0  0  0  2  0  0  0  0  0  0
  196.4080  175.0450  139.0230 N   0  0  0  0  0  0  0  0  0  0  0  0
  197.4660  175.6410  139.7130 N   0  0  0  0  0  2  0  0  0  0  0  0
  196.2660  173.0140  136.0210 C   0  0  0  0  0  3  0  0  0  0  0  0
  195.8890  172.7230  138.5850 C   0  0  2  0  0  0  0  0  0  0  0  0
  196.6580  173.9080  135.0120 C   0  0  0  0  0  3  0  0  0  0  0  0
  195.9050  173.8520  139.6670 C   0  0  1  0  0  3  0  0  0  0  0  0
  196.9140  175.6930  136.6570 C   0  0  0  0  0  3  0  0  0  0  0  0
  196.3490  170.4790  139.4030 O   0  0  0  0  0  1  0  0  0  0  0  0
  196.9190  171.5970  138.7930 C   0  0  0  0  0  2  0  0  0  0  0  0
  194.4820  172.1460  138.4880 C   0  0  0  0  0  2  0  0  0  0  0  0
  193.4090  173.2250  138.6070 C   0  0  0  0  0  2  0  0  0  0  0  0
  190.2820  172.0970  139.8100 C   0  0  0  0  0  2  0  0  0  0  0  0
  192.0300  172.6550  138.3320 C   0  0  2  0  0  3  0  0  0  0  0  0
  191.0430  173.7260  138.3490 N   0  0  0  0  0  2  0  0  0  0  0  0
  190.1430  173.4900  139.4050 N   0  0  0  0  0  0  0  0  0  0  0  0
  191.6580  171.6640  139.4000 C   0  0  0  0  0  2  0  0  0  0  0  0
  188.8030  173.6480  138.8660 C   0  0  0  0  0  1  0  0  0  0  0  0
  1 10  2  0  0  0  0
  2  1  1  0  0  0  0
  3  4  2  0  0  0  0
  3 10  1  0  0  0  0
  4 32  1  0  0  0  0
  5  8  2  0  0  0  0
  7  2  2  0  0  0  0
  8  4  1  0  0  0  0
  8  6  1  0  0  0  0
  9  5  1  0  0  0  0
  9  2  1  0  0  0  0
  9  3  1  0  0  0  0
 11 15  1  0  0  0  0
 13  1  1  1  0  0  0
 13 16  1  0  0  0  0
 13 18  1  0  0  0  0
 14 11  1  1  0  0  0
 15 12  1  0  0  0  0
 17 12  1  0  0  0  0
 18 16  1  6  0  0  0
 18 19  1  0  0  0  0
 18 14  1  0  0  0  0
 19 17  1  0  0  0  0
 20 21  1  0  0  0  0
 21 14  1  0  0  0  0
 21 24  1  1  0  0  0
 22 20  1  0  0  0  0
 22 23  1  1  0  0  0
 23 24  1  0  0  0  0
 25 26  1  6  0  0  0
 25 22  1  0  0  0  0
 25 29  1  0  0  0  0
 27 29  1  0  0  0  0
 28 30  1  0  0  0  0
 30 26  1  0  0  0  0
 30 27  2  0  0  0  0
 31 32  1  0  0  0  0
 33  5  1  0  0  0  0
 34 39  1  0  0  0  0
 35 33  1  1  0  0  0
 36 34  1  0  0  0  0
 36 42  1  0  0  0  0
 37 45  1  0  0  0  0
 38 35  1  0  0  0  0
 39 40  1  0  0  0  0
 40 38  1  0  0  0  0
 41 36  2  0  0  0  0
 42 48  1  6  0  0  0
 42 47  1  0  0  0  0
 42 44  1  0  0  0  0
 43 37  2  0  0  0  0
 43 41  1  0  0  0  0
 44 39  1  6  0  0  0
 44 35  1  0  0  0  0
 45 34  2  0  0  0  0
 47 46  1  0  0  0  0
 48 49  1  0  0  0  0
 51 52  1  0  0  0  0
 51 49  1  1  0  0  0
 51 54  1  0  0  0  0
 52 53  1  0  0  0  0
 53 50  1  0  0  0  0
 54 50  1  0  0  0  0
 55 53  1  0  0  0  0
M  END
>  <MODEL>
3

>  <REMARK>
 VINA RESULT:      -7.3      2.809      6.769
  Name = 
  10 active torsions:
  status: ('A' for Active; 'I' for Inactive)
    1  A    between atoms: N_3  and  C_30
    2  A    between atoms: C_5  and  C_19
    3  A    between atoms: C_8  and  C_23
    4  A    between atoms: C_15  and  C_31
    5  A    between atoms: C_15  and  C_47
    6  A    between atoms: C_20  and  C_27
    7  A    between atoms: C_22  and  C_31
    8  A    between atoms: C_23  and  C_33
    9  A    between atoms: C_28  and  N_52
   10  A    between atoms: C_45  and  C_47
                            x       y       z     vdW  Elec       q    Type
                         _______ _______ _______ _____ _____    ______ ____

>  <TORSDO>
F 10

$$$$
=
 OpenBabel11062421343D

 55 64  0  0  1  0  0  0  0  0999 V2000
  192.6280  174.6430  143.5820 C   0  0  0  0  0  0  0  0  0  0  0  0
  192.3530  173.2210  143.8980 C   0  0  0  0  0  0  0  0  0  0  0  0
  194.4210  173.3580  143.1650 C   0  0  0  0  0  0  0  0  0  0  0  0
  195.3610  172.7020  142.3910 C   0  0  0  0  0  0  0  0  0  0  0  0
  193.8000  171.2690  143.1250 C   0  0  0  0  0  0  0  0  0  0  0  0
  195.5740  170.2900  141.5340 C   0  0  0  0  0  1  0  0  0  0  0  0
  191.2620  172.7110  144.2550 O   0  0  0  0  0  0  0  0  0  0  0  0
  194.9820  171.3600  142.3830 C   0  0  0  0  0  0  0  0  0  0  0  0
  193.5280  172.4920  143.6220 N   0  0  0  0  0  0  0  0  0  0  0  0
  193.8890  174.7320  143.1200 C   0  0  0  0  0  3  0  0  0  0  0  0
  189.8540  176.7090  146.7940 C   0  0  0  0  0  2  0  0  0  0  0  0
  191.5770  175.6140  148.2830 C   0  0  0  0  0  2  0  0  0  0  0  0
  191.7140  175.8390  143.7040 C   0  0  2  0  0  3  0  0  0  0  0  0
  190.5180  177.3280  145.5690 C   0  0  1  0  0  3  0  0  0  0  0  0
  190.7430  176.8710  148.0220 C   0  0  0  0  0  2  0  0  0  0  0  0
  192.4600  177.1490  143.9050 C   0  0  0  0  0  2  0  0  0  0  0  0
  192.2470  175.0260  147.0390 C   0  0  0  0  0  2  0  0  0  0  0  0
  191.7500  176.5110  145.0810 C   0  0  2  0  0  0  0  0  0  0  0  0
  192.7980  176.1030  146.1250 C   0  0  0  0  0  2  0  0  0  0  0  0
  188.1840  176.4000  144.2400 S   0  0  0  0  0  0  0  0  0  0  0  0
  189.4220  177.6860  144.5520 C   0  0  2  0  0  3  0  0  0  0  0  0
  187.6200  177.4460  142.8720 C   0  0  1  0  0  3  0  0  0  0  0  0
  188.8750  177.9280  142.1630 C   0  0  0  0  0  2  0  0  0  0  0  0
  189.9250  178.2260  143.2240 C   0  0  0  0  0  2  0  0  0  0  0  0
  186.7240  176.7200  141.9660 N   0  0  0  0  0  0  0  0  0  0  0  0
  185.3470  177.1730  142.2300 C   0  0  0  0  0  3  0  0  0  0  0  0
  185.8890  177.9110  140.1280 C   0  0  0  0  0  3  0  0  0  0  0  0
  183.6330  178.6150  140.8410 C   0  0  0  0  0  1  0  0  0  0  0  0
  186.9760  177.1760  140.6560 N   0  0  0  0  0  0  0  0  0  0  0  0
  184.9310  177.9160  141.0130 C   0  0  0  0  0  0  0  0  0  0  0  0
  197.4210  173.9490  142.0780 O   0  0  0  0  0  1  0  0  0  0  0  0
  196.3540  173.3000  141.5520 N   0  0  0  0  0  2  0  0  0  0  0  0
  192.8240  170.1320  143.1080 C   0  0  0  0  0  2  0  0  0  0  0  0
  191.0860  170.2230  138.8630 C   0  0  0  0  0  0  0  0  0  0  0  0
  191.6250  170.4180  142.2060 C   0  0  2  0  0  3  0  0  0  0  0  0
  190.9880  171.5910  138.9080 C   0  0  0  0  0  0  0  0  0  0  0  0
  189.9470  170.1800  136.7520 C   0  0  0  0  0  3  0  0  0  0  0  0
  190.8140  169.2050  142.0180 N   0  0  0  0  0  2  0  0  0  0  0  0
  191.7070  169.6980  140.0180 N   0  0  0  0  0  0  0  0  0  0  0  0
  191.1070  168.6680  140.7470 N   0  0  0  0  0  2  0  0  0  0  0  0
  190.3630  172.3030  137.8820 C   0  0  0  0  0  3  0  0  0  0  0  0
  191.5320  172.1030  140.2050 C   0  0  2  0  0  0  0  0  0  0  0  0
  189.8470  171.5860  136.7910 C   0  0  0  0  0  3  0  0  0  0  0  0
  192.1350  170.8070  140.8410 C   0  0  1  0  0  3  0  0  0  0  0  0
  190.5650  169.4830  137.8000 C   0  0  0  0  0  3  0  0  0  0  0  0
  190.4320  174.1710  140.8590 O   0  0  0  0  0  1  0  0  0  0  0  0
  190.4220  172.7860  141.0260 C   0  0  0  0  0  2  0  0  0  0  0  0
  192.6610  173.0860  139.9150 C   0  0  0  0  0  2  0  0  0  0  0  0
  193.8110  172.4320  139.1530 C   0  0  0  0  0  2  0  0  0  0  0  0
  193.2040  173.7780  135.9410 C   0  0  0  0  0  2  0  0  0  0  0  0
  194.2590  173.3010  137.9930 C   0  0  2  0  0  3  0  0  0  0  0  0
  193.6030  174.5990  138.0700 N   0  0  0  0  0  2  0  0  0  0  0  0
  192.7840  174.7570  136.9360 N   0  0  0  0  0  0  0  0  0  0  0  0
  193.8710  172.6630  136.6880 C   0  0  0  0  0  2  0  0  0  0  0  0
  193.0650  176.0740  136.3880 C   0  0  0  0  0  1  0  0  0  0  0  0
  1  2  1  0  0  0  0
  2  7  2  0  0  0  0
  3  9  1  0  0  0  0
  4  3  2  0  0  0  0
  5  9  1  0  0  0  0
  6  8  1  0  0  0  0
  8  4  1  0  0  0  0
  8  5  2  0  0  0  0
  9  2  1  0  0  0  0
 10  3  1  0  0  0  0
 10  1  2  0  0  0  0
 11 15  1  0  0  0  0
 13  1  1  1  0  0  0
 13 16  1  0  0  0  0
 13 18  1  0  0  0  0
 14 11  1  1  0  0  0
 15 12  1  0  0  0  0
 17 12  1  0  0  0  0
 18 16  1  6  0  0  0
 18 14  1  0  0  0  0
 18 19  1  0  0  0  0
 19 17  1  0  0  0  0
 20 21  1  0  0  0  0
 21 24  1  6  0  0  0
 21 14  1  0  0  0  0
 22 25  1  6  0  0  0
 22 20  1  0  0  0  0
 23 22  1  0  0  0  0
 23 24  1  0  0  0  0
 25 26  1  0  0  0  0
 27 29  2  0  0  0  0
 27 30  1  0  0  0  0
 28 30  1  0  0  0  0
 29 25  1  0  0  0  0
 30 26  2  0  0  0  0
 32 31  1  0  0  0  0
 32  4  1  0  0  0  0
 33  5  1  0  0  0  0
 34 36  1  0  0  0  0
 34 39  1  0  0  0  0
 35 33  1  1  0  0  0
 36 42  1  0  0  0  0
 37 43  2  0  0  0  0
 37 45  1  0  0  0  0
 38 35  1  0  0  0  0
 39 40  1  0  0  0  0
 40 38  1  0  0  0  0
 41 36  2  0  0  0  0
 42 48  1  6  0  0  0
 42 44  1  0  0  0  0
 42 47  1  0  0  0  0
 43 41  1  0  0  0  0
 44 39  1  6  0  0  0
 44 35  1  0  0  0  0
 45 34  2  0  0  0  0
 46 47  1  0  0  0  0
 49 48  1  0  0  0  0
 50 54  1  0  0  0  0
 50 53  1  0  0  0  0
 51 52  1  0  0  0  0
 51 49  1  1  0  0  0
 53 52  1  0  0  0  0
 54 51  1  0  0  0  0
 55 53  1  0  0  0  0
M  END
>  <MODEL>
4

>  <REMARK>
 VINA RESULT:      -7.2      2.956      6.358
  Name = 
  10 active torsions:
  status: ('A' for Active; 'I' for Inactive)
    1  A    between atoms: N_3  and  C_30
    2  A    between atoms: C_5  and  C_19
    3  A    between atoms: C_8  and  C_23
    4  A    between atoms: C_15  and  C_31
    5  A    between atoms: C_15  and  C_47
    6  A    between atoms: C_20  and  C_27
    7  A    between atoms: C_22  and  C_31
    8  A    between atoms: C_23  and  C_33
    9  A    between atoms: C_28  and  N_52
   10  A    between atoms: C_45  and  C_47
                            x       y       z     vdW  Elec       q    Type
                         _______ _______ _______ _____ _____    ______ ____

>  <TORSDO>
F 10

$$$$
=
 OpenBabel11062421343D

 55 64  0  0  1  0  0  0  0  0999 V2000
  192.1710  175.5670  143.9210 C   0  0  0  0  0  0  0  0  0  0  0  0
  192.5930  174.4480  144.7970 C   0  0  0  0  0  0  0  0  0  0  0  0
  194.2950  175.8270  144.6040 C   0  0  0  0  0  0  0  0  0  0  0  0
  195.6720  175.8680  144.4830 C   0  0  0  0  0  0  0  0  0  0  0  0
  195.0140  173.9350  145.4110 C   0  0  0  0  0  0  0  0  0  0  0  0
  197.5380  174.1660  144.9490 C   0  0  0  0  0  1  0  0  0  0  0  0
  191.9460  173.4090  145.0800 O   0  0  0  0  0  0  0  0  0  0  0  0
  196.1390  174.6690  145.0210 C   0  0  0  0  0  0  0  0  0  0  0  0
  193.9260  174.6960  145.1880 N   0  0  0  0  0  0  0  0  0  0  0  0
  193.2130  176.4090  143.7880 C   0  0  0  0  0  3  0  0  0  0  0  0
  187.6380  176.2250  145.0600 C   0  0  0  0  0  2  0  0  0  0  0  0
  188.7860  177.1690  147.1030 C   0  0  0  0  0  2  0  0  0  0  0  0
  190.8420  175.7950  143.2410 C   0  0  2  0  0  3  0  0  0  0  0  0
  188.3720  176.6420  143.7900 C   0  0  1  0  0  3  0  0  0  0  0  0
  187.6590  177.3540  146.0830 C   0  0  0  0  0  2  0  0  0  0  0  0
  190.6480  177.2250  142.7630 C   0  0  0  0  0  2  0  0  0  0  0  0
  190.1380  176.7860  146.4940 C   0  0  0  0  0  2  0  0  0  0  0  0
  189.9110  176.7470  143.9980 C   0  0  2  0  0  0  0  0  0  0  0  0
  190.4180  177.5410  145.2100 C   0  0  0  0  0  2  0  0  0  0  0  0
  188.6000  174.1590  142.4270 S   0  0  0  0  0  0  0  0  0  0  0  0
  187.8430  175.7940  142.6220 C   0  0  2  0  0  3  0  0  0  0  0  0
  187.7220  174.0760  140.8440 C   0  0  1  0  0  3  0  0  0  0  0  0
  187.9050  175.4340  140.1860 C   0  0  0  0  0  2  0  0  0  0  0  0
  187.8170  176.4950  141.2750 C   0  0  0  0  0  2  0  0  0  0  0  0
  188.2250  172.9880  140.0000 N   0  0  1  0  0  0  0  0  0  0  0  0
  188.4040  173.5150  138.6360 C   0  0  0  0  0  2  0  0  0  0  0  0
  190.5000  173.0510  139.4390 C   0  0  0  0  0  3  0  0  0  0  0  0
  190.5350  174.0290  137.1730 C   0  0  0  0  0  1  0  0  0  0  0  0
  189.5400  172.6960  140.4150 N   0  0  0  0  0  2  0  0  0  0  0  0
  189.8700  173.5190  138.3980 C   0  0  0  0  0  0  0  0  0  0  0  0
  196.4370  176.7910  142.3720 O   0  0  0  0  0  1  0  0  0  0  0  0
  196.4420  176.8070  143.7260 N   0  0  0  0  0  2  0  0  0  0  0  0
  194.9680  172.4650  145.7020 C   0  0  0  0  0  2  0  0  0  0  0  0
  196.0190  170.4050  141.7390 C   0  0  0  0  0  0  0  0  0  0  0  0
  194.4920  171.6570  144.4970 C   0  0  2  0  0  3  0  0  0  0  0  0
  195.2630  171.3120  141.0410 C   0  0  0  0  0  0  0  0  0  0  0  0
  196.3950  169.1330  139.7410 C   0  0  0  0  0  3  0  0  0  0  0  0
  194.6230  170.2140  144.7530 N   0  0  0  0  0  2  0  0  0  0  0  0
  196.0780  170.7130  143.1170 N   0  0  0  0  0  0  0  0  0  0  0  0
  195.7710  169.7470  144.0790 N   0  0  0  0  0  2  0  0  0  0  0  0
  195.0400  171.1620  139.6700 C   0  0  0  0  0  3  0  0  0  0  0  0
  194.6890  172.3310  141.9750 C   0  0  2  0  0  0  0  0  0  0  0  0
  195.6220  170.0640  139.0160 C   0  0  0  0  0  3  0  0  0  0  0  0
  195.3890  171.9670  143.3250 C   0  0  1  0  0  3  0  0  0  0  0  0
  196.5930  169.2930  141.1180 C   0  0  0  0  0  3  0  0  0  0  0  0
  192.7010  170.9360  141.8410 O   0  0  0  0  0  1  0  0  0  0  0  0
  193.1510  172.2490  141.9870 C   0  0  0  0  0  2  0  0  0  0  0  0
  195.1440  173.7180  141.5360 C   0  0  0  0  0  2  0  0  0  0  0  0
  194.0290  174.4940  140.8380 C   0  0  0  0  0  2  0  0  0  0  0  0
  196.0550  174.6300  137.9450 C   0  0  0  0  0  2  0  0  0  0  0  0
  194.5690  175.2750  139.6550 C   0  0  2  0  0  3  0  0  0  0  0  0
  193.8160  174.9320  138.4560 N   0  0  0  0  0  2  0  0  0  0  0  0
  194.6900  174.3240  137.5360 N   0  0  0  0  0  0  0  0  0  0  0  0
  196.0100  174.9200  139.4140 C   0  0  0  0  0  2  0  0  0  0  0  0
  194.4720  174.9680  136.2510 C   0  0  0  0  0  1  0  0  0  0  0  0
  1  2  1  0  0  0  0
  2  7  2  0  0  0  0
  2  9  1  0  0  0  0
  3  9  1  0  0  0  0
  4  3  2  0  0  0  0
  4  8  1  0  0  0  0
  5 33  1  0  0  0  0
  6  8  1  0  0  0  0
  8  5  2  0  0  0  0
  9  5  1  0  0  0  0
 10  1  2  0  0  0  0
 10  3  1  0  0  0  0
 11 15  1  0  0  0  0
 13  1  1  1  0  0  0
 13 18  1  0  0  0  0
 14 18  1  0  0  0  0
 14 11  1  1  0  0  0
 15 12  1  0  0  0  0
 16 13  1  0  0  0  0
 17 12  1  0  0  0  0
 18 16  1  6  0  0  0
 18 19  1  0  0  0  0
 19 17  1  0  0  0  0
 20 21  1  0  0  0  0
 21 24  1  6  0  0  0
 21 14  1  0  0  0  0
 22 23  1  6  0  0  0
 22 20  1  0  0  0  0
 23 24  1  0  0  0  0
 25 26  1  6  0  0  0
 25 29  1  0  0  0  0
 25 22  1  0  0  0  0
 27 29  1  0  0  0  0
 28 30  1  0  0  0  0
 30 26  1  0  0  0  0
 30 27  2  0  0  0  0
 31 32  1  0  0  0  0
 32  4  1  0  0  0  0
 34 39  1  0  0  0  0
 35 38  1  0  0  0  0
 35 33  1  1  0  0  0
 36 34  2  0  0  0  0
 36 42  1  0  0  0  0
 37 45  2  0  0  0  0
 39 40  1  0  0  0  0
 40 38  1  0  0  0  0
 41 36  1  0  0  0  0
 42 48  1  6  0  0  0
 42 47  1  0  0  0  0
 42 44  1  0  0  0  0
 43 41  2  0  0  0  0
 43 37  1  0  0  0  0
 44 39  1  6  0  0  0
 44 35  1  0  0  0  0
 45 34  1  0  0  0  0
 46 47  1  0  0  0  0
 49 48  1  0  0  0  0
 50 54  1  0  0  0  0
 51 49  1  1  0  0  0
 52 51  1  0  0  0  0
 53 50  1  0  0  0  0
 53 52  1  0  0  0  0
 54 51  1  0  0  0  0
 55 53  1  0  0  0  0
M  END
>  <MODEL>
5

>  <REMARK>
 VINA RESULT:      -7.1      2.691      5.889
  Name = 
  10 active torsions:
  status: ('A' for Active; 'I' for Inactive)
    1  A    between atoms: N_3  and  C_30
    2  A    between atoms: C_5  and  C_19
    3  A    between atoms: C_8  and  C_23
    4  A    between atoms: C_15  and  C_31
    5  A    between atoms: C_15  and  C_47
    6  A    between atoms: C_20  and  C_27
    7  A    between atoms: C_22  and  C_31
    8  A    between atoms: C_23  and  C_33
    9  A    between atoms: C_28  and  N_52
   10  A    between atoms: C_45  and  C_47
                            x       y       z     vdW  Elec       q    Type
                         _______ _______ _______ _____ _____    ______ ____

>  <TORSDO>
F 10

$$$$
=
 OpenBabel11062421343D

 55 64  0  0  1  0  0  0  0  0999 V2000
  189.8000  172.8940  142.4100 C   0  0  0  0  0  0  0  0  0  0  0  0
  189.9970  172.9070  140.9410 C   0  0  0  0  0  0  0  0  0  0  0  0
  190.5300  170.9030  141.6710 C   0  0  0  0  0  0  0  0  0  0  0  0
  191.4280  169.8670  141.4900 C   0  0  0  0  0  0  0  0  0  0  0  0
  191.3040  171.1400  139.6480 C   0  0  0  0  0  0  0  0  0  0  0  0
  193.0350  169.2330  139.5900 C   0  0  0  0  0  1  0  0  0  0  0  0
  189.8920  173.8860  140.1610 O   0  0  0  0  0  0  0  0  0  0  0  0
  191.9080  170.0000  140.1880 C   0  0  0  0  0  0  0  0  0  0  0  0
  190.4400  171.6220  140.5620 N   0  0  0  0  0  0  0  0  0  0  0  0
  190.1370  171.6730  142.8660 C   0  0  0  0  0  3  0  0  0  0  0  0
  191.0140  174.9280  146.4920 C   0  0  0  0  0  2  0  0  0  0  0  0
  193.2630  174.1130  145.6760 C   0  0  0  0  0  2  0  0  0  0  0  0
  189.3300  174.0060  143.3170 C   0  0  2  0  0  3  0  0  0  0  0  0
  190.2040  175.5130  145.3390 C   0  0  1  0  0  3  0  0  0  0  0  0
  192.4920  175.2640  146.3290 C   0  0  0  0  0  2  0  0  0  0  0  0
  189.7210  175.3910  142.8240 C   0  0  0  0  0  2  0  0  0  0  0  0
  192.5720  173.4970  144.4560 C   0  0  0  0  0  2  0  0  0  0  0  0
  190.4680  174.7790  143.9920 C   0  0  2  0  0  0  0  0  0  0  0  0
  191.9270  174.5500  143.5760 C   0  0  0  0  0  2  0  0  0  0  0  0
  187.9990  177.3010  145.4550 S   0  0  0  0  0  0  0  0  0  0  0  0
  188.7510  175.6910  145.8090 C   0  0  2  0  0  3  0  0  0  0  0  0
  186.6370  176.7630  146.5230 C   0  0  1  0  0  3  0  0  0  0  0  0
  187.2820  176.1190  147.7390 C   0  0  0  0  0  2  0  0  0  0  0  0
  188.4930  175.3290  147.2620 C   0  0  0  0  0  2  0  0  0  0  0  0
  185.7640  177.8800  146.8940 N   0  0  1  0  0  0  0  0  0  0  0  0
  186.2020  179.0690  146.1410 C   0  0  0  0  0  2  0  0  0  0  0  0
  184.1310  178.5080  145.3330 C   0  0  0  0  0  3  0  0  0  0  0  0
  185.1250  180.4440  144.1680 C   0  0  0  0  0  1  0  0  0  0  0  0
  184.4810  177.6150  146.3720 N   0  0  0  0  0  2  0  0  0  0  0  0
  185.1040  179.3640  145.1860 C   0  0  0  0  0  0  0  0  0  0  0  0
  193.2650  169.0650  142.8600 O   0  0  0  0  0  1  0  0  0  0  0  0
  191.9610  169.0040  142.4990 N   0  0  0  0  0  2  0  0  0  0  0  0
  191.7560  171.8970  138.4350 C   0  0  0  0  0  2  0  0  0  0  0  0
  195.7810  174.0860  138.1970 C   0  0  0  0  0  0  0  0  0  0  0  0
  192.5840  173.1260  138.8020 C   0  0  2  0  0  3  0  0  0  0  0  0
  195.9670  173.9380  139.5480 C   0  0  0  0  0  0  0  0  0  0  0  0
  197.7420  175.4590  138.0450 C   0  0  0  0  0  3  0  0  0  0  0  0
  192.4850  174.1530  137.7530 N   0  0  0  0  0  2  0  0  0  0  0  0
  194.6110  173.4330  137.7490 N   0  0  0  0  0  0  0  0  0  0  0  0
  193.6630  174.1110  136.9790 N   0  0  0  0  0  2  0  0  0  0  0  0
  197.0420  174.5480  140.1990 C   0  0  0  0  0  3  0  0  0  0  0  0
  194.8330  173.1630  140.1420 C   0  0  2  0  0  0  0  0  0  0  0  0
  197.9410  175.3080  139.4340 C   0  0  0  0  0  3  0  0  0  0  0  0
  194.0370  172.7240  138.8700 C   0  0  1  0  0  3  0  0  0  0  0  0
  196.6480  174.8520  137.4140 C   0  0  0  0  0  3  0  0  0  0  0  0
  194.2240  175.3930  140.8970 O   0  0  0  0  0  1  0  0  0  0  0  0
  194.0490  174.0310  141.1440 C   0  0  0  0  0  2  0  0  0  0  0  0
  195.3900  171.9230  140.8340 C   0  0  0  0  0  2  0  0  0  0  0  0
  195.2140  171.9850  142.3490 C   0  0  0  0  0  2  0  0  0  0  0  0
  197.9310  171.3470  144.5190 C   0  0  0  0  0  2  0  0  0  0  0  0
  196.1290  170.9930  143.0430 C   0  0  2  0  0  3  0  0  0  0  0  0
  195.6840  170.7920  144.4160 N   0  0  0  0  0  2  0  0  0  0  0  0
  196.6970  171.2400  145.2860 N   0  0  0  0  0  0  0  0  0  0  0  0
  197.5340  171.5270  143.0850 C   0  0  0  0  0  2  0  0  0  0  0  0
  196.8970  170.1970  146.2790 C   0  0  0  0  0  1  0  0  0  0  0  0
  1 10  2  0  0  0  0
  2  1  1  0  0  0  0
  3 10  1  0  0  0  0
  4  3  2  0  0  0  0
  4 32  1  0  0  0  0
  5  8  2  0  0  0  0
  5  9  1  0  0  0  0
  6  8  1  0  0  0  0
  7  2  2  0  0  0  0
  8  4  1  0  0  0  0
  9  2  1  0  0  0  0
  9  3  1  0  0  0  0
 12 15  1  0  0  0  0
 13  1  1  6  0  0  0
 13 18  1  0  0  0  0
 14 21  1  0  0  0  0
 14 11  1  1  0  0  0
 15 11  1  0  0  0  0
 16 13  1  0  0  0  0
 17 12  1  0  0  0  0
 18 16  1  6  0  0  0
 18 14  1  0  0  0  0
 19 18  1  0  0  0  0
 19 17  1  0  0  0  0
 20 21  1  0  0  0  0
 20 22  1  0  0  0  0
 21 24  1  1  0  0  0
 22 25  1  0  0  0  0
 22 23  1  1  0  0  0
 24 23  1  0  0  0  0
 25 26  1  6  0  0  0
 27 29  1  0  0  0  0
 28 30  1  0  0  0  0
 29 25  1  0  0  0  0
 30 27  2  0  0  0  0
 30 26  1  0  0  0  0
 32 31  1  0  0  0  0
 33  5  1  0  0  0  0
 34 36  1  0  0  0  0
 35 33  1  6  0  0  0
 35 44  1  0  0  0  0
 36 42  1  0  0  0  0
 36 41  2  0  0  0  0
 37 43  2  0  0  0  0
 38 35  1  0  0  0  0
 39 34  1  0  0  0  0
 40 39  1  0  0  0  0
 40 38  1  0  0  0  0
 42 48  1  1  0  0  0
 42 47  1  0  0  0  0
 43 41  1  0  0  0  0
 44 39  1  6  0  0  0
 44 42  1  0  0  0  0
 45 37  1  0  0  0  0
 45 34  2  0  0  0  0
 46 47  1  0  0  0  0
 48 49  1  0  0  0  0
 50 53  1  0  0  0  0
 51 49  1  1  0  0  0
 51 54  1  0  0  0  0
 51 52  1  0  0  0  0
 52 53  1  0  0  0  0
 53 55  1  0  0  0  0
 54 50  1  0  0  0  0
M  END
>  <MODEL>
6

>  <REMARK>
 VINA RESULT:      -7.0      2.560      5.940
  Name = 
  10 active torsions:
  status: ('A' for Active; 'I' for Inactive)
    1  A    between atoms: N_3  and  C_30
    2  A    between atoms: C_5  and  C_19
    3  A    between atoms: C_8  and  C_23
    4  A    between atoms: C_15  and  C_31
    5  A    between atoms: C_15  and  C_47
    6  A    between atoms: C_20  and  C_27
    7  A    between atoms: C_22  and  C_31
    8  A    between atoms: C_23  and  C_33
    9  A    between atoms: C_28  and  N_52
   10  A    between atoms: C_45  and  C_47
                            x       y       z     vdW  Elec       q    Type
                         _______ _______ _______ _____ _____    ______ ____

>  <TORSDO>
F 10

$$$$
=
 OpenBabel11062421343D

 55 64  0  0  1  0  0  0  0  0999 V2000
  191.8460  174.5040  143.1570 C   0  0  0  0  0  0  0  0  0  0  0  0
  191.8000  173.0230  143.1940 C   0  0  0  0  0  0  0  0  0  0  0  0
  193.7760  173.6140  142.4330 C   0  0  0  0  0  0  0  0  0  0  0  0
  194.7500  173.2710  141.5130 C   0  0  0  0  0  0  0  0  0  0  0  0
  193.4620  171.5010  142.0010 C   0  0  0  0  0  0  0  0  0  0  0  0
  195.2550  171.1290  140.1880 C   0  0  0  0  0  1  0  0  0  0  0  0
  190.8190  172.2920  143.4790 O   0  0  0  0  0  0  0  0  0  0  0  0
  194.5690  171.9130  141.2520 C   0  0  0  0  0  0  0  0  0  0  0  0
  193.0490  172.5500  142.7390 N   0  0  0  0  0  0  0  0  0  0  0  0
  193.0490  174.8730  142.6790 C   0  0  0  0  0  3  0  0  0  0  0  0
  189.6660  176.0770  147.0360 C   0  0  0  0  0  2  0  0  0  0  0  0
  191.9030  175.3900  147.9900 C   0  0  0  0  0  2  0  0  0  0  0  0
  190.7780  175.4990  143.5450 C   0  0  2  0  0  3  0  0  0  0  0  0
  189.8460  176.7780  145.6940 C   0  0  1  0  0  3  0  0  0  0  0  0
  190.7970  176.4500  147.9890 C   0  0  0  0  0  2  0  0  0  0  0  0
  191.2760  176.9360  143.5710 C   0  0  0  0  0  2  0  0  0  0  0  0
  192.3230  174.9080  146.5990 C   0  0  0  0  0  2  0  0  0  0  0  0
  191.0420  176.2060  144.8790 C   0  0  2  0  0  0  0  0  0  0  0  0
  192.3880  176.0450  145.5980 C   0  0  0  0  0  2  0  0  0  0  0  0
  188.2610  178.2720  143.8690 S   0  0  0  0  0  0  0  0  0  0  0  0
  188.4720  176.8820  145.0120 C   0  0  2  0  0  3  0  0  0  0  0  0
  186.5050  177.8270  143.8450 C   0  0  1  0  0  3  0  0  0  0  0  0
  186.1180  177.5510  145.2880 C   0  0  0  0  0  2  0  0  0  0  0  0
  187.2800  176.8240  145.9520 C   0  0  0  0  0  2  0  0  0  0  0  0
  185.6840  178.8870  143.2510 N   0  0  1  0  0  0  0  0  0  0  0  0
  185.6460  178.6690  141.7940 C   0  0  0  0  0  2  0  0  0  0  0  0
  183.5220  178.2910  142.5690 C   0  0  0  0  0  3  0  0  0  0  0  0
  183.7390  177.9130  140.1400 C   0  0  0  0  0  1  0  0  0  0  0  0
  184.3500  178.6710  143.6510 N   0  0  0  0  0  2  0  0  0  0  0  0
  184.2440  178.2910  141.4840 C   0  0  0  0  0  0  0  0  0  0  0  0
  195.8280  175.4250  141.2100 O   0  0  0  0  0  1  0  0  0  0  0  0
  195.5910  174.1640  140.7770 N   0  0  0  0  0  2  0  0  0  0  0  0
  192.6620  170.2510  141.7910 C   0  0  0  0  0  2  0  0  0  0  0  0
  190.8450  170.9530  137.6370 C   0  0  0  0  0  0  0  0  0  0  0  0
  191.4120  170.5040  140.9520 C   0  0  2  0  0  3  0  0  0  0  0  0
  190.5010  172.2360  137.9800 C   0  0  0  0  0  0  0  0  0  0  0  0
  189.6880  171.1660  135.5470 C   0  0  0  0  0  3  0  0  0  0  0  0
  190.8310  169.2350  140.4860 N   0  0  0  0  0  2  0  0  0  0  0  0
  191.5760  170.3090  138.6610 N   0  0  0  0  0  0  0  0  0  0  0  0
  191.1900  169.0530  139.1340 N   0  0  0  0  0  2  0  0  0  0  0  0
  189.7340  173.0300  137.1230 C   0  0  0  0  0  3  0  0  0  0  0  0
  190.9700  172.5420  139.3680 C   0  0  2  0  0  0  0  0  0  0  0  0
  189.3330  172.4870  135.8920 C   0  0  0  0  0  3  0  0  0  0  0  0
  191.8120  171.2700  139.7150 C   0  0  1  0  0  3  0  0  0  0  0  0
  190.4450  170.3820  136.4270 C   0  0  0  0  0  3  0  0  0  0  0  0
  189.5600  174.1790  140.4830 O   0  0  0  0  0  1  0  0  0  0  0  0
  189.7720  172.8130  140.2970 C   0  0  0  0  0  2  0  0  0  0  0  0
  191.8940  173.7540  139.3220 C   0  0  0  0  0  2  0  0  0  0  0  0
  193.0500  173.5570  138.3450 C   0  0  0  0  0  2  0  0  0  0  0  0
  194.6080  175.3650  135.7370 C   0  0  0  0  0  2  0  0  0  0  0  0
  193.4970  174.8830  137.7590 C   0  0  2  0  0  3  0  0  0  0  0  0
  192.5310  175.3310  136.7640 N   0  0  0  0  0  2  0  0  0  0  0  0
  193.1690  175.3790  135.5090 N   0  0  0  0  0  0  0  0  0  0  0  0
  194.8270  174.7240  137.0740 C   0  0  0  0  0  2  0  0  0  0  0  0
  192.8400  176.6650  134.9150 C   0  0  0  0  0  1  0  0  0  0  0  0
  1  2  1  0  0  0  0
  2  7  2  0  0  0  0
  3 10  1  0  0  0  0
  3  9  1  0  0  0  0
  4  3  2  0  0  0  0
  5  9  1  0  0  0  0
  6  8  1  0  0  0  0
  8  4  1  0  0  0  0
  8  5  2  0  0  0  0
  9  2  1  0  0  0  0
 10  1  2  0  0  0  0
 11 15  1  0  0  0  0
 13  1  1  6  0  0  0
 13 16  1  0  0  0  0
 13 18  1  0  0  0  0
 14 11  1  1  0  0  0
 15 12  1  0  0  0  0
 17 12  1  0  0  0  0
 18 16  1  6  0  0  0
 18 19  1  0  0  0  0
 18 14  1  0  0  0  0
 19 17  1  0  0  0  0
 20 21  1  0  0  0  0
 21 14  1  0  0  0  0
 21 24  1  1  0  0  0
 22 20  1  0  0  0  0
 22 23  1  1  0  0  0
 23 24  1  0  0  0  0
 25 26  1  6  0  0  0
 25 29  1  0  0  0  0
 25 22  1  0  0  0  0
 27 29  1  0  0  0  0
 28 30  1  0  0  0  0
 30 26  1  0  0  0  0
 30 27  2  0  0  0  0
 32 31  1  0  0  0  0
 32  4  1  0  0  0  0
 33  5  1  0  0  0  0
 34 36  1  0  0  0  0
 34 39  1  0  0  0  0
 35 33  1  1  0  0  0
 36 42  1  0  0  0  0
 37 43  2  0  0  0  0
 37 45  1  0  0  0  0
 38 35  1  0  0  0  0
 39 40  1  0  0  0  0
 40 38  1  0  0  0  0
 41 36  2  0  0  0  0
 42 48  1  6  0  0  0
 42 44  1  0  0  0  0
 42 47  1  0  0  0  0
 43 41  1  0  0  0  0
 44 39  1  6  0  0  0
 44 35  1  0  0  0  0
 45 34  2  0  0  0  0
 47 46  1  0  0  0  0
 49 48  1  0  0  0  0
 50 54  1  0  0  0  0
 51 49  1  6  0  0  0
 52 51  1  0  0  0  0
 53 50  1  0  0  0  0
 53 52  1  0  0  0  0
 54 51  1  0  0  0  0
 55 53  1  0  0  0  0
M  END
>  <MODEL>
7

>  <REMARK>
 VINA RESULT:      -7.0      3.160      6.723
  Name = 
  10 active torsions:
  status: ('A' for Active; 'I' for Inactive)
    1  A    between atoms: N_3  and  C_30
    2  A    between atoms: C_5  and  C_19
    3  A    between atoms: C_8  and  C_23
    4  A    between atoms: C_15  and  C_31
    5  A    between atoms: C_15  and  C_47
    6  A    between atoms: C_20  and  C_27
    7  A    between atoms: C_22  and  C_31
    8  A    between atoms: C_23  and  C_33
    9  A    between atoms: C_28  and  N_52
   10  A    between atoms: C_45  and  C_47
                            x       y       z     vdW  Elec       q    Type
                         _______ _______ _______ _____ _____    ______ ____

>  <TORSDO>
F 10

$$$$
=
 OpenBabel11062421343D

 55 64  0  0  1  0  0  0  0  0999 V2000
  192.8330  173.0590  141.2730 C   0  0  0  0  0  0  0  0  0  0  0  0
  192.0190  173.4820  142.4370 C   0  0  0  0  0  0  0  0  0  0  0  0
  193.9080  174.6050  142.4960 C   0  0  0  0  0  0  0  0  0  0  0  0
  194.8690  175.0990  143.3600 C   0  0  0  0  0  0  0  0  0  0  0  0
  192.9280  174.7780  144.4360 C   0  0  0  0  0  0  0  0  0  0  0  0
  194.9100  175.5530  145.8870 C   0  0  0  0  0  1  0  0  0  0  0  0
  190.9160  173.0130  142.8130 O   0  0  0  0  0  0  0  0  0  0  0  0
  194.2400  175.2350  144.5960 C   0  0  0  0  0  0  0  0  0  0  0  0
  192.7580  174.4570  143.1380 N   0  0  0  0  0  0  0  0  0  0  0  0
  193.9980  173.7340  141.3110 C   0  0  0  0  0  3  0  0  0  0  0  0
  194.6710  169.1480  139.3730 C   0  0  0  0  0  2  0  0  0  0  0  0
  195.6180  169.0340  141.7130 C   0  0  0  0  0  2  0  0  0  0  0  0
  192.5080  172.0470  140.2000 C   0  0  2  0  0  3  0  0  0  0  0  0
  193.2140  169.5990  139.4040 C   0  0  1  0  0  3  0  0  0  0  0  0
  194.9760  168.2490  140.5650 C   0  0  0  0  0  2  0  0  0  0  0  0
  191.4710  171.0220  140.6340 C   0  0  0  0  0  2  0  0  0  0  0  0
  194.9350  170.3670  142.0310 C   0  0  0  0  0  2  0  0  0  0  0  0
  192.9290  170.6150  140.5490 C   0  0  2  0  0  0  0  0  0  0  0  0
  193.4240  170.2640  141.9580 C   0  0  0  0  0  2  0  0  0  0  0  0
  193.3760  171.5630  137.3570 S   0  0  0  0  0  0  0  0  0  0  0  0
  192.7880  169.9630  137.9720 C   0  0  2  0  0  3  0  0  0  0  0  0
  192.2540  171.2990  135.9580 C   0  0  1  0  0  3  0  0  0  0  0  0
  190.9520  170.7850  136.5510 C   0  0  0  0  0  2  0  0  0  0  0  0
  191.3010  169.8360  137.6900 C   0  0  0  0  0  2  0  0  0  0  0  0
  192.0540  172.5270  135.1830 N   0  0  1  0  0  0  0  0  0  0  0  0
  190.6050  172.7790  135.0950 C   0  0  0  0  0  2  0  0  0  0  0  0
  191.4830  174.4560  136.3870 C   0  0  0  0  0  3  0  0  0  0  0  0
  189.0310  174.6100  136.1490 C   0  0  0  0  0  1  0  0  0  0  0  0
  192.5280  173.6060  135.9570 N   0  0  0  0  0  2  0  0  0  0  0  0
  190.3630  174.0050  135.8950 C   0  0  0  0  0  0  0  0  0  0  0  0
  196.8450  176.3610  142.7300 O   0  0  0  0  0  1  0  0  0  0  0  0
  196.2760  175.1950  143.1160 N   0  0  0  0  0  2  0  0  0  0  0  0
  191.9810  174.3880  145.5300 C   0  0  0  0  0  2  0  0  0  0  0  0
  187.8900  176.2820  146.3790 C   0  0  0  0  0  0  0  0  0  0  0  0
  191.1940  175.5830  146.0620 C   0  0  2  0  0  3  0  0  0  0  0  0
  188.1130  177.2440  145.4260 C   0  0  0  0  0  0  0  0  0  0  0  0
  185.8610  177.3720  147.0510 C   0  0  0  0  0  3  0  0  0  0  0  0
  190.9040  175.4200  147.4950 N   0  0  0  0  0  2  0  0  0  0  0  0
  188.9320  175.3290  146.4240 N   0  0  0  0  0  0  0  0  0  0  0  0
  189.5600  175.0110  147.6310 N   0  0  0  0  0  2  0  0  0  0  0  0
  187.2220  178.3060  145.2530 C   0  0  0  0  0  3  0  0  0  0  0  0
  189.4290  177.0080  144.7550 C   0  0  2  0  0  0  0  0  0  0  0  0
  186.0820  178.3610  146.0700 C   0  0  0  0  0  3  0  0  0  0  0  0
  189.8610  175.6310  145.3580 C   0  0  1  0  0  3  0  0  0  0  0  0
  186.7750  176.3220  147.2190 C   0  0  0  0  0  3  0  0  0  0  0  0
  191.0870  178.5560  143.8780 O   0  0  0  0  0  1  0  0  0  0  0  0
  190.3930  178.1780  145.0280 C   0  0  0  0  0  2  0  0  0  0  0  0
  189.1990  176.8460  143.2570 C   0  0  0  0  0  2  0  0  0  0  0  0
  188.6700  175.4580  142.9040 C   0  0  0  0  0  2  0  0  0  0  0  0
  185.6200  177.1060  142.2170 C   0  0  0  0  0  2  0  0  0  0  0  0
  187.3870  175.5530  142.1000 C   0  0  2  0  0  3  0  0  0  0  0  0
  187.5400  176.5490  141.0480 N   0  0  0  0  0  2  0  0  0  0  0  0
  186.6250  177.5930  141.2810 N   0  0  0  0  0  0  0  0  0  0  0  0
  186.2520  175.9860  142.9860 C   0  0  0  0  0  2  0  0  0  0  0  0
  185.9490  177.8550  140.0220 C   0  0  0  0  0  1  0  0  0  0  0  0
  1 10  2  0  0  0  0
  1  2  1  0  0  0  0
  2  7  2  0  0  0  0
  2  9  1  0  0  0  0
  3  9  1  0  0  0  0
  3  4  2  0  0  0  0
  4  8  1  0  0  0  0
  5  8  2  0  0  0  0
  5 33  1  0  0  0  0
  8  6  1  0  0  0  0
  9  5  1  0  0  0  0
 10  3  1  0  0  0  0
 11 15  1  0  0  0  0
 12 17  1  0  0  0  0
 13 18  1  0  0  0  0
 13 16  1  0  0  0  0
 13  1  1  1  0  0  0
 14 11  1  6  0  0  0
 14 18  1  0  0  0  0
 15 12  1  0  0  0  0
 18 16  1  1  0  0  0
 18 19  1  0  0  0  0
 19 17  1  0  0  0  0
 20 21  1  0  0  0  0
 21 24  1  1  0  0  0
 21 14  1  0  0  0  0
 22 23  1  1  0  0  0
 22 20  1  0  0  0  0
 23 24  1  0  0  0  0
 25 26  1  1  0  0  0
 25 29  1  0  0  0  0
 25 22  1  0  0  0  0
 26 30  1  0  0  0  0
 29 27  1  0  0  0  0
 30 28  1  0  0  0  0
 30 27  2  0  0  0  0
 31 32  1  0  0  0  0
 32  4  1  0  0  0  0
 34 39  1  0  0  0  0
 34 45  1  0  0  0  0
 35 33  1  6  0  0  0
 35 38  1  0  0  0  0
 36 34  2  0  0  0  0
 37 45  2  0  0  0  0
 38 40  1  0  0  0  0
 39 40  1  0  0  0  0
 41 36  1  0  0  0  0
 41 43  2  0  0  0  0
 42 48  1  6  0  0  0
 42 47  1  0  0  0  0
 42 44  1  0  0  0  0
 42 36  1  0  0  0  0
 43 37  1  0  0  0  0
 44 35  1  0  0  0  0
 44 39  1  1  0  0  0
 46 47  1  0  0  0  0
 49 48  1  0  0  0  0
 50 54  1  0  0  0  0
 51 49  1  1  0  0  0
 51 54  1  0  0  0  0
 52 53  1  0  0  0  0
 52 51  1  0  0  0  0
 53 50  1  0  0  0  0
 55 53  1  0  0  0  0
M  END
>  <MODEL>
8

>  <REMARK>
 VINA RESULT:      -7.0      3.341      8.883
  Name = 
  10 active torsions:
  status: ('A' for Active; 'I' for Inactive)
    1  A    between atoms: N_3  and  C_30
    2  A    between atoms: C_5  and  C_19
    3  A    between atoms: C_8  and  C_23
    4  A    between atoms: C_15  and  C_31
    5  A    between atoms: C_15  and  C_47
    6  A    between atoms: C_20  and  C_27
    7  A    between atoms: C_22  and  C_31
    8  A    between atoms: C_23  and  C_33
    9  A    between atoms: C_28  and  N_52
   10  A    between atoms: C_45  and  C_47
                            x       y       z     vdW  Elec       q    Type
                         _______ _______ _______ _____ _____    ______ ____

>  <TORSDO>
F 10

$$$$
=
 OpenBabel11062421343D

 55 64  0  0  1  0  0  0  0  0999 V2000
  193.6040  175.3700  143.2760 C   0  0  0  0  0  0  0  0  0  0  0  0
  193.4790  174.9910  141.8480 C   0  0  0  0  0  0  0  0  0  0  0  0
  195.6220  175.0950  142.3300 C   0  0  0  0  0  0  0  0  0  0  0  0
  196.8490  175.4800  141.8190 C   0  0  0  0  0  0  0  0  0  0  0  0
  195.3900  175.0800  140.1630 C   0  0  0  0  0  0  0  0  0  0  0  0
  197.7030  175.9600  139.4450 C   0  0  0  0  0  1  0  0  0  0  0  0
  192.4290  174.9150  141.1630 O   0  0  0  0  0  0  0  0  0  0  0  0
  196.7130  175.4480  140.4320 C   0  0  0  0  0  0  0  0  0  0  0  0
  194.7840  174.8260  141.3390 N   0  0  0  0  0  0  0  0  0  0  0  0
  194.9150  175.4490  143.5740 C   0  0  0  0  0  3  0  0  0  0  0  0
  189.4550  173.5960  144.6580 C   0  0  0  0  0  2  0  0  0  0  0  0
  190.6090  171.5120  143.8160 C   0  0  0  0  0  2  0  0  0  0  0  0
  192.5160  175.6570  144.2840 C   0  0  2  0  0  3  0  0  0  0  0  0
  190.4270  174.4690  145.4440 C   0  0  1  0  0  3  0  0  0  0  0  0
  189.7340  172.1200  144.9160 C   0  0  0  0  0  2  0  0  0  0  0  0
  192.8690  175.2100  145.6940 C   0  0  0  0  0  2  0  0  0  0  0  0
  191.8150  172.3670  143.4170 C   0  0  0  0  0  2  0  0  0  0  0  0
  191.8770  174.4000  144.8830 C   0  0  2  0  0  0  0  0  0  0  0  0
  192.4770  173.0120  144.6180 C   0  0  0  0  0  2  0  0  0  0  0  0
  188.6040  175.9730  147.0210 S   0  0  0  0  0  0  0  0  0  0  0  0
  189.7820  175.8490  145.6500 C   0  0  2  0  0  3  0  0  0  0  0  0
  188.1830  177.6040  146.3520 C   0  0  1  0  0  3  0  0  0  0  0  0
  188.0690  177.4270  144.8470 C   0  0  0  0  0  2  0  0  0  0  0  0
  189.1650  176.4660  144.4060 C   0  0  0  0  0  2  0  0  0  0  0  0
  186.9450  178.1270  146.9370 N   0  0  1  0  0  0  0  0  0  0  0  0
  186.2840  178.9690  145.9230 C   0  0  0  0  0  2  0  0  0  0  0  0
  184.9410  177.1370  146.2290 C   0  0  0  0  0  3  0  0  0  0  0  0
  184.0830  178.6800  144.5040 C   0  0  0  0  0  1  0  0  0  0  0  0
  186.0540  177.0460  147.0970 N   0  0  0  0  0  2  0  0  0  0  0  0
  185.0450  178.2430  145.5460 C   0  0  0  0  0  0  0  0  0  0  0  0
  197.7780  177.1600  143.3050 O   0  0  0  0  0  1  0  0  0  0  0  0
  197.9410  176.0520  142.5450 N   0  0  0  0  0  2  0  0  0  0  0  0
  194.6650  175.2550  138.8620 C   0  0  0  0  0  2  0  0  0  0  0  0
  193.3560  170.8590  138.8210 C   0  0  0  0  0  0  0  0  0  0  0  0
  194.5550  173.9460  138.0860 C   0  0  2  0  0  3  0  0  0  0  0  0
  194.6610  170.4480  138.7270 C   0  0  0  0  0  0  0  0  0  0  0  0
  192.5910  168.6020  138.5440 C   0  0  0  0  0  3  0  0  0  0  0  0
  193.2620  173.8600  137.3900 N   0  0  0  0  0  2  0  0  0  0  0  0
  193.2510  172.2600  138.9650 N   0  0  0  0  0  0  0  0  0  0  0  0
  192.4170  173.0050  138.1270 N   0  0  0  0  0  2  0  0  0  0  0  0
  194.9800  169.1010  138.5330 C   0  0  0  0  0  3  0  0  0  0  0  0
  195.5770  171.6300  138.7580 C   0  0  2  0  0  0  0  0  0  0  0  0
  193.9310  168.1720  138.4500 C   0  0  0  0  0  3  0  0  0  0  0  0
  194.5880  172.8010  139.0690 C   0  0  1  0  0  3  0  0  0  0  0  0
  192.2920  169.9590  138.7230 C   0  0  0  0  0  3  0  0  0  0  0  0
  197.6680  171.3240  137.5550 O   0  0  0  0  0  1  0  0  0  0  0  0
  196.3470  171.7530  137.4290 C   0  0  0  0  0  2  0  0  0  0  0  0
  196.5470  171.4750  139.9230 C   0  0  0  0  0  2  0  0  0  0  0  0
  195.8510  171.6280  141.2740 C   0  0  0  0  0  2  0  0  0  0  0  0
  197.9390  172.5680  143.9670 C   0  0  0  0  0  2  0  0  0  0  0  0
  196.7770  171.2350  142.4090 C   0  0  2  0  0  3  0  0  0  0  0  0
  196.0470  171.2640  143.6700 N   0  0  0  0  0  2  0  0  0  0  0  0
  196.6200  172.2480  144.4980 N   0  0  0  0  0  0  0  0  0  0  0  0
  197.9150  172.2130  142.5110 C   0  0  0  0  0  2  0  0  0  0  0  0
  196.8190  171.6420  145.8040 C   0  0  0  0  0  1  0  0  0  0  0  0
  1 10  2  0  0  0  0
  2  1  1  0  0  0  0
  3 10  1  0  0  0  0
  4  3  2  0  0  0  0
  4 32  1  0  0  0  0
  5  8  2  0  0  0  0
  5  9  1  0  0  0  0
  6  8  1  0  0  0  0
  7  2  2  0  0  0  0
  8  4  1  0  0  0  0
  9  2  1  0  0  0  0
  9  3  1  0  0  0  0
 11 15  1  0  0  0  0
 12 15  1  0  0  0  0
 13  1  1  6  0  0  0
 13 18  1  0  0  0  0
 13 16  1  0  0  0  0
 14 11  1  6  0  0  0
 14 21  1  0  0  0  0
 17 12  1  0  0  0  0
 17 19  1  0  0  0  0
 18 19  1  6  0  0  0
 18 14  1  0  0  0  0
 18 16  1  0  0  0  0
 21 24  1  6  0  0  0
 21 20  1  0  0  0  0
 22 23  1  6  0  0  0
 22 25  1  0  0  0  0
 22 20  1  0  0  0  0
 24 23  1  0  0  0  0
 25 26  1  6  0  0  0
 25 29  1  0  0  0  0
 27 29  1  0  0  0  0
 28 30  1  0  0  0  0
 30 26  1  0  0  0  0
 30 27  2  0  0  0  0
 32 31  1  0  0  0  0
 33  5  1  0  0  0  0
 34 39  1  0  0  0  0
 35 33  1  1  0  0  0
 35 44  1  0  0  0  0
 36 42  1  0  0  0  0
 36 34  1  0  0  0  0
 37 45  1  0  0  0  0
 38 35  1  0  0  0  0
 38 40  1  0  0  0  0
 40 39  1  0  0  0  0
 41 36  2  0  0  0  0
 42 47  1  6  0  0  0
 42 44  1  0  0  0  0
 42 48  1  0  0  0  0
 43 41  1  0  0  0  0
 43 37  2  0  0  0  0
 44 39  1  6  0  0  0
 45 34  2  0  0  0  0
 47 46  1  0  0  0  0
 48 49  1  0  0  0  0
 50 53  1  0  0  0  0
 51 49  1  6  0  0  0
 51 54  1  0  0  0  0
 51 52  1  0  0  0  0
 52 53  1  0  0  0  0
 53 55  1  0  0  0  0
 54 50  1  0  0  0  0
M  END
>  <MODEL>
9

>  <REMARK>
 VINA RESULT:      -6.9      3.070      5.221
  Name = 
  10 active torsions:
  status: ('A' for Active; 'I' for Inactive)
    1  A    between atoms: N_3  and  C_30
    2  A    between atoms: C_5  and  C_19
    3  A    between atoms: C_8  and  C_23
    4  A    between atoms: C_15  and  C_31
    5  A    between atoms: C_15  and  C_47
    6  A    between atoms: C_20  and  C_27
    7  A    between atoms: C_22  and  C_31
    8  A    between atoms: C_23  and  C_33
    9  A    between atoms: C_28  and  N_52
   10  A    between atoms: C_45  and  C_47
                            x       y       z     vdW  Elec       q    Type
                         _______ _______ _______ _____ _____    ______ ____

>  <TORSDO>
F 10

$$$$
