=
 OpenBabel11072409053D

 47 50  0  0  1  0  0  0  0  0999 V2000
  188.0750  175.2640  142.5890 C   0  0  0  0  0  0  0  0  0  0  0  0
  186.7950  175.4050  142.6050 N   0  0  0  0  0  2  0  0  0  0  0  0
  188.8770  176.1720  143.3530 N   0  0  0  0  0  2  0  0  0  0  0  0
  188.6760  174.4010  140.3910 C   0  0  0  0  0  3  0  0  0  0  0  0
  188.6700  174.2360  141.7110 C   0  0  0  0  0  0  0  0  0  0  0  0
  189.1980  173.0340  142.2760 N   0  0  0  0  0  2  0  0  0  0  0  0
  191.1360  171.7150  139.4600 C   0  0  0  0  0  0  0  0  0  0  0  0
  189.6240  171.9140  141.4360 C   0  0  0  0  0  2  0  0  0  0  0  0
  191.8330  170.8820  140.1050 O   0  0  0  0  0  0  0  0  0  0  0  0
  190.0650  172.3990  140.1300 N   0  0  0  0  0  0  0  0  0  0  0  0
  189.2130  173.3650  139.4430 C   0  0  0  0  0  2  0  0  0  0  0  0
  191.5050  172.0220  138.0220 C   0  0  2  0  0  3  0  0  0  0  0  0
  190.9730  169.7530  136.9980 C   0  0  0  0  0  3  0  0  0  0  0  0
  193.1140  170.8010  136.5560 C   0  0  0  0  0  3  0  0  0  0  0  0
  193.4760  169.7120  135.7600 C   0  0  0  0  0  3  0  0  0  0  0  0
  192.5850  168.6480  135.5770 C   0  0  0  0  0  3  0  0  0  0  0  0
  191.3360  168.6700  136.1960 C   0  0  0  0  0  3  0  0  0  0  0  0
  191.8600  170.8320  137.1710 C   0  0  0  0  0  0  0  0  0  0  0  0
  192.5130  173.0770  137.9130 N   0  0  0  0  0  2  0  0  0  0  0  0
  191.9500  174.1750  137.3350 O   0  0  0  0  0  0  0  0  0  0  0  0
  193.2550  175.1240  136.7940 P   0  0  0  0  0  0  0  0  0  0  0  0
  194.1150  175.4930  137.9820 O   0  0  0  0  0  1  0  0  0  0  0  0
  192.6590  176.5520  136.0850 O   0  0  0  0  0  1  0  0  0  0  0  0
  194.2010  174.2820  135.6560 O   0  0  0  0  0  0  0  0  0  0  0  0
  190.3140  176.0270  143.5390 C   0  0  2  0  0  3  0  0  0  0  0  0
  191.9510  175.5390  145.3020 C   0  0  0  0  0  3  0  0  0  0  0  0
  190.6840  175.4200  144.8800 C   0  0  0  0  0  0  0  0  0  0  0  0
  191.0270  177.3610  143.3730 C   0  0  0  0  0  2  0  0  0  0  0  0
  192.5160  177.0930  143.3870 C   0  0  0  0  0  2  0  0  0  0  0  0
  192.9150  176.3400  144.5840 N   0  0  0  0  0  0  0  0  0  0  0  0
  194.2970  176.4940  145.0750 C   0  0  1  0  0  3  0  0  0  0  0  0
  194.3640  176.8740  146.5590 C   0  0  0  0  0  1  0  0  0  0  0  0
  195.6120  174.6740  145.9720 O   0  0  0  0  0  1  0  0  0  0  0  0
  195.1200  175.2320  144.7840 C   0  0  2  0  0  3  0  0  0  0  0  0
  196.2690  175.5210  143.8300 C   0  0  0  0  0  2  0  0  0  0  0  0
  196.3660  176.9100  143.6010 O   0  0  0  0  0  1  0  0  0  0  0  0
  189.7580  174.5840  145.6710 C   0  0  0  0  0  3  0  0  0  0  0  0
  189.0620  175.0150  146.7300 C   0  0  0  0  0  3  0  0  0  0  0  0
  189.1710  176.4040  147.2900 C   0  0  0  0  0  2  0  0  0  0  0  0
  188.3260  177.2940  146.6030 O   0  0  0  0  0  0  0  0  0  0  0  0
  187.0290  176.8270  146.8410 C   0  0  0  0  0  2  0  0  0  0  0  0
  184.9310  178.2020  146.5190 C   0  0  0  0  0  2  0  0  0  0  0  0
  186.7790  178.2690  144.8470 C   0  0  0  0  0  2  0  0  0  0  0  0
  186.0290  177.3790  145.8340 C   0  0  0  0  0  3  0  0  0  0  0  0
  183.9640  178.7560  145.4760 C   0  0  0  0  0  2  0  0  0  0  0  0
  184.7140  179.6520  144.4900 C   0  0  0  0  0  2  0  0  0  0  0  0
  185.8270  178.8580  143.8100 C   0  0  0  0  0  2  0  0  0  0  0  0
  1  2  2  0  0  0  0
  1  3  1  0  0  0  0
  4  5  2  0  0  0  0
  5  6  1  0  0  0  0
  5  1  1  0  0  0  0
  7  9  2  0  0  0  0
  7 10  1  0  0  0  0
  8  6  1  0  0  0  0
 10  8  1  0  0  0  0
 11 10  1  0  0  0  0
 11  4  1  0  0  0  0
 12 19  1  1  0  0  0
 12  7  1  0  0  0  0
 13 18  1  0  0  0  0
 14 18  2  0  0  0  0
 15 14  1  0  0  0  0
 16 15  2  0  0  0  0
 16 17  1  0  0  0  0
 17 13  2  0  0  0  0
 18 12  1  0  0  0  0
 20 19  1  0  0  0  0
 21 20  1  0  0  0  0
 21 22  1  0  0  0  0
 23 21  1  0  0  0  0
 24 21  2  0  0  0  0
 25  3  1  1  0  0  0
 25 27  1  0  0  0  0
 27 26  2  0  0  0  0
 27 37  1  0  0  0  0
 28 29  1  0  0  0  0
 28 25  1  0  0  0  0
 29 30  1  0  0  0  0
 30 31  1  0  0  0  0
 30 26  1  0  0  0  0
 31 32  1  1  0  0  0
 34 31  1  0  0  0  0
 34 33  1  1  0  0  0
 35 34  1  0  0  0  0
 36 35  1  0  0  0  0
 37 38  2  0  0  0  0
 38 39  1  0  0  0  0
 40 41  1  0  0  0  0
 40 39  1  0  0  0  0
 43 44  1  0  0  0  0
 44 42  1  0  0  0  0
 44 41  1  0  0  0  0
 45 42  1  0  0  0  0
 46 45  1  0  0  0  0
 47 46  1  0  0  0  0
 47 43  1  0  0  0  0
M  END
>  <MODEL>
1

>  <REMARK>
 VINA RESULT:      -7.0      0.000      0.000
  Name = 
  15 active torsions:
  status: ('A' for Active; 'I' for Inactive)
    1  A    between atoms: C_3  and  N_40
    2  A    between atoms: C_3  and  C_46
    3  A    between atoms: C_4  and  O_15
    4  A    between atoms: C_4  and  C_22
    5  A    between atoms: C_6  and  C_19
    6  A    between atoms: C_8  and  N_25
    7  A    between atoms: O_12  and  P_18
    8  A    between atoms: O_12  and  N_42
    9  A    between atoms: C_14  and  C_28
   10  A    between atoms: O_15  and  C_45
   11  A    between atoms: C_16  and  C_46
   12  A    between atoms: C_24  and  C_30
   13  A    between atoms: C_30  and  C_37
   14  A    between atoms: C_30  and  N_42
   15  A    between atoms: C_45  and  C_47
                            x       y       z     vdW  Elec       q    Type
                         _______ _______ _______ _____ _____    ______ ____

>  <TORSDO>
F 15

$$$$
=
 OpenBabel11072409053D

 47 50  0  0  1  0  0  0  0  0999 V2000
  194.1260  176.7090  145.2990 C   0  0  0  0  0  0  0  0  0  0  0  0
  194.9160  177.6160  145.7570 N   0  0  0  0  0  2  0  0  0  0  0  0
  194.6820  175.6410  144.5220 N   0  0  0  0  0  2  0  0  0  0  0  0
  191.9190  177.4730  144.6020 C   0  0  0  0  0  3  0  0  0  0  0  0
  192.6710  176.8540  145.5090 C   0  0  0  0  0  0  0  0  0  0  0  0
  192.0730  176.3740  146.7150 N   0  0  0  0  0  2  0  0  0  0  0  0
  188.5220  176.4130  145.8120 C   0  0  0  0  0  0  0  0  0  0  0  0
  190.6770  176.6630  147.0470 C   0  0  0  0  0  2  0  0  0  0  0  0
  188.0980  175.6740  146.7460 O   0  0  0  0  0  0  0  0  0  0  0  0
  189.8930  176.8420  145.8260 N   0  0  0  0  0  0  0  0  0  0  0  0
  190.4460  177.7050  144.7880 C   0  0  0  0  0  2  0  0  0  0  0  0
  187.5890  176.7550  144.6670 C   0  0  2  0  0  3  0  0  0  0  0  0
  185.4290  176.9830  145.9950 C   0  0  0  0  0  3  0  0  0  0  0  0
  186.0630  178.7150  144.4220 C   0  0  0  0  0  3  0  0  0  0  0  0
  184.9080  179.4280  144.7500 C   0  0  0  0  0  3  0  0  0  0  0  0
  184.0180  178.9230  145.7060 C   0  0  0  0  0  3  0  0  0  0  0  0
  184.2790  177.7020  146.3260 C   0  0  0  0  0  3  0  0  0  0  0  0
  186.3340  177.4960  145.0470 C   0  0  0  0  0  0  0  0  0  0  0  0
  187.2930  175.6010  143.8190 N   0  0  0  0  0  2  0  0  0  0  0  0
  186.7420  176.0350  142.6510 O   0  0  0  0  0  0  0  0  0  0  0  0
  188.0530  176.3010  141.6000 P   0  0  0  0  0  0  0  0  0  0  0  0
  189.2740  175.6030  142.1570 O   0  0  0  0  0  1  0  0  0  0  0  0
  188.3720  177.9700  141.5070 O   0  0  0  0  0  1  0  0  0  0  0  0
  187.7260  175.7020  140.0390 O   0  0  0  0  0  0  0  0  0  0  0  0
  193.9230  174.4800  144.0790 C   0  0  2  0  0  3  0  0  0  0  0  0
  192.2590  173.8440  142.3900 C   0  0  0  0  0  3  0  0  0  0  0  0
  193.2360  174.6910  142.7420 C   0  0  0  0  0  0  0  0  0  0  0  0
  192.8910  174.0680  145.1180 C   0  0  0  0  0  2  0  0  0  0  0  0
  192.2870  172.7540  144.6730 C   0  0  0  0  0  2  0  0  0  0  0  0
  191.7630  172.8400  143.3030 N   0  0  0  0  0  0  0  0  0  0  0  0
  190.6630  171.9360  142.9200 C   0  0  1  0  0  3  0  0  0  0  0  0
  189.3970  172.1470  143.7580 C   0  0  0  0  0  1  0  0  0  0  0  0
  189.0250  172.4010  141.2030 O   0  0  0  0  0  1  0  0  0  0  0  0
  190.3650  172.0500  141.4190 C   0  0  2  0  0  3  0  0  0  0  0  0
  190.6900  170.7580  140.6840 C   0  0  0  0  0  2  0  0  0  0  0  0
  191.9530  170.8630  140.0630 O   0  0  0  0  0  1  0  0  0  0  0  0
  193.6870  175.6890  141.7510 C   0  0  0  0  0  3  0  0  0  0  0  0
  194.7590  175.5460  140.9620 C   0  0  0  0  0  3  0  0  0  0  0  0
  195.6830  174.3630  141.0170 C   0  0  0  0  0  2  0  0  0  0  0  0
  196.9660  174.7450  141.4470 O   0  0  0  0  0  0  0  0  0  0  0  0
  197.5230  173.5920  142.0110 C   0  0  0  0  0  2  0  0  0  0  0  0
  196.5990  171.6910  143.3990 C   0  0  0  0  0  2  0  0  0  0  0  0
  197.7190  173.6390  144.4760 C   0  0  0  0  0  2  0  0  0  0  0  0
  196.8340  173.2040  143.3130 C   0  0  0  0  0  3  0  0  0  0  0  0
  195.9290  171.3390  144.7250 C   0  0  0  0  0  2  0  0  0  0  0  0
  196.8180  171.7710  145.8900 C   0  0  0  0  0  2  0  0  0  0  0  0
  197.0830  173.2720  145.8140 C   0  0  0  0  0  2  0  0  0  0  0  0
  1  5  1  0  0  0  0
  1  2  2  0  0  0  0
  3  1  1  0  0  0  0
  4 11  1  0  0  0  0
  4  5  2  0  0  0  0
  5  6  1  0  0  0  0
  6  8  1  0  0  0  0
  7 10  1  0  0  0  0
  7  9  2  0  0  0  0
 10  8  1  0  0  0  0
 11 10  1  0  0  0  0
 12 19  1  1  0  0  0
 12 18  1  0  0  0  0
 12  7  1  0  0  0  0
 13 17  1  0  0  0  0
 14 15  2  0  0  0  0
 14 18  1  0  0  0  0
 15 16  1  0  0  0  0
 16 17  2  0  0  0  0
 18 13  2  0  0  0  0
 20 19  1  0  0  0  0
 21 22  1  0  0  0  0
 21 20  1  0  0  0  0
 23 21  1  0  0  0  0
 24 21  2  0  0  0  0
 25  3  1  1  0  0  0
 25 28  1  0  0  0  0
 26 27  2  0  0  0  0
 26 30  1  0  0  0  0
 27 25  1  0  0  0  0
 29 28  1  0  0  0  0
 30 29  1  0  0  0  0
 31 30  1  0  0  0  0
 31 32  1  1  0  0  0
 34 33  1  1  0  0  0
 34 31  1  0  0  0  0
 35 34  1  0  0  0  0
 36 35  1  0  0  0  0
 37 27  1  0  0  0  0
 38 39  1  0  0  0  0
 38 37  2  0  0  0  0
 39 40  1  0  0  0  0
 40 41  1  0  0  0  0
 41 44  1  0  0  0  0
 42 45  1  0  0  0  0
 43 47  1  0  0  0  0
 44 42  1  0  0  0  0
 44 43  1  0  0  0  0
 45 46  1  0  0  0  0
 47 46  1  0  0  0  0
M  END
>  <MODEL>
2

>  <REMARK>
 VINA RESULT:      -6.8      3.232      9.393
  Name = 
  15 active torsions:
  status: ('A' for Active; 'I' for Inactive)
    1  A    between atoms: C_3  and  N_40
    2  A    between atoms: C_3  and  C_46
    3  A    between atoms: C_4  and  O_15
    4  A    between atoms: C_4  and  C_22
    5  A    between atoms: C_6  and  C_19
    6  A    between atoms: C_8  and  N_25
    7  A    between atoms: O_12  and  P_18
    8  A    between atoms: O_12  and  N_42
    9  A    between atoms: C_14  and  C_28
   10  A    between atoms: O_15  and  C_45
   11  A    between atoms: C_16  and  C_46
   12  A    between atoms: C_24  and  C_30
   13  A    between atoms: C_30  and  C_37
   14  A    between atoms: C_30  and  N_42
   15  A    between atoms: C_45  and  C_47
                            x       y       z     vdW  Elec       q    Type
                         _______ _______ _______ _____ _____    ______ ____

>  <TORSDO>
F 15

$$$$
=
 OpenBabel11072409053D

 47 50  0  0  1  0  0  0  0  0999 V2000
  194.3240  177.0280  145.0290 C   0  0  0  0  0  0  0  0  0  0  0  0
  195.0640  177.7880  145.7580 N   0  0  0  0  0  2  0  0  0  0  0  0
  194.9280  176.3150  143.9430 N   0  0  0  0  0  2  0  0  0  0  0  0
  192.0400  177.7180  144.5320 C   0  0  0  0  0  3  0  0  0  0  0  0
  192.8680  176.9940  145.2800 C   0  0  0  0  0  0  0  0  0  0  0  0
  192.3490  176.2190  146.3620 N   0  0  0  0  0  2  0  0  0  0  0  0
  188.7840  176.1240  145.5250 C   0  0  0  0  0  0  0  0  0  0  0  0
  190.9440  176.3040  146.7620 C   0  0  0  0  0  2  0  0  0  0  0  0
  188.4520  175.1710  146.2850 O   0  0  0  0  0  0  0  0  0  0  0  0
  190.1120  176.6630  145.6150 N   0  0  0  0  0  0  0  0  0  0  0  0
  190.5570  177.7710  144.7770 C   0  0  0  0  0  2  0  0  0  0  0  0
  187.7920  176.6130  144.4880 C   0  0  2  0  0  3  0  0  0  0  0  0
  185.6780  176.7380  145.9020 C   0  0  0  0  0  3  0  0  0  0  0  0
  186.3890  178.6720  144.6250 C   0  0  0  0  0  3  0  0  0  0  0  0
  185.2890  179.3870  145.1050 C   0  0  0  0  0  3  0  0  0  0  0  0
  184.3890  178.7800  145.9890 C   0  0  0  0  0  3  0  0  0  0  0  0
  184.5840  177.4570  146.3860 C   0  0  0  0  0  3  0  0  0  0  0  0
  186.5950  177.3510  145.0260 C   0  0  0  0  0  0  0  0  0  0  0  0
  187.3950  175.5620  143.5500 N   0  0  0  0  0  2  0  0  0  0  0  0
  186.6490  176.1130  142.5520 O   0  0  0  0  0  0  0  0  0  0  0  0
  187.7550  176.5010  141.3180 P   0  0  0  0  0  0  0  0  0  0  0  0
  188.8490  175.4570  141.2980 O   0  0  0  0  0  1  0  0  0  0  0  0
  188.4530  178.0190  141.6420 O   0  0  0  0  0  1  0  0  0  0  0  0
  186.9920  176.5450  139.7960 O   0  0  0  0  0  0  0  0  0  0  0  0
  194.2350  175.3130  143.1440 C   0  0  2  0  0  3  0  0  0  0  0  0
  194.7150  173.4610  141.6070 C   0  0  0  0  0  3  0  0  0  0  0  0
  195.1590  174.2360  142.6070 C   0  0  0  0  0  0  0  0  0  0  0  0
  193.4800  175.9560  141.9900 C   0  0  0  0  0  2  0  0  0  0  0  0
  192.6400  174.8820  141.3340 C   0  0  0  0  0  2  0  0  0  0  0  0
  193.4540  173.7210  140.9510 N   0  0  0  0  0  0  0  0  0  0  0  0
  192.9910  172.8850  139.8280 C   0  0  1  0  0  3  0  0  0  0  0  0
  192.9370  171.3930  140.1770 C   0  0  0  0  0  1  0  0  0  0  0  0
  190.6390  172.4250  139.5120 O   0  0  0  0  0  1  0  0  0  0  0  0
  191.6400  173.3840  139.3020 C   0  0  2  0  0  3  0  0  0  0  0  0
  191.7130  173.7450  137.8260 C   0  0  0  0  0  2  0  0  0  0  0  0
  191.2330  172.6710  137.0440 O   0  0  0  0  0  1  0  0  0  0  0  0
  196.4590  173.9050  143.2250 C   0  0  0  0  0  3  0  0  0  0  0  0
  196.7260  172.7610  143.8660 C   0  0  0  0  0  3  0  0  0  0  0  0
  195.7140  171.6750  144.0910 C   0  0  0  0  0  2  0  0  0  0  0  0
  194.8610  171.9940  145.1630 O   0  0  0  0  0  0  0  0  0  0  0  0
  193.7410  171.1720  144.9990 C   0  0  0  0  0  2  0  0  0  0  0  0
  191.5770  170.8230  143.7370 C   0  0  0  0  0  2  0  0  0  0  0  0
  192.0720  172.9910  144.8620 C   0  0  0  0  0  2  0  0  0  0  0  0
  192.6850  171.8150  144.1090 C   0  0  0  0  0  3  0  0  0  0  0  0
  190.5290  171.5100  142.8670 C   0  0  0  0  0  2  0  0  0  0  0  0
  189.9100  172.6850  143.6230 C   0  0  0  0  0  2  0  0  0  0  0  0
  190.9990  173.6780  144.0220 C   0  0  0  0  0  2  0  0  0  0  0  0
  1  5  1  0  0  0  0
  1  2  2  0  0  0  0
  3  1  1  0  0  0  0
  4 11  1  0  0  0  0
  4  5  2  0  0  0  0
  5  6  1  0  0  0  0
  6  8  1  0  0  0  0
  7 10  1  0  0  0  0
  7  9  2  0  0  0  0
 10  8  1  0  0  0  0
 11 10  1  0  0  0  0
 12 19  1  1  0  0  0
 12 18  1  0  0  0  0
 12  7  1  0  0  0  0
 13 17  1  0  0  0  0
 14 18  1  0  0  0  0
 14 15  2  0  0  0  0
 15 16  1  0  0  0  0
 16 17  2  0  0  0  0
 18 13  2  0  0  0  0
 20 19  1  0  0  0  0
 21 23  1  0  0  0  0
 21 20  1  0  0  0  0
 22 21  1  0  0  0  0
 24 21  2  0  0  0  0
 25  3  1  6  0  0  0
 26 27  2  0  0  0  0
 27 25  1  0  0  0  0
 27 37  1  0  0  0  0
 28 25  1  0  0  0  0
 29 28  1  0  0  0  0
 30 29  1  0  0  0  0
 30 26  1  0  0  0  0
 31 32  1  1  0  0  0
 31 30  1  0  0  0  0
 34 33  1  6  0  0  0
 34 31  1  0  0  0  0
 35 34  1  0  0  0  0
 36 35  1  0  0  0  0
 37 38  2  0  0  0  0
 38 39  1  0  0  0  0
 39 40  1  0  0  0  0
 41 40  1  0  0  0  0
 42 44  1  0  0  0  0
 44 43  1  0  0  0  0
 44 41  1  0  0  0  0
 45 46  1  0  0  0  0
 45 42  1  0  0  0  0
 46 47  1  0  0  0  0
 47 43  1  0  0  0  0
M  END
>  <MODEL>
3

>  <REMARK>
 VINA RESULT:      -6.7      2.874      8.631
  Name = 
  15 active torsions:
  status: ('A' for Active; 'I' for Inactive)
    1  A    between atoms: C_3  and  N_40
    2  A    between atoms: C_3  and  C_46
    3  A    between atoms: C_4  and  O_15
    4  A    between atoms: C_4  and  C_22
    5  A    between atoms: C_6  and  C_19
    6  A    between atoms: C_8  and  N_25
    7  A    between atoms: O_12  and  P_18
    8  A    between atoms: O_12  and  N_42
    9  A    between atoms: C_14  and  C_28
   10  A    between atoms: O_15  and  C_45
   11  A    between atoms: C_16  and  C_46
   12  A    between atoms: C_24  and  C_30
   13  A    between atoms: C_30  and  C_37
   14  A    between atoms: C_30  and  N_42
   15  A    between atoms: C_45  and  C_47
                            x       y       z     vdW  Elec       q    Type
                         _______ _______ _______ _____ _____    ______ ____

>  <TORSDO>
F 15

$$$$
=
 OpenBabel11072409053D

 47 50  0  0  1  0  0  0  0  0999 V2000
  194.1320  176.5730  145.7680 C   0  0  0  0  0  0  0  0  0  0  0  0
  194.1690  177.2040  146.8910 N   0  0  0  0  0  2  0  0  0  0  0  0
  195.3570  176.3680  145.0550 N   0  0  0  0  0  2  0  0  0  0  0  0
  192.2250  176.9190  144.2910 C   0  0  0  0  0  3  0  0  0  0  0  0
  192.8220  176.1720  145.2160 C   0  0  0  0  0  0  0  0  0  0  0  0
  192.1670  175.0020  145.7110 N   0  0  0  0  0  2  0  0  0  0  0  0
  189.6080  174.4770  143.1430 C   0  0  0  0  0  0  0  0  0  0  0  0
  190.7930  174.6720  145.3300 C   0  0  0  0  0  2  0  0  0  0  0  0
  189.3130  173.2830  143.4340 O   0  0  0  0  0  0  0  0  0  0  0  0
  190.4920  175.2100  144.0050 N   0  0  0  0  0  0  0  0  0  0  0  0
  190.8660  176.5940  143.7360 C   0  0  0  0  0  2  0  0  0  0  0  0
  189.0820  175.0670  141.8490 C   0  0  2  0  0  3  0  0  0  0  0  0
  187.0710  175.9330  143.1480 C   0  0  0  0  0  3  0  0  0  0  0  0
  187.4720  176.7140  140.8880 C   0  0  0  0  0  3  0  0  0  0  0  0
  186.3350  177.5210  140.9710 C   0  0  0  0  0  3  0  0  0  0  0  0
  185.5710  177.5400  142.1440 C   0  0  0  0  0  3  0  0  0  0  0  0
  185.9390  176.7460  143.2300 C   0  0  0  0  0  3  0  0  0  0  0  0
  187.8510  175.9240  141.9760 C   0  0  0  0  0  0  0  0  0  0  0  0
  188.9300  174.0640  140.7940 N   0  0  0  0  0  2  0  0  0  0  0  0
  190.1360  173.8600  140.1940 O   0  0  0  0  0  0  0  0  0  0  0  0
  189.7760  173.3320  138.6170 P   0  0  0  0  0  0  0  0  0  0  0  0
  190.6920  174.0400  137.6450 O   0  0  0  0  0  0  0  0  0  0  0  0
  188.1650  173.7310  138.2410 O   0  0  0  0  0  1  0  0  0  0  0  0
  189.9900  171.6480  138.4660 O   0  0  0  0  0  1  0  0  0  0  0  0
  195.4710  175.5430  143.8590 C   0  0  2  0  0  3  0  0  0  0  0  0
  197.0200  173.9660  142.7940 C   0  0  0  0  0  3  0  0  0  0  0  0
  196.6080  174.5410  143.9320 C   0  0  0  0  0  0  0  0  0  0  0  0
  195.6320  176.4020  142.6140 C   0  0  0  0  0  2  0  0  0  0  0  0
  195.5490  175.4890  141.4100 C   0  0  0  0  0  2  0  0  0  0  0  0
  196.5080  174.3810  141.5080 N   0  0  0  0  0  0  0  0  0  0  0  0
  196.9940  173.7670  140.2580 C   0  0  1  0  0  3  0  0  0  0  0  0
  197.1230  172.2430  140.3520 C   0  0  0  0  0  1  0  0  0  0  0  0
  195.4100  173.0790  138.5670 O   0  0  0  0  0  1  0  0  0  0  0  0
  196.1140  174.1810  139.0730 C   0  0  2  0  0  3  0  0  0  0  0  0
  196.9320  174.8280  137.9660 C   0  0  0  0  0  2  0  0  0  0  0  0
  197.9410  175.6410  138.5270 O   0  0  0  0  0  1  0  0  0  0  0  0
  197.1800  174.0610  145.2060 C   0  0  0  0  0  3  0  0  0  0  0  0
  196.8260  172.9240  145.8180 C   0  0  0  0  0  3  0  0  0  0  0  0
  195.7520  172.0040  145.3120 C   0  0  0  0  0  2  0  0  0  0  0  0
  194.4780  172.4560  145.6980 O   0  0  0  0  0  0  0  0  0  0  0  0
  193.5740  171.6390  145.0110 C   0  0  0  0  0  2  0  0  0  0  0  0
  193.3490  170.3530  142.8460 C   0  0  0  0  0  2  0  0  0  0  0  0
  193.0560  172.8270  142.9050 C   0  0  0  0  0  2  0  0  0  0  0  0
  193.8200  171.6530  143.5080 C   0  0  0  0  0  3  0  0  0  0  0  0
  193.5900  170.4150  141.3400 C   0  0  0  0  0  2  0  0  0  0  0  0
  192.8200  171.5880  140.7340 C   0  0  0  0  0  2  0  0  0  0  0  0
  193.2590  172.8940  141.3940 C   0  0  0  0  0  2  0  0  0  0  0  0
  1  2  2  0  0  0  0
  3  1  1  0  0  0  0
  4  5  2  0  0  0  0
  5  6  1  0  0  0  0
  5  1  1  0  0  0  0
  7  9  2  0  0  0  0
  7 10  1  0  0  0  0
  8  6  1  0  0  0  0
 10  8  1  0  0  0  0
 11 10  1  0  0  0  0
 11  4  1  0  0  0  0
 12 19  1  6  0  0  0
 12 18  1  0  0  0  0
 12  7  1  0  0  0  0
 13 17  1  0  0  0  0
 14 15  2  0  0  0  0
 14 18  1  0  0  0  0
 15 16  1  0  0  0  0
 16 17  2  0  0  0  0
 18 13  2  0  0  0  0
 20 19  1  0  0  0  0
 21 20  1  0  0  0  0
 22 21  2  0  0  0  0
 23 21  1  0  0  0  0
 24 21  1  0  0  0  0
 25 27  1  0  0  0  0
 25  3  1  1  0  0  0
 26 27  2  0  0  0  0
 27 37  1  0  0  0  0
 28 25  1  0  0  0  0
 29 30  1  0  0  0  0
 29 28  1  0  0  0  0
 30 26  1  0  0  0  0
 31 32  1  1  0  0  0
 31 30  1  0  0  0  0
 34 33  1  6  0  0  0
 34 31  1  0  0  0  0
 35 36  1  0  0  0  0
 35 34  1  0  0  0  0
 37 38  2  0  0  0  0
 39 40  1  0  0  0  0
 39 38  1  0  0  0  0
 41 40  1  0  0  0  0
 42 44  1  0  0  0  0
 43 44  1  0  0  0  0
 44 41  1  0  0  0  0
 45 42  1  0  0  0  0
 46 45  1  0  0  0  0
 46 47  1  0  0  0  0
 47 43  1  0  0  0  0
M  END
>  <MODEL>
4

>  <REMARK>
 VINA RESULT:      -6.6      3.075      7.623
  Name = 
  15 active torsions:
  status: ('A' for Active; 'I' for Inactive)
    1  A    between atoms: C_3  and  N_40
    2  A    between atoms: C_3  and  C_46
    3  A    between atoms: C_4  and  O_15
    4  A    between atoms: C_4  and  C_22
    5  A    between atoms: C_6  and  C_19
    6  A    between atoms: C_8  and  N_25
    7  A    between atoms: O_12  and  P_18
    8  A    between atoms: O_12  and  N_42
    9  A    between atoms: C_14  and  C_28
   10  A    between atoms: O_15  and  C_45
   11  A    between atoms: C_16  and  C_46
   12  A    between atoms: C_24  and  C_30
   13  A    between atoms: C_30  and  C_37
   14  A    between atoms: C_30  and  N_42
   15  A    between atoms: C_45  and  C_47
                            x       y       z     vdW  Elec       q    Type
                         _______ _______ _______ _____ _____    ______ ____

>  <TORSDO>
F 15

$$$$
=
 OpenBabel11072409053D

 47 50  0  0  1  0  0  0  0  0999 V2000
  188.2160  175.2310  142.3110 C   0  0  0  0  0  0  0  0  0  0  0  0
  186.9310  175.2640  142.3860 N   0  0  0  0  0  2  0  0  0  0  0  0
  188.9810  175.9170  143.3080 N   0  0  0  0  0  2  0  0  0  0  0  0
  190.0540  174.0200  141.2640 C   0  0  0  0  0  3  0  0  0  0  0  0
  188.8470  174.5700  141.1500 C   0  0  0  0  0  0  0  0  0  0  0  0
  188.1830  174.5630  139.8850 N   0  0  0  0  0  2  0  0  0  0  0  0
  190.0980  172.0080  138.0890 C   0  0  0  0  0  0  0  0  0  0  0  0
  188.8490  174.0890  138.6710 C   0  0  0  0  0  2  0  0  0  0  0  0
  189.2770  171.8030  137.1510 O   0  0  0  0  0  0  0  0  0  0  0  0
  189.8590  173.0870  139.0060 N   0  0  0  0  0  0  0  0  0  0  0  0
  190.7720  173.3870  140.1050 C   0  0  0  0  0  2  0  0  0  0  0  0
  191.2660  171.0560  138.2610 C   0  0  2  0  0  3  0  0  0  0  0  0
  191.4030  169.1000  136.6380 C   0  0  0  0  0  3  0  0  0  0  0  0
  192.6450  171.1310  136.1830 C   0  0  0  0  0  3  0  0  0  0  0  0
  193.1340  170.5620  135.0040 C   0  0  0  0  0  3  0  0  0  0  0  0
  192.7510  169.2660  134.6390 C   0  0  0  0  0  3  0  0  0  0  0  0
  191.8870  168.5370  135.4560 C   0  0  0  0  0  3  0  0  0  0  0  0
  191.7720  170.4090  136.9990 C   0  0  0  0  0  0  0  0  0  0  0  0
  191.0360  170.0670  139.3140 N   0  0  0  0  0  2  0  0  0  0  0  0
  191.9920  170.2060  140.2750 O   0  0  0  0  0  0  0  0  0  0  0  0
  191.2810  169.6340  141.7110 P   0  0  0  0  0  0  0  0  0  0  0  0
  190.3040  170.6710  142.2180 O   0  0  0  0  0  1  0  0  0  0  0  0
  192.4900  169.4000  142.8860 O   0  0  0  0  0  1  0  0  0  0  0  0
  190.4570  168.1660  141.4500 O   0  0  0  0  0  0  0  0  0  0  0  0
  190.4310  175.8300  143.4210 C   0  0  2  0  0  3  0  0  0  0  0  0
  192.1720  175.4040  145.0980 C   0  0  0  0  0  3  0  0  0  0  0  0
  190.8920  175.2350  144.7390 C   0  0  0  0  0  0  0  0  0  0  0  0
  191.0800  177.1920  143.2250 C   0  0  0  0  0  2  0  0  0  0  0  0
  192.5780  176.9840  143.1650 C   0  0  0  0  0  2  0  0  0  0  0  0
  193.0660  176.2440  144.3360 N   0  0  0  0  0  0  0  0  0  0  0  0
  194.4640  176.4530  144.7580 C   0  0  1  0  0  3  0  0  0  0  0  0
  194.5780  177.1170  146.1350 C   0  0  0  0  0  1  0  0  0  0  0  0
  195.5330  174.6760  146.0000 O   0  0  0  0  0  1  0  0  0  0  0  0
  195.2480  175.1350  144.7070 C   0  0  2  0  0  3  0  0  0  0  0  0
  196.5360  175.2810  143.9110 C   0  0  0  0  0  2  0  0  0  0  0  0
  196.4940  174.4470  142.7720 O   0  0  0  0  0  1  0  0  0  0  0  0
  190.0410  174.3600  145.5710 C   0  0  0  0  0  3  0  0  0  0  0  0
  189.3380  174.7720  146.6330 C   0  0  0  0  0  3  0  0  0  0  0  0
  189.3630  176.1790  147.1550 C   0  0  0  0  0  2  0  0  0  0  0  0
  188.5180  177.0130  146.4020 O   0  0  0  0  0  0  0  0  0  0  0  0
  187.2270  176.7530  146.8760 C   0  0  0  0  0  2  0  0  0  0  0  0
  185.1250  178.1450  146.6810 C   0  0  0  0  0  2  0  0  0  0  0  0
  186.8310  178.1350  144.8640 C   0  0  0  0  0  2  0  0  0  0  0  0
  186.1550  177.2870  145.9360 C   0  0  0  0  0  3  0  0  0  0  0  0
  184.0830  178.6800  145.7040 C   0  0  0  0  0  2  0  0  0  0  0  0
  184.7590  179.5340  144.6320 C   0  0  0  0  0  2  0  0  0  0  0  0
  185.8040  178.7050  143.8890 C   0  0  0  0  0  2  0  0  0  0  0  0
  1  2  2  0  0  0  0
  1  3  1  0  0  0  0
  5  4  2  0  0  0  0
  5  1  1  0  0  0  0
  6  5  1  0  0  0  0
  7 10  1  0  0  0  0
  8 10  1  0  0  0  0
  8  6  1  0  0  0  0
  9  7  2  0  0  0  0
 10 11  1  0  0  0  0
 11  4  1  0  0  0  0
 12  7  1  6  0  0  0
 12 19  1  0  0  0  0
 13 18  1  0  0  0  0
 14 18  2  0  0  0  0
 15 14  1  0  0  0  0
 16 15  2  0  0  0  0
 16 17  1  0  0  0  0
 17 13  2  0  0  0  0
 18 12  1  0  0  0  0
 19 20  1  0  0  0  0
 20 21  1  0  0  0  0
 21 22  1  0  0  0  0
 21 23  1  0  0  0  0
 24 21  2  0  0  0  0
 25  3  1  1  0  0  0
 25 27  1  0  0  0  0
 27 26  2  0  0  0  0
 27 37  1  0  0  0  0
 28 25  1  0  0  0  0
 29 28  1  0  0  0  0
 29 30  1  0  0  0  0
 30 31  1  0  0  0  0
 30 26  1  0  0  0  0
 31 32  1  1  0  0  0
 34 31  1  0  0  0  0
 34 33  1  1  0  0  0
 35 34  1  0  0  0  0
 36 35  1  0  0  0  0
 37 38  2  0  0  0  0
 38 39  1  0  0  0  0
 40 41  1  0  0  0  0
 40 39  1  0  0  0  0
 43 44  1  0  0  0  0
 44 42  1  0  0  0  0
 44 41  1  0  0  0  0
 45 42  1  0  0  0  0
 46 45  1  0  0  0  0
 47 46  1  0  0  0  0
 47 43  1  0  0  0  0
M  END
>  <MODEL>
5

>  <REMARK>
 VINA RESULT:      -6.5      2.118      2.910
  Name = 
  15 active torsions:
  status: ('A' for Active; 'I' for Inactive)
    1  A    between atoms: C_3  and  N_40
    2  A    between atoms: C_3  and  C_46
    3  A    between atoms: C_4  and  O_15
    4  A    between atoms: C_4  and  C_22
    5  A    between atoms: C_6  and  C_19
    6  A    between atoms: C_8  and  N_25
    7  A    between atoms: O_12  and  P_18
    8  A    between atoms: O_12  and  N_42
    9  A    between atoms: C_14  and  C_28
   10  A    between atoms: O_15  and  C_45
   11  A    between atoms: C_16  and  C_46
   12  A    between atoms: C_24  and  C_30
   13  A    between atoms: C_30  and  C_37
   14  A    between atoms: C_30  and  N_42
   15  A    between atoms: C_45  and  C_47
                            x       y       z     vdW  Elec       q    Type
                         _______ _______ _______ _____ _____    ______ ____

>  <TORSDO>
F 15

$$$$
=
 OpenBabel11072409053D

 47 50  0  0  1  0  0  0  0  0999 V2000
  189.1950  172.5210  140.0810 C   0  0  0  0  0  0  0  0  0  0  0  0
  188.5170  172.2730  139.0150 N   0  0  0  0  0  2  0  0  0  0  0  0
  190.2950  171.6660  140.4110 N   0  0  0  0  0  2  0  0  0  0  0  0
  188.4880  173.3770  142.2510 C   0  0  0  0  0  3  0  0  0  0  0  0
  188.7560  173.6170  140.9690 C   0  0  0  0  0  0  0  0  0  0  0  0
  188.5670  174.9320  140.4410 N   0  0  0  0  0  2  0  0  0  0  0  0
  188.3920  176.9160  143.5160 C   0  0  0  0  0  0  0  0  0  0  0  0
  187.9570  175.9980  141.2360 C   0  0  0  0  0  2  0  0  0  0  0  0
  188.5770  178.0540  142.9990 O   0  0  0  0  0  0  0  0  0  0  0  0
  188.2110  175.7780  142.6590 N   0  0  0  0  0  0  0  0  0  0  0  0
  187.9800  174.4380  143.1880 C   0  0  0  0  0  2  0  0  0  0  0  0
  188.4460  176.7790  145.0250 C   0  0  2  0  0  3  0  0  0  0  0  0
  187.3560  177.8930  147.0390 C   0  0  0  0  0  3  0  0  0  0  0  0
  185.9830  177.1470  145.1850 C   0  0  0  0  0  3  0  0  0  0  0  0
  184.8450  177.6110  145.8490 C   0  0  0  0  0  3  0  0  0  0  0  0
  184.9630  178.2230  147.1020 C   0  0  0  0  0  3  0  0  0  0  0  0
  186.2180  178.3630  147.6960 C   0  0  0  0  0  3  0  0  0  0  0  0
  187.2430  177.2930  145.7700 C   0  0  0  0  0  0  0  0  0  0  0  0
  189.6900  177.3020  145.5920 N   0  0  0  0  0  2  0  0  0  0  0  0
  190.6610  176.3520  145.4880 O   0  0  0  0  0  0  0  0  0  0  0  0
  190.9700  175.8400  147.0810 P   0  0  0  0  0  0  0  0  0  0  0  0
  192.2200  174.9890  147.0860 O   0  0  0  0  0  0  0  0  0  0  0  0
  189.6650  174.8990  147.6360 O   0  0  0  0  0  1  0  0  0  0  0  0
  191.1910  177.1680  148.1250 O   0  0  0  0  0  1  0  0  0  0  0  0
  191.2290  171.9270  141.4990 C   0  0  2  0  0  3  0  0  0  0  0  0
  193.6340  171.8590  141.9800 C   0  0  0  0  0  3  0  0  0  0  0  0
  192.6770  171.9590  141.0480 C   0  0  0  0  0  0  0  0  0  0  0  0
  191.0680  170.9080  142.6170 C   0  0  0  0  0  2  0  0  0  0  0  0
  191.9270  171.3590  143.7780 C   0  0  0  0  0  2  0  0  0  0  0  0
  193.3180  171.5870  143.3630 N   0  0  0  0  0  0  0  0  0  0  0  0
  194.3800  171.4430  144.3760 C   0  0  1  0  0  3  0  0  0  0  0  0
  194.0900  172.2290  145.6600 C   0  0  0  0  0  1  0  0  0  0  0  0
  194.5340  169.7050  146.0490 O   0  0  0  0  0  1  0  0  0  0  0  0
  194.6470  169.9630  144.6750 C   0  0  2  0  0  3  0  0  0  0  0  0
  196.0170  169.5290  144.1760 C   0  0  0  0  0  2  0  0  0  0  0  0
  196.6310  170.5900  143.4760 O   0  0  0  0  0  1  0  0  0  0  0  0
  193.0830  172.2390  139.6550 C   0  0  0  0  0  3  0  0  0  0  0  0
  193.4730  173.4370  139.2030 C   0  0  0  0  0  3  0  0  0  0  0  0
  193.4990  174.6780  140.0480 C   0  0  0  0  0  2  0  0  0  0  0  0
  194.7860  174.9100  140.5650 O   0  0  0  0  0  0  0  0  0  0  0  0
  194.6730  176.0830  141.3200 C   0  0  0  0  0  2  0  0  0  0  0  0
  194.7840  175.4330  143.7610 C   0  0  0  0  0  2  0  0  0  0  0  0
  196.7730  175.1970  142.2780 C   0  0  0  0  0  2  0  0  0  0  0  0
  195.5380  176.0420  142.5730 C   0  0  0  0  0  3  0  0  0  0  0  0
  195.6900  175.3870  144.9890 C   0  0  0  0  0  2  0  0  0  0  0  0
  196.9260  174.5370  144.6960 C   0  0  0  0  0  2  0  0  0  0  0  0
  197.6830  175.1140  143.5020 C   0  0  0  0  0  2  0  0  0  0  0  0
  1  3  1  0  0  0  0
  1  5  1  0  0  0  0
  2  1  2  0  0  0  0
  4 11  1  0  0  0  0
  5  4  2  0  0  0  0
  6  5  1  0  0  0  0
  6  8  1  0  0  0  0
  8 10  1  0  0  0  0
  9  7  2  0  0  0  0
 10 11  1  0  0  0  0
 10  7  1  0  0  0  0
 12  7  1  6  0  0  0
 12 19  1  0  0  0  0
 12 18  1  0  0  0  0
 13 17  1  0  0  0  0
 14 18  1  0  0  0  0
 14 15  2  0  0  0  0
 15 16  1  0  0  0  0
 16 17  2  0  0  0  0
 18 13  2  0  0  0  0
 20 19  1  0  0  0  0
 20 21  1  0  0  0  0
 21 22  2  0  0  0  0
 21 23  1  0  0  0  0
 21 24  1  0  0  0  0
 25  3  1  6  0  0  0
 25 28  1  0  0  0  0
 26 30  1  0  0  0  0
 27 25  1  0  0  0  0
 27 26  2  0  0  0  0
 28 29  1  0  0  0  0
 30 29  1  0  0  0  0
 30 31  1  0  0  0  0
 31 34  1  0  0  0  0
 31 32  1  1  0  0  0
 34 33  1  1  0  0  0
 35 34  1  0  0  0  0
 36 35  1  0  0  0  0
 37 27  1  0  0  0  0
 38 37  2  0  0  0  0
 38 39  1  0  0  0  0
 39 40  1  0  0  0  0
 40 41  1  0  0  0  0
 41 44  1  0  0  0  0
 42 45  1  0  0  0  0
 43 44  1  0  0  0  0
 43 47  1  0  0  0  0
 44 42  1  0  0  0  0
 46 45  1  0  0  0  0
 47 46  1  0  0  0  0
M  END
>  <MODEL>
6

>  <REMARK>
 VINA RESULT:      -6.4      3.281      9.018
  Name = 
  15 active torsions:
  status: ('A' for Active; 'I' for Inactive)
    1  A    between atoms: C_3  and  N_40
    2  A    between atoms: C_3  and  C_46
    3  A    between atoms: C_4  and  O_15
    4  A    between atoms: C_4  and  C_22
    5  A    between atoms: C_6  and  C_19
    6  A    between atoms: C_8  and  N_25
    7  A    between atoms: O_12  and  P_18
    8  A    between atoms: O_12  and  N_42
    9  A    between atoms: C_14  and  C_28
   10  A    between atoms: O_15  and  C_45
   11  A    between atoms: C_16  and  C_46
   12  A    between atoms: C_24  and  C_30
   13  A    between atoms: C_30  and  C_37
   14  A    between atoms: C_30  and  N_42
   15  A    between atoms: C_45  and  C_47
                            x       y       z     vdW  Elec       q    Type
                         _______ _______ _______ _____ _____    ______ ____

>  <TORSDO>
F 15

$$$$
=
 OpenBabel11072409053D

 47 50  0  0  1  0  0  0  0  0999 V2000
  194.0520  175.9920  145.2930 C   0  0  0  0  0  0  0  0  0  0  0  0
  194.9480  176.6900  145.8990 N   0  0  0  0  0  2  0  0  0  0  0  0
  194.4740  174.9920  144.3590 N   0  0  0  0  0  2  0  0  0  0  0  0
  191.9230  176.9290  144.5640 C   0  0  0  0  0  3  0  0  0  0  0  0
  192.6270  176.3140  145.5120 C   0  0  0  0  0  0  0  0  0  0  0  0
  192.0110  176.0090  146.7650 N   0  0  0  0  0  2  0  0  0  0  0  0
  188.4630  176.3570  145.9170 C   0  0  0  0  0  0  0  0  0  0  0  0
  190.6630  176.4760  147.0910 C   0  0  0  0  0  2  0  0  0  0  0  0
  187.9860  175.7530  146.9190 O   0  0  0  0  0  0  0  0  0  0  0  0
  189.8720  176.6320  145.8720 N   0  0  0  0  0  0  0  0  0  0  0  0
  190.4880  177.3360  144.7510 C   0  0  0  0  0  2  0  0  0  0  0  0
  187.5440  176.6970  144.7610 C   0  0  2  0  0  3  0  0  0  0  0  0
  186.0690  178.7510  144.4620 C   0  0  0  0  0  3  0  0  0  0  0  0
  185.4830  177.0780  146.1150 C   0  0  0  0  0  3  0  0  0  0  0  0
  184.3560  177.8250  146.4640 C   0  0  0  0  0  3  0  0  0  0  0  0
  184.0810  179.0300  145.8070 C   0  0  0  0  0  3  0  0  0  0  0  0
  184.9370  179.4920  144.8080 C   0  0  0  0  0  3  0  0  0  0  0  0
  186.3390  177.5300  145.1090 C   0  0  0  0  0  0  0  0  0  0  0  0
  187.1720  175.5220  143.9730 N   0  0  0  0  0  2  0  0  0  0  0  0
  187.1920  175.8470  142.6500 O   0  0  0  0  0  0  0  0  0  0  0  0
  188.1640  174.6650  141.9050 P   0  0  0  0  0  0  0  0  0  0  0  0
  187.4810  173.3220  142.0300 O   0  0  0  0  0  1  0  0  0  0  0  0
  189.6690  174.5900  142.6970 O   0  0  0  0  0  1  0  0  0  0  0  0
  188.4120  175.0190  140.2570 O   0  0  0  0  0  0  0  0  0  0  0  0
  193.5710  174.0390  143.7270 C   0  0  2  0  0  3  0  0  0  0  0  0
  193.2880  171.6190  143.4260 C   0  0  0  0  0  3  0  0  0  0  0  0
  193.8140  172.6060  144.1650 C   0  0  0  0  0  0  0  0  0  0  0  0
  193.6540  174.1270  142.2110 C   0  0  0  0  0  2  0  0  0  0  0  0
  192.5590  173.2540  141.6380 C   0  0  0  0  0  2  0  0  0  0  0  0
  192.6280  171.8860  142.1690 N   0  0  0  0  0  0  0  0  0  0  0  0
  192.0840  170.7900  141.3450 C   0  0  1  0  0  3  0  0  0  0  0  0
  190.5540  170.8210  141.2460 C   0  0  0  0  0  1  0  0  0  0  0  0
  192.2540  169.7130  139.1880 O   0  0  0  0  0  1  0  0  0  0  0  0
  192.7320  170.7840  139.9550 C   0  0  2  0  0  3  0  0  0  0  0  0
  194.2500  170.7210  140.0460 C   0  0  0  0  0  2  0  0  0  0  0  0
  194.6550  169.4280  140.4430 O   0  0  0  0  0  1  0  0  0  0  0  0
  194.4750  172.2520  145.4380 C   0  0  0  0  0  3  0  0  0  0  0  0
  195.7650  171.9120  145.5550 C   0  0  0  0  0  3  0  0  0  0  0  0
  196.7050  171.7950  144.3910 C   0  0  0  0  0  2  0  0  0  0  0  0
  197.5260  172.9320  144.2880 O   0  0  0  0  0  0  0  0  0  0  0  0
  197.9270  172.9770  142.9490 C   0  0  0  0  0  2  0  0  0  0  0  0
  196.8630  174.4660  141.2050 C   0  0  0  0  0  2  0  0  0  0  0  0
  197.3940  175.3320  143.4810 C   0  0  0  0  0  2  0  0  0  0  0  0
  197.8500  174.3850  142.3750 C   0  0  0  0  0  3  0  0  0  0  0  0
  196.7960  175.8950  140.6730 C   0  0  0  0  0  2  0  0  0  0  0  0
  196.3340  176.8440  141.7790 C   0  0  0  0  0  2  0  0  0  0  0  0
  197.2920  176.7650  142.9660 C   0  0  0  0  0  2  0  0  0  0  0  0
  1  5  1  0  0  0  0
  1  2  2  0  0  0  0
  3  1  1  0  0  0  0
  4 11  1  0  0  0  0
  4  5  2  0  0  0  0
  5  6  1  0  0  0  0
  6  8  1  0  0  0  0
  7  9  2  0  0  0  0
 10  7  1  0  0  0  0
 10  8  1  0  0  0  0
 11 10  1  0  0  0  0
 12 19  1  1  0  0  0
 12 18  1  0  0  0  0
 12  7  1  0  0  0  0
 13 17  2  0  0  0  0
 13 18  1  0  0  0  0
 14 15  1  0  0  0  0
 16 15  2  0  0  0  0
 17 16  1  0  0  0  0
 18 14  2  0  0  0  0
 20 19  1  0  0  0  0
 21 22  1  0  0  0  0
 21 20  1  0  0  0  0
 21 23  1  0  0  0  0
 24 21  2  0  0  0  0
 25 27  1  0  0  0  0
 25  3  1  1  0  0  0
 26 27  2  0  0  0  0
 27 37  1  0  0  0  0
 28 25  1  0  0  0  0
 29 30  1  0  0  0  0
 29 28  1  0  0  0  0
 30 26  1  0  0  0  0
 31 32  1  6  0  0  0
 31 30  1  0  0  0  0
 34 33  1  6  0  0  0
 34 35  1  0  0  0  0
 34 31  1  0  0  0  0
 35 36  1  0  0  0  0
 37 38  2  0  0  0  0
 39 38  1  0  0  0  0
 40 39  1  0  0  0  0
 41 40  1  0  0  0  0
 42 44  1  0  0  0  0
 44 41  1  0  0  0  0
 44 43  1  0  0  0  0
 45 42  1  0  0  0  0
 45 46  1  0  0  0  0
 46 47  1  0  0  0  0
 47 43  1  0  0  0  0
M  END
>  <MODEL>
7

>  <REMARK>
 VINA RESULT:      -6.4      3.152      9.385
  Name = 
  15 active torsions:
  status: ('A' for Active; 'I' for Inactive)
    1  A    between atoms: C_3  and  N_40
    2  A    between atoms: C_3  and  C_46
    3  A    between atoms: C_4  and  O_15
    4  A    between atoms: C_4  and  C_22
    5  A    between atoms: C_6  and  C_19
    6  A    between atoms: C_8  and  N_25
    7  A    between atoms: O_12  and  P_18
    8  A    between atoms: O_12  and  N_42
    9  A    between atoms: C_14  and  C_28
   10  A    between atoms: O_15  and  C_45
   11  A    between atoms: C_16  and  C_46
   12  A    between atoms: C_24  and  C_30
   13  A    between atoms: C_30  and  C_37
   14  A    between atoms: C_30  and  N_42
   15  A    between atoms: C_45  and  C_47
                            x       y       z     vdW  Elec       q    Type
                         _______ _______ _______ _____ _____    ______ ____

>  <TORSDO>
F 15

$$$$
=
 OpenBabel11072409053D

 47 50  0  0  1  0  0  0  0  0999 V2000
  193.2310  173.3580  139.3850 C   0  0  0  0  0  0  0  0  0  0  0  0
  193.1380  173.7630  138.1660 N   0  0  0  0  0  2  0  0  0  0  0  0
  194.2610  172.4230  139.7220 N   0  0  0  0  0  2  0  0  0  0  0  0
  192.5480  174.6270  141.3500 C   0  0  0  0  0  3  0  0  0  0  0  0
  192.2160  173.7980  140.3640 C   0  0  0  0  0  0  0  0  0  0  0  0
  190.8810  173.2930  140.2830 N   0  0  0  0  0  2  0  0  0  0  0  0
  189.1050  175.6220  142.4840 C   0  0  0  0  0  0  0  0  0  0  0  0
  189.8980  173.5530  141.3360 C   0  0  0  0  0  2  0  0  0  0  0  0
  187.9300  175.3560  142.1050 O   0  0  0  0  0  0  0  0  0  0  0  0
  190.1940  174.8180  142.0040 N   0  0  0  0  0  0  0  0  0  0  0  0
  191.5750  175.0620  142.4100 C   0  0  0  0  0  2  0  0  0  0  0  0
  189.3340  176.8320  143.3690 C   0  0  2  0  0  3  0  0  0  0  0  0
  189.8970  177.5390  145.7490 C   0  0  0  0  0  3  0  0  0  0  0  0
  189.2440  175.2490  145.2960 C   0  0  0  0  0  3  0  0  0  0  0  0
  189.3810  174.9470  146.6530 C   0  0  0  0  0  3  0  0  0  0  0  0
  189.7670  175.9420  147.5580 C   0  0  0  0  0  3  0  0  0  0  0  0
  190.0250  177.2360  147.1060 C   0  0  0  0  0  3  0  0  0  0  0  0
  189.4910  176.5450  144.8380 C   0  0  0  0  0  0  0  0  0  0  0  0
  188.3550  177.8940  143.1330 N   0  0  0  0  0  2  0  0  0  0  0  0
  187.3940  177.8370  144.0980 O   0  0  0  0  0  0  0  0  0  0  0  0
  185.9820  178.4470  143.3710 P   0  0  0  0  0  0  0  0  0  0  0  0
  184.8490  177.4760  143.6160 O   0  0  0  0  0  1  0  0  0  0  0  0
  186.2260  178.5890  141.6930 O   0  0  0  0  0  0  0  0  0  0  0  0
  185.5650  179.9690  144.0110 O   0  0  0  0  0  1  0  0  0  0  0  0
  194.5660  172.0070  141.0840 C   0  0  2  0  0  3  0  0  0  0  0  0
  196.4670  171.2770  142.4560 C   0  0  0  0  0  3  0  0  0  0  0  0
  196.0550  171.9490  141.3720 C   0  0  0  0  0  0  0  0  0  0  0  0
  193.9370  170.6590  141.4010 C   0  0  0  0  0  2  0  0  0  0  0  0
  194.1340  170.3920  142.8770 C   0  0  0  0  0  2  0  0  0  0  0  0
  195.5480  170.5040  143.2600 N   0  0  0  0  0  0  0  0  0  0  0  0
  196.0160  169.7380  144.4300 C   0  0  1  0  0  3  0  0  0  0  0  0
  197.4990  169.3590  144.3410 C   0  0  0  0  0  1  0  0  0  0  0  0
  196.7940  171.3010  146.1030 O   0  0  0  0  0  1  0  0  0  0  0  0
  195.7100  170.4940  145.7300 C   0  0  2  0  0  3  0  0  0  0  0  0
  195.3570  169.5400  146.8620 C   0  0  0  0  0  2  0  0  0  0  0  0
  196.5010  169.2840  147.6480 O   0  0  0  0  0  1  0  0  0  0  0  0
  197.0560  172.7150  140.6020 C   0  0  0  0  0  3  0  0  0  0  0  0
  197.2780  174.0290  140.7390 C   0  0  0  0  0  3  0  0  0  0  0  0
  196.4950  174.9140  141.6640 C   0  0  0  0  0  2  0  0  0  0  0  0
  197.0400  174.8970  142.9610 O   0  0  0  0  0  0  0  0  0  0  0  0
  196.4210  175.9560  143.6330 C   0  0  0  0  0  2  0  0  0  0  0  0
  194.9560  174.1390  144.6060 C   0  0  0  0  0  2  0  0  0  0  0  0
  194.6430  176.5250  145.2560 C   0  0  0  0  0  2  0  0  0  0  0  0
  195.0220  175.5890  144.1130 C   0  0  0  0  0  3  0  0  0  0  0  0
  193.5480  173.8170  145.0990 C   0  0  0  0  0  2  0  0  0  0  0  0
  193.1690  174.7510  146.2480 C   0  0  0  0  0  2  0  0  0  0  0  0
  193.2480  176.2040  145.7850 C   0  0  0  0  0  2  0  0  0  0  0  0
  1  3  1  0  0  0  0
  1  5  1  0  0  0  0
  2  1  2  0  0  0  0
  4 11  1  0  0  0  0
  5  4  2  0  0  0  0
  6  5  1  0  0  0  0
  6  8  1  0  0  0  0
  8 10  1  0  0  0  0
  9  7  2  0  0  0  0
 10 11  1  0  0  0  0
 10  7  1  0  0  0  0
 12  7  1  6  0  0  0
 12 18  1  0  0  0  0
 13 17  1  0  0  0  0
 14 15  2  0  0  0  0
 15 16  1  0  0  0  0
 17 16  2  0  0  0  0
 18 14  1  0  0  0  0
 18 13  2  0  0  0  0
 19 12  1  0  0  0  0
 19 20  1  0  0  0  0
 21 22  1  0  0  0  0
 21 24  1  0  0  0  0
 21 20  1  0  0  0  0
 23 21  2  0  0  0  0
 25  3  1  6  0  0  0
 25 27  1  0  0  0  0
 25 28  1  0  0  0  0
 26 30  1  0  0  0  0
 27 26  2  0  0  0  0
 28 29  1  0  0  0  0
 29 30  1  0  0  0  0
 30 31  1  0  0  0  0
 31 32  1  6  0  0  0
 31 34  1  0  0  0  0
 34 33  1  1  0  0  0
 34 35  1  0  0  0  0
 35 36  1  0  0  0  0
 37 38  2  0  0  0  0
 37 27  1  0  0  0  0
 38 39  1  0  0  0  0
 39 40  1  0  0  0  0
 40 41  1  0  0  0  0
 41 44  1  0  0  0  0
 42 45  1  0  0  0  0
 43 47  1  0  0  0  0
 44 42  1  0  0  0  0
 44 43  1  0  0  0  0
 45 46  1  0  0  0  0
 47 46  1  0  0  0  0
M  END
>  <MODEL>
8

>  <REMARK>
 VINA RESULT:      -6.4      3.966      8.600
  Name = 
  15 active torsions:
  status: ('A' for Active; 'I' for Inactive)
    1  A    between atoms: C_3  and  N_40
    2  A    between atoms: C_3  and  C_46
    3  A    between atoms: C_4  and  O_15
    4  A    between atoms: C_4  and  C_22
    5  A    between atoms: C_6  and  C_19
    6  A    between atoms: C_8  and  N_25
    7  A    between atoms: O_12  and  P_18
    8  A    between atoms: O_12  and  N_42
    9  A    between atoms: C_14  and  C_28
   10  A    between atoms: O_15  and  C_45
   11  A    between atoms: C_16  and  C_46
   12  A    between atoms: C_24  and  C_30
   13  A    between atoms: C_30  and  C_37
   14  A    between atoms: C_30  and  N_42
   15  A    between atoms: C_45  and  C_47
                            x       y       z     vdW  Elec       q    Type
                         _______ _______ _______ _____ _____    ______ ____

>  <TORSDO>
F 15

$$$$
=
 OpenBabel11072409053D

 47 50  0  0  1  0  0  0  0  0999 V2000
  188.5300  174.3320  142.2550 C   0  0  0  0  0  0  0  0  0  0  0  0
  187.2480  174.2130  142.2270 N   0  0  0  0  0  2  0  0  0  0  0  0
  189.1080  175.3510  143.0780 N   0  0  0  0  0  2  0  0  0  0  0  0
  189.5020  173.7970  140.0850 C   0  0  0  0  0  3  0  0  0  0  0  0
  189.3470  173.4790  141.3680 C   0  0  0  0  0  0  0  0  0  0  0  0
  189.9350  172.2790  141.8750 N   0  0  0  0  0  2  0  0  0  0  0  0
  192.3540  171.5010  139.2360 C   0  0  0  0  0  0  0  0  0  0  0  0
  190.5910  171.3140  140.9920 C   0  0  0  0  0  2  0  0  0  0  0  0
  193.0570  170.6740  139.8830 O   0  0  0  0  0  0  0  0  0  0  0  0
  191.1360  171.9900  139.8170 N   0  0  0  0  0  0  0  0  0  0  0  0
  190.2710  172.9380  139.1210 C   0  0  0  0  0  2  0  0  0  0  0  0
  192.8650  172.0100  137.9020 C   0  0  2  0  0  3  0  0  0  0  0  0
  191.6160  170.2590  136.5400 C   0  0  0  0  0  3  0  0  0  0  0  0
  193.8590  170.9130  135.8930 C   0  0  0  0  0  3  0  0  0  0  0  0
  193.8020  170.0240  134.8170 C   0  0  0  0  0  3  0  0  0  0  0  0
  192.6500  169.2590  134.5980 C   0  0  0  0  0  3  0  0  0  0  0  0
  191.5600  169.3770  135.4600 C   0  0  0  0  0  3  0  0  0  0  0  0
  192.7660  171.0420  136.7540 C   0  0  0  0  0  0  0  0  0  0  0  0
  194.2050  172.5920  137.9980 N   0  0  0  0  0  2  0  0  0  0  0  0
  194.0950  173.9240  138.2640 O   0  0  0  0  0  0  0  0  0  0  0  0
  194.8560  174.1520  139.7680 P   0  0  0  0  0  0  0  0  0  0  0  0
  193.7970  174.4060  140.8180 O   0  0  0  0  0  1  0  0  0  0  0  0
  195.8800  175.5080  139.6840 O   0  0  0  0  0  0  0  0  0  0  0  0
  195.7690  172.7830  140.2120 O   0  0  0  0  0  1  0  0  0  0  0  0
  190.5390  175.4900  143.3140 C   0  0  2  0  0  3  0  0  0  0  0  0
  192.1810  175.3050  145.1290 C   0  0  0  0  0  3  0  0  0  0  0  0
  190.9770  174.9460  144.6610 C   0  0  0  0  0  0  0  0  0  0  0  0
  190.9780  176.9410  143.1870 C   0  0  0  0  0  2  0  0  0  0  0  0
  192.4890  176.9730  143.2530 C   0  0  0  0  0  2  0  0  0  0  0  0
  192.9900  176.2930  144.4540 N   0  0  0  0  0  0  0  0  0  0  0  0
  194.2970  176.7080  144.9970 C   0  0  1  0  0  3  0  0  0  0  0  0
  194.4040  176.5120  146.5130 C   0  0  0  0  0  1  0  0  0  0  0  0
  195.5060  176.4150  142.9240 O   0  0  0  0  0  1  0  0  0  0  0  0
  195.4400  175.9990  144.2600 C   0  0  2  0  0  3  0  0  0  0  0  0
  195.2950  174.4860  144.3270 C   0  0  0  0  0  2  0  0  0  0  0  0
  196.0970  173.8810  143.3350 O   0  0  0  0  0  1  0  0  0  0  0  0
  190.2100  173.9290  145.4090 C   0  0  0  0  0  3  0  0  0  0  0  0
  189.3170  174.2050  146.3680 C   0  0  0  0  0  3  0  0  0  0  0  0
  189.0150  175.5940  146.8510 C   0  0  0  0  0  2  0  0  0  0  0  0
  187.9330  176.1500  146.1440 O   0  0  0  0  0  0  0  0  0  0  0  0
  187.2670  176.9590  147.0700 C   0  0  0  0  0  2  0  0  0  0  0  0
  186.8030  178.1940  144.9120 C   0  0  0  0  0  2  0  0  0  0  0  0
  184.9580  177.6290  146.4900 C   0  0  0  0  0  2  0  0  0  0  0  0
  186.4250  178.0320  146.3900 C   0  0  0  0  0  3  0  0  0  0  0  0
  185.9240  179.2580  144.2610 C   0  0  0  0  0  2  0  0  0  0  0  0
  184.4540  178.8530  144.3570 C   0  0  0  0  0  2  0  0  0  0  0  0
  184.0600  178.6660  145.8200 C   0  0  0  0  0  2  0  0  0  0  0  0
  1  3  1  0  0  0  0
  2  1  2  0  0  0  0
  4  5  2  0  0  0  0
  5  6  1  0  0  0  0
  5  1  1  0  0  0  0
  7 10  1  0  0  0  0
  7  9  2  0  0  0  0
  8  6  1  0  0  0  0
 10  8  1  0  0  0  0
 11 10  1  0  0  0  0
 11  4  1  0  0  0  0
 12 19  1  1  0  0  0
 12  7  1  0  0  0  0
 13 18  1  0  0  0  0
 14 18  2  0  0  0  0
 15 14  1  0  0  0  0
 16 15  2  0  0  0  0
 16 17  1  0  0  0  0
 17 13  2  0  0  0  0
 18 12  1  0  0  0  0
 19 20  1  0  0  0  0
 20 21  1  0  0  0  0
 21 24  1  0  0  0  0
 21 22  1  0  0  0  0
 23 21  2  0  0  0  0
 25  3  1  1  0  0  0
 25 27  1  0  0  0  0
 27 26  2  0  0  0  0
 27 37  1  0  0  0  0
 28 29  1  0  0  0  0
 28 25  1  0  0  0  0
 29 30  1  0  0  0  0
 30 31  1  0  0  0  0
 30 26  1  0  0  0  0
 31 32  1  1  0  0  0
 34 33  1  6  0  0  0
 34 35  1  0  0  0  0
 34 31  1  0  0  0  0
 36 35  1  0  0  0  0
 37 38  2  0  0  0  0
 38 39  1  0  0  0  0
 40 39  1  0  0  0  0
 40 41  1  0  0  0  0
 42 44  1  0  0  0  0
 44 43  1  0  0  0  0
 44 41  1  0  0  0  0
 45 46  1  0  0  0  0
 45 42  1  0  0  0  0
 46 47  1  0  0  0  0
 47 43  1  0  0  0  0
M  END
>  <MODEL>
9

>  <REMARK>
 VINA RESULT:      -6.4      1.367      1.849
  Name = 
  15 active torsions:
  status: ('A' for Active; 'I' for Inactive)
    1  A    between atoms: C_3  and  N_40
    2  A    between atoms: C_3  and  C_46
    3  A    between atoms: C_4  and  O_15
    4  A    between atoms: C_4  and  C_22
    5  A    between atoms: C_6  and  C_19
    6  A    between atoms: C_8  and  N_25
    7  A    between atoms: O_12  and  P_18
    8  A    between atoms: O_12  and  N_42
    9  A    between atoms: C_14  and  C_28
   10  A    between atoms: O_15  and  C_45
   11  A    between atoms: C_16  and  C_46
   12  A    between atoms: C_24  and  C_30
   13  A    between atoms: C_30  and  C_37
   14  A    between atoms: C_30  and  N_42
   15  A    between atoms: C_45  and  C_47
                            x       y       z     vdW  Elec       q    Type
                         _______ _______ _______ _____ _____    ______ ____

>  <TORSDO>
F 15

$$$$
