=
 OpenBabel11062418373D

 55 61  0  0  1  0  0  0  0  0999 V2000
  191.5290  175.9830  145.7540 C   0  0  0  0  0  0  0  0  0  0  0  0
  192.9720  174.6340  147.1080 O   0  0  0  0  0  0  0  0  0  0  0  0
  192.7790  175.3570  146.0850 C   0  0  0  0  0  0  0  0  0  0  0  0
  191.6650  176.6300  144.4170 C   0  0  1  0  0  3  0  0  0  0  0  0
  193.7550  175.5970  145.0830 N   0  0  0  0  0  0  0  0  0  0  0  0
  193.1770  176.5250  144.1120 C   0  0  0  0  0  2  0  0  0  0  0  0
  190.5910  176.3060  146.6410 C   0  0  0  0  0  2  0  0  0  0  0  0
  196.8080  175.2200  143.2090 C   0  0  0  0  0  0  0  0  0  0  0  0
  197.7650  174.6620  144.2310 C   0  0  0  0  0  2  0  0  0  0  0  0
  196.4000  176.4980  141.2450 C   0  0  0  0  0  2  0  0  0  0  0  0
  195.8350  174.4900  145.7710 C   0  0  0  0  0  2  0  0  0  0  0  0
  194.9120  173.8830  142.2430 C   0  0  0  0  0  2  0  0  0  0  0  0
  194.5190  175.2900  140.1290 C   0  0  0  0  0  2  0  0  0  0  0  0
  194.7660  174.6190  144.6770 C   0  0  2  0  0  3  0  0  0  0  0  0
  195.3200  174.9370  143.2710 C   0  0  1  0  0  3  0  0  0  0  0  0
  197.0640  173.7750  145.2450 C   0  0  0  0  0  2  0  0  0  0  0  0
  195.3150  174.1690  140.7810 C   0  0  1  0  0  0  0  0  0  0  0  0
  196.0300  175.4170  140.2350 C   0  0  2  0  0  3  0  0  0  0  0  0
  197.2720  175.9520  142.2600 N   0  0  0  0  0  0  0  0  0  0  0  0
  195.5480  173.0280  139.9530 O   0  0  0  0  0  0  0  0  0  0  0  0
  190.8110  171.9370  135.8820 C   0  0  1  0  0  3  0  0  0  0  0  0
  189.8430  171.2970  134.9090 C   0  0  0  0  0  1  0  0  0  0  0  0
  191.8720  173.9720  137.8640 C   0  0  0  0  0  2  0  0  0  0  0  0
  190.3540  173.2130  136.2080 O   0  0  0  0  0  0  0  0  0  0  0  0
  193.0760  170.2150  139.9050 C   0  0  0  0  0  0  0  0  0  0  0  0
  192.4940  172.6540  138.3360 C   0  0  1  0  0  3  0  0  0  0  0  0
  194.1320  171.1690  140.1670 N   0  0  0  0  0  0  0  0  0  0  0  0
  192.1200  170.3160  138.8240 N   0  0  0  0  0  0  0  0  0  0  0  0
  190.8940  171.1370  137.0540 O   0  0  0  0  0  0  0  0  0  0  0  0
  191.8150  171.3430  138.0890 C   0  0  0  0  0  0  0  0  0  0  0  0
  194.5530  172.1790  139.4590 C   0  0  0  0  0  0  0  0  0  0  0  0
  191.5120  173.9670  136.3910 C   0  0  0  0  0  2  0  0  0  0  0  0
  192.9670  169.2030  140.7020 N   0  0  0  0  0  2  0  0  0  0  0  0
  193.9790  172.5190  138.1320 C   0  0  0  0  0  2  0  0  0  0  0  0
  190.9600  175.8910  143.4570 O   0  0  0  0  0  0  0  0  0  0  0  0
  188.1260  177.3810  143.9420 C   0  0  0  0  0  0  0  0  0  0  0  0
  190.1150  176.7990  142.7980 C   0  0  1  0  0  3  0  0  0  0  0  0
  188.8960  176.0820  142.2860 C   0  0  0  0  0  0  0  0  0  0  0  0
  187.7950  176.3790  142.9470 C   0  0  0  0  0  3  0  0  0  0  0  0
  187.2950  177.8800  144.8520 C   0  0  0  0  0  3  0  0  0  0  0  0
  189.5500  177.7730  143.8390 C   0  0  0  0  0  2  0  0  0  0  0  0
  188.8750  175.1520  141.2040 N   0  0  0  0  0  2  0  0  0  0  0  0
  189.2020  172.7980  139.9700 O   0  0  0  0  0  0  0  0  0  0  0  0
  191.0170  173.6180  141.3820 O   0  0  0  0  0  0  0  0  0  0  0  0
  189.5200  173.5370  141.2370 S   0  0  0  0  0  0  0  0  0  0  0  0
  188.8510  172.6340  142.6280 C   0  0  0  0  0  2  0  0  0  0  0  0
  189.8150  172.4780  143.7600 C   0  0  0  0  0  0  0  0  0  0  0  0
  190.8170  171.5140  143.7350 O   0  0  0  0  0  0  0  0  0  0  0  0
  189.7350  173.2600  144.7450 O   0  0  0  0  0  1  0  0  0  0  0  0
  185.8590  177.4700  144.9450 C   0  0  0  0  0  2  0  0  0  0  0  0
  185.0170  178.5190  144.3860 N   0  0  0  0  0  0  0  0  0  0  0  0
  184.3380  177.9650  143.2140 C   0  0  0  0  0  2  0  0  0  0  0  0
  184.9480  178.5240  141.9400 C   0  0  0  0  0  1  0  0  0  0  0  0
  184.0550  178.0860  146.5140 O   0  0  0  0  0  1  0  0  0  0  0  0
  184.0210  178.9150  145.3880 C   0  0  0  0  0  2  0  0  0  0  0  0
  1  3  1  0  0  0  0
  1  7  2  0  0  0  0
  3  2  2  0  0  0  0
  4 35  1  6  0  0  0
  4  1  1  0  0  0  0
  5  3  1  0  0  0  0
  6  4  1  0  0  0  0
  6  5  1  0  0  0  0
  8 15  1  0  0  0  0
  8  9  1  0  0  0  0
  9 16  1  0  0  0  0
 10 19  1  0  0  0  0
 13 17  1  0  0  0  0
 14  5  1  1  0  0  0
 14 11  1  0  0  0  0
 15 12  1  6  0  0  0
 15 14  1  0  0  0  0
 16 11  1  0  0  0  0
 17 20  1  6  0  0  0
 17 12  1  0  0  0  0
 18 13  1  6  0  0  0
 18 17  1  0  0  0  0
 18 10  1  0  0  0  0
 19  8  2  0  0  0  0
 21 22  1  6  0  0  0
 21 24  1  0  0  0  0
 21 29  1  0  0  0  0
 24 32  1  0  0  0  0
 25 27  1  0  0  0  0
 25 33  2  0  0  0  0
 26 23  1  6  0  0  0
 28 25  1  0  0  0  0
 29 30  1  0  0  0  0
 30 26  1  0  0  0  0
 30 28  2  0  0  0  0
 31 20  1  0  0  0  0
 31 27  2  0  0  0  0
 32 23  1  0  0  0  0
 34 26  1  0  0  0  0
 34 31  1  0  0  0  0
 36 40  2  0  0  0  0
 37 35  1  1  0  0  0
 37 41  1  0  0  0  0
 38 37  1  0  0  0  0
 38 39  2  0  0  0  0
 39 36  1  0  0  0  0
 40 50  1  0  0  0  0
 41 36  1  0  0  0  0
 42 45  1  0  0  0  0
 42 38  1  0  0  0  0
 43 45  2  0  0  0  0
 45 44  2  0  0  0  0
 45 46  1  0  0  0  0
 46 47  1  0  0  0  0
 47 49  1  0  0  0  0
 48 47  2  0  0  0  0
 51 50  1  0  0  0  0
 51 55  1  0  0  0  0
 52 51  1  0  0  0  0
 53 52  1  0  0  0  0
 55 54  1  0  0  0  0
M  END
>  <MODEL>
1

>  <REMARK>
 VINA RESULT:      -7.3      0.000      0.000
  Name = 
  13 active torsions:
  status: ('A' for Active; 'I' for Inactive)
    1  A    between atoms: C_4  and  C_23
    2  A    between atoms: C_4  and  S_31
    3  A    between atoms: O_7  and  C_8
    4  A    between atoms: O_7  and  C_29
    5  A    between atoms: C_9  and  N_27
    6  A    between atoms: C_11  and  N_18
    7  A    between atoms: N_18  and  S_31
    8  A    between atoms: O_22  and  C_42
    9  A    between atoms: O_22  and  C_43
   10  A    between atoms: N_27  and  C_50
   11  A    between atoms: N_27  and  C_53
   12  A    between atoms: C_28  and  N_34
   13  A    between atoms: C_45  and  C_50
                            x       y       z     vdW  Elec       q    Type
                         _______ _______ _______ _____ _____    ______ ____

>  <TORSDO>
F 13

$$$$
=
 OpenBabel11062418373D

 55 61  0  0  1  0  0  0  0  0999 V2000
  193.6380  172.3840  143.5160 C   0  0  0  0  0  0  0  0  0  0  0  0
  192.3810  173.5110  145.2130 O   0  0  0  0  0  0  0  0  0  0  0  0
  192.4370  172.7070  144.2360 C   0  0  0  0  0  0  0  0  0  0  0  0
  193.2740  171.5140  142.3600 C   0  0  1  0  0  3  0  0  0  0  0  0
  191.3080  172.0590  143.6690 N   0  0  0  0  0  0  0  0  0  0  0  0
  191.7880  171.1690  142.6140 C   0  0  0  0  0  2  0  0  0  0  0  0
  194.8650  172.4660  144.0230 C   0  0  0  0  0  2  0  0  0  0  0  0
  189.5390  175.0260  142.6490 C   0  0  0  0  0  0  0  0  0  0  0  0
  188.5290  174.4950  141.6640 C   0  0  0  0  0  2  0  0  0  0  0  0
  190.9380  176.7850  143.4240 C   0  0  0  0  0  2  0  0  0  0  0  0
  189.2770  172.2230  142.3010 C   0  0  0  0  0  2  0  0  0  0  0  0
  189.3790  174.6100  145.1230 C   0  0  0  0  0  2  0  0  0  0  0  0
  190.8890  176.5340  145.9100 C   0  0  0  0  0  2  0  0  0  0  0  0
  189.9740  172.6600  143.5970 C   0  0  2  0  0  3  0  0  0  0  0  0
  190.0370  174.1880  143.8100 C   0  0  1  0  0  3  0  0  0  0  0  0
  188.0670  173.0920  142.0190 C   0  0  0  0  0  2  0  0  0  0  0  0
  189.4920  176.1050  145.4890 C   0  0  1  0  0  0  0  0  0  0  0  0
  190.2360  177.2050  144.7120 C   0  0  2  0  0  3  0  0  0  0  0  0
  189.9830  176.2230  142.4980 N   0  0  0  0  0  0  0  0  0  0  0  0
  188.4270  176.6470  146.2720 O   0  0  0  0  0  0  0  0  0  0  0  0
  184.6360  177.8390  141.3320 C   0  0  1  0  0  3  0  0  0  0  0  0
  183.4500  177.9420  140.3950 C   0  0  0  0  0  1  0  0  0  0  0  0
  187.3770  178.4500  142.4750 C   0  0  0  0  0  2  0  0  0  0  0  0
  185.7010  178.5680  140.8030 O   0  0  0  0  0  0  0  0  0  0  0  0
  185.0180  178.1980  146.2310 C   0  0  0  0  0  0  0  0  0  0  0  0
  186.5540  178.0580  143.7060 C   0  0  1  0  0  3  0  0  0  0  0  0
  186.3200  177.6450  146.5380 N   0  0  0  0  0  0  0  0  0  0  0  0
  184.4690  178.3280  144.9000 N   0  0  0  0  0  0  0  0  0  0  0  0
  184.2750  178.3610  142.6040 O   0  0  0  0  0  0  0  0  0  0  0  0
  185.0740  178.2730  143.7510 C   0  0  0  0  0  0  0  0  0  0  0  0
  187.1770  177.0270  145.7750 C   0  0  0  0  0  0  0  0  0  0  0  0
  186.8390  177.8610  141.1870 C   0  0  0  0  0  2  0  0  0  0  0  0
  184.2960  178.6200  147.2160 N   0  0  0  0  0  2  0  0  0  0  0  0
  186.9100  176.7410  144.3420 C   0  0  0  0  0  2  0  0  0  0  0  0
  193.3680  172.2440  141.1670 O   0  0  0  0  0  0  0  0  0  0  0  0
  195.3920  172.9070  138.7280 C   0  0  0  0  0  0  0  0  0  0  0  0
  194.3180  171.5840  140.3700 C   0  0  1  0  0  3  0  0  0  0  0  0
  193.7700  171.3830  138.9840 C   0  0  0  0  0  0  0  0  0  0  0  0
  194.3440  172.1480  138.0760 C   0  0  0  0  0  3  0  0  0  0  0  0
  196.1480  173.8410  138.1580 C   0  0  0  0  0  3  0  0  0  0  0  0
  195.5060  172.5290  140.1550 C   0  0  0  0  0  2  0  0  0  0  0  0
  192.7240  170.4800  138.6290 N   0  0  0  0  0  2  0  0  0  0  0  0
  190.4720  170.5660  137.1830 O   0  0  0  0  0  0  0  0  0  0  0  0
  190.2930  170.0330  139.5580 O   0  0  0  0  0  0  0  0  0  0  0  0
  191.0300  170.8660  138.5430 S   0  0  0  0  0  0  0  0  0  0  0  0
  190.7720  172.5960  138.9160 C   0  0  0  0  0  2  0  0  0  0  0  0
  189.6220  173.2010  138.1780 C   0  0  0  0  0  0  0  0  0  0  0  0
  188.3060  172.8870  138.4970 O   0  0  0  0  0  1  0  0  0  0  0  0
  189.8520  174.0410  137.2660 O   0  0  0  0  0  0  0  0  0  0  0  0
  196.0180  174.2150  136.7150 C   0  0  0  0  0  2  0  0  0  0  0  0
  196.0100  175.6660  136.5890 N   0  0  0  0  0  0  0  0  0  0  0  0
  197.2160  176.0540  135.8540 C   0  0  0  0  0  2  0  0  0  0  0  0
  197.8370  174.8390  135.1860 C   0  0  0  0  0  1  0  0  0  0  0  0
  193.6410  175.8170  136.5330 O   0  0  0  0  0  1  0  0  0  0  0  0
  194.8230  176.0720  135.8290 C   0  0  0  0  0  2  0  0  0  0  0  0
  1  7  2  0  0  0  0
  1  3  1  0  0  0  0
  3  2  2  0  0  0  0
  4 35  1  6  0  0  0
  4  6  1  0  0  0  0
  4  1  1  0  0  0  0
  5  3  1  0  0  0  0
  6  5  1  0  0  0  0
  8 15  1  0  0  0  0
  9 16  1  0  0  0  0
  9  8  1  0  0  0  0
 12 17  1  0  0  0  0
 14 11  1  6  0  0  0
 14  5  1  0  0  0  0
 14 15  1  0  0  0  0
 15 12  1  1  0  0  0
 16 11  1  0  0  0  0
 17 13  1  0  0  0  0
 17 20  1  1  0  0  0
 18 10  1  6  0  0  0
 18 17  1  0  0  0  0
 18 13  1  0  0  0  0
 19  8  2  0  0  0  0
 19 10  1  0  0  0  0
 21 22  1  6  0  0  0
 21 29  1  0  0  0  0
 24 32  1  0  0  0  0
 24 21  1  0  0  0  0
 25 27  1  0  0  0  0
 25 33  2  0  0  0  0
 26 23  1  6  0  0  0
 26 30  1  0  0  0  0
 26 34  1  0  0  0  0
 28 25  1  0  0  0  0
 29 30  1  0  0  0  0
 30 28  2  0  0  0  0
 31 20  1  0  0  0  0
 31 27  2  0  0  0  0
 32 23  1  0  0  0  0
 34 31  1  0  0  0  0
 36 41  1  0  0  0  0
 37 35  1  1  0  0  0
 38 37  1  0  0  0  0
 39 36  1  0  0  0  0
 39 38  2  0  0  0  0
 40 36  2  0  0  0  0
 41 37  1  0  0  0  0
 42 38  1  0  0  0  0
 43 45  2  0  0  0  0
 45 42  1  0  0  0  0
 45 46  1  0  0  0  0
 45 44  2  0  0  0  0
 47 48  1  0  0  0  0
 47 46  1  0  0  0  0
 49 47  2  0  0  0  0
 50 40  1  0  0  0  0
 51 50  1  0  0  0  0
 52 51  1  0  0  0  0
 53 52  1  0  0  0  0
 55 54  1  0  0  0  0
 55 51  1  0  0  0  0
M  END
>  <MODEL>
2

>  <REMARK>
 VINA RESULT:      -7.0      2.606      9.116
  Name = 
  13 active torsions:
  status: ('A' for Active; 'I' for Inactive)
    1  A    between atoms: C_4  and  C_23
    2  A    between atoms: C_4  and  S_31
    3  A    between atoms: O_7  and  C_8
    4  A    between atoms: O_7  and  C_29
    5  A    between atoms: C_9  and  N_27
    6  A    between atoms: C_11  and  N_18
    7  A    between atoms: N_18  and  S_31
    8  A    between atoms: O_22  and  C_42
    9  A    between atoms: O_22  and  C_43
   10  A    between atoms: N_27  and  C_50
   11  A    between atoms: N_27  and  C_53
   12  A    between atoms: C_28  and  N_34
   13  A    between atoms: C_45  and  C_50
                            x       y       z     vdW  Elec       q    Type
                         _______ _______ _______ _____ _____    ______ ____

>  <TORSDO>
F 13

$$$$
=
 OpenBabel11062418373D

 55 61  0  0  1  0  0  0  0  0999 V2000
  191.2250  175.9530  145.6570 C   0  0  0  0  0  0  0  0  0  0  0  0
  192.6190  174.5840  147.0420 O   0  0  0  0  0  0  0  0  0  0  0  0
  192.4600  175.3120  146.0170 C   0  0  0  0  0  0  0  0  0  0  0  0
  191.4020  176.6020  144.3260 C   0  0  1  0  0  3  0  0  0  0  0  0
  193.4630  175.5440  145.0400 N   0  0  0  0  0  0  0  0  0  0  0  0
  192.9190  176.4810  144.0570 C   0  0  0  0  0  2  0  0  0  0  0  0
  190.2690  176.2840  146.5220 C   0  0  0  0  0  2  0  0  0  0  0  0
  196.7220  175.1860  143.5500 C   0  0  0  0  0  0  0  0  0  0  0  0
  197.5020  174.4580  144.6150 C   0  0  0  0  0  2  0  0  0  0  0  0
  196.6490  176.6980  141.7160 C   0  0  0  0  0  2  0  0  0  0  0  0
  195.3730  174.2370  145.8570 C   0  0  0  0  0  2  0  0  0  0  0  0
  194.9150  174.0870  142.1920 C   0  0  0  0  0  2  0  0  0  0  0  0
  194.8840  175.7430  140.2280 C   0  0  0  0  0  2  0  0  0  0  0  0
  194.4720  174.5540  144.6560 C   0  0  2  0  0  3  0  0  0  0  0  0
  195.2280  174.9920  143.3830 C   0  0  1  0  0  3  0  0  0  0  0  0
  196.6270  173.5090  145.4160 C   0  0  0  0  0  2  0  0  0  0  0  0
  195.5290  174.5090  140.8400 C   0  0  1  0  0  0  0  0  0  0  0  0
  196.3710  175.7620  140.5440 C   0  0  2  0  0  3  0  0  0  0  0  0
  197.3470  175.9890  142.7640 N   0  0  0  0  0  0  0  0  0  0  0  0
  195.8180  173.4540  139.9200 O   0  0  0  0  0  0  0  0  0  0  0  0
  190.7180  171.2280  136.8820 C   0  0  1  0  0  3  0  0  0  0  0  0
  189.5650  171.0290  135.9200 C   0  0  0  0  0  1  0  0  0  0  0  0
  192.7790  170.5110  138.9870 C   0  0  0  0  0  2  0  0  0  0  0  0
  190.8320  170.1030  137.6970 O   0  0  0  0  0  0  0  0  0  0  0  0
  195.2940  172.9420  136.2480 C   0  0  0  0  0  0  0  0  0  0  0  0
  193.4790  171.5880  138.1520 C   0  0  1  0  0  3  0  0  0  0  0  0
  195.7660  173.2300  137.5850 N   0  0  0  0  0  0  0  0  0  0  0  0
  193.9950  172.3900  135.9300 N   0  0  0  0  0  0  0  0  0  0  0  0
  191.9170  171.4170  136.1430 O   0  0  0  0  0  0  0  0  0  0  0  0
  193.1440  171.7900  136.7070 C   0  0  0  0  0  0  0  0  0  0  0  0
  195.1330  173.2210  138.7240 C   0  0  0  0  0  0  0  0  0  0  0  0
  191.2670  170.5980  138.9250 C   0  0  0  0  0  2  0  0  0  0  0  0
  196.0950  173.1820  135.2620 N   0  0  0  0  0  2  0  0  0  0  0  0
  193.6820  172.9160  138.8310 C   0  0  0  0  0  2  0  0  0  0  0  0
  190.7120  175.8730  143.3470 O   0  0  0  0  0  0  0  0  0  0  0  0
  187.9510  177.5060  143.7900 C   0  0  0  0  0  0  0  0  0  0  0  0
  189.9050  176.7950  142.6600 C   0  0  1  0  0  3  0  0  0  0  0  0
  188.6520  176.1170  142.1770 C   0  0  0  0  0  0  0  0  0  0  0  0
  187.5690  176.4860  142.8320 C   0  0  0  0  0  3  0  0  0  0  0  0
  187.1480  178.0730  144.6850 C   0  0  0  0  0  3  0  0  0  0  0  0
  189.3910  177.8290  143.6680 C   0  0  0  0  0  2  0  0  0  0  0  0
  188.5840  175.1520  141.1290 N   0  0  0  0  0  2  0  0  0  0  0  0
  188.6690  172.6620  140.1440 O   0  0  0  0  0  0  0  0  0  0  0  0
  190.7730  173.7120  140.8010 O   0  0  0  0  0  0  0  0  0  0  0  0
  189.3140  173.5730  141.1480 S   0  0  0  0  0  0  0  0  0  0  0  0
  189.1720  172.8480  142.7760 C   0  0  0  0  0  2  0  0  0  0  0  0
  190.3910  172.0970  143.2050 C   0  0  0  0  0  0  0  0  0  0  0  0
  191.2380  172.5880  144.1930 O   0  0  0  0  0  1  0  0  0  0  0  0
  190.6390  170.9780  142.6810 O   0  0  0  0  0  0  0  0  0  0  0  0
  185.6960  177.7320  144.7980 C   0  0  0  0  0  2  0  0  0  0  0  0
  185.3940  177.3400  146.1690 N   0  0  0  0  0  0  0  0  0  0  0  0
  186.5690  177.6480  146.9870 C   0  0  0  0  0  2  0  0  0  0  0  0
  186.2580  178.7840  147.9460 C   0  0  0  0  0  1  0  0  0  0  0  0
  183.7230  178.9440  145.6450 O   0  0  0  0  0  1  0  0  0  0  0  0
  184.2480  178.1210  146.6470 C   0  0  0  0  0  2  0  0  0  0  0  0
  1  3  1  0  0  0  0
  1  7  2  0  0  0  0
  3  2  2  0  0  0  0
  4 35  1  6  0  0  0
  4  1  1  0  0  0  0
  5  3  1  0  0  0  0
  6  4  1  0  0  0  0
  6  5  1  0  0  0  0
  8  9  1  0  0  0  0
  9 16  1  0  0  0  0
 10 19  1  0  0  0  0
 13 17  1  0  0  0  0
 14  5  1  1  0  0  0
 14 11  1  0  0  0  0
 15 12  1  6  0  0  0
 15  8  1  0  0  0  0
 15 14  1  0  0  0  0
 16 11  1  0  0  0  0
 17 20  1  6  0  0  0
 17 12  1  0  0  0  0
 18 13  1  6  0  0  0
 18 17  1  0  0  0  0
 18 10  1  0  0  0  0
 19  8  2  0  0  0  0
 21 22  1  6  0  0  0
 21 24  1  0  0  0  0
 24 32  1  0  0  0  0
 25 27  1  0  0  0  0
 26 34  1  1  0  0  0
 26 23  1  0  0  0  0
 27 31  2  0  0  0  0
 28 25  1  0  0  0  0
 28 30  2  0  0  0  0
 29 30  1  0  0  0  0
 29 21  1  0  0  0  0
 30 26  1  0  0  0  0
 31 34  1  0  0  0  0
 31 20  1  0  0  0  0
 32 23  1  0  0  0  0
 33 25  2  0  0  0  0
 36 40  2  0  0  0  0
 37 35  1  1  0  0  0
 37 41  1  0  0  0  0
 38 37  1  0  0  0  0
 38 39  2  0  0  0  0
 39 36  1  0  0  0  0
 40 50  1  0  0  0  0
 41 36  1  0  0  0  0
 42 45  1  0  0  0  0
 42 38  1  0  0  0  0
 43 45  2  0  0  0  0
 44 45  2  0  0  0  0
 45 46  1  0  0  0  0
 46 47  1  0  0  0  0
 47 48  1  0  0  0  0
 49 47  2  0  0  0  0
 50 51  1  0  0  0  0
 51 55  1  0  0  0  0
 51 52  1  0  0  0  0
 52 53  1  0  0  0  0
 54 55  1  0  0  0  0
M  END
>  <MODEL>
3

>  <REMARK>
 VINA RESULT:      -6.8      1.512      2.139
  Name = 
  13 active torsions:
  status: ('A' for Active; 'I' for Inactive)
    1  A    between atoms: C_4  and  C_23
    2  A    between atoms: C_4  and  S_31
    3  A    between atoms: O_7  and  C_8
    4  A    between atoms: O_7  and  C_29
    5  A    between atoms: C_9  and  N_27
    6  A    between atoms: C_11  and  N_18
    7  A    between atoms: N_18  and  S_31
    8  A    between atoms: O_22  and  C_42
    9  A    between atoms: O_22  and  C_43
   10  A    between atoms: N_27  and  C_50
   11  A    between atoms: N_27  and  C_53
   12  A    between atoms: C_28  and  N_34
   13  A    between atoms: C_45  and  C_50
                            x       y       z     vdW  Elec       q    Type
                         _______ _______ _______ _____ _____    ______ ____

>  <TORSDO>
F 13

$$$$
=
 OpenBabel11062418373D

 55 61  0  0  1  0  0  0  0  0999 V2000
  188.3460  174.3350  138.6330 C   0  0  0  0  0  0  0  0  0  0  0  0
  189.0850  173.6950  136.4470 O   0  0  0  0  0  0  0  0  0  0  0  0
  188.8660  173.4120  137.6620 C   0  0  0  0  0  0  0  0  0  0  0  0
  188.3580  173.6700  139.9680 C   0  0  1  0  0  3  0  0  0  0  0  0
  189.1650  172.1570  138.2550 N   0  0  0  0  0  0  0  0  0  0  0  0
  188.7080  172.2000  139.6430 C   0  0  0  0  0  2  0  0  0  0  0  0
  187.5950  175.3930  138.3390 C   0  0  0  0  0  2  0  0  0  0  0  0
  190.7840  169.0090  138.9160 C   0  0  0  0  0  0  0  0  0  0  0  0
  190.7970  168.3450  137.5630 C   0  0  0  0  0  2  0  0  0  0  0  0
  190.7270  168.8570  141.2890 C   0  0  0  0  0  2  0  0  0  0  0  0
  189.9270  170.4710  136.6420 C   0  0  0  0  0  2  0  0  0  0  0  0
  192.2390  170.9790  139.4820 C   0  0  0  0  0  2  0  0  0  0  0  0
  192.1560  170.7650  142.0410 C   0  0  0  0  0  2  0  0  0  0  0  0
  190.3020  171.3200  137.8640 C   0  0  2  0  0  3  0  0  0  0  0  0
  190.8430  170.5160  139.0660 C   0  0  1  0  0  3  0  0  0  0  0  0
  190.9280  169.3520  136.4330 C   0  0  0  0  0  2  0  0  0  0  0  0
  192.8230  170.3180  140.7490 C   0  0  1  0  0  0  0  0  0  0  0  0
  192.1400  169.2910  141.6680 C   0  0  2  0  0  3  0  0  0  0  0  0
  190.7250  168.2720  139.9680 N   0  0  0  0  0  0  0  0  0  0  0  0
  194.2460  170.2070  140.8060 O   0  0  0  0  0  0  0  0  0  0  0  0
  196.8850  175.6440  142.7260 C   0  0  1  0  0  3  0  0  0  0  0  0
  197.8520  176.7710  143.0180 C   0  0  0  0  0  1  0  0  0  0  0  0
  194.2150  174.2580  142.3420 C   0  0  0  0  0  2  0  0  0  0  0  0
  195.5910  176.0600  143.0350 O   0  0  0  0  0  0  0  0  0  0  0  0
  196.4630  172.5550  138.9090 C   0  0  0  0  0  0  0  0  0  0  0  0
  195.1460  173.5160  141.3780 C   0  0  1  0  0  3  0  0  0  0  0  0
  195.6020  171.4950  139.3890 N   0  0  0  0  0  0  0  0  0  0  0  0
  196.8550  173.7150  139.6800 N   0  0  0  0  0  0  0  0  0  0  0  0
  196.9680  175.3000  141.3490 O   0  0  0  0  0  0  0  0  0  0  0  0
  196.3340  174.1930  140.7700 C   0  0  0  0  0  0  0  0  0  0  0  0
  195.1430  171.2570  140.5850 C   0  0  0  0  0  0  0  0  0  0  0  0
  194.9500  174.9120  143.4950 C   0  0  0  0  0  2  0  0  0  0  0  0
  196.9050  172.4700  137.6970 N   0  0  0  0  0  2  0  0  0  0  0  0
  195.4900  172.1010  141.7580 C   0  0  0  0  0  2  0  0  0  0  0  0
  189.3800  174.2120  140.7600 O   0  0  0  0  0  0  0  0  0  0  0  0
  187.2780  175.7610  142.6730 C   0  0  0  0  0  0  0  0  0  0  0  0
  188.9240  174.1650  142.0870 C   0  0  1  0  0  3  0  0  0  0  0  0
  189.4700  175.3360  142.8570 C   0  0  0  0  0  0  0  0  0  0  0  0
  188.5590  176.2430  143.1510 C   0  0  0  0  0  3  0  0  0  0  0  0
  186.1280  176.4270  142.7200 C   0  0  0  0  0  3  0  0  0  0  0  0
  187.4100  174.4090  142.0840 C   0  0  0  0  0  2  0  0  0  0  0  0
  190.8320  175.5090  143.2460 N   0  0  0  0  0  2  0  0  0  0  0  0
  192.0360  174.2780  145.2970 O   0  0  0  0  0  0  0  0  0  0  0  0
  192.4790  176.6550  144.9620 O   0  0  0  0  0  0  0  0  0  0  0  0
  191.4240  175.5840  144.8790 S   0  0  0  0  0  0  0  0  0  0  0  0
  190.0920  175.9940  146.0000 C   0  0  0  0  0  2  0  0  0  0  0  0
  190.1410  175.2400  147.2890 C   0  0  0  0  0  0  0  0  0  0  0  0
  191.2110  175.3710  148.1680 O   0  0  0  0  0  1  0  0  0  0  0  0
  189.1760  174.4910  147.6000 O   0  0  0  0  0  0  0  0  0  0  0  0
  186.0110  177.7950  143.3160 C   0  0  0  0  0  2  0  0  0  0  0  0
  185.3070  177.7120  144.5890 N   0  0  0  0  0  0  0  0  0  0  0  0
  186.2800  177.9700  145.6520 C   0  0  0  0  0  2  0  0  0  0  0  0
  186.4810  176.7220  146.4940 C   0  0  0  0  0  1  0  0  0  0  0  0
  183.7970  178.9700  145.9230 O   0  0  0  0  0  1  0  0  0  0  0  0
  184.2610  178.7390  144.6230 C   0  0  0  0  0  2  0  0  0  0  0  0
  1  4  1  0  0  0  0
  2  3  2  0  0  0  0
  3  5  1  0  0  0  0
  3  1  1  0  0  0  0
  4 35  1  1  0  0  0
  5  6  1  0  0  0  0
  6  4  1  0  0  0  0
  7  1  2  0  0  0  0
  8 15  1  0  0  0  0
  8 19  2  0  0  0  0
  9  8  1  0  0  0  0
 12 17  1  0  0  0  0
 14 11  1  6  0  0  0
 14  5  1  0  0  0  0
 14 15  1  0  0  0  0
 15 12  1  6  0  0  0
 16 11  1  0  0  0  0
 16  9  1  0  0  0  0
 17 20  1  1  0  0  0
 17 18  1  0  0  0  0
 17 13  1  0  0  0  0
 18 10  1  6  0  0  0
 18 13  1  0  0  0  0
 19 10  1  0  0  0  0
 21 22  1  6  0  0  0
 21 24  1  0  0  0  0
 23 32  1  0  0  0  0
 24 32  1  0  0  0  0
 25 27  1  0  0  0  0
 25 28  1  0  0  0  0
 26 34  1  1  0  0  0
 26 23  1  0  0  0  0
 27 31  2  0  0  0  0
 28 30  2  0  0  0  0
 29 21  1  0  0  0  0
 30 29  1  0  0  0  0
 30 26  1  0  0  0  0
 31 20  1  0  0  0  0
 31 34  1  0  0  0  0
 33 25  2  0  0  0  0
 36 40  2  0  0  0  0
 36 39  1  0  0  0  0
 37 35  1  6  0  0  0
 37 38  1  0  0  0  0
 38 39  2  0  0  0  0
 38 42  1  0  0  0  0
 40 50  1  0  0  0  0
 41 37  1  0  0  0  0
 41 36  1  0  0  0  0
 42 45  1  0  0  0  0
 45 44  2  0  0  0  0
 45 43  2  0  0  0  0
 45 46  1  0  0  0  0
 46 47  1  0  0  0  0
 47 49  2  0  0  0  0
 47 48  1  0  0  0  0
 50 51  1  0  0  0  0
 51 55  1  0  0  0  0
 51 52  1  0  0  0  0
 52 53  1  0  0  0  0
 55 54  1  0  0  0  0
M  END
>  <MODEL>
4

>  <REMARK>
 VINA RESULT:      -6.8      2.334      6.670
  Name = 
  13 active torsions:
  status: ('A' for Active; 'I' for Inactive)
    1  A    between atoms: C_4  and  C_23
    2  A    between atoms: C_4  and  S_31
    3  A    between atoms: O_7  and  C_8
    4  A    between atoms: O_7  and  C_29
    5  A    between atoms: C_9  and  N_27
    6  A    between atoms: C_11  and  N_18
    7  A    between atoms: N_18  and  S_31
    8  A    between atoms: O_22  and  C_42
    9  A    between atoms: O_22  and  C_43
   10  A    between atoms: N_27  and  C_50
   11  A    between atoms: N_27  and  C_53
   12  A    between atoms: C_28  and  N_34
   13  A    between atoms: C_45  and  C_50
                            x       y       z     vdW  Elec       q    Type
                         _______ _______ _______ _____ _____    ______ ____

>  <TORSDO>
F 13

$$$$
=
 OpenBabel11062418373D

 55 61  0  0  1  0  0  0  0  0999 V2000
  190.7300  176.6180  146.1230 C   0  0  0  0  0  0  0  0  0  0  0  0
  192.3550  175.2190  147.1890 O   0  0  0  0  0  0  0  0  0  0  0  0
  191.9350  175.8350  146.1650 C   0  0  0  0  0  0  0  0  0  0  0  0
  190.5090  177.0660  144.7180 C   0  0  1  0  0  3  0  0  0  0  0  0
  192.5590  175.7850  144.8910 N   0  0  0  0  0  0  0  0  0  0  0  0
  191.8180  176.6720  143.9960 C   0  0  0  0  0  2  0  0  0  0  0  0
  190.1730  177.1990  147.1820 C   0  0  0  0  0  2  0  0  0  0  0  0
  195.8370  174.3940  144.3470 C   0  0  0  0  0  0  0  0  0  0  0  0
  195.7810  173.0920  145.1050 C   0  0  0  0  0  2  0  0  0  0  0  0
  197.0770  176.2400  143.5060 C   0  0  0  0  0  2  0  0  0  0  0  0
  193.3750  173.5440  145.4710 C   0  0  0  0  0  2  0  0  0  0  0  0
  194.5840  174.7780  142.2030 C   0  0  0  0  0  2  0  0  0  0  0  0
  195.9620  176.7630  141.3310 C   0  0  0  0  0  2  0  0  0  0  0  0
  193.2600  174.6090  144.3720 C   0  0  2  0  0  3  0  0  0  0  0  0
  194.6000  175.0020  143.7140 C   0  0  1  0  0  3  0  0  0  0  0  0
  194.3890  172.4820  145.0920 C   0  0  0  0  0  2  0  0  0  0  0  0
  195.8350  175.2500  141.4330 C   0  0  1  0  0  0  0  0  0  0  0  0
  197.0700  175.9680  142.0050 C   0  0  2  0  0  3  0  0  0  0  0  0
  196.9650  174.9980  144.2360 N   0  0  0  0  0  0  0  0  0  0  0  0
  196.1530  174.5320  140.2400 O   0  0  0  0  0  0  0  0  0  0  0  0
  191.5540  173.3630  136.0340 C   0  0  1  0  0  3  0  0  0  0  0  0
  190.4970  173.4890  134.9570 C   0  0  0  0  0  1  0  0  0  0  0  0
  193.5470  172.0060  137.8730 C   0  0  0  0  0  2  0  0  0  0  0  0
  191.7480  172.0140  136.3290 O   0  0  0  0  0  0  0  0  0  0  0  0
  195.9280  175.5500  136.6430 C   0  0  0  0  0  0  0  0  0  0  0  0
  194.1670  173.3850  137.6270 C   0  0  1  0  0  3  0  0  0  0  0  0
  196.2760  175.2930  138.0240 N   0  0  0  0  0  0  0  0  0  0  0  0
  194.7260  175.0760  135.9920 N   0  0  0  0  0  0  0  0  0  0  0  0
  192.7680  173.9380  135.5680 O   0  0  0  0  0  0  0  0  0  0  0  0
  193.9030  174.1410  136.3620 C   0  0  0  0  0  0  0  0  0  0  0  0
  195.5770  174.7610  138.9860 C   0  0  0  0  0  0  0  0  0  0  0  0
  192.0430  171.9890  137.6900 C   0  0  0  0  0  2  0  0  0  0  0  0
  196.7570  176.2410  135.9310 N   0  0  0  0  0  2  0  0  0  0  0  0
  194.1690  174.3230  138.8040 C   0  0  0  0  0  2  0  0  0  0  0  0
  189.4480  176.3460  144.1500 O   0  0  0  0  0  0  0  0  0  0  0  0
  187.7180  177.4200  141.6340 C   0  0  0  0  0  0  0  0  0  0  0  0
  189.5760  176.4790  142.7580 C   0  0  1  0  0  3  0  0  0  0  0  0
  188.7140  175.4600  142.0660 C   0  0  0  0  0  0  0  0  0  0  0  0
  187.6580  175.9800  141.4710 C   0  0  0  0  0  3  0  0  0  0  0  0
  186.7940  178.2880  141.2330 C   0  0  0  0  0  3  0  0  0  0  0  0
  188.9540  177.8190  142.3450 C   0  0  0  0  0  2  0  0  0  0  0  0
  188.9560  174.0540  142.0350 N   0  0  0  0  0  2  0  0  0  0  0  0
  187.8700  172.6650  140.0190 O   0  0  0  0  0  0  0  0  0  0  0  0
  189.9230  173.9130  139.5820 O   0  0  0  0  0  0  0  0  0  0  0  0
  189.1850  173.0900  140.6060 S   0  0  0  0  0  0  0  0  0  0  0  0
  190.1540  171.6370  140.9900 C   0  0  0  0  0  2  0  0  0  0  0  0
  191.3040  171.9090  141.9040 C   0  0  0  0  0  0  0  0  0  0  0  0
  191.1740  171.8130  143.2850 O   0  0  0  0  0  1  0  0  0  0  0  0
  192.4260  172.2030  141.4090 O   0  0  0  0  0  0  0  0  0  0  0  0
  185.5480  177.8690  140.5190 C   0  0  0  0  0  2  0  0  0  0  0  0
  184.3860  178.4120  141.2100 N   0  0  0  0  0  0  0  0  0  0  0  0
  183.1900  177.9160  140.5250 C   0  0  0  0  0  2  0  0  0  0  0  0
  181.9650  178.6900  140.9810 C   0  0  0  0  0  1  0  0  0  0  0  0
  184.2590  178.9850  143.5120 O   0  0  0  0  0  1  0  0  0  0  0  0
  184.3890  177.9340  142.5970 C   0  0  0  0  0  2  0  0  0  0  0  0
  1  3  1  0  0  0  0
  1  7  2  0  0  0  0
  3  2  2  0  0  0  0
  4 35  1  6  0  0  0
  4  1  1  0  0  0  0
  5  3  1  0  0  0  0
  6  4  1  0  0  0  0
  6  5  1  0  0  0  0
  8  9  1  0  0  0  0
 10 19  1  0  0  0  0
 13 17  1  0  0  0  0
 14  5  1  1  0  0  0
 14 11  1  0  0  0  0
 15 12  1  6  0  0  0
 15  8  1  0  0  0  0
 15 14  1  0  0  0  0
 16  9  1  0  0  0  0
 16 11  1  0  0  0  0
 17 20  1  6  0  0  0
 17 18  1  0  0  0  0
 17 12  1  0  0  0  0
 18 13  1  6  0  0  0
 18 10  1  0  0  0  0
 19  8  2  0  0  0  0
 21 22  1  6  0  0  0
 21 24  1  0  0  0  0
 24 32  1  0  0  0  0
 25 27  1  0  0  0  0
 26 23  1  1  0  0  0
 26 34  1  0  0  0  0
 27 31  2  0  0  0  0
 28 30  2  0  0  0  0
 28 25  1  0  0  0  0
 29 21  1  0  0  0  0
 29 30  1  0  0  0  0
 30 26  1  0  0  0  0
 31 20  1  0  0  0  0
 32 23  1  0  0  0  0
 33 25  2  0  0  0  0
 34 31  1  0  0  0  0
 36 41  1  0  0  0  0
 37 35  1  1  0  0  0
 38 37  1  0  0  0  0
 39 36  1  0  0  0  0
 39 38  2  0  0  0  0
 40 36  2  0  0  0  0
 41 37  1  0  0  0  0
 42 38  1  0  0  0  0
 43 45  2  0  0  0  0
 44 45  2  0  0  0  0
 45 46  1  0  0  0  0
 45 42  1  0  0  0  0
 46 47  1  0  0  0  0
 47 48  1  0  0  0  0
 49 47  2  0  0  0  0
 50 51  1  0  0  0  0
 50 40  1  0  0  0  0
 51 55  1  0  0  0  0
 52 53  1  0  0  0  0
 52 51  1  0  0  0  0
 55 54  1  0  0  0  0
M  END
>  <MODEL>
5

>  <REMARK>
 VINA RESULT:      -6.6      2.133      2.909
  Name = 
  13 active torsions:
  status: ('A' for Active; 'I' for Inactive)
    1  A    between atoms: C_4  and  C_23
    2  A    between atoms: C_4  and  S_31
    3  A    between atoms: O_7  and  C_8
    4  A    between atoms: O_7  and  C_29
    5  A    between atoms: C_9  and  N_27
    6  A    between atoms: C_11  and  N_18
    7  A    between atoms: N_18  and  S_31
    8  A    between atoms: O_22  and  C_42
    9  A    between atoms: O_22  and  C_43
   10  A    between atoms: N_27  and  C_50
   11  A    between atoms: N_27  and  C_53
   12  A    between atoms: C_28  and  N_34
   13  A    between atoms: C_45  and  C_50
                            x       y       z     vdW  Elec       q    Type
                         _______ _______ _______ _____ _____    ______ ____

>  <TORSDO>
F 13

$$$$
=
 OpenBabel11062418373D

 55 61  0  0  1  0  0  0  0  0999 V2000
  193.9920  171.7740  143.9400 C   0  0  0  0  0  0  0  0  0  0  0  0
  192.8670  173.2670  145.4380 O   0  0  0  0  0  0  0  0  0  0  0  0
  192.8410  172.2920  144.6290 C   0  0  0  0  0  0  0  0  0  0  0  0
  193.5350  170.7240  142.9850 C   0  0  1  0  0  3  0  0  0  0  0  0
  191.6590  171.6110  144.2370 N   0  0  0  0  0  0  0  0  0  0  0  0
  192.0490  170.5140  143.3540 C   0  0  0  0  0  2  0  0  0  0  0  0
  195.2430  171.8840  144.3770 C   0  0  0  0  0  2  0  0  0  0  0  0
  190.0580  174.6870  143.2640 C   0  0  0  0  0  0  0  0  0  0  0  0
  189.1130  174.2470  142.1770 C   0  0  0  0  0  2  0  0  0  0  0  0
  191.4440  176.3530  144.2440 C   0  0  0  0  0  2  0  0  0  0  0  0
  189.7440  171.9190  142.7330 C   0  0  0  0  0  2  0  0  0  0  0  0
  189.6980  174.1380  145.6900 C   0  0  0  0  0  2  0  0  0  0  0  0
  191.1980  175.9630  146.7000 C   0  0  0  0  0  2  0  0  0  0  0  0
  190.3520  172.2590  144.1010 C   0  0  2  0  0  3  0  0  0  0  0  0
  190.4430  173.7690  144.4080 C   0  0  1  0  0  3  0  0  0  0  0  0
  188.5840  172.8420  142.4130 C   0  0  0  0  0  2  0  0  0  0  0  0
  189.8250  175.6050  146.1510 C   0  0  1  0  0  0  0  0  0  0  0  0
  190.6580  176.7220  145.4980 C   0  0  2  0  0  3  0  0  0  0  0  0
  190.5460  175.8750  143.2170 N   0  0  0  0  0  0  0  0  0  0  0  0
  188.7190  176.1370  146.8830 O   0  0  0  0  0  0  0  0  0  0  0  0
  185.4630  177.8750  141.7280 C   0  0  1  0  0  3  0  0  0  0  0  0
  184.3680  178.1450  140.7170 C   0  0  0  0  0  1  0  0  0  0  0  0
  188.1760  178.1060  143.0630 C   0  0  0  0  0  2  0  0  0  0  0  0
  186.6480  178.4640  141.2860 O   0  0  0  0  0  0  0  0  0  0  0  0
  185.5530  178.1230  146.6480 C   0  0  0  0  0  0  0  0  0  0  0  0
  187.2270  177.8120  144.2280 C   0  0  1  0  0  3  0  0  0  0  0  0
  186.7480  177.4000  147.0300 N   0  0  0  0  0  0  0  0  0  0  0  0
  185.1180  178.3400  145.2860 N   0  0  0  0  0  0  0  0  0  0  0  0
  185.0870  178.4250  142.9840 O   0  0  0  0  0  0  0  0  0  0  0  0
  185.7870  178.2190  144.1790 C   0  0  0  0  0  0  0  0  0  0  0  0
  187.5670  176.6840  146.3120 C   0  0  0  0  0  0  0  0  0  0  0  0
  187.6540  177.6090  141.7290 C   0  0  0  0  0  2  0  0  0  0  0  0
  184.8270  178.6260  147.5920 N   0  0  0  0  0  2  0  0  0  0  0  0
  187.3630  176.4520  144.8590 C   0  0  0  0  0  2  0  0  0  0  0  0
  193.6080  171.2110  141.6720 O   0  0  0  0  0  0  0  0  0  0  0  0
  191.8340  172.1410  139.1290 C   0  0  0  0  0  0  0  0  0  0  0  0
  192.3810  171.8410  141.4120 C   0  0  1  0  0  3  0  0  0  0  0  0
  192.6200  173.2410  140.9150 C   0  0  0  0  0  0  0  0  0  0  0  0
  192.3500  173.3980  139.6340 C   0  0  0  0  0  3  0  0  0  0  0  0
  191.5160  171.8810  137.8640 C   0  0  0  0  0  3  0  0  0  0  0  0
  191.7250  171.1410  140.2160 C   0  0  0  0  0  2  0  0  0  0  0  0
  193.1040  174.3280  141.7030 N   0  0  0  0  0  2  0  0  0  0  0  0
  195.7670  174.0650  141.5920 O   0  0  0  0  0  0  0  0  0  0  0  0
  194.7250  175.8000  140.2270 O   0  0  0  0  0  0  0  0  0  0  0  0
  194.6630  175.0820  141.5490 S   0  0  0  0  0  0  0  0  0  0  0  0
  194.9070  176.2690  142.8650 C   0  0  0  0  0  2  0  0  0  0  0  0
  196.2220  176.1300  143.5600 C   0  0  0  0  0  0  0  0  0  0  0  0
  196.3840  175.2760  144.6470 O   0  0  0  0  0  1  0  0  0  0  0  0
  197.2150  176.7780  143.1330 O   0  0  0  0  0  0  0  0  0  0  0  0
  191.6360  172.9010  136.7760 C   0  0  0  0  0  2  0  0  0  0  0  0
  190.8590  172.4720  135.6200 N   0  0  0  0  0  0  0  0  0  0  0  0
  190.5750  171.0450  135.7820 C   0  0  0  0  0  2  0  0  0  0  0  0
  191.1410  170.2620  134.6100 C   0  0  0  0  0  1  0  0  0  0  0  0
  189.6320  174.3380  136.4320 O   0  0  0  0  0  1  0  0  0  0  0  0
  189.5970  173.2210  135.5890 C   0  0  0  0  0  2  0  0  0  0  0  0
  1  7  2  0  0  0  0
  1  3  1  0  0  0  0
  3  2  2  0  0  0  0
  4 35  1  6  0  0  0
  4  6  1  0  0  0  0
  4  1  1  0  0  0  0
  5  3  1  0  0  0  0
  6  5  1  0  0  0  0
  8 15  1  0  0  0  0
  9 16  1  0  0  0  0
  9  8  1  0  0  0  0
 12 17  1  0  0  0  0
 14 11  1  6  0  0  0
 14  5  1  0  0  0  0
 14 15  1  0  0  0  0
 15 12  1  1  0  0  0
 16 11  1  0  0  0  0
 17 13  1  0  0  0  0
 17 20  1  1  0  0  0
 18 10  1  6  0  0  0
 18 17  1  0  0  0  0
 18 13  1  0  0  0  0
 19  8  2  0  0  0  0
 19 10  1  0  0  0  0
 21 22  1  6  0  0  0
 21 29  1  0  0  0  0
 24 21  1  0  0  0  0
 24 32  1  0  0  0  0
 25 27  1  0  0  0  0
 25 33  2  0  0  0  0
 26 23  1  6  0  0  0
 26 34  1  0  0  0  0
 28 25  1  0  0  0  0
 29 30  1  0  0  0  0
 30 26  1  0  0  0  0
 30 28  2  0  0  0  0
 31 20  1  0  0  0  0
 31 27  2  0  0  0  0
 32 23  1  0  0  0  0
 34 31  1  0  0  0  0
 36 39  1  0  0  0  0
 36 41  1  0  0  0  0
 37 35  1  6  0  0  0
 38 37  1  0  0  0  0
 38 42  1  0  0  0  0
 39 38  2  0  0  0  0
 40 36  2  0  0  0  0
 41 37  1  0  0  0  0
 44 45  2  0  0  0  0
 45 43  2  0  0  0  0
 45 42  1  0  0  0  0
 45 46  1  0  0  0  0
 46 47  1  0  0  0  0
 47 48  1  0  0  0  0
 49 47  2  0  0  0  0
 50 40  1  0  0  0  0
 51 52  1  0  0  0  0
 51 50  1  0  0  0  0
 53 52  1  0  0  0  0
 55 51  1  0  0  0  0
 55 54  1  0  0  0  0
M  END
>  <MODEL>
6

>  <REMARK>
 VINA RESULT:      -6.6      2.535      8.605
  Name = 
  13 active torsions:
  status: ('A' for Active; 'I' for Inactive)
    1  A    between atoms: C_4  and  C_23
    2  A    between atoms: C_4  and  S_31
    3  A    between atoms: O_7  and  C_8
    4  A    between atoms: O_7  and  C_29
    5  A    between atoms: C_9  and  N_27
    6  A    between atoms: C_11  and  N_18
    7  A    between atoms: N_18  and  S_31
    8  A    between atoms: O_22  and  C_42
    9  A    between atoms: O_22  and  C_43
   10  A    between atoms: N_27  and  C_50
   11  A    between atoms: N_27  and  C_53
   12  A    between atoms: C_28  and  N_34
   13  A    between atoms: C_45  and  C_50
                            x       y       z     vdW  Elec       q    Type
                         _______ _______ _______ _____ _____    ______ ____

>  <TORSDO>
F 13

$$$$
=
 OpenBabel11062418373D

 55 61  0  0  1  0  0  0  0  0999 V2000
  195.7570  175.1370  144.5170 C   0  0  0  0  0  0  0  0  0  0  0  0
  195.1360  177.3140  145.2960 O   0  0  0  0  0  0  0  0  0  0  0  0
  194.9290  176.0660  145.2360 C   0  0  0  0  0  0  0  0  0  0  0  0
  195.1140  173.7920  144.5720 C   0  0  1  0  0  3  0  0  0  0  0  0
  193.8090  175.4130  145.8150 N   0  0  0  0  0  0  0  0  0  0  0  0
  193.9630  173.9770  145.5870 C   0  0  0  0  0  2  0  0  0  0  0  0
  197.0450  175.3320  144.2450 C   0  0  0  0  0  2  0  0  0  0  0  0
  190.3000  174.6330  146.0270 C   0  0  0  0  0  0  0  0  0  0  0  0
  189.8830  175.2960  147.3140 C   0  0  0  0  0  2  0  0  0  0  0  0
  190.0300  172.9070  144.4130 C   0  0  0  0  0  2  0  0  0  0  0  0
  192.1520  176.2830  147.4020 C   0  0  0  0  0  2  0  0  0  0  0  0
  190.8770  175.9260  143.9510 C   0  0  0  0  0  2  0  0  0  0  0  0
  190.5600  174.0310  142.2450 C   0  0  0  0  0  2  0  0  0  0  0  0
  192.4800  176.0180  145.9270 C   0  0  2  0  0  3  0  0  0  0  0  0
  191.4220  175.1860  145.1710 C   0  0  1  0  0  3  0  0  0  0  0  0
  190.6730  176.5660  147.5850 C   0  0  0  0  0  2  0  0  0  0  0  0
  189.8990  175.1350  143.0570 C   0  0  1  0  0  0  0  0  0  0  0  0
  189.4540  173.6710  143.2250 C   0  0  2  0  0  3  0  0  0  0  0  0
  189.6810  173.5720  145.6480 N   0  0  0  0  0  0  0  0  0  0  0  0
  188.9190  175.9020  142.3560 O   0  0  0  0  0  0  0  0  0  0  0  0
  182.9760  178.0000  141.6590 C   0  0  1  0  0  3  0  0  0  0  0  0
  181.5040  178.3000  141.8500 C   0  0  0  0  0  1  0  0  0  0  0  0
  185.7860  178.2960  140.5590 C   0  0  0  0  0  2  0  0  0  0  0  0
  183.4580  178.7440  140.5830 O   0  0  0  0  0  0  0  0  0  0  0  0
  186.7110  177.6130  144.8500 C   0  0  0  0  0  0  0  0  0  0  0  0
  186.0110  177.7690  141.9800 C   0  0  1  0  0  3  0  0  0  0  0  0
  187.7630  176.9550  144.1050 N   0  0  0  0  0  0  0  0  0  0  0  0
  185.4150  177.9660  144.3150 N   0  0  0  0  0  0  0  0  0  0  0  0
  183.6820  178.3460  142.8440 O   0  0  0  0  0  0  0  0  0  0  0  0
  185.0310  178.0500  143.0760 C   0  0  0  0  0  0  0  0  0  0  0  0
  187.7460  176.4140  142.9190 C   0  0  0  0  0  0  0  0  0  0  0  0
  184.4270  177.9310  139.9970 C   0  0  0  0  0  2  0  0  0  0  0  0
  186.9490  177.9220  146.0830 N   0  0  0  0  0  2  0  0  0  0  0  0
  186.5190  176.3570  142.0840 C   0  0  0  0  0  2  0  0  0  0  0  0
  194.5650  173.4760  143.3210 O   0  0  0  0  0  0  0  0  0  0  0  0
  194.7830  171.6720  140.6420 C   0  0  0  0  0  0  0  0  0  0  0  0
  195.2350  172.3270  142.8710 C   0  0  1  0  0  3  0  0  0  0  0  0
  194.2670  171.1800  142.7660 C   0  0  0  0  0  0  0  0  0  0  0  0
  193.9870  170.8400  141.5230 C   0  0  0  0  0  3  0  0  0  0  0  0
  194.7260  171.6760  139.3130 C   0  0  0  0  0  3  0  0  0  0  0  0
  195.6720  172.5640  141.4200 C   0  0  0  0  0  2  0  0  0  0  0  0
  193.6680  170.4990  143.8670 N   0  0  0  0  0  2  0  0  0  0  0  0
  193.4200  168.4000  145.5120 O   0  0  0  0  0  0  0  0  0  0  0  0
  195.3250  168.4470  143.9870 O   0  0  0  0  0  0  0  0  0  0  0  0
  194.4340  169.2920  144.8580 S   0  0  0  0  0  0  0  0  0  0  0  0
  195.4310  170.0730  146.1210 C   0  0  0  0  0  2  0  0  0  0  0  0
  196.2630  169.1110  146.9050 C   0  0  0  0  0  0  0  0  0  0  0  0
  195.7360  168.3980  147.9770 O   0  0  0  0  0  1  0  0  0  0  0  0
  197.4630  168.9190  146.5680 O   0  0  0  0  0  0  0  0  0  0  0  0
  193.8180  170.7720  138.5410 C   0  0  0  0  0  2  0  0  0  0  0  0
  192.7830  171.5640  137.8890 N   0  0  0  0  0  0  0  0  0  0  0  0
  192.8370  171.2700  136.4560 C   0  0  0  0  0  2  0  0  0  0  0  0
  191.8640  172.1590  135.7010 C   0  0  0  0  0  1  0  0  0  0  0  0
  191.0860  169.9040  137.9660 O   0  0  0  0  0  1  0  0  0  0  0  0
  191.4740  171.1690  138.4210 C   0  0  0  0  0  2  0  0  0  0  0  0
  1  4  1  0  0  0  0
  1  3  1  0  0  0  0
  3  2  2  0  0  0  0
  3  5  1  0  0  0  0
  4 35  1  6  0  0  0
  4  6  1  0  0  0  0
  6  5  1  0  0  0  0
  7  1  2  0  0  0  0
  8  9  1  0  0  0  0
  9 16  1  0  0  0  0
 10 19  1  0  0  0  0
 11 16  1  0  0  0  0
 13 17  1  0  0  0  0
 14  5  1  1  0  0  0
 14 11  1  0  0  0  0
 15 12  1  6  0  0  0
 15 14  1  0  0  0  0
 15  8  1  0  0  0  0
 17 20  1  6  0  0  0
 17 18  1  0  0  0  0
 17 12  1  0  0  0  0
 18 13  1  6  0  0  0
 18 10  1  0  0  0  0
 19  8  2  0  0  0  0
 20 31  1  0  0  0  0
 21 22  1  1  0  0  0
 21 29  1  0  0  0  0
 24 21  1  0  0  0  0
 25 33  2  0  0  0  0
 26 23  1  6  0  0  0
 26 34  1  0  0  0  0
 26 30  1  0  0  0  0
 27 25  1  0  0  0  0
 28 25  1  0  0  0  0
 29 30  1  0  0  0  0
 30 28  2  0  0  0  0
 31 27  2  0  0  0  0
 32 23  1  0  0  0  0
 32 24  1  0  0  0  0
 34 31  1  0  0  0  0
 36 41  1  0  0  0  0
 36 39  1  0  0  0  0
 37 35  1  6  0  0  0
 38 37  1  0  0  0  0
 38 42  1  0  0  0  0
 39 38  2  0  0  0  0
 40 36  2  0  0  0  0
 41 37  1  0  0  0  0
 42 45  1  0  0  0  0
 44 45  2  0  0  0  0
 45 43  2  0  0  0  0
 45 46  1  0  0  0  0
 46 47  1  0  0  0  0
 47 48  1  0  0  0  0
 49 47  2  0  0  0  0
 50 40  1  0  0  0  0
 51 55  1  0  0  0  0
 51 50  1  0  0  0  0
 52 51  1  0  0  0  0
 53 52  1  0  0  0  0
 54 55  1  0  0  0  0
M  END
>  <MODEL>
7

>  <REMARK>
 VINA RESULT:      -6.5      2.923      8.628
  Name = 
  13 active torsions:
  status: ('A' for Active; 'I' for Inactive)
    1  A    between atoms: C_4  and  C_23
    2  A    between atoms: C_4  and  S_31
    3  A    between atoms: O_7  and  C_8
    4  A    between atoms: O_7  and  C_29
    5  A    between atoms: C_9  and  N_27
    6  A    between atoms: C_11  and  N_18
    7  A    between atoms: N_18  and  S_31
    8  A    between atoms: O_22  and  C_42
    9  A    between atoms: O_22  and  C_43
   10  A    between atoms: N_27  and  C_50
   11  A    between atoms: N_27  and  C_53
   12  A    between atoms: C_28  and  N_34
   13  A    between atoms: C_45  and  C_50
                            x       y       z     vdW  Elec       q    Type
                         _______ _______ _______ _____ _____    ______ ____

>  <TORSDO>
F 13

$$$$
=
 OpenBabel11062418373D

 55 61  0  0  1  0  0  0  0  0999 V2000
  195.8690  174.4640  144.3270 C   0  0  0  0  0  0  0  0  0  0  0  0
  195.7750  176.7710  144.9630 O   0  0  0  0  0  0  0  0  0  0  0  0
  195.3150  175.5920  145.0240 C   0  0  0  0  0  0  0  0  0  0  0  0
  194.9760  173.2900  144.5430 C   0  0  1  0  0  3  0  0  0  0  0  0
  194.1440  175.2270  145.7400 N   0  0  0  0  0  0  0  0  0  0  0  0
  193.9830  173.7790  145.6230 C   0  0  0  0  0  2  0  0  0  0  0  0
  197.1400  174.3670  143.9430 C   0  0  0  0  0  2  0  0  0  0  0  0
  190.5440  175.2770  145.6390 C   0  0  0  0  0  0  0  0  0  0  0  0
  190.1750  175.7940  147.0060 C   0  0  0  0  0  2  0  0  0  0  0  0
  190.0370  173.9630  143.7240 C   0  0  0  0  0  2  0  0  0  0  0  0
  192.5900  176.1850  147.3810 C   0  0  0  0  0  2  0  0  0  0  0  0
  191.5790  176.7290  143.8670 C   0  0  0  0  0  2  0  0  0  0  0  0
  190.9960  175.2790  141.8280 C   0  0  0  0  0  2  0  0  0  0  0  0
  192.9800  176.1030  145.8990 C   0  0  2  0  0  3  0  0  0  0  0  0
  191.8340  175.6850  144.9530 C   0  0  1  0  0  3  0  0  0  0  0  0
  191.2030  176.7750  147.5430 C   0  0  0  0  0  2  0  0  0  0  0  0
  190.5310  176.3540  142.7980 C   0  0  1  0  0  0  0  0  0  0  0  0
  189.7550  175.0310  142.6720 C   0  0  2  0  0  3  0  0  0  0  0  0
  189.7390  174.4730  145.0420 N   0  0  0  0  0  0  0  0  0  0  0  0
  189.8140  177.4390  142.2060 O   0  0  0  0  0  0  0  0  0  0  0  0
  184.7820  178.1770  145.9920 C   0  0  1  0  0  3  0  0  0  0  0  0
  183.4810  178.6390  146.6140 C   0  0  0  0  0  1  0  0  0  0  0  0
  187.1570  176.3690  145.4560 C   0  0  0  0  0  2  0  0  0  0  0  0
  185.2420  177.0520  146.6750 O   0  0  0  0  0  0  0  0  0  0  0  0
  186.1840  177.6080  141.3020 C   0  0  0  0  0  0  0  0  0  0  0  0
  186.9320  177.0730  144.1140 C   0  0  1  0  0  3  0  0  0  0  0  0
  187.6260  177.5040  141.3610 N   0  0  0  0  0  0  0  0  0  0  0  0
  185.3190  177.7620  142.4510 N   0  0  0  0  0  0  0  0  0  0  0  0
  184.5590  177.8570  144.6240 O   0  0  0  0  0  0  0  0  0  0  0  0
  185.5740  177.5550  143.7080 C   0  0  0  0  0  0  0  0  0  0  0  0
  188.4450  177.6760  142.3600 C   0  0  0  0  0  0  0  0  0  0  0  0
  186.6300  177.1590  146.6380 C   0  0  0  0  0  2  0  0  0  0  0  0
  185.6230  177.5450  140.1390 N   0  0  0  0  0  2  0  0  0  0  0  0
  187.9810  178.0750  143.7150 C   0  0  0  0  0  2  0  0  0  0  0  0
  194.2620  173.0120  143.3690 O   0  0  0  0  0  0  0  0  0  0  0  0
  194.3500  171.9230  140.3210 C   0  0  0  0  0  0  0  0  0  0  0  0
  195.1620  172.3780  142.4970 C   0  0  1  0  0  3  0  0  0  0  0  0
  194.7530  170.9440  142.2960 C   0  0  0  0  0  0  0  0  0  0  0  0
  194.2660  170.7000  141.0950 C   0  0  0  0  0  3  0  0  0  0  0  0
  193.8910  172.0950  139.0850 C   0  0  0  0  0  3  0  0  0  0  0  0
  195.0010  172.9980  141.1040 C   0  0  0  0  0  2  0  0  0  0  0  0
  194.8460  169.9110  143.2760 N   0  0  0  0  0  2  0  0  0  0  0  0
  192.5040  170.4960  144.4350 O   0  0  0  0  0  0  0  0  0  0  0  0
  193.3100  168.1960  144.5680 O   0  0  0  0  0  0  0  0  0  0  0  0
  193.7300  169.6420  144.5810 S   0  0  0  0  0  0  0  0  0  0  0  0
  194.5140  170.0020  146.1480 C   0  0  0  0  0  2  0  0  0  0  0  0
  195.3180  168.8660  146.6910 C   0  0  0  0  0  0  0  0  0  0  0  0
  196.2860  168.2280  145.9230 O   0  0  0  0  0  0  0  0  0  0  0  0
  195.1350  168.4980  147.8820 O   0  0  0  0  0  1  0  0  0  0  0  0
  193.2320  170.9990  138.3080 C   0  0  0  0  0  2  0  0  0  0  0  0
  191.7910  171.2150  138.2920 N   0  0  0  0  0  0  0  0  0  0  0  0
  191.4800  172.0530  137.1330 C   0  0  0  0  0  2  0  0  0  0  0  0
  190.7000  173.2810  137.5670 C   0  0  0  0  0  1  0  0  0  0  0  0
  189.7990  169.9640  138.6220 O   0  0  0  0  0  1  0  0  0  0  0  0
  191.1170  169.9190  138.1540 C   0  0  0  0  0  2  0  0  0  0  0  0
  1  4  1  0  0  0  0
  1  3  1  0  0  0  0
  2  3  2  0  0  0  0
  3  5  1  0  0  0  0
  4 35  1  6  0  0  0
  4  6  1  0  0  0  0
  6  5  1  0  0  0  0
  7  1  2  0  0  0  0
  8  9  1  0  0  0  0
  9 16  1  0  0  0  0
 10 19  1  0  0  0  0
 11 16  1  0  0  0  0
 13 17  1  0  0  0  0
 14  5  1  1  0  0  0
 14 11  1  0  0  0  0
 15 12  1  6  0  0  0
 15  8  1  0  0  0  0
 15 14  1  0  0  0  0
 17 20  1  6  0  0  0
 17 12  1  0  0  0  0
 18 13  1  6  0  0  0
 18 17  1  0  0  0  0
 18 10  1  0  0  0  0
 19  8  2  0  0  0  0
 20 31  1  0  0  0  0
 21 22  1  1  0  0  0
 21 24  1  0  0  0  0
 23 32  1  0  0  0  0
 25 27  1  0  0  0  0
 25 28  1  0  0  0  0
 26 34  1  1  0  0  0
 26 23  1  0  0  0  0
 27 31  2  0  0  0  0
 28 30  2  0  0  0  0
 29 21  1  0  0  0  0
 30 26  1  0  0  0  0
 30 29  1  0  0  0  0
 31 34  1  0  0  0  0
 32 24  1  0  0  0  0
 33 25  2  0  0  0  0
 36 39  1  0  0  0  0
 36 41  1  0  0  0  0
 37 35  1  1  0  0  0
 38 37  1  0  0  0  0
 38 42  1  0  0  0  0
 39 38  2  0  0  0  0
 40 36  2  0  0  0  0
 41 37  1  0  0  0  0
 42 45  1  0  0  0  0
 43 45  2  0  0  0  0
 44 45  2  0  0  0  0
 45 46  1  0  0  0  0
 46 47  1  0  0  0  0
 47 49  1  0  0  0  0
 48 47  2  0  0  0  0
 50 40  1  0  0  0  0
 51 50  1  0  0  0  0
 52 53  1  0  0  0  0
 52 51  1  0  0  0  0
 55 51  1  0  0  0  0
 55 54  1  0  0  0  0
M  END
>  <MODEL>
8

>  <REMARK>
 VINA RESULT:      -6.4      2.619      8.557
  Name = 
  13 active torsions:
  status: ('A' for Active; 'I' for Inactive)
    1  A    between atoms: C_4  and  C_23
    2  A    between atoms: C_4  and  S_31
    3  A    between atoms: O_7  and  C_8
    4  A    between atoms: O_7  and  C_29
    5  A    between atoms: C_9  and  N_27
    6  A    between atoms: C_11  and  N_18
    7  A    between atoms: N_18  and  S_31
    8  A    between atoms: O_22  and  C_42
    9  A    between atoms: O_22  and  C_43
   10  A    between atoms: N_27  and  C_50
   11  A    between atoms: N_27  and  C_53
   12  A    between atoms: C_28  and  N_34
   13  A    between atoms: C_45  and  C_50
                            x       y       z     vdW  Elec       q    Type
                         _______ _______ _______ _____ _____    ______ ____

>  <TORSDO>
F 13

$$$$
=
 OpenBabel11062418373D

 55 61  0  0  1  0  0  0  0  0999 V2000
  195.9490  172.0730  144.5750 C   0  0  0  0  0  0  0  0  0  0  0  0
  196.7930  174.1310  145.4640 O   0  0  0  0  0  0  0  0  0  0  0  0
  195.8280  173.3420  145.2400 C   0  0  0  0  0  0  0  0  0  0  0  0
  194.5820  171.5100  144.3820 C   0  0  1  0  0  3  0  0  0  0  0  0
  194.4730  173.6280  145.5560 N   0  0  0  0  0  0  0  0  0  0  0  0
  193.6770  172.4520  145.2070 C   0  0  0  0  0  2  0  0  0  0  0  0
  197.0620  171.3460  144.5410 C   0  0  0  0  0  2  0  0  0  0  0  0
  191.8000  175.6540  146.8670 C   0  0  0  0  0  0  0  0  0  0  0  0
  192.5310  176.8110  147.4980 C   0  0  0  0  0  2  0  0  0  0  0  0
  189.9240  174.1940  146.7880 C   0  0  0  0  0  2  0  0  0  0  0  0
  194.6050  175.8830  146.5160 C   0  0  0  0  0  2  0  0  0  0  0  0
  191.6380  175.3360  144.3790 C   0  0  0  0  0  2  0  0  0  0  0  0
  189.6020  173.7700  144.3470 C   0  0  0  0  0  2  0  0  0  0  0  0
  193.8910  174.9710  145.5090 C   0  0  2  0  0  3  0  0  0  0  0  0
  192.3560  174.9200  145.6620 C   0  0  1  0  0  3  0  0  0  0  0  0
  193.8110  177.1520  146.7540 C   0  0  0  0  0  2  0  0  0  0  0  0
  190.1010  175.2070  144.3890 C   0  0  1  0  0  0  0  0  0  0  0  0
  189.2150  174.6570  145.5200 C   0  0  2  0  0  3  0  0  0  0  0  0
  190.6740  175.2860  147.3660 N   0  0  0  0  0  0  0  0  0  0  0  0
  189.3830  176.1240  143.5610 O   0  0  0  0  0  0  0  0  0  0  0  0
  183.6640  177.9670  141.5340 C   0  0  1  0  0  3  0  0  0  0  0  0
  182.1780  178.2260  141.4020 C   0  0  0  0  0  1  0  0  0  0  0  0
  186.6330  178.2920  141.0090 C   0  0  0  0  0  2  0  0  0  0  0  0
  184.3400  178.6590  140.5310 O   0  0  0  0  0  0  0  0  0  0  0  0
  186.6750  177.9070  145.4350 C   0  0  0  0  0  0  0  0  0  0  0  0
  186.5740  177.8620  142.4790 C   0  0  1  0  0  3  0  0  0  0  0  0
  187.8710  177.2420  144.9640 N   0  0  0  0  0  0  0  0  0  0  0  0
  185.5080  178.1810  144.6250 N   0  0  0  0  0  0  0  0  0  0  0  0
  184.1050  178.4100  142.8120 O   0  0  0  0  0  0  0  0  0  0  0  0
  185.3840  178.1750  143.3320 C   0  0  0  0  0  0  0  0  0  0  0  0
  188.1090  176.6290  143.8390 C   0  0  0  0  0  0  0  0  0  0  0  0
  185.4250  177.8460  140.2090 C   0  0  0  0  0  2  0  0  0  0  0  0
  186.6490  178.2990  146.6670 N   0  0  0  0  0  2  0  0  0  0  0  0
  187.0800  176.4770  142.7780 C   0  0  0  0  0  2  0  0  0  0  0  0
  194.2160  171.6010  143.0320 O   0  0  0  0  0  0  0  0  0  0  0  0
  191.6100  172.0380  141.1620 C   0  0  0  0  0  0  0  0  0  0  0  0
  193.0720  172.4140  142.9840 C   0  0  1  0  0  3  0  0  0  0  0  0
  193.2120  173.4290  141.8820 C   0  0  0  0  0  0  0  0  0  0  0  0
  192.4240  173.1970  140.8510 C   0  0  0  0  0  3  0  0  0  0  0  0
  190.7430  171.4530  140.3410 C   0  0  0  0  0  3  0  0  0  0  0  0
  191.8880  171.5520  142.5320 C   0  0  0  0  0  2  0  0  0  0  0  0
  194.1040  174.5420  141.8900 N   0  0  0  0  0  2  0  0  0  0  0  0
  196.6460  175.2520  142.3460 O   0  0  0  0  0  0  0  0  0  0  0  0
  196.2260  173.0910  141.2890 O   0  0  0  0  0  0  0  0  0  0  0  0
  195.7640  174.5220  141.3740 S   0  0  0  0  0  0  0  0  0  0  0  0
  195.9190  175.2770  139.7600 C   0  0  0  0  0  2  0  0  0  0  0  0
  195.0340  174.6620  138.7250 C   0  0  0  0  0  0  0  0  0  0  0  0
  195.3120  173.4140  138.1780 O   0  0  0  0  0  0  0  0  0  0  0  0
  193.9950  175.2760  138.3620 O   0  0  0  0  0  1  0  0  0  0  0  0
  190.4760  171.9540  138.9570 C   0  0  0  0  0  2  0  0  0  0  0  0
  189.5940  173.1120  139.0210 N   0  0  0  0  0  0  0  0  0  0  0  0
  189.5470  173.7090  137.6850 C   0  0  0  0  0  2  0  0  0  0  0  0
  190.9490  173.8270  137.1130 C   0  0  0  0  0  1  0  0  0  0  0  0
  187.8920  173.1270  140.6780 O   0  0  0  0  0  1  0  0  0  0  0  0
  188.2500  172.6670  139.4060 C   0  0  0  0  0  2  0  0  0  0  0  0
  1  3  1  0  0  0  0
  3  2  2  0  0  0  0
  3  5  1  0  0  0  0
  4 35  1  6  0  0  0
  4  1  1  0  0  0  0
  4  6  1  0  0  0  0
  6  5  1  0  0  0  0
  7  1  2  0  0  0  0
  8 19  2  0  0  0  0
  8  9  1  0  0  0  0
 10 19  1  0  0  0  0
 11 16  1  0  0  0  0
 12 17  1  0  0  0  0
 13 17  1  0  0  0  0
 14  5  1  1  0  0  0
 14 15  1  0  0  0  0
 14 11  1  0  0  0  0
 15 12  1  6  0  0  0
 15  8  1  0  0  0  0
 16  9  1  0  0  0  0
 17 20  1  6  0  0  0
 17 18  1  0  0  0  0
 18 13  1  6  0  0  0
 18 10  1  0  0  0  0
 20 31  1  0  0  0  0
 21 22  1  1  0  0  0
 21 29  1  0  0  0  0
 24 21  1  0  0  0  0
 25 33  2  0  0  0  0
 26 23  1  6  0  0  0
 26 34  1  0  0  0  0
 26 30  1  0  0  0  0
 27 25  1  0  0  0  0
 28 25  1  0  0  0  0
 29 30  1  0  0  0  0
 30 28  2  0  0  0  0
 31 27  2  0  0  0  0
 32 24  1  0  0  0  0
 32 23  1  0  0  0  0
 34 31  1  0  0  0  0
 36 41  1  0  0  0  0
 37 35  1  6  0  0  0
 38 42  1  0  0  0  0
 38 37  1  0  0  0  0
 39 36  1  0  0  0  0
 39 38  2  0  0  0  0
 40 36  2  0  0  0  0
 41 37  1  0  0  0  0
 44 45  2  0  0  0  0
 45 42  1  0  0  0  0
 45 43  2  0  0  0  0
 46 45  1  0  0  0  0
 47 46  1  0  0  0  0
 48 47  2  0  0  0  0
 49 47  1  0  0  0  0
 50 51  1  0  0  0  0
 50 40  1  0  0  0  0
 51 55  1  0  0  0  0
 52 51  1  0  0  0  0
 53 52  1  0  0  0  0
 55 54  1  0  0  0  0
M  END
>  <MODEL>
9

>  <REMARK>
 VINA RESULT:      -6.4      2.598      7.843
  Name = 
  13 active torsions:
  status: ('A' for Active; 'I' for Inactive)
    1  A    between atoms: C_4  and  C_23
    2  A    between atoms: C_4  and  S_31
    3  A    between atoms: O_7  and  C_8
    4  A    between atoms: O_7  and  C_29
    5  A    between atoms: C_9  and  N_27
    6  A    between atoms: C_11  and  N_18
    7  A    between atoms: N_18  and  S_31
    8  A    between atoms: O_22  and  C_42
    9  A    between atoms: O_22  and  C_43
   10  A    between atoms: N_27  and  C_50
   11  A    between atoms: N_27  and  C_53
   12  A    between atoms: C_28  and  N_34
   13  A    between atoms: C_45  and  C_50
                            x       y       z     vdW  Elec       q    Type
                         _______ _______ _______ _____ _____    ______ ____

>  <TORSDO>
F 13

$$$$
