=
 OpenBabel11062422203D

 41 46  0  0  1  0  0  0  0  0999 V2000
  191.6650  175.4350  145.6170 C   0  0  1  0  0  3  0  0  0  0  0  0
  191.2050  176.2720  147.8480 C   0  0  0  0  0  3  0  0  0  0  0  0
  191.6840  173.5210  144.0130 C   0  0  0  0  0  0  0  0  0  0  0  0
  191.0020  172.0320  142.4210 C   0  0  0  0  0  0  0  0  0  0  0  0
  189.9200  172.9170  142.6900 N   0  0  0  0  0  0  0  0  0  0  0  0
  190.9240  171.0750  141.6050 O   0  0  0  0  0  0  0  0  0  0  0  0
  189.6290  174.6940  144.4530 N   0  0  0  0  0  0  0  0  0  0  0  0
  190.1580  175.4100  145.4010 C   0  0  0  0  0  0  0  0  0  0  0  0
  189.8580  176.7090  147.4220 C   0  0  0  0  0  3  0  0  0  0  0  0
  189.3320  176.2780  146.2710 C   0  0  0  0  0  0  0  0  0  0  0  0
  191.9970  175.6360  147.0320 N   0  0  0  0  0  0  0  0  0  0  0  0
  190.4240  173.7760  143.6990 C   0  0  0  0  0  0  0  0  0  0  0  0
  192.3480  174.2560  145.0530 N   0  0  0  0  0  0  0  0  0  0  0  0
  192.2210  172.3540  143.2300 C   0  0  2  0  0  3  0  0  0  0  0  0
  188.5110  172.6240  142.4490 C   0  0  0  0  0  3  0  0  0  0  0  0
  187.8130  173.8480  141.8870 C   0  0  0  0  0  2  0  0  0  0  0  0
  188.2170  172.7200  140.9640 C   0  0  0  0  0  2  0  0  0  0  0  0
  188.0370  176.6840  145.9210 O   0  0  0  0  0  0  0  0  0  0  0  0
  187.6210  176.9750  144.6160 C   0  0  0  0  0  0  0  0  0  0  0  0
  185.9500  176.7570  142.8720 C   0  0  0  0  0  3  0  0  0  0  0  0
  187.9880  177.9840  142.4370 C   0  0  0  0  0  3  0  0  0  0  0  0
  186.7430  177.5110  142.0000 C   0  0  0  0  0  0  0  0  0  0  0  0
  188.4270  177.7120  143.7360 C   0  0  0  0  0  3  0  0  0  0  0  0
  186.3880  176.4870  144.1720 C   0  0  0  0  0  3  0  0  0  0  0  0
  186.2740  177.7990  140.6350 C   0  0  0  0  0  0  0  0  0  0  0  0
  186.9200  177.3830  139.6360 O   0  0  0  0  0  0  0  0  0  0  0  0
  185.1100  178.5330  140.4340 O   0  0  0  0  0  1  0  0  0  0  0  0
  193.7710  174.0440  145.3050 C   0  0  0  0  0  2  0  0  0  0  0  0
  195.3380  176.4140  141.5420 C   0  0  0  0  0  1  0  0  0  0  0  0
  195.7790  176.8310  143.9000 N   0  0  0  0  0  0  0  0  0  0  0  0
  194.6060  174.9760  144.4830 C   0  0  0  0  0  0  0  0  0  0  0  0
  195.1360  174.7000  143.3080 C   0  0  0  0  0  0  0  0  0  0  0  0
  194.9760  173.4970  142.6310 O   0  0  0  0  0  1  0  0  0  0  0  0
  195.9390  175.8600  142.8210 C   0  0  1  0  0  3  0  0  0  0  0  0
  194.6760  177.0590  146.0640 C   0  0  0  0  0  1  0  0  0  0  0  0
  195.0350  176.3200  144.8250 C   0  0  0  0  0  0  0  0  0  0  0  0
  192.5230  171.1850  144.1610 C   0  0  0  0  0  2  0  0  0  0  0  0
  193.7630  170.4320  143.7070 C   0  0  0  0  0  2  0  0  0  0  0  0
  194.5670  170.3970  146.0690 O   0  0  0  0  0  1  0  0  0  0  0  0
  196.0300  170.8040  144.3500 O   0  0  0  0  0  0  0  0  0  0  0  0
  194.8540  170.5470  144.7180 C   0  0  0  0  0  0  0  0  0  0  0  0
  1  8  1  1  0  0  0
  1 11  1  0  0  0  0
  3 13  1  0  0  0  0
  4  5  1  0  0  0  0
  4 14  1  0  0  0  0
  5 12  1  0  0  0  0
  6  4  2  0  0  0  0
  7  8  2  0  0  0  0
  8 10  1  0  0  0  0
  9  2  1  0  0  0  0
 10  9  2  0  0  0  0
 11  2  2  0  0  0  0
 12  3  2  0  0  0  0
 12  7  1  0  0  0  0
 13 28  1  0  0  0  0
 13  1  1  0  0  0  0
 14  3  1  0  0  0  0
 14 37  1  1  0  0  0
 15  5  1  0  0  0  0
 16 15  1  0  0  0  0
 17 16  1  0  0  0  0
 17 15  1  0  0  0  0
 18 10  1  0  0  0  0
 19 18  1  0  0  0  0
 20 24  2  0  0  0  0
 21 23  1  0  0  0  0
 22 21  2  0  0  0  0
 22 20  1  0  0  0  0
 23 19  2  0  0  0  0
 24 19  1  0  0  0  0
 25 22  1  0  0  0  0
 26 25  2  0  0  0  0
 27 25  1  0  0  0  0
 30 36  2  0  0  0  0
 31 36  1  0  0  0  0
 31 28  1  0  0  0  0
 32 31  2  0  0  0  0
 33 32  1  0  0  0  0
 34 29  1  6  0  0  0
 34 32  1  0  0  0  0
 34 30  1  0  0  0  0
 36 35  1  0  0  0  0
 38 37  1  0  0  0  0
 38 41  1  0  0  0  0
 40 41  2  0  0  0  0
 41 39  1  0  0  0  0
M  END
>  <MODEL>
1

>  <REMARK>
 VINA RESULT:      -7.1      0.000      0.000
  Name = 
  9 active torsions:
  status: ('A' for Active; 'I' for Inactive)
    1  A    between atoms: O_4  and  C_6
    2  A    between atoms: O_4  and  C_23
    3  A    between atoms: N_8  and  C_18
    4  A    between atoms: C_16  and  C_21
    5  A    between atoms: C_16  and  N_33
    6  A    between atoms: C_20  and  C_32
    7  A    between atoms: C_24  and  C_27
    8  A    between atoms: C_27  and  C_36
    9  A    between atoms: C_36  and  C_37
                            x       y       z     vdW  Elec       q    Type
                         _______ _______ _______ _____ _____    ______ ____

>  <TORSDO>
F 9

$$$$
=
 OpenBabel11062422203D

 41 46  0  0  1  0  0  0  0  0999 V2000
  190.9970  174.0840  143.8930 C   0  0  1  0  0  3  0  0  0  0  0  0
  189.7680  172.0250  144.2640 C   0  0  0  0  0  3  0  0  0  0  0  0
  193.1660  175.3220  143.9590 C   0  0  0  0  0  0  0  0  0  0  0  0
  195.1820  176.1790  143.3140 C   0  0  0  0  0  0  0  0  0  0  0  0
  194.6710  175.3970  142.2400 N   0  0  0  0  0  0  0  0  0  0  0  0
  196.2990  176.7600  143.2740 O   0  0  0  0  0  0  0  0  0  0  0  0
  192.6720  173.8690  142.1050 N   0  0  0  0  0  0  0  0  0  0  0  0
  191.5830  173.4190  142.6550 C   0  0  0  0  0  0  0  0  0  0  0  0
  189.9450  171.6470  142.8460 C   0  0  0  0  0  3  0  0  0  0  0  0
  190.8330  172.2830  142.0750 C   0  0  0  0  0  0  0  0  0  0  0  0
  190.3060  173.1100  144.7440 N   0  0  0  0  0  0  0  0  0  0  0  0
  193.4450  174.8900  142.7400 C   0  0  0  0  0  0  0  0  0  0  0  0
  191.9890  174.8710  144.6490 N   0  0  0  0  0  0  0  0  0  0  0  0
  194.2580  176.2080  144.4930 C   0  0  2  0  0  3  0  0  0  0  0  0
  195.4730  174.7930  141.1810 C   0  0  0  0  0  3  0  0  0  0  0  0
  194.9510  175.2230  139.8230 C   0  0  0  0  0  2  0  0  0  0  0  0
  196.1870  175.8790  140.4000 C   0  0  0  0  0  2  0  0  0  0  0  0
  190.9980  171.8680  140.7460 O   0  0  0  0  0  0  0  0  0  0  0  0
  190.5060  172.5580  139.6310 C   0  0  0  0  0  0  0  0  0  0  0  0
  188.6040  173.3920  138.3790 C   0  0  0  0  0  3  0  0  0  0  0  0
  190.8440  173.7420  137.5370 C   0  0  0  0  0  3  0  0  0  0  0  0
  189.4590  173.9150  137.4030 C   0  0  0  0  0  0  0  0  0  0  0  0
  191.3640  173.0620  138.6420 C   0  0  0  0  0  3  0  0  0  0  0  0
  189.1240  172.7130  139.4850 C   0  0  0  0  0  3  0  0  0  0  0  0
  188.9070  174.6350  136.2440 C   0  0  0  0  0  0  0  0  0  0  0  0
  187.9140  175.3990  136.3810 O   0  0  0  0  0  1  0  0  0  0  0  0
  189.4770  174.4810  134.9850 O   0  0  0  0  0  0  0  0  0  0  0  0
  191.6340  175.4480  145.9430 C   0  0  0  0  0  2  0  0  0  0  0  0
  187.8620  177.5850  144.0900 C   0  0  0  0  0  1  0  0  0  0  0  0
  188.1450  176.6540  146.3220 N   0  0  0  0  0  0  0  0  0  0  0  0
  190.3130  176.1490  145.8740 C   0  0  0  0  0  0  0  0  0  0  0  0
  190.0540  177.2330  145.1700 C   0  0  0  0  0  0  0  0  0  0  0  0
  190.9710  177.8850  144.3540 O   0  0  0  0  0  1  0  0  0  0  0  0
  188.6410  177.6630  145.3900 C   0  0  1  0  0  3  0  0  0  0  0  0
  188.9090  174.6610  147.5040 C   0  0  0  0  0  1  0  0  0  0  0  0
  189.0930  175.8170  146.5870 C   0  0  0  0  0  0  0  0  0  0  0  0
  194.9450  175.5460  145.6810 C   0  0  0  0  0  2  0  0  0  0  0  0
  195.3430  174.1150  145.3520 C   0  0  0  0  0  2  0  0  0  0  0  0
  197.7430  174.1210  144.6690 O   0  0  0  0  0  0  0  0  0  0  0  0
  197.1360  173.4510  146.7770 O   0  0  0  0  0  1  0  0  0  0  0  0
  196.7860  173.8840  145.6480 C   0  0  0  0  0  0  0  0  0  0  0  0
  1  8  1  6  0  0  0
  1 13  1  0  0  0  0
  1 11  1  0  0  0  0
  2 11  2  0  0  0  0
  3 14  1  0  0  0  0
  3 13  1  0  0  0  0
  4 14  1  0  0  0  0
  5 12  1  0  0  0  0
  5  4  1  0  0  0  0
  6  4  2  0  0  0  0
  7  8  2  0  0  0  0
  7 12  1  0  0  0  0
  9  2  1  0  0  0  0
 10  8  1  0  0  0  0
 10  9  2  0  0  0  0
 12  3  2  0  0  0  0
 13 28  1  0  0  0  0
 14 37  1  1  0  0  0
 15  5  1  0  0  0  0
 16 17  1  0  0  0  0
 16 15  1  0  0  0  0
 17 15  1  0  0  0  0
 18 10  1  0  0  0  0
 19 18  1  0  0  0  0
 20 24  2  0  0  0  0
 21 23  1  0  0  0  0
 22 21  2  0  0  0  0
 22 20  1  0  0  0  0
 23 19  2  0  0  0  0
 24 19  1  0  0  0  0
 25 26  1  0  0  0  0
 25 22  1  0  0  0  0
 27 25  2  0  0  0  0
 30 36  2  0  0  0  0
 31 28  1  0  0  0  0
 31 36  1  0  0  0  0
 32 34  1  0  0  0  0
 32 31  2  0  0  0  0
 33 32  1  0  0  0  0
 34 29  1  6  0  0  0
 34 30  1  0  0  0  0
 36 35  1  0  0  0  0
 38 41  1  0  0  0  0
 38 37  1  0  0  0  0
 39 41  2  0  0  0  0
 41 40  1  0  0  0  0
M  END
>  <MODEL>
2

>  <REMARK>
 VINA RESULT:      -7.1      2.585      5.946
  Name = 
  9 active torsions:
  status: ('A' for Active; 'I' for Inactive)
    1  A    between atoms: O_4  and  C_6
    2  A    between atoms: O_4  and  C_23
    3  A    between atoms: N_8  and  C_18
    4  A    between atoms: C_16  and  C_21
    5  A    between atoms: C_16  and  N_33
    6  A    between atoms: C_20  and  C_32
    7  A    between atoms: C_24  and  C_27
    8  A    between atoms: C_27  and  C_36
    9  A    between atoms: C_36  and  C_37
                            x       y       z     vdW  Elec       q    Type
                         _______ _______ _______ _____ _____    ______ ____

>  <TORSDO>
F 9

$$$$
=
 OpenBabel11062422203D

 41 46  0  0  1  0  0  0  0  0999 V2000
  192.8650  175.1570  145.6030 C   0  0  1  0  0  3  0  0  0  0  0  0
  191.8570  176.4210  147.4110 C   0  0  0  0  0  3  0  0  0  0  0  0
  193.6840  172.9670  144.7210 C   0  0  0  0  0  0  0  0  0  0  0  0
  193.7130  170.9340  143.6810 C   0  0  0  0  0  0  0  0  0  0  0  0
  192.3900  171.4540  143.5970 N   0  0  0  0  0  0  0  0  0  0  0  0
  194.0420  169.8080  143.2230 O   0  0  0  0  0  0  0  0  0  0  0  0
  191.3330  173.4780  144.6620 N   0  0  0  0  0  0  0  0  0  0  0  0
  191.4820  174.5770  145.3420 C   0  0  0  0  0  0  0  0  0  0  0  0
  190.5190  176.2450  146.8080 C   0  0  0  0  0  3  0  0  0  0  0  0
  190.3180  175.3440  145.8410 C   0  0  0  0  0  0  0  0  0  0  0  0
  192.9120  175.8670  146.8850 N   0  0  0  0  0  0  0  0  0  0  0  0
  192.4650  172.6900  144.2870 C   0  0  0  0  0  0  0  0  0  0  0  0
  193.9410  174.1540  145.4890 N   0  0  0  0  0  0  0  0  0  0  0  0
  194.6510  171.8630  144.3910 C   0  0  2  0  0  3  0  0  0  0  0  0
  191.1820  170.6580  143.4060 C   0  0  0  0  0  3  0  0  0  0  0  0
  190.3360  171.2560  142.2980 C   0  0  0  0  0  2  0  0  0  0  0  0
  191.1930  170.0410  142.0200 C   0  0  0  0  0  2  0  0  0  0  0  0
  189.0260  175.1800  145.3220 O   0  0  0  0  0  0  0  0  0  0  0  0
  188.0960  176.2140  145.1670 C   0  0  0  0  0  0  0  0  0  0  0  0
  186.2340  177.4840  146.0620 C   0  0  0  0  0  3  0  0  0  0  0  0
  187.0950  178.0030  143.8620 C   0  0  0  0  0  3  0  0  0  0  0  0
  186.1900  178.2640  144.9010 C   0  0  0  0  0  0  0  0  0  0  0  0
  188.0380  176.9800  143.9920 C   0  0  0  0  0  3  0  0  0  0  0  0
  187.1780  176.4620  146.1930 C   0  0  0  0  0  3  0  0  0  0  0  0
  185.1990  179.3430  144.7710 C   0  0  0  0  0  0  0  0  0  0  0  0
  185.4900  180.4100  144.1670 O   0  0  0  0  0  0  0  0  0  0  0  0
  183.9260  179.1960  145.3140 O   0  0  0  0  0  1  0  0  0  0  0  0
  195.3100  174.5050  145.8570 C   0  0  0  0  0  2  0  0  0  0  0  0
  196.9120  175.5910  141.5580 C   0  0  0  0  0  1  0  0  0  0  0  0
  196.6000  177.0490  143.4840 N   0  0  0  0  0  0  0  0  0  0  0  0
  195.9780  175.2800  144.7660 C   0  0  0  0  0  0  0  0  0  0  0  0
  196.8410  174.7950  143.8940 C   0  0  0  0  0  0  0  0  0  0  0  0
  197.2470  173.4670  143.8390 O   0  0  0  0  0  1  0  0  0  0  0  0
  197.3240  175.8800  142.9900 C   0  0  1  0  0  3  0  0  0  0  0  0
  194.9850  177.6600  145.2060 C   0  0  0  0  0  1  0  0  0  0  0  0
  195.8560  176.6990  144.4800 C   0  0  0  0  0  0  0  0  0  0  0  0
  195.1440  171.1920  145.6670 C   0  0  0  0  0  2  0  0  0  0  0  0
  196.5530  170.6470  145.4870 C   0  0  0  0  0  2  0  0  0  0  0  0
  195.7960  169.0640  147.2610 O   0  0  0  0  0  1  0  0  0  0  0  0
  197.9410  168.9680  146.4560 O   0  0  0  0  0  0  0  0  0  0  0  0
  196.8060  169.5100  146.4170 C   0  0  0  0  0  0  0  0  0  0  0  0
  1  8  1  1  0  0  0
  1 11  1  0  0  0  0
  3 13  1  0  0  0  0
  4 14  1  0  0  0  0
  5  4  1  0  0  0  0
  5 12  1  0  0  0  0
  6  4  2  0  0  0  0
  7  8  2  0  0  0  0
  8 10  1  0  0  0  0
  9  2  1  0  0  0  0
 10  9  2  0  0  0  0
 11  2  2  0  0  0  0
 12  7  1  0  0  0  0
 12  3  2  0  0  0  0
 13  1  1  0  0  0  0
 13 28  1  0  0  0  0
 14  3  1  0  0  0  0
 14 37  1  1  0  0  0
 15  5  1  0  0  0  0
 16 15  1  0  0  0  0
 17 16  1  0  0  0  0
 17 15  1  0  0  0  0
 18 10  1  0  0  0  0
 19 18  1  0  0  0  0
 19 24  1  0  0  0  0
 20 24  2  0  0  0  0
 21 23  1  0  0  0  0
 21 22  2  0  0  0  0
 22 20  1  0  0  0  0
 23 19  2  0  0  0  0
 25 22  1  0  0  0  0
 25 27  1  0  0  0  0
 26 25  2  0  0  0  0
 30 36  2  0  0  0  0
 31 28  1  0  0  0  0
 32 31  2  0  0  0  0
 33 32  1  0  0  0  0
 34 29  1  6  0  0  0
 34 30  1  0  0  0  0
 34 32  1  0  0  0  0
 36 31  1  0  0  0  0
 36 35  1  0  0  0  0
 38 37  1  0  0  0  0
 38 41  1  0  0  0  0
 41 40  2  0  0  0  0
 41 39  1  0  0  0  0
M  END
>  <MODEL>
3

>  <REMARK>
 VINA RESULT:      -7.0      2.103      2.647
  Name = 
  9 active torsions:
  status: ('A' for Active; 'I' for Inactive)
    1  A    between atoms: O_4  and  C_6
    2  A    between atoms: O_4  and  C_23
    3  A    between atoms: N_8  and  C_18
    4  A    between atoms: C_16  and  C_21
    5  A    between atoms: C_16  and  N_33
    6  A    between atoms: C_20  and  C_32
    7  A    between atoms: C_24  and  C_27
    8  A    between atoms: C_27  and  C_36
    9  A    between atoms: C_36  and  C_37
                            x       y       z     vdW  Elec       q    Type
                         _______ _______ _______ _____ _____    ______ ____

>  <TORSDO>
F 9

$$$$
=
 OpenBabel11062422203D

 41 46  0  0  1  0  0  0  0  0999 V2000
  191.0500  173.6300  142.0130 C   0  0  1  0  0  3  0  0  0  0  0  0
  190.4870  173.6390  139.6530 C   0  0  0  0  0  3  0  0  0  0  0  0
  191.9630  174.8410  143.9990 C   0  0  0  0  0  0  0  0  0  0  0  0
  192.0670  176.1350  145.8770 C   0  0  0  0  0  0  0  0  0  0  0  0
  190.7190  176.1290  145.4200 N   0  0  0  0  0  0  0  0  0  0  0  0
  192.4510  176.7890  146.8830 O   0  0  0  0  0  0  0  0  0  0  0  0
  189.6870  175.2150  143.3100 N   0  0  0  0  0  0  0  0  0  0  0  0
  189.8230  174.5050  142.2290 C   0  0  0  0  0  0  0  0  0  0  0  0
  189.0940  174.0190  139.9720 C   0  0  0  0  0  3  0  0  0  0  0  0
  188.7690  174.4660  141.1890 C   0  0  0  0  0  0  0  0  0  0  0  0
  191.3850  173.5250  140.5900 N   0  0  0  0  0  0  0  0  0  0  0  0
  190.7600  175.3320  144.2480 C   0  0  0  0  0  0  0  0  0  0  0  0
  192.2080  174.0530  142.8230 N   0  0  0  0  0  0  0  0  0  0  0  0
  192.9680  175.3020  145.0180 C   0  0  2  0  0  3  0  0  0  0  0  0
  189.7220  177.1520  145.7180 C   0  0  0  0  0  3  0  0  0  0  0  0
  188.5640  176.5430  146.4860 C   0  0  0  0  0  2  0  0  0  0  0  0
  189.6200  177.3410  147.2200 C   0  0  0  0  0  2  0  0  0  0  0  0
  187.4460  174.8540  141.4410 O   0  0  0  0  0  0  0  0  0  0  0  0
  187.0750  175.9700  142.2000 C   0  0  0  0  0  0  0  0  0  0  0  0
  185.8980  176.8820  144.1140 C   0  0  0  0  0  3  0  0  0  0  0  0
  187.0550  178.3670  142.5960 C   0  0  0  0  0  3  0  0  0  0  0  0
  186.2840  178.1780  143.7510 C   0  0  0  0  0  0  0  0  0  0  0  0
  187.4440  177.2710  141.8220 C   0  0  0  0  0  3  0  0  0  0  0  0
  186.2870  175.7850  143.3400 C   0  0  0  0  0  3  0  0  0  0  0  0
  185.8770  179.3280  144.5720 C   0  0  0  0  0  0  0  0  0  0  0  0
  185.5610  180.4210  144.0300 O   0  0  0  0  0  0  0  0  0  0  0  0
  185.8340  179.2210  145.9580 O   0  0  0  0  0  1  0  0  0  0  0  0
  193.5090  173.4200  142.6240 C   0  0  0  0  0  2  0  0  0  0  0  0
  194.3900  168.7920  142.8080 C   0  0  0  0  0  1  0  0  0  0  0  0
  193.6260  170.2710  144.5850 N   0  0  0  0  0  0  0  0  0  0  0  0
  193.5040  172.0110  143.1310 C   0  0  0  0  0  0  0  0  0  0  0  0
  193.2340  170.9380  142.4140 C   0  0  0  0  0  0  0  0  0  0  0  0
  192.9350  170.9460  141.0570 O   0  0  0  0  0  1  0  0  0  0  0  0
  193.2840  169.7190  143.2760 C   0  0  1  0  0  3  0  0  0  0  0  0
  194.0880  172.4170  145.6480 C   0  0  0  0  0  1  0  0  0  0  0  0
  193.7400  171.5540  144.4890 C   0  0  0  0  0  0  0  0  0  0  0  0
  194.0080  176.2050  144.3660 C   0  0  0  0  0  2  0  0  0  0  0  0
  195.3990  175.9150  144.9080 C   0  0  0  0  0  2  0  0  0  0  0  0
  196.8260  176.8300  143.0770 O   0  0  0  0  0  0  0  0  0  0  0  0
  196.7720  174.5750  143.4910 O   0  0  0  0  0  1  0  0  0  0  0  0
  196.3750  175.7300  143.7960 C   0  0  0  0  0  0  0  0  0  0  0  0
  1 11  1  6  0  0  0
  1  8  1  0  0  0  0
  1 13  1  0  0  0  0
  2  9  1  0  0  0  0
  2 11  2  0  0  0  0
  3 12  2  0  0  0  0
  3 14  1  0  0  0  0
  4  6  2  0  0  0  0
  5 15  1  0  0  0  0
  5  4  1  0  0  0  0
  7 12  1  0  0  0  0
  8  7  2  0  0  0  0
  9 10  2  0  0  0  0
 10 18  1  0  0  0  0
 10  8  1  0  0  0  0
 12  5  1  0  0  0  0
 13  3  1  0  0  0  0
 14 37  1  6  0  0  0
 14  4  1  0  0  0  0
 15 16  1  0  0  0  0
 15 17  1  0  0  0  0
 16 17  1  0  0  0  0
 18 19  1  0  0  0  0
 19 24  1  0  0  0  0
 21 22  2  0  0  0  0
 22 20  1  0  0  0  0
 22 25  1  0  0  0  0
 23 19  2  0  0  0  0
 23 21  1  0  0  0  0
 24 20  2  0  0  0  0
 25 27  1  0  0  0  0
 26 25  2  0  0  0  0
 28 13  1  0  0  0  0
 28 31  1  0  0  0  0
 31 36  1  0  0  0  0
 32 31  2  0  0  0  0
 32 34  1  0  0  0  0
 33 32  1  0  0  0  0
 34 29  1  6  0  0  0
 34 30  1  0  0  0  0
 36 30  2  0  0  0  0
 36 35  1  0  0  0  0
 37 38  1  0  0  0  0
 39 41  2  0  0  0  0
 40 41  1  0  0  0  0
 41 38  1  0  0  0  0
M  END
>  <MODEL>
4

>  <REMARK>
 VINA RESULT:      -7.0      2.168      5.030
  Name = 
  9 active torsions:
  status: ('A' for Active; 'I' for Inactive)
    1  A    between atoms: O_4  and  C_6
    2  A    between atoms: O_4  and  C_23
    3  A    between atoms: N_8  and  C_18
    4  A    between atoms: C_16  and  C_21
    5  A    between atoms: C_16  and  N_33
    6  A    between atoms: C_20  and  C_32
    7  A    between atoms: C_24  and  C_27
    8  A    between atoms: C_27  and  C_36
    9  A    between atoms: C_36  and  C_37
                            x       y       z     vdW  Elec       q    Type
                         _______ _______ _______ _____ _____    ______ ____

>  <TORSDO>
F 9

$$$$
=
 OpenBabel11062422203D

 41 46  0  0  1  0  0  0  0  0999 V2000
  193.4220  174.7290  144.4190 C   0  0  1  0  0  3  0  0  0  0  0  0
  193.5140  176.0090  146.4780 C   0  0  0  0  0  3  0  0  0  0  0  0
  192.4730  172.8060  143.1360 C   0  0  0  0  0  0  0  0  0  0  0  0
  191.1010  171.5830  141.7820 C   0  0  0  0  0  0  0  0  0  0  0  0
  190.5650  172.8980  141.8800 N   0  0  0  0  0  0  0  0  0  0  0  0
  190.5490  170.6600  141.1250 O   0  0  0  0  0  0  0  0  0  0  0  0
  191.2180  174.8500  143.3340 N   0  0  0  0  0  0  0  0  0  0  0  0
  192.0650  175.3730  144.1700 C   0  0  0  0  0  0  0  0  0  0  0  0
  192.5010  176.9510  145.9540 C   0  0  0  0  0  3  0  0  0  0  0  0
  191.7790  176.6450  144.8720 C   0  0  0  0  0  0  0  0  0  0  0  0
  193.8800  174.9640  145.7920 N   0  0  0  0  0  0  0  0  0  0  0  0
  191.4600  173.5660  142.7540 C   0  0  0  0  0  0  0  0  0  0  0  0
  193.4530  173.2970  144.0650 N   0  0  0  0  0  0  0  0  0  0  0  0
  192.3700  171.4200  142.5610 C   0  0  2  0  0  3  0  0  0  0  0  0
  189.1700  173.2590  141.6530 C   0  0  0  0  0  3  0  0  0  0  0  0
  189.0850  174.4130  140.6710 C   0  0  0  0  0  2  0  0  0  0  0  0
  188.8070  173.0010  140.2030 C   0  0  0  0  0  2  0  0  0  0  0  0
  190.8010  177.5480  144.4290 O   0  0  0  0  0  0  0  0  0  0  0  0
  189.4490  177.4930  144.7870 C   0  0  0  0  0  0  0  0  0  0  0  0
  187.1200  177.6600  144.1340 C   0  0  0  0  0  3  0  0  0  0  0  0
  187.6920  177.2250  146.4430 C   0  0  0  0  0  3  0  0  0  0  0  0
  186.7180  177.4150  145.4520 C   0  0  0  0  0  0  0  0  0  0  0  0
  189.0490  177.2690  146.1140 C   0  0  0  0  0  3  0  0  0  0  0  0
  188.4770  177.7040  143.8040 C   0  0  0  0  0  3  0  0  0  0  0  0
  185.2880  177.3630  145.7930 C   0  0  0  0  0  0  0  0  0  0  0  0
  184.8490  176.4790  146.5760 O   0  0  0  0  0  1  0  0  0  0  0  0
  184.4050  178.2930  145.2550 O   0  0  0  0  0  0  0  0  0  0  0  0
  194.6280  172.4900  144.3830 C   0  0  0  0  0  2  0  0  0  0  0  0
  197.4350  175.3690  141.9220 C   0  0  0  0  0  1  0  0  0  0  0  0
  197.9250  174.1410  143.9660 N   0  0  0  0  0  0  0  0  0  0  0  0
  195.8810  173.1530  143.9040 C   0  0  0  0  0  0  0  0  0  0  0  0
  196.2140  173.3480  142.6430 C   0  0  0  0  0  0  0  0  0  0  0  0
  195.4310  172.9870  141.5530 O   0  0  0  0  0  1  0  0  0  0  0  0
  197.5560  173.9980  142.5600 C   0  0  1  0  0  3  0  0  0  0  0  0
  197.0480  173.6580  146.1900 C   0  0  0  0  0  1  0  0  0  0  0  0
  196.9810  173.6590  144.7050 C   0  0  0  0  0  0  0  0  0  0  0  0
  192.1440  170.4010  143.6720 C   0  0  0  0  0  2  0  0  0  0  0  0
  192.9490  169.1350  143.4230 C   0  0  0  0  0  2  0  0  0  0  0  0
  195.0620  168.9430  144.7350 O   0  0  0  0  0  0  0  0  0  0  0  0
  193.0850  168.1670  145.5980 O   0  0  0  0  0  1  0  0  0  0  0  0
  193.6930  168.7280  144.6490 C   0  0  0  0  0  0  0  0  0  0  0  0
  1  8  1  1  0  0  0
  1 11  1  0  0  0  0
  3 13  1  0  0  0  0
  4  5  1  0  0  0  0
  4 14  1  0  0  0  0
  5 12  1  0  0  0  0
  6  4  2  0  0  0  0
  7  8  2  0  0  0  0
  8 10  1  0  0  0  0
  9  2  1  0  0  0  0
 10  9  2  0  0  0  0
 11  2  2  0  0  0  0
 12  3  2  0  0  0  0
 12  7  1  0  0  0  0
 13 28  1  0  0  0  0
 13  1  1  0  0  0  0
 14  3  1  0  0  0  0
 14 37  1  1  0  0  0
 15  5  1  0  0  0  0
 16 15  1  0  0  0  0
 17 16  1  0  0  0  0
 17 15  1  0  0  0  0
 18 19  1  0  0  0  0
 18 10  1  0  0  0  0
 19 23  1  0  0  0  0
 20 22  2  0  0  0  0
 22 25  1  0  0  0  0
 22 21  1  0  0  0  0
 23 21  2  0  0  0  0
 24 20  1  0  0  0  0
 24 19  2  0  0  0  0
 25 26  1  0  0  0  0
 27 25  2  0  0  0  0
 30 36  2  0  0  0  0
 31 28  1  0  0  0  0
 31 36  1  0  0  0  0
 32 31  2  0  0  0  0
 33 32  1  0  0  0  0
 34 29  1  1  0  0  0
 34 32  1  0  0  0  0
 34 30  1  0  0  0  0
 36 35  1  0  0  0  0
 38 37  1  0  0  0  0
 38 41  1  0  0  0  0
 41 39  2  0  0  0  0
 41 40  1  0  0  0  0
M  END
>  <MODEL>
5

>  <REMARK>
 VINA RESULT:      -6.8      2.150      2.793
  Name = 
  9 active torsions:
  status: ('A' for Active; 'I' for Inactive)
    1  A    between atoms: O_4  and  C_6
    2  A    between atoms: O_4  and  C_23
    3  A    between atoms: N_8  and  C_18
    4  A    between atoms: C_16  and  C_21
    5  A    between atoms: C_16  and  N_33
    6  A    between atoms: C_20  and  C_32
    7  A    between atoms: C_24  and  C_27
    8  A    between atoms: C_27  and  C_36
    9  A    between atoms: C_36  and  C_37
                            x       y       z     vdW  Elec       q    Type
                         _______ _______ _______ _____ _____    ______ ____

>  <TORSDO>
F 9

$$$$
=
 OpenBabel11062422203D

 41 46  0  0  1  0  0  0  0  0999 V2000
  191.2460  174.3510  141.6470 C   0  0  1  0  0  3  0  0  0  0  0  0
  190.5880  172.3020  140.5270 C   0  0  0  0  0  3  0  0  0  0  0  0
  192.3880  175.4660  143.5680 C   0  0  0  0  0  0  0  0  0  0  0  0
  194.0160  176.4320  144.8460 C   0  0  0  0  0  0  0  0  0  0  0  0
  194.6070  176.0150  143.6200 N   0  0  0  0  0  0  0  0  0  0  0  0
  194.6690  176.9750  145.7770 O   0  0  0  0  0  0  0  0  0  0  0  0
  193.6870  174.6390  141.7190 N   0  0  0  0  0  0  0  0  0  0  0  0
  192.6610  174.0700  141.1600 C   0  0  0  0  0  0  0  0  0  0  0  0
  191.8000  172.3570  139.6810 C   0  0  0  0  0  3  0  0  0  0  0  0
  192.8120  173.1730  139.9910 C   0  0  0  0  0  0  0  0  0  0  0  0
  190.3780  173.1840  141.4620 N   0  0  0  0  0  0  0  0  0  0  0  0
  193.5370  175.4090  142.9140 C   0  0  0  0  0  0  0  0  0  0  0  0
  191.2030  174.8560  143.0310 N   0  0  0  0  0  0  0  0  0  0  0  0
  192.5500  176.1310  144.9080 C   0  0  2  0  0  3  0  0  0  0  0  0
  196.0250  175.7340  143.4190 C   0  0  0  0  0  3  0  0  0  0  0  0
  196.5170  176.4170  142.1570 C   0  0  0  0  0  2  0  0  0  0  0  0
  196.8170  177.0240  143.5100 C   0  0  0  0  0  2  0  0  0  0  0  0
  193.9600  173.1680  139.1870 O   0  0  0  0  0  0  0  0  0  0  0  0
  194.2290  174.1030  138.1800 C   0  0  0  0  0  0  0  0  0  0  0  0
  195.8560  175.3060  136.8440 C   0  0  0  0  0  3  0  0  0  0  0  0
  193.4960  175.7330  136.5340 C   0  0  0  0  0  3  0  0  0  0  0  0
  194.8290  175.9860  136.1800 C   0  0  0  0  0  0  0  0  0  0  0  0
  193.1980  174.8010  137.5320 C   0  0  0  0  0  3  0  0  0  0  0  0
  195.5580  174.3730  137.8410 C   0  0  0  0  0  3  0  0  0  0  0  0
  195.1470  176.9620  135.1270 C   0  0  0  0  0  0  0  0  0  0  0  0
  194.2700  177.7680  134.7160 O   0  0  0  0  0  1  0  0  0  0  0  0
  196.4230  177.0060  134.5740 O   0  0  0  0  0  0  0  0  0  0  0  0
  189.9200  175.0310  143.7070 C   0  0  0  0  0  2  0  0  0  0  0  0
  186.0140  177.1930  142.1900 C   0  0  0  0  0  1  0  0  0  0  0  0
  188.3210  177.9680  142.0980 N   0  0  0  0  0  0  0  0  0  0  0  0
  189.0530  176.0030  142.9700 C   0  0  0  0  0  0  0  0  0  0  0  0
  187.9770  175.6970  142.2710 C   0  0  0  0  0  0  0  0  0  0  0  0
  187.4620  174.4130  142.1320 O   0  0  0  0  0  1  0  0  0  0  0  0
  187.4050  176.9250  141.6440 C   0  0  1  0  0  3  0  0  0  0  0  0
  190.3290  178.2330  143.4580 C   0  0  0  0  0  1  0  0  0  0  0  0
  189.2400  177.4360  142.8340 C   0  0  0  0  0  0  0  0  0  0  0  0
  192.2940  175.1310  146.0300 C   0  0  0  0  0  2  0  0  0  0  0  0
  191.6830  175.8160  147.2420 C   0  0  0  0  0  2  0  0  0  0  0  0
  189.4330  174.7390  147.2610 O   0  0  0  0  0  1  0  0  0  0  0  0
  189.6410  176.9870  146.8620 O   0  0  0  0  0  0  0  0  0  0  0  0
  190.1990  175.8890  147.1190 C   0  0  0  0  0  0  0  0  0  0  0  0
  1  8  1  1  0  0  0
  1 13  1  0  0  0  0
  2 11  2  0  0  0  0
  3 14  1  0  0  0  0
  4 14  1  0  0  0  0
  4  6  2  0  0  0  0
  5  4  1  0  0  0  0
  7 12  1  0  0  0  0
  8  7  2  0  0  0  0
  9 10  2  0  0  0  0
  9  2  1  0  0  0  0
 10  8  1  0  0  0  0
 11  1  1  0  0  0  0
 12  3  2  0  0  0  0
 12  5  1  0  0  0  0
 13  3  1  0  0  0  0
 13 28  1  0  0  0  0
 14 37  1  1  0  0  0
 15 17  1  0  0  0  0
 15  5  1  0  0  0  0
 16 15  1  0  0  0  0
 16 17  1  0  0  0  0
 18 10  1  0  0  0  0
 19 18  1  0  0  0  0
 20 24  2  0  0  0  0
 21 23  1  0  0  0  0
 22 21  2  0  0  0  0
 22 20  1  0  0  0  0
 23 19  2  0  0  0  0
 24 19  1  0  0  0  0
 25 22  1  0  0  0  0
 26 25  1  0  0  0  0
 27 25  2  0  0  0  0
 30 36  2  0  0  0  0
 31 28  1  0  0  0  0
 32 31  2  0  0  0  0
 33 32  1  0  0  0  0
 34 30  1  0  0  0  0
 34 29  1  1  0  0  0
 34 32  1  0  0  0  0
 36 31  1  0  0  0  0
 36 35  1  0  0  0  0
 37 38  1  0  0  0  0
 40 41  2  0  0  0  0
 41 38  1  0  0  0  0
 41 39  1  0  0  0  0
M  END
>  <MODEL>
6

>  <REMARK>
 VINA RESULT:      -6.8      3.525      7.799
  Name = 
  9 active torsions:
  status: ('A' for Active; 'I' for Inactive)
    1  A    between atoms: O_4  and  C_6
    2  A    between atoms: O_4  and  C_23
    3  A    between atoms: N_8  and  C_18
    4  A    between atoms: C_16  and  C_21
    5  A    between atoms: C_16  and  N_33
    6  A    between atoms: C_20  and  C_32
    7  A    between atoms: C_24  and  C_27
    8  A    between atoms: C_27  and  C_36
    9  A    between atoms: C_36  and  C_37
                            x       y       z     vdW  Elec       q    Type
                         _______ _______ _______ _____ _____    ______ ____

>  <TORSDO>
F 9

$$$$
=
 OpenBabel11062422203D

 41 46  0  0  1  0  0  0  0  0999 V2000
  192.4500  175.2410  143.2430 C   0  0  1  0  0  3  0  0  0  0  0  0
  192.1770  176.7940  145.0860 C   0  0  0  0  0  3  0  0  0  0  0  0
  191.8790  173.0470  142.1910 C   0  0  0  0  0  0  0  0  0  0  0  0
  190.8100  171.4710  140.9310 C   0  0  0  0  0  0  0  0  0  0  0  0
  190.1070  172.7010  140.7880 N   0  0  0  0  0  0  0  0  0  0  0  0
  190.4440  170.4000  140.3780 O   0  0  0  0  0  0  0  0  0  0  0  0
  190.3660  174.9070  141.9800 N   0  0  0  0  0  0  0  0  0  0  0  0
  191.0550  175.6520  142.7930 C   0  0  0  0  0  0  0  0  0  0  0  0
  191.1120  177.5060  144.3480 C   0  0  0  0  0  3  0  0  0  0  0  0
  190.5440  176.9570  143.2700 C   0  0  0  0  0  0  0  0  0  0  0  0
  192.7370  175.7240  144.5970 N   0  0  0  0  0  0  0  0  0  0  0  0
  190.8210  173.6010  141.6200 C   0  0  0  0  0  0  0  0  0  0  0  0
  192.6940  173.7920  143.1110 N   0  0  0  0  0  0  0  0  0  0  0  0
  192.0060  171.5940  141.8240 C   0  0  2  0  0  3  0  0  0  0  0  0
  188.7070  172.8330  140.3980 C   0  0  0  0  0  3  0  0  0  0  0  0
  188.5670  173.8750  139.3050 C   0  0  0  0  0  2  0  0  0  0  0  0
  188.5390  172.4040  138.9530 C   0  0  0  0  0  2  0  0  0  0  0  0
  189.5100  177.6470  142.6210 O   0  0  0  0  0  0  0  0  0  0  0  0
  188.2450  177.8830  143.1720 C   0  0  0  0  0  0  0  0  0  0  0  0
  185.9860  178.7230  142.9000 C   0  0  0  0  0  3  0  0  0  0  0  0
  186.6880  177.8300  145.0350 C   0  0  0  0  0  3  0  0  0  0  0  0
  185.6920  178.3990  144.2300 C   0  0  0  0  0  0  0  0  0  0  0  0
  187.9580  177.5790  144.5110 C   0  0  0  0  0  3  0  0  0  0  0  0
  187.2570  178.4700  142.3750 C   0  0  0  0  0  3  0  0  0  0  0  0
  184.3510  178.6610  144.7750 C   0  0  0  0  0  0  0  0  0  0  0  0
  184.1290  178.5430  146.0100 O   0  0  0  0  0  1  0  0  0  0  0  0
  183.3120  179.0430  143.9320 O   0  0  0  0  0  0  0  0  0  0  0  0
  193.9220  173.2060  143.6390 C   0  0  0  0  0  2  0  0  0  0  0  0
  196.5710  176.0340  140.9530 C   0  0  0  0  0  1  0  0  0  0  0  0
  197.0320  175.1810  143.1870 N   0  0  0  0  0  0  0  0  0  0  0  0
  195.1260  173.9460  143.1450 C   0  0  0  0  0  0  0  0  0  0  0  0
  195.5360  173.9990  141.8930 C   0  0  0  0  0  0  0  0  0  0  0  0
  194.8900  173.3910  140.8230 O   0  0  0  0  0  1  0  0  0  0  0  0
  196.7960  174.7930  141.7980 C   0  0  1  0  0  3  0  0  0  0  0  0
  196.0380  174.9130  145.3980 C   0  0  0  0  0  1  0  0  0  0  0  0
  196.0920  174.6950  143.9290 C   0  0  0  0  0  0  0  0  0  0  0  0
  191.8000  170.7170  143.0540 C   0  0  0  0  0  2  0  0  0  0  0  0
  192.7040  169.4950  143.0090 C   0  0  0  0  0  2  0  0  0  0  0  0
  194.2920  169.8860  144.8930 O   0  0  0  0  0  0  0  0  0  0  0  0
  192.7140  168.2290  145.0300 O   0  0  0  0  0  1  0  0  0  0  0  0
  193.2250  169.1690  144.3680 C   0  0  0  0  0  0  0  0  0  0  0  0
  1  8  1  1  0  0  0
  1 11  1  0  0  0  0
  3 13  1  0  0  0  0
  4 14  1  0  0  0  0
  5  4  1  0  0  0  0
  5 12  1  0  0  0  0
  6  4  2  0  0  0  0
  7  8  2  0  0  0  0
  8 10  1  0  0  0  0
  9  2  1  0  0  0  0
 10  9  2  0  0  0  0
 11  2  2  0  0  0  0
 12  7  1  0  0  0  0
 12  3  2  0  0  0  0
 13  1  1  0  0  0  0
 13 28  1  0  0  0  0
 14  3  1  0  0  0  0
 14 37  1  1  0  0  0
 15  5  1  0  0  0  0
 16 15  1  0  0  0  0
 17 16  1  0  0  0  0
 17 15  1  0  0  0  0
 18 19  1  0  0  0  0
 18 10  1  0  0  0  0
 19 23  1  0  0  0  0
 20 22  2  0  0  0  0
 22 25  1  0  0  0  0
 22 21  1  0  0  0  0
 23 21  2  0  0  0  0
 24 20  1  0  0  0  0
 24 19  2  0  0  0  0
 25 26  1  0  0  0  0
 27 25  2  0  0  0  0
 30 36  2  0  0  0  0
 31 28  1  0  0  0  0
 31 36  1  0  0  0  0
 32 31  2  0  0  0  0
 33 32  1  0  0  0  0
 34 29  1  6  0  0  0
 34 32  1  0  0  0  0
 34 30  1  0  0  0  0
 36 35  1  0  0  0  0
 38 37  1  0  0  0  0
 38 41  1  0  0  0  0
 41 39  2  0  0  0  0
 41 40  1  0  0  0  0
M  END
>  <MODEL>
7

>  <REMARK>
 VINA RESULT:      -6.8      2.097      2.672
  Name = 
  9 active torsions:
  status: ('A' for Active; 'I' for Inactive)
    1  A    between atoms: O_4  and  C_6
    2  A    between atoms: O_4  and  C_23
    3  A    between atoms: N_8  and  C_18
    4  A    between atoms: C_16  and  C_21
    5  A    between atoms: C_16  and  N_33
    6  A    between atoms: C_20  and  C_32
    7  A    between atoms: C_24  and  C_27
    8  A    between atoms: C_27  and  C_36
    9  A    between atoms: C_36  and  C_37
                            x       y       z     vdW  Elec       q    Type
                         _______ _______ _______ _____ _____    ______ ____

>  <TORSDO>
F 9

$$$$
=
 OpenBabel11062422203D

 41 46  0  0  1  0  0  0  0  0999 V2000
  192.4910  174.3430  143.6720 C   0  0  1  0  0  3  0  0  0  0  0  0
  193.0810  173.9210  145.9870 C   0  0  0  0  0  3  0  0  0  0  0  0
  190.9480  173.9360  141.7500 C   0  0  0  0  0  0  0  0  0  0  0  0
  189.1960  174.1650  140.3020 C   0  0  0  0  0  0  0  0  0  0  0  0
  189.0680  175.1620  141.3110 N   0  0  0  0  0  0  0  0  0  0  0  0
  188.3600  174.0150  139.3720 O   0  0  0  0  0  0  0  0  0  0  0  0
  190.3480  175.5310  143.4500 N   0  0  0  0  0  0  0  0  0  0  0  0
  191.3630  175.2190  144.2010 C   0  0  0  0  0  0  0  0  0  0  0  0
  192.3500  175.1350  146.4100 C   0  0  0  0  0  3  0  0  0  0  0  0
  191.5010  175.7460  145.5780 C   0  0  0  0  0  0  0  0  0  0  0  0
  193.0860  173.5370  144.7420 N   0  0  0  0  0  0  0  0  0  0  0  0
  190.1720  174.9240  142.1680 C   0  0  0  0  0  0  0  0  0  0  0  0
  192.0860  173.5170  142.5190 N   0  0  0  0  0  0  0  0  0  0  0  0
  190.4130  173.3120  140.4900 C   0  0  2  0  0  3  0  0  0  0  0  0
  187.8240  175.8230  141.6910 C   0  0  0  0  0  3  0  0  0  0  0  0
  187.9960  177.3290  141.6350 C   0  0  0  0  0  2  0  0  0  0  0  0
  187.2840  176.6080  140.5110 C   0  0  0  0  0  2  0  0  0  0  0  0
  190.7970  176.8710  146.0300 O   0  0  0  0  0  0  0  0  0  0  0  0
  189.4030  176.9980  146.0060 C   0  0  0  0  0  0  0  0  0  0  0  0
  187.4300  178.0610  145.0780 C   0  0  0  0  0  3  0  0  0  0  0  0
  187.1950  176.4150  146.8350 C   0  0  0  0  0  3  0  0  0  0  0  0
  186.6100  177.3120  145.9300 C   0  0  0  0  0  0  0  0  0  0  0  0
  188.5840  176.2630  146.8770 C   0  0  0  0  0  3  0  0  0  0  0  0
  188.8190  177.9080  145.1190 C   0  0  0  0  0  3  0  0  0  0  0  0
  185.1480  177.4710  145.8780 C   0  0  0  0  0  0  0  0  0  0  0  0
  184.4390  177.1890  146.8810 O   0  0  0  0  0  1  0  0  0  0  0  0
  184.5340  177.9380  144.7210 O   0  0  0  0  0  0  0  0  0  0  0  0
  192.9980  172.5080  141.9860 C   0  0  0  0  0  2  0  0  0  0  0  0
  196.1510  175.7850  140.7410 C   0  0  0  0  0  1  0  0  0  0  0  0
  196.5410  173.5560  141.6410 N   0  0  0  0  0  0  0  0  0  0  0  0
  194.3130  173.1170  141.6120 C   0  0  0  0  0  0  0  0  0  0  0  0
  194.5220  173.9350  140.5990 C   0  0  0  0  0  0  0  0  0  0  0  0
  193.5360  174.3840  139.7290 O   0  0  0  0  0  1  0  0  0  0  0  0
  195.9690  174.2950  140.5180 C   0  0  1  0  0  3  0  0  0  0  0  0
  195.8580  172.0460  143.4310 C   0  0  0  0  0  1  0  0  0  0  0  0
  195.6040  172.8980  142.2400 C   0  0  0  0  0  0  0  0  0  0  0  0
  189.9770  171.8760  140.7540 C   0  0  0  0  0  2  0  0  0  0  0  0
  190.7190  170.9050  139.8480 C   0  0  0  0  0  2  0  0  0  0  0  0
  191.9040  171.9610  137.9230 O   0  0  0  0  0  1  0  0  0  0  0  0
  189.7040  171.3410  137.7350 O   0  0  0  0  0  0  0  0  0  0  0  0
  190.7430  171.4030  138.4430 C   0  0  0  0  0  0  0  0  0  0  0  0
  1  8  1  1  0  0  0
  1 11  1  0  0  0  0
  2  9  1  0  0  0  0
  3 12  2  0  0  0  0
  3 13  1  0  0  0  0
  4 14  1  0  0  0  0
  4  5  1  0  0  0  0
  5 15  1  0  0  0  0
  5 12  1  0  0  0  0
  6  4  2  0  0  0  0
  7  8  2  0  0  0  0
  8 10  1  0  0  0  0
 10 18  1  0  0  0  0
 10  9  2  0  0  0  0
 11  2  2  0  0  0  0
 12  7  1  0  0  0  0
 13  1  1  0  0  0  0
 14 37  1  1  0  0  0
 14  3  1  0  0  0  0
 16 15  1  0  0  0  0
 17 16  1  0  0  0  0
 17 15  1  0  0  0  0
 19 18  1  0  0  0  0
 19 23  1  0  0  0  0
 20 24  1  0  0  0  0
 20 22  2  0  0  0  0
 21 23  2  0  0  0  0
 22 21  1  0  0  0  0
 24 19  2  0  0  0  0
 25 22  1  0  0  0  0
 25 26  1  0  0  0  0
 27 25  2  0  0  0  0
 28 13  1  0  0  0  0
 30 36  2  0  0  0  0
 31 28  1  0  0  0  0
 31 36  1  0  0  0  0
 32 31  2  0  0  0  0
 33 32  1  0  0  0  0
 34 32  1  0  0  0  0
 34 29  1  1  0  0  0
 34 30  1  0  0  0  0
 36 35  1  0  0  0  0
 38 37  1  0  0  0  0
 39 41  1  0  0  0  0
 40 41  2  0  0  0  0
 41 38  1  0  0  0  0
M  END
>  <MODEL>
8

>  <REMARK>
 VINA RESULT:      -6.7      2.735      4.213
  Name = 
  9 active torsions:
  status: ('A' for Active; 'I' for Inactive)
    1  A    between atoms: O_4  and  C_6
    2  A    between atoms: O_4  and  C_23
    3  A    between atoms: N_8  and  C_18
    4  A    between atoms: C_16  and  C_21
    5  A    between atoms: C_16  and  N_33
    6  A    between atoms: C_20  and  C_32
    7  A    between atoms: C_24  and  C_27
    8  A    between atoms: C_27  and  C_36
    9  A    between atoms: C_36  and  C_37
                            x       y       z     vdW  Elec       q    Type
                         _______ _______ _______ _____ _____    ______ ____

>  <TORSDO>
F 9

$$$$
=
 OpenBabel11062422203D

 41 46  0  0  1  0  0  0  0  0999 V2000
  193.4650  174.3320  143.0620 C   0  0  1  0  0  3  0  0  0  0  0  0
  194.5920  173.7110  145.1190 C   0  0  0  0  0  3  0  0  0  0  0  0
  191.5760  173.9770  141.4670 C   0  0  0  0  0  0  0  0  0  0  0  0
  189.5330  174.1670  140.4640 C   0  0  0  0  0  0  0  0  0  0  0  0
  189.5430  175.0140  141.6090 N   0  0  0  0  0  0  0  0  0  0  0  0
  188.5280  174.0300  139.7170 O   0  0  0  0  0  0  0  0  0  0  0  0
  191.2290  175.2750  143.4640 N   0  0  0  0  0  0  0  0  0  0  0  0
  192.4100  174.9980  143.9340 C   0  0  0  0  0  0  0  0  0  0  0  0
  193.8670  174.7690  145.8530 C   0  0  0  0  0  3  0  0  0  0  0  0
  192.8020  175.3700  145.3120 C   0  0  0  0  0  0  0  0  0  0  0  0
  194.3540  173.4810  143.8590 N   0  0  0  0  0  0  0  0  0  0  0  0
  190.8270  174.8080  142.1740 C   0  0  0  0  0  0  0  0  0  0  0  0
  192.8900  173.6070  141.9140 N   0  0  0  0  0  0  0  0  0  0  0  0
  190.8330  173.4480  140.2700 C   0  0  2  0  0  3  0  0  0  0  0  0
  188.3600  175.4720  142.3300 C   0  0  0  0  0  3  0  0  0  0  0  0
  188.3310  176.9880  142.3710 C   0  0  0  0  0  2  0  0  0  0  0  0
  187.4560  176.2430  141.3880 C   0  0  0  0  0  2  0  0  0  0  0  0
  192.1180  176.3410  146.0560 O   0  0  0  0  0  0  0  0  0  0  0  0
  190.7250  176.4160  146.1750 C   0  0  0  0  0  0  0  0  0  0  0  0
  188.6750  177.6600  145.8140 C   0  0  0  0  0  3  0  0  0  0  0  0
  188.5950  175.4990  146.8980 C   0  0  0  0  0  3  0  0  0  0  0  0
  187.9310  176.6310  146.4060 C   0  0  0  0  0  0  0  0  0  0  0  0
  189.9840  175.3950  146.7890 C   0  0  0  0  0  3  0  0  0  0  0  0
  190.0640  177.5550  145.7040 C   0  0  0  0  0  3  0  0  0  0  0  0
  186.4680  176.7440  146.5130 C   0  0  0  0  0  0  0  0  0  0  0  0
  185.9170  176.8510  147.6410 O   0  0  0  0  0  1  0  0  0  0  0  0
  185.6780  176.7340  145.3690 O   0  0  0  0  0  0  0  0  0  0  0  0
  193.7470  172.7850  141.0640 C   0  0  0  0  0  2  0  0  0  0  0  0
  197.8280  174.0340  139.0590 C   0  0  0  0  0  1  0  0  0  0  0  0
  195.6330  175.0610  138.8200 N   0  0  0  0  0  0  0  0  0  0  0  0
  194.7560  173.6250  140.3460 C   0  0  0  0  0  0  0  0  0  0  0  0
  196.0100  173.8050  140.7140 C   0  0  0  0  0  0  0  0  0  0  0  0
  196.6010  173.2140  141.8250 O   0  0  0  0  0  1  0  0  0  0  0  0
  196.6920  174.7430  139.7740 C   0  0  1  0  0  3  0  0  0  0  0  0
  193.2900  174.5390  138.3820 C   0  0  0  0  0  1  0  0  0  0  0  0
  194.5550  174.4320  139.1560 C   0  0  0  0  0  0  0  0  0  0  0  0
  190.5980  171.9490  140.4130 C   0  0  0  0  0  2  0  0  0  0  0  0
  190.1350  171.6010  141.8190 C   0  0  0  0  0  2  0  0  0  0  0  0
  190.8530  169.2130  141.8960 O   0  0  0  0  0  0  0  0  0  0  0  0
  191.7500  170.7420  143.3500 O   0  0  0  0  0  1  0  0  0  0  0  0
  190.9650  170.5040  142.3950 C   0  0  0  0  0  0  0  0  0  0  0  0
  1 11  1  1  0  0  0
  1  8  1  0  0  0  0
  2  9  1  0  0  0  0
  3 13  1  0  0  0  0
  3 12  2  0  0  0  0
  4  5  1  0  0  0  0
  5 12  1  0  0  0  0
  5 15  1  0  0  0  0
  6  4  2  0  0  0  0
  7  8  2  0  0  0  0
  8 10  1  0  0  0  0
 10  9  2  0  0  0  0
 10 18  1  0  0  0  0
 11  2  2  0  0  0  0
 12  7  1  0  0  0  0
 13  1  1  0  0  0  0
 14 37  1  1  0  0  0
 14  4  1  0  0  0  0
 14  3  1  0  0  0  0
 15 16  1  0  0  0  0
 17 15  1  0  0  0  0
 17 16  1  0  0  0  0
 18 19  1  0  0  0  0
 19 23  1  0  0  0  0
 20 22  2  0  0  0  0
 22 25  1  0  0  0  0
 22 21  1  0  0  0  0
 23 21  2  0  0  0  0
 24 20  1  0  0  0  0
 24 19  2  0  0  0  0
 25 26  1  0  0  0  0
 27 25  2  0  0  0  0
 28 13  1  0  0  0  0
 30 36  2  0  0  0  0
 30 34  1  0  0  0  0
 31 32  2  0  0  0  0
 31 28  1  0  0  0  0
 32 33  1  0  0  0  0
 34 29  1  6  0  0  0
 34 32  1  0  0  0  0
 35 36  1  0  0  0  0
 36 31  1  0  0  0  0
 37 38  1  0  0  0  0
 38 41  1  0  0  0  0
 39 41  2  0  0  0  0
 41 40  1  0  0  0  0
M  END
>  <MODEL>
9

>  <REMARK>
 VINA RESULT:      -6.6      2.456      4.363
  Name = 
  9 active torsions:
  status: ('A' for Active; 'I' for Inactive)
    1  A    between atoms: O_4  and  C_6
    2  A    between atoms: O_4  and  C_23
    3  A    between atoms: N_8  and  C_18
    4  A    between atoms: C_16  and  C_21
    5  A    between atoms: C_16  and  N_33
    6  A    between atoms: C_20  and  C_32
    7  A    between atoms: C_24  and  C_27
    8  A    between atoms: C_27  and  C_36
    9  A    between atoms: C_36  and  C_37
                            x       y       z     vdW  Elec       q    Type
                         _______ _______ _______ _____ _____    ______ ____

>  <TORSDO>
F 9

$$$$
