=
 OpenBabel11072409403D

 25 27  0  0  1  0  0  0  0  0999 V2000
  184.6230  177.9400  145.5630 C   0  0  0  0  0  2  0  0  0  0  0  0
  185.1460  178.0760  141.1550 C   0  0  0  0  0  2  0  0  0  0  0  0
  184.3900  179.1600  144.6820 C   0  0  2  0  0  3  0  0  0  0  0  0
  186.4590  178.4640  141.7590 N   0  0  0  0  0  2  0  0  0  0  0  0
  186.5100  178.4110  143.2490 C   0  0  0  0  0  2  0  0  0  0  0  0
  184.3060  178.7520  143.2310 C   0  0  1  0  0  3  0  0  0  0  0  0
  185.5170  179.4260  143.8360 C   0  0  1  0  0  3  0  0  0  0  0  0
  183.9540  178.2750  142.0720 C   0  0  2  0  0  3  0  0  0  0  0  0
  182.6610  177.8270  141.8070 O   0  0  0  0  0  0  0  0  0  0  0  0
  181.7050  178.6400  141.1410 C   0  0  0  0  0  2  0  0  0  0  0  0
  180.3130  178.3750  141.6880 C   0  0  0  0  0  2  0  0  0  0  0  0
  180.1980  180.2700  140.5650 C   0  0  0  0  0  1  0  0  0  0  0  0
  179.4890  179.4810  141.4690 O   0  0  0  0  0  0  0  0  0  0  0  0
  185.0200  178.3630  146.9690 C   0  0  0  0  0  2  0  0  0  0  0  0
  186.4470  178.1740  147.1690 N   0  0  0  0  0  2  0  0  0  0  0  0
  186.7090  176.7560  146.9830 C   0  0  0  0  0  2  0  0  0  0  0  0
  187.9120  176.5570  146.0780 C   0  0  0  0  0  2  0  0  0  0  0  0
  189.8350  175.3550  147.1930 C   0  0  0  0  0  0  0  0  0  0  0  0
  189.3890  174.2350  146.8300 O   0  0  0  0  0  0  0  0  0  0  0  0
  189.1290  176.5550  146.8770 N   0  0  0  0  0  2  0  0  0  0  0  0
  191.1020  175.4310  147.9710 C   0  0  0  0  0  2  0  0  0  0  0  0
  192.0430  176.4350  147.3320 C   0  0  0  0  0  2  0  0  0  0  0  0
  192.7990  175.7780  146.1980 C   0  0  1  0  0  3  0  0  0  0  0  0
  193.6360  176.7650  145.5240 C   0  0  0  0  0  2  0  0  0  0  0  0
  194.2400  175.8340  146.4870 N   0  0  0  0  0  2  0  0  0  0  0  0
  1 14  1  0  0  0  0
  2  4  1  0  0  0  0
  2  8  1  0  0  0  0
  3  1  1  1  0  0  0
  4  5  1  0  0  0  0
  5  7  1  0  0  0  0
  6  7  1  0  0  0  0
  6  3  1  0  0  0  0
  7  3  1  0  0  0  0
  8  6  1  0  0  0  0
  9  8  1  0  0  0  0
 10 11  1  0  0  0  0
 10  9  1  0  0  0  0
 12 13  1  0  0  0  0
 13 11  1  0  0  0  0
 14 15  1  0  0  0  0
 16 15  1  0  0  0  0
 17 20  1  0  0  0  0
 17 16  1  0  0  0  0
 18 21  1  0  0  0  0
 19 18  2  0  0  0  0
 20 18  1  0  0  0  0
 22 21  1  0  0  0  0
 23 25  1  0  0  0  0
 23 22  1  0  0  0  0
 24 23  1  0  0  0  0
 24 25  1  0  0  0  0
M  END
>  <MODEL>
1

>  <REMARK>
 VINA RESULT:      -5.8      0.000      0.000
  Name = 
  13 active torsions:
  status: ('A' for Active; 'I' for Inactive)
    1  A    between atoms: C_2  and  C_3
    2  A    between atoms: C_2  and  C_5
    3  A    between atoms: C_4  and  C_16
    4  A    between atoms: C_5  and  C_11
    5  A    between atoms: C_10  and  C_22
    6  A    between atoms: C_10  and  N_25
    7  A    between atoms: C_14  and  C_18
    8  A    between atoms: C_14  and  O_24
    9  A    between atoms: C_16  and  C_19
   10  A    between atoms: C_18  and  O_21
   11  A    between atoms: C_19  and  N_23
   12  A    between atoms: C_20  and  O_24
   13  A    between atoms: C_22  and  N_23
                            x       y       z     vdW  Elec       q    Type
                         _______ _______ _______ _____ _____    ______ ____

>  <TORSDO>
F 13

$$$$
=
 OpenBabel11072409403D

 25 27  0  0  1  0  0  0  0  0999 V2000
  188.5750  177.0810  143.6420 C   0  0  0  0  0  2  0  0  0  0  0  0
  191.6020  175.2350  146.3150 C   0  0  0  0  0  2  0  0  0  0  0  0
  189.2590  177.7730  144.8130 C   0  0  2  0  0  3  0  0  0  0  0  0
  190.2630  174.9800  146.9350 N   0  0  0  0  0  2  0  0  0  0  0  0
  189.0970  175.4670  146.1430 C   0  0  0  0  0  2  0  0  0  0  0  0
  190.4690  176.9850  145.2540 C   0  0  1  0  0  3  0  0  0  0  0  0
  189.1620  176.9970  146.0150 C   0  0  1  0  0  3  0  0  0  0  0  0
  191.6320  176.4110  145.3570 C   0  0  2  0  0  3  0  0  0  0  0  0
  192.7050  176.7370  144.5290 O   0  0  0  0  0  0  0  0  0  0  0  0
  194.0350  176.8260  145.0200 C   0  0  0  0  0  2  0  0  0  0  0  0
  194.9330  175.8360  144.2990 C   0  0  0  0  0  2  0  0  0  0  0  0
  196.7710  176.5220  143.2910 C   0  0  0  0  0  1  0  0  0  0  0  0
  195.3970  176.3860  143.1020 O   0  0  0  0  0  0  0  0  0  0  0  0
  188.6140  177.9620  142.4020 C   0  0  0  0  0  2  0  0  0  0  0  0
  187.8020  177.3840  141.3450 N   0  0  0  0  0  2  0  0  0  0  0  0
  186.6420  176.7900  141.9900 C   0  0  0  0  0  2  0  0  0  0  0  0
  185.4300  177.6900  141.8260 C   0  0  0  0  0  2  0  0  0  0  0  0
  184.8430  178.9050  143.9620 C   0  0  0  0  0  0  0  0  0  0  0  0
  185.6340  179.8450  143.6850 O   0  0  0  0  0  0  0  0  0  0  0  0
  184.7150  177.7820  143.0900 N   0  0  0  0  0  2  0  0  0  0  0  0
  184.0420  178.9580  145.2170 C   0  0  0  0  0  2  0  0  0  0  0  0
  184.4600  177.8340  146.1460 C   0  0  0  0  0  2  0  0  0  0  0  0
  185.8940  178.0400  146.5850 C   0  0  1  0  0  3  0  0  0  0  0  0
  185.9610  179.1160  147.5680 C   0  0  0  0  0  2  0  0  0  0  0  0
  186.0070  177.7170  148.0150 N   0  0  0  0  0  2  0  0  0  0  0  0
  2  4  1  0  0  0  0
  3  1  1  6  0  0  0
  3  6  1  0  0  0  0
  3  7  1  0  0  0  0
  5  4  1  0  0  0  0
  6  8  1  0  0  0  0
  6  7  1  0  0  0  0
  7  5  1  0  0  0  0
  8  2  1  0  0  0  0
  9 10  1  0  0  0  0
  9  8  1  0  0  0  0
 11 10  1  0  0  0  0
 13 12  1  0  0  0  0
 13 11  1  0  0  0  0
 14  1  1  0  0  0  0
 15 16  1  0  0  0  0
 15 14  1  0  0  0  0
 17 16  1  0  0  0  0
 17 20  1  0  0  0  0
 18 21  1  0  0  0  0
 19 18  2  0  0  0  0
 20 18  1  0  0  0  0
 21 22  1  0  0  0  0
 22 23  1  0  0  0  0
 23 24  1  0  0  0  0
 23 25  1  0  0  0  0
 24 25  1  0  0  0  0
M  END
>  <MODEL>
2

>  <REMARK>
 VINA RESULT:      -5.8      2.876      8.934
  Name = 
  13 active torsions:
  status: ('A' for Active; 'I' for Inactive)
    1  A    between atoms: C_2  and  C_3
    2  A    between atoms: C_2  and  C_5
    3  A    between atoms: C_4  and  C_16
    4  A    between atoms: C_5  and  C_11
    5  A    between atoms: C_10  and  C_22
    6  A    between atoms: C_10  and  N_25
    7  A    between atoms: C_14  and  C_18
    8  A    between atoms: C_14  and  O_24
    9  A    between atoms: C_16  and  C_19
   10  A    between atoms: C_18  and  O_21
   11  A    between atoms: C_19  and  N_23
   12  A    between atoms: C_20  and  O_24
   13  A    between atoms: C_22  and  N_23
                            x       y       z     vdW  Elec       q    Type
                         _______ _______ _______ _____ _____    ______ ____

>  <TORSDO>
F 13

$$$$
=
 OpenBabel11072409403D

 25 27  0  0  1  0  0  0  0  0999 V2000
  188.6070  177.4310  146.1170 C   0  0  0  0  0  2  0  0  0  0  0  0
  184.2800  178.4030  145.8810 C   0  0  0  0  0  2  0  0  0  0  0  0
  187.4670  176.4400  146.3090 C   0  0  2  0  0  3  0  0  0  0  0  0
  184.6880  178.5810  147.3110 N   0  0  0  0  0  2  0  0  0  0  0  0
  186.1380  178.3670  147.5860 C   0  0  0  0  0  2  0  0  0  0  0  0
  186.1710  177.0260  145.8030 C   0  0  1  0  0  3  0  0  0  0  0  0
  186.5140  176.9110  147.2720 C   0  0  1  0  0  3  0  0  0  0  0  0
  185.1910  177.4900  145.0820 C   0  0  2  0  0  3  0  0  0  0  0  0
  185.1250  177.3080  143.7020 O   0  0  0  0  0  0  0  0  0  0  0  0
  184.8350  178.3790  142.8140 C   0  0  0  0  0  2  0  0  0  0  0  0
  183.4410  178.2210  142.2330 C   0  0  0  0  0  2  0  0  0  0  0  0
  184.8510  178.3500  140.5420 C   0  0  0  0  0  1  0  0  0  0  0  0
  183.5010  178.1690  140.8390 O   0  0  0  0  0  0  0  0  0  0  0  0
  189.8350  176.9920  146.9010 C   0  0  0  0  0  2  0  0  0  0  0  0
  189.8860  175.5420  146.9890 N   0  0  0  0  0  2  0  0  0  0  0  0
  191.2140  175.1450  146.5530 C   0  0  0  0  0  2  0  0  0  0  0  0
  191.1180  174.0640  145.4910 C   0  0  0  0  0  2  0  0  0  0  0  0
  189.8460  174.4960  143.3510 C   0  0  0  0  0  0  0  0  0  0  0  0
  190.9150  174.6790  142.7130 O   0  0  0  0  0  0  0  0  0  0  0  0
  189.8750  174.2150  144.7500 N   0  0  0  0  0  2  0  0  0  0  0  0
  188.5380  174.5870  142.6450 C   0  0  0  0  0  2  0  0  0  0  0  0
  188.5450  175.7670  141.6920 C   0  0  0  0  0  2  0  0  0  0  0  0
  188.2710  177.0450  142.4570 C   0  0  1  0  0  3  0  0  0  0  0  0
  189.4420  177.9130  142.4050 C   0  0  0  0  0  2  0  0  0  0  0  0
  188.2990  178.1780  141.5210 N   0  0  0  0  0  2  0  0  0  0  0  0
  1 14  1  0  0  0  0
  2  4  1  0  0  0  0
  3  1  1  6  0  0  0
  3  7  1  0  0  0  0
  4  5  1  0  0  0  0
  6  3  1  0  0  0  0
  6  7  1  0  0  0  0
  7  5  1  0  0  0  0
  8  6  1  0  0  0  0
  8  2  1  0  0  0  0
  9  8  1  0  0  0  0
 10  9  1  0  0  0  0
 11 10  1  0  0  0  0
 12 13  1  0  0  0  0
 13 11  1  0  0  0  0
 14 15  1  0  0  0  0
 16 15  1  0  0  0  0
 17 16  1  0  0  0  0
 18 20  1  0  0  0  0
 19 18  2  0  0  0  0
 20 17  1  0  0  0  0
 21 18  1  0  0  0  0
 22 23  1  0  0  0  0
 22 21  1  0  0  0  0
 24 23  1  0  0  0  0
 25 24  1  0  0  0  0
 25 23  1  0  0  0  0
M  END
>  <MODEL>
3

>  <REMARK>
 VINA RESULT:      -5.7      2.286      4.780
  Name = 
  13 active torsions:
  status: ('A' for Active; 'I' for Inactive)
    1  A    between atoms: C_2  and  C_3
    2  A    between atoms: C_2  and  C_5
    3  A    between atoms: C_4  and  C_16
    4  A    between atoms: C_5  and  C_11
    5  A    between atoms: C_10  and  C_22
    6  A    between atoms: C_10  and  N_25
    7  A    between atoms: C_14  and  C_18
    8  A    between atoms: C_14  and  O_24
    9  A    between atoms: C_16  and  C_19
   10  A    between atoms: C_18  and  O_21
   11  A    between atoms: C_19  and  N_23
   12  A    between atoms: C_20  and  O_24
   13  A    between atoms: C_22  and  N_23
                            x       y       z     vdW  Elec       q    Type
                         _______ _______ _______ _____ _____    ______ ____

>  <TORSDO>
F 13

$$$$
=
 OpenBabel11072409403D

 25 27  0  0  1  0  0  0  0  0999 V2000
  188.5730  177.5090  145.7450 C   0  0  0  0  0  2  0  0  0  0  0  0
  184.2470  178.4690  146.0370 C   0  0  0  0  0  2  0  0  0  0  0  0
  187.4570  176.4990  145.9750 C   0  0  2  0  0  3  0  0  0  0  0  0
  184.8010  178.5360  147.4270 N   0  0  0  0  0  2  0  0  0  0  0  0
  186.2710  178.3100  147.5320 C   0  0  0  0  0  2  0  0  0  0  0  0
  186.1160  177.1150  145.6550 C   0  0  1  0  0  3  0  0  0  0  0  0
  186.6100  176.8860  147.0660 C   0  0  1  0  0  3  0  0  0  0  0  0
  185.0680  177.6280  145.0790 C   0  0  2  0  0  3  0  0  0  0  0  0
  184.8590  177.5550  143.7030 O   0  0  0  0  0  0  0  0  0  0  0  0
  185.1610  178.6400  142.8370 C   0  0  0  0  0  2  0  0  0  0  0  0
  186.5520  178.4770  142.2490 C   0  0  0  0  0  2  0  0  0  0  0  0
  185.2660  178.1880  140.4810 C   0  0  0  0  0  1  0  0  0  0  0  0
  186.4860  177.7970  141.0310 O   0  0  0  0  0  0  0  0  0  0  0  0
  189.8480  177.0670  146.4480 C   0  0  0  0  0  2  0  0  0  0  0  0
  190.9410  176.9700  145.4950 N   0  0  0  0  0  2  0  0  0  0  0  0
  190.5360  177.7210  144.3180 C   0  0  0  0  0  2  0  0  0  0  0  0
  190.8390  176.9300  143.0590 C   0  0  0  0  0  2  0  0  0  0  0  0
  189.0770  175.1300  142.8550 C   0  0  0  0  0  0  0  0  0  0  0  0
  189.7100  174.3750  143.6400 O   0  0  0  0  0  0  0  0  0  0  0  0
  189.6010  176.4090  142.4990 N   0  0  0  0  0  2  0  0  0  0  0  0
  187.7780  174.6800  142.2830 C   0  0  0  0  0  2  0  0  0  0  0  0
  187.9690  173.3840  141.5200 C   0  0  0  0  0  2  0  0  0  0  0  0
  188.5910  173.6710  140.1700 C   0  0  1  0  0  3  0  0  0  0  0  0
  189.5310  172.6110  139.8220 C   0  0  0  0  0  2  0  0  0  0  0  0
  188.1890  172.6190  139.2250 N   0  0  0  0  0  2  0  0  0  0  0  0
  1 14  1  0  0  0  0
  2  4  1  0  0  0  0
  3  1  1  1  0  0  0
  3  7  1  0  0  0  0
  4  5  1  0  0  0  0
  6  3  1  0  0  0  0
  6  7  1  0  0  0  0
  7  5  1  0  0  0  0
  8  6  1  0  0  0  0
  8  2  1  0  0  0  0
  9  8  1  0  0  0  0
 10  9  1  0  0  0  0
 11 10  1  0  0  0  0
 12 13  1  0  0  0  0
 13 11  1  0  0  0  0
 15 14  1  0  0  0  0
 16 15  1  0  0  0  0
 17 16  1  0  0  0  0
 18 19  2  0  0  0  0
 20 18  1  0  0  0  0
 20 17  1  0  0  0  0
 21 18  1  0  0  0  0
 22 21  1  0  0  0  0
 23 22  1  0  0  0  0
 24 23  1  0  0  0  0
 25 24  1  0  0  0  0
 25 23  1  0  0  0  0
M  END
>  <MODEL>
4

>  <REMARK>
 VINA RESULT:      -5.7      3.359      5.532
  Name = 
  13 active torsions:
  status: ('A' for Active; 'I' for Inactive)
    1  A    between atoms: C_2  and  C_3
    2  A    between atoms: C_2  and  C_5
    3  A    between atoms: C_4  and  C_16
    4  A    between atoms: C_5  and  C_11
    5  A    between atoms: C_10  and  C_22
    6  A    between atoms: C_10  and  N_25
    7  A    between atoms: C_14  and  C_18
    8  A    between atoms: C_14  and  O_24
    9  A    between atoms: C_16  and  C_19
   10  A    between atoms: C_18  and  O_21
   11  A    between atoms: C_19  and  N_23
   12  A    between atoms: C_20  and  O_24
   13  A    between atoms: C_22  and  N_23
                            x       y       z     vdW  Elec       q    Type
                         _______ _______ _______ _____ _____    ______ ____

>  <TORSDO>
F 13

$$$$
=
 OpenBabel11072409403D

 25 27  0  0  1  0  0  0  0  0999 V2000
  185.0730  178.5680  142.8910 C   0  0  0  0  0  2  0  0  0  0  0  0
  185.7810  177.4520  147.1310 C   0  0  0  0  0  2  0  0  0  0  0  0
  185.8820  179.3780  143.8940 C   0  0  2  0  0  3  0  0  0  0  0  0
  184.5330  178.2800  147.1020 N   0  0  0  0  0  2  0  0  0  0  0  0
  184.0840  178.6990  145.7430 C   0  0  0  0  0  2  0  0  0  0  0  0
  186.2140  178.5360  145.1030 C   0  0  1  0  0  3  0  0  0  0  0  0
  185.1460  179.6070  145.1050 C   0  0  1  0  0  3  0  0  0  0  0  0
  186.6960  177.6620  145.9380 C   0  0  2  0  0  3  0  0  0  0  0  0
  187.8180  176.8880  145.6500 O   0  0  0  0  0  0  0  0  0  0  0  0
  188.2870  175.8820  146.5370 C   0  0  0  0  0  2  0  0  0  0  0  0
  189.7810  176.0330  146.7650 C   0  0  0  0  0  2  0  0  0  0  0  0
  191.1360  177.0290  148.1930 C   0  0  0  0  0  1  0  0  0  0  0  0
  190.0590  177.2740  147.3410 O   0  0  0  0  0  0  0  0  0  0  0  0
  185.9520  178.1210  141.7320 C   0  0  0  0  0  2  0  0  0  0  0  0
  186.5200  176.8110  142.0040 N   0  0  0  0  0  2  0  0  0  0  0  0
  187.8740  176.8270  141.4770 C   0  0  0  0  0  2  0  0  0  0  0  0
  188.8070  177.5330  142.4430 C   0  0  0  0  0  2  0  0  0  0  0  0
  191.1890  177.3060  143.2550 C   0  0  0  0  0  0  0  0  0  0  0  0
  191.1360  178.4250  143.8300 O   0  0  0  0  0  0  0  0  0  0  0  0
  190.0700  176.8150  142.5180 N   0  0  0  0  0  2  0  0  0  0  0  0
  192.4350  176.4940  143.3310 C   0  0  0  0  0  2  0  0  0  0  0  0
  192.8090  176.2540  144.7810 C   0  0  0  0  0  2  0  0  0  0  0  0
  194.2040  176.7770  145.0440 C   0  0  1  0  0  3  0  0  0  0  0  0
  194.3650  177.0680  146.4650 C   0  0  0  0  0  2  0  0  0  0  0  0
  194.9180  175.8260  145.9080 N   0  0  0  0  0  2  0  0  0  0  0  0
  3  1  1  6  0  0  0
  3  6  1  0  0  0  0
  3  7  1  0  0  0  0
  4  2  1  0  0  0  0
  5  4  1  0  0  0  0
  6  7  1  0  0  0  0
  6  8  1  0  0  0  0
  7  5  1  0  0  0  0
  8  2  1  0  0  0  0
  9  8  1  0  0  0  0
  9 10  1  0  0  0  0
 10 11  1  0  0  0  0
 11 13  1  0  0  0  0
 13 12  1  0  0  0  0
 14 15  1  0  0  0  0
 14  1  1  0  0  0  0
 16 15  1  0  0  0  0
 16 17  1  0  0  0  0
 17 20  1  0  0  0  0
 18 21  1  0  0  0  0
 18 19  2  0  0  0  0
 20 18  1  0  0  0  0
 21 22  1  0  0  0  0
 22 23  1  0  0  0  0
 23 25  1  0  0  0  0
 23 24  1  0  0  0  0
 25 24  1  0  0  0  0
M  END
>  <MODEL>
5

>  <REMARK>
 VINA RESULT:      -5.6      3.241      6.061
  Name = 
  13 active torsions:
  status: ('A' for Active; 'I' for Inactive)
    1  A    between atoms: C_2  and  C_3
    2  A    between atoms: C_2  and  C_5
    3  A    between atoms: C_4  and  C_16
    4  A    between atoms: C_5  and  C_11
    5  A    between atoms: C_10  and  C_22
    6  A    between atoms: C_10  and  N_25
    7  A    between atoms: C_14  and  C_18
    8  A    between atoms: C_14  and  O_24
    9  A    between atoms: C_16  and  C_19
   10  A    between atoms: C_18  and  O_21
   11  A    between atoms: C_19  and  N_23
   12  A    between atoms: C_20  and  O_24
   13  A    between atoms: C_22  and  N_23
                            x       y       z     vdW  Elec       q    Type
                         _______ _______ _______ _____ _____    ______ ____

>  <TORSDO>
F 13

$$$$
=
 OpenBabel11072409403D

 25 27  0  0  1  0  0  0  0  0999 V2000
  188.5480  177.5570  144.7140 C   0  0  0  0  0  2  0  0  0  0  0  0
  184.5340  178.4110  146.4110 C   0  0  0  0  0  2  0  0  0  0  0  0
  187.5070  176.5120  145.0900 C   0  0  2  0  0  3  0  0  0  0  0  0
  185.4690  178.2460  147.5700 N   0  0  0  0  0  2  0  0  0  0  0  0
  186.8970  178.0200  147.2020 C   0  0  0  0  0  2  0  0  0  0  0  0
  186.1570  177.1600  145.2820 C   0  0  1  0  0  3  0  0  0  0  0  0
  187.0280  176.6990  146.4290 C   0  0  1  0  0  3  0  0  0  0  0  0
  185.0090  177.7530  145.1290 C   0  0  2  0  0  3  0  0  0  0  0  0
  184.4080  177.9140  143.8820 O   0  0  0  0  0  0  0  0  0  0  0  0
  184.9830  178.7240  142.8670 C   0  0  0  0  0  2  0  0  0  0  0  0
  185.1510  177.9270  141.5850 C   0  0  0  0  0  2  0  0  0  0  0  0
  183.2290  178.2580  140.5550 C   0  0  0  0  0  1  0  0  0  0  0  0
  184.5770  178.6110  140.5120 O   0  0  0  0  0  0  0  0  0  0  0  0
  188.4620  177.8900  143.2320 C   0  0  0  0  0  2  0  0  0  0  0  0
  189.4810  177.1670  142.4920 N   0  0  0  0  0  2  0  0  0  0  0  0
  190.7650  177.6770  142.9440 C   0  0  0  0  0  2  0  0  0  0  0  0
  191.8370  176.6130  142.7920 C   0  0  0  0  0  2  0  0  0  0  0  0
  191.6890  175.0310  144.7560 C   0  0  0  0  0  0  0  0  0  0  0  0
  190.7330  174.4070  144.2250 O   0  0  0  0  0  0  0  0  0  0  0  0
  192.2680  176.1620  144.1070 N   0  0  0  0  0  2  0  0  0  0  0  0
  192.2130  174.5920  146.0790 C   0  0  0  0  0  2  0  0  0  0  0  0
  192.4320  175.7970  146.9740 C   0  0  0  0  0  2  0  0  0  0  0  0
  191.2520  175.9640  147.9060 C   0  0  1  0  0  3  0  0  0  0  0  0
  191.4130  177.1790  148.6980 C   0  0  0  0  0  2  0  0  0  0  0  0
  190.5160  177.1820  147.5340 N   0  0  0  0  0  2  0  0  0  0  0  0
  2  4  1  0  0  0  0
  3  1  1  1  0  0  0
  3  6  1  0  0  0  0
  3  7  1  0  0  0  0
  5  4  1  0  0  0  0
  6  7  1  0  0  0  0
  7  5  1  0  0  0  0
  8  6  1  0  0  0  0
  8  2  1  0  0  0  0
  9  8  1  0  0  0  0
 10  9  1  0  0  0  0
 11 10  1  0  0  0  0
 13 12  1  0  0  0  0
 13 11  1  0  0  0  0
 14  1  1  0  0  0  0
 15 16  1  0  0  0  0
 15 14  1  0  0  0  0
 17 16  1  0  0  0  0
 17 20  1  0  0  0  0
 18 21  1  0  0  0  0
 19 18  2  0  0  0  0
 20 18  1  0  0  0  0
 21 22  1  0  0  0  0
 22 23  1  0  0  0  0
 23 24  1  0  0  0  0
 25 23  1  0  0  0  0
 25 24  1  0  0  0  0
M  END
>  <MODEL>
6

>  <REMARK>
 VINA RESULT:      -5.6      2.133      4.157
  Name = 
  13 active torsions:
  status: ('A' for Active; 'I' for Inactive)
    1  A    between atoms: C_2  and  C_3
    2  A    between atoms: C_2  and  C_5
    3  A    between atoms: C_4  and  C_16
    4  A    between atoms: C_5  and  C_11
    5  A    between atoms: C_10  and  C_22
    6  A    between atoms: C_10  and  N_25
    7  A    between atoms: C_14  and  C_18
    8  A    between atoms: C_14  and  O_24
    9  A    between atoms: C_16  and  C_19
   10  A    between atoms: C_18  and  O_21
   11  A    between atoms: C_19  and  N_23
   12  A    between atoms: C_20  and  O_24
   13  A    between atoms: C_22  and  N_23
                            x       y       z     vdW  Elec       q    Type
                         _______ _______ _______ _____ _____    ______ ____

>  <TORSDO>
F 13

$$$$
=
 OpenBabel11072409403D

 25 27  0  0  1  0  0  0  0  0999 V2000
  188.4750  177.4320  146.4200 C   0  0  0  0  0  2  0  0  0  0  0  0
  184.2140  178.4820  145.7400 C   0  0  0  0  0  2  0  0  0  0  0  0
  187.3160  176.4450  146.3880 C   0  0  2  0  0  3  0  0  0  0  0  0
  184.4430  178.5340  147.2190 N   0  0  0  0  0  2  0  0  0  0  0  0
  185.8470  178.2780  147.6510 C   0  0  0  0  0  2  0  0  0  0  0  0
  186.0940  177.0900  145.7790 C   0  0  1  0  0  3  0  0  0  0  0  0
  186.2540  176.8470  147.2630 C   0  0  1  0  0  3  0  0  0  0  0  0
  185.2120  177.6250  144.9850 C   0  0  2  0  0  3  0  0  0  0  0  0
  185.3160  177.5600  143.5970 O   0  0  0  0  0  0  0  0  0  0  0  0
  186.2840  178.3110  142.8780 C   0  0  0  0  0  2  0  0  0  0  0  0
  186.0550  178.1750  141.3820 C   0  0  0  0  0  2  0  0  0  0  0  0
  188.2360  177.9370  141.6140 C   0  0  0  0  0  1  0  0  0  0  0  0
  187.1750  177.6060  140.7720 O   0  0  0  0  0  0  0  0  0  0  0  0
  189.2450  177.3970  145.1090 C   0  0  0  0  0  2  0  0  0  0  0  0
  189.4120  176.0260  144.6580 N   0  0  0  0  0  2  0  0  0  0  0  0
  190.6620  175.9800  143.9180 C   0  0  0  0  0  2  0  0  0  0  0  0
  191.5010  177.2070  144.2260 C   0  0  0  0  0  2  0  0  0  0  0  0
  193.0880  176.4350  146.0340 C   0  0  0  0  0  0  0  0  0  0  0  0
  192.1850  176.5130  146.9080 O   0  0  0  0  0  0  0  0  0  0  0  0
  192.8220  176.7960  144.6790 N   0  0  0  0  0  2  0  0  0  0  0  0
  194.4510  175.9740  146.4180 C   0  0  0  0  0  2  0  0  0  0  0  0
  194.7990  174.7020  145.6690 C   0  0  0  0  0  2  0  0  0  0  0  0
  196.0440  174.9210  144.8370 C   0  0  1  0  0  3  0  0  0  0  0  0
  196.4100  173.6830  144.1590 C   0  0  0  0  0  2  0  0  0  0  0  0
  195.7090  174.7390  143.4170 N   0  0  0  0  0  2  0  0  0  0  0  0
  2  4  1  0  0  0  0
  3  1  1  1  0  0  0
  3  7  1  0  0  0  0
  4  5  1  0  0  0  0
  6  3  1  0  0  0  0
  6  7  1  0  0  0  0
  7  5  1  0  0  0  0
  8  2  1  0  0  0  0
  8  6  1  0  0  0  0
  9  8  1  0  0  0  0
 10  9  1  0  0  0  0
 11 10  1  0  0  0  0
 13 11  1  0  0  0  0
 13 12  1  0  0  0  0
 14  1  1  0  0  0  0
 15 14  1  0  0  0  0
 16 17  1  0  0  0  0
 16 15  1  0  0  0  0
 17 20  1  0  0  0  0
 18 21  1  0  0  0  0
 18 19  2  0  0  0  0
 20 18  1  0  0  0  0
 22 21  1  0  0  0  0
 23 22  1  0  0  0  0
 24 23  1  0  0  0  0
 25 24  1  0  0  0  0
 25 23  1  0  0  0  0
M  END
>  <MODEL>
7

>  <REMARK>
 VINA RESULT:      -5.5      3.039      4.713
  Name = 
  13 active torsions:
  status: ('A' for Active; 'I' for Inactive)
    1  A    between atoms: C_2  and  C_3
    2  A    between atoms: C_2  and  C_5
    3  A    between atoms: C_4  and  C_16
    4  A    between atoms: C_5  and  C_11
    5  A    between atoms: C_10  and  C_22
    6  A    between atoms: C_10  and  N_25
    7  A    between atoms: C_14  and  C_18
    8  A    between atoms: C_14  and  O_24
    9  A    between atoms: C_16  and  C_19
   10  A    between atoms: C_18  and  O_21
   11  A    between atoms: C_19  and  N_23
   12  A    between atoms: C_20  and  O_24
   13  A    between atoms: C_22  and  N_23
                            x       y       z     vdW  Elec       q    Type
                         _______ _______ _______ _____ _____    ______ ____

>  <TORSDO>
F 13

$$$$
=
 OpenBabel11072409403D

 25 27  0  0  1  0  0  0  0  0999 V2000
  184.4030  178.1530  142.8990 C   0  0  0  0  0  2  0  0  0  0  0  0
  185.9010  177.4250  147.0160 C   0  0  0  0  0  2  0  0  0  0  0  0
  185.4880  178.9590  143.6000 C   0  0  2  0  0  3  0  0  0  0  0  0
  184.7670  178.3970  147.1320 N   0  0  0  0  0  2  0  0  0  0  0  0
  184.0770  178.7180  145.8500 C   0  0  0  0  0  2  0  0  0  0  0  0
  185.9890  178.2180  144.8160 C   0  0  1  0  0  3  0  0  0  0  0  0
  185.0610  179.4090  144.8930 C   0  0  1  0  0  3  0  0  0  0  0  0
  186.5500  177.3860  145.6450 C   0  0  2  0  0  3  0  0  0  0  0  0
  187.4990  176.4490  145.2400 O   0  0  0  0  0  0  0  0  0  0  0  0
  188.8880  176.7460  145.2130 C   0  0  0  0  0  2  0  0  0  0  0  0
  189.5730  176.1850  146.4470 C   0  0  0  0  0  2  0  0  0  0  0  0
  191.1950  176.5810  147.8880 C   0  0  0  0  0  1  0  0  0  0  0  0
  190.8830  176.6610  146.5320 O   0  0  0  0  0  0  0  0  0  0  0  0
  184.6580  178.1010  141.4000 C   0  0  0  0  0  2  0  0  0  0  0  0
  186.0460  178.4230  141.1130 N   0  0  0  0  0  2  0  0  0  0  0  0
  186.6560  177.2100  140.5930 C   0  0  0  0  0  2  0  0  0  0  0  0
  187.7880  176.7600  141.4990 C   0  0  0  0  0  2  0  0  0  0  0  0
  188.1570  174.2640  141.3840 C   0  0  0  0  0  0  0  0  0  0  0  0
  188.9230  174.3880  140.3920 O   0  0  0  0  0  0  0  0  0  0  0  0
  187.5320  175.4060  141.9670 N   0  0  0  0  0  2  0  0  0  0  0  0
  187.8890  172.9110  141.9460 C   0  0  0  0  0  2  0  0  0  0  0  0
  189.1330  172.3790  142.6310 C   0  0  0  0  0  2  0  0  0  0  0  0
  189.6190  173.3790  143.6590 C   0  0  1  0  0  3  0  0  0  0  0  0
  190.4660  172.7100  144.6390 C   0  0  0  0  0  2  0  0  0  0  0  0
  191.0810  173.4940  143.5600 N   0  0  0  0  0  2  0  0  0  0  0  0
  2  4  1  0  0  0  0
  3  1  1  6  0  0  0
  3  6  1  0  0  0  0
  3  7  1  0  0  0  0
  5  4  1  0  0  0  0
  6  7  1  0  0  0  0
  6  8  1  0  0  0  0
  7  5  1  0  0  0  0
  8  2  1  0  0  0  0
  9  8  1  0  0  0  0
 10  9  1  0  0  0  0
 10 11  1  0  0  0  0
 11 13  1  0  0  0  0
 13 12  1  0  0  0  0
 14  1  1  0  0  0  0
 15 14  1  0  0  0  0
 16 15  1  0  0  0  0
 16 17  1  0  0  0  0
 17 20  1  0  0  0  0
 18 21  1  0  0  0  0
 18 20  1  0  0  0  0
 19 18  2  0  0  0  0
 21 22  1  0  0  0  0
 22 23  1  0  0  0  0
 23 24  1  0  0  0  0
 25 23  1  0  0  0  0
 25 24  1  0  0  0  0
M  END
>  <MODEL>
8

>  <REMARK>
 VINA RESULT:      -5.5      3.263      6.638
  Name = 
  13 active torsions:
  status: ('A' for Active; 'I' for Inactive)
    1  A    between atoms: C_2  and  C_3
    2  A    between atoms: C_2  and  C_5
    3  A    between atoms: C_4  and  C_16
    4  A    between atoms: C_5  and  C_11
    5  A    between atoms: C_10  and  C_22
    6  A    between atoms: C_10  and  N_25
    7  A    between atoms: C_14  and  C_18
    8  A    between atoms: C_14  and  O_24
    9  A    between atoms: C_16  and  C_19
   10  A    between atoms: C_18  and  O_21
   11  A    between atoms: C_19  and  N_23
   12  A    between atoms: C_20  and  O_24
   13  A    between atoms: C_22  and  N_23
                            x       y       z     vdW  Elec       q    Type
                         _______ _______ _______ _____ _____    ______ ____

>  <TORSDO>
F 13

$$$$
=
 OpenBabel11072409403D

 25 27  0  0  1  0  0  0  0  0999 V2000
  186.3290  177.5390  142.5000 C   0  0  0  0  0  2  0  0  0  0  0  0
  184.6550  178.1400  146.5700 C   0  0  0  0  0  2  0  0  0  0  0  0
  186.7240  178.6500  143.4630 C   0  0  2  0  0  3  0  0  0  0  0  0
  183.8000  178.9300  145.6280 N   0  0  0  0  0  2  0  0  0  0  0  0
  184.1620  178.8010  144.1870 C   0  0  0  0  0  2  0  0  0  0  0  0
  186.2370  178.3350  144.8570 C   0  0  1  0  0  3  0  0  0  0  0  0
  185.5760  179.3550  143.9570 C   0  0  1  0  0  3  0  0  0  0  0  0
  186.0470  177.8410  146.0460 C   0  0  2  0  0  3  0  0  0  0  0  0
  186.9590  176.9800  146.6550 O   0  0  0  0  0  0  0  0  0  0  0  0
  188.3100  177.3550  146.8830 C   0  0  0  0  0  2  0  0  0  0  0  0
  189.2370  176.5810  145.9620 C   0  0  0  0  0  2  0  0  0  0  0  0
  189.3930  174.6710  147.0550 C   0  0  0  0  0  1  0  0  0  0  0  0
  188.8520  175.2400  145.9020 O   0  0  0  0  0  0  0  0  0  0  0  0
  187.2060  177.5700  141.2570 C   0  0  0  0  0  2  0  0  0  0  0  0
  187.6440  176.2270  140.9150 N   0  0  0  0  0  2  0  0  0  0  0  0
  187.7300  175.4870  142.1630 C   0  0  0  0  0  2  0  0  0  0  0  0
  189.0470  174.7360  142.2390 C   0  0  0  0  0  2  0  0  0  0  0  0
  191.2990  175.3820  143.1840 C   0  0  0  0  0  0  0  0  0  0  0  0
  191.3900  174.2900  143.8050 O   0  0  0  0  0  0  0  0  0  0  0  0
  190.1400  175.6820  142.4070 N   0  0  0  0  0  2  0  0  0  0  0  0
  192.4050  176.3770  143.2720 C   0  0  0  0  0  2  0  0  0  0  0  0
  193.4560  175.8980  144.2550 C   0  0  0  0  0  2  0  0  0  0  0  0
  193.3750  176.7110  145.5290 C   0  0  1  0  0  3  0  0  0  0  0  0
  192.9380  175.8620  146.6310 C   0  0  0  0  0  2  0  0  0  0  0  0
  194.3620  176.1960  146.4890 N   0  0  0  0  0  2  0  0  0  0  0  0
  3  1  1  6  0  0  0
  3  7  1  0  0  0  0
  3  6  1  0  0  0  0
  4  2  1  0  0  0  0
  5  4  1  0  0  0  0
  6  8  1  0  0  0  0
  7  5  1  0  0  0  0
  7  6  1  0  0  0  0
  8  2  1  0  0  0  0
  8  9  1  0  0  0  0
  9 10  1  0  0  0  0
 11 10  1  0  0  0  0
 13 11  1  0  0  0  0
 13 12  1  0  0  0  0
 14  1  1  0  0  0  0
 15 14  1  0  0  0  0
 15 16  1  0  0  0  0
 16 17  1  0  0  0  0
 17 20  1  0  0  0  0
 18 21  1  0  0  0  0
 18 19  2  0  0  0  0
 20 18  1  0  0  0  0
 21 22  1  0  0  0  0
 22 23  1  0  0  0  0
 23 25  1  0  0  0  0
 23 24  1  0  0  0  0
 25 24  1  0  0  0  0
M  END
>  <MODEL>
9

>  <REMARK>
 VINA RESULT:      -5.4      3.240      5.768
  Name = 
  13 active torsions:
  status: ('A' for Active; 'I' for Inactive)
    1  A    between atoms: C_2  and  C_3
    2  A    between atoms: C_2  and  C_5
    3  A    between atoms: C_4  and  C_16
    4  A    between atoms: C_5  and  C_11
    5  A    between atoms: C_10  and  C_22
    6  A    between atoms: C_10  and  N_25
    7  A    between atoms: C_14  and  C_18
    8  A    between atoms: C_14  and  O_24
    9  A    between atoms: C_16  and  C_19
   10  A    between atoms: C_18  and  O_21
   11  A    between atoms: C_19  and  N_23
   12  A    between atoms: C_20  and  O_24
   13  A    between atoms: C_22  and  N_23
                            x       y       z     vdW  Elec       q    Type
                         _______ _______ _______ _____ _____    ______ ____

>  <TORSDO>
F 13

$$$$
