=
 OpenBabel11062421393D

 52 57  0  0  1  0  0  0  0  0999 V2000
  192.1600  175.5190  144.6460 C   0  0  1  0  0  3  0  0  0  0  0  0
  187.3680  174.3630  142.7440 C   0  0  0  0  0  2  0  0  0  0  0  0
  191.4350  177.2750  143.0990 N   0  0  0  0  0  0  0  0  0  0  0  0
  190.3630  177.1720  145.1330 C   0  0  0  0  0  3  0  0  0  0  0  0
  190.2050  177.5130  142.9090 N   0  0  0  0  0  0  0  0  0  0  0  0
  188.0720  177.5810  144.3020 C   0  0  0  0  0  0  0  0  0  0  0  0
  189.5270  177.4510  144.1500 C   0  0  0  0  0  0  0  0  0  0  0  0
  186.9730  175.4050  141.6950 C   0  0  1  0  0  3  0  0  0  0  0  0
  190.5670  174.2260  141.9150 C   0  0  0  0  0  2  0  0  0  0  0  0
  187.8440  173.0680  142.1130 C   0  0  0  0  0  2  0  0  0  0  0  0
  191.3750  172.0120  142.6610 C   0  0  0  0  0  2  0  0  0  0  0  0
  186.5690  176.7070  142.3430 C   0  0  0  0  0  0  0  0  0  0  0  0
  192.8860  174.0400  142.8300 C   0  0  2  0  0  3  0  0  0  0  0  0
  190.2880  172.7820  142.0240 N   0  0  1  0  0  0  0  0  0  0  0  0
  191.7100  176.9840  144.5020 C   0  0  1  0  0  3  0  0  0  0  0  0
  192.0410  174.5010  141.6400 C   0  0  0  0  0  2  0  0  0  0  0  0
  189.0950  172.6030  142.8460 C   0  0  0  0  0  2  0  0  0  0  0  0
  192.2580  172.8560  143.5910 C   0  0  0  0  0  2  0  0  0  0  0  0
  187.3050  177.1860  143.3180 C   0  0  0  0  0  0  0  0  0  0  0  0
  193.2490  175.1920  143.6870 N   0  0  2  0  0  0  0  0  0  0  0  0
  183.4000  178.5050  141.4230 C   0  0  2  0  0  3  0  0  0  0  0  0
  184.2810  178.8030  140.2140 C   0  0  0  0  0  3  0  0  0  0  0  0
  185.5230  177.5000  141.7590 N   0  0  0  0  0  0  0  0  0  0  0  0
  184.2190  177.6490  142.3730 C   0  0  0  0  0  2  0  0  0  0  0  0
  185.6400  178.1830  140.4850 C   0  0  0  0  0  3  0  0  0  0  0  0
  182.2680  177.7940  141.0130 O   0  0  0  0  0  0  0  0  0  0  0  0
  180.7420  179.8630  140.4360 O   0  0  0  0  0  0  0  0  0  0  0  0
  180.9350  178.7530  141.4460 P   0  0  0  0  0  0  0  0  0  0  0  0
  181.2180  179.4350  142.9670 O   0  0  0  0  0  1  0  0  0  0  0  0
  179.5390  177.8010  141.5160 O   0  0  0  0  0  1  0  0  0  0  0  0
  193.2520  173.9980  146.1860 F   0  0  0  0  0  0  0  0  0  0  0  0
  191.1760  174.6760  146.6600 F   0  0  0  0  0  0  0  0  0  0  0  0
  192.3820  175.0710  146.1150 C   0  0  0  0  0  0  0  0  0  0  0  0
  192.8890  176.1110  146.8740 F   0  0  0  0  0  0  0  0  0  0  0  0
  194.6130  175.1370  144.2710 C   0  0  2  0  0  0  0  0  0  0  0  0
  195.1540  176.5380  144.2240 C   0  0  0  0  0  2  0  0  0  0  0  0
  195.7390  175.5560  143.2450 C   0  0  2  0  0  0  0  0  0  0  0  0
  195.4470  174.1110  143.5460 C   0  0  0  0  0  2  0  0  0  0  0  0
  197.2030  175.6380  143.5820 C   0  0  0  0  0  0  0  0  0  0  0  0
  197.9410  176.7140  143.1080 O   0  0  0  0  0  0  0  0  0  0  0  0
  197.7790  174.7570  144.2830 O   0  0  0  0  0  1  0  0  0  0  0  0
  187.5250  177.8590  145.5980 N   0  0  0  0  0  2  0  0  0  0  0  0
  184.9210  177.3680  145.6760 O   0  0  0  0  0  0  0  0  0  0  0  0
  185.6030  179.7400  144.7530 N   0  0  0  0  0  1  0  0  0  0  0  0
  185.8170  179.0060  147.2750 O   0  0  0  0  0  0  0  0  0  0  0  0
  185.9240  178.4680  145.8760 S   0  0  0  0  0  0  0  0  0  0  0  0
  188.0330  175.6380  140.8130 O   0  0  0  0  0  0  0  0  0  0  0  0
  187.4990  175.4230  139.5410 C   0  0  0  0  0  2  0  0  0  0  0  0
  188.2410  174.2820  138.8670 C   0  0  0  0  0  2  0  0  0  0  0  0
  188.2110  174.4490  137.3570 C   0  0  0  0  0  2  0  0  0  0  0  0
  189.3950  172.7760  136.1480 O   0  0  0  0  0  1  0  0  0  0  0  0
  189.5360  174.0260  136.7500 C   0  0  0  0  0  2  0  0  0  0  0  0
  1 33  1  1  0  0  0
  3 15  1  0  0  0  0
  5  3  2  0  0  0  0
  5  7  1  0  0  0  0
  6 42  1  0  0  0  0
  7  6  1  0  0  0  0
  7  4  2  0  0  0  0
  8 47  1  6  0  0  0
  8 12  1  0  0  0  0
  8  2  1  0  0  0  0
 10  2  1  0  0  0  0
 10 17  1  0  0  0  0
 11 18  1  0  0  0  0
 12 19  2  0  0  0  0
 13 16  1  6  0  0  0
 13 18  1  0  0  0  0
 13 20  1  0  0  0  0
 14  9  1  1  0  0  0
 14 11  1  0  0  0  0
 14 17  1  0  0  0  0
 15  1  1  0  0  0  0
 15  4  1  1  0  0  0
 16  9  1  0  0  0  0
 19  6  2  0  0  0  0
 20 35  1  1  0  0  0
 20  1  1  0  0  0  0
 21 26  1  6  0  0  0
 21 24  1  0  0  0  0
 22 25  2  0  0  0  0
 22 21  1  0  0  0  0
 23 12  1  0  0  0  0
 23 24  1  0  0  0  0
 25 23  1  0  0  0  0
 26 28  1  0  0  0  0
 27 28  2  0  0  0  0
 28 30  1  0  0  0  0
 28 29  1  0  0  0  0
 33 31  1  0  0  0  0
 33 32  1  0  0  0  0
 33 34  1  0  0  0  0
 35 38  1  1  0  0  0
 36 35  1  0  0  0  0
 37 38  1  0  0  0  0
 37 39  1  1  0  0  0
 37 36  1  0  0  0  0
 37 35  1  0  0  0  0
 39 41  1  0  0  0  0
 40 39  2  0  0  0  0
 42 46  1  0  0  0  0
 43 46  2  0  0  0  0
 44 46  1  0  0  0  0
 46 45  2  0  0  0  0
 48 47  1  0  0  0  0
 49 48  1  0  0  0  0
 50 49  1  0  0  0  0
 51 52  1  0  0  0  0
 52 50  1  0  0  0  0
M  END
>  <MODEL>
1

>  <REMARK>
 VINA RESULT:      -7.6      0.000      0.000
  Name = 
  13 active torsions:
  status: ('A' for Active; 'I' for Inactive)
    1  A    between atoms: C_1  and  C_29
    2  A    between atoms: C_4  and  N_51
    3  A    between atoms: C_6  and  C_37
    4  A    between atoms: C_6  and  C_39
    5  A    between atoms: C_8  and  C_28
    6  A    between atoms: C_10  and  N_13
    7  A    between atoms: C_12  and  O_30
    8  A    between atoms: N_13  and  S_52
    9  A    between atoms: C_16  and  O_38
   10  A    between atoms: C_22  and  N_25
   11  A    between atoms: P_27  and  O_38
   12  A    between atoms: O_30  and  C_47
   13  A    between atoms: C_39  and  C_47
                            x       y       z     vdW  Elec       q    Type
                         _______ _______ _______ _____ _____    ______ ____

>  <TORSDO>
F 13

$$$$
=
 OpenBabel11062421393D

 52 57  0  0  1  0  0  0  0  0999 V2000
  194.2520  171.3940  143.4640 C   0  0  1  0  0  3  0  0  0  0  0  0
  192.0360  176.0750  142.4210 C   0  0  0  0  0  2  0  0  0  0  0  0
  192.2760  171.7100  144.8770 N   0  0  0  0  0  0  0  0  0  0  0  0
  191.9030  171.3320  142.6380 C   0  0  0  0  0  3  0  0  0  0  0  0
  191.3170  172.4520  144.5060 N   0  0  0  0  0  0  0  0  0  0  0  0
  190.0980  172.9920  142.3340 C   0  0  0  0  0  0  0  0  0  0  0  0
  191.0750  172.2360  143.1280 C   0  0  0  0  0  0  0  0  0  0  0  0
  190.8720  176.3130  143.3860 C   0  0  1  0  0  3  0  0  0  0  0  0
  194.0190  174.5990  144.6200 C   0  0  0  0  0  2  0  0  0  0  0  0
  193.2810  176.8440  142.8270 C   0  0  0  0  0  2  0  0  0  0  0  0
  196.3240  174.9220  143.7890 C   0  0  0  0  0  2  0  0  0  0  0  0
  189.6690  175.4870  143.0040 C   0  0  0  0  0  0  0  0  0  0  0  0
  195.6750  172.7530  144.9270 C   0  0  2  0  0  3  0  0  0  0  0  0
  194.9910  175.5210  144.0040 N   0  0  1  0  0  0  0  0  0  0  0  0
  192.8130  170.9360  143.7630 C   0  0  1  0  0  3  0  0  0  0  0  0
  194.6780  173.6720  145.6350 C   0  0  0  0  0  2  0  0  0  0  0  0
  194.4840  175.9210  142.6940 C   0  0  0  0  0  2  0  0  0  0  0  0
  196.2960  173.3920  143.6700 C   0  0  0  0  0  2  0  0  0  0  0  0
  189.8400  174.2280  142.6760 C   0  0  0  0  0  0  0  0  0  0  0  0
  195.0790  171.4160  144.7000 N   0  0  2  0  0  0  0  0  0  0  0  0
  186.5330  177.2000  144.1680 C   0  0  2  0  0  3  0  0  0  0  0  0
  186.0100  176.3680  143.0010 C   0  0  0  0  0  3  0  0  0  0  0  0
  188.3470  176.0180  143.1990 N   0  0  0  0  0  0  0  0  0  0  0  0
  188.0220  176.9280  144.2780 C   0  0  0  0  0  2  0  0  0  0  0  0
  187.2040  175.6620  142.3820 C   0  0  0  0  0  3  0  0  0  0  0  0
  185.8970  176.8020  145.3470 O   0  0  0  0  0  0  0  0  0  0  0  0
  186.6980  178.3140  147.3500 O   0  0  0  0  0  1  0  0  0  0  0  0
  185.6630  178.2210  146.2510 P   0  0  0  0  0  0  0  0  0  0  0  0
  184.1220  178.1820  146.9470 O   0  0  0  0  0  1  0  0  0  0  0  0
  185.7820  179.5730  145.2430 O   0  0  0  0  0  0  0  0  0  0  0  0
  194.4530  169.3960  142.1050 F   0  0  0  0  0  0  0  0  0  0  0  0
  196.2600  170.6840  142.3690 F   0  0  0  0  0  0  0  0  0  0  0  0
  194.8860  170.7040  142.2270 C   0  0  0  0  0  0  0  0  0  0  0  0
  194.5730  171.3910  141.0680 F   0  0  0  0  0  0  0  0  0  0  0  0
  196.0150  170.2740  144.8570 C   0  0  2  0  0  0  0  0  0  0  0  0
  195.2430  169.1800  145.5390 C   0  0  0  0  0  2  0  0  0  0  0  0
  196.2740  169.8950  146.3690 C   0  0  2  0  0  0  0  0  0  0  0  0
  197.2580  170.7190  145.5850 C   0  0  0  0  0  2  0  0  0  0  0  0
  197.1390  168.7480  146.8170 C   0  0  0  0  0  0  0  0  0  0  0  0
  197.0530  168.3180  148.1340 O   0  0  0  0  0  1  0  0  0  0  0  0
  197.9410  168.1670  146.0310 O   0  0  0  0  0  0  0  0  0  0  0  0
  189.6750  172.4740  141.0660 N   0  0  0  0  0  2  0  0  0  0  0  0
  189.4740  173.5940  138.6710 O   0  0  0  0  0  0  0  0  0  0  0  0
  190.8940  171.3760  138.7730 N   0  0  0  0  0  1  0  0  0  0  0  0
  191.6620  173.6830  139.7890 O   0  0  0  0  0  0  0  0  0  0  0  0
  190.4350  172.8480  139.5520 S   0  0  0  0  0  0  0  0  0  0  0  0
  191.2500  175.9990  144.6960 O   0  0  0  0  0  0  0  0  0  0  0  0
  191.0080  177.1610  145.4310 C   0  0  0  0  0  2  0  0  0  0  0  0
  190.9360  176.8190  146.9090 C   0  0  0  0  0  2  0  0  0  0  0  0
  191.0120  175.3150  147.1090 C   0  0  0  0  0  2  0  0  0  0  0  0
  189.1440  174.0870  146.2950 O   0  0  0  0  0  1  0  0  0  0  0  0
  189.6360  174.7510  147.4170 C   0  0  0  0  0  2  0  0  0  0  0  0
  1 33  1  6  0  0  0
  1 15  1  0  0  0  0
  1 20  1  0  0  0  0
  2 10  1  0  0  0  0
  2  8  1  0  0  0  0
  4  7  2  0  0  0  0
  5  3  2  0  0  0  0
  6 19  2  0  0  0  0
  6  7  1  0  0  0  0
  7  5  1  0  0  0  0
  8 47  1  1  0  0  0
  9 16  1  0  0  0  0
 11 14  1  0  0  0  0
 12 23  1  0  0  0  0
 12  8  1  0  0  0  0
 13 18  1  6  0  0  0
 13 16  1  0  0  0  0
 14 17  1  6  0  0  0
 14  9  1  0  0  0  0
 15  4  1  6  0  0  0
 15  3  1  0  0  0  0
 17 10  1  0  0  0  0
 18 11  1  0  0  0  0
 19 12  2  0  0  0  0
 20 35  1  6  0  0  0
 20 13  1  0  0  0  0
 21 24  1  0  0  0  0
 21 26  1  1  0  0  0
 22 21  1  0  0  0  0
 23 24  1  0  0  0  0
 25 22  2  0  0  0  0
 25 23  1  0  0  0  0
 26 28  1  0  0  0  0
 28 29  1  0  0  0  0
 28 27  1  0  0  0  0
 30 28  2  0  0  0  0
 31 33  1  0  0  0  0
 33 32  1  0  0  0  0
 34 33  1  0  0  0  0
 35 36  1  6  0  0  0
 35 38  1  0  0  0  0
 35 37  1  0  0  0  0
 36 37  1  0  0  0  0
 37 39  1  6  0  0  0
 38 37  1  0  0  0  0
 39 40  1  0  0  0  0
 41 39  2  0  0  0  0
 42  6  1  0  0  0  0
 43 46  2  0  0  0  0
 44 46  1  0  0  0  0
 46 45  2  0  0  0  0
 46 42  1  0  0  0  0
 47 48  1  0  0  0  0
 48 49  1  0  0  0  0
 49 50  1  0  0  0  0
 50 52  1  0  0  0  0
 51 52  1  0  0  0  0
M  END
>  <MODEL>
2

>  <REMARK>
 VINA RESULT:      -7.0      3.907      6.751
  Name = 
  13 active torsions:
  status: ('A' for Active; 'I' for Inactive)
    1  A    between atoms: C_1  and  C_29
    2  A    between atoms: C_4  and  N_51
    3  A    between atoms: C_6  and  C_37
    4  A    between atoms: C_6  and  C_39
    5  A    between atoms: C_8  and  C_28
    6  A    between atoms: C_10  and  N_13
    7  A    between atoms: C_12  and  O_30
    8  A    between atoms: N_13  and  S_52
    9  A    between atoms: C_16  and  O_38
   10  A    between atoms: C_22  and  N_25
   11  A    between atoms: P_27  and  O_38
   12  A    between atoms: O_30  and  C_47
   13  A    between atoms: C_39  and  C_47
                            x       y       z     vdW  Elec       q    Type
                         _______ _______ _______ _____ _____    ______ ____

>  <TORSDO>
F 13

$$$$
=
 OpenBabel11062421393D

 52 57  0  0  1  0  0  0  0  0999 V2000
  189.5210  176.3100  143.4100 C   0  0  1  0  0  3  0  0  0  0  0  0
  192.0230  172.7030  140.4690 C   0  0  0  0  0  2  0  0  0  0  0  0
  189.9830  174.3170  144.7560 N   0  0  0  0  0  0  0  0  0  0  0  0
  191.7850  175.6350  144.1990 C   0  0  0  0  0  3  0  0  0  0  0  0
  190.9600  173.5560  144.4860 N   0  0  0  0  0  0  0  0  0  0  0  0
  193.3620  173.8070  143.6730 C   0  0  0  0  0  0  0  0  0  0  0  0
  192.0790  174.3490  144.1370 C   0  0  0  0  0  0  0  0  0  0  0  0
  192.2050  171.4210  141.2840 C   0  0  1  0  0  3  0  0  0  0  0  0
  189.0150  173.4360  141.6360 C   0  0  0  0  0  2  0  0  0  0  0  0
  190.8740  172.5950  139.4820 C   0  0  0  0  0  2  0  0  0  0  0  0
  187.9380  174.8480  139.9160 C   0  0  0  0  0  2  0  0  0  0  0  0
  193.3060  171.5740  142.3050 C   0  0  0  0  0  0  0  0  0  0  0  0
  187.5360  175.3100  142.3750 C   0  0  2  0  0  3  0  0  0  0  0  0
  188.7750  173.6640  140.1990 N   0  0  1  0  0  0  0  0  0  0  0  0
  190.3360  175.7210  144.5750 C   0  0  1  0  0  3  0  0  0  0  0  0
  187.8020  173.8070  142.4810 C   0  0  0  0  0  2  0  0  0  0  0  0
  190.0620  173.8810  139.5430 C   0  0  0  0  0  2  0  0  0  0  0  0
  187.9820  175.9070  141.0260 C   0  0  0  0  0  2  0  0  0  0  0  0
  193.3600  172.6720  143.0210 C   0  0  0  0  0  0  0  0  0  0  0  0
  188.0710  176.0170  143.5620 N   0  0  2  0  0  0  0  0  0  0  0  0
  195.4910  168.9490  143.8720 C   0  0  2  0  0  3  0  0  0  0  0  0
  195.5780  168.5750  142.3960 C   0  0  0  0  0  3  0  0  0  0  0  0
  194.1450  170.4520  142.6240 N   0  0  0  0  0  0  0  0  0  0  0  0
  194.5910  170.1670  143.9720 C   0  0  0  0  0  2  0  0  0  0  0  0
  194.6720  169.5290  141.6370 C   0  0  0  0  0  3  0  0  0  0  0  0
  196.7660  169.2710  144.3470 O   0  0  0  0  0  0  0  0  0  0  0  0
  197.9180  168.2760  146.4970 O   0  0  0  0  0  1  0  0  0  0  0  0
  196.7050  169.0490  146.0300 P   0  0  0  0  0  0  0  0  0  0  0  0
  195.3110  168.1740  146.4190 O   0  0  0  0  0  0  0  0  0  0  0  0
  196.6540  170.5490  146.8090 O   0  0  0  0  0  1  0  0  0  0  0  0
  191.0610  177.8380  142.3270 F   0  0  0  0  0  0  0  0  0  0  0  0
  190.0900  178.4860  144.2320 F   0  0  0  0  0  0  0  0  0  0  0  0
  189.8920  177.7760  143.0630 C   0  0  0  0  0  0  0  0  0  0  0  0
  188.8770  178.3830  142.3460 F   0  0  0  0  0  0  0  0  0  0  0  0
  187.2430  177.1500  144.0460 C   0  0  2  0  0  0  0  0  0  0  0  0
  187.3830  177.1720  145.5420 C   0  0  0  0  0  2  0  0  0  0  0  0
  186.0670  176.6900  144.9960 C   0  0  2  0  0  0  0  0  0  0  0  0
  185.8270  177.0090  143.5450 C   0  0  0  0  0  2  0  0  0  0  0  0
  185.1050  177.6320  145.6690 C   0  0  0  0  0  0  0  0  0  0  0  0
  185.0130  178.9380  145.2090 O   0  0  0  0  0  0  0  0  0  0  0  0
  184.3820  177.2680  146.6400 O   0  0  0  0  0  1  0  0  0  0  0  0
  194.5240  174.6470  143.6860 N   0  0  0  0  0  2  0  0  0  0  0  0
  195.7170  174.7770  146.0500 O   0  0  0  0  0  0  0  0  0  0  0  0
  197.2690  175.2280  143.9680 N   0  0  0  0  0  1  0  0  0  0  0  0
  196.2720  172.8710  144.5990 O   0  0  0  0  0  0  0  0  0  0  0  0
  195.9450  174.3380  144.6320 S   0  0  0  0  0  0  0  0  0  0  0  0
  191.0150  171.0820  141.9360 O   0  0  0  0  0  0  0  0  0  0  0  0
  190.8540  169.7140  141.7060 C   0  0  0  0  0  2  0  0  0  0  0  0
  191.4620  169.3520  140.3620 C   0  0  0  0  0  2  0  0  0  0  0  0
  190.4830  168.5290  139.5430 C   0  0  0  0  0  2  0  0  0  0  0  0
  189.4820  169.6640  137.7060 O   0  0  0  0  0  1  0  0  0  0  0  0
  190.5850  168.8930  138.0720 C   0  0  0  0  0  2  0  0  0  0  0  0
  1 33  1  1  0  0  0
  1 20  1  0  0  0  0
  1 15  1  0  0  0  0
  2  8  1  0  0  0  0
  5  3  2  0  0  0  0
  6 42  1  0  0  0  0
  6  7  1  0  0  0  0
  7  4  2  0  0  0  0
  7  5  1  0  0  0  0
  8 47  1  1  0  0  0
  8 12  1  0  0  0  0
  9 16  1  0  0  0  0
 10 17  1  0  0  0  0
 10  2  1  0  0  0  0
 11 14  1  0  0  0  0
 11 18  1  0  0  0  0
 12 23  1  0  0  0  0
 12 19  2  0  0  0  0
 13 18  1  6  0  0  0
 13 16  1  0  0  0  0
 13 20  1  0  0  0  0
 14 17  1  6  0  0  0
 14  9  1  0  0  0  0
 15  4  1  6  0  0  0
 15  3  1  0  0  0  0
 19  6  2  0  0  0  0
 20 35  1  6  0  0  0
 21 24  1  0  0  0  0
 21 26  1  6  0  0  0
 22 21  1  0  0  0  0
 23 24  1  0  0  0  0
 25 22  2  0  0  0  0
 25 23  1  0  0  0  0
 26 28  1  0  0  0  0
 28 29  2  0  0  0  0
 28 27  1  0  0  0  0
 28 30  1  0  0  0  0
 31 33  1  0  0  0  0
 33 32  1  0  0  0  0
 34 33  1  0  0  0  0
 35 38  1  6  0  0  0
 35 37  1  0  0  0  0
 35 36  1  0  0  0  0
 37 36  1  0  0  0  0
 37 39  1  6  0  0  0
 38 37  1  0  0  0  0
 39 41  1  0  0  0  0
 40 39  2  0  0  0  0
 42 46  1  0  0  0  0
 44 46  1  0  0  0  0
 45 46  2  0  0  0  0
 46 43  2  0  0  0  0
 48 47  1  0  0  0  0
 49 48  1  0  0  0  0
 50 49  1  0  0  0  0
 51 52  1  0  0  0  0
 52 50  1  0  0  0  0
M  END
>  <MODEL>
3

>  <REMARK>
 VINA RESULT:      -6.6      4.540      9.840
  Name = 
  13 active torsions:
  status: ('A' for Active; 'I' for Inactive)
    1  A    between atoms: C_1  and  C_29
    2  A    between atoms: C_4  and  N_51
    3  A    between atoms: C_6  and  C_37
    4  A    between atoms: C_6  and  C_39
    5  A    between atoms: C_8  and  C_28
    6  A    between atoms: C_10  and  N_13
    7  A    between atoms: C_12  and  O_30
    8  A    between atoms: N_13  and  S_52
    9  A    between atoms: C_16  and  O_38
   10  A    between atoms: C_22  and  N_25
   11  A    between atoms: P_27  and  O_38
   12  A    between atoms: O_30  and  C_47
   13  A    between atoms: C_39  and  C_47
                            x       y       z     vdW  Elec       q    Type
                         _______ _______ _______ _____ _____    ______ ____

>  <TORSDO>
F 13

$$$$
=
 OpenBabel11062421393D

 52 57  0  0  1  0  0  0  0  0999 V2000
  195.5790  173.7600  140.9840 C   0  0  1  0  0  3  0  0  0  0  0  0
  191.8690  172.6410  144.5750 C   0  0  0  0  0  2  0  0  0  0  0  0
  193.4950  174.9110  140.4100 N   0  0  0  0  0  0  0  0  0  0  0  0
  194.6500  175.7010  142.2370 C   0  0  0  0  0  3  0  0  0  0  0  0
  192.6530  175.2260  141.3040 N   0  0  0  0  0  0  0  0  0  0  0  0
  192.6990  176.0800  143.7050 C   0  0  0  0  0  0  0  0  0  0  0  0
  193.3460  175.7110  142.4390 C   0  0  0  0  0  0  0  0  0  0  0  0
  190.5420  173.2720  144.1480 C   0  0  1  0  0  3  0  0  0  0  0  0
  192.8460  171.7860  141.5330 C   0  0  0  0  0  2  0  0  0  0  0  0
  191.9170  171.1530  144.2770 C   0  0  0  0  0  2  0  0  0  0  0  0
  194.4290  169.9100  141.8230 C   0  0  0  0  0  2  0  0  0  0  0  0
  190.5420  174.7610  144.3900 C   0  0  0  0  0  0  0  0  0  0  0  0
  194.8250  171.6380  140.0130 C   0  0  2  0  0  3  0  0  0  0  0  0
  193.1580  170.5320  142.2430 N   0  0  1  0  0  0  0  0  0  0  0  0
  194.8630  175.1180  140.8720 C   0  0  1  0  0  3  0  0  0  0  0  0
  193.3000  171.7420  140.0780 C   0  0  0  0  0  2  0  0  0  0  0  0
  193.2740  170.8250  143.6690 C   0  0  0  0  0  2  0  0  0  0  0  0
  195.4310  170.9070  141.2270 C   0  0  0  0  0  2  0  0  0  0  0  0
  191.5990  175.4600  144.0460 C   0  0  0  0  0  0  0  0  0  0  0  0
  195.4250  172.9640  139.7360 N   0  0  2  0  0  0  0  0  0  0  0  0
  187.3690  176.7510  144.6930 C   0  0  2  0  0  3  0  0  0  0  0  0
  187.6000  176.3240  146.1400 C   0  0  0  0  0  3  0  0  0  0  0  0
  189.3300  175.4190  144.7920 N   0  0  0  0  0  0  0  0  0  0  0  0
  188.5080  176.1770  143.8710 C   0  0  0  0  0  2  0  0  0  0  0  0
  188.8350  175.4400  146.1550 C   0  0  0  0  0  3  0  0  0  0  0  0
  187.3890  178.1460  144.6100 O   0  0  0  0  0  0  0  0  0  0  0  0
  184.9400  177.5820  143.8220 O   0  0  0  0  0  1  0  0  0  0  0  0
  186.0670  178.5730  143.6330 P   0  0  0  0  0  0  0  0  0  0  0  0
  186.5510  178.5550  142.0130 O   0  0  0  0  0  0  0  0  0  0  0  0
  185.5300  180.1250  144.0350 O   0  0  0  0  0  1  0  0  0  0  0  0
  196.9980  173.8310  142.9480 F   0  0  0  0  0  0  0  0  0  0  0  0
  197.5930  175.0420  141.1660 F   0  0  0  0  0  0  0  0  0  0  0  0
  197.0150  173.8520  141.5650 C   0  0  0  0  0  0  0  0  0  0  0  0
  197.7980  172.8070  141.1080 F   0  0  0  0  0  0  0  0  0  0  0  0
  196.6140  172.9440  138.8460 C   0  0  2  0  0  0  0  0  0  0  0  0
  196.5940  174.2370  138.0810 C   0  0  0  0  0  2  0  0  0  0  0  0
  196.2330  172.9940  137.3130 C   0  0  2  0  0  0  0  0  0  0  0  0
  196.6000  171.7020  137.9910 C   0  0  0  0  0  2  0  0  0  0  0  0
  197.2390  173.0370  136.1940 C   0  0  0  0  0  0  0  0  0  0  0  0
  197.3980  171.9140  135.3930 O   0  0  0  0  0  0  0  0  0  0  0  0
  197.9410  174.0620  135.9640 O   0  0  0  0  0  1  0  0  0  0  0  0
  193.4190  176.8810  144.6520 N   0  0  0  0  0  2  0  0  0  0  0  0
  194.5620  177.4420  146.9770 O   0  0  0  0  0  0  0  0  0  0  0  0
  195.3030  175.1710  145.8650 N   0  0  0  0  0  1  0  0  0  0  0  0
  192.9310  175.6030  146.9260 O   0  0  0  0  0  0  0  0  0  0  0  0
  194.0280  176.2960  146.1670 S   0  0  0  0  0  0  0  0  0  0  0  0
  190.2950  173.0230  142.7940 O   0  0  0  0  0  0  0  0  0  0  0  0
  188.9660  172.6000  142.7400 C   0  0  0  0  0  2  0  0  0  0  0  0
  188.3250  173.1070  141.4590 C   0  0  0  0  0  2  0  0  0  0  0  0
  189.3570  173.8080  140.5920 C   0  0  0  0  0  2  0  0  0  0  0  0
  190.5470  173.6820  138.5360 O   0  0  0  0  0  1  0  0  0  0  0  0
  189.5750  173.0390  139.3010 C   0  0  0  0  0  2  0  0  0  0  0  0
  1 33  1  6  0  0  0
  3 15  1  0  0  0  0
  3  5  2  0  0  0  0
  4  7  2  0  0  0  0
  5  7  1  0  0  0  0
  6 19  2  0  0  0  0
  6 42  1  0  0  0  0
  7  6  1  0  0  0  0
  8 47  1  6  0  0  0
  8 12  1  0  0  0  0
  8  2  1  0  0  0  0
 10  2  1  0  0  0  0
 11 14  1  0  0  0  0
 12 23  1  0  0  0  0
 13 16  1  1  0  0  0
 13 18  1  0  0  0  0
 14  9  1  6  0  0  0
 14 17  1  0  0  0  0
 15  1  1  0  0  0  0
 15  4  1  1  0  0  0
 16  9  1  0  0  0  0
 17 10  1  0  0  0  0
 18 11  1  0  0  0  0
 19 12  2  0  0  0  0
 20 35  1  1  0  0  0
 20 13  1  0  0  0  0
 20  1  1  0  0  0  0
 21 26  1  1  0  0  0
 21 22  1  0  0  0  0
 22 25  2  0  0  0  0
 23 25  1  0  0  0  0
 24 21  1  0  0  0  0
 24 23  1  0  0  0  0
 28 27  1  0  0  0  0
 28 30  1  0  0  0  0
 28 26  1  0  0  0  0
 29 28  2  0  0  0  0
 32 33  1  0  0  0  0
 33 31  1  0  0  0  0
 34 33  1  0  0  0  0
 35 38  1  1  0  0  0
 36 35  1  0  0  0  0
 37 39  1  1  0  0  0
 37 38  1  0  0  0  0
 37 36  1  0  0  0  0
 37 35  1  0  0  0  0
 40 39  2  0  0  0  0
 41 39  1  0  0  0  0
 42 46  1  0  0  0  0
 44 46  1  0  0  0  0
 46 45  2  0  0  0  0
 46 43  2  0  0  0  0
 48 47  1  0  0  0  0
 49 48  1  0  0  0  0
 50 49  1  0  0  0  0
 51 52  1  0  0  0  0
 52 50  1  0  0  0  0
M  END
>  <MODEL>
4

>  <REMARK>
 VINA RESULT:      -6.5      4.044      5.910
  Name = 
  13 active torsions:
  status: ('A' for Active; 'I' for Inactive)
    1  A    between atoms: C_1  and  C_29
    2  A    between atoms: C_4  and  N_51
    3  A    between atoms: C_6  and  C_37
    4  A    between atoms: C_6  and  C_39
    5  A    between atoms: C_8  and  C_28
    6  A    between atoms: C_10  and  N_13
    7  A    between atoms: C_12  and  O_30
    8  A    between atoms: N_13  and  S_52
    9  A    between atoms: C_16  and  O_38
   10  A    between atoms: C_22  and  N_25
   11  A    between atoms: P_27  and  O_38
   12  A    between atoms: O_30  and  C_47
   13  A    between atoms: C_39  and  C_47
                            x       y       z     vdW  Elec       q    Type
                         _______ _______ _______ _____ _____    ______ ____

>  <TORSDO>
F 13

$$$$
=
 OpenBabel11062421393D

 52 57  0  0  1  0  0  0  0  0999 V2000
  189.9050  176.2530  143.6430 C   0  0  1  0  0  3  0  0  0  0  0  0
  192.2090  172.5390  140.6740 C   0  0  0  0  0  2  0  0  0  0  0  0
  190.3070  174.2460  144.9890 N   0  0  0  0  0  0  0  0  0  0  0  0
  192.1520  175.4890  144.3970 C   0  0  0  0  0  3  0  0  0  0  0  0
  191.2480  173.4450  144.7060 N   0  0  0  0  0  0  0  0  0  0  0  0
  193.6450  173.5970  143.8510 C   0  0  0  0  0  0  0  0  0  0  0  0
  192.3930  174.1920  144.3350 C   0  0  0  0  0  0  0  0  0  0  0  0
  192.3520  171.2530  141.4910 C   0  0  1  0  0  3  0  0  0  0  0  0
  189.2530  173.3970  141.8880 C   0  0  0  0  0  2  0  0  0  0  0  0
  191.0400  172.4750  139.7070 C   0  0  0  0  0  2  0  0  0  0  0  0
  188.2060  174.8460  140.1820 C   0  0  0  0  0  2  0  0  0  0  0  0
  193.4750  171.3640  142.4920 C   0  0  0  0  0  0  0  0  0  0  0  0
  187.8640  175.3320  142.6450 C   0  0  2  0  0  3  0  0  0  0  0  0
  188.9980  173.6300  140.4540 N   0  0  1  0  0  0  0  0  0  0  0  0
  190.7140  175.6340  144.7970 C   0  0  1  0  0  3  0  0  0  0  0  0
  188.0700  173.8190  142.7520 C   0  0  0  0  0  2  0  0  0  0  0  0
  190.2820  173.7940  139.7770 C   0  0  0  0  0  2  0  0  0  0  0  0
  188.3110  175.9060  141.2870 C   0  0  0  0  0  2  0  0  0  0  0  0
  193.5850  172.4610  143.2040 C   0  0  0  0  0  0  0  0  0  0  0  0
  188.4470  176.0190  143.8200 N   0  0  2  0  0  0  0  0  0  0  0  0
  195.5630  168.6480  144.0370 C   0  0  2  0  0  3  0  0  0  0  0  0
  195.6380  168.2850  142.5570 C   0  0  0  0  0  3  0  0  0  0  0  0
  194.2730  170.2090  142.8020 N   0  0  0  0  0  0  0  0  0  0  0  0
  194.7070  169.8960  144.1480 C   0  0  0  0  0  2  0  0  0  0  0  0
  194.7670  169.2770  141.8070 C   0  0  0  0  0  3  0  0  0  0  0  0
  196.8480  168.9190  144.5160 O   0  0  0  0  0  0  0  0  0  0  0  0
  197.9280  168.4830  146.8790 O   0  0  0  0  0  1  0  0  0  0  0  0
  196.6980  169.0470  146.2030 P   0  0  0  0  0  0  0  0  0  0  0  0
  195.3430  168.1670  146.7030 O   0  0  0  0  0  1  0  0  0  0  0  0
  196.5010  170.6670  146.6440 O   0  0  0  0  0  0  0  0  0  0  0  0
  191.5330  177.7190  142.6050 F   0  0  0  0  0  0  0  0  0  0  0  0
  190.4900  178.4320  144.4480 F   0  0  0  0  0  0  0  0  0  0  0  0
  190.3290  177.7020  143.2860 C   0  0  0  0  0  0  0  0  0  0  0  0
  189.3650  178.3180  142.5080 F   0  0  0  0  0  0  0  0  0  0  0  0
  187.6730  177.1870  144.3140 C   0  0  2  0  0  0  0  0  0  0  0  0
  187.7410  177.1390  145.8140 C   0  0  0  0  0  2  0  0  0  0  0  0
  186.4240  176.7710  145.1880 C   0  0  2  0  0  0  0  0  0  0  0  0
  186.2780  177.1640  143.7430 C   0  0  0  0  0  2  0  0  0  0  0  0
  185.4950  177.7490  145.8550 C   0  0  0  0  0  0  0  0  0  0  0  0
  185.3950  179.0350  145.3420 O   0  0  0  0  0  0  0  0  0  0  0  0
  184.8070  177.4340  146.8680 O   0  0  0  0  0  1  0  0  0  0  0  0
  194.8400  174.3890  143.8430 N   0  0  0  0  0  2  0  0  0  0  0  0
  196.3110  174.2290  141.6430 O   0  0  0  0  0  0  0  0  0  0  0  0
  196.4600  176.5150  142.9460 N   0  0  0  0  0  1  0  0  0  0  0  0
  194.3470  175.7070  141.5930 O   0  0  0  0  0  0  0  0  0  0  0  0
  195.4750  175.1880  142.4410 S   0  0  0  0  0  0  0  0  0  0  0  0
  191.1600  170.9640  142.1630 O   0  0  0  0  0  0  0  0  0  0  0  0
  190.9250  169.6100  141.9180 C   0  0  0  0  0  2  0  0  0  0  0  0
  191.6180  169.2020  140.6290 C   0  0  0  0  0  2  0  0  0  0  0  0
  190.6060  168.6690  139.6290 C   0  0  0  0  0  2  0  0  0  0  0  0
  189.7020  169.5980  137.6340 O   0  0  0  0  0  1  0  0  0  0  0  0
  190.8950  169.2110  138.2410 C   0  0  0  0  0  2  0  0  0  0  0  0
  1 33  1  1  0  0  0
  1 20  1  0  0  0  0
  1 15  1  0  0  0  0
  2  8  1  0  0  0  0
  5  3  2  0  0  0  0
  6  7  1  0  0  0  0
  7  4  2  0  0  0  0
  7  5  1  0  0  0  0
  8 47  1  1  0  0  0
  8 12  1  0  0  0  0
  9 16  1  0  0  0  0
 10 17  1  0  0  0  0
 10  2  1  0  0  0  0
 11 14  1  0  0  0  0
 11 18  1  0  0  0  0
 12 23  1  0  0  0  0
 12 19  2  0  0  0  0
 13 18  1  6  0  0  0
 13 16  1  0  0  0  0
 13 20  1  0  0  0  0
 14 17  1  6  0  0  0
 14  9  1  0  0  0  0
 15  4  1  6  0  0  0
 15  3  1  0  0  0  0
 19  6  2  0  0  0  0
 20 35  1  6  0  0  0
 21 24  1  0  0  0  0
 21 26  1  6  0  0  0
 22 21  1  0  0  0  0
 23 24  1  0  0  0  0
 25 22  2  0  0  0  0
 25 23  1  0  0  0  0
 26 28  1  0  0  0  0
 28 30  2  0  0  0  0
 28 29  1  0  0  0  0
 28 27  1  0  0  0  0
 31 33  1  0  0  0  0
 33 32  1  0  0  0  0
 34 33  1  0  0  0  0
 35 38  1  6  0  0  0
 35 37  1  0  0  0  0
 35 36  1  0  0  0  0
 37 36  1  0  0  0  0
 37 39  1  1  0  0  0
 38 37  1  0  0  0  0
 39 41  1  0  0  0  0
 40 39  2  0  0  0  0
 42  6  1  0  0  0  0
 43 46  2  0  0  0  0
 45 46  2  0  0  0  0
 46 44  1  0  0  0  0
 46 42  1  0  0  0  0
 48 47  1  0  0  0  0
 49 48  1  0  0  0  0
 50 49  1  0  0  0  0
 51 52  1  0  0  0  0
 52 50  1  0  0  0  0
M  END
>  <MODEL>
5

>  <REMARK>
 VINA RESULT:      -6.4      4.561      9.794
  Name = 
  13 active torsions:
  status: ('A' for Active; 'I' for Inactive)
    1  A    between atoms: C_1  and  C_29
    2  A    between atoms: C_4  and  N_51
    3  A    between atoms: C_6  and  C_37
    4  A    between atoms: C_6  and  C_39
    5  A    between atoms: C_8  and  C_28
    6  A    between atoms: C_10  and  N_13
    7  A    between atoms: C_12  and  O_30
    8  A    between atoms: N_13  and  S_52
    9  A    between atoms: C_16  and  O_38
   10  A    between atoms: C_22  and  N_25
   11  A    between atoms: P_27  and  O_38
   12  A    between atoms: O_30  and  C_47
   13  A    between atoms: C_39  and  C_47
                            x       y       z     vdW  Elec       q    Type
                         _______ _______ _______ _____ _____    ______ ____

>  <TORSDO>
F 13

$$$$
=
 OpenBabel11062421393D

 52 57  0  0  1  0  0  0  0  0999 V2000
  194.4250  172.8030  139.9230 C   0  0  1  0  0  3  0  0  0  0  0  0
  190.1510  172.7100  143.0290 C   0  0  0  0  0  2  0  0  0  0  0  0
  193.6730  175.0910  140.3690 N   0  0  0  0  0  0  0  0  0  0  0  0
  194.6440  173.9560  142.1200 C   0  0  0  0  0  3  0  0  0  0  0  0
  193.0360  175.3770  141.4270 N   0  0  0  0  0  0  0  0  0  0  0  0
  193.0820  174.6990  143.8840 C   0  0  0  0  0  0  0  0  0  0  0  0
  193.6170  174.6840  142.5160 C   0  0  0  0  0  0  0  0  0  0  0  0
  189.6230  174.1350  143.2090 C   0  0  1  0  0  3  0  0  0  0  0  0
  191.0190  173.0560  139.8550 C   0  0  0  0  0  2  0  0  0  0  0  0
  189.3370  171.9210  142.0190 C   0  0  0  0  0  2  0  0  0  0  0  0
  191.0060  170.7810  138.8890 C   0  0  0  0  0  2  0  0  0  0  0  0
  190.4870  174.9210  144.1640 C   0  0  0  0  0  0  0  0  0  0  0  0
  192.7560  172.4610  138.1590 C   0  0  2  0  0  3  0  0  0  0  0  0
  190.3330  171.7530  139.7730 N   0  0  1  0  0  0  0  0  0  0  0  0
  194.7400  174.1320  140.6330 C   0  0  1  0  0  3  0  0  0  0  0  0
  191.6480  173.4520  138.5240 C   0  0  0  0  0  2  0  0  0  0  0  0
  190.2960  171.1650  141.1090 C   0  0  0  0  0  2  0  0  0  0  0  0
  192.5070  171.0460  138.7170 C   0  0  0  0  0  2  0  0  0  0  0  0
  191.7920  174.8490  144.0460 C   0  0  0  0  0  0  0  0  0  0  0  0
  194.0860  173.0230  138.4920 N   0  0  2  0  0  0  0  0  0  0  0  0
  188.2420  177.0510  146.2950 C   0  0  2  0  0  3  0  0  0  0  0  0
  189.5540  177.8270  146.3660 C   0  0  0  0  0  3  0  0  0  0  0  0
  189.8850  175.8870  145.0410 N   0  0  0  0  0  0  0  0  0  0  0  0
  188.4870  175.8370  145.4180 C   0  0  0  0  0  2  0  0  0  0  0  0
  190.5880  177.0300  145.5910 C   0  0  0  0  0  3  0  0  0  0  0  0
  187.2560  177.8550  145.7140 O   0  0  0  0  0  0  0  0  0  0  0  0
  186.1240  176.7870  147.8390 O   0  0  0  0  0  1  0  0  0  0  0  0
  185.9790  177.9060  146.8320 P   0  0  0  0  0  0  0  0  0  0  0  0
  184.5160  177.7180  146.0060 O   0  0  0  0  0  0  0  0  0  0  0  0
  185.9750  179.3940  147.6360 O   0  0  0  0  0  1  0  0  0  0  0  0
  195.5010  170.7610  139.1830 F   0  0  0  0  0  0  0  0  0  0  0  0
  195.0620  170.9970  141.3610 F   0  0  0  0  0  0  0  0  0  0  0  0
  195.4470  171.6740  140.2200 C   0  0  0  0  0  0  0  0  0  0  0  0
  196.7120  172.1980  140.4240 F   0  0  0  0  0  0  0  0  0  0  0  0
  195.1670  172.6970  137.5270 C   0  0  2  0  0  0  0  0  0  0  0  0
  196.1160  173.8610  137.5410 C   0  0  0  0  0  2  0  0  0  0  0  0
  195.2440  173.7180  136.3240 C   0  0  2  0  0  0  0  0  0  0  0  0
  194.5770  172.3770  136.1770 C   0  0  0  0  0  2  0  0  0  0  0  0
  196.2750  173.6570  135.2280 C   0  0  0  0  0  0  0  0  0  0  0  0
  196.8420  172.4310  134.9090 O   0  0  0  0  0  1  0  0  0  0  0  0
  196.6390  174.6890  134.5940 O   0  0  0  0  0  0  0  0  0  0  0  0
  193.9170  174.2730  144.9680 N   0  0  0  0  0  2  0  0  0  0  0  0
  195.7940  176.1060  144.5890 O   0  0  0  0  0  0  0  0  0  0  0  0
  196.4230  174.1650  146.2560 N   0  0  0  0  0  1  0  0  0  0  0  0
  194.6710  176.0630  146.7760 O   0  0  0  0  0  0  0  0  0  0  0  0
  195.2000  175.2220  145.6480 S   0  0  0  0  0  0  0  0  0  0  0  0
  189.5730  174.7980  141.9780 O   0  0  0  0  0  0  0  0  0  0  0  0
  188.2150  175.0210  141.7420 C   0  0  0  0  0  2  0  0  0  0  0  0
  187.9220  176.5080  141.8440 C   0  0  0  0  0  2  0  0  0  0  0  0
  186.5040  176.7350  142.3400 C   0  0  0  0  0  2  0  0  0  0  0  0
  186.4940  177.9020  140.2670 O   0  0  0  0  0  1  0  0  0  0  0  0
  185.7890  177.7430  141.4590 C   0  0  0  0  0  2  0  0  0  0  0  0
  1 33  1  6  0  0  0
  1 15  1  0  0  0  0
  2  8  1  0  0  0  0
  3 15  1  0  0  0  0
  3  5  2  0  0  0  0
  4  7  2  0  0  0  0
  5  7  1  0  0  0  0
  6 19  2  0  0  0  0
  6 42  1  0  0  0  0
  7  6  1  0  0  0  0
  8 47  1  6  0  0  0
  8 12  1  0  0  0  0
 10  2  1  0  0  0  0
 12 23  1  0  0  0  0
 13 20  1  0  0  0  0
 13 16  1  1  0  0  0
 13 18  1  0  0  0  0
 14 11  1  6  0  0  0
 14  9  1  0  0  0  0
 14 17  1  0  0  0  0
 15  4  1  1  0  0  0
 16  9  1  0  0  0  0
 17 10  1  0  0  0  0
 18 11  1  0  0  0  0
 19 12  2  0  0  0  0
 20 35  1  6  0  0  0
 20  1  1  0  0  0  0
 21 26  1  6  0  0  0
 21 22  1  0  0  0  0
 23 24  1  0  0  0  0
 23 25  1  0  0  0  0
 24 21  1  0  0  0  0
 25 22  2  0  0  0  0
 26 28  1  0  0  0  0
 28 30  1  0  0  0  0
 28 27  1  0  0  0  0
 29 28  2  0  0  0  0
 31 33  1  0  0  0  0
 33 34  1  0  0  0  0
 33 32  1  0  0  0  0
 35 38  1  6  0  0  0
 35 36  1  0  0  0  0
 37 39  1  6  0  0  0
 37 35  1  0  0  0  0
 37 36  1  0  0  0  0
 38 37  1  0  0  0  0
 40 39  1  0  0  0  0
 41 39  2  0  0  0  0
 42 46  1  0  0  0  0
 43 46  2  0  0  0  0
 46 44  1  0  0  0  0
 46 45  2  0  0  0  0
 48 49  1  0  0  0  0
 48 47  1  0  0  0  0
 49 50  1  0  0  0  0
 51 52  1  0  0  0  0
 52 50  1  0  0  0  0
M  END
>  <MODEL>
6

>  <REMARK>
 VINA RESULT:      -6.2      4.039      6.676
  Name = 
  13 active torsions:
  status: ('A' for Active; 'I' for Inactive)
    1  A    between atoms: C_1  and  C_29
    2  A    between atoms: C_4  and  N_51
    3  A    between atoms: C_6  and  C_37
    4  A    between atoms: C_6  and  C_39
    5  A    between atoms: C_8  and  C_28
    6  A    between atoms: C_10  and  N_13
    7  A    between atoms: C_12  and  O_30
    8  A    between atoms: N_13  and  S_52
    9  A    between atoms: C_16  and  O_38
   10  A    between atoms: C_22  and  N_25
   11  A    between atoms: P_27  and  O_38
   12  A    between atoms: O_30  and  C_47
   13  A    between atoms: C_39  and  C_47
                            x       y       z     vdW  Elec       q    Type
                         _______ _______ _______ _____ _____    ______ ____

>  <TORSDO>
F 13

$$$$
=
 OpenBabel11062421393D

 52 57  0  0  1  0  0  0  0  0999 V2000
  192.2680  172.8860  138.5210 C   0  0  1  0  0  3  0  0  0  0  0  0
  192.1740  176.3100  142.5430 C   0  0  0  0  0  2  0  0  0  0  0  0
  191.2090  171.8470  140.4700 N   0  0  0  0  0  0  0  0  0  0  0  0
  190.0140  173.4900  139.3900 C   0  0  0  0  0  3  0  0  0  0  0  0
  190.6210  172.5480  141.3470 N   0  0  0  0  0  0  0  0  0  0  0  0
  189.1490  174.6280  141.4060 C   0  0  0  0  0  0  0  0  0  0  0  0
  189.8810  173.5680  140.7010 C   0  0  0  0  0  0  0  0  0  0  0  0
  191.6160  175.6170  143.7880 C   0  0  1  0  0  3  0  0  0  0  0  0
  193.8740  173.7030  141.4220 C   0  0  0  0  0  2  0  0  0  0  0  0
  193.6870  176.4260  142.5840 C   0  0  0  0  0  2  0  0  0  0  0  0
  195.6790  174.6200  140.0050 C   0  0  0  0  0  2  0  0  0  0  0  0
  190.1190  175.4510  143.6960 C   0  0  0  0  0  0  0  0  0  0  0  0
  194.5310  172.4560  139.3580 C   0  0  2  0  0  3  0  0  0  0  0  0
  194.9020  174.7470  141.2540 N   0  0  1  0  0  0  0  0  0  0  0  0
  190.9560  172.3540  139.1260 C   0  0  1  0  0  3  0  0  0  0  0  0
  194.3350  172.3580  140.8730 C   0  0  0  0  0  2  0  0  0  0  0  0
  194.2380  176.0480  141.2160 C   0  0  0  0  0  2  0  0  0  0  0  0
  194.9350  173.8690  138.8930 C   0  0  0  0  0  2  0  0  0  0  0  0
  189.5950  175.0260  142.5700 C   0  0  0  0  0  0  0  0  0  0  0  0
  193.3640  171.8890  138.6460 N   0  0  2  0  0  0  0  0  0  0  0  0
  187.6040  176.2560  146.3690 C   0  0  2  0  0  3  0  0  0  0  0  0
  188.5860  175.3730  147.1320 C   0  0  0  0  0  3  0  0  0  0  0  0
  189.3140  175.5560  144.8820 N   0  0  0  0  0  0  0  0  0  0  0  0
  188.1180  176.3710  144.9460 C   0  0  0  0  0  2  0  0  0  0  0  0
  189.6390  174.9110  146.1390 C   0  0  0  0  0  3  0  0  0  0  0  0
  187.5650  177.5240  146.9550 O   0  0  0  0  0  0  0  0  0  0  0  0
  185.5270  178.9250  147.8640 O   0  0  0  0  0  1  0  0  0  0  0  0
  185.9990  178.1190  146.6740 P   0  0  0  0  0  0  0  0  0  0  0  0
  184.9490  176.8140  146.4400 O   0  0  0  0  0  1  0  0  0  0  0  0
  185.9910  179.0920  145.2910 O   0  0  0  0  0  0  0  0  0  0  0  0
  191.7530  174.8790  137.2400 F   0  0  0  0  0  0  0  0  0  0  0  0
  191.0790  172.9040  136.4420 F   0  0  0  0  0  0  0  0  0  0  0  0
  192.0940  173.5440  137.1260 C   0  0  0  0  0  0  0  0  0  0  0  0
  193.2580  173.4390  136.3850 F   0  0  0  0  0  0  0  0  0  0  0  0
  193.6860  171.1430  137.4020 C   0  0  2  0  0  0  0  0  0  0  0  0
  192.7520  169.9660  137.3570 C   0  0  0  0  0  2  0  0  0  0  0  0
  194.1910  169.6720  137.6830 C   0  0  2  0  0  0  0  0  0  0  0  0
  195.1510  170.7880  137.3760 C   0  0  0  0  0  2  0  0  0  0  0  0
  194.5400  168.6780  136.6070 C   0  0  0  0  0  0  0  0  0  0  0  0
  195.8290  168.1660  136.5600 O   0  0  0  0  0  1  0  0  0  0  0  0
  193.6940  168.2990  135.7460 O   0  0  0  0  0  0  0  0  0  0  0  0
  188.1590  175.3860  140.6970 N   0  0  0  0  0  2  0  0  0  0  0  0
  186.4690  176.3070  142.5210 O   0  0  0  0  0  0  0  0  0  0  0  0
  186.2860  177.4180  140.1380 N   0  0  0  0  0  1  0  0  0  0  0  0
  188.2920  177.7940  141.8050 O   0  0  0  0  0  0  0  0  0  0  0  0
  187.3100  176.7470  141.3570 S   0  0  0  0  0  0  0  0  0  0  0  0
  192.2100  174.3620  143.9580 O   0  0  0  0  0  0  0  0  0  0  0  0
  192.4380  174.2510  145.3300 C   0  0  0  0  0  2  0  0  0  0  0  0
  193.8720  174.6450  145.6380 C   0  0  0  0  0  2  0  0  0  0  0  0
  194.8410  173.7200  144.9210 C   0  0  0  0  0  2  0  0  0  0  0  0
  196.7910  173.9610  146.2620 O   0  0  0  0  0  1  0  0  0  0  0  0
  196.2560  174.2610  145.0110 C   0  0  0  0  0  2  0  0  0  0  0  0
  1 33  1  6  0  0  0
  1 20  1  0  0  0  0
  1 15  1  0  0  0  0
  2 10  1  0  0  0  0
  2  8  1  0  0  0  0
  3  5  2  0  0  0  0
  4  7  2  0  0  0  0
  6 19  2  0  0  0  0
  7  5  1  0  0  0  0
  7  6  1  0  0  0  0
  8 47  1  6  0  0  0
 12  8  1  0  0  0  0
 12 23  1  0  0  0  0
 13 18  1  1  0  0  0
 13 16  1  0  0  0  0
 14 11  1  6  0  0  0
 14  9  1  0  0  0  0
 15  4  1  1  0  0  0
 15  3  1  0  0  0  0
 16  9  1  0  0  0  0
 17 14  1  0  0  0  0
 17 10  1  0  0  0  0
 18 11  1  0  0  0  0
 19 12  2  0  0  0  0
 20 35  1  6  0  0  0
 20 13  1  0  0  0  0
 21 26  1  1  0  0  0
 21 22  1  0  0  0  0
 23 24  1  0  0  0  0
 23 25  1  0  0  0  0
 24 21  1  0  0  0  0
 25 22  2  0  0  0  0
 28 26  1  0  0  0  0
 28 27  1  0  0  0  0
 29 28  1  0  0  0  0
 30 28  2  0  0  0  0
 32 33  1  0  0  0  0
 33 31  1  0  0  0  0
 34 33  1  0  0  0  0
 35 36  1  6  0  0  0
 35 37  1  0  0  0  0
 36 37  1  0  0  0  0
 37 39  1  6  0  0  0
 38 35  1  0  0  0  0
 38 37  1  0  0  0  0
 40 39  1  0  0  0  0
 41 39  2  0  0  0  0
 42 46  1  0  0  0  0
 42  6  1  0  0  0  0
 44 46  1  0  0  0  0
 46 45  2  0  0  0  0
 46 43  2  0  0  0  0
 47 48  1  0  0  0  0
 48 49  1  0  0  0  0
 50 52  1  0  0  0  0
 50 49  1  0  0  0  0
 52 51  1  0  0  0  0
M  END
>  <MODEL>
7

>  <REMARK>
 VINA RESULT:      -5.9      4.193      7.338
  Name = 
  13 active torsions:
  status: ('A' for Active; 'I' for Inactive)
    1  A    between atoms: C_1  and  C_29
    2  A    between atoms: C_4  and  N_51
    3  A    between atoms: C_6  and  C_37
    4  A    between atoms: C_6  and  C_39
    5  A    between atoms: C_8  and  C_28
    6  A    between atoms: C_10  and  N_13
    7  A    between atoms: C_12  and  O_30
    8  A    between atoms: N_13  and  S_52
    9  A    between atoms: C_16  and  O_38
   10  A    between atoms: C_22  and  N_25
   11  A    between atoms: P_27  and  O_38
   12  A    between atoms: O_30  and  C_47
   13  A    between atoms: C_39  and  C_47
                            x       y       z     vdW  Elec       q    Type
                         _______ _______ _______ _____ _____    ______ ____

>  <TORSDO>
F 13

$$$$
=
 OpenBabel11062421393D

 52 57  0  0  1  0  0  0  0  0999 V2000
  192.4480  173.1270  142.8880 C   0  0  1  0  0  3  0  0  0  0  0  0
  190.1810  177.8880  143.2210 C   0  0  0  0  0  2  0  0  0  0  0  0
  190.1600  172.9000  143.7340 N   0  0  0  0  0  0  0  0  0  0  0  0
  190.3980  173.4600  141.5140 C   0  0  0  0  0  3  0  0  0  0  0  0
  189.2670  173.7510  143.4440 N   0  0  0  0  0  0  0  0  0  0  0  0
  188.5940  175.1460  141.4200 C   0  0  0  0  0  0  0  0  0  0  0  0
  189.3990  174.1120  142.0820 C   0  0  0  0  0  0  0  0  0  0  0  0
  188.7960  177.7480  143.8550 C   0  0  1  0  0  3  0  0  0  0  0  0
  191.6620  175.6060  145.1030 C   0  0  0  0  0  2  0  0  0  0  0  0
  191.2140  178.3980  144.2090 C   0  0  0  0  0  2  0  0  0  0  0  0
  194.0660  176.1760  145.1080 C   0  0  0  0  0  2  0  0  0  0  0  0
  187.8010  177.1750  142.8750 C   0  0  0  0  0  0  0  0  0  0  0  0
  193.3360  173.7500  145.0870 C   0  0  2  0  0  3  0  0  0  0  0  0
  192.6770  176.6720  145.1800 N   0  0  1  0  0  0  0  0  0  0  0  0
  191.0240  172.6240  142.5910 C   0  0  1  0  0  3  0  0  0  0  0  0
  192.1190  174.3330  145.8080 C   0  0  0  0  0  2  0  0  0  0  0  0
  192.4850  177.5760  144.0490 C   0  0  0  0  0  2  0  0  0  0  0  0
  194.1980  174.8240  144.3950 C   0  0  0  0  0  2  0  0  0  0  0  0
  188.1550  176.1480  142.1380 C   0  0  0  0  0  0  0  0  0  0  0  0
  192.9310  172.6310  144.2050 N   0  0  2  0  0  0  0  0  0  0  0  0
  184.1690  177.9270  142.2710 C   0  0  2  0  0  3  0  0  0  0  0  0
  184.4640  178.8060  143.4820 C   0  0  0  0  0  3  0  0  0  0  0  0
  186.4340  177.6150  142.9060 N   0  0  0  0  0  0  0  0  0  0  0  0
  185.4570  177.2050  141.9180 C   0  0  0  0  0  2  0  0  0  0  0  0
  185.9060  178.5470  143.8840 C   0  0  0  0  0  3  0  0  0  0  0  0
  183.7750  178.7300  141.1960 O   0  0  0  0  0  0  0  0  0  0  0  0
  181.5580  177.6080  142.0720 O   0  0  0  0  0  1  0  0  0  0  0  0
  182.1570  178.3220  140.8800 P   0  0  0  0  0  0  0  0  0  0  0  0
  182.1010  177.2950  139.5380 O   0  0  0  0  0  0  0  0  0  0  0  0
  181.2640  179.7190  140.5480 O   0  0  0  0  0  1  0  0  0  0  0  0
  193.1460  171.8430  140.9540 F   0  0  0  0  0  0  0  0  0  0  0  0
  194.7180  172.8540  142.1780 F   0  0  0  0  0  0  0  0  0  0  0  0
  193.4290  172.9750  141.6960 C   0  0  0  0  0  0  0  0  0  0  0  0
  193.3710  174.0820  140.8680 F   0  0  0  0  0  0  0  0  0  0  0  0
  193.8900  171.4990  144.1430 C   0  0  2  0  0  0  0  0  0  0  0  0
  193.0660  170.2440  144.1040 C   0  0  0  0  0  2  0  0  0  0  0  0
  193.7860  170.5370  145.3920 C   0  0  2  0  0  0  0  0  0  0  0  0
  194.8650  171.5820  145.2900 C   0  0  0  0  0  2  0  0  0  0  0  0
  194.6030  169.2850  145.5650 C   0  0  0  0  0  0  0  0  0  0  0  0
  194.1350  168.2910  146.4140 O   0  0  0  0  0  1  0  0  0  0  0  0
  195.7020  169.1140  144.9620 O   0  0  0  0  0  0  0  0  0  0  0  0
  188.5500  175.1910  139.9880 N   0  0  0  0  0  2  0  0  0  0  0  0
  187.7880  172.6760  139.6370 O   0  0  0  0  0  0  0  0  0  0  0  0
  190.1650  173.2880  138.6760 N   0  0  0  0  0  1  0  0  0  0  0  0
  187.8850  174.1220  137.6510 O   0  0  0  0  0  0  0  0  0  0  0  0
  188.5370  173.7900  138.9640 S   0  0  0  0  0  0  0  0  0  0  0  0
  188.8560  176.9260  144.9860 O   0  0  0  0  0  0  0  0  0  0  0  0
  188.3490  177.7060  146.0270 C   0  0  0  0  0  2  0  0  0  0  0  0
  187.2980  176.9150  146.7870 C   0  0  0  0  0  2  0  0  0  0  0  0
  186.6450  177.7840  147.8480 C   0  0  0  0  0  2  0  0  0  0  0  0
  184.4390  178.0470  146.9980 O   0  0  0  0  0  1  0  0  0  0  0  0
  185.6370  178.7250  147.2160 C   0  0  0  0  0  2  0  0  0  0  0  0
  1 33  1  6  0  0  0
  1 20  1  0  0  0  0
  2  8  1  0  0  0  0
  2 10  1  0  0  0  0
  4  7  2  0  0  0  0
  5  3  2  0  0  0  0
  6  7  1  0  0  0  0
  6 19  2  0  0  0  0
  7  5  1  0  0  0  0
  8 47  1  1  0  0  0
  9 14  1  0  0  0  0
  9 16  1  0  0  0  0
 11 14  1  0  0  0  0
 12 23  1  0  0  0  0
 12  8  1  0  0  0  0
 13 18  1  6  0  0  0
 13 16  1  0  0  0  0
 14 17  1  6  0  0  0
 15  4  1  6  0  0  0
 15  1  1  0  0  0  0
 15  3  1  0  0  0  0
 17 10  1  0  0  0  0
 18 11  1  0  0  0  0
 19 12  2  0  0  0  0
 20 35  1  6  0  0  0
 20 13  1  0  0  0  0
 21 26  1  6  0  0  0
 21 22  1  0  0  0  0
 22 25  2  0  0  0  0
 23 25  1  0  0  0  0
 24 21  1  0  0  0  0
 24 23  1  0  0  0  0
 28 26  1  0  0  0  0
 28 27  1  0  0  0  0
 29 28  2  0  0  0  0
 30 28  1  0  0  0  0
 31 33  1  0  0  0  0
 33 32  1  0  0  0  0
 34 33  1  0  0  0  0
 35 36  1  6  0  0  0
 35 38  1  0  0  0  0
 35 37  1  0  0  0  0
 36 37  1  0  0  0  0
 37 39  1  6  0  0  0
 38 37  1  0  0  0  0
 39 40  1  0  0  0  0
 41 39  2  0  0  0  0
 42  6  1  0  0  0  0
 44 46  1  0  0  0  0
 45 46  2  0  0  0  0
 46 43  2  0  0  0  0
 46 42  1  0  0  0  0
 47 48  1  0  0  0  0
 48 49  1  0  0  0  0
 49 50  1  0  0  0  0
 51 52  1  0  0  0  0
 52 50  1  0  0  0  0
M  END
>  <MODEL>
8

>  <REMARK>
 VINA RESULT:      -5.8      3.011      5.926
  Name = 
  13 active torsions:
  status: ('A' for Active; 'I' for Inactive)
    1  A    between atoms: C_1  and  C_29
    2  A    between atoms: C_4  and  N_51
    3  A    between atoms: C_6  and  C_37
    4  A    between atoms: C_6  and  C_39
    5  A    between atoms: C_8  and  C_28
    6  A    between atoms: C_10  and  N_13
    7  A    between atoms: C_12  and  O_30
    8  A    between atoms: N_13  and  S_52
    9  A    between atoms: C_16  and  O_38
   10  A    between atoms: C_22  and  N_25
   11  A    between atoms: P_27  and  O_38
   12  A    between atoms: O_30  and  C_47
   13  A    between atoms: C_39  and  C_47
                            x       y       z     vdW  Elec       q    Type
                         _______ _______ _______ _____ _____    ______ ____

>  <TORSDO>
F 13

$$$$
=
 OpenBabel11062421393D

 52 57  0  0  1  0  0  0  0  0999 V2000
  195.5100  172.8500  141.3690 C   0  0  1  0  0  3  0  0  0  0  0  0
  191.2670  172.9840  144.5130 C   0  0  0  0  0  2  0  0  0  0  0  0
  193.8130  174.3330  140.4090 N   0  0  0  0  0  0  0  0  0  0  0  0
  194.9040  175.0820  142.2920 C   0  0  0  0  0  3  0  0  0  0  0  0
  192.9680  174.9240  141.1460 N   0  0  0  0  0  0  0  0  0  0  0  0
  192.9350  176.0400  143.4370 C   0  0  0  0  0  0  0  0  0  0  0  0
  193.6200  175.3900  142.3120 C   0  0  0  0  0  0  0  0  0  0  0  0
  190.1700  173.8210  143.8510 C   0  0  1  0  0  3  0  0  0  0  0  0
  192.3620  171.5750  141.7280 C   0  0  0  0  0  2  0  0  0  0  0  0
  191.0140  171.4940  144.3690 C   0  0  0  0  0  2  0  0  0  0  0  0
  193.4440  169.4600  142.4100 C   0  0  0  0  0  2  0  0  0  0  0  0
  190.4760  175.2960  143.9460 C   0  0  0  0  0  0  0  0  0  0  0  0
  194.4150  170.8300  140.5130 C   0  0  2  0  0  3  0  0  0  0  0  0
  192.3040  170.3810  142.5920 N   0  0  1  0  0  0  0  0  0  0  0  0
  195.1330  174.3030  141.0300 C   0  0  1  0  0  3  0  0  0  0  0  0
  192.9540  171.2580  140.3590 C   0  0  0  0  0  2  0  0  0  0  0  0
  192.3230  170.8170  143.9850 C   0  0  0  0  0  2  0  0  0  0  0  0
  194.7030  170.1440  141.8620 C   0  0  0  0  0  2  0  0  0  0  0  0
  191.6930  175.7110  143.6840 C   0  0  0  0  0  0  0  0  0  0  0  0
  195.3230  171.9560  140.1950 N   0  0  2  0  0  0  0  0  0  0  0  0
  187.7140  177.5420  145.1510 C   0  0  2  0  0  3  0  0  0  0  0  0
  187.6140  177.7210  143.6400 C   0  0  0  0  0  3  0  0  0  0  0  0
  189.4030  176.2380  144.1150 N   0  0  0  0  0  0  0  0  0  0  0  0
  188.8490  176.5680  145.4120 C   0  0  0  0  0  2  0  0  0  0  0  0
  188.7350  176.9080  143.0160 C   0  0  0  0  0  3  0  0  0  0  0  0
  186.5180  177.0060  145.6380 O   0  0  0  0  0  0  0  0  0  0  0  0
  185.9370  179.5750  145.7020 O   0  0  0  0  0  0  0  0  0  0  0  0
  185.7370  178.2760  146.4510 P   0  0  0  0  0  0  0  0  0  0  0  0
  186.3970  178.4270  148.0000 O   0  0  0  0  0  1  0  0  0  0  0  0
  184.0830  177.9470  146.5820 O   0  0  0  0  0  1  0  0  0  0  0  0
  197.8470  173.4740  141.5360 F   0  0  0  0  0  0  0  0  0  0  0  0
  197.2640  171.3910  142.0990 F   0  0  0  0  0  0  0  0  0  0  0  0
  196.8560  172.7110  142.1280 C   0  0  0  0  0  0  0  0  0  0  0  0
  196.7180  173.1010  143.4480 F   0  0  0  0  0  0  0  0  0  0  0  0
  196.5690  171.5780  139.4800 C   0  0  2  0  0  0  0  0  0  0  0  0
  196.7840  172.6200  138.4190 C   0  0  0  0  0  2  0  0  0  0  0  0
  196.3280  171.2650  137.9500 C   0  0  2  0  0  0  0  0  0  0  0  0
  196.4640  170.1650  138.9680 C   0  0  0  0  0  2  0  0  0  0  0  0
  197.4210  170.9060  136.9790 C   0  0  0  0  0  0  0  0  0  0  0  0
  197.8690  169.5930  136.9300 O   0  0  0  0  0  1  0  0  0  0  0  0
  197.9410  171.7640  136.2100 O   0  0  0  0  0  0  0  0  0  0  0  0
  193.7050  176.7830  144.3920 N   0  0  0  0  0  2  0  0  0  0  0  0
  194.4990  177.3500  146.8570 O   0  0  0  0  0  0  0  0  0  0  0  0
  195.5210  175.1590  145.8100 N   0  0  0  0  0  1  0  0  0  0  0  0
  193.0080  175.4180  146.5590 O   0  0  0  0  0  0  0  0  0  0  0  0
  194.1480  176.1960  145.9630 S   0  0  0  0  0  0  0  0  0  0  0  0
  190.0270  173.4650  142.5060 O   0  0  0  0  0  0  0  0  0  0  0  0
  188.7970  172.8080  142.4340 C   0  0  0  0  0  2  0  0  0  0  0  0
  188.0060  173.3430  141.2530 C   0  0  0  0  0  2  0  0  0  0  0  0
  188.5200  172.7420  139.9560 C   0  0  0  0  0  2  0  0  0  0  0  0
  187.8620  173.6610  137.8620 O   0  0  0  0  0  1  0  0  0  0  0  0
  188.7510  173.8300  138.9220 C   0  0  0  0  0  2  0  0  0  0  0  0
  1 33  1  6  0  0  0
  3 15  1  0  0  0  0
  3  5  2  0  0  0  0
  4  7  2  0  0  0  0
  5  7  1  0  0  0  0
  6 19  2  0  0  0  0
  6 42  1  0  0  0  0
  7  6  1  0  0  0  0
  8 47  1  6  0  0  0
  8 12  1  0  0  0  0
  8  2  1  0  0  0  0
 10  2  1  0  0  0  0
 11 14  1  0  0  0  0
 12 23  1  0  0  0  0
 13 16  1  1  0  0  0
 13 18  1  0  0  0  0
 14  9  1  6  0  0  0
 14 17  1  0  0  0  0
 15  1  1  0  0  0  0
 15  4  1  1  0  0  0
 16  9  1  0  0  0  0
 17 10  1  0  0  0  0
 18 11  1  0  0  0  0
 19 12  2  0  0  0  0
 20 35  1  1  0  0  0
 20 13  1  0  0  0  0
 20  1  1  0  0  0  0
 21 24  1  0  0  0  0
 21 26  1  6  0  0  0
 22 21  1  0  0  0  0
 23 24  1  0  0  0  0
 25 22  2  0  0  0  0
 25 23  1  0  0  0  0
 26 28  1  0  0  0  0
 27 28  2  0  0  0  0
 28 30  1  0  0  0  0
 28 29  1  0  0  0  0
 31 33  1  0  0  0  0
 32 33  1  0  0  0  0
 33 34  1  0  0  0  0
 35 36  1  1  0  0  0
 37 39  1  1  0  0  0
 37 36  1  0  0  0  0
 37 38  1  0  0  0  0
 37 35  1  0  0  0  0
 38 35  1  0  0  0  0
 40 39  1  0  0  0  0
 41 39  2  0  0  0  0
 42 46  1  0  0  0  0
 44 46  1  0  0  0  0
 46 45  2  0  0  0  0
 46 43  2  0  0  0  0
 48 47  1  0  0  0  0
 49 48  1  0  0  0  0
 50 49  1  0  0  0  0
 51 52  1  0  0  0  0
 52 50  1  0  0  0  0
M  END
>  <MODEL>
9

>  <REMARK>
 VINA RESULT:      -5.7      3.980      5.906
  Name = 
  13 active torsions:
  status: ('A' for Active; 'I' for Inactive)
    1  A    between atoms: C_1  and  C_29
    2  A    between atoms: C_4  and  N_51
    3  A    between atoms: C_6  and  C_37
    4  A    between atoms: C_6  and  C_39
    5  A    between atoms: C_8  and  C_28
    6  A    between atoms: C_10  and  N_13
    7  A    between atoms: C_12  and  O_30
    8  A    between atoms: N_13  and  S_52
    9  A    between atoms: C_16  and  O_38
   10  A    between atoms: C_22  and  N_25
   11  A    between atoms: P_27  and  O_38
   12  A    between atoms: O_30  and  C_47
   13  A    between atoms: C_39  and  C_47
                            x       y       z     vdW  Elec       q    Type
                         _______ _______ _______ _____ _____    ______ ____

>  <TORSDO>
F 13

$$$$
