=
 OpenBabel11062421103D

 33 36  0  0  1  0  0  0  0  0999 V2000
  186.7070  176.5490  140.9500 O   0  0  0  0  0  0  0  0  0  0  0  0
  188.2980  176.7910  143.3630 N   0  0  0  0  0  0  0  0  0  0  0  0
  187.7590  175.8810  141.1260 C   0  0  0  0  0  0  0  0  0  0  0  0
  188.1750  174.9570  140.1120 N   0  0  0  0  0  0  0  0  0  0  0  0
  189.1720  174.1420  140.2890 C   0  0  0  0  0  0  0  0  0  0  0  0
  189.5380  173.2430  139.2490 N   0  0  0  0  0  1  0  0  0  0  0  0
  189.6300  174.9720  142.5550 C   0  0  0  0  0  0  0  0  0  0  0  0
  188.5450  175.9600  142.3870 C   0  0  0  0  0  0  0  0  0  0  0  0
  189.9230  174.1260  141.5600 C   0  0  0  0  0  3  0  0  0  0  0  0
  187.5240  178.8490  142.5740 O   0  0  0  0  0  0  0  0  0  0  0  0
  187.3840  177.8960  143.3880 C   0  0  0  0  0  0  0  0  0  0  0  0
  186.1710  176.8550  145.2910 C   0  0  0  0  0  3  0  0  0  0  0  0
  184.5490  179.1010  145.6230 C   0  0  0  0  0  3  0  0  0  0  0  0
  186.3470  177.9590  144.4420 C   0  0  0  0  0  0  0  0  0  0  0  0
  185.6450  180.1840  143.8240 F   0  0  0  0  0  0  0  0  0  0  0  0
  184.3870  177.9950  146.4590 C   0  0  0  0  0  3  0  0  0  0  0  0
  185.5210  179.0900  144.6170 C   0  0  0  0  0  0  0  0  0  0  0  0
  185.1970  176.8710  146.2920 C   0  0  0  0  0  3  0  0  0  0  0  0
  190.3810  174.9540  143.7760 N   0  0  0  0  0  2  0  0  0  0  0  0
  194.9620  176.7290  144.6160 C   0  0  0  0  0  3  0  0  0  0  0  0
  192.6680  173.7990  144.5880 N   0  0  0  0  0  2  0  0  0  0  0  0
  189.5680  174.6240  146.0860 C   0  0  0  0  0  2  0  0  0  0  0  0
  192.2380  174.8950  147.2390 O   0  0  0  0  0  0  0  0  0  0  0  0
  191.4730  173.2060  145.1840 C   0  0  0  0  0  2  0  0  0  0  0  0
  193.1170  175.5180  146.3430 C   0  0  0  0  0  0  0  0  0  0  0  0
  191.0440  175.4690  147.6470 N   0  0  0  0  0  0  0  0  0  0  0  0
  190.3110  175.8090  146.4970 N   0  0  0  0  0  2  0  0  0  0  0  0
  193.7870  176.6870  146.7280 C   0  0  0  0  0  3  0  0  0  0  0  0
  193.3580  174.9620  145.0690 C   0  0  0  0  0  0  0  0  0  0  0  0
  191.3300  176.6230  148.2960 O   0  0  0  0  0  1  0  0  0  0  0  0
  190.1880  173.9770  144.8460 C   0  0  2  0  0  3  0  0  0  0  0  0
  194.7060  177.2920  145.8680 C   0  0  0  0  0  3  0  0  0  0  0  0
  194.2900  175.5710  144.2200 C   0  0  0  0  0  3  0  0  0  0  0  0
  1  3  2  0  0  0  0
  2 11  1  0  0  0  0
  3  8  1  0  0  0  0
  4  5  2  0  0  0  0
  4  3  1  0  0  0  0
  5  9  1  0  0  0  0
  6  5  1  0  0  0  0
  7 19  1  0  0  0  0
  8  7  1  0  0  0  0
  8  2  2  0  0  0  0
  9  7  2  0  0  0  0
 10 11  2  0  0  0  0
 11 14  1  0  0  0  0
 12 18  1  0  0  0  0
 13 16  1  0  0  0  0
 14 17  1  0  0  0  0
 14 12  2  0  0  0  0
 15 17  1  0  0  0  0
 17 13  2  0  0  0  0
 18 16  2  0  0  0  0
 20 32  1  0  0  0  0
 21 29  1  0  0  0  0
 21 24  1  0  0  0  0
 22 27  1  0  0  0  0
 23 26  1  0  0  0  0
 25 28  1  0  0  0  0
 25 23  1  0  0  0  0
 26 30  1  0  0  0  0
 27 26  1  0  0  0  0
 29 25  2  0  0  0  0
 31 19  1  6  0  0  0
 31 24  1  0  0  0  0
 31 22  1  0  0  0  0
 32 28  2  0  0  0  0
 33 20  2  0  0  0  0
 33 29  1  0  0  0  0
M  END
>  <MODEL>
1

>  <REMARK>
 VINA RESULT:      -8.9      0.000      0.000
  Name = 
  4 active torsions:
  status: ('A' for Active; 'I' for Inactive)
    1  A    between atoms: N_1  and  C_24
    2  A    between atoms: N_1  and  C_29
    3  A    between atoms: N_6  and  C_21
    4  A    between atoms: C_13  and  C_21
                            x       y       z     vdW  Elec       q    Type
                         _______ _______ _______ _____ _____    ______ ____

>  <TORSDO>
F 4

$$$$
=
 OpenBabel11062421103D

 33 36  0  0  1  0  0  0  0  0999 V2000
  186.7820  175.3470  142.3880 O   0  0  0  0  0  0  0  0  0  0  0  0
  188.9690  176.6390  143.7910 N   0  0  0  0  0  0  0  0  0  0  0  0
  187.9560  174.8950  142.3560 C   0  0  0  0  0  0  0  0  0  0  0  0
  188.2190  173.6940  141.6200 N   0  0  0  0  0  0  0  0  0  0  0  0
  189.3760  173.1020  141.6570 C   0  0  0  0  0  0  0  0  0  0  0  0
  189.5800  171.9090  140.9090 N   0  0  0  0  0  1  0  0  0  0  0  0
  190.3410  174.7760  143.1740 C   0  0  0  0  0  0  0  0  0  0  0  0
  189.0670  175.5220  143.1220 C   0  0  0  0  0  0  0  0  0  0  0  0
  190.4800  173.6420  142.4750 C   0  0  0  0  0  3  0  0  0  0  0  0
  187.7040  178.3430  142.8140 O   0  0  0  0  0  0  0  0  0  0  0  0
  187.8880  177.5820  143.8020 C   0  0  0  0  0  0  0  0  0  0  0  0
  187.2070  176.7920  146.0580 C   0  0  0  0  0  3  0  0  0  0  0  0
  185.3610  178.8660  146.3420 C   0  0  0  0  0  3  0  0  0  0  0  0
  187.0620  177.7280  145.0220 C   0  0  0  0  0  0  0  0  0  0  0  0
  185.9410  179.7030  144.2040 F   0  0  0  0  0  0  0  0  0  0  0  0
  185.5180  177.9270  147.3630 C   0  0  0  0  0  3  0  0  0  0  0  0
  186.1250  178.7720  145.1740 C   0  0  0  0  0  0  0  0  0  0  0  0
  186.4400  176.8890  147.2200 C   0  0  0  0  0  3  0  0  0  0  0  0
  191.4280  175.2950  143.9500 N   0  0  0  0  0  2  0  0  0  0  0  0
  195.8930  175.4200  141.7370 C   0  0  0  0  0  3  0  0  0  0  0  0
  193.6020  173.7240  144.1290 N   0  0  0  0  0  2  0  0  0  0  0  0
  191.9990  176.0910  146.2180 C   0  0  0  0  0  2  0  0  0  0  0  0
  194.8670  175.7270  145.8010 O   0  0  0  0  0  0  0  0  0  0  0  0
  192.8720  173.8540  145.3880 C   0  0  0  0  0  2  0  0  0  0  0  0
  195.1750  175.6390  144.4380 C   0  0  0  0  0  0  0  0  0  0  0  0
  194.1910  176.8030  146.3540 N   0  0  0  0  0  0  0  0  0  0  0  0
  192.9960  176.9800  145.6350 N   0  0  0  0  0  2  0  0  0  0  0  0
  196.0960  176.5320  143.8740 C   0  0  0  0  0  3  0  0  0  0  0  0
  194.5910  174.6370  143.6330 C   0  0  0  0  0  0  0  0  0  0  0  0
  194.9410  177.9160  146.1650 O   0  0  0  0  0  1  0  0  0  0  0  0
  191.7330  174.8830  145.3190 C   0  0  2  0  0  3  0  0  0  0  0  0
  196.4530  176.4250  142.5280 C   0  0  0  0  0  3  0  0  0  0  0  0
  194.9660  174.5330  142.2880 C   0  0  0  0  0  3  0  0  0  0  0  0
  2 11  1  0  0  0  0
  3  1  2  0  0  0  0
  3  8  1  0  0  0  0
  4  5  2  0  0  0  0
  4  3  1  0  0  0  0
  5  9  1  0  0  0  0
  6  5  1  0  0  0  0
  7 19  1  0  0  0  0
  8  7  1  0  0  0  0
  8  2  2  0  0  0  0
  9  7  2  0  0  0  0
 10 11  2  0  0  0  0
 11 14  1  0  0  0  0
 12 18  1  0  0  0  0
 13 16  1  0  0  0  0
 14 17  1  0  0  0  0
 14 12  2  0  0  0  0
 15 17  1  0  0  0  0
 17 13  2  0  0  0  0
 18 16  2  0  0  0  0
 20 33  2  0  0  0  0
 20 32  1  0  0  0  0
 21 24  1  0  0  0  0
 23 26  1  0  0  0  0
 25 23  1  0  0  0  0
 27 22  1  0  0  0  0
 27 26  1  0  0  0  0
 28 25  1  0  0  0  0
 29 21  1  0  0  0  0
 29 25  2  0  0  0  0
 30 26  1  0  0  0  0
 31 19  1  6  0  0  0
 31 24  1  0  0  0  0
 31 22  1  0  0  0  0
 32 28  2  0  0  0  0
 33 29  1  0  0  0  0
M  END
>  <MODEL>
2

>  <REMARK>
 VINA RESULT:      -8.5      1.842      2.173
  Name = 
  4 active torsions:
  status: ('A' for Active; 'I' for Inactive)
    1  A    between atoms: N_1  and  C_24
    2  A    between atoms: N_1  and  C_29
    3  A    between atoms: N_6  and  C_21
    4  A    between atoms: C_13  and  C_21
                            x       y       z     vdW  Elec       q    Type
                         _______ _______ _______ _____ _____    ______ ____

>  <TORSDO>
F 4

$$$$
=
 OpenBabel11062421103D

 33 36  0  0  1  0  0  0  0  0999 V2000
  191.7290  172.6720  141.0940 O   0  0  0  0  0  0  0  0  0  0  0  0
  190.4120  173.9850  143.3210 N   0  0  0  0  0  0  0  0  0  0  0  0
  190.5990  173.2120  140.9770 C   0  0  0  0  0  0  0  0  0  0  0  0
  189.9480  173.1950  139.7000 N   0  0  0  0  0  0  0  0  0  0  0  0
  188.8460  173.8480  139.4790 C   0  0  0  0  0  0  0  0  0  0  0  0
  188.2460  173.7990  138.1900 N   0  0  0  0  0  1  0  0  0  0  0  0
  188.7290  174.7060  141.7780 C   0  0  0  0  0  0  0  0  0  0  0  0
  189.9470  173.9360  142.1020 C   0  0  0  0  0  0  0  0  0  0  0  0
  188.2130  174.6530  140.5430 C   0  0  0  0  0  3  0  0  0  0  0  0
  191.3590  172.0180  144.1530 O   0  0  0  0  0  0  0  0  0  0  0  0
  191.4990  173.2450  143.8940 C   0  0  0  0  0  0  0  0  0  0  0  0
  193.3970  173.5840  145.4600 C   0  0  0  0  0  3  0  0  0  0  0  0
  194.4540  175.6420  143.9010 C   0  0  0  0  0  3  0  0  0  0  0  0
  192.7400  173.9530  144.2760 C   0  0  0  0  0  0  0  0  0  0  0  0
  192.6860  175.3970  142.3430 F   0  0  0  0  0  0  0  0  0  0  0  0
  195.0950  175.2620  145.0810 C   0  0  0  0  0  3  0  0  0  0  0  0
  193.2810  174.9970  143.4950 C   0  0  0  0  0  0  0  0  0  0  0  0
  194.5660  174.2330  145.8610 C   0  0  0  0  0  3  0  0  0  0  0  0
  188.0920  175.4780  142.8040 N   0  0  0  0  0  2  0  0  0  0  0  0
  189.9680  174.8370  147.3770 C   0  0  0  0  0  3  0  0  0  0  0  0
  187.5330  176.5990  145.1820 N   0  0  0  0  0  2  0  0  0  0  0  0
  189.0890  177.6520  142.1810 C   0  0  0  0  0  2  0  0  0  0  0  0
  189.9050  178.2470  144.9210 O   0  0  0  0  0  0  0  0  0  0  0  0
  187.3800  177.5160  144.0560 C   0  0  0  0  0  2  0  0  0  0  0  0
  189.9250  177.0890  145.7090 C   0  0  0  0  0  0  0  0  0  0  0  0
  190.6270  178.3720  143.7450 N   0  0  0  0  0  0  0  0  0  0  0  0
  190.2940  177.2880  142.9150 N   0  0  0  0  0  2  0  0  0  0  0  0
  191.1040  176.7180  146.3690 C   0  0  0  0  0  3  0  0  0  0  0  0
  188.7590  176.3100  145.8700 C   0  0  0  0  0  0  0  0  0  0  0  0
  191.9440  178.2610  144.0430 O   0  0  0  0  0  1  0  0  0  0  0  0
  187.8600  176.9200  142.7250 C   0  0  2  0  0  3  0  0  0  0  0  0
  191.1270  175.5950  147.1990 C   0  0  0  0  0  3  0  0  0  0  0  0
  188.7910  175.1930  146.7130 C   0  0  0  0  0  3  0  0  0  0  0  0
  2 11  1  0  0  0  0
  3  1  2  0  0  0  0
  3  8  1  0  0  0  0
  4  3  1  0  0  0  0
  5  4  2  0  0  0  0
  5  9  1  0  0  0  0
  6  5  1  0  0  0  0
  7  8  1  0  0  0  0
  7 19  1  0  0  0  0
  8  2  2  0  0  0  0
  9  7  2  0  0  0  0
 11 10  2  0  0  0  0
 11 14  1  0  0  0  0
 12 18  1  0  0  0  0
 13 16  1  0  0  0  0
 14 12  2  0  0  0  0
 15 17  1  0  0  0  0
 16 18  2  0  0  0  0
 17 13  2  0  0  0  0
 17 14  1  0  0  0  0
 21 29  1  0  0  0  0
 22 31  1  0  0  0  0
 22 27  1  0  0  0  0
 23 25  1  0  0  0  0
 24 21  1  0  0  0  0
 25 29  2  0  0  0  0
 25 28  1  0  0  0  0
 26 30  1  0  0  0  0
 26 23  1  0  0  0  0
 27 26  1  0  0  0  0
 28 32  2  0  0  0  0
 29 33  1  0  0  0  0
 31 19  1  1  0  0  0
 31 24  1  0  0  0  0
 32 20  1  0  0  0  0
 33 20  2  0  0  0  0
M  END
>  <MODEL>
3

>  <REMARK>
 VINA RESULT:      -8.2      2.894      5.864
  Name = 
  4 active torsions:
  status: ('A' for Active; 'I' for Inactive)
    1  A    between atoms: N_1  and  C_24
    2  A    between atoms: N_1  and  C_29
    3  A    between atoms: N_6  and  C_21
    4  A    between atoms: C_13  and  C_21
                            x       y       z     vdW  Elec       q    Type
                         _______ _______ _______ _____ _____    ______ ____

>  <TORSDO>
F 4

$$$$
=
 OpenBabel11062421103D

 33 36  0  0  1  0  0  0  0  0999 V2000
  187.3750  176.5200  141.3740 O   0  0  0  0  0  0  0  0  0  0  0  0
  189.6860  175.8210  142.9820 N   0  0  0  0  0  0  0  0  0  0  0  0
  188.1600  175.5930  141.0460 C   0  0  0  0  0  0  0  0  0  0  0  0
  187.8970  174.8470  139.8520 N   0  0  0  0  0  0  0  0  0  0  0  0
  188.5900  173.7950  139.5290 C   0  0  0  0  0  0  0  0  0  0  0  0
  188.2810  173.0890  138.3330 N   0  0  0  0  0  1  0  0  0  0  0  0
  190.0270  173.9600  141.5140 C   0  0  0  0  0  0  0  0  0  0  0  0
  189.3130  175.1950  141.8990 C   0  0  0  0  0  0  0  0  0  0  0  0
  189.6850  173.3120  140.3930 C   0  0  0  0  0  3  0  0  0  0  0  0
  189.6720  178.1570  143.0060 O   0  0  0  0  0  0  0  0  0  0  0  0
  189.2260  177.0810  143.4900 C   0  0  0  0  0  0  0  0  0  0  0  0
  188.6120  176.3220  145.7750 C   0  0  0  0  0  3  0  0  0  0  0  0
  186.2950  177.8760  145.7840 C   0  0  0  0  0  3  0  0  0  0  0  0
  188.3100  177.1070  144.6520 C   0  0  0  0  0  0  0  0  0  0  0  0
  186.7910  178.6650  143.6060 F   0  0  0  0  0  0  0  0  0  0  0  0
  186.6110  177.0900  146.8930 C   0  0  0  0  0  3  0  0  0  0  0  0
  187.1340  177.8890  144.6650 C   0  0  0  0  0  0  0  0  0  0  0  0
  187.7690  176.3110  146.8880 C   0  0  0  0  0  3  0  0  0  0  0  0
  191.1040  173.4870  142.3330 N   0  0  0  0  0  2  0  0  0  0  0  0
  192.8350  176.7930  145.6370 C   0  0  0  0  0  3  0  0  0  0  0  0
  193.2470  175.1100  142.3440 N   0  0  0  0  0  2  0  0  0  0  0  0
  192.6990  171.6250  142.6430 C   0  0  0  0  0  2  0  0  0  0  0  0
  194.5830  173.2740  144.1470 O   0  0  0  0  0  0  0  0  0  0  0  0
  193.4850  173.8360  141.6700 C   0  0  0  0  0  2  0  0  0  0  0  0
  193.9660  174.4320  144.6370 C   0  0  0  0  0  0  0  0  0  0  0  0
  194.1200  171.9970  144.4250 N   0  0  0  0  0  0  0  0  0  0  0  0
  192.7620  171.9410  144.0650 N   0  0  0  0  0  2  0  0  0  0  0  0
  193.9870  174.7010  146.0120 C   0  0  0  0  0  3  0  0  0  0  0  0
  193.3530  175.3470  143.7550 C   0  0  0  0  0  0  0  0  0  0  0  0
  194.1890  171.8040  145.7640 O   0  0  0  0  0  1  0  0  0  0  0  0
  192.3140  172.8520  141.8140 C   0  0  2  0  0  3  0  0  0  0  0  0
  193.4230  175.8770  146.5120 C   0  0  0  0  0  3  0  0  0  0  0  0
  192.8000  176.5270  144.2670 C   0  0  0  0  0  3  0  0  0  0  0  0
  2 11  1  0  0  0  0
  3  1  2  0  0  0  0
  3  8  1  0  0  0  0
  4  3  1  0  0  0  0
  5  4  2  0  0  0  0
  5  9  1  0  0  0  0
  6  5  1  0  0  0  0
  7  8  1  0  0  0  0
  7 19  1  0  0  0  0
  8  2  2  0  0  0  0
  9  7  2  0  0  0  0
 10 11  2  0  0  0  0
 11 14  1  0  0  0  0
 12 18  1  0  0  0  0
 13 16  1  0  0  0  0
 14 17  1  0  0  0  0
 14 12  2  0  0  0  0
 15 17  1  0  0  0  0
 17 13  2  0  0  0  0
 18 16  2  0  0  0  0
 20 32  1  0  0  0  0
 21 29  1  0  0  0  0
 22 27  1  0  0  0  0
 23 26  1  0  0  0  0
 23 25  1  0  0  0  0
 24 31  1  0  0  0  0
 24 21  1  0  0  0  0
 25 28  1  0  0  0  0
 26 30  1  0  0  0  0
 27 26  1  0  0  0  0
 28 32  2  0  0  0  0
 29 33  1  0  0  0  0
 29 25  2  0  0  0  0
 31 19  1  1  0  0  0
 31 22  1  0  0  0  0
 33 20  2  0  0  0  0
M  END
>  <MODEL>
4

>  <REMARK>
 VINA RESULT:      -8.1      2.200      2.870
  Name = 
  4 active torsions:
  status: ('A' for Active; 'I' for Inactive)
    1  A    between atoms: N_1  and  C_24
    2  A    between atoms: N_1  and  C_29
    3  A    between atoms: N_6  and  C_21
    4  A    between atoms: C_13  and  C_21
                            x       y       z     vdW  Elec       q    Type
                         _______ _______ _______ _____ _____    ______ ____

>  <TORSDO>
F 4

$$$$
=
 OpenBabel11062421103D

 33 36  0  0  1  0  0  0  0  0999 V2000
  191.6380  172.7280  141.6440 O   0  0  0  0  0  0  0  0  0  0  0  0
  190.0160  174.0400  143.6600 N   0  0  0  0  0  0  0  0  0  0  0  0
  190.5460  173.2860  141.3630 C   0  0  0  0  0  0  0  0  0  0  0  0
  190.0970  173.2910  140.0020 N   0  0  0  0  0  0  0  0  0  0  0  0
  189.0500  173.9630  139.6230 C   0  0  0  0  0  0  0  0  0  0  0  0
  188.6530  173.9360  138.2580 N   0  0  0  0  0  1  0  0  0  0  0  0
  188.5970  174.8010  141.8880 C   0  0  0  0  0  0  0  0  0  0  0  0
  189.7410  174.0100  142.3840 C   0  0  0  0  0  0  0  0  0  0  0  0
  188.2740  174.7670  140.5880 C   0  0  0  0  0  3  0  0  0  0  0  0
  190.8050  172.0470  144.5900 O   0  0  0  0  0  0  0  0  0  0  0  0
  190.9920  173.2770  144.3830 C   0  0  0  0  0  0  0  0  0  0  0  0
  193.4390  173.7030  144.4550 C   0  0  0  0  0  3  0  0  0  0  0  0
  193.1720  175.4910  146.5800 C   0  0  0  0  0  3  0  0  0  0  0  0
  192.1610  173.9650  144.9730 C   0  0  0  0  0  0  0  0  0  0  0  0
  190.8270  175.1590  146.5920 F   0  0  0  0  0  0  0  0  0  0  0  0
  194.4350  175.2200  146.0520 C   0  0  0  0  0  3  0  0  0  0  0  0
  192.0370  174.8700  146.0500 C   0  0  0  0  0  0  0  0  0  0  0  0
  194.5690  174.3240  144.9900 C   0  0  0  0  0  3  0  0  0  0  0  0
  187.8220  175.5740  142.8140 N   0  0  0  0  0  2  0  0  0  0  0  0
  184.1480  178.0290  140.5080 C   0  0  0  0  0  3  0  0  0  0  0  0
  187.5950  178.0950  141.9090 N   0  0  0  0  0  2  0  0  0  0  0  0
  187.6830  176.5340  145.0860 C   0  0  0  0  0  2  0  0  0  0  0  0
  185.9740  178.7410  144.2260 O   0  0  0  0  0  0  0  0  0  0  0  0
  188.3970  177.9820  143.1250 C   0  0  0  0  0  2  0  0  0  0  0  0
  185.3740  178.4670  142.9900 C   0  0  0  0  0  0  0  0  0  0  0  0
  185.8450  177.9100  145.3280 N   0  0  0  0  0  0  0  0  0  0  0  0
  186.2350  176.6160  144.9430 N   0  0  0  0  0  2  0  0  0  0  0  0
  183.9780  178.4970  142.8740 C   0  0  0  0  0  3  0  0  0  0  0  0
  186.1640  178.1940  141.8530 C   0  0  0  0  0  0  0  0  0  0  0  0
  184.5340  177.8520  145.6620 O   0  0  0  0  0  1  0  0  0  0  0  0
  188.3830  176.5690  143.7260 C   0  0  2  0  0  3  0  0  0  0  0  0
  183.3660  178.2770  141.6380 C   0  0  0  0  0  3  0  0  0  0  0  0
  185.5400  177.9870  140.6170 C   0  0  0  0  0  3  0  0  0  0  0  0
  2 11  1  0  0  0  0
  3  1  2  0  0  0  0
  3  8  1  0  0  0  0
  4  3  1  0  0  0  0
  5  4  2  0  0  0  0
  5  9  1  0  0  0  0
  6  5  1  0  0  0  0
  7  8  1  0  0  0  0
  7 19  1  0  0  0  0
  8  2  2  0  0  0  0
  9  7  2  0  0  0  0
 11 10  2  0  0  0  0
 11 14  1  0  0  0  0
 12 14  2  0  0  0  0
 12 18  1  0  0  0  0
 14 17  1  0  0  0  0
 16 13  1  0  0  0  0
 17 13  2  0  0  0  0
 17 15  1  0  0  0  0
 18 16  2  0  0  0  0
 20 33  2  0  0  0  0
 20 32  1  0  0  0  0
 21 24  1  0  0  0  0
 23 26  1  0  0  0  0
 24 31  1  0  0  0  0
 25 23  1  0  0  0  0
 26 30  1  0  0  0  0
 27 22  1  0  0  0  0
 27 26  1  0  0  0  0
 28 25  1  0  0  0  0
 29 21  1  0  0  0  0
 29 25  2  0  0  0  0
 31 19  1  6  0  0  0
 31 22  1  0  0  0  0
 32 28  2  0  0  0  0
 33 29  1  0  0  0  0
M  END
>  <MODEL>
5

>  <REMARK>
 VINA RESULT:      -8.0      2.740      7.062
  Name = 
  4 active torsions:
  status: ('A' for Active; 'I' for Inactive)
    1  A    between atoms: N_1  and  C_24
    2  A    between atoms: N_1  and  C_29
    3  A    between atoms: N_6  and  C_21
    4  A    between atoms: C_13  and  C_21
                            x       y       z     vdW  Elec       q    Type
                         _______ _______ _______ _____ _____    ______ ____

>  <TORSDO>
F 4

$$$$
=
 OpenBabel11062421103D

 33 36  0  0  1  0  0  0  0  0999 V2000
  188.6970  172.8200  141.5450 O   0  0  0  0  0  0  0  0  0  0  0  0
  191.0010  173.4800  143.1820 N   0  0  0  0  0  0  0  0  0  0  0  0
  189.7990  173.1600  141.0420 C   0  0  0  0  0  0  0  0  0  0  0  0
  189.9280  173.2040  139.6150 N   0  0  0  0  0  0  0  0  0  0  0  0
  191.0710  173.4150  139.0320 C   0  0  0  0  0  0  0  0  0  0  0  0
  191.1400  173.4450  137.6110 N   0  0  0  0  0  1  0  0  0  0  0  0
  192.2780  173.6180  141.1610 C   0  0  0  0  0  0  0  0  0  0  0  0
  190.9980  173.4420  141.8770 C   0  0  0  0  0  0  0  0  0  0  0  0
  192.3020  173.6110  139.8220 C   0  0  0  0  0  3  0  0  0  0  0  0
  189.3460  172.3470  144.3800 O   0  0  0  0  0  0  0  0  0  0  0  0
  189.8830  173.4480  144.0800 C   0  0  0  0  0  0  0  0  0  0  0  0
  188.8670  175.6700  143.6240 C   0  0  0  0  0  3  0  0  0  0  0  0
  188.6260  176.2360  146.3450 C   0  0  0  0  0  3  0  0  0  0  0  0
  189.3000  174.7200  144.5620 C   0  0  0  0  0  0  0  0  0  0  0  0
  189.5820  174.1370  146.8880 F   0  0  0  0  0  0  0  0  0  0  0  0
  188.1990  177.1680  145.3990 C   0  0  0  0  0  3  0  0  0  0  0  0
  189.1770  175.0160  145.9370 C   0  0  0  0  0  0  0  0  0  0  0  0
  188.3200  176.8860  144.0380 C   0  0  0  0  0  3  0  0  0  0  0  0
  193.4810  173.8260  141.9130 N   0  0  0  0  0  2  0  0  0  0  0  0
  192.3600  176.4460  146.0030 C   0  0  0  0  0  3  0  0  0  0  0  0
  193.5650  176.4520  142.4820 N   0  0  0  0  0  2  0  0  0  0  0  0
  195.9510  173.8860  141.9710 C   0  0  0  0  0  2  0  0  0  0  0  0
  196.0140  176.0140  143.9710 O   0  0  0  0  0  0  0  0  0  0  0  0
  194.6260  176.0180  141.5770 C   0  0  0  0  0  2  0  0  0  0  0  0
  194.7860  176.1240  144.6360 C   0  0  0  0  0  0  0  0  0  0  0  0
  196.7420  174.8350  143.9220 N   0  0  0  0  0  0  0  0  0  0  0  0
  195.8990  173.8260  143.4270 N   0  0  0  0  0  2  0  0  0  0  0  0
  194.7390  176.0120  146.0320 C   0  0  0  0  0  3  0  0  0  0  0  0
  193.6000  176.3790  143.9140 C   0  0  0  0  0  0  0  0  0  0  0  0
  197.0790  174.4930  145.1880 O   0  0  0  0  0  1  0  0  0  0  0  0
  194.6720  174.4940  141.3910 C   0  0  2  0  0  3  0  0  0  0  0  0
  193.5310  176.1710  146.7140 C   0  0  0  0  0  3  0  0  0  0  0  0
  192.3970  176.5470  144.6100 C   0  0  0  0  0  3  0  0  0  0  0  0
  2 11  1  0  0  0  0
  3  1  2  0  0  0  0
  3  8  1  0  0  0  0
  4  3  1  0  0  0  0
  5  4  2  0  0  0  0
  5  9  1  0  0  0  0
  6  5  1  0  0  0  0
  7  8  1  0  0  0  0
  7 19  1  0  0  0  0
  8  2  2  0  0  0  0
  9  7  2  0  0  0  0
 11 10  2  0  0  0  0
 11 14  1  0  0  0  0
 12 18  2  0  0  0  0
 12 14  1  0  0  0  0
 14 17  2  0  0  0  0
 16 13  2  0  0  0  0
 17 13  1  0  0  0  0
 17 15  1  0  0  0  0
 18 16  1  0  0  0  0
 20 32  1  0  0  0  0
 21 29  1  0  0  0  0
 22 27  1  0  0  0  0
 23 25  1  0  0  0  0
 24 21  1  0  0  0  0
 25 28  1  0  0  0  0
 26 23  1  0  0  0  0
 26 30  1  0  0  0  0
 27 26  1  0  0  0  0
 28 32  2  0  0  0  0
 29 33  1  0  0  0  0
 29 25  2  0  0  0  0
 31 24  1  0  0  0  0
 31 19  1  1  0  0  0
 31 22  1  0  0  0  0
 33 20  2  0  0  0  0
M  END
>  <MODEL>
6

>  <REMARK>
 VINA RESULT:      -7.8      3.237      4.587
  Name = 
  4 active torsions:
  status: ('A' for Active; 'I' for Inactive)
    1  A    between atoms: N_1  and  C_24
    2  A    between atoms: N_1  and  C_29
    3  A    between atoms: N_6  and  C_21
    4  A    between atoms: C_13  and  C_21
                            x       y       z     vdW  Elec       q    Type
                         _______ _______ _______ _____ _____    ______ ____

>  <TORSDO>
F 4

$$$$
=
 OpenBabel11062421103D

 33 36  0  0  1  0  0  0  0  0999 V2000
  189.9260  177.7140  146.6470 O   0  0  0  0  0  0  0  0  0  0  0  0
  188.9430  175.5660  144.9610 N   0  0  0  0  0  0  0  0  0  0  0  0
  190.6740  176.7870  146.2420 C   0  0  0  0  0  0  0  0  0  0  0  0
  192.0590  176.8010  146.6090 N   0  0  0  0  0  0  0  0  0  0  0  0
  192.9120  175.9510  146.1160 C   0  0  0  0  0  0  0  0  0  0  0  0
  194.2770  176.0150  146.5130 N   0  0  0  0  0  1  0  0  0  0  0  0
  191.2080  174.8160  144.7580 C   0  0  0  0  0  0  0  0  0  0  0  0
  190.1860  175.7170  145.3300 C   0  0  0  0  0  0  0  0  0  0  0  0
  192.4870  174.9290  145.1400 C   0  0  0  0  0  3  0  0  0  0  0  0
  187.3930  176.0410  146.6430 O   0  0  0  0  0  0  0  0  0  0  0  0
  187.7760  176.2360  145.4580 C   0  0  0  0  0  0  0  0  0  0  0  0
  186.6900  178.3980  144.8910 C   0  0  0  0  0  3  0  0  0  0  0  0
  185.6930  177.3890  142.4890 C   0  0  0  0  0  3  0  0  0  0  0  0
  186.9680  177.0680  144.5380 C   0  0  0  0  0  0  0  0  0  0  0  0
  186.6920  175.2880  142.9320 F   0  0  0  0  0  0  0  0  0  0  0  0
  185.4270  178.7100  142.8540 C   0  0  0  0  0  3  0  0  0  0  0  0
  186.4580  176.5660  143.3220 C   0  0  0  0  0  0  0  0  0  0  0  0
  185.9240  179.2140  144.0560 C   0  0  0  0  0  3  0  0  0  0  0  0
  190.8100  173.8070  143.8220 N   0  0  0  0  0  2  0  0  0  0  0  0
  188.9420  174.1660  139.2150 C   0  0  0  0  0  3  0  0  0  0  0  0
  188.6740  172.6980  142.6240 N   0  0  0  0  0  2  0  0  0  0  0  0
  191.8330  171.5590  143.7470 C   0  0  0  0  0  2  0  0  0  0  0  0
  190.4420  170.8290  141.2840 O   0  0  0  0  0  0  0  0  0  0  0  0
  189.3110  171.8240  143.6060 C   0  0  0  0  0  2  0  0  0  0  0  0
  189.9640  171.9630  140.6150 C   0  0  0  0  0  0  0  0  0  0  0  0
  191.7750  170.6570  141.6220 N   0  0  0  0  0  0  0  0  0  0  0  0
  192.1860  171.7860  142.3510 N   0  0  0  0  0  2  0  0  0  0  0  0
  190.3510  172.2020  139.2900 C   0  0  0  0  0  3  0  0  0  0  0  0
  189.0710  172.8500  141.2530 C   0  0  0  0  0  0  0  0  0  0  0  0
  192.5000  170.6320  140.4780 O   0  0  0  0  0  1  0  0  0  0  0  0
  190.6230  172.3970  144.1610 C   0  0  2  0  0  3  0  0  0  0  0  0
  189.8440  173.3000  138.5910 C   0  0  0  0  0  3  0  0  0  0  0  0
  188.5600  173.9410  140.5390 C   0  0  0  0  0  3  0  0  0  0  0  0
  2  8  2  0  0  0  0
  2 11  1  0  0  0  0
  3  4  1  0  0  0  0
  3  1  2  0  0  0  0
  5  6  1  0  0  0  0
  5  4  2  0  0  0  0
  7  9  2  0  0  0  0
  7  8  1  0  0  0  0
  8  3  1  0  0  0  0
  9  5  1  0  0  0  0
 11 10  2  0  0  0  0
 13 16  2  0  0  0  0
 13 17  1  0  0  0  0
 14 12  1  0  0  0  0
 14 11  1  0  0  0  0
 15 17  1  0  0  0  0
 16 18  1  0  0  0  0
 17 14  2  0  0  0  0
 18 12  2  0  0  0  0
 19  7  1  0  0  0  0
 20 33  1  0  0  0  0
 21 24  1  0  0  0  0
 22 31  1  0  0  0  0
 23 26  1  0  0  0  0
 24 31  1  0  0  0  0
 25 29  1  0  0  0  0
 25 23  1  0  0  0  0
 26 27  1  0  0  0  0
 27 22  1  0  0  0  0
 28 25  2  0  0  0  0
 29 21  1  0  0  0  0
 30 26  1  0  0  0  0
 31 19  1  6  0  0  0
 32 20  2  0  0  0  0
 32 28  1  0  0  0  0
 33 29  2  0  0  0  0
M  END
>  <MODEL>
7

>  <REMARK>
 VINA RESULT:      -7.8      2.899      5.843
  Name = 
  4 active torsions:
  status: ('A' for Active; 'I' for Inactive)
    1  A    between atoms: N_1  and  C_24
    2  A    between atoms: N_1  and  C_29
    3  A    between atoms: N_6  and  C_21
    4  A    between atoms: C_13  and  C_21
                            x       y       z     vdW  Elec       q    Type
                         _______ _______ _______ _____ _____    ______ ____

>  <TORSDO>
F 4

$$$$
=
 OpenBabel11062421103D

 33 36  0  0  1  0  0  0  0  0999 V2000
  187.3750  175.9360  139.9050 O   0  0  0  0  0  0  0  0  0  0  0  0
  189.0970  174.7900  141.9390 N   0  0  0  0  0  0  0  0  0  0  0  0
  187.4410  176.4100  141.0690 C   0  0  0  0  0  0  0  0  0  0  0  0
  186.6560  177.5630  141.3960 N   0  0  0  0  0  0  0  0  0  0  0  0
  186.7780  178.1810  142.5330 C   0  0  0  0  0  0  0  0  0  0  0  0
  185.9760  179.3240  142.8030 N   0  0  0  0  0  1  0  0  0  0  0  0
  188.5060  176.6350  143.3460 C   0  0  0  0  0  0  0  0  0  0  0  0
  188.3670  175.8600  142.0960 C   0  0  0  0  0  0  0  0  0  0  0  0
  187.7490  177.7210  143.5460 C   0  0  0  0  0  3  0  0  0  0  0  0
  188.1450  172.9550  140.8510 O   0  0  0  0  0  0  0  0  0  0  0  0
  189.0560  173.8270  140.8770 C   0  0  0  0  0  0  0  0  0  0  0  0
  191.4790  173.7880  140.3240 C   0  0  0  0  0  3  0  0  0  0  0  0
  190.9600  173.7700  137.5820 C   0  0  0  0  0  3  0  0  0  0  0  0
  190.1480  173.7980  139.8780 C   0  0  0  0  0  0  0  0  0  0  0  0
  188.6290  173.8020  138.0020 F   0  0  0  0  0  0  0  0  0  0  0  0
  192.2780  173.7600  138.0430 C   0  0  0  0  0  3  0  0  0  0  0  0
  189.8960  173.7910  138.4890 C   0  0  0  0  0  0  0  0  0  0  0  0
  192.5370  173.7700  139.4140 C   0  0  0  0  0  3  0  0  0  0  0  0
  189.4310  176.1930  144.3470 N   0  0  0  0  0  2  0  0  0  0  0  0
  194.4150  176.1400  144.3130 C   0  0  0  0  0  3  0  0  0  0  0  0
  191.2410  174.2470  144.7530 N   0  0  0  0  0  2  0  0  0  0  0  0
  188.9710  176.0650  146.7720 C   0  0  0  0  0  2  0  0  0  0  0  0
  191.7120  175.2910  147.4170 O   0  0  0  0  0  0  0  0  0  0  0  0
  190.0360  174.1000  145.5650 C   0  0  0  0  0  2  0  0  0  0  0  0
  192.5870  175.5970  146.3670 C   0  0  0  0  0  0  0  0  0  0  0  0
  190.9020  176.2380  148.0250 N   0  0  0  0  0  0  0  0  0  0  0  0
  190.1550  176.8780  147.0210 N   0  0  0  0  0  2  0  0  0  0  0  0
  193.6950  176.4210  146.6040 C   0  0  0  0  0  3  0  0  0  0  0  0
  192.3820  175.0550  145.0800 C   0  0  0  0  0  0  0  0  0  0  0  0
  191.7000  177.1760  148.5900 O   0  0  0  0  0  1  0  0  0  0  0  0
  189.0840  175.3000  145.4520 C   0  0  2  0  0  3  0  0  0  0  0  0
  194.6060  176.6940  145.5810 C   0  0  0  0  0  3  0  0  0  0  0  0
  193.3070  175.3260  144.0660 C   0  0  0  0  0  3  0  0  0  0  0  0
  1  3  2  0  0  0  0
  2  8  2  0  0  0  0
  3  4  1  0  0  0  0
  3  8  1  0  0  0  0
  4  5  2  0  0  0  0
  5  6  1  0  0  0  0
  5  9  1  0  0  0  0
  7  9  2  0  0  0  0
  7 19  1  0  0  0  0
  8  7  1  0  0  0  0
 10 11  2  0  0  0  0
 11  2  1  0  0  0  0
 13 16  2  0  0  0  0
 13 17  1  0  0  0  0
 14 12  1  0  0  0  0
 14 11  1  0  0  0  0
 15 17  1  0  0  0  0
 16 18  1  0  0  0  0
 17 14  2  0  0  0  0
 18 12  2  0  0  0  0
 20 32  1  0  0  0  0
 21 29  1  0  0  0  0
 21 24  1  0  0  0  0
 22 27  1  0  0  0  0
 23 26  1  0  0  0  0
 25 28  1  0  0  0  0
 25 23  1  0  0  0  0
 26 30  1  0  0  0  0
 27 26  1  0  0  0  0
 29 25  2  0  0  0  0
 31 19  1  6  0  0  0
 31 24  1  0  0  0  0
 31 22  1  0  0  0  0
 32 28  2  0  0  0  0
 33 20  2  0  0  0  0
 33 29  1  0  0  0  0
M  END
>  <MODEL>
8

>  <REMARK>
 VINA RESULT:      -7.7      2.483      5.221
  Name = 
  4 active torsions:
  status: ('A' for Active; 'I' for Inactive)
    1  A    between atoms: N_1  and  C_24
    2  A    between atoms: N_1  and  C_29
    3  A    between atoms: N_6  and  C_21
    4  A    between atoms: C_13  and  C_21
                            x       y       z     vdW  Elec       q    Type
                         _______ _______ _______ _____ _____    ______ ____

>  <TORSDO>
F 4

$$$$
=
 OpenBabel11062421103D

 33 36  0  0  1  0  0  0  0  0999 V2000
  184.7500  178.4090  141.6420 O   0  0  0  0  0  0  0  0  0  0  0  0
  187.0490  177.6040  143.2180 N   0  0  0  0  0  0  0  0  0  0  0  0
  185.7250  177.7960  141.1350 C   0  0  0  0  0  0  0  0  0  0  0  0
  185.6930  177.4670  139.7410 N   0  0  0  0  0  0  0  0  0  0  0  0
  186.6020  176.7210  139.1870 C   0  0  0  0  0  0  0  0  0  0  0  0
  186.5170  176.4230  137.7980 N   0  0  0  0  0  1  0  0  0  0  0  0
  187.8490  176.4400  141.2840 C   0  0  0  0  0  0  0  0  0  0  0  0
  186.8790  177.3310  141.9530 C   0  0  0  0  0  0  0  0  0  0  0  0
  187.7150  176.1640  139.9810 C   0  0  0  0  0  3  0  0  0  0  0  0
  185.9610  179.6400  143.5810 O   0  0  0  0  0  0  0  0  0  0  0  0
  186.3140  178.5200  144.0420 C   0  0  0  0  0  0  0  0  0  0  0  0
  185.2190  179.0070  146.2190 C   0  0  0  0  0  3  0  0  0  0  0  0
  186.4160  176.7990  147.4350 C   0  0  0  0  0  3  0  0  0  0  0  0
  186.0690  178.1850  145.4630 C   0  0  0  0  0  0  0  0  0  0  0  0
  187.5050  176.2460  145.4060 F   0  0  0  0  0  0  0  0  0  0  0  0
  185.5670  177.6260  148.1720 C   0  0  0  0  0  3  0  0  0  0  0  0
  186.6720  177.0720  146.0870 C   0  0  0  0  0  0  0  0  0  0  0  0
  184.9690  178.7310  147.5640 C   0  0  0  0  0  3  0  0  0  0  0  0
  188.9460  175.9050  142.0360 N   0  0  0  0  0  2  0  0  0  0  0  0
  190.4470  176.6520  146.7300 C   0  0  0  0  0  3  0  0  0  0  0  0
  191.3730  175.9820  143.1890 N   0  0  0  0  0  2  0  0  0  0  0  0
  189.2950  173.4700  141.8070 C   0  0  0  0  0  2  0  0  0  0  0  0
  190.9250  173.3110  144.2260 O   0  0  0  0  0  0  0  0  0  0  0  0
  191.2820  175.0290  142.0860 C   0  0  0  0  0  2  0  0  0  0  0  0
  190.7340  174.4330  145.0420 C   0  0  0  0  0  0  0  0  0  0  0  0
  189.8850  172.4920  143.8140 N   0  0  0  0  0  0  0  0  0  0  0  0
  188.9120  173.3020  143.2030 N   0  0  0  0  0  2  0  0  0  0  0  0
  190.3140  174.2650  146.3680 C   0  0  0  0  0  3  0  0  0  0  0  0
  190.9930  175.7310  144.5500 C   0  0  0  0  0  0  0  0  0  0  0  0
  189.3170  171.9440  144.9150 O   0  0  0  0  0  1  0  0  0  0  0  0
  189.8530  174.8700  141.5450 C   0  0  2  0  0  3  0  0  0  0  0  0
  190.1690  175.3700  147.2100 C   0  0  0  0  0  3  0  0  0  0  0  0
  190.8550  176.8290  145.4060 C   0  0  0  0  0  3  0  0  0  0  0  0
  2 11  1  0  0  0  0
  3  1  2  0  0  0  0
  3  8  1  0  0  0  0
  4  3  1  0  0  0  0
  5  4  2  0  0  0  0
  5  9  1  0  0  0  0
  6  5  1  0  0  0  0
  7  8  1  0  0  0  0
  7 19  1  0  0  0  0
  8  2  2  0  0  0  0
  9  7  2  0  0  0  0
 10 11  2  0  0  0  0
 11 14  1  0  0  0  0
 12 18  1  0  0  0  0
 13 16  1  0  0  0  0
 14 17  1  0  0  0  0
 14 12  2  0  0  0  0
 15 17  1  0  0  0  0
 17 13  2  0  0  0  0
 18 16  2  0  0  0  0
 20 32  1  0  0  0  0
 21 29  1  0  0  0  0
 22 27  1  0  0  0  0
 23 25  1  0  0  0  0
 24 21  1  0  0  0  0
 25 28  1  0  0  0  0
 26 23  1  0  0  0  0
 26 30  1  0  0  0  0
 27 26  1  0  0  0  0
 28 32  2  0  0  0  0
 29 25  2  0  0  0  0
 29 33  1  0  0  0  0
 31 22  1  0  0  0  0
 31 19  1  1  0  0  0
 31 24  1  0  0  0  0
 33 20  2  0  0  0  0
M  END
>  <MODEL>
9

>  <REMARK>
 VINA RESULT:      -7.7      2.623      3.508
  Name = 
  4 active torsions:
  status: ('A' for Active; 'I' for Inactive)
    1  A    between atoms: N_1  and  C_24
    2  A    between atoms: N_1  and  C_29
    3  A    between atoms: N_6  and  C_21
    4  A    between atoms: C_13  and  C_21
                            x       y       z     vdW  Elec       q    Type
                         _______ _______ _______ _____ _____    ______ ____

>  <TORSDO>
F 4

$$$$
