=
 OpenBabel11062418583D

 51 56  0  0  1  0  0  0  0  0999 V2000
  195.0250  175.0960  141.8380 C   0  0  2  0  0  3  0  0  0  0  0  0
  195.0500  174.0300  142.9260 C   0  0  1  0  0  3  0  0  0  0  0  0
  196.2390  173.1120  142.7110 C   0  0  0  0  0  2  0  0  0  0  0  0
  196.2980  174.1790  143.7810 C   0  0  2  0  0  3  0  0  0  0  0  0
  196.0820  173.5920  145.0260 O   0  0  0  0  0  0  0  0  0  0  0  0
  197.2880  173.7670  145.7120 C   0  0  0  0  0  1  0  0  0  0  0  0
  193.8790  175.9800  142.0170 N   0  0  0  0  0  2  0  0  0  0  0  0
  193.2570  175.6580  143.2940 C   0  0  0  0  0  2  0  0  0  0  0  0
  192.6810  176.8260  143.8690 O   0  0  0  0  0  0  0  0  0  0  0  0
  192.9630  176.1990  146.5500 C   0  0  0  0  0  1  0  0  0  0  0  0
  191.6250  176.4990  145.9580 C   0  0  0  0  0  0  0  0  0  0  0  0
  191.5220  176.7980  144.6550 C   0  0  0  0  0  0  0  0  0  0  0  0
  188.4920  176.8570  142.3460 C   0  0  0  0  0  0  0  0  0  0  0  0
  188.2070  175.9180  141.4290 N   0  0  0  0  0  0  0  0  0  0  0  0
  189.1580  175.0270  141.5350 O   0  0  0  0  0  0  0  0  0  0  0  0
  190.2380  177.1280  144.1030 N   0  0  0  0  0  2  0  0  0  0  0  0
  190.0390  175.3000  142.4600 N   0  0  0  0  0  0  0  0  0  0  0  0
  189.6380  176.4690  142.9840 C   0  0  0  0  0  0  0  0  0  0  0  0
  187.6350  178.0410  142.6610 C   0  0  0  0  0  2  0  0  0  0  0  0
  186.3610  177.6160  143.3840 C   0  0  2  0  0  3  0  0  0  0  0  0
  185.8130  179.1690  145.2710 C   0  0  1  0  0  3  0  0  0  0  0  0
  185.2960  179.8600  144.0220 C   0  0  0  0  0  2  0  0  0  0  0  0
  185.7750  176.7560  145.6490 C   0  0  0  0  0  2  0  0  0  0  0  0
  184.9850  177.4460  146.7390 C   0  0  0  0  0  2  0  0  0  0  0  0
  184.6590  178.8170  146.1920 C   0  0  0  0  0  2  0  0  0  0  0  0
  184.9660  178.5970  142.7600 S   0  0  0  0  0  0  0  0  0  0  0  0
  186.4870  177.8580  144.8850 C   0  0  1  0  0  3  0  0  0  0  0  0
  190.3810  177.5290  147.7570 F   0  0  0  0  0  0  0  0  0  0  0  0
  190.4040  176.4800  146.8480 C   0  0  2  0  0  3  0  0  0  0  0  0
  190.1980  175.2280  147.4660 O   0  0  0  0  0  0  0  0  0  0  0  0
  189.3780  174.4530  146.6340 C   0  0  0  0  0  1  0  0  0  0  0  0
  194.9220  174.4390  140.4640 C   0  0  0  0  0  2  0  0  0  0  0  0
  193.4500  172.4540  140.0060 C   0  0  0  0  0  2  0  0  0  0  0  0
  193.0290  174.5570  138.9640 O   0  0  0  0  0  0  0  0  0  0  0  0
  192.1190  173.6410  138.4140 C   0  0  2  0  0  3  0  0  0  0  0  0
  192.5010  172.2430  138.8650 C   0  0  2  0  0  3  0  0  0  0  0  0
  193.5100  173.9600  140.1400 C   0  0  2  0  0  3  0  0  0  0  0  0
  190.9170  170.4820  138.0940 C   0  0  0  0  0  1  0  0  0  0  0  0
  191.2970  171.3700  139.2640 C   0  0  2  0  0  3  0  0  0  0  0  0
  190.0750  172.1660  139.7490 C   0  0  0  0  0  3  0  0  0  0  0  0
  188.9660  171.8840  138.9480 O   0  0  0  0  0  1  0  0  0  0  0  0
  189.7710  171.8420  141.0750 O   0  0  0  0  0  1  0  0  0  0  0  0
  192.1660  173.7210  136.8980 C   0  0  0  0  0  2  0  0  0  0  0  0
  193.0640  174.7880  136.4800 N   0  0  0  0  0  2  0  0  0  0  0  0
  192.6150  175.9260  135.7420 C   0  0  0  0  0  0  0  0  0  0  0  0
  191.4070  176.0170  135.3910 O   0  0  0  0  0  0  0  0  0  0  0  0
  194.8920  176.7960  135.2420 N   0  0  0  0  0  0  0  0  0  0  0  0
  193.5670  176.9780  135.3650 C   0  0  2  0  0  3  0  0  0  0  0  0
  193.2700  178.3020  135.1310 C   0  0  0  0  0  3  0  0  0  0  0  0
  195.3960  177.9780  134.9370 N   0  0  0  0  0  0  0  0  0  0  0  0
  194.4460  178.8990  134.8620 N   0  0  0  0  0  0  0  0  0  0  0  0
  1 32  1  6  0  0  0
  1  7  1  0  0  0  0
  2  1  1  6  0  0  0
  2  4  1  0  0  0  0
  3  2  1  0  0  0  0
  3  4  1  0  0  0  0
  4  5  1  1  0  0  0
  5  6  1  0  0  0  0
  7  8  1  0  0  0  0
  8  9  1  0  0  0  0
  9 12  1  0  0  0  0
 11 10  1  0  0  0  0
 11 29  1  0  0  0  0
 12 11  2  0  0  0  0
 13 19  1  0  0  0  0
 13 18  1  0  0  0  0
 14 15  1  0  0  0  0
 14 13  2  0  0  0  0
 15 17  1  0  0  0  0
 16 12  1  0  0  0  0
 17 18  2  0  0  0  0
 18 16  1  0  0  0  0
 20 19  1  6  0  0  0
 20 27  1  0  0  0  0
 21 22  1  6  0  0  0
 21 25  1  0  0  0  0
 23 24  1  0  0  0  0
 25 24  1  0  0  0  0
 26 20  1  0  0  0  0
 26 22  1  0  0  0  0
 27 21  1  0  0  0  0
 27 23  1  1  0  0  0
 29 30  1  0  0  0  0
 29 28  1  1  0  0  0
 31 30  1  0  0  0  0
 33 37  1  0  0  0  0
 34 37  1  0  0  0  0
 35 43  1  6  0  0  0
 35 36  1  0  0  0  0
 35 34  1  0  0  0  0
 36 39  1  1  0  0  0
 36 33  1  0  0  0  0
 37 32  1  6  0  0  0
 39 38  1  6  0  0  0
 39 40  1  0  0  0  0
 40 42  1  0  0  0  0
 41 40  1  0  0  0  0
 44 43  1  0  0  0  0
 45 44  1  0  0  0  0
 46 45  2  0  0  0  0
 47 48  1  0  0  0  0
 48 45  1  1  0  0  0
 49 48  1  0  0  0  0
 50 47  2  0  0  0  0
 51 50  1  0  0  0  0
 51 49  2  0  0  0  0
M  END
>  <MODEL>
1

>  <REMARK>
 VINA RESULT:      -6.8      0.000      0.000
  Name = 
  18 active torsions:
  status: ('A' for Active; 'I' for Inactive)
    1  A    between atoms: C_1  and  C_12
    2  A    between atoms: C_2  and  N_11
    3  A    between atoms: C_2  and  C_31
    4  A    between atoms: C_4  and  C_12
    5  A    between atoms: C_5  and  C_40
    6  A    between atoms: C_7  and  C_40
    7  A    between atoms: C_7  and  C_45
    8  A    between atoms: C_8  and  C_39
    9  A    between atoms: O_10  and  C_49
   10  A    between atoms: O_10  and  C_50
   11  A    between atoms: C_13  and  C_28
   12  A    between atoms: O_14  and  C_47
   13  A    between atoms: N_18  and  C_40
   14  A    between atoms: N_18  and  C_50
   15  A    between atoms: N_22  and  C_49
   16  A    between atoms: O_26  and  C_36
   17  A    between atoms: C_27  and  C_47
   18  A    between atoms: C_39  and  C_41
                            x       y       z     vdW  Elec       q    Type
                         _______ _______ _______ _____ _____    ______ ____

>  <TORSDO>
F 18

$$$$
=
 OpenBabel11062418583D

 51 56  0  0  1  0  0  0  0  0999 V2000
  194.4790  174.5840  143.3190 C   0  0  2  0  0  3  0  0  0  0  0  0
  194.7340  174.0290  144.7150 C   0  0  1  0  0  3  0  0  0  0  0  0
  194.2940  172.5770  144.7730 C   0  0  0  0  0  2  0  0  0  0  0  0
  195.7640  172.9120  144.6580 C   0  0  2  0  0  3  0  0  0  0  0  0
  196.3650  172.7700  145.9070 O   0  0  0  0  0  0  0  0  0  0  0  0
  196.8370  171.4530  145.9220 C   0  0  0  0  0  1  0  0  0  0  0  0
  194.8110  176.0030  143.2680 N   0  0  0  0  0  2  0  0  0  0  0  0
  195.2190  176.3220  141.9070 C   0  0  0  0  0  2  0  0  0  0  0  0
  196.0200  175.2730  141.3750 O   0  0  0  0  0  0  0  0  0  0  0  0
  197.9410  175.6930  139.4270 C   0  0  0  0  0  1  0  0  0  0  0  0
  196.7120  174.8920  139.1470 C   0  0  0  0  0  0  0  0  0  0  0  0
  195.8000  174.7080  140.1120 C   0  0  0  0  0  0  0  0  0  0  0  0
  193.5050  171.6840  139.7850 C   0  0  0  0  0  0  0  0  0  0  0  0
  193.7190  170.4910  140.3640 N   0  0  0  0  0  0  0  0  0  0  0  0
  194.8290  170.6270  141.0410 O   0  0  0  0  0  0  0  0  0  0  0  0
  194.6420  173.9000  139.8490 N   0  0  0  0  0  2  0  0  0  0  0  0
  195.3560  171.8200  140.9630 N   0  0  0  0  0  0  0  0  0  0  0  0
  194.5300  172.5090  140.1570 C   0  0  0  0  0  0  0  0  0  0  0  0
  192.3010  172.0450  138.9740 C   0  0  0  0  0  2  0  0  0  0  0  0
  191.0220  171.5730  139.6570 C   0  0  2  0  0  3  0  0  0  0  0  0
  189.8670  173.4500  140.8460 C   0  0  1  0  0  3  0  0  0  0  0  0
  189.4590  173.5880  139.3900 C   0  0  0  0  0  2  0  0  0  0  0  0
  190.2160  171.3280  142.0030 C   0  0  0  0  0  2  0  0  0  0  0  0
  189.1300  172.1100  142.7090 C   0  0  0  0  0  2  0  0  0  0  0  0
  188.6550  173.1330  141.7030 C   0  0  0  0  0  2  0  0  0  0  0  0
  189.6010  171.9620  138.5960 S   0  0  0  0  0  0  0  0  0  0  0  0
  190.8330  172.2810  140.9950 C   0  0  1  0  0  3  0  0  0  0  0  0
  197.0130  172.9840  137.6940 F   0  0  0  0  0  0  0  0  0  0  0  0
  196.5250  174.2810  137.7770 C   0  0  2  0  0  3  0  0  0  0  0  0
  197.0120  175.1070  136.7410 O   0  0  0  0  0  0  0  0  0  0  0  0
  195.9150  175.6710  136.0740 C   0  0  0  0  0  1  0  0  0  0  0  0
  193.0080  174.4160  142.9500 C   0  0  0  0  0  2  0  0  0  0  0  0
  191.0990  174.5460  144.5790 C   0  0  0  0  0  2  0  0  0  0  0  0
  191.3930  176.2150  142.9010 O   0  0  0  0  0  0  0  0  0  0  0  0
  190.1870  176.5060  143.5570 C   0  0  2  0  0  3  0  0  0  0  0  0
  189.8350  175.3450  144.4690 C   0  0  2  0  0  3  0  0  0  0  0  0
  192.0870  175.3340  143.7470 C   0  0  2  0  0  3  0  0  0  0  0  0
  189.7000  177.2200  146.1050 C   0  0  0  0  0  1  0  0  0  0  0  0
  189.3000  175.7780  145.8470 C   0  0  2  0  0  3  0  0  0  0  0  0
  189.7550  174.8820  147.0100 C   0  0  0  0  0  3  0  0  0  0  0  0
  190.6470  175.5730  147.8320 O   0  0  0  0  0  1  0  0  0  0  0  0
  188.6570  174.4730  147.7740 O   0  0  0  0  0  1  0  0  0  0  0  0
  189.0830  176.7070  142.5350 C   0  0  0  0  0  2  0  0  0  0  0  0
  187.9940  177.4750  143.1190 N   0  0  0  0  0  2  0  0  0  0  0  0
  186.6780  176.9420  143.2820 C   0  0  0  0  0  0  0  0  0  0  0  0
  186.4110  175.7770  142.8780 O   0  0  0  0  0  0  0  0  0  0  0  0
  185.1780  177.6090  145.1530 N   0  0  0  0  0  0  0  0  0  0  0  0
  185.6250  177.7620  143.8950 C   0  0  0  0  0  0  0  0  0  0  0  0
  184.9060  178.7610  143.2780 C   0  0  0  0  0  3  0  0  0  0  0  0
  184.2120  178.4960  145.3060 N   0  0  0  0  0  2  0  0  0  0  0  0
  184.0280  179.2020  144.1990 N   0  0  0  0  0  0  0  0  0  0  0  0
  1 32  1  1  0  0  0
  2  1  1  6  0  0  0
  2  3  1  0  0  0  0
  4  2  1  0  0  0  0
  4  3  1  0  0  0  0
  4  5  1  1  0  0  0
  5  6  1  0  0  0  0
  7  1  1  0  0  0  0
  8  7  1  0  0  0  0
  9  8  1  0  0  0  0
 11 10  1  0  0  0  0
 11 12  2  0  0  0  0
 12  9  1  0  0  0  0
 13 18  1  0  0  0  0
 13 14  2  0  0  0  0
 14 15  1  0  0  0  0
 16 12  1  0  0  0  0
 16 18  1  0  0  0  0
 17 15  1  0  0  0  0
 18 17  2  0  0  0  0
 19 13  1  0  0  0  0
 20 19  1  6  0  0  0
 20 27  1  0  0  0  0
 21 22  1  6  0  0  0
 21 27  1  0  0  0  0
 21 25  1  0  0  0  0
 23 24  1  0  0  0  0
 25 24  1  0  0  0  0
 26 22  1  0  0  0  0
 26 20  1  0  0  0  0
 27 23  1  1  0  0  0
 29 28  1  1  0  0  0
 29 11  1  0  0  0  0
 30 29  1  0  0  0  0
 31 30  1  0  0  0  0
 34 35  1  0  0  0  0
 34 37  1  0  0  0  0
 35 43  1  6  0  0  0
 35 36  1  0  0  0  0
 36 33  1  0  0  0  0
 36 39  1  1  0  0  0
 37 32  1  6  0  0  0
 37 33  1  0  0  0  0
 39 38  1  1  0  0  0
 39 40  1  0  0  0  0
 40 42  1  0  0  0  0
 40 41  1  0  0  0  0
 43 44  1  0  0  0  0
 44 45  1  0  0  0  0
 45 48  1  0  0  0  0
 46 45  2  0  0  0  0
 47 50  1  0  0  0  0
 48 47  2  0  0  0  0
 49 48  1  0  0  0  0
 49 51  2  0  0  0  0
 51 50  1  0  0  0  0
M  END
>  <MODEL>
2

>  <REMARK>
 VINA RESULT:      -6.7      3.573      8.334
  Name = 
  18 active torsions:
  status: ('A' for Active; 'I' for Inactive)
    1  A    between atoms: C_1  and  C_12
    2  A    between atoms: C_2  and  N_11
    3  A    between atoms: C_2  and  C_31
    4  A    between atoms: C_4  and  C_12
    5  A    between atoms: C_5  and  C_40
    6  A    between atoms: C_7  and  C_40
    7  A    between atoms: C_7  and  C_45
    8  A    between atoms: C_8  and  C_39
    9  A    between atoms: O_10  and  C_49
   10  A    between atoms: O_10  and  C_50
   11  A    between atoms: C_13  and  C_28
   12  A    between atoms: O_14  and  C_47
   13  A    between atoms: N_18  and  C_40
   14  A    between atoms: N_18  and  C_50
   15  A    between atoms: N_22  and  C_49
   16  A    between atoms: O_26  and  C_36
   17  A    between atoms: C_27  and  C_47
   18  A    between atoms: C_39  and  C_41
                            x       y       z     vdW  Elec       q    Type
                         _______ _______ _______ _____ _____    ______ ____

>  <TORSDO>
F 18

$$$$
=
 OpenBabel11062418583D

 51 56  0  0  1  0  0  0  0  0999 V2000
  195.6920  174.7050  143.3140 C   0  0  2  0  0  3  0  0  0  0  0  0
  195.5230  173.8860  144.5890 C   0  0  1  0  0  3  0  0  0  0  0  0
  195.2520  172.4360  144.2280 C   0  0  0  0  0  2  0  0  0  0  0  0
  196.6290  172.8480  144.6980 C   0  0  2  0  0  3  0  0  0  0  0  0
  196.7880  172.4780  146.0330 O   0  0  0  0  0  0  0  0  0  0  0  0
  196.8700  171.0820  146.0020 C   0  0  0  0  0  1  0  0  0  0  0  0
  195.2520  176.0780  143.5310 N   0  0  0  0  0  2  0  0  0  0  0  0
  193.8070  176.1210  143.3550 C   0  0  0  0  0  2  0  0  0  0  0  0
  193.2270  177.0380  144.2750 O   0  0  0  0  0  0  0  0  0  0  0  0
  193.5700  176.0170  146.8250 C   0  0  0  0  0  1  0  0  0  0  0  0
  192.2080  176.2540  146.2590 C   0  0  0  0  0  0  0  0  0  0  0  0
  192.0760  176.7490  145.0200 C   0  0  0  0  0  0  0  0  0  0  0  0
  188.9420  176.5630  142.8600 C   0  0  0  0  0  0  0  0  0  0  0  0
  188.6260  175.5380  142.0530 N   0  0  0  0  0  0  0  0  0  0  0  0
  189.5900  174.6680  142.2010 O   0  0  0  0  0  0  0  0  0  0  0  0
  190.7640  177.0150  144.4990 N   0  0  0  0  0  2  0  0  0  0  0  0
  190.5100  175.0350  143.0520 N   0  0  0  0  0  0  0  0  0  0  0  0
  190.1200  176.2470  143.4790 C   0  0  0  0  0  0  0  0  0  0  0  0
  188.0880  177.7670  143.0990 C   0  0  0  0  0  2  0  0  0  0  0  0
  186.7110  177.3660  143.6180 C   0  0  2  0  0  3  0  0  0  0  0  0
  185.7400  179.1280  145.1090 C   0  0  1  0  0  3  0  0  0  0  0  0
  185.4590  179.6020  143.6940 C   0  0  0  0  0  2  0  0  0  0  0  0
  185.7150  176.7950  145.8310 C   0  0  0  0  0  2  0  0  0  0  0  0
  184.6980  177.5780  146.6320 C   0  0  0  0  0  2  0  0  0  0  0  0
  184.4390  178.8340  145.8320 C   0  0  0  0  0  2  0  0  0  0  0  0
  185.4350  178.1560  142.5960 S   0  0  0  0  0  0  0  0  0  0  0  0
  186.5260  177.8230  145.0620 C   0  0  1  0  0  3  0  0  0  0  0  0
  191.2370  176.0780  148.4660 F   0  0  0  0  0  0  0  0  0  0  0  0
  190.9940  175.9490  147.1060 C   0  0  2  0  0  3  0  0  0  0  0  0
  190.3980  174.7110  146.7800 O   0  0  0  0  0  0  0  0  0  0  0  0
  189.0890  174.7040  147.2830 C   0  0  0  0  0  1  0  0  0  0  0  0
  194.8590  174.0990  142.1890 C   0  0  0  0  0  2  0  0  0  0  0  0
  195.5030  174.8900  139.8920 C   0  0  0  0  0  2  0  0  0  0  0  0
  195.3350  172.5620  140.3830 O   0  0  0  0  0  0  0  0  0  0  0  0
  195.5890  172.6710  139.0070 C   0  0  2  0  0  3  0  0  0  0  0  0
  195.4670  174.1280  138.6020 C   0  0  2  0  0  3  0  0  0  0  0  0
  195.6780  173.8070  140.9350 C   0  0  2  0  0  3  0  0  0  0  0  0
  197.5980  175.4010  138.3800 C   0  0  0  0  0  1  0  0  0  0  0  0
  196.5600  174.5930  137.6220 C   0  0  2  0  0  3  0  0  0  0  0  0
  196.0320  175.3960  136.4220 C   0  0  0  0  0  3  0  0  0  0  0  0
  196.9510  176.3810  136.0570 O   0  0  0  0  0  1  0  0  0  0  0  0
  195.8080  174.5550  135.3270 O   0  0  0  0  0  1  0  0  0  0  0  0
  194.5820  171.8380  138.2340 C   0  0  0  0  0  2  0  0  0  0  0  0
  193.3510  172.5910  138.0420 N   0  0  0  0  0  2  0  0  0  0  0  0
  192.0800  172.1150  138.4900 C   0  0  0  0  0  0  0  0  0  0  0  0
  191.9860  170.9850  139.0420 O   0  0  0  0  0  0  0  0  0  0  0  0
  189.9390  173.1550  139.2190 N   0  0  0  0  0  0  0  0  0  0  0  0
  190.8770  172.9300  138.2830 C   0  0  0  0  0  0  0  0  0  0  0  0
  190.4960  173.5380  137.1080 C   0  0  0  0  0  3  0  0  0  0  0  0
  189.0090  173.8870  138.6340 N   0  0  0  0  0  2  0  0  0  0  0  0
  189.3170  174.1340  137.3690 N   0  0  0  0  0  0  0  0  0  0  0  0
  1 32  1  6  0  0  0
  1  7  1  0  0  0  0
  2  1  1  6  0  0  0
  2  4  1  0  0  0  0
  3  2  1  0  0  0  0
  3  4  1  0  0  0  0
  4  5  1  1  0  0  0
  6  5  1  0  0  0  0
  8  7  1  0  0  0  0
  8  9  1  0  0  0  0
  9 12  1  0  0  0  0
 11 10  1  0  0  0  0
 11 29  1  0  0  0  0
 12 11  2  0  0  0  0
 13 19  1  0  0  0  0
 13 18  1  0  0  0  0
 14 15  1  0  0  0  0
 14 13  2  0  0  0  0
 15 17  1  0  0  0  0
 16 12  1  0  0  0  0
 17 18  2  0  0  0  0
 18 16  1  0  0  0  0
 20 19  1  6  0  0  0
 20 27  1  0  0  0  0
 21 22  1  6  0  0  0
 21 25  1  0  0  0  0
 23 24  1  0  0  0  0
 25 24  1  0  0  0  0
 26 20  1  0  0  0  0
 26 22  1  0  0  0  0
 27 21  1  0  0  0  0
 27 23  1  1  0  0  0
 29 28  1  1  0  0  0
 30 29  1  0  0  0  0
 30 31  1  0  0  0  0
 33 37  1  0  0  0  0
 34 37  1  0  0  0  0
 35 43  1  6  0  0  0
 35 34  1  0  0  0  0
 36 39  1  6  0  0  0
 36 35  1  0  0  0  0
 36 33  1  0  0  0  0
 37 32  1  1  0  0  0
 39 38  1  1  0  0  0
 40 39  1  0  0  0  0
 41 40  1  0  0  0  0
 42 40  1  0  0  0  0
 44 43  1  0  0  0  0
 44 45  1  0  0  0  0
 45 46  2  0  0  0  0
 48 45  1  0  0  0  0
 48 47  2  0  0  0  0
 49 51  2  0  0  0  0
 49 48  1  0  0  0  0
 50 47  1  0  0  0  0
 51 50  1  0  0  0  0
M  END
>  <MODEL>
3

>  <REMARK>
 VINA RESULT:      -6.7      2.316      3.855
  Name = 
  18 active torsions:
  status: ('A' for Active; 'I' for Inactive)
    1  A    between atoms: C_1  and  C_12
    2  A    between atoms: C_2  and  N_11
    3  A    between atoms: C_2  and  C_31
    4  A    between atoms: C_4  and  C_12
    5  A    between atoms: C_5  and  C_40
    6  A    between atoms: C_7  and  C_40
    7  A    between atoms: C_7  and  C_45
    8  A    between atoms: C_8  and  C_39
    9  A    between atoms: O_10  and  C_49
   10  A    between atoms: O_10  and  C_50
   11  A    between atoms: C_13  and  C_28
   12  A    between atoms: O_14  and  C_47
   13  A    between atoms: N_18  and  C_40
   14  A    between atoms: N_18  and  C_50
   15  A    between atoms: N_22  and  C_49
   16  A    between atoms: O_26  and  C_36
   17  A    between atoms: C_27  and  C_47
   18  A    between atoms: C_39  and  C_41
                            x       y       z     vdW  Elec       q    Type
                         _______ _______ _______ _____ _____    ______ ____

>  <TORSDO>
F 18

$$$$
=
 OpenBabel11062418583D

 51 56  0  0  1  0  0  0  0  0999 V2000
  193.9460  172.5650  143.5740 C   0  0  2  0  0  3  0  0  0  0  0  0
  195.0820  171.8910  144.3340 C   0  0  1  0  0  3  0  0  0  0  0  0
  196.3640  171.9950  143.5270 C   0  0  0  0  0  2  0  0  0  0  0  0
  196.1430  172.9140  144.7080 C   0  0  2  0  0  3  0  0  0  0  0  0
  196.8770  172.4450  145.7970 O   0  0  0  0  0  0  0  0  0  0  0  0
  197.1580  173.5890  146.5500 C   0  0  0  0  0  1  0  0  0  0  0  0
  192.7680  172.6880  144.4250 N   0  0  0  0  0  2  0  0  0  0  0  0
  191.9060  171.5430  144.1710 C   0  0  0  0  0  2  0  0  0  0  0  0
  190.5390  171.9360  144.2130 O   0  0  0  0  0  0  0  0  0  0  0  0
  190.1540  171.0690  141.6130 C   0  0  0  0  0  1  0  0  0  0  0  0
  189.7750  172.4500  142.0360 C   0  0  0  0  0  0  0  0  0  0  0  0
  189.9760  172.8400  143.3030 C   0  0  0  0  0  0  0  0  0  0  0  0
  188.9060  175.7720  145.4890 C   0  0  0  0  0  0  0  0  0  0  0  0
  189.0600  175.8320  146.8220 N   0  0  0  0  0  0  0  0  0  0  0  0
  189.6500  174.7140  147.1550 O   0  0  0  0  0  0  0  0  0  0  0  0
  189.5690  174.1550  143.7130 N   0  0  0  0  0  2  0  0  0  0  0  0
  189.9080  173.9280  146.1450 N   0  0  0  0  0  0  0  0  0  0  0  0
  189.4320  174.5810  145.0710 C   0  0  0  0  0  0  0  0  0  0  0  0
  188.3540  176.8680  144.6350 C   0  0  0  0  0  2  0  0  0  0  0  0
  186.8290  176.8320  144.6180 C   0  0  2  0  0  3  0  0  0  0  0  0
  185.8560  179.1340  144.4670 C   0  0  1  0  0  3  0  0  0  0  0  0
  186.2320  178.7650  143.0440 C   0  0  0  0  0  2  0  0  0  0  0  0
  184.9920  177.5710  146.1330 C   0  0  0  0  0  2  0  0  0  0  0  0
  183.9840  178.6760  145.9140 C   0  0  0  0  0  2  0  0  0  0  0  0
  184.3520  179.2980  144.5860 C   0  0  0  0  0  2  0  0  0  0  0  0
  186.2480  176.9550  142.9020 S   0  0  0  0  0  0  0  0  0  0  0  0
  186.2540  178.0030  145.4080 C   0  0  1  0  0  3  0  0  0  0  0  0
  187.7840  173.1830  140.8770 F   0  0  0  0  0  0  0  0  0  0  0  0
  189.1490  173.3850  141.0270 C   0  0  2  0  0  3  0  0  0  0  0  0
  189.8310  173.3900  139.7910 O   0  0  0  0  0  0  0  0  0  0  0  0
  188.8990  173.1490  138.7710 C   0  0  0  0  0  1  0  0  0  0  0  0
  193.5740  171.7360  142.3470 C   0  0  0  0  0  2  0  0  0  0  0  0
  194.9120  172.5290  140.3730 C   0  0  0  0  0  2  0  0  0  0  0  0
  193.1850  173.8840  141.3060 O   0  0  0  0  0  0  0  0  0  0  0  0
  193.8110  174.6510  140.3120 C   0  0  2  0  0  3  0  0  0  0  0  0
  195.0640  173.9280  139.8540 C   0  0  2  0  0  3  0  0  0  0  0  0
  193.5630  172.5550  141.0590 C   0  0  2  0  0  3  0  0  0  0  0  0
  196.4430  174.8800  138.0090 C   0  0  0  0  0  1  0  0  0  0  0  0
  195.2770  173.9610  138.3290 C   0  0  2  0  0  3  0  0  0  0  0  0
  194.0340  174.3790  137.5280 C   0  0  0  0  0  3  0  0  0  0  0  0
  194.2290  175.6370  136.9530 O   0  0  0  0  0  1  0  0  0  0  0  0
  193.7670  173.4530  136.5140 O   0  0  0  0  0  1  0  0  0  0  0  0
  194.1810  176.0130  140.8720 C   0  0  0  0  0  2  0  0  0  0  0  0
  193.6820  176.1460  142.2330 N   0  0  0  0  0  2  0  0  0  0  0  0
  194.5490  176.1880  143.3690 C   0  0  0  0  0  0  0  0  0  0  0  0
  195.7950  176.0670  143.2210 O   0  0  0  0  0  0  0  0  0  0  0  0
  192.6850  176.1870  145.0190 N   0  0  0  0  0  0  0  0  0  0  0  0
  193.9850  176.3420  144.7160 C   0  0  0  0  0  0  0  0  0  0  0  0
  194.6720  176.7130  145.8510 C   0  0  0  0  0  3  0  0  0  0  0  0
  192.5770  176.4510  146.3090 N   0  0  0  0  0  2  0  0  0  0  0  0
  193.7530  176.7680  146.8330 N   0  0  0  0  0  0  0  0  0  0  0  0
  1 32  1  6  0  0  0
  1  7  1  0  0  0  0
  2  1  1  6  0  0  0
  2  4  1  0  0  0  0
  3  2  1  0  0  0  0
  3  4  1  0  0  0  0
  4  5  1  1  0  0  0
  5  6  1  0  0  0  0
  8  9  1  0  0  0  0
  8  7  1  0  0  0  0
 10 11  1  0  0  0  0
 11 12  2  0  0  0  0
 12 16  1  0  0  0  0
 12  9  1  0  0  0  0
 13 14  2  0  0  0  0
 14 15  1  0  0  0  0
 16 18  1  0  0  0  0
 17 15  1  0  0  0  0
 18 13  1  0  0  0  0
 18 17  2  0  0  0  0
 19 13  1  0  0  0  0
 20 19  1  6  0  0  0
 20 27  1  0  0  0  0
 21 22  1  6  0  0  0
 21 25  1  0  0  0  0
 21 27  1  0  0  0  0
 24 23  1  0  0  0  0
 25 24  1  0  0  0  0
 26 22  1  0  0  0  0
 26 20  1  0  0  0  0
 27 23  1  6  0  0  0
 29 28  1  6  0  0  0
 29 11  1  0  0  0  0
 30 29  1  0  0  0  0
 31 30  1  0  0  0  0
 33 37  1  0  0  0  0
 35 43  1  1  0  0  0
 35 34  1  0  0  0  0
 36 39  1  6  0  0  0
 36 35  1  0  0  0  0
 36 33  1  0  0  0  0
 37 34  1  0  0  0  0
 37 32  1  1  0  0  0
 39 38  1  1  0  0  0
 40 39  1  0  0  0  0
 41 40  1  0  0  0  0
 42 40  1  0  0  0  0
 43 44  1  0  0  0  0
 44 45  1  0  0  0  0
 45 48  1  0  0  0  0
 46 45  2  0  0  0  0
 47 50  1  0  0  0  0
 48 47  2  0  0  0  0
 48 49  1  0  0  0  0
 49 51  2  0  0  0  0
 50 51  1  0  0  0  0
M  END
>  <MODEL>
4

>  <REMARK>
 VINA RESULT:      -6.7      3.091      5.607
  Name = 
  18 active torsions:
  status: ('A' for Active; 'I' for Inactive)
    1  A    between atoms: C_1  and  C_12
    2  A    between atoms: C_2  and  N_11
    3  A    between atoms: C_2  and  C_31
    4  A    between atoms: C_4  and  C_12
    5  A    between atoms: C_5  and  C_40
    6  A    between atoms: C_7  and  C_40
    7  A    between atoms: C_7  and  C_45
    8  A    between atoms: C_8  and  C_39
    9  A    between atoms: O_10  and  C_49
   10  A    between atoms: O_10  and  C_50
   11  A    between atoms: C_13  and  C_28
   12  A    between atoms: O_14  and  C_47
   13  A    between atoms: N_18  and  C_40
   14  A    between atoms: N_18  and  C_50
   15  A    between atoms: N_22  and  C_49
   16  A    between atoms: O_26  and  C_36
   17  A    between atoms: C_27  and  C_47
   18  A    between atoms: C_39  and  C_41
                            x       y       z     vdW  Elec       q    Type
                         _______ _______ _______ _____ _____    ______ ____

>  <TORSDO>
F 18

$$$$
=
 OpenBabel11062418583D

 51 56  0  0  1  0  0  0  0  0999 V2000
  195.0370  176.1180  142.1890 C   0  0  2  0  0  3  0  0  0  0  0  0
  195.7570  175.1090  141.3020 C   0  0  1  0  0  3  0  0  0  0  0  0
  195.1180  175.0960  139.9260 C   0  0  0  0  0  2  0  0  0  0  0  0
  196.4300  175.8190  140.1380 C   0  0  2  0  0  3  0  0  0  0  0  0
  197.4710  175.0300  139.6520 O   0  0  0  0  0  0  0  0  0  0  0  0
  197.5190  175.3150  138.2840 C   0  0  0  0  0  1  0  0  0  0  0  0
  195.5620  176.0650  143.5490 N   0  0  0  0  0  2  0  0  0  0  0  0
  196.1840  174.7640  143.7420 C   0  0  0  0  0  2  0  0  0  0  0  0
  195.4660  174.0140  144.7150 O   0  0  0  0  0  0  0  0  0  0  0  0
  196.7100  172.0010  146.1510 C   0  0  0  0  0  1  0  0  0  0  0  0
  195.6150  171.7010  145.1810 C   0  0  0  0  0  0  0  0  0  0  0  0
  195.0330  172.6990  144.4990 C   0  0  0  0  0  0  0  0  0  0  0  0
  193.0980  171.9270  141.3090 C   0  0  0  0  0  0  0  0  0  0  0  0
  193.6470  171.4880  140.1650 N   0  0  0  0  0  0  0  0  0  0  0  0
  194.9260  171.3790  140.4120 O   0  0  0  0  0  0  0  0  0  0  0  0
  193.9520  172.4070  143.6000 N   0  0  0  0  0  2  0  0  0  0  0  0
  195.2600  171.7000  141.6330 N   0  0  0  0  0  0  0  0  0  0  0  0
  194.1080  172.0620  142.2210 C   0  0  0  0  0  0  0  0  0  0  0  0
  191.6340  172.1200  141.5440 C   0  0  0  0  0  2  0  0  0  0  0  0
  191.0840  173.2420  140.6690 C   0  0  2  0  0  3  0  0  0  0  0  0
  188.9400  172.5760  139.5590 C   0  0  1  0  0  3  0  0  0  0  0  0
  188.5480  173.0000  140.9620 C   0  0  0  0  0  2  0  0  0  0  0  0
  190.7110  173.6080  138.2310 C   0  0  0  0  0  2  0  0  0  0  0  0
  189.3980  173.7250  137.4900 C   0  0  0  0  0  2  0  0  0  0  0  0
  188.3280  173.5150  138.5360 C   0  0  0  0  0  2  0  0  0  0  0  0
  189.8070  174.1470  141.5910 S   0  0  0  0  0  0  0  0  0  0  0  0
  190.4530  172.6750  139.4010 C   0  0  1  0  0  3  0  0  0  0  0  0
  194.1890  169.8890  145.9080 F   0  0  0  0  0  0  0  0  0  0  0  0
  195.1640  170.2700  144.9960 C   0  0  2  0  0  3  0  0  0  0  0  0
  196.2420  169.3600  144.9490 O   0  0  0  0  0  0  0  0  0  0  0  0
  196.3640  168.8850  143.6350 C   0  0  0  0  0  1  0  0  0  0  0  0
  193.5440  175.8040  142.2320 C   0  0  0  0  0  2  0  0  0  0  0  0
  192.1710  175.3700  144.2910 C   0  0  0  0  0  2  0  0  0  0  0  0
  191.8930  177.3780  143.0350 O   0  0  0  0  0  0  0  0  0  0  0  0
  190.9100  177.3860  144.0360 C   0  0  2  0  0  3  0  0  0  0  0  0
  190.8890  176.0270  144.7100 C   0  0  2  0  0  3  0  0  0  0  0  0
  192.8410  176.4230  143.4360 C   0  0  2  0  0  3  0  0  0  0  0  0
  192.1130  175.9340  146.8780 C   0  0  0  0  0  1  0  0  0  0  0  0
  190.7450  176.0960  146.2410 C   0  0  2  0  0  3  0  0  0  0  0  0
  189.7590  175.0730  146.8280 C   0  0  0  0  0  3  0  0  0  0  0  0
  188.5210  175.6750  147.0650 O   0  0  0  0  0  1  0  0  0  0  0  0
  189.5800  174.0000  145.9480 O   0  0  0  0  0  1  0  0  0  0  0  0
  189.5530  177.6730  143.4180 C   0  0  0  0  0  2  0  0  0  0  0  0
  188.5350  177.7420  144.4560 N   0  0  0  0  0  2  0  0  0  0  0  0
  187.1450  177.8990  144.1610 C   0  0  0  0  0  0  0  0  0  0  0  0
  186.7610  178.0230  142.9660 O   0  0  0  0  0  0  0  0  0  0  0  0
  185.4160  176.8990  145.6460 N   0  0  0  0  0  0  0  0  0  0  0  0
  186.1640  177.9430  145.2520 C   0  0  0  0  0  0  0  0  0  0  0  0
  185.8230  179.0500  145.9970 C   0  0  0  0  0  3  0  0  0  0  0  0
  184.6370  177.3530  146.6110 N   0  0  0  0  0  2  0  0  0  0  0  0
  184.8610  178.6380  146.8440 N   0  0  0  0  0  0  0  0  0  0  0  0
  1 32  1  1  0  0  0
  1  7  1  0  0  0  0
  2  1  1  1  0  0  0
  3  4  1  0  0  0  0
  3  2  1  0  0  0  0
  4  5  1  6  0  0  0
  4  2  1  0  0  0  0
  6  5  1  0  0  0  0
  7  8  1  0  0  0  0
  8  9  1  0  0  0  0
 11 10  1  0  0  0  0
 12  9  1  0  0  0  0
 12 11  2  0  0  0  0
 13 19  1  0  0  0  0
 13 18  1  0  0  0  0
 14 15  1  0  0  0  0
 14 13  2  0  0  0  0
 15 17  1  0  0  0  0
 16 12  1  0  0  0  0
 17 18  2  0  0  0  0
 18 16  1  0  0  0  0
 20 19  1  1  0  0  0
 20 26  1  0  0  0  0
 21 25  1  6  0  0  0
 21 22  1  0  0  0  0
 22 26  1  0  0  0  0
 24 23  1  0  0  0  0
 24 25  1  0  0  0  0
 27 23  1  6  0  0  0
 27 21  1  0  0  0  0
 27 20  1  0  0  0  0
 29 11  1  0  0  0  0
 29 28  1  1  0  0  0
 30 29  1  0  0  0  0
 31 30  1  0  0  0  0
 33 36  1  0  0  0  0
 34 37  1  0  0  0  0
 34 35  1  0  0  0  0
 35 43  1  6  0  0  0
 35 36  1  0  0  0  0
 36 39  1  1  0  0  0
 37 32  1  6  0  0  0
 37 33  1  0  0  0  0
 39 40  1  0  0  0  0
 39 38  1  1  0  0  0
 40 41  1  0  0  0  0
 42 40  1  0  0  0  0
 43 44  1  0  0  0  0
 45 44  1  0  0  0  0
 45 48  1  0  0  0  0
 46 45  2  0  0  0  0
 47 50  1  0  0  0  0
 48 47  2  0  0  0  0
 48 49  1  0  0  0  0
 49 51  2  0  0  0  0
 50 51  1  0  0  0  0
M  END
>  <MODEL>
5

>  <REMARK>
 VINA RESULT:      -6.6      3.677      8.151
  Name = 
  18 active torsions:
  status: ('A' for Active; 'I' for Inactive)
    1  A    between atoms: C_1  and  C_12
    2  A    between atoms: C_2  and  N_11
    3  A    between atoms: C_2  and  C_31
    4  A    between atoms: C_4  and  C_12
    5  A    between atoms: C_5  and  C_40
    6  A    between atoms: C_7  and  C_40
    7  A    between atoms: C_7  and  C_45
    8  A    between atoms: C_8  and  C_39
    9  A    between atoms: O_10  and  C_49
   10  A    between atoms: O_10  and  C_50
   11  A    between atoms: C_13  and  C_28
   12  A    between atoms: O_14  and  C_47
   13  A    between atoms: N_18  and  C_40
   14  A    between atoms: N_18  and  C_50
   15  A    between atoms: N_22  and  C_49
   16  A    between atoms: O_26  and  C_36
   17  A    between atoms: C_27  and  C_47
   18  A    between atoms: C_39  and  C_41
                            x       y       z     vdW  Elec       q    Type
                         _______ _______ _______ _____ _____    ______ ____

>  <TORSDO>
F 18

$$$$
=
 OpenBabel11062418583D

 51 56  0  0  1  0  0  0  0  0999 V2000
  192.3460  173.4660  142.1410 C   0  0  2  0  0  3  0  0  0  0  0  0
  193.3630  173.4770  143.2760 C   0  0  1  0  0  3  0  0  0  0  0  0
  193.2940  172.1630  144.0320 C   0  0  0  0  0  2  0  0  0  0  0  0
  194.4170  172.4050  143.0480 C   0  0  2  0  0  3  0  0  0  0  0  0
  195.5760  172.7380  143.7480 O   0  0  0  0  0  0  0  0  0  0  0  0
  196.3270  173.4970  142.8450 C   0  0  0  0  0  1  0  0  0  0  0  0
  191.9690  174.8290  141.7820 N   0  0  0  0  0  2  0  0  0  0  0  0
  192.6380  175.7380  142.7010 C   0  0  0  0  0  2  0  0  0  0  0  0
  191.8130  176.8670  142.9640 O   0  0  0  0  0  0  0  0  0  0  0  0
  192.3920  176.1780  145.5820 C   0  0  0  0  0  1  0  0  0  0  0  0
  191.0010  176.5140  145.1550 C   0  0  0  0  0  0  0  0  0  0  0  0
  190.7530  176.8430  143.8800 C   0  0  0  0  0  0  0  0  0  0  0  0
  187.5390  177.1390  141.8560 C   0  0  0  0  0  0  0  0  0  0  0  0
  187.1970  176.3360  140.8350 N   0  0  0  0  0  0  0  0  0  0  0  0
  188.1720  175.4710  140.7310 O   0  0  0  0  0  0  0  0  0  0  0  0
  189.4210  177.2070  143.4870 N   0  0  0  0  0  2  0  0  0  0  0  0
  189.1220  175.6340  141.6120 N   0  0  0  0  0  0  0  0  0  0  0  0
  188.7420  176.7010  142.3350 C   0  0  0  0  0  0  0  0  0  0  0  0
  186.6870  178.2350  142.4110 C   0  0  0  0  0  2  0  0  0  0  0  0
  185.7800  177.7130  143.5210 C   0  0  2  0  0  3  0  0  0  0  0  0
  185.8300  179.2060  145.5300 C   0  0  1  0  0  3  0  0  0  0  0  0
  184.8630  179.8670  144.5660 C   0  0  0  0  0  2  0  0  0  0  0  0
  186.0870  176.7940  145.8170 C   0  0  0  0  0  2  0  0  0  0  0  0
  185.6880  177.4160  147.1370 C   0  0  0  0  0  2  0  0  0  0  0  0
  185.1000  178.7630  146.7850 C   0  0  0  0  0  2  0  0  0  0  0  0
  184.1930  178.5940  143.4580 S   0  0  0  0  0  0  0  0  0  0  0  0
  186.4100  177.9510  144.8890 C   0  0  1  0  0  3  0  0  0  0  0  0
  189.5210  177.7690  146.5970 F   0  0  0  0  0  0  0  0  0  0  0  0
  189.8910  176.4970  146.1810 C   0  0  2  0  0  3  0  0  0  0  0  0
  190.1620  175.6340  147.2650 O   0  0  0  0  0  0  0  0  0  0  0  0
  189.2040  174.6090  147.2640 C   0  0  0  0  0  1  0  0  0  0  0  0
  191.0910  172.7120  142.5710 C   0  0  0  0  0  2  0  0  0  0  0  0
  191.6380  171.3730  140.5160 C   0  0  0  0  0  2  0  0  0  0  0  0
  189.5000  172.3970  140.7770 O   0  0  0  0  0  0  0  0  0  0  0  0
  189.5280  171.8380  139.4910 C   0  0  2  0  0  3  0  0  0  0  0  0
  190.9440  171.3840  139.1860 C   0  0  2  0  0  3  0  0  0  0  0  0
  190.5510  171.7890  141.4830 C   0  0  2  0  0  3  0  0  0  0  0  0
  192.0100  169.1320  139.2140 C   0  0  0  0  0  1  0  0  0  0  0  0
  191.0200  170.0180  138.4800 C   0  0  2  0  0  3  0  0  0  0  0  0
  191.3800  170.0990  136.9880 C   0  0  0  0  0  3  0  0  0  0  0  0
  190.2360  170.3490  136.2270 O   0  0  0  0  0  1  0  0  0  0  0  0
  192.3090  171.1200  136.7610 O   0  0  0  0  0  1  0  0  0  0  0  0
  189.0920  172.8750  138.4710 C   0  0  0  0  0  2  0  0  0  0  0  0
  190.2180  173.7200  138.1040 N   0  0  0  0  0  2  0  0  0  0  0  0
  190.5060  174.0720  136.7490 C   0  0  0  0  0  0  0  0  0  0  0  0
  189.7960  173.6150  135.8110 O   0  0  0  0  0  0  0  0  0  0  0  0
  192.8630  174.8290  137.0030 N   0  0  0  0  0  0  0  0  0  0  0  0
  191.6470  174.9440  136.4430 C   0  0  0  0  0  0  0  0  0  0  0  0
  191.6420  176.0280  135.5940 C   0  0  0  0  0  3  0  0  0  0  0  0
  193.5880  175.8150  136.5050 N   0  0  0  0  0  2  0  0  0  0  0  0
  192.8820  176.5480  135.6560 N   0  0  0  0  0  0  0  0  0  0  0  0
  1 32  1  1  0  0  0
  2  1  1  6  0  0  0
  2  3  1  0  0  0  0
  4  2  1  0  0  0  0
  4  5  1  1  0  0  0
  4  3  1  0  0  0  0
  6  5  1  0  0  0  0
  7  1  1  0  0  0  0
  7  8  1  0  0  0  0
  8  9  1  0  0  0  0
  9 12  1  0  0  0  0
 11 10  1  0  0  0  0
 11 29  1  0  0  0  0
 12 11  2  0  0  0  0
 13 18  1  0  0  0  0
 13 19  1  0  0  0  0
 14 13  2  0  0  0  0
 15 14  1  0  0  0  0
 15 17  1  0  0  0  0
 16 12  1  0  0  0  0
 17 18  2  0  0  0  0
 18 16  1  0  0  0  0
 20 19  1  6  0  0  0
 20 27  1  0  0  0  0
 21 22  1  6  0  0  0
 21 25  1  0  0  0  0
 23 24  1  0  0  0  0
 25 24  1  0  0  0  0
 26 20  1  0  0  0  0
 26 22  1  0  0  0  0
 27 21  1  0  0  0  0
 27 23  1  1  0  0  0
 29 28  1  1  0  0  0
 29 30  1  0  0  0  0
 31 30  1  0  0  0  0
 33 37  1  0  0  0  0
 34 37  1  0  0  0  0
 35 43  1  6  0  0  0
 35 34  1  0  0  0  0
 36 39  1  1  0  0  0
 36 35  1  0  0  0  0
 36 33  1  0  0  0  0
 37 32  1  1  0  0  0
 39 38  1  1  0  0  0
 40 39  1  0  0  0  0
 41 40  1  0  0  0  0
 42 40  1  0  0  0  0
 44 43  1  0  0  0  0
 45 44  1  0  0  0  0
 46 45  2  0  0  0  0
 48 45  1  0  0  0  0
 48 47  2  0  0  0  0
 49 51  2  0  0  0  0
 49 48  1  0  0  0  0
 50 47  1  0  0  0  0
 51 50  1  0  0  0  0
M  END
>  <MODEL>
6

>  <REMARK>
 VINA RESULT:      -6.5      1.667      2.402
  Name = 
  18 active torsions:
  status: ('A' for Active; 'I' for Inactive)
    1  A    between atoms: C_1  and  C_12
    2  A    between atoms: C_2  and  N_11
    3  A    between atoms: C_2  and  C_31
    4  A    between atoms: C_4  and  C_12
    5  A    between atoms: C_5  and  C_40
    6  A    between atoms: C_7  and  C_40
    7  A    between atoms: C_7  and  C_45
    8  A    between atoms: C_8  and  C_39
    9  A    between atoms: O_10  and  C_49
   10  A    between atoms: O_10  and  C_50
   11  A    between atoms: C_13  and  C_28
   12  A    between atoms: O_14  and  C_47
   13  A    between atoms: N_18  and  C_40
   14  A    between atoms: N_18  and  C_50
   15  A    between atoms: N_22  and  C_49
   16  A    between atoms: O_26  and  C_36
   17  A    between atoms: C_27  and  C_47
   18  A    between atoms: C_39  and  C_41
                            x       y       z     vdW  Elec       q    Type
                         _______ _______ _______ _____ _____    ______ ____

>  <TORSDO>
F 18

$$$$
=
 OpenBabel11062418583D

 51 56  0  0  1  0  0  0  0  0999 V2000
  195.6300  174.7660  142.7950 C   0  0  2  0  0  3  0  0  0  0  0  0
  196.6130  174.6660  141.6340 C   0  0  1  0  0  3  0  0  0  0  0  0
  197.6260  173.5730  141.9190 C   0  0  0  0  0  2  0  0  0  0  0  0
  196.4900  173.3110  140.9560 C   0  0  2  0  0  3  0  0  0  0  0  0
  196.9680  173.4010  139.6490 O   0  0  0  0  0  0  0  0  0  0  0  0
  197.2500  172.0800  139.2870 C   0  0  0  0  0  1  0  0  0  0  0  0
  194.9980  176.0800  142.8150 N   0  0  0  0  0  2  0  0  0  0  0  0
  193.5830  175.8950  143.1070 C   0  0  0  0  0  2  0  0  0  0  0  0
  193.1260  176.9120  143.9900 O   0  0  0  0  0  0  0  0  0  0  0  0
  193.5230  176.1200  146.6130 C   0  0  0  0  0  1  0  0  0  0  0  0
  192.1540  176.3850  146.0790 C   0  0  0  0  0  0  0  0  0  0  0  0
  191.9950  176.7670  144.8040 C   0  0  0  0  0  0  0  0  0  0  0  0
  188.8090  176.6440  142.7180 C   0  0  0  0  0  0  0  0  0  0  0  0
  188.4480  175.6200  141.9270 N   0  0  0  0  0  0  0  0  0  0  0  0
  189.3930  174.7270  142.0600 O   0  0  0  0  0  0  0  0  0  0  0  0
  190.6790  177.0620  144.3100 N   0  0  0  0  0  2  0  0  0  0  0  0
  190.3410  175.0770  142.8870 N   0  0  0  0  0  0  0  0  0  0  0  0
  189.9920  176.3030  143.3120 C   0  0  0  0  0  0  0  0  0  0  0  0
  187.9910  177.8710  142.9660 C   0  0  0  0  0  2  0  0  0  0  0  0
  186.6050  177.5080  143.4880 C   0  0  2  0  0  3  0  0  0  0  0  0
  185.7710  179.1990  145.1360 C   0  0  1  0  0  3  0  0  0  0  0  0
  185.4870  179.7980  143.7700 C   0  0  0  0  0  2  0  0  0  0  0  0
  185.6260  176.8220  145.6760 C   0  0  0  0  0  2  0  0  0  0  0  0
  184.6750  177.5950  146.5610 C   0  0  0  0  0  2  0  0  0  0  0  0
  184.4710  178.9220  145.8680 C   0  0  0  0  0  2  0  0  0  0  0  0
  185.3550  178.4470  142.5650 S   0  0  0  0  0  0  0  0  0  0  0  0
  186.4780  177.8600  144.9670 C   0  0  1  0  0  3  0  0  0  0  0  0
  190.9940  177.1210  148.0690 F   0  0  0  0  0  0  0  0  0  0  0  0
  190.9620  176.2380  146.9980 C   0  0  2  0  0  3  0  0  0  0  0  0
  190.7500  174.9040  147.4070 O   0  0  0  0  0  0  0  0  0  0  0  0
  190.0060  174.2500  146.4140 C   0  0  0  0  0  1  0  0  0  0  0  0
  196.3610  174.5570  144.1180 C   0  0  0  0  0  2  0  0  0  0  0  0
  196.1040  172.1120  144.6390 C   0  0  0  0  0  2  0  0  0  0  0  0
  194.2890  173.6270  144.9500 O   0  0  0  0  0  0  0  0  0  0  0  0
  193.7940  172.3410  145.2100 C   0  0  2  0  0  3  0  0  0  0  0  0
  194.8400  171.3220  144.7960 C   0  0  2  0  0  3  0  0  0  0  0  0
  195.6880  173.5190  145.0110 C   0  0  2  0  0  3  0  0  0  0  0  0
  196.2900  170.3460  146.5710 C   0  0  0  0  0  1  0  0  0  0  0  0
  195.0010  170.1590  145.7920 C   0  0  2  0  0  3  0  0  0  0  0  0
  194.9670  168.7650  145.1440 C   0  0  0  0  0  3  0  0  0  0  0  0
  194.1540  168.7790  144.0090 O   0  0  0  0  0  1  0  0  0  0  0  0
  196.2550  168.3630  144.7750 O   0  0  0  0  0  1  0  0  0  0  0  0
  192.5170  172.1150  144.4190 C   0  0  0  0  0  2  0  0  0  0  0  0
  192.8320  171.5840  143.1010 N   0  0  0  0  0  2  0  0  0  0  0  0
  191.8730  171.5360  142.0420 C   0  0  0  0  0  0  0  0  0  0  0  0
  190.6910  171.9270  142.2400 O   0  0  0  0  0  0  0  0  0  0  0  0
  191.4020  170.4480  139.8540 N   0  0  0  0  0  0  0  0  0  0  0  0
  192.2570  171.0050  140.7290 C   0  0  2  0  0  3  0  0  0  0  0  0
  193.5330  170.9440  140.2140 C   0  0  0  0  0  3  0  0  0  0  0  0
  192.1350  170.0600  138.8260 N   0  0  0  0  0  0  0  0  0  0  0  0
  193.4150  170.3470  139.0130 N   0  0  0  0  0  0  0  0  0  0  0  0
  1  7  1  0  0  0  0
  1 32  1  1  0  0  0
  2  3  1  0  0  0  0
  2  1  1  1  0  0  0
  4  5  1  6  0  0  0
  4  2  1  0  0  0  0
  4  3  1  0  0  0  0
  6  5  1  0  0  0  0
  7  8  1  0  0  0  0
  8  9  1  0  0  0  0
  9 12  1  0  0  0  0
 11 10  1  0  0  0  0
 11 29  1  0  0  0  0
 12 11  2  0  0  0  0
 13 19  1  0  0  0  0
 13 18  1  0  0  0  0
 14 15  1  0  0  0  0
 14 13  2  0  0  0  0
 15 17  1  0  0  0  0
 16 12  1  0  0  0  0
 17 18  2  0  0  0  0
 18 16  1  0  0  0  0
 20 19  1  6  0  0  0
 20 27  1  0  0  0  0
 21 22  1  6  0  0  0
 21 25  1  0  0  0  0
 23 24  1  0  0  0  0
 25 24  1  0  0  0  0
 26 20  1  0  0  0  0
 26 22  1  0  0  0  0
 27 21  1  0  0  0  0
 27 23  1  1  0  0  0
 29 30  1  0  0  0  0
 29 28  1  1  0  0  0
 31 30  1  0  0  0  0
 33 36  1  0  0  0  0
 33 37  1  0  0  0  0
 34 37  1  0  0  0  0
 34 35  1  0  0  0  0
 35 43  1  6  0  0  0
 36 35  1  0  0  0  0
 36 39  1  1  0  0  0
 37 32  1  6  0  0  0
 39 38  1  6  0  0  0
 40 39  1  0  0  0  0
 41 40  1  0  0  0  0
 42 40  1  0  0  0  0
 44 43  1  0  0  0  0
 45 46  2  0  0  0  0
 45 44  1  0  0  0  0
 47 48  1  0  0  0  0
 48 45  1  1  0  0  0
 49 48  1  0  0  0  0
 50 51  1  0  0  0  0
 50 47  2  0  0  0  0
 51 49  2  0  0  0  0
M  END
>  <MODEL>
7

>  <REMARK>
 VINA RESULT:      -6.4      3.320      5.034
  Name = 
  18 active torsions:
  status: ('A' for Active; 'I' for Inactive)
    1  A    between atoms: C_1  and  C_12
    2  A    between atoms: C_2  and  N_11
    3  A    between atoms: C_2  and  C_31
    4  A    between atoms: C_4  and  C_12
    5  A    between atoms: C_5  and  C_40
    6  A    between atoms: C_7  and  C_40
    7  A    between atoms: C_7  and  C_45
    8  A    between atoms: C_8  and  C_39
    9  A    between atoms: O_10  and  C_49
   10  A    between atoms: O_10  and  C_50
   11  A    between atoms: C_13  and  C_28
   12  A    between atoms: O_14  and  C_47
   13  A    between atoms: N_18  and  C_40
   14  A    between atoms: N_18  and  C_50
   15  A    between atoms: N_22  and  C_49
   16  A    between atoms: O_26  and  C_36
   17  A    between atoms: C_27  and  C_47
   18  A    between atoms: C_39  and  C_41
                            x       y       z     vdW  Elec       q    Type
                         _______ _______ _______ _____ _____    ______ ____

>  <TORSDO>
F 18

$$$$
=
 OpenBabel11062418583D

 51 56  0  0  1  0  0  0  0  0999 V2000
  189.2910  176.0780  143.5650 C   0  0  2  0  0  3  0  0  0  0  0  0
  190.6690  176.3890  144.1360 C   0  0  1  0  0  3  0  0  0  0  0  0
  190.5880  177.6250  145.0140 C   0  0  0  0  0  2  0  0  0  0  0  0
  190.6530  176.2550  145.6510 C   0  0  2  0  0  3  0  0  0  0  0  0
  191.9490  176.0250  146.1100 O   0  0  0  0  0  0  0  0  0  0  0  0
  191.9200  176.4170  147.4520 C   0  0  0  0  0  1  0  0  0  0  0  0
  189.2450  174.7090  143.0640 N   0  0  0  0  0  2  0  0  0  0  0  0
  189.0670  174.7630  141.6200 C   0  0  0  0  0  2  0  0  0  0  0  0
  189.6570  173.6220  141.0090 O   0  0  0  0  0  0  0  0  0  0  0  0
  189.3900  171.5410  142.8140 C   0  0  0  0  0  1  0  0  0  0  0  0
  190.7340  172.0080  142.3600 C   0  0  0  0  0  0  0  0  0  0  0  0
  190.8300  173.0200  141.4850 C   0  0  0  0  0  0  0  0  0  0  0  0
  193.7040  173.9530  139.1640 C   0  0  0  0  0  0  0  0  0  0  0  0
  193.5720  174.2650  137.8650 N   0  0  0  0  0  0  0  0  0  0  0  0
  192.2900  174.1930  137.6180 O   0  0  0  0  0  0  0  0  0  0  0  0
  192.1230  173.4350  141.0200 N   0  0  0  0  0  2  0  0  0  0  0  0
  191.5670  173.8700  138.6570 N   0  0  0  0  0  0  0  0  0  0  0  0
  192.4520  173.7030  139.6540 C   0  0  0  0  0  0  0  0  0  0  0  0
  194.9870  173.9850  139.9320 C   0  0  0  0  0  2  0  0  0  0  0  0
  195.0860  175.2530  140.7760 C   0  0  2  0  0  3  0  0  0  0  0  0
  196.2770  174.8290  142.9370 C   0  0  1  0  0  3  0  0  0  0  0  0
  197.3750  175.0060  141.9040 C   0  0  0  0  0  2  0  0  0  0  0  0
  194.1610  176.0480  142.9490 C   0  0  0  0  0  2  0  0  0  0  0  0
  194.9000  176.3150  144.2420 C   0  0  0  0  0  2  0  0  0  0  0  0
  196.3390  175.9440  143.9650 C   0  0  0  0  0  2  0  0  0  0  0  0
  196.7220  176.0030  140.5340 S   0  0  0  0  0  0  0  0  0  0  0  0
  194.9170  174.9290  142.2560 C   0  0  1  0  0  3  0  0  0  0  0  0
  192.1050  170.0170  142.4080 F   0  0  0  0  0  0  0  0  0  0  0  0
  191.9720  171.3150  142.8820 C   0  0  2  0  0  3  0  0  0  0  0  0
  192.0880  171.3900  144.2870 O   0  0  0  0  0  0  0  0  0  0  0  0
  192.6740  172.6200  144.6180 C   0  0  0  0  0  1  0  0  0  0  0  0
  188.9760  177.0280  142.4120 C   0  0  0  0  0  2  0  0  0  0  0  0
  186.9790  177.4750  143.8710 C   0  0  0  0  0  2  0  0  0  0  0  0
  187.0220  178.1970  141.5990 O   0  0  0  0  0  0  0  0  0  0  0  0
  185.7410  178.4860  142.0930 C   0  0  2  0  0  3  0  0  0  0  0  0
  185.5840  177.8340  143.4540 C   0  0  2  0  0  3  0  0  0  0  0  0
  187.8290  177.9840  142.7270 C   0  0  2  0  0  3  0  0  0  0  0  0
  185.2890  180.1700  144.2670 C   0  0  0  0  0  1  0  0  0  0  0  0
  184.8790  178.7260  144.4920 C   0  0  2  0  0  3  0  0  0  0  0  0
  185.1380  178.3200  145.9520 C   0  0  0  0  0  3  0  0  0  0  0  0
  185.6380  179.4050  146.6750 O   0  0  0  0  0  1  0  0  0  0  0  0
  183.9570  177.8780  146.5570 O   0  0  0  0  0  1  0  0  0  0  0  0
  184.6900  177.9450  141.1410 C   0  0  0  0  0  2  0  0  0  0  0  0
  183.3590  178.3060  141.6060 N   0  0  0  0  0  2  0  0  0  0  0  0
  182.1770  178.0130  140.8580 C   0  0  0  0  0  0  0  0  0  0  0  0
  182.2630  177.4550  139.7300 O   0  0  0  0  0  0  0  0  0  0  0  0
  180.6660  179.0460  142.5450 N   0  0  0  0  0  0  0  0  0  0  0  0
  180.8610  178.3880  141.3900 C   0  0  0  0  0  0  0  0  0  0  0  0
  179.6390  178.0890  140.8300 C   0  0  0  0  0  3  0  0  0  0  0  0
  179.3580  179.1510  142.6890 N   0  0  0  0  0  2  0  0  0  0  0  0
  178.7170  178.5880  141.6740 N   0  0  0  0  0  0  0  0  0  0  0  0
  1 32  1  6  0  0  0
  2  1  1  6  0  0  0
  2  3  1  0  0  0  0
  2  4  1  0  0  0  0
  3  4  1  0  0  0  0
  4  5  1  1  0  0  0
  5  6  1  0  0  0  0
  7  1  1  0  0  0  0
  8  7  1  0  0  0  0
  9 12  1  0  0  0  0
  9  8  1  0  0  0  0
 11 10  1  0  0  0  0
 11 29  1  0  0  0  0
 12 11  2  0  0  0  0
 13 18  1  0  0  0  0
 13 19  1  0  0  0  0
 14 13  2  0  0  0  0
 15 14  1  0  0  0  0
 15 17  1  0  0  0  0
 16 12  1  0  0  0  0
 17 18  2  0  0  0  0
 18 16  1  0  0  0  0
 20 19  1  6  0  0  0
 20 27  1  0  0  0  0
 21 22  1  6  0  0  0
 21 25  1  0  0  0  0
 23 24  1  0  0  0  0
 25 24  1  0  0  0  0
 26 20  1  0  0  0  0
 26 22  1  0  0  0  0
 27 21  1  0  0  0  0
 27 23  1  1  0  0  0
 29 28  1  1  0  0  0
 29 30  1  0  0  0  0
 30 31  1  0  0  0  0
 34 35  1  0  0  0  0
 34 37  1  0  0  0  0
 35 43  1  6  0  0  0
 35 36  1  0  0  0  0
 36 33  1  0  0  0  0
 36 39  1  1  0  0  0
 37 32  1  6  0  0  0
 37 33  1  0  0  0  0
 39 38  1  1  0  0  0
 39 40  1  0  0  0  0
 40 42  1  0  0  0  0
 40 41  1  0  0  0  0
 43 44  1  0  0  0  0
 45 48  1  0  0  0  0
 45 44  1  0  0  0  0
 46 45  2  0  0  0  0
 47 50  1  0  0  0  0
 48 47  2  0  0  0  0
 49 48  1  0  0  0  0
 49 51  2  0  0  0  0
 51 50  1  0  0  0  0
M  END
>  <MODEL>
8

>  <REMARK>
 VINA RESULT:      -6.4      4.233      9.504
  Name = 
  18 active torsions:
  status: ('A' for Active; 'I' for Inactive)
    1  A    between atoms: C_1  and  C_12
    2  A    between atoms: C_2  and  N_11
    3  A    between atoms: C_2  and  C_31
    4  A    between atoms: C_4  and  C_12
    5  A    between atoms: C_5  and  C_40
    6  A    between atoms: C_7  and  C_40
    7  A    between atoms: C_7  and  C_45
    8  A    between atoms: C_8  and  C_39
    9  A    between atoms: O_10  and  C_49
   10  A    between atoms: O_10  and  C_50
   11  A    between atoms: C_13  and  C_28
   12  A    between atoms: O_14  and  C_47
   13  A    between atoms: N_18  and  C_40
   14  A    between atoms: N_18  and  C_50
   15  A    between atoms: N_22  and  C_49
   16  A    between atoms: O_26  and  C_36
   17  A    between atoms: C_27  and  C_47
   18  A    between atoms: C_39  and  C_41
                            x       y       z     vdW  Elec       q    Type
                         _______ _______ _______ _____ _____    ______ ____

>  <TORSDO>
F 18

$$$$
=
 OpenBabel11062418583D

 51 56  0  0  1  0  0  0  0  0999 V2000
  193.7360  170.3790  144.1500 C   0  0  2  0  0  3  0  0  0  0  0  0
  193.9270  169.0430  144.8580 C   0  0  1  0  0  3  0  0  0  0  0  0
  195.4080  168.7810  145.0580 C   0  0  0  0  0  2  0  0  0  0  0  0
  194.5660  169.2560  146.2210 C   0  0  2  0  0  3  0  0  0  0  0  0
  194.2720  168.1720  147.0470 O   0  0  0  0  0  0  0  0  0  0  0  0
  195.2980  168.1680  147.9990 C   0  0  0  0  0  1  0  0  0  0  0  0
  192.3460  170.5450  143.7430 N   0  0  0  0  0  2  0  0  0  0  0  0
  191.8660  171.8090  144.2850 C   0  0  0  0  0  2  0  0  0  0  0  0
  190.4460  171.8650  144.2180 O   0  0  0  0  0  0  0  0  0  0  0  0
  189.8360  171.9460  141.5190 C   0  0  0  0  0  1  0  0  0  0  0  0
  189.4350  173.0510  142.4410 C   0  0  0  0  0  0  0  0  0  0  0  0
  189.7460  172.9820  143.7430 C   0  0  0  0  0  0  0  0  0  0  0  0
  189.8330  175.9190  146.1690 C   0  0  0  0  0  0  0  0  0  0  0  0
  190.8880  176.7270  146.3590 N   0  0  0  0  0  0  0  0  0  0  0  0
  191.8100  176.2940  145.5390 O   0  0  0  0  0  0  0  0  0  0  0  0
  189.3190  174.0280  144.6300 N   0  0  0  0  0  2  0  0  0  0  0  0
  191.4400  175.2720  144.8160 N   0  0  0  0  0  0  0  0  0  0  0  0
  190.1820  175.0090  145.2100 C   0  0  0  0  0  0  0  0  0  0  0  0
  188.4980  176.0760  146.8250 C   0  0  0  0  0  2  0  0  0  0  0  0
  187.7850  177.3260  146.3200 C   0  0  2  0  0  3  0  0  0  0  0  0
  185.3040  177.1470  146.5980 C   0  0  1  0  0  3  0  0  0  0  0  0
  185.8290  177.5660  147.9590 C   0  0  0  0  0  2  0  0  0  0  0  0
  186.2230  177.8830  144.4590 C   0  0  0  0  0  2  0  0  0  0  0  0
  184.7690  178.2900  144.5450 C   0  0  0  0  0  2  0  0  0  0  0  0
  184.4250  178.2380  146.0160 C   0  0  0  0  0  2  0  0  0  0  0  0
  187.4180  178.4130  147.7280 S   0  0  0  0  0  0  0  0  0  0  0  0
  186.4710  176.9590  145.6380 C   0  0  1  0  0  3  0  0  0  0  0  0
  187.9960  173.9300  140.7090 F   0  0  0  0  0  0  0  0  0  0  0  0
  188.6620  174.2270  141.8900 C   0  0  2  0  0  3  0  0  0  0  0  0
  189.4460  175.3960  141.7860 O   0  0  0  0  0  0  0  0  0  0  0  0
  188.6860  176.4820  142.2430 C   0  0  0  0  0  1  0  0  0  0  0  0
  194.6170  170.4410  142.9060 C   0  0  0  0  0  2  0  0  0  0  0  0
  195.2260  172.6220  143.9970 C   0  0  0  0  0  2  0  0  0  0  0  0
  195.6370  172.2570  141.6760 O   0  0  0  0  0  0  0  0  0  0  0  0
  195.9710  173.5930  141.9430 C   0  0  2  0  0  3  0  0  0  0  0  0
  195.5050  173.9430  143.3440 C   0  0  2  0  0  3  0  0  0  0  0  0
  195.5900  171.6170  142.9260 C   0  0  2  0  0  3  0  0  0  0  0  0
  196.7450  174.1350  145.4970 C   0  0  0  0  0  1  0  0  0  0  0  0
  196.5170  174.7840  144.1430 C   0  0  2  0  0  3  0  0  0  0  0  0
  196.1140  176.2570  144.3190 C   0  0  0  0  0  3  0  0  0  0  0  0
  196.7720  177.0540  143.3800 O   0  0  0  0  0  1  0  0  0  0  0  0
  194.7330  176.4110  144.1570 O   0  0  0  0  0  1  0  0  0  0  0  0
  195.2910  174.5020  140.9350 C   0  0  0  0  0  2  0  0  0  0  0  0
  194.4670  173.7160  140.0280 N   0  0  0  0  0  2  0  0  0  0  0  0
  193.0400  173.7010  140.1040 C   0  0  0  0  0  0  0  0  0  0  0  0
  192.4460  174.3540  141.0050 O   0  0  0  0  0  0  0  0  0  0  0  0
  191.1840  173.3470  138.4830 N   0  0  0  0  0  0  0  0  0  0  0  0
  192.2630  172.9010  139.1490 C   0  0  2  0  0  3  0  0  0  0  0  0
  192.4770  171.5790  138.8270 C   0  0  0  0  0  3  0  0  0  0  0  0
  190.7500  172.3260  137.7670 N   0  0  0  0  0  0  0  0  0  0  0  0
  191.5070  171.2540  137.9520 N   0  0  0  0  0  0  0  0  0  0  0  0
  1 32  1  6  0  0  0
  2  1  1  6  0  0  0
  2  3  1  0  0  0  0
  2  4  1  0  0  0  0
  3  4  1  0  0  0  0
  4  5  1  1  0  0  0
  5  6  1  0  0  0  0
  7  1  1  0  0  0  0
  7  8  1  0  0  0  0
  9  8  1  0  0  0  0
 10 11  1  0  0  0  0
 11 12  2  0  0  0  0
 12  9  1  0  0  0  0
 12 16  1  0  0  0  0
 13 14  2  0  0  0  0
 13 19  1  0  0  0  0
 15 14  1  0  0  0  0
 16 18  1  0  0  0  0
 17 18  2  0  0  0  0
 17 15  1  0  0  0  0
 18 13  1  0  0  0  0
 20 19  1  1  0  0  0
 20 26  1  0  0  0  0
 21 25  1  6  0  0  0
 21 22  1  0  0  0  0
 23 24  1  0  0  0  0
 24 25  1  0  0  0  0
 26 22  1  0  0  0  0
 27 23  1  6  0  0  0
 27 20  1  0  0  0  0
 27 21  1  0  0  0  0
 29 28  1  6  0  0  0
 29 11  1  0  0  0  0
 30 29  1  0  0  0  0
 30 31  1  0  0  0  0
 34 35  1  0  0  0  0
 34 37  1  0  0  0  0
 35 43  1  6  0  0  0
 35 36  1  0  0  0  0
 36 33  1  0  0  0  0
 36 39  1  1  0  0  0
 37 32  1  6  0  0  0
 37 33  1  0  0  0  0
 39 40  1  0  0  0  0
 39 38  1  1  0  0  0
 41 40  1  0  0  0  0
 42 40  1  0  0  0  0
 44 45  1  0  0  0  0
 44 43  1  0  0  0  0
 45 46  2  0  0  0  0
 47 48  1  0  0  0  0
 48 45  1  1  0  0  0
 49 48  1  0  0  0  0
 50 51  1  0  0  0  0
 50 47  2  0  0  0  0
 51 49  2  0  0  0  0
M  END
>  <MODEL>
9

>  <REMARK>
 VINA RESULT:      -6.3      3.239      5.676
  Name = 
  18 active torsions:
  status: ('A' for Active; 'I' for Inactive)
    1  A    between atoms: C_1  and  C_12
    2  A    between atoms: C_2  and  N_11
    3  A    between atoms: C_2  and  C_31
    4  A    between atoms: C_4  and  C_12
    5  A    between atoms: C_5  and  C_40
    6  A    between atoms: C_7  and  C_40
    7  A    between atoms: C_7  and  C_45
    8  A    between atoms: C_8  and  C_39
    9  A    between atoms: O_10  and  C_49
   10  A    between atoms: O_10  and  C_50
   11  A    between atoms: C_13  and  C_28
   12  A    between atoms: O_14  and  C_47
   13  A    between atoms: N_18  and  C_40
   14  A    between atoms: N_18  and  C_50
   15  A    between atoms: N_22  and  C_49
   16  A    between atoms: O_26  and  C_36
   17  A    between atoms: C_27  and  C_47
   18  A    between atoms: C_39  and  C_41
                            x       y       z     vdW  Elec       q    Type
                         _______ _______ _______ _____ _____    ______ ____

>  <TORSDO>
F 18

$$$$
