=
 OpenBabel11062419193D

 50 56  0  0  1  0  0  0  0  0999 V2000
  184.1770  178.1730  142.3220 C   0  0  0  0  0  1  0  0  0  0  0  0
  190.2220  177.8940  142.4670 O   0  0  0  0  0  1  0  0  0  0  0  0
  191.3800  173.3660  142.1610 C   0  0  2  0  0  3  0  0  0  0  0  0
  185.5350  178.4330  141.9300 N   0  0  0  0  0  0  0  0  0  0  0  0
  186.5230  177.6860  142.2900 C   0  0  0  0  0  0  0  0  0  0  0  0
  187.4060  175.4260  142.8280 C   0  0  0  0  0  2  0  0  0  0  0  0
  188.9310  177.4820  142.8210 C   0  0  1  0  0  3  0  0  0  0  0  0
  191.6760  171.2370  141.1620 C   0  0  2  0  0  3  0  0  0  0  0  0
  189.7400  175.2160  142.0090 C   0  0  0  0  0  2  0  0  0  0  0  0
  191.7570  172.3430  143.1620 C   0  0  0  0  0  0  0  0  0  0  0  0
  192.1780  173.8170  145.2000 C   0  0  2  0  0  3  0  0  0  0  0  0
  192.0460  172.5160  144.4550 C   0  0  0  0  0  3  0  0  0  0  0  0
  191.8580  171.1160  142.5620 O   0  0  0  0  0  0  0  0  0  0  0  0
  189.9340  173.7540  142.3760 C   0  0  0  0  0  2  0  0  0  0  0  0
  190.8950  174.5840  145.5320 C   0  0  1  0  0  3  0  0  0  0  0  0
  189.2500  175.6190  144.4670 C   0  0  0  0  0  2  0  0  0  0  0  0
  187.9030  178.0450  141.8390 C   0  0  0  0  0  2  0  0  0  0  0  0
  188.8420  175.9460  143.0240 C   0  0  2  0  0  0  0  0  0  0  0  0
  191.0330  175.1860  146.9200 C   0  0  0  0  0  1  0  0  0  0  0  0
  191.4650  172.6720  140.8720 N   0  0  0  0  0  0  0  0  0  0  0  0
  186.3350  176.4650  143.1630 C   0  0  0  0  0  2  0  0  0  0  0  0
  190.6490  175.6070  144.6060 O   0  0  0  0  0  0  0  0  0  0  0  0
  193.7460  172.3020  139.9060 C   0  0  0  0  0  1  0  0  0  0  0  0
  192.5630  173.2430  140.0830 C   0  0  0  0  0  3  0  0  0  0  0  0
  192.0690  173.7210  138.7320 C   0  0  0  0  0  1  0  0  0  0  0  0
  190.9610  169.7500  139.6880 C   0  0  0  0  0  1  0  0  0  0  0  0
  190.5420  170.5150  140.7820 O   0  0  0  0  0  0  0  0  0  0  0  0
  193.2270  174.6240  144.7240 O   0  0  0  0  0  0  0  0  0  0  0  0
  194.1260  174.6090  145.7000 O   0  0  0  0  0  0  0  0  0  0  0  0
  197.9410  174.4400  143.6240 O   0  0  0  0  0  1  0  0  0  0  0  0
  195.3100  174.1240  145.1230 C   0  0  1  0  0  0  0  0  0  0  0  0
  196.8790  172.4060  143.4280 O   0  0  0  0  0  0  0  0  0  0  0  0
  195.5480  174.4150  143.6300 C   0  0  0  0  0  2  0  0  0  0  0  0
  196.4780  173.9960  146.0810 C   0  0  0  0  0  2  0  0  0  0  0  0
  196.4920  171.9240  144.6820 C   0  0  0  0  0  0  0  0  0  0  0  0
  196.8270  173.7880  143.0850 C   0  0  1  0  0  0  0  0  0  0  0  0
  195.6990  172.7530  145.6590 C   0  0  2  0  0  3  0  0  0  0  0  0
  196.7490  170.7280  144.9800 O   0  0  0  0  0  0  0  0  0  0  0  0
  197.9140  173.2510  138.3860 C   0  0  0  0  0  3  0  0  0  0  0  0
  196.8370  173.9520  141.5990 C   0  0  0  0  0  0  0  0  0  0  0  0
  197.3830  173.6710  139.5980 C   0  0  0  0  0  0  0  0  0  0  0  0
  196.1010  174.8960  140.9410 N   0  0  0  0  0  0  0  0  0  0  0  0
  197.6040  173.2210  140.8000 O   0  0  0  0  0  0  0  0  0  0  0  0
  197.4670  173.9260  137.2340 C   0  0  0  0  0  3  0  0  0  0  0  0
  196.0370  175.3450  138.5710 N   0  0  0  0  0  0  0  0  0  0  0  0
  196.5200  174.9820  137.3400 C   0  0  0  0  0  0  0  0  0  0  0  0
  196.4800  174.6840  139.6710 C   0  0  0  0  0  0  0  0  0  0  0  0
  196.9200  176.6720  135.5380 N   0  0  0  0  0  1  0  0  0  0  0  0
  194.9530  175.4540  135.6230 O   0  0  0  0  0  0  0  0  0  0  0  0
  196.0760  175.7020  136.1390 C   0  0  0  0  0  0  0  0  0  0  0  0
  3 14  1  1  0  0  0
  3 10  1  0  0  0  0
  4  5  2  0  0  0  0
  4  1  1  0  0  0  0
  5 21  1  0  0  0  0
  6 18  1  0  0  0  0
  6 21  1  0  0  0  0
  7  2  1  6  0  0  0
  7 18  1  0  0  0  0
  8 27  1  1  0  0  0
  8 13  1  0  0  0  0
  9 14  1  0  0  0  0
 10 12  2  0  0  0  0
 11 28  1  6  0  0  0
 11 15  1  0  0  0  0
 12 11  1  0  0  0  0
 13 10  1  0  0  0  0
 15 19  1  1  0  0  0
 16 22  1  0  0  0  0
 17  5  1  0  0  0  0
 17  7  1  0  0  0  0
 18  9  1  6  0  0  0
 18 16  1  0  0  0  0
 20  8  1  0  0  0  0
 20  3  1  0  0  0  0
 22 15  1  0  0  0  0
 23 24  1  0  0  0  0
 24 20  1  0  0  0  0
 25 24  1  0  0  0  0
 26 27  1  0  0  0  0
 28 29  1  0  0  0  0
 31 37  1  0  0  0  0
 31 29  1  1  0  0  0
 31 34  1  0  0  0  0
 32 35  1  0  0  0  0
 33 31  1  0  0  0  0
 35 38  2  0  0  0  0
 35 37  1  0  0  0  0
 36 32  1  0  0  0  0
 36 30  1  1  0  0  0
 36 33  1  0  0  0  0
 37 34  1  1  0  0  0
 39 41  1  0  0  0  0
 40 36  1  0  0  0  0
 41 47  2  0  0  0  0
 41 43  1  0  0  0  0
 42 40  2  0  0  0  0
 43 40  1  0  0  0  0
 44 46  1  0  0  0  0
 44 39  2  0  0  0  0
 45 47  1  0  0  0  0
 46 45  2  0  0  0  0
 47 42  1  0  0  0  0
 48 50  1  0  0  0  0
 49 50  2  0  0  0  0
 50 46  1  0  0  0  0
M  END
>  <MODEL>
1

>  <REMARK>
 VINA RESULT:      -7.8      0.000      0.000
  Name = 
  7 active torsions:
  status: ('A' for Active; 'I' for Inactive)
    1  A    between atoms: O_5  and  C_16
    2  A    between atoms: O_5  and  O_24
    3  A    between atoms: C_9  and  C_40
    4  A    between atoms: C_17  and  O_30
    5  A    between atoms: C_20  and  O_24
    6  A    between atoms: C_29  and  C_43
    7  A    between atoms: C_41  and  N_48
                            x       y       z     vdW  Elec       q    Type
                         _______ _______ _______ _____ _____    ______ ____

>  <TORSDO>
F 7

$$$$
=
 OpenBabel11062419193D

 50 56  0  0  1  0  0  0  0  0999 V2000
  191.6420  177.7980  149.0440 C   0  0  0  0  0  1  0  0  0  0  0  0
  190.9120  173.8250  144.5360 O   0  0  0  0  0  1  0  0  0  0  0  0
  194.9750  171.5440  144.0650 C   0  0  2  0  0  3  0  0  0  0  0  0
  191.0690  176.7040  148.3080 N   0  0  0  0  0  0  0  0  0  0  0  0
  191.7000  176.0860  147.3680 C   0  0  0  0  0  0  0  0  0  0  0  0
  193.8390  175.2250  146.4400 C   0  0  0  0  0  2  0  0  0  0  0  0
  191.6100  174.8050  145.2530 C   0  0  1  0  0  3  0  0  0  0  0  0
  196.7260  170.0420  144.6080 C   0  0  2  0  0  3  0  0  0  0  0  0
  193.4490  173.0550  145.2990 C   0  0  0  0  0  2  0  0  0  0  0  0
  196.1250  171.6940  143.1460 C   0  0  0  0  0  0  0  0  0  0  0  0
  195.1230  173.2530  141.3950 C   0  0  2  0  0  3  0  0  0  0  0  0
  196.2140  172.4490  142.0470 C   0  0  0  0  0  3  0  0  0  0  0  0
  197.1410  170.8570  143.5260 O   0  0  0  0  0  0  0  0  0  0  0  0
  194.9010  172.7590  144.9610 C   0  0  0  0  0  2  0  0  0  0  0  0
  194.6850  174.5520  142.0780 C   0  0  1  0  0  3  0  0  0  0  0  0
  193.7250  175.1980  143.9680 C   0  0  0  0  0  2  0  0  0  0  0  0
  191.0150  174.9660  146.6530 C   0  0  0  0  0  2  0  0  0  0  0  0
  193.1420  174.5620  145.2360 C   0  0  2  0  0  0  0  0  0  0  0  0
  194.4120  175.5960  141.0100 C   0  0  0  0  0  1  0  0  0  0  0  0
  195.3210  170.3940  144.9070 N   0  0  0  0  0  0  0  0  0  0  0  0
  193.1050  176.4640  146.9570 C   0  0  0  0  0  2  0  0  0  0  0  0
  193.5310  174.3670  142.8510 O   0  0  0  0  0  0  0  0  0  0  0  0
  194.0140  168.4760  145.8510 C   0  0  0  0  0  1  0  0  0  0  0  0
  194.4020  169.2860  144.6210 C   0  0  0  0  0  3  0  0  0  0  0  0
  193.1590  169.7810  143.9090 C   0  0  0  0  0  1  0  0  0  0  0  0
  197.6760  169.0850  146.3630 C   0  0  0  0  0  1  0  0  0  0  0  0
  197.5220  170.3200  145.7220 O   0  0  0  0  0  0  0  0  0  0  0  0
  194.0590  172.4630  140.9220 O   0  0  0  0  0  0  0  0  0  0  0  0
  193.4680  173.2170  140.0040 O   0  0  0  0  0  0  0  0  0  0  0  0
  189.1530  173.4990  139.5620 O   0  0  0  0  0  1  0  0  0  0  0  0
  192.0970  172.9350  140.1000 C   0  0  1  0  0  0  0  0  0  0  0  0
  189.6450  172.3170  141.4760 O   0  0  0  0  0  0  0  0  0  0  0  0
  191.1870  174.0160  140.7120 C   0  0  0  0  0  2  0  0  0  0  0  0
  191.5660  171.9880  139.0420 C   0  0  0  0  0  2  0  0  0  0  0  0
  190.5320  171.2710  141.2010 C   0  0  0  0  0  0  0  0  0  0  0  0
  189.7290  173.5850  140.8340 C   0  0  1  0  0  0  0  0  0  0  0  0
  191.8250  171.4810  140.4570 C   0  0  2  0  0  3  0  0  0  0  0  0
  190.2800  170.1240  141.6560 O   0  0  0  0  0  0  0  0  0  0  0  0
  188.7440  177.5140  143.5070 C   0  0  0  0  0  3  0  0  0  0  0  0
  188.9980  174.6170  141.6320 C   0  0  0  0  0  0  0  0  0  0  0  0
  188.6660  176.3220  142.7990 C   0  0  0  0  0  0  0  0  0  0  0  0
  187.6740  174.5210  141.9540 N   0  0  0  0  0  0  0  0  0  0  0  0
  189.5930  175.6900  142.1370 O   0  0  0  0  0  0  0  0  0  0  0  0
  187.5560  177.9660  144.1130 C   0  0  0  0  0  3  0  0  0  0  0  0
  186.3500  176.0450  143.2740 N   0  0  0  0  0  0  0  0  0  0  0  0
  186.3540  177.2160  143.9890 C   0  0  0  0  0  0  0  0  0  0  0  0
  187.5050  175.6240  142.6980 C   0  0  0  0  0  0  0  0  0  0  0  0
  184.8890  177.3740  146.0120 N   0  0  0  0  0  1  0  0  0  0  0  0
  184.2740  178.3550  144.0070 O   0  0  0  0  0  0  0  0  0  0  0  0
  185.1220  177.6760  144.6450 C   0  0  0  0  0  0  0  0  0  0  0  0
  3 20  1  0  0  0  0
  3 14  1  1  0  0  0
  4  1  1  0  0  0  0
  5  4  2  0  0  0  0
  6 21  1  0  0  0  0
  7  2  1  1  0  0  0
  7 17  1  0  0  0  0
  8 20  1  0  0  0  0
  8 27  1  1  0  0  0
 10 13  1  0  0  0  0
 10  3  1  0  0  0  0
 11 28  1  1  0  0  0
 11 12  1  0  0  0  0
 11 15  1  0  0  0  0
 12 10  2  0  0  0  0
 13  8  1  0  0  0  0
 14  9  1  0  0  0  0
 15 19  1  6  0  0  0
 15 22  1  0  0  0  0
 17  5  1  0  0  0  0
 18 16  1  6  0  0  0
 18  7  1  0  0  0  0
 18  9  1  0  0  0  0
 18  6  1  0  0  0  0
 21  5  1  0  0  0  0
 22 16  1  0  0  0  0
 24 20  1  0  0  0  0
 24 23  1  0  0  0  0
 25 24  1  0  0  0  0
 27 26  1  0  0  0  0
 29 28  1  0  0  0  0
 31 29  1  6  0  0  0
 31 37  1  0  0  0  0
 31 33  1  0  0  0  0
 33 36  1  0  0  0  0
 34 31  1  0  0  0  0
 35 32  1  0  0  0  0
 35 38  2  0  0  0  0
 36 30  1  6  0  0  0
 36 32  1  0  0  0  0
 36 40  1  0  0  0  0
 37 34  1  6  0  0  0
 37 35  1  0  0  0  0
 39 44  1  0  0  0  0
 40 42  2  0  0  0  0
 40 43  1  0  0  0  0
 41 39  2  0  0  0  0
 42 47  1  0  0  0  0
 43 41  1  0  0  0  0
 45 46  1  0  0  0  0
 46 44  2  0  0  0  0
 46 50  1  0  0  0  0
 47 41  1  0  0  0  0
 47 45  2  0  0  0  0
 49 50  2  0  0  0  0
 50 48  1  0  0  0  0
M  END
>  <MODEL>
2

>  <REMARK>
 VINA RESULT:      -7.7      3.192      8.063
  Name = 
  7 active torsions:
  status: ('A' for Active; 'I' for Inactive)
    1  A    between atoms: O_5  and  C_16
    2  A    between atoms: O_5  and  O_24
    3  A    between atoms: C_9  and  C_40
    4  A    between atoms: C_17  and  O_30
    5  A    between atoms: C_20  and  O_24
    6  A    between atoms: C_29  and  C_43
    7  A    between atoms: C_41  and  N_48
                            x       y       z     vdW  Elec       q    Type
                         _______ _______ _______ _____ _____    ______ ____

>  <TORSDO>
F 7

$$$$
=
 OpenBabel11062419193D

 50 56  0  0  1  0  0  0  0  0999 V2000
  197.8280  169.6070  136.8180 C   0  0  0  0  0  1  0  0  0  0  0  0
  195.9980  171.1270  142.3840 O   0  0  0  0  0  1  0  0  0  0  0  0
  191.7890  173.1290  141.9300 C   0  0  2  0  0  3  0  0  0  0  0  0
  197.4750  169.4350  138.2000 N   0  0  0  0  0  0  0  0  0  0  0  0
  196.7620  170.2890  138.8520 C   0  0  0  0  0  0  0  0  0  0  0  0
  194.9160  171.9530  138.8780 C   0  0  0  0  0  2  0  0  0  0  0  0
  196.1890  171.3480  141.0140 C   0  0  1  0  0  3  0  0  0  0  0  0
  189.4580  173.2740  141.5270 C   0  0  2  0  0  3  0  0  0  0  0  0
  193.6950  171.8250  141.0360 C   0  0  0  0  0  2  0  0  0  0  0  0
  191.3320  174.5360  141.8830 C   0  0  0  0  0  0  0  0  0  0  0  0
  193.4340  175.7370  142.6820 C   0  0  2  0  0  3  0  0  0  0  0  0
  192.0300  175.6440  142.1490 C   0  0  0  0  0  3  0  0  0  0  0  0
  189.9960  174.5840  141.5860 O   0  0  0  0  0  0  0  0  0  0  0  0
  192.6150  172.8390  140.6970 C   0  0  0  0  0  2  0  0  0  0  0  0
  194.5860  175.4130  141.7260 C   0  0  1  0  0  3  0  0  0  0  0  0
  195.3710  173.6790  140.5920 C   0  0  0  0  0  2  0  0  0  0  0  0
  196.4560  170.0260  140.2920 C   0  0  0  0  0  2  0  0  0  0  0  0
  195.0450  172.1930  140.3940 C   0  0  2  0  0  0  0  0  0  0  0  0
  195.7270  176.3800  141.9930 C   0  0  0  0  0  1  0  0  0  0  0  0
  190.5590  172.3360  141.8360 N   0  0  0  0  0  0  0  0  0  0  0  0
  196.2350  171.5540  138.2130 C   0  0  0  0  0  2  0  0  0  0  0  0
  195.0430  174.0990  141.8920 O   0  0  0  0  0  0  0  0  0  0  0  0
  191.4390  171.8490  144.1310 C   0  0  0  0  0  1  0  0  0  0  0  0
  190.3390  171.6250  143.1010 C   0  0  0  0  0  3  0  0  0  0  0  0
  188.9900  171.9760  143.6940 C   0  0  0  0  0  1  0  0  0  0  0  0
  188.5570  174.2790  139.7730 C   0  0  0  0  0  1  0  0  0  0  0  0
  188.9880  173.0300  140.2340 O   0  0  0  0  0  0  0  0  0  0  0  0
  193.5780  175.1830  143.9670 O   0  0  0  0  0  0  0  0  0  0  0  0
  193.5330  176.2260  144.7850 O   0  0  0  0  0  0  0  0  0  0  0  0
  189.6490  174.8720  146.1920 O   0  0  0  0  0  1  0  0  0  0  0  0
  192.3970  176.0350  145.5880 C   0  0  1  0  0  0  0  0  0  0  0  0
  190.1680  176.8740  147.2050 O   0  0  0  0  0  0  0  0  0  0  0  0
  191.0290  176.4150  144.9920 C   0  0  0  0  0  2  0  0  0  0  0  0
  192.5140  174.9110  146.5980 C   0  0  0  0  0  2  0  0  0  0  0  0
  191.4330  176.8180  147.7990 C   0  0  0  0  0  0  0  0  0  0  0  0
  189.8710  176.2350  145.9670 C   0  0  1  0  0  0  0  0  0  0  0  0
  192.6580  176.3610  147.0520 C   0  0  2  0  0  3  0  0  0  0  0  0
  191.5690  177.2360  148.9790 O   0  0  0  0  0  0  0  0  0  0  0  0
  185.7770  178.7720  145.3720 C   0  0  0  0  0  3  0  0  0  0  0  0
  188.6440  176.8350  145.3580 C   0  0  0  0  0  0  0  0  0  0  0  0
  186.8740  177.9400  145.1950 C   0  0  0  0  0  0  0  0  0  0  0  0
  188.2080  176.5410  144.0970 N   0  0  0  0  0  0  0  0  0  0  0  0
  187.8480  177.6680  146.0160 O   0  0  0  0  0  0  0  0  0  0  0  0
  184.8880  178.8830  144.2850 C   0  0  0  0  0  3  0  0  0  0  0  0
  186.2340  177.3590  142.9770 N   0  0  0  0  0  0  0  0  0  0  0  0
  185.1290  178.1640  143.0820 C   0  0  0  0  0  0  0  0  0  0  0  0
  187.0790  177.2630  144.0360 C   0  0  0  0  0  0  0  0  0  0  0  0
  184.6700  178.3310  140.6270 N   0  0  0  0  0  1  0  0  0  0  0  0
  182.9430  178.2630  142.1680 O   0  0  0  0  0  0  0  0  0  0  0  0
  184.1860  178.2610  141.9600 C   0  0  0  0  0  0  0  0  0  0  0  0
  1  4  1  0  0  0  0
  3 14  1  6  0  0  0
  4  5  2  0  0  0  0
  5 17  1  0  0  0  0
  7  2  1  1  0  0  0
  8 27  1  6  0  0  0
  8 13  1  0  0  0  0
  8 20  1  0  0  0  0
 10  3  1  0  0  0  0
 10 12  2  0  0  0  0
 11 28  1  1  0  0  0
 12 11  1  0  0  0  0
 13 10  1  0  0  0  0
 14  9  1  0  0  0  0
 15 22  1  0  0  0  0
 15 19  1  1  0  0  0
 15 11  1  0  0  0  0
 16 22  1  0  0  0  0
 17  7  1  0  0  0  0
 18  6  1  6  0  0  0
 18 16  1  0  0  0  0
 18  7  1  0  0  0  0
 18  9  1  0  0  0  0
 20  3  1  0  0  0  0
 20 24  1  0  0  0  0
 21  5  1  0  0  0  0
 21  6  1  0  0  0  0
 24 25  1  0  0  0  0
 24 23  1  0  0  0  0
 26 27  1  0  0  0  0
 28 29  1  0  0  0  0
 31 29  1  6  0  0  0
 31 34  1  0  0  0  0
 31 37  1  0  0  0  0
 32 35  1  0  0  0  0
 33 31  1  0  0  0  0
 33 36  1  0  0  0  0
 35 38  2  0  0  0  0
 36 30  1  1  0  0  0
 36 32  1  0  0  0  0
 37 34  1  1  0  0  0
 37 35  1  0  0  0  0
 40 36  1  0  0  0  0
 40 43  1  0  0  0  0
 41 39  1  0  0  0  0
 41 43  1  0  0  0  0
 42 40  2  0  0  0  0
 44 39  2  0  0  0  0
 45 46  2  0  0  0  0
 45 47  1  0  0  0  0
 46 44  1  0  0  0  0
 47 42  1  0  0  0  0
 47 41  2  0  0  0  0
 48 50  1  0  0  0  0
 50 49  2  0  0  0  0
 50 46  1  0  0  0  0
M  END
>  <MODEL>
3

>  <REMARK>
 VINA RESULT:      -7.6      3.023      8.956
  Name = 
  7 active torsions:
  status: ('A' for Active; 'I' for Inactive)
    1  A    between atoms: O_5  and  C_16
    2  A    between atoms: O_5  and  O_24
    3  A    between atoms: C_9  and  C_40
    4  A    between atoms: C_17  and  O_30
    5  A    between atoms: C_20  and  O_24
    6  A    between atoms: C_29  and  C_43
    7  A    between atoms: C_41  and  N_48
                            x       y       z     vdW  Elec       q    Type
                         _______ _______ _______ _____ _____    ______ ____

>  <TORSDO>
F 7

$$$$
=
 OpenBabel11062419193D

 50 56  0  0  1  0  0  0  0  0999 V2000
  185.0110  177.3220  146.8300 C   0  0  0  0  0  1  0  0  0  0  0  0
  189.8640  177.9360  143.2650 O   0  0  0  0  0  1  0  0  0  0  0  0
  192.0780  173.8090  143.2640 C   0  0  2  0  0  3  0  0  0  0  0  0
  185.7660  177.6030  145.6400 N   0  0  0  0  0  0  0  0  0  0  0  0
  186.9700  177.1790  145.4590 C   0  0  0  0  0  0  0  0  0  0  0  0
  188.6860  175.4120  145.7940 C   0  0  0  0  0  2  0  0  0  0  0  0
  189.1900  177.5100  144.4170 C   0  0  1  0  0  3  0  0  0  0  0  0
  192.4640  171.5230  142.7680 C   0  0  2  0  0  3  0  0  0  0  0  0
  190.1200  175.2370  143.7750 C   0  0  0  0  0  2  0  0  0  0  0  0
  193.2470  173.2810  144.0030 C   0  0  0  0  0  0  0  0  0  0  0  0
  194.1920  175.4380  144.9810 C   0  0  2  0  0  3  0  0  0  0  0  0
  194.1140  173.9500  144.7690 C   0  0  0  0  0  3  0  0  0  0  0  0
  193.4020  171.9460  143.7420 O   0  0  0  0  0  0  0  0  0  0  0  0
  190.9470  174.0490  144.2380 C   0  0  0  0  0  2  0  0  0  0  0  0
  193.1270  176.0920  145.8650 C   0  0  1  0  0  3  0  0  0  0  0  0
  190.9380  176.4350  145.8570 C   0  0  0  0  0  2  0  0  0  0  0  0
  187.6780  177.5330  144.1900 C   0  0  0  0  0  2  0  0  0  0  0  0
  189.7350  176.1570  144.9470 C   0  0  2  0  0  0  0  0  0  0  0  0
  193.7880  177.1710  146.7060 C   0  0  0  0  0  1  0  0  0  0  0  0
  191.6740  172.7120  142.3780 N   0  0  0  0  0  0  0  0  0  0  0  0
  187.6960  176.3470  146.4920 C   0  0  0  0  0  2  0  0  0  0  0  0
  192.1010  176.6650  145.1020 O   0  0  0  0  0  0  0  0  0  0  0  0
  192.7650  172.1060  140.2060 C   0  0  0  0  0  1  0  0  0  0  0  0
  191.9110  173.0990  140.9830 C   0  0  0  0  0  3  0  0  0  0  0  0
  190.6030  173.3420  140.2570 C   0  0  0  0  0  1  0  0  0  0  0  0
  191.9280  169.3800  142.6570 C   0  0  0  0  0  1  0  0  0  0  0  0
  191.6170  170.5660  143.3310 O   0  0  0  0  0  0  0  0  0  0  0  0
  194.4840  176.1510  143.8040 O   0  0  0  0  0  0  0  0  0  0  0  0
  195.7550  176.5080  143.9380 O   0  0  0  0  0  0  0  0  0  0  0  0
  197.6200  176.0080  140.0430 O   0  0  0  0  0  1  0  0  0  0  0  0
  196.4290  175.9410  142.8450 C   0  0  1  0  0  0  0  0  0  0  0  0
  196.9190  173.9560  140.8190 O   0  0  0  0  0  0  0  0  0  0  0  0
  195.7100  175.9420  141.4840 C   0  0  0  0  0  2  0  0  0  0  0  0
  197.9410  176.0210  142.9200 C   0  0  0  0  0  2  0  0  0  0  0  0
  197.4040  173.7190  142.1090 C   0  0  0  0  0  0  0  0  0  0  0  0
  196.4980  175.2440  140.3800 C   0  0  1  0  0  0  0  0  0  0  0  0
  197.2320  174.7070  143.2330 C   0  0  2  0  0  3  0  0  0  0  0  0
  197.9390  172.6070  142.3620 O   0  0  0  0  0  0  0  0  0  0  0  0
  194.9680  174.9320  135.7850 C   0  0  0  0  0  3  0  0  0  0  0  0
  195.6160  175.1170  139.1790 C   0  0  0  0  0  0  0  0  0  0  0  0
  195.0410  175.0120  137.1690 C   0  0  0  0  0  0  0  0  0  0  0  0
  194.2520  175.0870  139.2470 N   0  0  0  0  0  0  0  0  0  0  0  0
  196.0890  175.0750  137.9410 O   0  0  0  0  0  0  0  0  0  0  0  0
  193.6770  174.8570  135.2260 C   0  0  0  0  0  3  0  0  0  0  0  0
  192.6750  174.9490  137.4250 N   0  0  0  0  0  0  0  0  0  0  0  0
  192.5280  174.8680  136.0640 C   0  0  0  0  0  0  0  0  0  0  0  0
  193.9270  175.0220  137.9460 C   0  0  0  0  0  0  0  0  0  0  0  0
  190.6090  175.9860  134.9100 N   0  0  0  0  0  1  0  0  0  0  0  0
  190.5350  173.7370  135.4540 O   0  0  0  0  0  0  0  0  0  0  0  0
  191.1830  174.8170  135.4770 C   0  0  0  0  0  0  0  0  0  0  0  0
  3 10  1  0  0  0  0
  3 14  1  1  0  0  0
  4  1  1  0  0  0  0
  5  4  2  0  0  0  0
  5 21  1  0  0  0  0
  6 21  1  0  0  0  0
  7  2  1  6  0  0  0
  7 18  1  0  0  0  0
  8 27  1  1  0  0  0
  8 13  1  0  0  0  0
  9 14  1  0  0  0  0
 10 12  2  0  0  0  0
 11 28  1  6  0  0  0
 11 15  1  0  0  0  0
 12 11  1  0  0  0  0
 13 10  1  0  0  0  0
 15 19  1  6  0  0  0
 17  7  1  0  0  0  0
 17  5  1  0  0  0  0
 18  9  1  6  0  0  0
 18  6  1  0  0  0  0
 18 16  1  0  0  0  0
 20  8  1  0  0  0  0
 20  3  1  0  0  0  0
 22 16  1  0  0  0  0
 22 15  1  0  0  0  0
 23 24  1  0  0  0  0
 24 20  1  0  0  0  0
 25 24  1  0  0  0  0
 26 27  1  0  0  0  0
 28 29  1  0  0  0  0
 31 34  1  0  0  0  0
 31 37  1  0  0  0  0
 31 29  1  1  0  0  0
 32 35  1  0  0  0  0
 33 31  1  0  0  0  0
 35 38  2  0  0  0  0
 35 37  1  0  0  0  0
 36 30  1  6  0  0  0
 36 32  1  0  0  0  0
 36 33  1  0  0  0  0
 37 34  1  6  0  0  0
 39 41  1  0  0  0  0
 40 42  2  0  0  0  0
 40 36  1  0  0  0  0
 41 43  1  0  0  0  0
 41 47  2  0  0  0  0
 43 40  1  0  0  0  0
 44 39  2  0  0  0  0
 44 46  1  0  0  0  0
 45 47  1  0  0  0  0
 46 45  2  0  0  0  0
 47 42  1  0  0  0  0
 48 50  1  0  0  0  0
 49 50  2  0  0  0  0
 50 46  1  0  0  0  0
M  END
>  <MODEL>
4

>  <REMARK>
 VINA RESULT:      -7.5      2.366      3.152
  Name = 
  7 active torsions:
  status: ('A' for Active; 'I' for Inactive)
    1  A    between atoms: O_5  and  C_16
    2  A    between atoms: O_5  and  O_24
    3  A    between atoms: C_9  and  C_40
    4  A    between atoms: C_17  and  O_30
    5  A    between atoms: C_20  and  O_24
    6  A    between atoms: C_29  and  C_43
    7  A    between atoms: C_41  and  N_48
                            x       y       z     vdW  Elec       q    Type
                         _______ _______ _______ _____ _____    ______ ____

>  <TORSDO>
F 7

$$$$
=
 OpenBabel11062419193D

 50 56  0  0  1  0  0  0  0  0999 V2000
  191.9670  168.7390  134.5420 C   0  0  0  0  0  1  0  0  0  0  0  0
  192.0700  169.4310  140.5540 O   0  0  0  0  0  1  0  0  0  0  0  0
  190.2350  173.6410  141.4690 C   0  0  2  0  0  3  0  0  0  0  0  0
  191.7040  168.4470  135.9240 N   0  0  0  0  0  0  0  0  0  0  0  0
  191.7940  169.3320  136.8570 C   0  0  0  0  0  0  0  0  0  0  0  0
  191.5300  171.6900  137.5960 C   0  0  0  0  0  2  0  0  0  0  0  0
  192.2480  169.8570  139.2320 C   0  0  1  0  0  3  0  0  0  0  0  0
  188.5660  175.3110  141.6780 C   0  0  2  0  0  3  0  0  0  0  0  0
  190.7130  171.7520  139.9400 C   0  0  0  0  0  2  0  0  0  0  0  0
  190.8260  174.9670  141.7570 C   0  0  0  0  0  0  0  0  0  0  0  0
  193.2510  174.3120  142.1940 C   0  0  2  0  0  3  0  0  0  0  0  0
  192.1020  175.2670  142.0150 C   0  0  0  0  0  3  0  0  0  0  0  0
  189.8410  175.9170  141.8090 O   0  0  0  0  0  0  0  0  0  0  0  0
  190.5550  173.2600  140.0410 C   0  0  0  0  0  2  0  0  0  0  0  0
  193.8140  173.6270  140.9460 C   0  0  1  0  0  3  0  0  0  0  0  0
  193.1530  172.1880  139.3960 C   0  0  0  0  0  2  0  0  0  0  0  0
  191.5090  168.9270  138.2680 C   0  0  0  0  0  2  0  0  0  0  0  0
  191.9080  171.3610  139.0520 C   0  0  2  0  0  0  0  0  0  0  0  0
  195.3250  173.5480  141.0740 C   0  0  0  0  0  1  0  0  0  0  0  0
  188.7870  173.8540  141.5560 N   0  0  0  0  0  0  0  0  0  0  0  0
  192.1900  170.7640  136.5740 C   0  0  0  0  0  2  0  0  0  0  0  0
  193.2950  172.3350  140.7860 O   0  0  0  0  0  0  0  0  0  0  0  0
  187.0140  172.2930  142.3890 C   0  0  0  0  0  1  0  0  0  0  0  0
  188.2540  173.1170  142.7080 C   0  0  0  0  0  3  0  0  0  0  0  0
  189.3200  172.2370  143.3300 C   0  0  0  0  0  1  0  0  0  0  0  0
  187.1010  176.8070  140.9630 C   0  0  0  0  0  1  0  0  0  0  0  0
  187.9490  175.7870  140.5180 O   0  0  0  0  0  0  0  0  0  0  0  0
  193.0940  173.4580  143.3010 O   0  0  0  0  0  0  0  0  0  0  0  0
  194.1760  173.6700  144.0390 O   0  0  0  0  0  0  0  0  0  0  0  0
  192.1230  175.2980  147.5080 O   0  0  0  0  0  1  0  0  0  0  0  0
  193.7760  174.5390  145.0660 C   0  0  1  0  0  0  0  0  0  0  0  0
  192.8360  177.0280  146.1650 O   0  0  0  0  0  0  0  0  0  0  0  0
  192.2830  174.9030  145.1530 C   0  0  0  0  0  2  0  0  0  0  0  0
  194.6310  174.4830  146.3170 C   0  0  0  0  0  2  0  0  0  0  0  0
  194.1990  176.9050  145.8770 C   0  0  0  0  0  0  0  0  0  0  0  0
  191.9640  175.9050  146.2570 C   0  0  1  0  0  0  0  0  0  0  0  0
  194.7990  175.6360  145.3310 C   0  0  2  0  0  3  0  0  0  0  0  0
  194.9410  177.9140  146.0050 O   0  0  0  0  0  0  0  0  0  0  0  0
  187.1890  176.4160  146.9510 C   0  0  0  0  0  3  0  0  0  0  0  0
  190.5430  176.3410  146.1030 C   0  0  0  0  0  0  0  0  0  0  0  0
  188.4850  176.4870  146.4600 C   0  0  0  0  0  0  0  0  0  0  0  0
  190.1030  177.1260  145.0740 N   0  0  0  0  0  0  0  0  0  0  0  0
  189.5790  175.9570  146.9300 O   0  0  0  0  0  0  0  0  0  0  0  0
  186.2020  177.1160  146.2290 C   0  0  0  0  0  3  0  0  0  0  0  0
  187.8520  177.8730  144.6310 N   0  0  0  0  0  0  0  0  0  0  0  0
  186.5500  177.8470  145.0590 C   0  0  0  0  0  0  0  0  0  0  0  0
  188.7890  177.1910  145.3390 C   0  0  0  0  0  0  0  0  0  0  0  0
  185.8820  179.4090  143.2210 N   0  0  0  0  0  1  0  0  0  0  0  0
  184.2950  178.3950  144.5680 O   0  0  0  0  0  0  0  0  0  0  0  0
  185.5150  178.5540  144.2930 C   0  0  0  0  0  0  0  0  0  0  0  0
  1  4  1  0  0  0  0
  3 14  1  6  0  0  0
  3 20  1  0  0  0  0
  3 10  1  0  0  0  0
  4  5  2  0  0  0  0
  5 17  1  0  0  0  0
  7  2  1  1  0  0  0
  8 27  1  6  0  0  0
  8 13  1  0  0  0  0
  9 14  1  0  0  0  0
 10 13  1  0  0  0  0
 10 12  2  0  0  0  0
 11 28  1  1  0  0  0
 12 11  1  0  0  0  0
 15 19  1  1  0  0  0
 15 11  1  0  0  0  0
 16 22  1  0  0  0  0
 17  7  1  0  0  0  0
 18  6  1  6  0  0  0
 18  7  1  0  0  0  0
 18 16  1  0  0  0  0
 18  9  1  0  0  0  0
 20  8  1  0  0  0  0
 20 24  1  0  0  0  0
 21  5  1  0  0  0  0
 21  6  1  0  0  0  0
 22 15  1  0  0  0  0
 23 24  1  0  0  0  0
 24 25  1  0  0  0  0
 27 26  1  0  0  0  0
 28 29  1  0  0  0  0
 31 29  1  6  0  0  0
 31 33  1  0  0  0  0
 31 37  1  0  0  0  0
 31 34  1  0  0  0  0
 32 36  1  0  0  0  0
 33 36  1  0  0  0  0
 35 38  2  0  0  0  0
 35 32  1  0  0  0  0
 36 30  1  1  0  0  0
 37 35  1  0  0  0  0
 37 34  1  1  0  0  0
 40 36  1  0  0  0  0
 40 43  1  0  0  0  0
 41 43  1  0  0  0  0
 41 39  1  0  0  0  0
 42 47  1  0  0  0  0
 42 40  2  0  0  0  0
 44 39  2  0  0  0  0
 45 46  2  0  0  0  0
 45 47  1  0  0  0  0
 46 44  1  0  0  0  0
 47 41  2  0  0  0  0
 48 50  1  0  0  0  0
 50 49  2  0  0  0  0
 50 46  1  0  0  0  0
M  END
>  <MODEL>
5

>  <REMARK>
 VINA RESULT:      -6.9      3.300      8.353
  Name = 
  7 active torsions:
  status: ('A' for Active; 'I' for Inactive)
    1  A    between atoms: O_5  and  C_16
    2  A    between atoms: O_5  and  O_24
    3  A    between atoms: C_9  and  C_40
    4  A    between atoms: C_17  and  O_30
    5  A    between atoms: C_20  and  O_24
    6  A    between atoms: C_29  and  C_43
    7  A    between atoms: C_41  and  N_48
                            x       y       z     vdW  Elec       q    Type
                         _______ _______ _______ _____ _____    ______ ____

>  <TORSDO>
F 7

$$$$
=
 OpenBabel11062419193D

 50 56  0  0  1  0  0  0  0  0999 V2000
  191.5720  177.6750  149.1560 C   0  0  0  0  0  1  0  0  0  0  0  0
  190.5660  176.1530  143.3850 O   0  0  0  0  0  1  0  0  0  0  0  0
  192.8650  172.1460  142.6170 C   0  0  2  0  0  3  0  0  0  0  0  0
  190.8260  177.3450  147.9730 N   0  0  0  0  0  0  0  0  0  0  0  0
  191.3470  176.7360  146.9640 C   0  0  0  0  0  0  0  0  0  0  0  0
  192.9550  175.0610  146.0770 C   0  0  0  0  0  2  0  0  0  0  0  0
  191.3630  176.3270  144.5230 C   0  0  1  0  0  3  0  0  0  0  0  0
  193.3480  169.8290  142.7560 C   0  0  2  0  0  3  0  0  0  0  0  0
  191.9640  173.8920  144.1240 C   0  0  0  0  0  2  0  0  0  0  0  0
  194.1730  171.8250  142.0040 C   0  0  0  0  0  0  0  0  0  0  0  0
  194.7290  174.0550  140.8980 C   0  0  2  0  0  3  0  0  0  0  0  0
  194.9890  172.6340  141.3210 C   0  0  0  0  0  3  0  0  0  0  0  0
  194.4490  170.4920  142.1570 O   0  0  0  0  0  0  0  0  0  0  0  0
  193.0980  172.9060  143.9030 C   0  0  0  0  0  2  0  0  0  0  0  0
  194.7840  175.1430  141.9740 C   0  0  1  0  0  3  0  0  0  0  0  0
  193.6900  175.7260  143.8100 C   0  0  0  0  0  2  0  0  0  0  0  0
  190.4900  176.4450  145.7730 C   0  0  0  0  0  2  0  0  0  0  0  0
  192.4790  175.2530  144.6250 C   0  0  2  0  0  0  0  0  0  0  0  0
  195.4410  176.3790  141.3830 C   0  0  0  0  0  1  0  0  0  0  0  0
  192.2920  170.8430  142.9700 N   0  0  0  0  0  0  0  0  0  0  0  0
  192.8000  176.3160  146.9370 C   0  0  0  0  0  2  0  0  0  0  0  0
  193.5050  175.4760  142.4390 O   0  0  0  0  0  0  0  0  0  0  0  0
  190.8170  169.1110  141.9210 C   0  0  0  0  0  1  0  0  0  0  0  0
  191.1080  170.5900  142.1410 C   0  0  0  0  0  3  0  0  0  0  0  0
  189.8870  171.2830  142.7120 C   0  0  0  0  0  1  0  0  0  0  0  0
  195.1390  169.2110  143.9000 C   0  0  0  0  0  1  0  0  0  0  0  0
  193.7450  169.3030  143.9870 O   0  0  0  0  0  0  0  0  0  0  0  0
  193.6480  174.1790  140.0060 O   0  0  0  0  0  0  0  0  0  0  0  0
  193.4690  172.9540  139.5290 O   0  0  0  0  0  0  0  0  0  0  0  0
  189.6220  174.1430  137.8910 O   0  0  0  0  0  1  0  0  0  0  0  0
  192.1420  172.9090  139.0740 C   0  0  1  0  0  0  0  0  0  0  0  0
  189.3310  172.3210  139.2690 O   0  0  0  0  0  0  0  0  0  0  0  0
  191.1310  173.8690  139.7290 C   0  0  0  0  0  2  0  0  0  0  0  0
  191.9780  172.4830  137.6290 C   0  0  0  0  0  2  0  0  0  0  0  0
  190.2010  171.2850  138.9150 C   0  0  0  0  0  0  0  0  0  0  0  0
  189.7060  173.6940  139.2140 C   0  0  1  0  0  0  0  0  0  0  0  0
  191.6840  171.4930  138.7530 C   0  0  2  0  0  3  0  0  0  0  0  0
  189.7420  170.1180  138.8010 O   0  0  0  0  0  0  0  0  0  0  0  0
  186.5400  177.0700  140.6710 C   0  0  0  0  0  3  0  0  0  0  0  0
  188.7920  174.5140  140.0670 C   0  0  0  0  0  0  0  0  0  0  0  0
  187.4420  176.0160  140.6140 C   0  0  0  0  0  0  0  0  0  0  0  0
  188.6650  174.3410  141.4150 N   0  0  0  0  0  0  0  0  0  0  0  0
  188.0650  175.5140  139.5860 O   0  0  0  0  0  0  0  0  0  0  0  0
  186.0090  177.3780  141.9380 C   0  0  0  0  0  3  0  0  0  0  0  0
  187.2960  175.6000  142.9530 N   0  0  0  0  0  0  0  0  0  0  0  0
  186.3990  176.6290  143.0830 C   0  0  0  0  0  0  0  0  0  0  0  0
  187.7980  175.3190  141.7230 C   0  0  0  0  0  0  0  0  0  0  0  0
  184.8170  177.9200  144.5310 N   0  0  0  0  0  1  0  0  0  0  0  0
  186.3180  176.4120  145.4430 O   0  0  0  0  0  0  0  0  0  0  0  0
  185.8650  176.9700  144.4080 C   0  0  0  0  0  0  0  0  0  0  0  0
  3 20  1  0  0  0  0
  3 14  1  1  0  0  0
  4  1  1  0  0  0  0
  5  4  2  0  0  0  0
  6 21  1  0  0  0  0
  7  2  1  6  0  0  0
  7 18  1  0  0  0  0
  7 17  1  0  0  0  0
  8 20  1  0  0  0  0
  8 27  1  1  0  0  0
  9 18  1  0  0  0  0
 10 13  1  0  0  0  0
 10  3  1  0  0  0  0
 11 28  1  1  0  0  0
 11 12  1  0  0  0  0
 11 15  1  0  0  0  0
 12 10  2  0  0  0  0
 13  8  1  0  0  0  0
 14  9  1  0  0  0  0
 15 19  1  6  0  0  0
 15 22  1  0  0  0  0
 17  5  1  0  0  0  0
 18 16  1  6  0  0  0
 18  6  1  0  0  0  0
 21  5  1  0  0  0  0
 22 16  1  0  0  0  0
 23 24  1  0  0  0  0
 24 25  1  0  0  0  0
 24 20  1  0  0  0  0
 26 27  1  0  0  0  0
 29 28  1  0  0  0  0
 31 29  1  1  0  0  0
 31 33  1  0  0  0  0
 34 31  1  0  0  0  0
 35 32  1  0  0  0  0
 36 30  1  6  0  0  0
 36 32  1  0  0  0  0
 36 33  1  0  0  0  0
 36 40  1  0  0  0  0
 37 34  1  6  0  0  0
 37 35  1  0  0  0  0
 37 31  1  0  0  0  0
 38 35  2  0  0  0  0
 39 44  1  0  0  0  0
 40 42  2  0  0  0  0
 41 39  2  0  0  0  0
 41 47  1  0  0  0  0
 42 47  1  0  0  0  0
 43 40  1  0  0  0  0
 43 41  1  0  0  0  0
 44 46  2  0  0  0  0
 45 46  1  0  0  0  0
 46 50  1  0  0  0  0
 47 45  2  0  0  0  0
 50 48  1  0  0  0  0
 50 49  2  0  0  0  0
M  END
>  <MODEL>
6

>  <REMARK>
 VINA RESULT:      -6.8      3.302      7.668
  Name = 
  7 active torsions:
  status: ('A' for Active; 'I' for Inactive)
    1  A    between atoms: O_5  and  C_16
    2  A    between atoms: O_5  and  O_24
    3  A    between atoms: C_9  and  C_40
    4  A    between atoms: C_17  and  O_30
    5  A    between atoms: C_20  and  O_24
    6  A    between atoms: C_29  and  C_43
    7  A    between atoms: C_41  and  N_48
                            x       y       z     vdW  Elec       q    Type
                         _______ _______ _______ _____ _____    ______ ____

>  <TORSDO>
F 7

$$$$
=
 OpenBabel11062419193D

 50 56  0  0  1  0  0  0  0  0999 V2000
  186.5360  175.9410  135.9790 C   0  0  0  0  0  1  0  0  0  0  0  0
  188.9000  173.0800  140.7600 O   0  0  0  0  0  1  0  0  0  0  0  0
  193.5380  172.9710  140.1210 C   0  0  2  0  0  3  0  0  0  0  0  0
  186.8310  175.6650  137.3590 N   0  0  0  0  0  0  0  0  0  0  0  0
  187.8160  174.9210  137.7290 C   0  0  0  0  0  0  0  0  0  0  0  0
  190.1380  174.1130  137.3620 C   0  0  0  0  0  2  0  0  0  0  0  0
  188.7750  173.3620  139.3940 C   0  0  1  0  0  3  0  0  0  0  0  0
  195.7570  173.7950  139.9850 C   0  0  2  0  0  3  0  0  0  0  0  0
  191.2730  173.7910  139.5460 C   0  0  0  0  0  2  0  0  0  0  0  0
  194.4710  171.9410  139.6100 C   0  0  0  0  0  0  0  0  0  0  0  0
  192.9590  169.8890  139.6370 C   0  0  2  0  0  3  0  0  0  0  0  0
  194.2240  170.6530  139.3560 C   0  0  0  0  0  3  0  0  0  0  0  0
  195.7290  172.4690  139.4860 O   0  0  0  0  0  0  0  0  0  0  0  0
  192.6390  173.4230  138.9920 C   0  0  0  0  0  2  0  0  0  0  0  0
  191.7500  170.1500  138.7350 C   0  0  1  0  0  3  0  0  0  0  0  0
  190.3700  171.8110  138.2400 C   0  0  0  0  0  2  0  0  0  0  0  0
  188.0360  174.6850  139.1890 C   0  0  0  0  0  2  0  0  0  0  0  0
  190.1340  173.2700  138.6510 C   0  0  2  0  0  0  0  0  0  0  0  0
  191.0390  168.8320  138.4790 C   0  0  0  0  0  1  0  0  0  0  0  0
  194.3980  174.1030  140.4820 N   0  0  0  0  0  0  0  0  0  0  0  0
  188.7510  174.2680  136.7360 C   0  0  0  0  0  2  0  0  0  0  0  0
  190.8520  171.0530  139.3200 O   0  0  0  0  0  0  0  0  0  0  0  0
  195.7460  174.2200  142.5900 C   0  0  0  0  0  1  0  0  0  0  0  0
  194.3720  174.2900  141.9370 C   0  0  0  0  0  3  0  0  0  0  0  0
  193.6840  175.5890  142.3060 C   0  0  0  0  0  1  0  0  0  0  0  0
  197.2960  175.2460  139.3350 C   0  0  0  0  0  1  0  0  0  0  0  0
  196.0810  174.6700  138.9460 O   0  0  0  0  0  0  0  0  0  0  0  0
  192.6510  169.8100  141.0080 O   0  0  0  0  0  0  0  0  0  0  0  0
  193.4380  168.8480  141.4700 O   0  0  0  0  0  0  0  0  0  0  0  0
  193.8170  170.1800  145.5910 O   0  0  0  0  0  1  0  0  0  0  0  0
  193.9790  169.3380  142.6690 C   0  0  1  0  0  0  0  0  0  0  0  0
  195.4370  171.2000  144.3100 O   0  0  0  0  0  0  0  0  0  0  0  0
  193.3330  170.5930  143.2830 C   0  0  0  0  0  2  0  0  0  0  0  0
  194.6200  168.2870  143.5540 C   0  0  0  0  0  2  0  0  0  0  0  0
  196.1620  170.2540  143.5790 C   0  0  0  0  0  0  0  0  0  0  0  0
  194.0370  171.0830  144.5450 C   0  0  1  0  0  0  0  0  0  0  0  0
  195.4960  169.2140  142.7160 C   0  0  2  0  0  3  0  0  0  0  0  0
  197.4200  170.3190  143.5800 O   0  0  0  0  0  0  0  0  0  0  0  0
  193.5110  175.5160  146.4470 C   0  0  0  0  0  3  0  0  0  0  0  0
  193.4630  172.4120  144.9180 C   0  0  0  0  0  0  0  0  0  0  0  0
  193.3120  174.3080  145.7930 C   0  0  0  0  0  0  0  0  0  0  0  0
  192.1880  172.7940  144.6150 N   0  0  0  0  0  0  0  0  0  0  0  0
  194.1360  173.3130  145.6240 O   0  0  0  0  0  0  0  0  0  0  0  0
  192.4270  176.4160  146.4520 C   0  0  0  0  0  3  0  0  0  0  0  0
  191.0780  174.8600  145.1840 N   0  0  0  0  0  0  0  0  0  0  0  0
  191.2040  176.0730  145.8120 C   0  0  0  0  0  0  0  0  0  0  0  0
  192.1330  174.0050  145.1920 C   0  0  0  0  0  0  0  0  0  0  0  0
  189.5410  177.5220  144.6290 N   0  0  0  0  0  1  0  0  0  0  0  0
  189.5370  177.3300  146.9360 O   0  0  0  0  0  0  0  0  0  0  0  0
  190.0670  177.0020  145.8410 C   0  0  0  0  0  0  0  0  0  0  0  0
  1  4  1  0  0  0  0
  3 14  1  6  0  0  0
  3 20  1  0  0  0  0
  4  5  2  0  0  0  0
  5 17  1  0  0  0  0
  7  2  1  1  0  0  0
  8 27  1  6  0  0  0
  8 20  1  0  0  0  0
 10  3  1  0  0  0  0
 11 28  1  1  0  0  0
 12 10  2  0  0  0  0
 12 11  1  0  0  0  0
 13 10  1  0  0  0  0
 13  8  1  0  0  0  0
 14  9  1  0  0  0  0
 15 19  1  1  0  0  0
 15 22  1  0  0  0  0
 15 11  1  0  0  0  0
 16 18  1  0  0  0  0
 16 22  1  0  0  0  0
 17  7  1  0  0  0  0
 18  6  1  6  0  0  0
 18  7  1  0  0  0  0
 18  9  1  0  0  0  0
 20 24  1  0  0  0  0
 21  6  1  0  0  0  0
 21  5  1  0  0  0  0
 24 25  1  0  0  0  0
 24 23  1  0  0  0  0
 27 26  1  0  0  0  0
 28 29  1  0  0  0  0
 31 29  1  6  0  0  0
 31 37  1  0  0  0  0
 31 33  1  0  0  0  0
 31 34  1  0  0  0  0
 32 36  1  0  0  0  0
 33 36  1  0  0  0  0
 35 38  2  0  0  0  0
 35 32  1  0  0  0  0
 36 40  1  0  0  0  0
 36 30  1  1  0  0  0
 37 34  1  1  0  0  0
 37 35  1  0  0  0  0
 39 44  1  0  0  0  0
 40 43  1  0  0  0  0
 41 39  2  0  0  0  0
 42 40  2  0  0  0  0
 42 47  1  0  0  0  0
 43 41  1  0  0  0  0
 45 47  2  0  0  0  0
 45 46  1  0  0  0  0
 46 50  1  0  0  0  0
 46 44  2  0  0  0  0
 47 41  1  0  0  0  0
 48 50  1  0  0  0  0
 50 49  2  0  0  0  0
M  END
>  <MODEL>
7

>  <REMARK>
 VINA RESULT:      -6.5      2.886      6.672
  Name = 
  7 active torsions:
  status: ('A' for Active; 'I' for Inactive)
    1  A    between atoms: O_5  and  C_16
    2  A    between atoms: O_5  and  O_24
    3  A    between atoms: C_9  and  C_40
    4  A    between atoms: C_17  and  O_30
    5  A    between atoms: C_20  and  O_24
    6  A    between atoms: C_29  and  C_43
    7  A    between atoms: C_41  and  N_48
                            x       y       z     vdW  Elec       q    Type
                         _______ _______ _______ _____ _____    ______ ____

>  <TORSDO>
F 7

$$$$
=
 OpenBabel11062419193D

 50 56  0  0  1  0  0  0  0  0999 V2000
  189.5100  170.9490  135.9960 C   0  0  0  0  0  1  0  0  0  0  0  0
  190.4510  173.3760  141.4600 O   0  0  0  0  0  1  0  0  0  0  0  0
  195.0890  173.5560  142.0860 C   0  0  2  0  0  3  0  0  0  0  0  0
  189.4410  171.9150  137.0570 N   0  0  0  0  0  0  0  0  0  0  0  0
  190.2580  171.9210  138.0540 C   0  0  0  0  0  0  0  0  0  0  0  0
  192.5440  171.5230  138.9440 C   0  0  0  0  0  2  0  0  0  0  0  0
  190.6820  172.4520  140.4340 C   0  0  1  0  0  3  0  0  0  0  0  0
  197.3190  174.2990  141.7810 C   0  0  2  0  0  3  0  0  0  0  0  0
  193.0880  173.2300  140.6630 C   0  0  0  0  0  2  0  0  0  0  0  0
  196.0530  172.6900  142.8000 C   0  0  0  0  0  0  0  0  0  0  0  0
  194.4580  171.2410  144.1630 C   0  0  2  0  0  3  0  0  0  0  0  0
  195.7980  171.6810  143.6380 C   0  0  0  0  0  3  0  0  0  0  0  0
  197.3330  173.1100  142.5520 O   0  0  0  0  0  0  0  0  0  0  0  0
  194.5230  172.7950  140.9080 C   0  0  0  0  0  2  0  0  0  0  0  0
  193.5250  170.4940  143.2070 C   0  0  1  0  0  3  0  0  0  0  0  0
  192.4130  170.8750  141.3280 C   0  0  0  0  0  2  0  0  0  0  0  0
  190.0980  172.9620  139.1150 C   0  0  0  0  0  2  0  0  0  0  0  0
  192.1730  172.0320  140.3490 C   0  0  2  0  0  0  0  0  0  0  0  0
  192.8190  169.3910  143.9770 C   0  0  0  0  0  1  0  0  0  0  0  0
  195.9020  174.6550  141.5530 N   0  0  0  0  0  0  0  0  0  0  0  0
  191.3660  170.9000  138.1940 C   0  0  0  0  0  2  0  0  0  0  0  0
  192.5690  171.3490  142.6420 O   0  0  0  0  0  0  0  0  0  0  0  0
  196.7160  176.6630  142.8100 C   0  0  0  0  0  1  0  0  0  0  0  0
  195.5310  175.9050  142.2250 C   0  0  0  0  0  3  0  0  0  0  0  0
  194.7420  176.8070  141.2980 C   0  0  0  0  0  1  0  0  0  0  0  0
  197.4880  175.0850  139.7200 C   0  0  0  0  0  1  0  0  0  0  0  0
  197.9410  174.0570  140.5540 O   0  0  0  0  0  0  0  0  0  0  0  0
  193.8190  172.2220  144.9450 O   0  0  0  0  0  0  0  0  0  0  0  0
  193.1640  172.9710  144.0670 O   0  0  0  0  0  0  0  0  0  0  0  0
  190.6590  175.5660  146.4940 O   0  0  0  0  0  1  0  0  0  0  0  0
  192.6970  174.0830  144.7850 C   0  0  1  0  0  0  0  0  0  0  0  0
  192.0250  176.8560  145.1620 O   0  0  0  0  0  0  0  0  0  0  0  0
  191.3350  174.6750  144.3780 C   0  0  0  0  0  2  0  0  0  0  0  0
  193.1730  174.1580  146.2220 C   0  0  0  0  0  2  0  0  0  0  0  0
  193.3630  176.4750  145.3030 C   0  0  0  0  0  0  0  0  0  0  0  0
  190.9520  175.9190  145.1720 C   0  0  1  0  0  0  0  0  0  0  0  0
  193.8160  175.0450  145.1600 C   0  0  2  0  0  3  0  0  0  0  0  0
  194.2340  177.3670  145.4810 O   0  0  0  0  0  0  0  0  0  0  0  0
  188.0000  178.1840  142.0570 C   0  0  0  0  0  3  0  0  0  0  0  0
  189.7350  176.5210  144.5470 C   0  0  0  0  0  0  0  0  0  0  0  0
  188.5380  177.5290  143.1560 C   0  0  0  0  0  0  0  0  0  0  0  0
  188.5250  176.5980  145.1760 N   0  0  0  0  0  0  0  0  0  0  0  0
  189.7460  177.0780  143.3420 O   0  0  0  0  0  0  0  0  0  0  0  0
  186.6390  178.5400  142.1390 C   0  0  0  0  0  3  0  0  0  0  0  0
  186.4810  177.5820  144.3540 N   0  0  0  0  0  0  0  0  0  0  0  0
  185.8840  178.2310  143.3040 C   0  0  0  0  0  0  0  0  0  0  0  0
  187.7930  177.2480  144.2570 C   0  0  0  0  0  0  0  0  0  0  0  0
  183.5470  178.2060  142.4070 N   0  0  0  0  0  1  0  0  0  0  0  0
  184.0680  179.3280  144.3630 O   0  0  0  0  0  0  0  0  0  0  0  0
  184.4720  178.6280  143.3970 C   0  0  0  0  0  0  0  0  0  0  0  0
  1  4  1  0  0  0  0
  3 14  1  6  0  0  0
  3 10  1  0  0  0  0
  4  5  2  0  0  0  0
  5 21  1  0  0  0  0
  5 17  1  0  0  0  0
  7  2  1  1  0  0  0
  8 27  1  6  0  0  0
  8 13  1  0  0  0  0
  9 14  1  0  0  0  0
 10 12  2  0  0  0  0
 11 28  1  6  0  0  0
 12 11  1  0  0  0  0
 13 10  1  0  0  0  0
 15 19  1  1  0  0  0
 15 11  1  0  0  0  0
 16 22  1  0  0  0  0
 17  7  1  0  0  0  0
 18  6  1  6  0  0  0
 18  7  1  0  0  0  0
 18  9  1  0  0  0  0
 18 16  1  0  0  0  0
 20  8  1  0  0  0  0
 20  3  1  0  0  0  0
 20 24  1  0  0  0  0
 21  6  1  0  0  0  0
 22 15  1  0  0  0  0
 24 23  1  0  0  0  0
 25 24  1  0  0  0  0
 26 27  1  0  0  0  0
 29 28  1  0  0  0  0
 31 29  1  6  0  0  0
 31 37  1  0  0  0  0
 31 34  1  0  0  0  0
 32 36  1  0  0  0  0
 32 35  1  0  0  0  0
 33 31  1  0  0  0  0
 33 36  1  0  0  0  0
 35 38  2  0  0  0  0
 36 30  1  1  0  0  0
 37 35  1  0  0  0  0
 37 34  1  1  0  0  0
 39 44  2  0  0  0  0
 39 41  1  0  0  0  0
 40 36  1  0  0  0  0
 40 42  2  0  0  0  0
 41 43  1  0  0  0  0
 41 47  2  0  0  0  0
 43 40  1  0  0  0  0
 44 46  1  0  0  0  0
 46 50  1  0  0  0  0
 46 45  2  0  0  0  0
 47 45  1  0  0  0  0
 47 42  1  0  0  0  0
 48 50  1  0  0  0  0
 50 49  2  0  0  0  0
M  END
>  <MODEL>
8

>  <REMARK>
 VINA RESULT:      -6.4      2.331      7.803
  Name = 
  7 active torsions:
  status: ('A' for Active; 'I' for Inactive)
    1  A    between atoms: O_5  and  C_16
    2  A    between atoms: O_5  and  O_24
    3  A    between atoms: C_9  and  C_40
    4  A    between atoms: C_17  and  O_30
    5  A    between atoms: C_20  and  O_24
    6  A    between atoms: C_29  and  C_43
    7  A    between atoms: C_41  and  N_48
                            x       y       z     vdW  Elec       q    Type
                         _______ _______ _______ _____ _____    ______ ____

>  <TORSDO>
F 7

$$$$
=
 OpenBabel11062419193D

 50 56  0  0  1  0  0  0  0  0999 V2000
  185.9920  176.4840  143.8160 C   0  0  0  0  0  1  0  0  0  0  0  0
  191.6430  174.7650  142.4950 O   0  0  0  0  0  1  0  0  0  0  0  0
  191.5210  172.8740  138.2120 C   0  0  2  0  0  3  0  0  0  0  0  0
  187.4080  176.6030  143.6030 N   0  0  0  0  0  0  0  0  0  0  0  0
  188.0910  175.7380  142.9350 C   0  0  0  0  0  0  0  0  0  0  0  0
  188.2280  174.1130  141.0590 C   0  0  0  0  0  2  0  0  0  0  0  0
  190.2530  174.5990  142.5470 C   0  0  1  0  0  3  0  0  0  0  0  0
  191.3410  172.7960  135.8500 C   0  0  2  0  0  3  0  0  0  0  0  0
  190.4990  174.1740  140.0560 C   0  0  0  0  0  2  0  0  0  0  0  0
  191.4610  171.4810  137.7170 C   0  0  0  0  0  0  0  0  0  0  0  0
  192.0010  170.2020  139.8560 C   0  0  2  0  0  3  0  0  0  0  0  0
  191.6130  170.3480  138.4100 C   0  0  0  0  0  3  0  0  0  0  0  0
  191.2950  171.4740  136.3580 O   0  0  0  0  0  0  0  0  0  0  0  0
  190.2260  173.2000  138.9220 C   0  0  0  0  0  2  0  0  0  0  0  0
  190.9520  170.5420  140.9170 C   0  0  1  0  0  3  0  0  0  0  0  0
  189.8180  172.3060  141.6330 C   0  0  0  0  0  2  0  0  0  0  0  0
  189.5630  175.9450  142.7760 C   0  0  0  0  0  2  0  0  0  0  0  0
  189.7140  173.8060  141.3270 C   0  0  2  0  0  0  0  0  0  0  0  0
  191.0670  169.5410  142.0540 C   0  0  0  0  0  1  0  0  0  0  0  0
  191.5800  173.6960  136.9990 N   0  0  0  0  0  0  0  0  0  0  0  0
  187.4550  174.5130  142.3170 C   0  0  0  0  0  2  0  0  0  0  0  0
  191.1260  171.8380  141.4220 O   0  0  0  0  0  0  0  0  0  0  0  0
  192.8270  175.7770  136.3740 C   0  0  0  0  0  1  0  0  0  0  0  0
  192.8880  174.3560  136.9210 C   0  0  0  0  0  3  0  0  0  0  0  0
  193.5840  174.3450  138.2670 C   0  0  0  0  0  1  0  0  0  0  0  0
  189.5240  171.8640  134.9980 C   0  0  0  0  0  1  0  0  0  0  0  0
  190.1120  173.1060  135.2640 O   0  0  0  0  0  0  0  0  0  0  0  0
  193.2880  170.6970  140.1370 O   0  0  0  0  0  0  0  0  0  0  0  0
  193.9160  169.6820  140.7150 O   0  0  0  0  0  0  0  0  0  0  0  0
  195.8260  170.8850  144.4300 O   0  0  0  0  0  1  0  0  0  0  0  0
  194.8150  170.2550  141.6270 C   0  0  1  0  0  0  0  0  0  0  0  0
  196.3730  172.3880  142.7730 O   0  0  0  0  0  0  0  0  0  0  0  0
  194.2470  171.2390  142.6660 C   0  0  0  0  0  2  0  0  0  0  0  0
  196.0230  169.4000  141.9540 C   0  0  0  0  0  2  0  0  0  0  0  0
  196.8800  171.7280  141.6490 C   0  0  0  0  0  0  0  0  0  0  0  0
  195.3140  171.8580  143.5640 C   0  0  1  0  0  0  0  0  0  0  0  0
  196.1610  170.5770  140.9930 C   0  0  2  0  0  3  0  0  0  0  0  0
  197.9380  172.1560  141.1180 O   0  0  0  0  0  0  0  0  0  0  0  0
  194.6660  175.9090  146.1560 C   0  0  0  0  0  3  0  0  0  0  0  0
  194.6790  172.9440  144.3710 C   0  0  0  0  0  0  0  0  0  0  0  0
  194.4940  174.6990  145.4970 C   0  0  0  0  0  0  0  0  0  0  0  0
  193.3770  172.9140  144.7820 N   0  0  0  0  0  0  0  0  0  0  0  0
  195.3480  174.0070  144.7990 O   0  0  0  0  0  0  0  0  0  0  0  0
  193.5400  176.4300  146.8230 C   0  0  0  0  0  3  0  0  0  0  0  0
  192.2050  174.5350  146.1320 N   0  0  0  0  0  0  0  0  0  0  0  0
  192.3030  175.7260  146.8040 C   0  0  0  0  0  0  0  0  0  0  0  0
  193.3020  174.0470  145.4970 C   0  0  0  0  0  0  0  0  0  0  0  0
  189.8430  175.7390  147.2610 N   0  0  0  0  0  1  0  0  0  0  0  0
  191.2780  177.1640  148.3860 O   0  0  0  0  0  0  0  0  0  0  0  0
  191.1380  176.2580  147.5220 C   0  0  0  0  0  0  0  0  0  0  0  0
  3 14  1  6  0  0  0
  4  1  1  0  0  0  0
  5  4  2  0  0  0  0
  6 18  1  0  0  0  0
  6 21  1  0  0  0  0
  7  2  1  6  0  0  0
  7 17  1  0  0  0  0
  8 27  1  1  0  0  0
  8 13  1  0  0  0  0
  8 20  1  0  0  0  0
 10  3  1  0  0  0  0
 10 12  2  0  0  0  0
 11 28  1  1  0  0  0
 11 15  1  0  0  0  0
 12 11  1  0  0  0  0
 13 10  1  0  0  0  0
 14  9  1  0  0  0  0
 15 22  1  0  0  0  0
 15 19  1  1  0  0  0
 17  5  1  0  0  0  0
 18  9  1  6  0  0  0
 18 16  1  0  0  0  0
 18  7  1  0  0  0  0
 20  3  1  0  0  0  0
 21  5  1  0  0  0  0
 22 16  1  0  0  0  0
 23 24  1  0  0  0  0
 24 20  1  0  0  0  0
 24 25  1  0  0  0  0
 26 27  1  0  0  0  0
 28 29  1  0  0  0  0
 31 29  1  6  0  0  0
 31 34  1  0  0  0  0
 31 33  1  0  0  0  0
 32 36  1  0  0  0  0
 33 36  1  0  0  0  0
 35 32  1  0  0  0  0
 36 40  1  0  0  0  0
 36 30  1  1  0  0  0
 37 31  1  0  0  0  0
 37 35  1  0  0  0  0
 37 34  1  1  0  0  0
 38 35  2  0  0  0  0
 39 44  1  0  0  0  0
 40 42  2  0  0  0  0
 40 43  1  0  0  0  0
 41 47  1  0  0  0  0
 41 39  2  0  0  0  0
 42 47  1  0  0  0  0
 43 41  1  0  0  0  0
 45 46  1  0  0  0  0
 46 44  2  0  0  0  0
 46 50  1  0  0  0  0
 47 45  2  0  0  0  0
 48 50  1  0  0  0  0
 50 49  2  0  0  0  0
M  END
>  <MODEL>
9

>  <REMARK>
 VINA RESULT:      -6.2      2.774      6.061
  Name = 
  7 active torsions:
  status: ('A' for Active; 'I' for Inactive)
    1  A    between atoms: O_5  and  C_16
    2  A    between atoms: O_5  and  O_24
    3  A    between atoms: C_9  and  C_40
    4  A    between atoms: C_17  and  O_30
    5  A    between atoms: C_20  and  O_24
    6  A    between atoms: C_29  and  C_43
    7  A    between atoms: C_41  and  N_48
                            x       y       z     vdW  Elec       q    Type
                         _______ _______ _______ _____ _____    ______ ____

>  <TORSDO>
F 7

$$$$
