=
 OpenBabel11062420353D

 32 35  0  0  1  0  0  0  0  0999 V2000
  186.1650  178.0490  146.2160 C   0  0  1  0  0  3  0  0  0  0  0  0
  187.7600  178.2240  143.6170 C   0  0  2  0  0  3  0  0  0  0  0  0
  188.0720  177.5770  144.9190 C   0  0  2  0  0  0  0  0  0  0  0  0
  188.9550  176.4000  145.0220 N   0  0  0  0  0  0  0  0  0  0  0  0
  187.2180  179.0270  148.1420 O   0  0  0  0  0  1  0  0  0  0  0  0
  186.9580  177.8070  147.5210 C   0  0  2  0  0  3  0  0  0  0  0  0
  186.4020  177.8960  143.9200 O   0  0  0  0  0  0  0  0  0  0  0  0
  186.6900  177.2430  145.1040 N   0  0  2  0  0  0  0  0  0  0  0  0
  188.2740  177.0440  147.3020 C   0  0  0  0  0  2  0  0  0  0  0  0
  189.0020  177.4940  146.0330 C   0  0  2  0  0  3  0  0  0  0  0  0
  183.9500  178.2460  145.3490 F   0  0  0  0  0  0  0  0  0  0  0  0
  184.4560  176.4160  146.5460 F   0  0  0  0  0  0  0  0  0  0  0  0
  184.2330  178.4060  147.5810 F   0  0  0  0  0  0  0  0  0  0  0  0
  184.6740  177.7770  146.4300 C   0  0  0  0  0  0  0  0  0  0  0  0
  188.2070  177.4640  142.3610 C   0  0  2  0  0  3  0  0  0  0  0  0
  188.6170  178.3740  141.3840 O   0  0  0  0  0  1  0  0  0  0  0  0
  187.1120  176.6090  141.8080 C   0  0  0  0  0  0  0  0  0  0  0  0
  186.3180  177.0770  140.9450 O   0  0  0  0  0  0  0  0  0  0  0  0
  187.9980  174.3350  142.1040 C   0  0  0  0  0  1  0  0  0  0  0  0
  186.9730  175.3020  142.2720 O   0  0  0  0  0  0  0  0  0  0  0  0
  190.2140  176.5630  144.3060 C   0  0  0  0  0  2  0  0  0  0  0  0
  190.9850  175.2440  144.2090 C   0  0  2  0  0  3  0  0  0  0  0  0
  191.1380  174.5260  145.5540 C   0  0  0  0  0  2  0  0  0  0  0  0
  192.3170  175.3680  143.4600 C   0  0  0  0  0  2  0  0  0  0  0  0
  192.2470  175.1430  146.4080 C   0  0  0  0  0  2  0  0  0  0  0  0
  193.5740  175.1850  145.6480 C   0  0  2  0  0  3  0  0  0  0  0  0
  193.4170  175.9640  144.3410 C   0  0  0  0  0  2  0  0  0  0  0  0
  194.0360  173.8820  145.3900 O   0  0  0  0  0  0  0  0  0  0  0  0
  196.0580  174.1000  144.3120 F   0  0  0  0  0  0  0  0  0  0  0  0
  195.8770  172.6770  146.0710 F   0  0  0  0  0  0  0  0  0  0  0  0
  195.7970  174.8970  146.3930 F   0  0  0  0  0  0  0  0  0  0  0  0
  195.4380  173.8780  145.5320 C   0  0  0  0  0  0  0  0  0  0  0  0
  1 14  1  1  0  0  0
  1  6  1  0  0  0  0
  2 15  1  6  0  0  0
  2  7  1  0  0  0  0
  2  3  1  0  0  0  0
  3  4  1  6  0  0  0
  3  8  1  0  0  0  0
  3 10  1  0  0  0  0
  4 10  1  0  0  0  0
  6  5  1  6  0  0  0
  8  7  1  6  0  0  0
  8  1  1  0  0  0  0
  9  6  1  0  0  0  0
 10  9  1  1  0  0  0
 11 14  1  0  0  0  0
 14 12  1  0  0  0  0
 14 13  1  0  0  0  0
 15 16  1  6  0  0  0
 17 20  1  0  0  0  0
 17 15  1  0  0  0  0
 18 17  2  0  0  0  0
 19 20  1  0  0  0  0
 21  4  1  0  0  0  0
 22 21  1  1  0  0  0
 22 23  1  0  0  0  0
 23 25  1  0  0  0  0
 24 22  1  0  0  0  0
 24 27  1  0  0  0  0
 26 28  1  6  0  0  0
 26 25  1  0  0  0  0
 27 26  1  0  0  0  0
 28 32  1  0  0  0  0
 29 32  1  0  0  0  0
 32 30  1  0  0  0  0
 32 31  1  0  0  0  0
M  END
>  <MODEL>
1

>  <REMARK>
 VINA RESULT:      -7.0      0.000      0.000
  Name = 
  8 active torsions:
  status: ('A' for Active; 'I' for Inactive)
    1  A    between atoms: C_1  and  C_2
    2  A    between atoms: C_1  and  O_30
    3  A    between atoms: C_2  and  C_7
    4  A    between atoms: C_5  and  C_28
    5  A    between atoms: C_6  and  C_31
    6  A    between atoms: N_15  and  C_31
    7  A    between atoms: C_19  and  O_32
    8  A    between atoms: C_22  and  O_32
                            x       y       z     vdW  Elec       q    Type
                         _______ _______ _______ _____ _____    ______ ____

>  <TORSDO>
F 8

$$$$
=
 OpenBabel11062420353D

 32 35  0  0  1  0  0  0  0  0999 V2000
  186.5790  177.9200  143.7480 C   0  0  1  0  0  3  0  0  0  0  0  0
  188.3340  175.5610  144.5800 C   0  0  2  0  0  3  0  0  0  0  0  0
  188.5490  176.6400  143.5790 C   0  0  2  0  0  0  0  0  0  0  0  0
  189.8950  177.1150  143.2090 N   0  0  0  0  0  0  0  0  0  0  0  0
  185.9180  177.9520  141.4380 O   0  0  0  0  0  1  0  0  0  0  0  0
  186.8140  178.5190  142.3430 C   0  0  2  0  0  3  0  0  0  0  0  0
  187.6040  176.5520  145.3070 O   0  0  0  0  0  0  0  0  0  0  0  0
  187.8470  177.5740  144.4100 N   0  0  2  0  0  0  0  0  0  0  0  0
  188.2520  178.3340  141.8330 C   0  0  0  0  0  2  0  0  0  0  0  0
  188.8220  176.9580  142.1870 C   0  0  2  0  0  3  0  0  0  0  0  0
  186.3610  179.0350  145.8480 F   0  0  0  0  0  0  0  0  0  0  0  0
  185.6760  180.1140  144.0030 F   0  0  0  0  0  0  0  0  0  0  0  0
  184.4770  178.3780  144.7940 F   0  0  0  0  0  0  0  0  0  0  0  0
  185.7560  178.8760  144.6140 C   0  0  0  0  0  0  0  0  0  0  0  0
  189.5670  175.1330  145.3850 C   0  0  2  0  0  3  0  0  0  0  0  0
  189.7610  173.7570  145.2480 O   0  0  0  0  0  1  0  0  0  0  0  0
  189.4290  175.4670  146.8360 C   0  0  0  0  0  0  0  0  0  0  0  0
  188.7970  174.6930  147.6070 O   0  0  0  0  0  0  0  0  0  0  0  0
  191.2300  176.6640  148.0080 C   0  0  0  0  0  1  0  0  0  0  0  0
  189.9910  176.6500  147.3150 O   0  0  0  0  0  0  0  0  0  0  0  0
  190.8160  176.0340  142.8840 C   0  0  0  0  0  2  0  0  0  0  0  0
  192.2760  176.4790  143.0040 C   0  0  2  0  0  3  0  0  0  0  0  0
  193.2480  175.6020  142.2060 C   0  0  0  0  0  2  0  0  0  0  0  0
  192.7350  176.6880  144.4510 C   0  0  0  0  0  2  0  0  0  0  0  0
  193.5590  174.2910  142.9290 C   0  0  0  0  0  2  0  0  0  0  0  0
  194.0790  174.5470  144.3450 C   0  0  2  0  0  3  0  0  0  0  0  0
  193.0650  175.3660  145.1460 C   0  0  0  0  0  2  0  0  0  0  0  0
  195.3190  175.2090  144.3030 O   0  0  0  0  0  0  0  0  0  0  0  0
  197.5490  174.8030  144.7030 F   0  0  0  0  0  0  0  0  0  0  0  0
  196.0690  173.0850  144.7850 F   0  0  0  0  0  0  0  0  0  0  0  0
  196.0600  174.6690  146.3750 F   0  0  0  0  0  0  0  0  0  0  0  0
  196.2510  174.4390  145.0270 C   0  0  0  0  0  0  0  0  0  0  0  0
  1  8  1  0  0  0  0
  1 14  1  1  0  0  0
  2  7  1  0  0  0  0
  2 15  1  1  0  0  0
  3  4  1  1  0  0  0
  3  8  1  0  0  0  0
  3  2  1  0  0  0  0
  6  5  1  6  0  0  0
  6  1  1  0  0  0  0
  8  7  1  1  0  0  0
  9  6  1  0  0  0  0
 10  9  1  1  0  0  0
 10  4  1  0  0  0  0
 10  3  1  0  0  0  0
 12 14  1  0  0  0  0
 14 13  1  0  0  0  0
 14 11  1  0  0  0  0
 15 16  1  1  0  0  0
 15 17  1  0  0  0  0
 17 20  1  0  0  0  0
 17 18  2  0  0  0  0
 20 19  1  0  0  0  0
 21  4  1  0  0  0  0
 22 21  1  1  0  0  0
 22 24  1  0  0  0  0
 23 25  1  0  0  0  0
 23 22  1  0  0  0  0
 24 27  1  0  0  0  0
 25 26  1  0  0  0  0
 26 28  1  6  0  0  0
 26 27  1  0  0  0  0
 28 32  1  0  0  0  0
 29 32  1  0  0  0  0
 30 32  1  0  0  0  0
 32 31  1  0  0  0  0
M  END
>  <MODEL>
2

>  <REMARK>
 VINA RESULT:      -6.8      2.049      3.865
  Name = 
  8 active torsions:
  status: ('A' for Active; 'I' for Inactive)
    1  A    between atoms: C_1  and  C_2
    2  A    between atoms: C_1  and  O_30
    3  A    between atoms: C_2  and  C_7
    4  A    between atoms: C_5  and  C_28
    5  A    between atoms: C_6  and  C_31
    6  A    between atoms: N_15  and  C_31
    7  A    between atoms: C_19  and  O_32
    8  A    between atoms: C_22  and  O_32
                            x       y       z     vdW  Elec       q    Type
                         _______ _______ _______ _____ _____    ______ ____

>  <TORSDO>
F 8

$$$$
=
 OpenBabel11062420353D

 32 35  0  0  1  0  0  0  0  0999 V2000
  194.4790  174.8780  144.0730 C   0  0  1  0  0  3  0  0  0  0  0  0
  191.5740  173.9530  144.2670 C   0  0  2  0  0  3  0  0  0  0  0  0
  192.2770  175.1170  144.8710 C   0  0  2  0  0  0  0  0  0  0  0  0
  191.5780  176.3720  145.2060 N   0  0  0  0  0  0  0  0  0  0  0  0
  195.6760  174.9690  146.1550 O   0  0  0  0  0  1  0  0  0  0  0  0
  195.0200  175.7660  145.2180 C   0  0  2  0  0  3  0  0  0  0  0  0
  192.4830  174.1280  143.1770 O   0  0  0  0  0  0  0  0  0  0  0  0
  193.1030  175.2440  143.7060 N   0  0  2  0  0  0  0  0  0  0  0  0
  193.9300  176.5960  145.9130 C   0  0  0  0  0  2  0  0  0  0  0  0
  192.6300  175.8080  146.0990 C   0  0  2  0  0  3  0  0  0  0  0  0
  195.5710  173.6760  142.3240 F   0  0  0  0  0  0  0  0  0  0  0  0
  194.8470  175.7540  141.8840 F   0  0  0  0  0  0  0  0  0  0  0  0
  196.6380  175.4520  143.2180 F   0  0  0  0  0  0  0  0  0  0  0  0
  195.4040  174.9420  142.8550 C   0  0  0  0  0  0  0  0  0  0  0  0
  190.1390  174.2060  143.7880 C   0  0  2  0  0  3  0  0  0  0  0  0
  189.3630  173.0660  144.0120 O   0  0  0  0  0  1  0  0  0  0  0  0
  190.0890  174.5570  142.3360 C   0  0  0  0  0  0  0  0  0  0  0  0
  190.0410  175.7660  141.9780 O   0  0  0  0  0  0  0  0  0  0  0  0
  189.0000  173.3620  140.4830 C   0  0  0  0  0  1  0  0  0  0  0  0
  190.0780  173.5320  141.3910 O   0  0  0  0  0  0  0  0  0  0  0  0
  190.3550  176.1610  145.9700 C   0  0  0  0  0  2  0  0  0  0  0  0
  189.4560  177.3990  145.9520 C   0  0  2  0  0  3  0  0  0  0  0  0
  188.5440  177.5100  147.1780 C   0  0  0  0  0  2  0  0  0  0  0  0
  188.6880  177.5790  144.6370 C   0  0  0  0  0  2  0  0  0  0  0  0
  187.3270  176.5900  147.0690 C   0  0  0  0  0  2  0  0  0  0  0  0
  186.5500  176.8480  145.7770 C   0  0  2  0  0  3  0  0  0  0  0  0
  187.4610  176.6680  144.5610 C   0  0  0  0  0  2  0  0  0  0  0  0
  185.9940  178.1400  145.7850 O   0  0  0  0  0  0  0  0  0  0  0  0
  184.3340  176.7420  146.5480 F   0  0  0  0  0  0  0  0  0  0  0  0
  183.7740  178.7210  145.5900 F   0  0  0  0  0  0  0  0  0  0  0  0
  184.7570  178.6740  147.6070 F   0  0  0  0  0  0  0  0  0  0  0  0
  184.7140  178.0630  146.3690 C   0  0  0  0  0  0  0  0  0  0  0  0
  1 14  1  6  0  0  0
  1  6  1  0  0  0  0
  2 15  1  6  0  0  0
  2  3  1  0  0  0  0
  3  4  1  6  0  0  0
  3 10  1  0  0  0  0
  4 21  1  0  0  0  0
  4 10  1  0  0  0  0
  6  9  1  0  0  0  0
  6  5  1  1  0  0  0
  7  2  1  0  0  0  0
  8  7  1  6  0  0  0
  8  1  1  0  0  0  0
  8  3  1  0  0  0  0
 10  9  1  6  0  0  0
 11 14  1  0  0  0  0
 12 14  1  0  0  0  0
 14 13  1  0  0  0  0
 15 16  1  6  0  0  0
 17 15  1  0  0  0  0
 18 17  2  0  0  0  0
 19 20  1  0  0  0  0
 20 17  1  0  0  0  0
 22 21  1  6  0  0  0
 22 23  1  0  0  0  0
 24 22  1  0  0  0  0
 25 23  1  0  0  0  0
 26 28  1  1  0  0  0
 26 25  1  0  0  0  0
 27 24  1  0  0  0  0
 27 26  1  0  0  0  0
 28 32  1  0  0  0  0
 30 32  1  0  0  0  0
 32 29  1  0  0  0  0
 32 31  1  0  0  0  0
M  END
>  <MODEL>
3

>  <REMARK>
 VINA RESULT:      -6.7      2.204      7.961
  Name = 
  8 active torsions:
  status: ('A' for Active; 'I' for Inactive)
    1  A    between atoms: C_1  and  C_2
    2  A    between atoms: C_1  and  O_30
    3  A    between atoms: C_2  and  C_7
    4  A    between atoms: C_5  and  C_28
    5  A    between atoms: C_6  and  C_31
    6  A    between atoms: N_15  and  C_31
    7  A    between atoms: C_19  and  O_32
    8  A    between atoms: C_22  and  O_32
                            x       y       z     vdW  Elec       q    Type
                         _______ _______ _______ _____ _____    ______ ____

>  <TORSDO>
F 8

$$$$
=
 OpenBabel11062420353D

 32 35  0  0  1  0  0  0  0  0999 V2000
  186.1190  178.0800  146.2550 C   0  0  1  0  0  3  0  0  0  0  0  0
  187.8450  178.2000  143.7370 C   0  0  2  0  0  3  0  0  0  0  0  0
  188.0610  177.5260  145.0450 C   0  0  2  0  0  0  0  0  0  0  0  0
  188.8790  176.3060  145.1760 N   0  0  0  0  0  0  0  0  0  0  0  0
  187.1240  178.9870  148.2400 O   0  0  0  0  0  1  0  0  0  0  0  0
  186.8350  177.7870  147.5930 C   0  0  2  0  0  3  0  0  0  0  0  0
  186.4590  177.9370  143.9710 O   0  0  0  0  0  0  0  0  0  0  0  0
  186.6570  177.2600  145.1600 N   0  0  2  0  0  0  0  0  0  0  0  0
  188.1210  176.9620  147.4290 C   0  0  0  0  0  2  0  0  0  0  0  0
  188.9310  177.3870  146.2010 C   0  0  2  0  0  3  0  0  0  0  0  0
  183.9600  178.4050  145.2900 F   0  0  0  0  0  0  0  0  0  0  0  0
  184.3170  176.5310  146.4720 F   0  0  0  0  0  0  0  0  0  0  0  0
  184.1450  178.5100  147.5360 F   0  0  0  0  0  0  0  0  0  0  0  0
  184.6080  177.8810  146.3940 C   0  0  0  0  0  0  0  0  0  0  0  0
  188.3130  177.4310  142.4950 C   0  0  2  0  0  3  0  0  0  0  0  0
  189.0180  178.2900  141.6500 O   0  0  0  0  0  1  0  0  0  0  0  0
  187.1680  176.8330  141.7440 C   0  0  0  0  0  0  0  0  0  0  0  0
  186.7170  175.7010  142.0720 O   0  0  0  0  0  0  0  0  0  0  0  0
  185.2780  177.9920  140.6790 C   0  0  0  0  0  1  0  0  0  0  0  0
  186.6220  177.5350  140.6700 O   0  0  0  0  0  0  0  0  0  0  0  0
  190.1780  176.4130  144.5240 C   0  0  0  0  0  2  0  0  0  0  0  0
  190.9030  175.0660  144.4830 C   0  0  2  0  0  3  0  0  0  0  0  0
  191.9320  174.9600  143.3520 C   0  0  0  0  0  2  0  0  0  0  0  0
  189.9570  173.8600  144.5220 C   0  0  0  0  0  2  0  0  0  0  0  0
  191.2710  174.6780  142.0030 C   0  0  0  0  0  2  0  0  0  0  0  0
  190.3900  173.4280  142.0670 C   0  0  2  0  0  3  0  0  0  0  0  0
  189.3260  173.5800  143.1560 C   0  0  0  0  0  2  0  0  0  0  0  0
  191.1730  172.2840  142.3030 O   0  0  0  0  0  0  0  0  0  0  0  0
  189.8490  171.7760  140.4910 F   0  0  0  0  0  0  0  0  0  0  0  0
  190.1800  170.2150  142.1040 F   0  0  0  0  0  0  0  0  0  0  0  0
  191.8550  170.8020  140.7300 F   0  0  0  0  0  0  0  0  0  0  0  0
  190.7530  171.2750  141.4140 C   0  0  0  0  0  0  0  0  0  0  0  0
  1 14  1  1  0  0  0
  1  6  1  0  0  0  0
  2 15  1  6  0  0  0
  2  7  1  0  0  0  0
  2  3  1  0  0  0  0
  3  8  1  0  0  0  0
  3  4  1  6  0  0  0
  3 10  1  0  0  0  0
  4 10  1  0  0  0  0
  6  5  1  6  0  0  0
  8  7  1  6  0  0  0
  8  1  1  0  0  0  0
  9  6  1  0  0  0  0
 10  9  1  1  0  0  0
 11 14  1  0  0  0  0
 14 12  1  0  0  0  0
 14 13  1  0  0  0  0
 15 16  1  6  0  0  0
 17 18  2  0  0  0  0
 17 15  1  0  0  0  0
 20 19  1  0  0  0  0
 20 17  1  0  0  0  0
 21  4  1  0  0  0  0
 22 24  1  0  0  0  0
 22 21  1  6  0  0  0
 23 22  1  0  0  0  0
 25 26  1  0  0  0  0
 25 23  1  0  0  0  0
 26 28  1  1  0  0  0
 26 27  1  0  0  0  0
 27 24  1  0  0  0  0
 29 32  1  0  0  0  0
 31 32  1  0  0  0  0
 32 30  1  0  0  0  0
 32 28  1  0  0  0  0
M  END
>  <MODEL>
4

>  <REMARK>
 VINA RESULT:      -6.5      2.604      3.367
  Name = 
  8 active torsions:
  status: ('A' for Active; 'I' for Inactive)
    1  A    between atoms: C_1  and  C_2
    2  A    between atoms: C_1  and  O_30
    3  A    between atoms: C_2  and  C_7
    4  A    between atoms: C_5  and  C_28
    5  A    between atoms: C_6  and  C_31
    6  A    between atoms: N_15  and  C_31
    7  A    between atoms: C_19  and  O_32
    8  A    between atoms: C_22  and  O_32
                            x       y       z     vdW  Elec       q    Type
                         _______ _______ _______ _____ _____    ______ ____

>  <TORSDO>
F 8

$$$$
=
 OpenBabel11062420353D

 32 35  0  0  1  0  0  0  0  0999 V2000
  190.6960  172.5870  141.9050 C   0  0  1  0  0  3  0  0  0  0  0  0
  190.6600  175.5700  142.5630 C   0  0  2  0  0  3  0  0  0  0  0  0
  189.6680  174.7050  141.8710 C   0  0  2  0  0  0  0  0  0  0  0  0
  188.2230  174.9970  141.8850 N   0  0  0  0  0  0  0  0  0  0  0  0
  190.5790  172.0430  139.5670 O   0  0  0  0  0  1  0  0  0  0  0  0
  189.8130  172.1080  140.7300 C   0  0  2  0  0  3  0  0  0  0  0  0
  190.9710  174.3960  143.3190 O   0  0  0  0  0  0  0  0  0  0  0  0
  190.0120  173.6020  142.7200 N   0  0  2  0  0  0  0  0  0  0  0  0
  188.5810  172.9960  140.4910 C   0  0  0  0  0  2  0  0  0  0  0  0
  188.8970  174.4840  140.6590 C   0  0  2  0  0  3  0  0  0  0  0  0
  192.5130  171.2620  142.7060 F   0  0  0  0  0  0  0  0  0  0  0  0
  190.7790  171.6190  144.0850 F   0  0  0  0  0  0  0  0  0  0  0  0
  190.5410  170.2360  142.3210 F   0  0  0  0  0  0  0  0  0  0  0  0
  191.1390  171.4020  142.7670 C   0  0  0  0  0  0  0  0  0  0  0  0
  190.0860  176.6460  143.4930 C   0  0  2  0  0  3  0  0  0  0  0  0
  190.4680  177.9100  143.0380 O   0  0  0  0  0  1  0  0  0  0  0  0
  190.5500  176.4700  144.9030 C   0  0  0  0  0  0  0  0  0  0  0  0
  191.7160  176.8190  145.2340 O   0  0  0  0  0  0  0  0  0  0  0  0
  190.1450  175.4070  147.0830 C   0  0  0  0  0  1  0  0  0  0  0  0
  189.6830  175.9010  145.8350 O   0  0  0  0  0  0  0  0  0  0  0  0
  187.9130  176.3770  141.5340 C   0  0  0  0  0  2  0  0  0  0  0  0
  186.4820  176.7540  141.9240 C   0  0  2  0  0  3  0  0  0  0  0  0
  186.2190  178.2630  141.8990 C   0  0  0  0  0  2  0  0  0  0  0  0
  186.0130  176.1040  143.2320 C   0  0  0  0  0  2  0  0  0  0  0  0
  186.7710  178.9600  143.1430 C   0  0  0  0  0  2  0  0  0  0  0  0
  186.2250  178.3250  144.4230 C   0  0  2  0  0  3  0  0  0  0  0  0
  186.5570  176.8320  144.4620 C   0  0  0  0  0  2  0  0  0  0  0  0
  184.8360  178.5220  144.5180 O   0  0  0  0  0  0  0  0  0  0  0  0
  185.4370  179.3040  146.5970 F   0  0  0  0  0  0  0  0  0  0  0  0
  184.3770  177.3050  146.4200 F   0  0  0  0  0  0  0  0  0  0  0  0
  183.2750  179.2160  146.0060 F   0  0  0  0  0  0  0  0  0  0  0  0
  184.4940  178.5800  145.8840 C   0  0  0  0  0  0  0  0  0  0  0  0
  1  8  1  0  0  0  0
  1 14  1  1  0  0  0
  2  7  1  0  0  0  0
  2 15  1  1  0  0  0
  3  4  1  1  0  0  0
  3  2  1  0  0  0  0
  3  8  1  0  0  0  0
  6  5  1  6  0  0  0
  6  1  1  0  0  0  0
  8  7  1  1  0  0  0
  9  6  1  0  0  0  0
 10  9  1  1  0  0  0
 10  3  1  0  0  0  0
 10  4  1  0  0  0  0
 11 14  1  0  0  0  0
 13 14  1  0  0  0  0
 14 12  1  0  0  0  0
 15 16  1  6  0  0  0
 15 17  1  0  0  0  0
 17 18  2  0  0  0  0
 17 20  1  0  0  0  0
 20 19  1  0  0  0  0
 21  4  1  0  0  0  0
 22 21  1  1  0  0  0
 22 24  1  0  0  0  0
 23 22  1  0  0  0  0
 23 25  1  0  0  0  0
 24 27  1  0  0  0  0
 25 26  1  0  0  0  0
 26 27  1  0  0  0  0
 26 28  1  6  0  0  0
 28 32  1  0  0  0  0
 32 31  1  0  0  0  0
 32 30  1  0  0  0  0
 32 29  1  0  0  0  0
M  END
>  <MODEL>
5

>  <REMARK>
 VINA RESULT:      -6.5      3.058      8.076
  Name = 
  8 active torsions:
  status: ('A' for Active; 'I' for Inactive)
    1  A    between atoms: C_1  and  C_2
    2  A    between atoms: C_1  and  O_30
    3  A    between atoms: C_2  and  C_7
    4  A    between atoms: C_5  and  C_28
    5  A    between atoms: C_6  and  C_31
    6  A    between atoms: N_15  and  C_31
    7  A    between atoms: C_19  and  O_32
    8  A    between atoms: C_22  and  O_32
                            x       y       z     vdW  Elec       q    Type
                         _______ _______ _______ _____ _____    ______ ____

>  <TORSDO>
F 8

$$$$
=
 OpenBabel11062420353D

 32 35  0  0  1  0  0  0  0  0999 V2000
  193.0280  175.7710  145.8940 C   0  0  1  0  0  3  0  0  0  0  0  0
  192.1890  174.2290  143.3940 C   0  0  2  0  0  3  0  0  0  0  0  0
  191.4980  175.2930  144.1700 C   0  0  2  0  0  0  0  0  0  0  0  0
  190.5310  176.2180  143.5490 N   0  0  0  0  0  0  0  0  0  0  0  0
  191.5840  175.5160  147.7980 O   0  0  0  0  0  1  0  0  0  0  0  0
  191.9040  176.3880  146.7580 C   0  0  2  0  0  3  0  0  0  0  0  0
  193.3910  174.9000  143.7820 O   0  0  0  0  0  0  0  0  0  0  0  0
  192.7530  175.9230  144.4570 N   0  0  2  0  0  0  0  0  0  0  0  0
  190.6370  176.7290  145.9590 C   0  0  0  0  0  2  0  0  0  0  0  0
  190.3050  175.6620  144.9130 C   0  0  2  0  0  3  0  0  0  0  0  0
  194.8950  177.0720  145.1730 F   0  0  0  0  0  0  0  0  0  0  0  0
  194.2390  177.2620  147.3110 F   0  0  0  0  0  0  0  0  0  0  0  0
  195.2740  175.3830  146.6200 F   0  0  0  0  0  0  0  0  0  0  0  0
  194.3850  176.3790  146.2560 C   0  0  0  0  0  0  0  0  0  0  0  0
  192.0310  174.2930  141.8700 C   0  0  2  0  0  3  0  0  0  0  0  0
  191.3480  173.1610  141.4210 O   0  0  0  0  0  1  0  0  0  0  0  0
  193.3520  174.3770  141.1750 C   0  0  0  0  0  0  0  0  0  0  0  0
  193.9900  173.3240  140.8980 O   0  0  0  0  0  0  0  0  0  0  0  0
  195.2610  175.9130  140.9530 C   0  0  0  0  0  1  0  0  0  0  0  0
  193.8730  175.6320  140.8580 O   0  0  0  0  0  0  0  0  0  0  0  0
  189.5200  175.5390  142.7480 C   0  0  0  0  0  2  0  0  0  0  0  0
  188.5260  176.5280  142.1350 C   0  0  2  0  0  3  0  0  0  0  0  0
  188.5320  177.9010  142.8150 C   0  0  0  0  0  2  0  0  0  0  0  0
  187.1100  175.9590  141.9860 C   0  0  0  0  0  2  0  0  0  0  0  0
  187.7530  177.8900  144.1310 C   0  0  0  0  0  2  0  0  0  0  0  0
  186.3250  177.3800  143.9260 C   0  0  2  0  0  3  0  0  0  0  0  0
  186.3410  175.9800  143.3090 C   0  0  0  0  0  2  0  0  0  0  0  0
  185.5970  178.2670  143.1130 O   0  0  0  0  0  0  0  0  0  0  0  0
  184.8930  180.1770  144.1860 F   0  0  0  0  0  0  0  0  0  0  0  0
  184.4070  178.1500  145.0820 F   0  0  0  0  0  0  0  0  0  0  0  0
  183.4020  178.8270  143.1930 F   0  0  0  0  0  0  0  0  0  0  0  0
  184.5880  178.8550  143.9010 C   0  0  0  0  0  0  0  0  0  0  0  0
  1 14  1  1  0  0  0
  1  6  1  0  0  0  0
  2 15  1  6  0  0  0
  2  7  1  0  0  0  0
  2  3  1  0  0  0  0
  3  4  1  6  0  0  0
  3  8  1  0  0  0  0
  3 10  1  0  0  0  0
  4 10  1  0  0  0  0
  6  5  1  1  0  0  0
  8  7  1  6  0  0  0
  8  1  1  0  0  0  0
  9  6  1  0  0  0  0
 10  9  1  1  0  0  0
 11 14  1  0  0  0  0
 14 13  1  0  0  0  0
 14 12  1  0  0  0  0
 15 16  1  6  0  0  0
 17 15  1  0  0  0  0
 18 17  2  0  0  0  0
 20 19  1  0  0  0  0
 20 17  1  0  0  0  0
 21  4  1  0  0  0  0
 22 21  1  1  0  0  0
 22 23  1  0  0  0  0
 23 25  1  0  0  0  0
 24 22  1  0  0  0  0
 24 27  1  0  0  0  0
 26 28  1  6  0  0  0
 26 25  1  0  0  0  0
 27 26  1  0  0  0  0
 28 32  1  0  0  0  0
 31 32  1  0  0  0  0
 32 29  1  0  0  0  0
 32 30  1  0  0  0  0
M  END
>  <MODEL>
6

>  <REMARK>
 VINA RESULT:      -6.4      2.448      7.844
  Name = 
  8 active torsions:
  status: ('A' for Active; 'I' for Inactive)
    1  A    between atoms: C_1  and  C_2
    2  A    between atoms: C_1  and  O_30
    3  A    between atoms: C_2  and  C_7
    4  A    between atoms: C_5  and  C_28
    5  A    between atoms: C_6  and  C_31
    6  A    between atoms: N_15  and  C_31
    7  A    between atoms: C_19  and  O_32
    8  A    between atoms: C_22  and  O_32
                            x       y       z     vdW  Elec       q    Type
                         _______ _______ _______ _____ _____    ______ ____

>  <TORSDO>
F 8

$$$$
=
 OpenBabel11062420353D

 32 35  0  0  1  0  0  0  0  0999 V2000
  192.8920  171.5360  143.9040 C   0  0  1  0  0  3  0  0  0  0  0  0
  193.8060  174.3550  143.1600 C   0  0  2  0  0  3  0  0  0  0  0  0
  192.5450  173.8610  143.7760 C   0  0  2  0  0  0  0  0  0  0  0  0
  191.7310  174.6950  144.6800 N   0  0  0  0  0  0  0  0  0  0  0  0
  190.9030  170.7690  142.7950 O   0  0  0  0  0  1  0  0  0  0  0  0
  191.3700  171.2860  144.0030 C   0  0  2  0  0  3  0  0  0  0  0  0
  194.4240  173.2680  143.8550 O   0  0  0  0  0  0  0  0  0  0  0  0
  193.2660  172.8380  144.4750 N   0  0  2  0  0  0  0  0  0  0  0  0
  190.5680  172.5430  144.3740 C   0  0  0  0  0  2  0  0  0  0  0  0
  191.0970  173.7980  143.6740 C   0  0  2  0  0  3  0  0  0  0  0  0
  192.8360  169.3230  144.7970 F   0  0  0  0  0  0  0  0  0  0  0  0
  194.7060  169.9920  143.7520 F   0  0  0  0  0  0  0  0  0  0  0  0
  194.1960  170.8300  145.7810 F   0  0  0  0  0  0  0  0  0  0  0  0
  193.6720  170.4020  144.5740 C   0  0  0  0  0  0  0  0  0  0  0  0
  194.3450  175.6860  143.7000 C   0  0  2  0  0  3  0  0  0  0  0  0
  194.8550  176.4460  142.6450 O   0  0  0  0  0  1  0  0  0  0  0  0
  195.4170  175.4810  144.7210 C   0  0  0  0  0  0  0  0  0  0  0  0
  196.6130  175.3070  144.3580 O   0  0  0  0  0  0  0  0  0  0  0  0
  194.2440  176.4670  146.6440 C   0  0  0  0  0  1  0  0  0  0  0  0
  195.0720  175.4660  146.0720 O   0  0  0  0  0  0  0  0  0  0  0  0
  191.4620  176.0250  144.1480 C   0  0  0  0  0  2  0  0  0  0  0  0
  190.8830  176.9560  145.2150 C   0  0  2  0  0  3  0  0  0  0  0  0
  190.3780  176.2180  146.4600 C   0  0  0  0  0  2  0  0  0  0  0  0
  189.8490  177.9470  144.6670 C   0  0  0  0  0  2  0  0  0  0  0  0
  189.0060  175.5830  146.2300 C   0  0  0  0  0  2  0  0  0  0  0  0
  187.9880  176.6190  145.7500 C   0  0  2  0  0  3  0  0  0  0  0  0
  188.4780  177.2960  144.4690 C   0  0  0  0  0  2  0  0  0  0  0  0
  187.7490  177.5770  146.7510 O   0  0  0  0  0  0  0  0  0  0  0  0
  185.8460  178.8140  146.3750 F   0  0  0  0  0  0  0  0  0  0  0  0
  186.0520  177.6410  148.3070 F   0  0  0  0  0  0  0  0  0  0  0  0
  185.7570  176.5730  146.3540 F   0  0  0  0  0  0  0  0  0  0  0  0
  186.3580  177.6630  146.9530 C   0  0  0  0  0  0  0  0  0  0  0  0
  1  6  1  0  0  0  0
  1  8  1  0  0  0  0
  1 14  1  1  0  0  0
  2 15  1  1  0  0  0
  2  3  1  0  0  0  0
  2  7  1  0  0  0  0
  3  8  1  0  0  0  0
  3  4  1  1  0  0  0
  6  5  1  6  0  0  0
  6  9  1  0  0  0  0
  8  7  1  6  0  0  0
 10  3  1  0  0  0  0
 10  9  1  1  0  0  0
 10  4  1  0  0  0  0
 12 14  1  0  0  0  0
 14 11  1  0  0  0  0
 14 13  1  0  0  0  0
 15 16  1  6  0  0  0
 15 17  1  0  0  0  0
 17 20  1  0  0  0  0
 18 17  2  0  0  0  0
 20 19  1  0  0  0  0
 21  4  1  0  0  0  0
 22 21  1  6  0  0  0
 22 23  1  0  0  0  0
 24 22  1  0  0  0  0
 25 23  1  0  0  0  0
 26 25  1  0  0  0  0
 26 28  1  1  0  0  0
 27 24  1  0  0  0  0
 27 26  1  0  0  0  0
 28 32  1  0  0  0  0
 29 32  1  0  0  0  0
 31 32  1  0  0  0  0
 32 30  1  0  0  0  0
M  END
>  <MODEL>
7

>  <REMARK>
 VINA RESULT:      -6.4      2.868      8.353
  Name = 
  8 active torsions:
  status: ('A' for Active; 'I' for Inactive)
    1  A    between atoms: C_1  and  C_2
    2  A    between atoms: C_1  and  O_30
    3  A    between atoms: C_2  and  C_7
    4  A    between atoms: C_5  and  C_28
    5  A    between atoms: C_6  and  C_31
    6  A    between atoms: N_15  and  C_31
    7  A    between atoms: C_19  and  O_32
    8  A    between atoms: C_22  and  O_32
                            x       y       z     vdW  Elec       q    Type
                         _______ _______ _______ _____ _____    ______ ____

>  <TORSDO>
F 8

$$$$
=
 OpenBabel11062420353D

 32 35  0  0  1  0  0  0  0  0999 V2000
  187.0560  176.7960  142.2560 C   0  0  1  0  0  3  0  0  0  0  0  0
  187.1370  176.3050  145.2700 C   0  0  2  0  0  3  0  0  0  0  0  0
  188.2160  176.3130  144.2470 C   0  0  2  0  0  0  0  0  0  0  0  0
  189.6110  176.6590  144.5760 N   0  0  0  0  0  0  0  0  0  0  0  0
  187.8160  174.9710  140.8900 O   0  0  0  0  0  1  0  0  0  0  0  0
  188.2060  176.2050  141.4090 C   0  0  2  0  0  3  0  0  0  0  0  0
  186.5220  177.3020  144.4490 O   0  0  0  0  0  0  0  0  0  0  0  0
  187.5480  177.3550  143.5240 N   0  0  2  0  0  0  0  0  0  0  0  0
  189.5200  176.0490  142.1890 C   0  0  0  0  0  2  0  0  0  0  0  0
  189.2910  175.5600  143.6220 C   0  0  2  0  0  3  0  0  0  0  0  0
  186.7310  177.8740  140.1510 F   0  0  0  0  0  0  0  0  0  0  0  0
  184.9350  177.5430  141.4550 F   0  0  0  0  0  0  0  0  0  0  0  0
  186.4600  179.1010  142.0240 F   0  0  0  0  0  0  0  0  0  0  0  0
  186.2830  177.8510  141.4590 C   0  0  0  0  0  0  0  0  0  0  0  0
  187.4950  176.9080  146.6340 C   0  0  2  0  0  3  0  0  0  0  0  0
  187.7350  175.8830  147.5510 O   0  0  0  0  0  1  0  0  0  0  0  0
  186.4070  177.7900  147.1570 C   0  0  0  0  0  0  0  0  0  0  0  0
  186.6950  178.8660  147.7520 O   0  0  0  0  0  0  0  0  0  0  0  0
  184.0870  178.2930  146.5140 C   0  0  0  0  0  1  0  0  0  0  0  0
  185.0790  177.3980  146.9930 O   0  0  0  0  0  0  0  0  0  0  0  0
  190.1210  175.9440  145.7390 C   0  0  0  0  0  2  0  0  0  0  0  0
  191.5260  176.4150  146.1210 C   0  0  2  0  0  3  0  0  0  0  0  0
  192.3510  176.9090  144.9280 C   0  0  0  0  0  2  0  0  0  0  0  0
  192.2960  175.4060  146.9820 C   0  0  0  0  0  2  0  0  0  0  0  0
  192.9300  175.7510  144.1150 C   0  0  0  0  0  2  0  0  0  0  0  0
  193.7470  174.8060  144.9990 C   0  0  2  0  0  3  0  0  0  0  0  0
  192.8880  174.2700  146.1450 C   0  0  0  0  0  2  0  0  0  0  0  0
  194.8840  175.4630  145.5030 O   0  0  0  0  0  0  0  0  0  0  0  0
  196.7500  175.8120  144.2040 F   0  0  0  0  0  0  0  0  0  0  0  0
  195.6680  173.8210  144.0910 F   0  0  0  0  0  0  0  0  0  0  0  0
  196.8290  174.3800  145.9290 F   0  0  0  0  0  0  0  0  0  0  0  0
  196.0240  174.8740  144.9210 C   0  0  0  0  0  0  0  0  0  0  0  0
  1 14  1  6  0  0  0
  1  8  1  0  0  0  0
  2 15  1  1  0  0  0
  3  4  1  1  0  0  0
  3  2  1  0  0  0  0
  4 21  1  0  0  0  0
  6  5  1  1  0  0  0
  6  9  1  0  0  0  0
  6  1  1  0  0  0  0
  7  2  1  0  0  0  0
  8  3  1  0  0  0  0
  8  7  1  1  0  0  0
 10  9  1  6  0  0  0
 10  3  1  0  0  0  0
 10  4  1  0  0  0  0
 11 14  1  0  0  0  0
 12 14  1  0  0  0  0
 14 13  1  0  0  0  0
 15 17  1  0  0  0  0
 15 16  1  1  0  0  0
 17 18  2  0  0  0  0
 19 20  1  0  0  0  0
 20 17  1  0  0  0  0
 22 21  1  6  0  0  0
 22 24  1  0  0  0  0
 23 22  1  0  0  0  0
 25 23  1  0  0  0  0
 25 26  1  0  0  0  0
 26 28  1  1  0  0  0
 26 27  1  0  0  0  0
 27 24  1  0  0  0  0
 29 32  1  0  0  0  0
 30 32  1  0  0  0  0
 32 28  1  0  0  0  0
 32 31  1  0  0  0  0
M  END
>  <MODEL>
8

>  <REMARK>
 VINA RESULT:      -6.3      2.146      4.285
  Name = 
  8 active torsions:
  status: ('A' for Active; 'I' for Inactive)
    1  A    between atoms: C_1  and  C_2
    2  A    between atoms: C_1  and  O_30
    3  A    between atoms: C_2  and  C_7
    4  A    between atoms: C_5  and  C_28
    5  A    between atoms: C_6  and  C_31
    6  A    between atoms: N_15  and  C_31
    7  A    between atoms: C_19  and  O_32
    8  A    between atoms: C_22  and  O_32
                            x       y       z     vdW  Elec       q    Type
                         _______ _______ _______ _____ _____    ______ ____

>  <TORSDO>
F 8

$$$$
=
 OpenBabel11062420353D

 32 35  0  0  1  0  0  0  0  0999 V2000
  190.8700  176.1160  145.8750 C   0  0  1  0  0  3  0  0  0  0  0  0
  188.9690  177.4090  143.8630 C   0  0  2  0  0  3  0  0  0  0  0  0
  189.7520  176.1460  143.8030 C   0  0  2  0  0  0  0  0  0  0  0  0
  189.3140  174.9850  143.0060 N   0  0  0  0  0  0  0  0  0  0  0  0
  193.1280  175.8070  145.1120 O   0  0  0  0  0  1  0  0  0  0  0  0
  191.9260  175.1310  145.3220 C   0  0  2  0  0  3  0  0  0  0  0  0
  188.8910  177.1480  145.2660 O   0  0  0  0  0  0  0  0  0  0  0  0
  189.5690  175.9450  145.2100 N   0  0  2  0  0  0  0  0  0  0  0  0
  191.4900  174.4320  144.0260 C   0  0  0  0  0  2  0  0  0  0  0  0
  190.7490  175.3780  143.0760 C   0  0  2  0  0  3  0  0  0  0  0  0
  189.5830  175.2560  147.6920 F   0  0  0  0  0  0  0  0  0  0  0  0
  191.8180  175.2770  147.8980 F   0  0  0  0  0  0  0  0  0  0  0  0
  190.6660  177.2120  147.9910 F   0  0  0  0  0  0  0  0  0  0  0  0
  190.7310  175.9670  147.3910 C   0  0  0  0  0  0  0  0  0  0  0  0
  187.5640  177.3620  143.2500 C   0  0  2  0  0  3  0  0  0  0  0  0
  187.4900  178.2560  142.1790 O   0  0  0  0  0  1  0  0  0  0  0  0
  186.5070  177.7050  144.2510 C   0  0  0  0  0  0  0  0  0  0  0  0
  185.7790  176.7980  144.7390 O   0  0  0  0  0  0  0  0  0  0  0  0
  185.1590  179.7620  144.2700 C   0  0  0  0  0  1  0  0  0  0  0  0
  186.3290  179.0390  144.6180 O   0  0  0  0  0  0  0  0  0  0  0  0
  188.9470  175.3320  141.6390 C   0  0  0  0  0  2  0  0  0  0  0  0
  188.2430  174.1730  140.9300 C   0  0  2  0  0  3  0  0  0  0  0  0
  188.6540  172.7940  141.4570 C   0  0  0  0  0  2  0  0  0  0  0  0
  188.3180  174.2560  139.4000 C   0  0  0  0  0  2  0  0  0  0  0  0
  190.0080  172.3510  140.9010 C   0  0  0  0  0  2  0  0  0  0  0  0
  190.0170  172.3830  139.3720 C   0  0  2  0  0  3  0  0  0  0  0  0
  189.6710  173.7840  138.8650 C   0  0  0  0  0  2  0  0  0  0  0  0
  189.1150  171.4370  138.8530 O   0  0  0  0  0  0  0  0  0  0  0  0
  191.0830  170.9050  137.7850 F   0  0  0  0  0  0  0  0  0  0  0  0
  189.2680  171.4900  136.5550 F   0  0  0  0  0  0  0  0  0  0  0  0
  189.3170  169.5290  137.6460 F   0  0  0  0  0  0  0  0  0  0  0  0
  189.7000  170.8540  137.7110 C   0  0  0  0  0  0  0  0  0  0  0  0
  1 14  1  1  0  0  0
  2 15  1  6  0  0  0
  2  7  1  0  0  0  0
  3  4  1  6  0  0  0
  3  2  1  0  0  0  0
  3  8  1  0  0  0  0
  4 10  1  0  0  0  0
  6  5  1  6  0  0  0
  6  1  1  0  0  0  0
  8  7  1  1  0  0  0
  8  1  1  0  0  0  0
  9  6  1  0  0  0  0
 10  3  1  0  0  0  0
 10  9  1  1  0  0  0
 14 11  1  0  0  0  0
 14 12  1  0  0  0  0
 14 13  1  0  0  0  0
 15 16  1  6  0  0  0
 15 17  1  0  0  0  0
 17 20  1  0  0  0  0
 17 18  2  0  0  0  0
 19 20  1  0  0  0  0
 21  4  1  0  0  0  0
 22 23  1  0  0  0  0
 22 21  1  1  0  0  0
 24 22  1  0  0  0  0
 25 23  1  0  0  0  0
 26 28  1  6  0  0  0
 26 25  1  0  0  0  0
 27 26  1  0  0  0  0
 27 24  1  0  0  0  0
 30 32  1  0  0  0  0
 31 32  1  0  0  0  0
 32 29  1  0  0  0  0
 32 28  1  0  0  0  0
M  END
>  <MODEL>
9

>  <REMARK>
 VINA RESULT:      -6.2      4.147      6.243
  Name = 
  8 active torsions:
  status: ('A' for Active; 'I' for Inactive)
    1  A    between atoms: C_1  and  C_2
    2  A    between atoms: C_1  and  O_30
    3  A    between atoms: C_2  and  C_7
    4  A    between atoms: C_5  and  C_28
    5  A    between atoms: C_6  and  C_31
    6  A    between atoms: N_15  and  C_31
    7  A    between atoms: C_19  and  O_32
    8  A    between atoms: C_22  and  O_32
                            x       y       z     vdW  Elec       q    Type
                         _______ _______ _______ _____ _____    ______ ____

>  <TORSDO>
F 8

$$$$
