=
 OpenBabel11062422103D

 27 30  0  0  1  0  0  0  0  0999 V2000
  189.3100  177.5090  147.2200 C   0  0  0  0  0  3  0  0  0  0  0  0
  190.7000  175.6320  146.5460 C   0  0  0  0  0  0  0  0  0  0  0  0
  188.2710  177.0390  146.4110 C   0  0  0  0  0  0  0  0  0  0  0  0
  188.4410  175.8570  145.6810 C   0  0  0  0  0  3  0  0  0  0  0  0
  190.5180  176.8130  147.2850 C   0  0  0  0  0  3  0  0  0  0  0  0
  189.6510  175.1590  145.7380 C   0  0  0  0  0  0  0  0  0  0  0  0
  184.6500  177.7760  146.4590 C   0  0  0  0  0  2  0  0  0  0  0  0
  185.1850  178.1180  145.0820 C   0  0  2  0  0  3  0  0  0  0  0  0
  186.9670  177.7640  146.3690 C   0  0  1  0  0  0  0  0  0  0  0  0
  186.5560  178.4100  145.1930 O   0  0  0  0  0  0  0  0  0  0  0  0
  185.8620  177.3540  147.2400 C   0  0  1  0  0  3  0  0  0  0  0  0
  186.6610  178.4860  147.5320 O   0  0  0  0  0  0  0  0  0  0  0  0
  184.4730  179.2720  144.5560 N   0  0  0  0  0  2  0  0  0  0  0  0
  185.4090  180.1680  144.1650 O   0  0  0  0  0  1  0  0  0  0  0  0
  193.1680  175.5260  146.3650 C   0  0  0  0  0  1  0  0  0  0  0  0
  191.9050  174.9200  146.6030 O   0  0  0  0  0  0  0  0  0  0  0  0
  189.7980  173.8940  144.9600 C   0  0  0  0  0  2  0  0  0  0  0  0
  190.2350  174.2060  143.5390 C   0  0  0  0  0  2  0  0  0  0  0  0
  189.0840  173.9760  142.5650 C   0  0  1  0  0  3  0  0  0  0  0  0
  188.8830  176.4100  142.0070 N   0  0  0  0  0  0  0  0  0  0  0  0
  187.8200  177.2340  141.8920 C   0  0  0  0  0  3  0  0  0  0  0  0
  186.6640  176.5800  142.1190 N   0  0  0  0  0  0  0  0  0  0  0  0
  188.3060  175.2340  142.3090 C   0  0  0  0  0  0  0  0  0  0  0  0
  186.9670  175.3220  142.3860 N   0  0  0  0  0  2  0  0  0  0  0  0
  189.5570  173.3810  141.3160 N   0  0  0  0  0  0  0  0  0  0  0  0
  188.7680  172.9750  140.4020 C   0  0  0  0  0  0  0  0  0  0  0  0
  188.0010  172.5810  139.5140 O   0  0  0  0  0  0  0  0  0  0  0  0
  1  5  1  0  0  0  0
  2 16  1  0  0  0  0
  2  5  2  0  0  0  0
  3  1  2  0  0  0  0
  4  6  2  0  0  0  0
  4  3  1  0  0  0  0
  6  2  1  0  0  0  0
  8 13  1  1  0  0  0
  8 10  1  0  0  0  0
  8  7  1  0  0  0  0
  9  3  1  6  0  0  0
  9 11  1  0  0  0  0
  9 12  1  0  0  0  0
 10  9  1  0  0  0  0
 11  7  1  6  0  0  0
 11 12  1  0  0  0  0
 14 13  1  0  0  0  0
 15 16  1  0  0  0  0
 17  6  1  0  0  0  0
 18 17  1  0  0  0  0
 19 18  1  1  0  0  0
 20 23  2  0  0  0  0
 21 20  1  0  0  0  0
 21 22  2  0  0  0  0
 22 24  1  0  0  0  0
 23 24  1  0  0  0  0
 23 19  1  0  0  0  0
 25 19  1  0  0  0  0
 26 25  2  0  0  0  0
 27 26  2  0  0  0  0
M  END
>  <MODEL>
1

>  <REMARK>
 VINA RESULT:      -6.5      0.000      0.000
  Name = 
  8 active torsions:
  status: ('A' for Active; 'I' for Inactive)
    1  A    between atoms: N_1  and  C_11
    2  A    between atoms: N_4  and  C_14
    3  A    between atoms: C_7  and  O_12
    4  A    between atoms: C_8  and  C_15
    5  A    between atoms: C_11  and  C_17
    6  A    between atoms: C_11  and  C_22
    7  A    between atoms: C_16  and  C_17
    8  A    between atoms: C_16  and  C_27
                            x       y       z     vdW  Elec       q    Type
                         _______ _______ _______ _____ _____    ______ ____

>  <TORSDO>
F 8

$$$$
=
 OpenBabel11062422103D

 27 30  0  0  1  0  0  0  0  0999 V2000
  189.6880  175.2040  146.7480 C   0  0  0  0  0  3  0  0  0  0  0  0
  187.6100  176.4100  146.3770 C   0  0  0  0  0  0  0  0  0  0  0  0
  190.2610  175.8390  145.6420 C   0  0  0  0  0  0  0  0  0  0  0  0
  189.5150  176.7710  144.9130 C   0  0  0  0  0  3  0  0  0  0  0  0
  188.3690  175.4840  147.1120 C   0  0  0  0  0  3  0  0  0  0  0  0
  188.1920  177.0510  145.2690 C   0  0  0  0  0  0  0  0  0  0  0  0
  193.4640  174.1030  145.0160 C   0  0  0  0  0  2  0  0  0  0  0  0
  193.6710  175.0850  146.1520 C   0  0  2  0  0  3  0  0  0  0  0  0
  191.6820  175.5650  145.2750 C   0  0  1  0  0  0  0  0  0  0  0  0
  192.7260  176.1190  146.0300 O   0  0  0  0  0  0  0  0  0  0  0  0
  192.0420  174.3250  144.5810 C   0  0  1  0  0  3  0  0  0  0  0  0
  191.9390  175.5600  143.8950 O   0  0  0  0  0  0  0  0  0  0  0  0
  195.0160  175.6330  146.0840 N   0  0  0  0  0  2  0  0  0  0  0  0
  194.9610  176.7160  145.2740 O   0  0  0  0  0  1  0  0  0  0  0  0
  185.9530  177.6040  147.7780 C   0  0  0  0  0  1  0  0  0  0  0  0
  186.2870  176.7050  146.7310 O   0  0  0  0  0  0  0  0  0  0  0  0
  187.4250  178.0600  144.4810 C   0  0  0  0  0  2  0  0  0  0  0  0
  187.7790  177.9480  143.0080 C   0  0  0  0  0  2  0  0  0  0  0  0
  186.8760  176.9300  142.3190 C   0  0  1  0  0  3  0  0  0  0  0  0
  184.4930  177.6730  142.5200 N   0  0  0  0  0  0  0  0  0  0  0  0
  183.6450  178.2630  141.6510 C   0  0  0  0  0  3  0  0  0  0  0  0
  184.2370  178.4840  140.4610 N   0  0  0  0  0  0  0  0  0  0  0  0
  185.6190  177.5590  141.7940 C   0  0  0  0  0  0  0  0  0  0  0  0
  185.4780  178.0390  140.5470 N   0  0  0  0  0  2  0  0  0  0  0  0
  187.5930  176.2150  141.2650 N   0  0  0  0  0  0  0  0  0  0  0  0
  188.5840  175.4480  141.5000 C   0  0  0  0  0  0  0  0  0  0  0  0
  189.5460  174.7050  141.7290 O   0  0  0  0  0  0  0  0  0  0  0  0
  1  5  1  0  0  0  0
  2 16  1  0  0  0  0
  2  5  2  0  0  0  0
  3  1  2  0  0  0  0
  4  6  2  0  0  0  0
  4  3  1  0  0  0  0
  6  2  1  0  0  0  0
  7  8  1  0  0  0  0
  8 13  1  6  0  0  0
  9  3  1  1  0  0  0
  9 10  1  0  0  0  0
 10  8  1  0  0  0  0
 11  7  1  1  0  0  0
 11  9  1  0  0  0  0
 12 11  1  0  0  0  0
 12  9  1  0  0  0  0
 14 13  1  0  0  0  0
 16 15  1  0  0  0  0
 17  6  1  0  0  0  0
 18 17  1  0  0  0  0
 19 18  1  6  0  0  0
 21 20  1  0  0  0  0
 22 24  1  0  0  0  0
 22 21  2  0  0  0  0
 23 19  1  0  0  0  0
 23 20  2  0  0  0  0
 24 23  1  0  0  0  0
 25 26  2  0  0  0  0
 25 19  1  0  0  0  0
 26 27  2  0  0  0  0
M  END
>  <MODEL>
2

>  <REMARK>
 VINA RESULT:      -6.4      2.497      5.706
  Name = 
  8 active torsions:
  status: ('A' for Active; 'I' for Inactive)
    1  A    between atoms: N_1  and  C_11
    2  A    between atoms: N_4  and  C_14
    3  A    between atoms: C_7  and  O_12
    4  A    between atoms: C_8  and  C_15
    5  A    between atoms: C_11  and  C_17
    6  A    between atoms: C_11  and  C_22
    7  A    between atoms: C_16  and  C_17
    8  A    between atoms: C_16  and  C_27
                            x       y       z     vdW  Elec       q    Type
                         _______ _______ _______ _____ _____    ______ ____

>  <TORSDO>
F 8

$$$$
=
 OpenBabel11062422103D

 27 30  0  0  1  0  0  0  0  0999 V2000
  188.0040  175.9140  147.3190 C   0  0  0  0  0  3  0  0  0  0  0  0
  186.4300  177.0760  145.8760 C   0  0  0  0  0  0  0  0  0  0  0  0
  188.9970  176.0300  146.3410 C   0  0  0  0  0  0  0  0  0  0  0  0
  188.7110  176.6830  145.1370 C   0  0  0  0  0  3  0  0  0  0  0  0
  186.7280  176.4300  147.0880 C   0  0  0  0  0  3  0  0  0  0  0  0
  187.4330  177.1970  144.8980 C   0  0  0  0  0  0  0  0  0  0  0  0
  192.6700  175.8060  146.6860 C   0  0  0  0  0  2  0  0  0  0  0  0
  192.2390  174.8650  145.5770 C   0  0  2  0  0  3  0  0  0  0  0  0
  190.3710  175.5090  146.6030 C   0  0  1  0  0  0  0  0  0  0  0  0
  190.9040  174.4880  145.8020 O   0  0  0  0  0  0  0  0  0  0  0  0
  191.3840  176.3690  147.2220 C   0  0  1  0  0  3  0  0  0  0  0  0
  190.6970  175.3740  147.9610 O   0  0  0  0  0  0  0  0  0  0  0  0
  193.0930  173.6880  145.5780 N   0  0  0  0  0  2  0  0  0  0  0  0
  192.5560  172.8100  144.6980 O   0  0  0  0  0  1  0  0  0  0  0  0
  184.6010  178.6630  146.3950 C   0  0  0  0  0  1  0  0  0  0  0  0
  185.1560  177.6020  145.6300 O   0  0  0  0  0  0  0  0  0  0  0  0
  187.1620  177.9010  143.6110 C   0  0  0  0  0  2  0  0  0  0  0  0
  186.5320  176.9410  142.6160 C   0  0  0  0  0  2  0  0  0  0  0  0
  187.4270  176.7810  141.3900 C   0  0  1  0  0  3  0  0  0  0  0  0
  188.0360  174.5070  142.2460 N   0  0  0  0  0  0  0  0  0  0  0  0
  188.4990  173.3970  141.6340 C   0  0  0  0  0  3  0  0  0  0  0  0
  188.6390  173.5880  140.3080 N   0  0  0  0  0  0  0  0  0  0  0  0
  187.9010  175.3670  141.2210 C   0  0  0  0  0  0  0  0  0  0  0  0
  188.2660  174.8290  140.0460 N   0  0  0  0  0  2  0  0  0  0  0  0
  186.7620  177.2670  140.1820 N   0  0  0  0  0  0  0  0  0  0  0  0
  185.6480  177.8840  140.2070 C   0  0  0  0  0  0  0  0  0  0  0  0
  184.5650  178.4840  140.2330 O   0  0  0  0  0  0  0  0  0  0  0  0
  2  5  2  0  0  0  0
  3  1  2  0  0  0  0
  4  3  1  0  0  0  0
  5  1  1  0  0  0  0
  6  4  2  0  0  0  0
  6  2  1  0  0  0  0
  8 13  1  1  0  0  0
  8 10  1  0  0  0  0
  8  7  1  0  0  0  0
  9  3  1  6  0  0  0
  9 11  1  0  0  0  0
  9 12  1  0  0  0  0
 10  9  1  0  0  0  0
 11  7  1  6  0  0  0
 11 12  1  0  0  0  0
 14 13  1  0  0  0  0
 16  2  1  0  0  0  0
 16 15  1  0  0  0  0
 17  6  1  0  0  0  0
 18 17  1  0  0  0  0
 19 18  1  1  0  0  0
 21 20  1  0  0  0  0
 22 21  2  0  0  0  0
 23 19  1  0  0  0  0
 23 20  2  0  0  0  0
 24 22  1  0  0  0  0
 24 23  1  0  0  0  0
 25 26  2  0  0  0  0
 25 19  1  0  0  0  0
 26 27  2  0  0  0  0
M  END
>  <MODEL>
3

>  <REMARK>
 VINA RESULT:      -6.3      2.279      5.602
  Name = 
  8 active torsions:
  status: ('A' for Active; 'I' for Inactive)
    1  A    between atoms: N_1  and  C_11
    2  A    between atoms: N_4  and  C_14
    3  A    between atoms: C_7  and  O_12
    4  A    between atoms: C_8  and  C_15
    5  A    between atoms: C_11  and  C_17
    6  A    between atoms: C_11  and  C_22
    7  A    between atoms: C_16  and  C_17
    8  A    between atoms: C_16  and  C_27
                            x       y       z     vdW  Elec       q    Type
                         _______ _______ _______ _____ _____    ______ ____

>  <TORSDO>
F 8

$$$$
=
 OpenBabel11062422103D

 27 30  0  0  1  0  0  0  0  0999 V2000
  186.9490  175.5580  142.4840 C   0  0  0  0  0  3  0  0  0  0  0  0
  189.3520  175.3320  142.1940 C   0  0  0  0  0  0  0  0  0  0  0  0
  187.1380  176.7650  143.1640 C   0  0  0  0  0  0  0  0  0  0  0  0
  188.4330  177.2640  143.3450 C   0  0  0  0  0  3  0  0  0  0  0  0
  188.0490  174.8430  142.0050 C   0  0  0  0  0  3  0  0  0  0  0  0
  189.5380  176.5500  142.8720 C   0  0  0  0  0  0  0  0  0  0  0  0
  184.9220  179.5670  144.1120 C   0  0  0  0  0  2  0  0  0  0  0  0
  185.2330  178.7640  145.3610 C   0  0  2  0  0  3  0  0  0  0  0  0
  185.9610  177.5470  143.6450 C   0  0  1  0  0  0  0  0  0  0  0  0
  185.5460  177.4480  144.9810 O   0  0  0  0  0  0  0  0  0  0  0  0
  185.5990  178.8130  143.0030 C   0  0  1  0  0  3  0  0  0  0  0  0
  184.8930  177.6140  142.7380 O   0  0  0  0  0  0  0  0  0  0  0  0
  184.0760  178.7650  146.2410 N   0  0  0  0  0  2  0  0  0  0  0  0
  184.5280  178.5010  147.4890 O   0  0  0  0  0  1  0  0  0  0  0  0
  190.4390  173.2320  141.4550 C   0  0  0  0  0  1  0  0  0  0  0  0
  190.4650  174.6290  141.7160 O   0  0  0  0  0  0  0  0  0  0  0  0
  190.9060  177.1130  143.0670 C   0  0  0  0  0  2  0  0  0  0  0  0
  191.0420  177.6750  144.4720 C   0  0  0  0  0  2  0  0  0  0  0  0
  191.3260  176.5550  145.4680 C   0  0  1  0  0  3  0  0  0  0  0  0
  193.7400  177.1330  145.1330 N   0  0  0  0  0  0  0  0  0  0  0  0
  194.8840  176.5340  145.5260 C   0  0  0  0  0  3  0  0  0  0  0  0
  194.6340  175.4180  146.2400 N   0  0  0  0  0  0  0  0  0  0  0  0
  192.7970  176.3260  145.6510 C   0  0  0  0  0  0  0  0  0  0  0  0
  193.3220  175.2830  146.3170 N   0  0  0  0  0  2  0  0  0  0  0  0
  190.6630  176.8030  146.7470 N   0  0  0  0  0  0  0  0  0  0  0  0
  189.4440  177.1650  146.8350 C   0  0  0  0  0  0  0  0  0  0  0  0
  188.2610  177.5160  146.9200 O   0  0  0  0  0  0  0  0  0  0  0  0
  1  3  1  0  0  0  0
  2  6  2  0  0  0  0
  3  4  2  0  0  0  0
  5  2  1  0  0  0  0
  5  1  2  0  0  0  0
  6 17  1  0  0  0  0
  6  4  1  0  0  0  0
  7  8  1  0  0  0  0
  8 13  1  1  0  0  0
  9  3  1  6  0  0  0
  9 10  1  0  0  0  0
 10  8  1  0  0  0  0
 11  9  1  0  0  0  0
 11  7  1  1  0  0  0
 12 11  1  0  0  0  0
 12  9  1  0  0  0  0
 13 14  1  0  0  0  0
 15 16  1  0  0  0  0
 16  2  1  0  0  0  0
 17 18  1  0  0  0  0
 19 18  1  6  0  0  0
 19 23  1  0  0  0  0
 19 25  1  0  0  0  0
 20 21  1  0  0  0  0
 20 23  2  0  0  0  0
 21 22  2  0  0  0  0
 22 24  1  0  0  0  0
 23 24  1  0  0  0  0
 25 26  2  0  0  0  0
 26 27  2  0  0  0  0
M  END
>  <MODEL>
4

>  <REMARK>
 VINA RESULT:      -6.2      2.995      5.323
  Name = 
  8 active torsions:
  status: ('A' for Active; 'I' for Inactive)
    1  A    between atoms: N_1  and  C_11
    2  A    between atoms: N_4  and  C_14
    3  A    between atoms: C_7  and  O_12
    4  A    between atoms: C_8  and  C_15
    5  A    between atoms: C_11  and  C_17
    6  A    between atoms: C_11  and  C_22
    7  A    between atoms: C_16  and  C_17
    8  A    between atoms: C_16  and  C_27
                            x       y       z     vdW  Elec       q    Type
                         _______ _______ _______ _____ _____    ______ ____

>  <TORSDO>
F 8

$$$$
=
 OpenBabel11062422103D

 27 30  0  0  1  0  0  0  0  0999 V2000
  189.4350  177.5310  147.2640 C   0  0  0  0  0  3  0  0  0  0  0  0
  190.8520  175.6270  146.7360 C   0  0  0  0  0  0  0  0  0  0  0  0
  188.3870  176.9620  146.5330 C   0  0  0  0  0  0  0  0  0  0  0  0
  188.5660  175.7180  145.9170 C   0  0  0  0  0  3  0  0  0  0  0  0
  190.6610  176.8700  147.3620 C   0  0  0  0  0  3  0  0  0  0  0  0
  189.7940  175.0550  146.0080 C   0  0  0  0  0  0  0  0  0  0  0  0
  184.7470  177.5990  146.4840 C   0  0  0  0  0  2  0  0  0  0  0  0
  185.3100  177.9620  145.1230 C   0  0  2  0  0  3  0  0  0  0  0  0
  187.0650  177.6520  146.4570 C   0  0  1  0  0  0  0  0  0  0  0  0
  186.6690  178.2900  145.2730 O   0  0  0  0  0  0  0  0  0  0  0  0
  185.9490  177.2070  147.2960 C   0  0  1  0  0  3  0  0  0  0  0  0
  186.7080  178.3600  147.6140 O   0  0  0  0  0  0  0  0  0  0  0  0
  184.5820  179.0970  144.5810 N   0  0  0  0  0  2  0  0  0  0  0  0
  185.5010  180.0390  144.2620 O   0  0  0  0  0  1  0  0  0  0  0  0
  193.3110  175.5420  146.4560 C   0  0  0  0  0  1  0  0  0  0  0  0
  192.0740  174.9500  146.8280 O   0  0  0  0  0  0  0  0  0  0  0  0
  189.9510  173.7240  145.3530 C   0  0  0  0  0  2  0  0  0  0  0  0
  189.5490  173.8130  143.8910 C   0  0  0  0  0  2  0  0  0  0  0  0
  190.7160  174.3140  143.0460 C   0  0  1  0  0  3  0  0  0  0  0  0
  191.8260  176.5430  143.3220 N   0  0  0  0  0  0  0  0  0  0  0  0
  191.3970  177.8070  143.1170 C   0  0  0  0  0  3  0  0  0  0  0  0
  190.1260  177.8280  142.6700 N   0  0  0  0  0  0  0  0  0  0  0  0
  190.7530  175.8130  142.9720 C   0  0  0  0  0  0  0  0  0  0  0  0
  189.7170  176.5750  142.5820 N   0  0  0  0  0  2  0  0  0  0  0  0
  191.9870  173.7750  143.5270 N   0  0  0  0  0  0  0  0  0  0  0  0
  192.6290  172.8640  142.9090 C   0  0  0  0  0  0  0  0  0  0  0  0
  193.2510  171.9790  142.3090 O   0  0  0  0  0  0  0  0  0  0  0  0
  1  5  1  0  0  0  0
  2 16  1  0  0  0  0
  2  5  2  0  0  0  0
  3  1  2  0  0  0  0
  4  6  2  0  0  0  0
  4  3  1  0  0  0  0
  6  2  1  0  0  0  0
  8 13  1  1  0  0  0
  8 10  1  0  0  0  0
  8  7  1  0  0  0  0
  9  3  1  1  0  0  0
  9 11  1  0  0  0  0
  9 12  1  0  0  0  0
 10  9  1  0  0  0  0
 11  7  1  6  0  0  0
 11 12  1  0  0  0  0
 14 13  1  0  0  0  0
 15 16  1  0  0  0  0
 17  6  1  0  0  0  0
 18 17  1  0  0  0  0
 19 25  1  0  0  0  0
 19 18  1  1  0  0  0
 21 20  1  0  0  0  0
 22 21  2  0  0  0  0
 23 19  1  0  0  0  0
 23 20  2  0  0  0  0
 24 22  1  0  0  0  0
 24 23  1  0  0  0  0
 26 25  2  0  0  0  0
 27 26  2  0  0  0  0
M  END
>  <MODEL>
5

>  <REMARK>
 VINA RESULT:      -6.2      1.927      2.172
  Name = 
  8 active torsions:
  status: ('A' for Active; 'I' for Inactive)
    1  A    between atoms: N_1  and  C_11
    2  A    between atoms: N_4  and  C_14
    3  A    between atoms: C_7  and  O_12
    4  A    between atoms: C_8  and  C_15
    5  A    between atoms: C_11  and  C_17
    6  A    between atoms: C_11  and  C_22
    7  A    between atoms: C_16  and  C_17
    8  A    between atoms: C_16  and  C_27
                            x       y       z     vdW  Elec       q    Type
                         _______ _______ _______ _____ _____    ______ ____

>  <TORSDO>
F 8

$$$$
=
 OpenBabel11062422103D

 27 30  0  0  1  0  0  0  0  0999 V2000
  186.2830  177.2660  145.8150 C   0  0  0  0  0  3  0  0  0  0  0  0
  188.6250  176.8620  146.3290 C   0  0  0  0  0  0  0  0  0  0  0  0
  186.6500  177.9590  144.6570 C   0  0  0  0  0  0  0  0  0  0  0  0
  188.0040  178.0900  144.3270 C   0  0  0  0  0  3  0  0  0  0  0  0
  187.2630  176.7240  146.6480 C   0  0  0  0  0  3  0  0  0  0  0  0
  188.9900  177.5530  145.1600 C   0  0  0  0  0  0  0  0  0  0  0  0
  183.3760  178.8070  143.1680 C   0  0  0  0  0  2  0  0  0  0  0  0
  184.1200  177.9100  142.1980 C   0  0  2  0  0  3  0  0  0  0  0  0
  185.6010  178.5090  143.7490 C   0  0  1  0  0  0  0  0  0  0  0  0
  185.5000  178.0490  142.4280 O   0  0  0  0  0  0  0  0  0  0  0  0
  184.3440  179.0270  144.2960 C   0  0  1  0  0  3  0  0  0  0  0  0
  185.3850  179.8890  143.8720 O   0  0  0  0  0  0  0  0  0  0  0  0
  183.8030  178.3000  140.8330 N   0  0  0  0  0  2  0  0  0  0  0  0
  184.9510  178.2160  140.1220 O   0  0  0  0  0  1  0  0  0  0  0  0
  189.8520  174.9230  147.2620 C   0  0  0  0  0  1  0  0  0  0  0  0
  189.6200  176.3200  147.1530 O   0  0  0  0  0  0  0  0  0  0  0  0
  190.4240  177.6950  144.7750 C   0  0  0  0  0  2  0  0  0  0  0  0
  190.6510  177.1100  143.3910 C   0  0  0  0  0  2  0  0  0  0  0  0
  190.5310  175.5900  143.4290 C   0  0  1  0  0  3  0  0  0  0  0  0
  189.8890  173.8620  141.7330 N   0  0  0  0  0  0  0  0  0  0  0  0
  188.9400  173.8340  140.7740 C   0  0  0  0  0  3  0  0  0  0  0  0
  188.2150  174.9690  140.7670 N   0  0  0  0  0  0  0  0  0  0  0  0
  189.6920  175.0640  142.3010 C   0  0  0  0  0  0  0  0  0  0  0  0
  188.6880  175.7470  141.7250 N   0  0  0  0  0  2  0  0  0  0  0  0
  191.8470  174.9540  143.4540 N   0  0  0  0  0  0  0  0  0  0  0  0
  192.3870  174.5260  144.5260 C   0  0  0  0  0  0  0  0  0  0  0  0
  192.9120  174.1110  145.5670 O   0  0  0  0  0  0  0  0  0  0  0  0
  1  5  1  0  0  0  0
  2  5  2  0  0  0  0
  2 16  1  0  0  0  0
  3  1  2  0  0  0  0
  4  3  1  0  0  0  0
  4  6  2  0  0  0  0
  6  2  1  0  0  0  0
  8 13  1  6  0  0  0
  8 10  1  0  0  0  0
  8  7  1  0  0  0  0
  9 12  1  0  0  0  0
  9 11  1  0  0  0  0
  9  3  1  1  0  0  0
 10  9  1  0  0  0  0
 11  7  1  6  0  0  0
 12 11  1  0  0  0  0
 14 13  1  0  0  0  0
 16 15  1  0  0  0  0
 17  6  1  0  0  0  0
 18 17  1  0  0  0  0
 19 18  1  6  0  0  0
 19 25  1  0  0  0  0
 20 23  2  0  0  0  0
 21 20  1  0  0  0  0
 22 21  2  0  0  0  0
 22 24  1  0  0  0  0
 23 19  1  0  0  0  0
 24 23  1  0  0  0  0
 25 26  2  0  0  0  0
 26 27  2  0  0  0  0
M  END
>  <MODEL>
6

>  <REMARK>
 VINA RESULT:      -6.1      2.212      3.581
  Name = 
  8 active torsions:
  status: ('A' for Active; 'I' for Inactive)
    1  A    between atoms: N_1  and  C_11
    2  A    between atoms: N_4  and  C_14
    3  A    between atoms: C_7  and  O_12
    4  A    between atoms: C_8  and  C_15
    5  A    between atoms: C_11  and  C_17
    6  A    between atoms: C_11  and  C_22
    7  A    between atoms: C_16  and  C_17
    8  A    between atoms: C_16  and  C_27
                            x       y       z     vdW  Elec       q    Type
                         _______ _______ _______ _____ _____    ______ ____

>  <TORSDO>
F 8

$$$$
=
 OpenBabel11062422103D

 27 30  0  0  1  0  0  0  0  0999 V2000
  189.4480  176.2050  146.5700 C   0  0  0  0  0  3  0  0  0  0  0  0
  187.1740  176.8240  145.9760 C   0  0  0  0  0  0  0  0  0  0  0  0
  189.9270  176.8250  145.4120 C   0  0  0  0  0  0  0  0  0  0  0  0
  189.0310  177.4590  144.5440 C   0  0  0  0  0  3  0  0  0  0  0  0
  188.0810  176.2000  146.8490 C   0  0  0  0  0  3  0  0  0  0  0  0
  187.6600  177.4530  144.8160 C   0  0  0  0  0  0  0  0  0  0  0  0
  193.2740  176.0180  144.0690 C   0  0  0  0  0  2  0  0  0  0  0  0
  193.2990  175.7960  145.5690 C   0  0  2  0  0  3  0  0  0  0  0  0
  191.3930  176.8600  145.1320 C   0  0  1  0  0  0  0  0  0  0  0  0
  192.3140  176.6080  146.1590 O   0  0  0  0  0  0  0  0  0  0  0  0
  191.8980  176.5540  143.7910 C   0  0  1  0  0  3  0  0  0  0  0  0
  191.7980  177.8850  144.2640 O   0  0  0  0  0  0  0  0  0  0  0  0
  194.6100  176.1480  146.0920 N   0  0  0  0  0  2  0  0  0  0  0  0
  195.3150  174.9970  146.1940 O   0  0  0  0  0  1  0  0  0  0  0  0
  185.2050  177.7060  147.1920 C   0  0  0  0  0  1  0  0  0  0  0  0
  185.7990  176.8320  146.2440 O   0  0  0  0  0  0  0  0  0  0  0  0
  186.7300  178.1490  143.8800 C   0  0  0  0  0  2  0  0  0  0  0  0
  186.1700  177.1600  142.8710 C   0  0  0  0  0  2  0  0  0  0  0  0
  187.0630  177.0950  141.6360 C   0  0  1  0  0  3  0  0  0  0  0  0
  187.7960  174.8370  142.4350 N   0  0  0  0  0  0  0  0  0  0  0  0
  188.3730  173.7910  141.8070 C   0  0  0  0  0  3  0  0  0  0  0  0
  188.5660  174.0490  140.4980 N   0  0  0  0  0  0  0  0  0  0  0  0
  187.6500  175.7280  141.4390 C   0  0  0  0  0  0  0  0  0  0  0  0
  188.1150  175.2690  140.2650 N   0  0  0  0  0  2  0  0  0  0  0  0
  186.3500  177.5450  140.4430 N   0  0  0  0  0  0  0  0  0  0  0  0
  185.1930  178.0780  140.4880 C   0  0  0  0  0  0  0  0  0  0  0  0
  184.0700  178.5960  140.5340 O   0  0  0  0  0  0  0  0  0  0  0  0
  1  5  1  0  0  0  0
  2 16  1  0  0  0  0
  2  5  2  0  0  0  0
  3  1  2  0  0  0  0
  4  6  2  0  0  0  0
  4  3  1  0  0  0  0
  6  2  1  0  0  0  0
  7  8  1  0  0  0  0
  8 13  1  1  0  0  0
  8 10  1  0  0  0  0
  9  3  1  1  0  0  0
  9 10  1  0  0  0  0
 11  7  1  1  0  0  0
 11 12  1  0  0  0  0
 11  9  1  0  0  0  0
 12  9  1  0  0  0  0
 13 14  1  0  0  0  0
 16 15  1  0  0  0  0
 17  6  1  0  0  0  0
 18 17  1  0  0  0  0
 19 18  1  1  0  0  0
 21 20  1  0  0  0  0
 22 21  2  0  0  0  0
 23 19  1  0  0  0  0
 23 20  2  0  0  0  0
 24 22  1  0  0  0  0
 24 23  1  0  0  0  0
 25 26  2  0  0  0  0
 25 19  1  0  0  0  0
 26 27  2  0  0  0  0
M  END
>  <MODEL>
7

>  <REMARK>
 VINA RESULT:      -6.1      2.477      5.837
  Name = 
  8 active torsions:
  status: ('A' for Active; 'I' for Inactive)
    1  A    between atoms: N_1  and  C_11
    2  A    between atoms: N_4  and  C_14
    3  A    between atoms: C_7  and  O_12
    4  A    between atoms: C_8  and  C_15
    5  A    between atoms: C_11  and  C_17
    6  A    between atoms: C_11  and  C_22
    7  A    between atoms: C_16  and  C_17
    8  A    between atoms: C_16  and  C_27
                            x       y       z     vdW  Elec       q    Type
                         _______ _______ _______ _____ _____    ______ ____

>  <TORSDO>
F 8

$$$$
=
 OpenBabel11062422103D

 27 30  0  0  1  0  0  0  0  0999 V2000
  186.1110  177.1480  145.8550 C   0  0  0  0  0  3  0  0  0  0  0  0
  188.4270  176.6820  146.4280 C   0  0  0  0  0  0  0  0  0  0  0  0
  186.5260  177.8620  144.7270 C   0  0  0  0  0  0  0  0  0  0  0  0
  187.8910  177.9730  144.4400 C   0  0  0  0  0  3  0  0  0  0  0  0
  187.0540  176.5650  146.7030 C   0  0  0  0  0  3  0  0  0  0  0  0
  188.8410  177.3950  145.2890 C   0  0  0  0  0  0  0  0  0  0  0  0
  183.3150  178.8690  143.2000 C   0  0  0  0  0  2  0  0  0  0  0  0
  184.0150  177.9180  142.2480 C   0  0  2  0  0  3  0  0  0  0  0  0
  185.5160  178.4550  143.8020 C   0  0  1  0  0  0  0  0  0  0  0  0
  185.3990  177.9820  142.4870 O   0  0  0  0  0  0  0  0  0  0  0  0
  184.2860  179.0510  144.3320 C   0  0  1  0  0  3  0  0  0  0  0  0
  185.3760  179.8480  143.9040 O   0  0  0  0  0  0  0  0  0  0  0  0
  183.7300  178.3040  140.8760 N   0  0  0  0  0  2  0  0  0  0  0  0
  184.8130  177.9670  140.1380 O   0  0  0  0  0  1  0  0  0  0  0  0
  189.6290  174.7010  147.3020 C   0  0  0  0  0  1  0  0  0  0  0  0
  189.3860  176.1000  147.2660 O   0  0  0  0  0  0  0  0  0  0  0  0
  190.2890  177.5180  144.9500 C   0  0  0  0  0  2  0  0  0  0  0  0
  190.4990  177.2630  143.4670 C   0  0  0  0  0  2  0  0  0  0  0  0
  191.1220  175.8880  143.2460 C   0  0  1  0  0  3  0  0  0  0  0  0
  193.4980  176.4170  143.8400 N   0  0  0  0  0  0  0  0  0  0  0  0
  194.3440  175.9020  144.7560 C   0  0  0  0  0  3  0  0  0  0  0  0
  193.7570  174.9250  145.4740 N   0  0  0  0  0  0  0  0  0  0  0  0
  192.3770  175.7040  144.0490 C   0  0  0  0  0  0  0  0  0  0  0  0
  192.5200  174.7960  145.0290 N   0  0  0  0  0  2  0  0  0  0  0  0
  190.1590  174.8210  143.5130 N   0  0  0  0  0  0  0  0  0  0  0  0
  189.0670  174.6980  142.8670 C   0  0  0  0  0  0  0  0  0  0  0  0
  188.0070  174.5790  142.2390 O   0  0  0  0  0  0  0  0  0  0  0  0
  1  5  1  0  0  0  0
  2  5  2  0  0  0  0
  2 16  1  0  0  0  0
  3  1  2  0  0  0  0
  4  3  1  0  0  0  0
  4  6  2  0  0  0  0
  6  2  1  0  0  0  0
  8 13  1  6  0  0  0
  8 10  1  0  0  0  0
  8  7  1  0  0  0  0
  9 12  1  0  0  0  0
  9 11  1  0  0  0  0
  9  3  1  1  0  0  0
 10  9  1  0  0  0  0
 11  7  1  6  0  0  0
 12 11  1  0  0  0  0
 14 13  1  0  0  0  0
 16 15  1  0  0  0  0
 17  6  1  0  0  0  0
 18 17  1  0  0  0  0
 19 18  1  1  0  0  0
 19 25  1  0  0  0  0
 19 23  1  0  0  0  0
 20 23  2  0  0  0  0
 20 21  1  0  0  0  0
 21 22  2  0  0  0  0
 23 24  1  0  0  0  0
 24 22  1  0  0  0  0
 26 25  2  0  0  0  0
 27 26  2  0  0  0  0
M  END
>  <MODEL>
8

>  <REMARK>
 VINA RESULT:      -6.1      2.854      4.029
  Name = 
  8 active torsions:
  status: ('A' for Active; 'I' for Inactive)
    1  A    between atoms: N_1  and  C_11
    2  A    between atoms: N_4  and  C_14
    3  A    between atoms: C_7  and  O_12
    4  A    between atoms: C_8  and  C_15
    5  A    between atoms: C_11  and  C_17
    6  A    between atoms: C_11  and  C_22
    7  A    between atoms: C_16  and  C_17
    8  A    between atoms: C_16  and  C_27
                            x       y       z     vdW  Elec       q    Type
                         _______ _______ _______ _____ _____    ______ ____

>  <TORSDO>
F 8

$$$$
=
 OpenBabel11062422103D

 27 30  0  0  1  0  0  0  0  0999 V2000
  189.2760  175.6460  146.8740 C   0  0  0  0  0  3  0  0  0  0  0  0
  187.5720  176.8690  145.6440 C   0  0  0  0  0  0  0  0  0  0  0  0
  190.2440  176.0510  145.9500 C   0  0  0  0  0  0  0  0  0  0  0  0
  189.8790  176.8770  144.8810 C   0  0  0  0  0  3  0  0  0  0  0  0
  187.9480  176.0480  146.7220 C   0  0  0  0  0  3  0  0  0  0  0  0
  188.5500  177.2790  144.7200 C   0  0  0  0  0  0  0  0  0  0  0  0
  193.9000  176.1870  146.4700 C   0  0  0  0  0  2  0  0  0  0  0  0
  193.6390  175.6050  145.0950 C   0  0  2  0  0  3  0  0  0  0  0  0
  191.6700  175.6490  146.1330 C   0  0  1  0  0  0  0  0  0  0  0  0
  192.3630  175.0130  145.0930 O   0  0  0  0  0  0  0  0  0  0  0  0
  192.5330  176.3840  147.0620 C   0  0  1  0  0  3  0  0  0  0  0  0
  191.9720  175.1270  147.4000 O   0  0  0  0  0  0  0  0  0  0  0  0
  194.6490  174.6060  144.7870 N   0  0  0  0  0  2  0  0  0  0  0  0
  195.7300  174.8890  145.5520 O   0  0  0  0  0  1  0  0  0  0  0  0
  185.1960  176.8690  146.3420 C   0  0  0  0  0  1  0  0  0  0  0  0
  186.2450  177.2840  145.4790 O   0  0  0  0  0  0  0  0  0  0  0  0
  188.1930  178.1720  143.5800 C   0  0  0  0  0  2  0  0  0  0  0  0
  188.7970  177.6380  142.2920 C   0  0  0  0  0  2  0  0  0  0  0  0
  187.7320  176.9320  141.4580 C   0  0  1  0  0  3  0  0  0  0  0  0
  188.5610  174.8120  140.4110 N   0  0  0  0  0  0  0  0  0  0  0  0
  188.4940  173.5200  140.7930 C   0  0  0  0  0  3  0  0  0  0  0  0
  187.8580  173.3880  141.9740 N   0  0  0  0  0  0  0  0  0  0  0  0
  187.9410  175.4460  141.4220 C   0  0  0  0  0  0  0  0  0  0  0  0
  187.5060  174.5990  142.3700 N   0  0  0  0  0  2  0  0  0  0  0  0
  186.3870  177.2680  141.9200 N   0  0  0  0  0  0  0  0  0  0  0  0
  185.5270  177.8480  141.1800 C   0  0  0  0  0  0  0  0  0  0  0  0
  184.6920  178.4110  140.4600 O   0  0  0  0  0  0  0  0  0  0  0  0
  2  5  2  0  0  0  0
  3  1  2  0  0  0  0
  4  3  1  0  0  0  0
  5  1  1  0  0  0  0
  6  4  2  0  0  0  0
  6  2  1  0  0  0  0
  8 13  1  1  0  0  0
  8  7  1  0  0  0  0
  9  3  1  6  0  0  0
  9 11  1  0  0  0  0
  9 12  1  0  0  0  0
 10  8  1  0  0  0  0
 10  9  1  0  0  0  0
 11  7  1  6  0  0  0
 11 12  1  0  0  0  0
 13 14  1  0  0  0  0
 16  2  1  0  0  0  0
 16 15  1  0  0  0  0
 17  6  1  0  0  0  0
 18 17  1  0  0  0  0
 19 25  1  0  0  0  0
 19 18  1  1  0  0  0
 20 21  1  0  0  0  0
 20 23  2  0  0  0  0
 21 22  2  0  0  0  0
 22 24  1  0  0  0  0
 23 19  1  0  0  0  0
 23 24  1  0  0  0  0
 26 25  2  0  0  0  0
 27 26  2  0  0  0  0
M  END
>  <MODEL>
9

>  <REMARK>
 VINA RESULT:      -6.1      2.180      5.830
  Name = 
  8 active torsions:
  status: ('A' for Active; 'I' for Inactive)
    1  A    between atoms: N_1  and  C_11
    2  A    between atoms: N_4  and  C_14
    3  A    between atoms: C_7  and  O_12
    4  A    between atoms: C_8  and  C_15
    5  A    between atoms: C_11  and  C_17
    6  A    between atoms: C_11  and  C_22
    7  A    between atoms: C_16  and  C_17
    8  A    between atoms: C_16  and  C_27
                            x       y       z     vdW  Elec       q    Type
                         _______ _______ _______ _____ _____    ______ ____

>  <TORSDO>
F 8

$$$$
