=
 OpenBabel11062419203D

 50 55  0  0  1  0  0  0  0  0999 V2000
  192.0200  174.3020  140.8940 O   0  0  0  0  0  0  0  0  0  0  0  0
  193.3510  173.9710  141.2470 C   0  0  1  0  0  0  0  0  0  0  0  0
  192.2770  175.5210  142.8420 O   0  0  0  0  0  1  0  0  0  0  0  0
  192.2950  174.2420  142.2740 C   0  0  1  0  0  0  0  0  0  0  0  0
  195.0810  172.7500  138.7580 C   0  0  0  0  0  0  0  0  0  0  0  0
  193.9400  171.8090  142.1470 O   0  0  0  0  0  1  0  0  0  0  0  0
  191.9220  171.1930  137.8670 C   0  0  0  0  0  3  0  0  0  0  0  0
  193.7780  172.4940  140.9400 C   0  0  2  0  0  0  0  0  0  0  0  0
  194.0350  172.4010  138.0710 N   0  0  0  0  0  0  0  0  0  0  0  0
  190.8270  170.5500  138.4470 C   0  0  0  0  0  3  0  0  0  0  0  0
  191.6540  171.1130  140.6460 C   0  0  0  0  0  3  0  0  0  0  0  0
  195.1530  172.4570  140.2390 C   0  0  0  0  0  2  0  0  0  0  0  0
  190.6980  170.5040  139.8340 C   0  0  0  0  0  3  0  0  0  0  0  0
  192.8910  171.7920  138.6750 C   0  0  0  0  0  0  0  0  0  0  0  0
  192.7600  171.7640  140.0770 C   0  0  0  0  0  0  0  0  0  0  0  0
  197.3670  173.6770  138.7530 C   0  0  0  0  0  1  0  0  0  0  0  0
  196.1500  173.3580  138.0990 O   0  0  0  0  0  0  0  0  0  0  0  0
  194.3300  175.1300  141.0130 C   0  0  0  0  0  2  0  0  0  0  0  0
  195.5610  175.0090  141.8920 C   0  0  0  0  0  2  0  0  0  0  0  0
  195.7970  176.3290  142.5930 C   0  0  0  0  0  2  0  0  0  0  0  0
  196.0630  176.1040  144.0700 C   0  0  0  0  0  2  0  0  0  0  0  0
  194.2450  175.9270  146.2790 C   0  0  0  0  0  1  0  0  0  0  0  0
  196.5420  172.9940  145.8350 C   0  0  0  0  0  1  0  0  0  0  0  0
  195.6510  174.6930  144.4830 C   0  0  2  0  0  3  0  0  0  0  0  0
  194.7280  174.6390  145.6260 C   0  0  0  0  0  0  0  0  0  0  0  0
  196.1820  174.4070  145.8360 N   0  0  0  0  0  0  0  0  0  0  0  0
  193.8020  173.4240  145.6870 C   0  0  0  0  0  1  0  0  0  0  0  0
  191.4660  173.1460  142.9480 C   0  0  0  0  0  2  0  0  0  0  0  0
  190.0360  173.5950  143.2460 C   0  0  0  0  0  2  0  0  0  0  0  0
  189.0320  172.8770  142.3570 C   0  0  0  0  0  2  0  0  0  0  0  0
  188.3410  173.8490  141.4130 C   0  0  2  0  0  3  0  0  0  0  0  0
  189.3860  174.0520  139.2840 O   0  0  0  0  0  0  0  0  0  0  0  0
  188.5440  173.4400  139.9910 C   0  0  0  0  0  0  0  0  0  0  0  0
  187.8000  172.4020  139.4480 O   0  0  0  0  0  1  0  0  0  0  0  0
  188.8570  175.1580  141.6290 O   0  0  0  0  0  0  0  0  0  0  0  0
  188.0430  176.2780  141.8230 C   0  0  0  0  0  0  0  0  0  0  0  0
  187.2010  176.5760  140.9360 O   0  0  0  0  0  0  0  0  0  0  0  0
  188.2170  177.1650  143.0230 C   0  0  0  0  0  2  0  0  0  0  0  0
  187.9260  176.4230  144.3290 C   0  0  1  0  0  3  0  0  0  0  0  0
  188.8710  176.6850  145.4450 C   0  0  2  0  0  0  0  0  0  0  0  0
  187.5140  177.4490  145.4020 C   0  0  2  0  0  0  0  0  0  0  0  0
  186.1530  176.7950  145.6990 C   0  0  1  0  0  3  0  0  0  0  0  0
  190.1040  177.5230  145.1230 C   0  0  0  0  0  1  0  0  0  0  0  0
  186.9950  177.2010  146.8310 C   0  0  0  0  0  2  0  0  0  0  0  0
  189.0930  175.3930  146.2430 C   0  0  0  0  0  2  0  0  0  0  0  0
  190.9280  175.4290  147.9020 C   0  0  0  0  0  1  0  0  0  0  0  0
  190.5700  175.1320  146.4610 C   0  0  0  0  0  2  0  0  0  0  0  0
  185.0530  177.8200  145.4840 C   0  0  0  0  0  2  0  0  0  0  0  0
  184.8860  179.8790  144.2880 O   0  0  0  0  0  1  0  0  0  0  0  0
  185.6560  179.1910  145.2270 C   0  0  0  0  0  2  0  0  0  0  0  0
  1  2  1  0  0  0  0
  1  4  1  0  0  0  0
  2 18  1  6  0  0  0
  2  4  1  0  0  0  0
  4  3  1  1  0  0  0
  4 28  1  0  0  0  0
  5 12  1  0  0  0  0
  7 10  2  0  0  0  0
  7 14  1  0  0  0  0
  8  2  1  0  0  0  0
  8  6  1  1  0  0  0
  9 14  1  0  0  0  0
  9  5  2  0  0  0  0
 10 13  1  0  0  0  0
 12  8  1  0  0  0  0
 13 11  2  0  0  0  0
 14 15  2  0  0  0  0
 15 11  1  0  0  0  0
 15  8  1  0  0  0  0
 17 16  1  0  0  0  0
 17  5  1  0  0  0  0
 18 19  1  0  0  0  0
 19 20  1  0  0  0  0
 20 21  1  0  0  0  0
 23 26  1  0  0  0  0
 24 21  1  1  0  0  0
 24 25  1  0  0  0  0
 24 26  1  0  0  0  0
 25 27  1  0  0  0  0
 25 26  1  0  0  0  0
 25 22  1  0  0  0  0
 28 29  1  0  0  0  0
 30 29  1  0  0  0  0
 31 35  1  0  0  0  0
 31 30  1  1  0  0  0
 32 33  2  0  0  0  0
 33 31  1  0  0  0  0
 34 33  1  0  0  0  0
 35 36  1  0  0  0  0
 36 38  1  0  0  0  0
 37 36  2  0  0  0  0
 39 38  1  6  0  0  0
 39 41  1  0  0  0  0
 39 40  1  0  0  0  0
 40 43  1  6  0  0  0
 40 45  1  0  0  0  0
 41 40  1  0  0  0  0
 41 42  1  0  0  0  0
 41 44  1  6  0  0  0
 42 48  1  6  0  0  0
 42 44  1  0  0  0  0
 45 47  1  0  0  0  0
 47 46  1  0  0  0  0
 49 50  1  0  0  0  0
 50 48  1  0  0  0  0
M  END
>  <MODEL>
1

>  <REMARK>
 VINA RESULT:      -6.2      0.000      0.000
  Name = 
  20 active torsions:
  status: ('A' for Active; 'I' for Inactive)
    1  A    between atoms: C_1  and  C_41
    2  A    between atoms: C_2  and  O_20
    3  A    between atoms: C_2  and  C_41
    4  A    between atoms: C_3  and  O_36
    5  A    between atoms: C_4  and  C_21
    6  A    between atoms: C_4  and  C_37
    7  A    between atoms: C_5  and  C_24
    8  A    between atoms: C_11  and  C_25
    9  A    between atoms: C_14  and  C_26
   10  A    between atoms: C_14  and  C_46
   11  A    between atoms: C_18  and  C_23
   12  A    between atoms: C_18  and  C_32
   13  A    between atoms: C_19  and  C_23
   14  A    between atoms: C_19  and  C_44
   15  A    between atoms: O_20  and  C_26
   16  A    between atoms: C_24  and  C_27
   17  A    between atoms: C_25  and  C_44
   18  A    between atoms: C_26  and  C_29
   19  A    between atoms: C_30  and  C_34
   20  A    between atoms: C_30  and  C_46
                            x       y       z     vdW  Elec       q    Type
                         _______ _______ _______ _____ _____    ______ ____

>  <TORSDO>
F 20

$$$$
=
 OpenBabel11062419203D

 50 55  0  0  1  0  0  0  0  0999 V2000
  190.7290  175.0840  146.0880 O   0  0  0  0  0  0  0  0  0  0  0  0
  190.9640  176.1240  145.1570 C   0  0  1  0  0  0  0  0  0  0  0  0
  191.8390  176.6190  147.4120 O   0  0  0  0  0  1  0  0  0  0  0  0
  191.9180  175.8160  146.2700 C   0  0  1  0  0  0  0  0  0  0  0  0
  189.2960  176.5490  142.3790 C   0  0  0  0  0  0  0  0  0  0  0  0
  192.6800  175.6110  143.5370 O   0  0  0  0  0  1  0  0  0  0  0  0
  188.8330  172.9520  142.5910 C   0  0  0  0  0  3  0  0  0  0  0  0
  191.2930  175.6550  143.6970 C   0  0  2  0  0  0  0  0  0  0  0  0
  188.7180  175.3870  142.4300 N   0  0  0  0  0  0  0  0  0  0  0  0
  189.5280  171.7860  142.9140 C   0  0  0  0  0  3  0  0  0  0  0  0
  191.3920  173.1070  143.7000 C   0  0  0  0  0  3  0  0  0  0  0  0
  190.7750  176.6790  142.6650 C   0  0  0  0  0  2  0  0  0  0  0  0
  190.8080  171.8630  143.4610 C   0  0  0  0  0  3  0  0  0  0  0  0
  189.4180  174.2000  142.8150 C   0  0  0  0  0  0  0  0  0  0  0  0
  190.7050  174.2880  143.3820 C   0  0  0  0  0  0  0  0  0  0  0  0
  187.5460  177.6110  141.0030 C   0  0  0  0  0  1  0  0  0  0  0  0
  188.5390  177.6630  142.0150 O   0  0  0  0  0  0  0  0  0  0  0  0
  190.0700  177.3490  145.3990 C   0  0  0  0  0  2  0  0  0  0  0  0
  188.9450  177.0360  146.3680 C   0  0  0  0  0  2  0  0  0  0  0  0
  187.9280  176.1570  145.6750 C   0  0  0  0  0  2  0  0  0  0  0  0
  186.9150  177.0050  144.9300 C   0  0  0  0  0  2  0  0  0  0  0  0
  185.2850  179.1340  143.9140 C   0  0  0  0  0  1  0  0  0  0  0  0
  185.8170  179.1350  147.6270 C   0  0  0  0  0  1  0  0  0  0  0  0
  185.8640  177.5580  145.8900 C   0  0  2  0  0  3  0  0  0  0  0  0
  185.0550  178.6550  145.3410 C   0  0  0  0  0  0  0  0  0  0  0  0
  186.2050  178.9570  146.2330 N   0  0  0  0  0  0  0  0  0  0  0  0
  183.6500  178.8120  145.9210 C   0  0  0  0  0  1  0  0  0  0  0  0
  193.1430  174.9120  146.1110 C   0  0  0  0  0  2  0  0  0  0  0  0
  194.4530  175.6540  146.3740 C   0  0  0  0  0  2  0  0  0  0  0  0
  195.5070  175.3020  145.3350 C   0  0  0  0  0  2  0  0  0  0  0  0
  195.5750  173.7990  145.1100 C   0  0  2  0  0  3  0  0  0  0  0  0
  197.9380  173.9350  145.3660 O   0  0  0  0  0  0  0  0  0  0  0  0
  196.8950  173.2580  145.5520 C   0  0  0  0  0  0  0  0  0  0  0  0
  196.9730  172.0080  146.1520 O   0  0  0  0  0  1  0  0  0  0  0  0
  195.3670  173.5230  143.7290 O   0  0  0  0  0  0  0  0  0  0  0  0
  194.7390  172.3620  143.2680 C   0  0  0  0  0  0  0  0  0  0  0  0
  194.4380  171.4640  144.0990 O   0  0  0  0  0  0  0  0  0  0  0  0
  194.4980  172.1400  141.8020 C   0  0  0  0  0  2  0  0  0  0  0  0
  194.2100  173.4490  141.0650 C   0  0  1  0  0  3  0  0  0  0  0  0
  195.0220  173.6960  139.8450 C   0  0  2  0  0  0  0  0  0  0  0  0
  193.5810  173.1220  139.6980 C   0  0  2  0  0  0  0  0  0  0  0  0
  192.3020  173.9440  139.9370 C   0  0  1  0  0  3  0  0  0  0  0  0
  196.1500  172.7120  139.5560 C   0  0  0  0  0  1  0  0  0  0  0  0
  192.9900  174.0830  138.6480 C   0  0  0  0  0  2  0  0  0  0  0  0
  195.3540  175.1910  139.7450 C   0  0  0  0  0  2  0  0  0  0  0  0
  196.0910  176.6080  141.6350 C   0  0  0  0  0  1  0  0  0  0  0  0
  196.5230  175.5520  140.6390 C   0  0  0  0  0  2  0  0  0  0  0  0
  191.0930  173.0390  139.7790 C   0  0  0  0  0  2  0  0  0  0  0  0
  190.8180  170.6680  139.8120 O   0  0  0  0  0  1  0  0  0  0  0  0
  191.5110  171.7040  139.1840 C   0  0  0  0  0  2  0  0  0  0  0  0
  1  4  1  0  0  0  0
  2 18  1  1  0  0  0
  2  1  1  0  0  0  0
  2  4  1  0  0  0  0
  4  3  1  1  0  0  0
  5  9  2  0  0  0  0
  5 12  1  0  0  0  0
  7 14  2  0  0  0  0
  7 10  1  0  0  0  0
  8  6  1  6  0  0  0
  8  2  1  0  0  0  0
  9 14  1  0  0  0  0
 10 13  2  0  0  0  0
 12  8  1  0  0  0  0
 13 11  1  0  0  0  0
 14 15  1  0  0  0  0
 15  8  1  0  0  0  0
 15 11  2  0  0  0  0
 16 17  1  0  0  0  0
 17  5  1  0  0  0  0
 18 19  1  0  0  0  0
 20 19  1  0  0  0  0
 21 20  1  0  0  0  0
 22 25  1  0  0  0  0
 24 21  1  6  0  0  0
 24 26  1  0  0  0  0
 25 24  1  0  0  0  0
 25 27  1  0  0  0  0
 25 26  1  0  0  0  0
 26 23  1  0  0  0  0
 28  4  1  0  0  0  0
 28 29  1  0  0  0  0
 30 29  1  0  0  0  0
 31 30  1  6  0  0  0
 31 33  1  0  0  0  0
 32 33  2  0  0  0  0
 33 34  1  0  0  0  0
 35 31  1  0  0  0  0
 36 35  1  0  0  0  0
 36 37  2  0  0  0  0
 38 36  1  0  0  0  0
 39 38  1  1  0  0  0
 40 43  1  6  0  0  0
 40 39  1  0  0  0  0
 41 44  1  6  0  0  0
 41 40  1  0  0  0  0
 41 42  1  0  0  0  0
 41 39  1  0  0  0  0
 42 48  1  6  0  0  0
 44 42  1  0  0  0  0
 45 40  1  0  0  0  0
 45 47  1  0  0  0  0
 47 46  1  0  0  0  0
 50 48  1  0  0  0  0
 50 49  1  0  0  0  0
M  END
>  <MODEL>
2

>  <REMARK>
 VINA RESULT:      -5.9      2.759      8.367
  Name = 
  20 active torsions:
  status: ('A' for Active; 'I' for Inactive)
    1  A    between atoms: C_1  and  C_41
    2  A    between atoms: C_2  and  O_20
    3  A    between atoms: C_2  and  C_41
    4  A    between atoms: C_3  and  O_36
    5  A    between atoms: C_4  and  C_21
    6  A    between atoms: C_4  and  C_37
    7  A    between atoms: C_5  and  C_24
    8  A    between atoms: C_11  and  C_25
    9  A    between atoms: C_14  and  C_26
   10  A    between atoms: C_14  and  C_46
   11  A    between atoms: C_18  and  C_23
   12  A    between atoms: C_18  and  C_32
   13  A    between atoms: C_19  and  C_23
   14  A    between atoms: C_19  and  C_44
   15  A    between atoms: O_20  and  C_26
   16  A    between atoms: C_24  and  C_27
   17  A    between atoms: C_25  and  C_44
   18  A    between atoms: C_26  and  C_29
   19  A    between atoms: C_30  and  C_34
   20  A    between atoms: C_30  and  C_46
                            x       y       z     vdW  Elec       q    Type
                         _______ _______ _______ _____ _____    ______ ____

>  <TORSDO>
F 20

$$$$
=
 OpenBabel11062419203D

 50 55  0  0  1  0  0  0  0  0999 V2000
  191.4520  175.0100  142.6850 O   0  0  0  0  0  0  0  0  0  0  0  0
  190.1940  174.9030  143.3250 C   0  0  1  0  0  0  0  0  0  0  0  0
  190.1800  174.0600  141.0050 O   0  0  0  0  0  1  0  0  0  0  0  0
  190.6620  173.9070  142.3090 C   0  0  1  0  0  0  0  0  0  0  0  0
  189.2500  176.6300  145.9350 C   0  0  0  0  0  0  0  0  0  0  0  0
  190.1150  173.1600  144.9950 O   0  0  0  0  0  1  0  0  0  0  0  0
  192.8120  176.7360  146.6380 C   0  0  0  0  0  3  0  0  0  0  0  0
  190.2480  174.5430  144.8510 C   0  0  2  0  0  0  0  0  0  0  0  0
  190.4380  177.0910  146.1850 N   0  0  0  0  0  0  0  0  0  0  0  0
  193.9490  175.9280  146.6060 C   0  0  0  0  0  3  0  0  0  0  0  0
  192.6930  174.1960  145.4850 C   0  0  0  0  0  3  0  0  0  0  0  0
  189.0530  175.1680  145.6020 C   0  0  0  0  0  2  0  0  0  0  0  0
  193.8880  174.6570  146.0370 C   0  0  0  0  0  3  0  0  0  0  0  0
  191.6100  176.2750  146.0990 C   0  0  0  0  0  0  0  0  0  0  0  0
  191.5420  174.9980  145.5080 C   0  0  0  0  0  0  0  0  0  0  0  0
  187.3340  177.5700  147.1720 C   0  0  0  0  0  1  0  0  0  0  0  0
  188.1590  177.4950  146.0200 O   0  0  0  0  0  0  0  0  0  0  0  0
  189.1740  175.9240  142.8010 C   0  0  0  0  0  2  0  0  0  0  0  0
  189.8290  177.2550  142.4810 C   0  0  0  0  0  2  0  0  0  0  0  0
  188.7760  178.2110  141.9650 C   0  0  0  0  0  2  0  0  0  0  0  0
  187.6500  178.3520  142.9710 C   0  0  0  0  0  2  0  0  0  0  0  0
  185.4910  176.6410  143.7670 C   0  0  0  0  0  1  0  0  0  0  0  0
  185.3350  177.9070  140.2390 C   0  0  0  0  0  1  0  0  0  0  0  0
  186.3180  178.5830  142.2600 C   0  0  2  0  0  3  0  0  0  0  0  0
  185.2370  177.6810  142.6840 C   0  0  0  0  0  0  0  0  0  0  0  0
  185.9930  177.3970  141.4360 N   0  0  0  0  0  0  0  0  0  0  0  0
  183.8140  178.2210  142.5420 C   0  0  0  0  0  1  0  0  0  0  0  0
  191.3570  172.5920  142.6680 C   0  0  0  0  0  2  0  0  0  0  0  0
  192.8490  172.6110  142.3370 C   0  0  0  0  0  2  0  0  0  0  0  0
  193.0970  172.2660  140.8760 C   0  0  0  0  0  2  0  0  0  0  0  0
  193.4960  170.8070  140.7170 C   0  0  2  0  0  3  0  0  0  0  0  0
  192.2500  168.8010  141.0210 O   0  0  0  0  0  1  0  0  0  0  0  0
  192.2910  169.9500  140.5090 C   0  0  0  0  0  0  0  0  0  0  0  0
  191.2280  170.4110  139.7440 O   0  0  0  0  0  0  0  0  0  0  0  0
  194.2060  170.3870  141.8770 O   0  0  0  0  0  0  0  0  0  0  0  0
  195.5560  170.0250  141.8570 C   0  0  0  0  0  0  0  0  0  0  0  0
  195.8630  168.8410  141.5570 O   0  0  0  0  0  0  0  0  0  0  0  0
  196.6270  170.9980  142.2640 C   0  0  0  0  0  2  0  0  0  0  0  0
  196.2070  171.8360  143.4730 C   0  0  1  0  0  3  0  0  0  0  0  0
  196.9600  171.5810  144.7280 C   0  0  2  0  0  0  0  0  0  0  0  0
  197.3570  172.7950  143.8350 C   0  0  2  0  0  0  0  0  0  0  0  0
  196.5130  174.0750  143.7050 C   0  0  1  0  0  3  0  0  0  0  0  0
  197.9410  170.4140  144.7190 C   0  0  0  0  0  1  0  0  0  0  0  0
  197.3810  173.9280  144.8790 C   0  0  0  0  0  2  0  0  0  0  0  0
  196.0080  171.6850  145.9270 C   0  0  0  0  0  2  0  0  0  0  0  0
  194.7050  169.5840  145.8050 C   0  0  0  0  0  1  0  0  0  0  0  0
  194.6540  171.0840  145.6030 C   0  0  0  0  0  2  0  0  0  0  0  0
  197.1690  175.0000  142.6940 C   0  0  0  0  0  2  0  0  0  0  0  0
  195.0340  176.0230  143.0000 O   0  0  0  0  0  1  0  0  0  0  0  0
  196.1580  176.0080  142.1730 C   0  0  0  0  0  2  0  0  0  0  0  0
  1  2  1  0  0  0  0
  2 18  1  6  0  0  0
  2  8  1  0  0  0  0
  4  3  1  6  0  0  0
  4 28  1  0  0  0  0
  4  1  1  0  0  0  0
  4  2  1  0  0  0  0
  5 17  1  0  0  0  0
  5  9  2  0  0  0  0
  8  6  1  1  0  0  0
  8 15  1  0  0  0  0
  8 12  1  0  0  0  0
 10  7  1  0  0  0  0
 11 15  2  0  0  0  0
 11 13  1  0  0  0  0
 12  5  1  0  0  0  0
 13 10  2  0  0  0  0
 14  9  1  0  0  0  0
 14  7  2  0  0  0  0
 15 14  1  0  0  0  0
 17 16  1  0  0  0  0
 19 18  1  0  0  0  0
 20 19  1  0  0  0  0
 20 21  1  0  0  0  0
 23 26  1  0  0  0  0
 24 25  1  0  0  0  0
 24 21  1  1  0  0  0
 25 22  1  0  0  0  0
 26 24  1  0  0  0  0
 26 25  1  0  0  0  0
 27 25  1  0  0  0  0
 29 28  1  0  0  0  0
 30 29  1  0  0  0  0
 31 30  1  1  0  0  0
 31 35  1  0  0  0  0
 33 31  1  0  0  0  0
 33 32  1  0  0  0  0
 34 33  2  0  0  0  0
 36 35  1  0  0  0  0
 36 38  1  0  0  0  0
 37 36  2  0  0  0  0
 39 38  1  6  0  0  0
 39 41  1  0  0  0  0
 39 40  1  0  0  0  0
 40 43  1  6  0  0  0
 40 45  1  0  0  0  0
 41 40  1  0  0  0  0
 41 44  1  6  0  0  0
 42 48  1  6  0  0  0
 42 41  1  0  0  0  0
 42 44  1  0  0  0  0
 47 46  1  0  0  0  0
 47 45  1  0  0  0  0
 50 48  1  0  0  0  0
 50 49  1  0  0  0  0
M  END
>  <MODEL>
3

>  <REMARK>
 VINA RESULT:      -5.8      2.755      8.745
  Name = 
  20 active torsions:
  status: ('A' for Active; 'I' for Inactive)
    1  A    between atoms: C_1  and  C_41
    2  A    between atoms: C_2  and  O_20
    3  A    between atoms: C_2  and  C_41
    4  A    between atoms: C_3  and  O_36
    5  A    between atoms: C_4  and  C_21
    6  A    between atoms: C_4  and  C_37
    7  A    between atoms: C_5  and  C_24
    8  A    between atoms: C_11  and  C_25
    9  A    between atoms: C_14  and  C_26
   10  A    between atoms: C_14  and  C_46
   11  A    between atoms: C_18  and  C_23
   12  A    between atoms: C_18  and  C_32
   13  A    between atoms: C_19  and  C_23
   14  A    between atoms: C_19  and  C_44
   15  A    between atoms: O_20  and  C_26
   16  A    between atoms: C_24  and  C_27
   17  A    between atoms: C_25  and  C_44
   18  A    between atoms: C_26  and  C_29
   19  A    between atoms: C_30  and  C_34
   20  A    between atoms: C_30  and  C_46
                            x       y       z     vdW  Elec       q    Type
                         _______ _______ _______ _____ _____    ______ ____

>  <TORSDO>
F 20

$$$$
=
 OpenBabel11062419203D

 50 55  0  0  1  0  0  0  0  0999 V2000
  192.6720  173.7430  142.2420 O   0  0  0  0  0  0  0  0  0  0  0  0
  192.5530  172.3320  142.2190 C   0  0  1  0  0  0  0  0  0  0  0  0
  194.5290  173.1230  143.4710 O   0  0  0  0  0  1  0  0  0  0  0  0
  193.1340  173.0680  143.3880 C   0  0  1  0  0  0  0  0  0  0  0  0
  190.8140  170.6500  140.0230 C   0  0  0  0  0  0  0  0  0  0  0  0
  190.7850  171.4800  143.6260 O   0  0  0  0  0  1  0  0  0  0  0  0
  188.8320  173.6910  139.8770 C   0  0  0  0  0  3  0  0  0  0  0  0
  191.0860  171.7830  142.2960 C   0  0  2  0  0  0  0  0  0  0  0  0
  190.2060  171.6980  139.5530 N   0  0  0  0  0  0  0  0  0  0  0  0
  188.2970  174.6790  140.7050 C   0  0  0  0  0  3  0  0  0  0  0  0
  189.5210  173.7750  142.5810 C   0  0  0  0  0  3  0  0  0  0  0  0
  190.9580  170.4580  141.5150 C   0  0  0  0  0  2  0  0  0  0  0  0
  188.6360  174.7170  142.0560 C   0  0  0  0  0  3  0  0  0  0  0  0
  189.7070  172.7370  140.3990 C   0  0  0  0  0  0  0  0  0  0  0  0
  190.0670  172.7770  141.7610 C   0  0  0  0  0  0  0  0  0  0  0  0
  192.0240  170.0310  137.9640 C   0  0  0  0  0  1  0  0  0  0  0  0
  191.2910  169.6900  139.1300 O   0  0  0  0  0  0  0  0  0  0  0  0
  193.5890  171.6660  141.3030 C   0  0  0  0  0  2  0  0  0  0  0  0
  193.8550  172.4980  140.0620 C   0  0  0  0  0  2  0  0  0  0  0  0
  195.1560  172.0470  139.4360 C   0  0  0  0  0  2  0  0  0  0  0  0
  195.1740  172.3760  137.9550 C   0  0  0  0  0  2  0  0  0  0  0  0
  193.1970  173.2600  136.0770 C   0  0  0  0  0  1  0  0  0  0  0  0
  196.2050  175.4740  136.4210 C   0  0  0  0  0  1  0  0  0  0  0  0
  195.0880  173.8850  137.7370 C   0  0  2  0  0  3  0  0  0  0  0  0
  194.0720  174.3020  136.7600 C   0  0  0  0  0  0  0  0  0  0  0  0
  195.4980  174.2010  136.3500 N   0  0  0  0  0  0  0  0  0  0  0  0
  193.4890  175.7020  136.9500 C   0  0  0  0  0  1  0  0  0  0  0  0
  192.3240  173.4740  144.6220 C   0  0  0  0  0  2  0  0  0  0  0  0
  193.2060  174.0140  145.7470 C   0  0  0  0  0  2  0  0  0  0  0  0
  192.9470  175.4930  145.9940 C   0  0  0  0  0  2  0  0  0  0  0  0
  193.3920  176.3330  144.8070 C   0  0  2  0  0  3  0  0  0  0  0  0
  195.0030  177.8340  145.7110 O   0  0  0  0  0  1  0  0  0  0  0  0
  194.7900  176.8190  144.9980 C   0  0  0  0  0  0  0  0  0  0  0  0
  195.8490  176.1650  144.3830 O   0  0  0  0  0  0  0  0  0  0  0  0
  192.5030  177.4350  144.6540 O   0  0  0  0  0  0  0  0  0  0  0  0
  191.3700  177.3960  143.8360 C   0  0  0  0  0  0  0  0  0  0  0  0
  191.4390  176.7900  142.7340 O   0  0  0  0  0  0  0  0  0  0  0  0
  190.1140  178.1280  144.2140 C   0  0  0  0  0  2  0  0  0  0  0  0
  188.9570  177.1680  144.5000 C   0  0  1  0  0  3  0  0  0  0  0  0
  188.4010  177.2180  145.8770 C   0  0  2  0  0  0  0  0  0  0  0  0
  187.6760  177.9900  144.7350 C   0  0  2  0  0  0  0  0  0  0  0  0
  186.8690  177.3070  143.6160 C   0  0  1  0  0  3  0  0  0  0  0  0
  189.1400  178.0880  146.8880 C   0  0  0  0  0  1  0  0  0  0  0  0
  186.2280  177.4970  144.9230 C   0  0  0  0  0  2  0  0  0  0  0  0
  188.0130  175.8030  146.3250 C   0  0  0  0  0  2  0  0  0  0  0  0
  189.8420  174.6770  147.5540 C   0  0  0  0  0  1  0  0  0  0  0  0
  189.1850  174.8490  146.2010 C   0  0  0  0  0  2  0  0  0  0  0  0
  186.3760  178.3640  142.6440 C   0  0  0  0  0  2  0  0  0  0  0  0
  185.1810  178.4910  140.5810 O   0  0  0  0  0  1  0  0  0  0  0  0
  186.1380  177.7480  141.2750 C   0  0  0  0  0  2  0  0  0  0  0  0
  1  4  1  0  0  0  0
  2 18  1  6  0  0  0
  2  1  1  0  0  0  0
  2  8  1  0  0  0  0
  2  4  1  0  0  0  0
  4  3  1  1  0  0  0
  4 28  1  0  0  0  0
  5 12  1  0  0  0  0
  7 14  2  0  0  0  0
  7 10  1  0  0  0  0
  8  6  1  1  0  0  0
  9  5  2  0  0  0  0
  9 14  1  0  0  0  0
 10 13  2  0  0  0  0
 12  8  1  0  0  0  0
 13 11  1  0  0  0  0
 14 15  1  0  0  0  0
 15  8  1  0  0  0  0
 15 11  2  0  0  0  0
 16 17  1  0  0  0  0
 17  5  1  0  0  0  0
 19 18  1  0  0  0  0
 20 19  1  0  0  0  0
 21 20  1  0  0  0  0
 22 25  1  0  0  0  0
 24 21  1  6  0  0  0
 25 27  1  0  0  0  0
 25 24  1  0  0  0  0
 26 23  1  0  0  0  0
 26 25  1  0  0  0  0
 26 24  1  0  0  0  0
 28 29  1  0  0  0  0
 29 30  1  0  0  0  0
 31 33  1  0  0  0  0
 31 30  1  1  0  0  0
 33 32  1  0  0  0  0
 34 33  2  0  0  0  0
 35 31  1  0  0  0  0
 36 38  1  0  0  0  0
 36 35  1  0  0  0  0
 37 36  2  0  0  0  0
 39 38  1  1  0  0  0
 39 41  1  0  0  0  0
 39 40  1  0  0  0  0
 40 45  1  0  0  0  0
 40 43  1  1  0  0  0
 41 44  1  6  0  0  0
 41 40  1  0  0  0  0
 42 48  1  6  0  0  0
 42 41  1  0  0  0  0
 42 44  1  0  0  0  0
 47 45  1  0  0  0  0
 47 46  1  0  0  0  0
 49 50  1  0  0  0  0
 50 48  1  0  0  0  0
M  END
>  <MODEL>
4

>  <REMARK>
 VINA RESULT:      -5.7      2.487      5.324
  Name = 
  20 active torsions:
  status: ('A' for Active; 'I' for Inactive)
    1  A    between atoms: C_1  and  C_41
    2  A    between atoms: C_2  and  O_20
    3  A    between atoms: C_2  and  C_41
    4  A    between atoms: C_3  and  O_36
    5  A    between atoms: C_4  and  C_21
    6  A    between atoms: C_4  and  C_37
    7  A    between atoms: C_5  and  C_24
    8  A    between atoms: C_11  and  C_25
    9  A    between atoms: C_14  and  C_26
   10  A    between atoms: C_14  and  C_46
   11  A    between atoms: C_18  and  C_23
   12  A    between atoms: C_18  and  C_32
   13  A    between atoms: C_19  and  C_23
   14  A    between atoms: C_19  and  C_44
   15  A    between atoms: O_20  and  C_26
   16  A    between atoms: C_24  and  C_27
   17  A    between atoms: C_25  and  C_44
   18  A    between atoms: C_26  and  C_29
   19  A    between atoms: C_30  and  C_34
   20  A    between atoms: C_30  and  C_46
                            x       y       z     vdW  Elec       q    Type
                         _______ _______ _______ _____ _____    ______ ____

>  <TORSDO>
F 20

$$$$
=
 OpenBabel11062419203D

 50 55  0  0  1  0  0  0  0  0999 V2000
  189.6000  175.6030  142.3560 O   0  0  0  0  0  0  0  0  0  0  0  0
  190.2530  174.6130  143.1300 C   0  0  1  0  0  0  0  0  0  0  0  0
  188.0360  173.9010  142.3090 O   0  0  0  0  0  1  0  0  0  0  0  0
  189.3470  174.2670  141.9880 C   0  0  1  0  0  0  0  0  0  0  0  0
  192.3690  172.2830  144.0100 C   0  0  0  0  0  0  0  0  0  0  0  0
  192.1600  175.2230  141.7780 O   0  0  0  0  0  1  0  0  0  0  0  0
  193.5660  174.8200  146.3190 C   0  0  0  0  0  3  0  0  0  0  0  0
  191.8090  174.5350  142.9410 C   0  0  2  0  0  0  0  0  0  0  0  0
  192.7130  172.8730  145.1160 N   0  0  0  0  0  0  0  0  0  0  0  0
  193.8390  176.1870  146.3830 C   0  0  0  0  0  3  0  0  0  0  0  0
  192.8480  176.4930  144.2020 C   0  0  0  0  0  3  0  0  0  0  0  0
  192.2590  173.0740  142.7270 C   0  0  0  0  0  2  0  0  0  0  0  0
  193.4870  177.0210  145.3230 C   0  0  0  0  0  3  0  0  0  0  0  0
  192.9390  174.2830  145.1930 C   0  0  0  0  0  0  0  0  0  0  0  0
  192.5650  175.1200  144.1230 C   0  0  0  0  0  0  0  0  0  0  0  0
  193.0060  169.9900  143.3640 C   0  0  0  0  0  1  0  0  0  0  0  0
  192.1460  170.9060  144.0220 O   0  0  0  0  0  0  0  0  0  0  0  0
  189.6270  174.4410  144.5200 C   0  0  0  0  0  2  0  0  0  0  0  0
  189.2590  175.7780  145.1380 C   0  0  0  0  0  2  0  0  0  0  0  0
  188.6700  175.5410  146.5110 C   0  0  0  0  0  2  0  0  0  0  0  0
  187.4710  176.4430  146.7360 C   0  0  0  0  0  2  0  0  0  0  0  0
  185.1490  178.1180  146.8730 C   0  0  0  0  0  1  0  0  0  0  0  0
  185.9390  176.7230  143.4820 C   0  0  0  0  0  1  0  0  0  0  0  0
  187.1150  177.1960  145.4560 C   0  0  2  0  0  3  0  0  0  0  0  0
  185.9130  178.0360  145.5590 C   0  0  0  0  0  0  0  0  0  0  0  0
  185.8260  176.6890  144.9350 N   0  0  0  0  0  0  0  0  0  0  0  0
  185.8580  179.2490  144.6310 C   0  0  0  0  0  1  0  0  0  0  0  0
  189.8430  173.9910  140.5660 C   0  0  0  0  0  2  0  0  0  0  0  0
  189.9350  172.4960  140.2600 C   0  0  0  0  0  2  0  0  0  0  0  0
  190.1400  172.2460  138.7740 C   0  0  0  0  0  2  0  0  0  0  0  0
  191.5830  171.8710  138.4750 C   0  0  2  0  0  3  0  0  0  0  0  0
  191.1180  169.5820  138.9340 O   0  0  0  0  0  0  0  0  0  0  0  0
  191.9180  170.5430  139.0700 C   0  0  0  0  0  0  0  0  0  0  0  0
  193.0990  170.3730  139.7810 O   0  0  0  0  0  1  0  0  0  0  0  0
  192.4460  172.8770  138.9970 O   0  0  0  0  0  0  0  0  0  0  0  0
  192.8090  174.0200  138.2790 C   0  0  0  0  0  0  0  0  0  0  0  0
  192.2390  174.2530  137.1800 O   0  0  0  0  0  0  0  0  0  0  0  0
  193.9140  174.9180  138.7570 C   0  0  0  0  0  2  0  0  0  0  0  0
  195.1110  174.1220  139.2810 C   0  0  1  0  0  3  0  0  0  0  0  0
  196.3950  174.3420  138.5670 C   0  0  2  0  0  0  0  0  0  0  0  0
  196.1260  175.1010  139.9000 C   0  0  2  0  0  0  0  0  0  0  0  0
  196.1340  174.4300  141.2850 C   0  0  1  0  0  3  0  0  0  0  0  0
  196.3460  175.1980  137.3060 C   0  0  0  0  0  1  0  0  0  0  0  0
  197.4200  174.7920  140.6770 C   0  0  0  0  0  2  0  0  0  0  0  0
  197.1690  173.0190  138.4840 C   0  0  0  0  0  2  0  0  0  0  0  0
  196.7260  170.7590  139.3880 C   0  0  0  0  0  1  0  0  0  0  0  0
  196.2240  171.8340  138.4480 C   0  0  0  0  0  2  0  0  0  0  0  0
  195.7560  175.4580  142.3370 C   0  0  0  0  0  2  0  0  0  0  0  0
  196.1020  173.6750  143.8860 O   0  0  0  0  0  1  0  0  0  0  0  0
  196.2980  175.0440  143.6950 C   0  0  0  0  0  2  0  0  0  0  0  0
  1  2  1  0  0  0  0
  2 18  1  1  0  0  0
  4  3  1  1  0  0  0
  4  1  1  0  0  0  0
  4  2  1  0  0  0  0
  5 17  1  0  0  0  0
  5  9  2  0  0  0  0
  7 10  1  0  0  0  0
  8  6  1  6  0  0  0
  8  2  1  0  0  0  0
  8 15  1  0  0  0  0
  9 14  1  0  0  0  0
 11 13  1  0  0  0  0
 12  8  1  0  0  0  0
 12  5  1  0  0  0  0
 13 10  2  0  0  0  0
 14  7  2  0  0  0  0
 15 11  2  0  0  0  0
 15 14  1  0  0  0  0
 16 17  1  0  0  0  0
 18 19  1  0  0  0  0
 19 20  1  0  0  0  0
 20 21  1  0  0  0  0
 23 26  1  0  0  0  0
 24 25  1  0  0  0  0
 24 21  1  1  0  0  0
 25 22  1  0  0  0  0
 26 24  1  0  0  0  0
 26 25  1  0  0  0  0
 27 25  1  0  0  0  0
 28  4  1  0  0  0  0
 29 28  1  0  0  0  0
 30 29  1  0  0  0  0
 31 30  1  1  0  0  0
 31 35  1  0  0  0  0
 31 33  1  0  0  0  0
 32 33  2  0  0  0  0
 33 34  1  0  0  0  0
 36 38  1  0  0  0  0
 36 35  1  0  0  0  0
 37 36  2  0  0  0  0
 39 38  1  6  0  0  0
 39 41  1  0  0  0  0
 40 43  1  6  0  0  0
 40 39  1  0  0  0  0
 40 41  1  0  0  0  0
 41 44  1  6  0  0  0
 41 42  1  0  0  0  0
 42 48  1  1  0  0  0
 44 42  1  0  0  0  0
 45 40  1  0  0  0  0
 47 45  1  0  0  0  0
 47 46  1  0  0  0  0
 48 50  1  0  0  0  0
 50 49  1  0  0  0  0
M  END
>  <MODEL>
5

>  <REMARK>
 VINA RESULT:      -5.5      2.437      8.116
  Name = 
  20 active torsions:
  status: ('A' for Active; 'I' for Inactive)
    1  A    between atoms: C_1  and  C_41
    2  A    between atoms: C_2  and  O_20
    3  A    between atoms: C_2  and  C_41
    4  A    between atoms: C_3  and  O_36
    5  A    between atoms: C_4  and  C_21
    6  A    between atoms: C_4  and  C_37
    7  A    between atoms: C_5  and  C_24
    8  A    between atoms: C_11  and  C_25
    9  A    between atoms: C_14  and  C_26
   10  A    between atoms: C_14  and  C_46
   11  A    between atoms: C_18  and  C_23
   12  A    between atoms: C_18  and  C_32
   13  A    between atoms: C_19  and  C_23
   14  A    between atoms: C_19  and  C_44
   15  A    between atoms: O_20  and  C_26
   16  A    between atoms: C_24  and  C_27
   17  A    between atoms: C_25  and  C_44
   18  A    between atoms: C_26  and  C_29
   19  A    between atoms: C_30  and  C_34
   20  A    between atoms: C_30  and  C_46
                            x       y       z     vdW  Elec       q    Type
                         _______ _______ _______ _____ _____    ______ ____

>  <TORSDO>
F 20

$$$$
=
 OpenBabel11062419203D

 50 55  0  0  1  0  0  0  0  0999 V2000
  186.5220  175.6440  143.0350 O   0  0  0  0  0  0  0  0  0  0  0  0
  186.9640  176.6910  143.8790 C   0  0  1  0  0  0  0  0  0  0  0  0
  188.5070  174.7640  143.8280 O   0  0  0  0  0  1  0  0  0  0  0  0
  187.9170  175.8170  143.1220 C   0  0  1  0  0  0  0  0  0  0  0  0
  184.8330  178.9140  144.9720 C   0  0  0  0  0  0  0  0  0  0  0  0
  187.8250  178.6800  142.8120 O   0  0  0  0  0  1  0  0  0  0  0  0
  183.1790  178.2830  141.7990 C   0  0  0  0  0  3  0  0  0  0  0  0
  186.6600  178.1410  143.3630 C   0  0  2  0  0  0  0  0  0  0  0  0
  183.9140  178.6060  144.1060 N   0  0  0  0  0  0  0  0  0  0  0  0
  183.4650  178.0720  140.4500 C   0  0  0  0  0  3  0  0  0  0  0  0
  185.8230  177.9540  140.9610 C   0  0  0  0  0  3  0  0  0  0  0  0
  186.2720  179.0670  144.5350 C   0  0  0  0  0  2  0  0  0  0  0  0
  184.7850  177.9160  140.0300 C   0  0  0  0  0  3  0  0  0  0  0  0
  184.2150  178.3360  142.7340 C   0  0  0  0  0  0  0  0  0  0  0  0
  185.5510  178.1640  142.3220 C   0  0  0  0  0  0  0  0  0  0  0  0
  185.2490  178.7080  147.3940 C   0  0  0  0  0  1  0  0  0  0  0  0
  184.4610  179.1420  146.2970 O   0  0  0  0  0  0  0  0  0  0  0  0
  186.8260  176.3490  145.3690 C   0  0  0  0  0  2  0  0  0  0  0  0
  188.1270  176.5770  146.1170 C   0  0  0  0  0  2  0  0  0  0  0  0
  188.2500  175.5440  147.2160 C   0  0  0  0  0  2  0  0  0  0  0  0
  189.6540  174.9720  147.2510 C   0  0  0  0  0  2  0  0  0  0  0  0
  191.2720  173.8970  145.1420 C   0  0  0  0  0  1  0  0  0  0  0  0
  192.8120  176.7100  147.0880 C   0  0  0  0  0  1  0  0  0  0  0  0
  190.6470  175.9410  146.6110 C   0  0  2  0  0  3  0  0  0  0  0  0
  191.4670  175.3530  145.5420 C   0  0  0  0  0  0  0  0  0  0  0  0
  192.0260  175.4950  146.9130 N   0  0  0  0  0  0  0  0  0  0  0  0
  191.9700  176.3200  144.4710 C   0  0  0  0  0  1  0  0  0  0  0  0
  188.5050  176.1860  141.7580 C   0  0  0  0  0  2  0  0  0  0  0  0
  188.1390  175.1750  140.6720 C   0  0  0  0  0  2  0  0  0  0  0  0
  188.7530  173.8120  140.9530 C   0  0  0  0  0  2  0  0  0  0  0  0
  190.1870  173.7420  140.4520 C   0  0  2  0  0  3  0  0  0  0  0  0
  189.8110  171.9080  138.9820 O   0  0  0  0  0  1  0  0  0  0  0  0
  190.2480  173.0800  139.1150 C   0  0  0  0  0  0  0  0  0  0  0  0
  190.7960  173.7470  138.0270 O   0  0  0  0  0  0  0  0  0  0  0  0
  190.9780  173.0250  141.3940 O   0  0  0  0  0  0  0  0  0  0  0  0
  192.3700  172.9300  141.3080 C   0  0  0  0  0  0  0  0  0  0  0  0
  192.8850  171.8230  140.9980 O   0  0  0  0  0  0  0  0  0  0  0  0
  193.2500  174.0970  141.6570 C   0  0  0  0  0  2  0  0  0  0  0  0
  194.6090  173.6460  142.1980 C   0  0  1  0  0  3  0  0  0  0  0  0
  195.4220  174.6980  142.8610 C   0  0  2  0  0  0  0  0  0  0  0  0
  194.5810  173.7210  143.7360 C   0  0  2  0  0  0  0  0  0  0  0  0
  194.9380  172.2400  143.9500 C   0  0  1  0  0  3  0  0  0  0  0  0
  194.8940  176.1270  142.7850 C   0  0  0  0  0  1  0  0  0  0  0  0
  195.6430  173.2510  144.7480 C   0  0  0  0  0  2  0  0  0  0  0  0
  196.9050  174.4830  142.5330 C   0  0  0  0  0  2  0  0  0  0  0  0
  197.6530  175.0320  140.2390 C   0  0  0  0  0  1  0  0  0  0  0  0
  197.0820  173.9460  141.1270 C   0  0  0  0  0  2  0  0  0  0  0  0
  193.8560  171.5850  144.7910 C   0  0  0  0  0  2  0  0  0  0  0  0
  193.4080  169.2450  144.9420 O   0  0  0  0  0  1  0  0  0  0  0  0
  193.3240  170.3460  144.0890 C   0  0  0  0  0  2  0  0  0  0  0  0
  1  4  1  0  0  0  0
  1  2  1  0  0  0  0
  2 18  1  1  0  0  0
  4  3  1  1  0  0  0
  4  2  1  0  0  0  0
  5 17  1  0  0  0  0
  7 14  1  0  0  0  0
  8  6  1  6  0  0  0
  8  2  1  0  0  0  0
  8 12  1  0  0  0  0
  9  5  2  0  0  0  0
 10  7  2  0  0  0  0
 11 15  1  0  0  0  0
 12  5  1  0  0  0  0
 13 10  1  0  0  0  0
 13 11  2  0  0  0  0
 14  9  1  0  0  0  0
 15 14  2  0  0  0  0
 15  8  1  0  0  0  0
 17 16  1  0  0  0  0
 18 19  1  0  0  0  0
 19 20  1  0  0  0  0
 20 21  1  0  0  0  0
 22 25  1  0  0  0  0
 24 26  1  0  0  0  0
 24 21  1  1  0  0  0
 25 24  1  0  0  0  0
 25 26  1  0  0  0  0
 26 23  1  0  0  0  0
 27 25  1  0  0  0  0
 28  4  1  0  0  0  0
 29 30  1  0  0  0  0
 29 28  1  0  0  0  0
 31 30  1  1  0  0  0
 31 35  1  0  0  0  0
 32 33  1  0  0  0  0
 33 31  1  0  0  0  0
 34 33  2  0  0  0  0
 36 35  1  0  0  0  0
 36 38  1  0  0  0  0
 37 36  2  0  0  0  0
 39 38  1  6  0  0  0
 39 40  1  0  0  0  0
 39 41  1  0  0  0  0
 40 43  1  6  0  0  0
 40 41  1  0  0  0  0
 41 42  1  0  0  0  0
 41 44  1  1  0  0  0
 42 44  1  0  0  0  0
 42 48  1  1  0  0  0
 45 40  1  0  0  0  0
 46 47  1  0  0  0  0
 47 45  1  0  0  0  0
 50 48  1  0  0  0  0
 50 49  1  0  0  0  0
M  END
>  <MODEL>
6

>  <REMARK>
 VINA RESULT:      -5.5      2.881      8.530
  Name = 
  20 active torsions:
  status: ('A' for Active; 'I' for Inactive)
    1  A    between atoms: C_1  and  C_41
    2  A    between atoms: C_2  and  O_20
    3  A    between atoms: C_2  and  C_41
    4  A    between atoms: C_3  and  O_36
    5  A    between atoms: C_4  and  C_21
    6  A    between atoms: C_4  and  C_37
    7  A    between atoms: C_5  and  C_24
    8  A    between atoms: C_11  and  C_25
    9  A    between atoms: C_14  and  C_26
   10  A    between atoms: C_14  and  C_46
   11  A    between atoms: C_18  and  C_23
   12  A    between atoms: C_18  and  C_32
   13  A    between atoms: C_19  and  C_23
   14  A    between atoms: C_19  and  C_44
   15  A    between atoms: O_20  and  C_26
   16  A    between atoms: C_24  and  C_27
   17  A    between atoms: C_25  and  C_44
   18  A    between atoms: C_26  and  C_29
   19  A    between atoms: C_30  and  C_34
   20  A    between atoms: C_30  and  C_46
                            x       y       z     vdW  Elec       q    Type
                         _______ _______ _______ _____ _____    ______ ____

>  <TORSDO>
F 20

$$$$
=
 OpenBabel11062419203D

 50 55  0  0  1  0  0  0  0  0999 V2000
  190.3700  174.2370  140.8900 O   0  0  0  0  0  0  0  0  0  0  0  0
  191.1780  173.0760  140.8300 C   0  0  1  0  0  0  0  0  0  0  0  0
  192.2890  174.9790  141.9440 O   0  0  0  0  0  1  0  0  0  0  0  0
  191.2510  174.0430  141.9720 C   0  0  1  0  0  0  0  0  0  0  0  0
  192.2000  170.2250  142.0590 C   0  0  0  0  0  0  0  0  0  0  0  0
  189.0580  171.9850  141.2180 O   0  0  0  0  0  1  0  0  0  0  0  0
  191.8260  169.0860  138.6300 C   0  0  0  0  0  3  0  0  0  0  0  0
  190.4130  171.7180  141.0070 C   0  0  2  0  0  0  0  0  0  0  0  0
  192.4790  169.7110  140.8990 N   0  0  0  0  0  0  0  0  0  0  0  0
  190.9680  169.2010  137.5350 C   0  0  0  0  0  3  0  0  0  0  0  0
  189.7130  170.9100  138.6930 C   0  0  0  0  0  3  0  0  0  0  0  0
  190.9050  170.9760  142.2680 C   0  0  0  0  0  2  0  0  0  0  0  0
  189.9090  170.1070  137.5690 C   0  0  0  0  0  3  0  0  0  0  0  0
  191.6260  169.8760  139.7630 C   0  0  0  0  0  0  0  0  0  0  0  0
  190.5680  170.8050  139.8010 C   0  0  0  0  0  0  0  0  0  0  0  0
  193.1800  168.8150  143.8290 C   0  0  0  0  0  1  0  0  0  0  0  0
  193.0940  170.0370  143.1130 O   0  0  0  0  0  0  0  0  0  0  0  0
  192.3190  173.2010  139.8110 C   0  0  0  0  0  2  0  0  0  0  0  0
  193.6370  172.7150  140.3840 C   0  0  0  0  0  2  0  0  0  0  0  0
  194.7270  173.6970  140.0160 C   0  0  0  0  0  2  0  0  0  0  0  0
  195.6180  173.9730  141.2130 C   0  0  0  0  0  2  0  0  0  0  0  0
  195.2370  175.2250  143.7630 C   0  0  0  0  0  1  0  0  0  0  0  0
  196.4620  171.6810  143.8690 C   0  0  0  0  0  1  0  0  0  0  0  0
  195.2710  173.0390  142.3700 C   0  0  2  0  0  3  0  0  0  0  0  0
  195.0940  173.7130  143.6640 C   0  0  0  0  0  0  0  0  0  0  0  0
  196.3820  173.0410  143.3480 N   0  0  0  0  0  0  0  0  0  0  0  0
  194.1630  173.0230  144.6610 C   0  0  0  0  0  1  0  0  0  0  0  0
  190.4750  173.8700  143.2800 C   0  0  0  0  0  2  0  0  0  0  0  0
  191.0000  174.7750  144.3940 C   0  0  0  0  0  2  0  0  0  0  0  0
  190.2310  174.5640  145.6890 C   0  0  0  0  0  2  0  0  0  0  0  0
  190.0600  175.8730  146.4450 C   0  0  2  0  0  3  0  0  0  0  0  0
  191.0880  176.9760  148.2870 O   0  0  0  0  0  1  0  0  0  0  0  0
  191.1750  176.0700  147.4190 C   0  0  0  0  0  0  0  0  0  0  0  0
  192.3070  175.2680  147.3580 O   0  0  0  0  0  0  0  0  0  0  0  0
  188.8090  175.8610  147.1240 O   0  0  0  0  0  0  0  0  0  0  0  0
  187.7260  176.6600  146.7450 C   0  0  0  0  0  0  0  0  0  0  0  0
  187.3320  177.5610  147.5320 O   0  0  0  0  0  0  0  0  0  0  0  0
  186.9840  176.4050  145.4630 C   0  0  0  0  0  2  0  0  0  0  0  0
  187.1290  177.5660  144.4780 C   0  0  1  0  0  3  0  0  0  0  0  0
  187.3050  177.1870  143.0530 C   0  0  2  0  0  0  0  0  0  0  0  0
  185.8910  177.5980  143.5620 C   0  0  2  0  0  0  0  0  0  0  0  0
  185.4960  179.0420  143.9180 C   0  0  1  0  0  3  0  0  0  0  0  0
  187.4850  175.7020  142.7520 C   0  0  0  0  0  1  0  0  0  0  0  0
  185.4950  178.6470  142.5050 C   0  0  0  0  0  2  0  0  0  0  0  0
  188.2820  178.1590  142.3790 C   0  0  0  0  0  2  0  0  0  0  0  0
  190.4780  178.2840  143.5130 C   0  0  0  0  0  1  0  0  0  0  0  0
  189.6970  177.6160  142.4010 C   0  0  0  0  0  2  0  0  0  0  0  0
  184.0740  179.0510  144.4500 C   0  0  0  0  0  2  0  0  0  0  0  0
  184.0720  177.6990  146.4170 O   0  0  0  0  0  1  0  0  0  0  0  0
  184.0810  179.0210  145.9700 C   0  0  0  0  0  2  0  0  0  0  0  0
  1  4  1  0  0  0  0
  2 18  1  6  0  0  0
  2  1  1  0  0  0  0
  2  8  1  0  0  0  0
  2  4  1  0  0  0  0
  4  3  1  1  0  0  0
  4 28  1  0  0  0  0
  5 12  1  0  0  0  0
  5 17  1  0  0  0  0
  7 14  1  0  0  0  0
  8  6  1  1  0  0  0
  8 12  1  0  0  0  0
  9  5  2  0  0  0  0
 10 13  1  0  0  0  0
 10  7  2  0  0  0  0
 11 15  1  0  0  0  0
 13 11  2  0  0  0  0
 14 15  2  0  0  0  0
 14  9  1  0  0  0  0
 15  8  1  0  0  0  0
 17 16  1  0  0  0  0
 18 19  1  0  0  0  0
 20 19  1  0  0  0  0
 20 21  1  0  0  0  0
 24 21  1  6  0  0  0
 24 26  1  0  0  0  0
 24 25  1  0  0  0  0
 25 22  1  0  0  0  0
 25 27  1  0  0  0  0
 26 25  1  0  0  0  0
 26 23  1  0  0  0  0
 28 29  1  0  0  0  0
 29 30  1  0  0  0  0
 31 30  1  1  0  0  0
 31 35  1  0  0  0  0
 31 33  1  0  0  0  0
 33 32  1  0  0  0  0
 34 33  2  0  0  0  0
 36 35  1  0  0  0  0
 36 37  2  0  0  0  0
 38 36  1  0  0  0  0
 39 38  1  1  0  0  0
 40 43  1  6  0  0  0
 40 41  1  0  0  0  0
 40 39  1  0  0  0  0
 41 44  1  1  0  0  0
 41 42  1  0  0  0  0
 41 39  1  0  0  0  0
 42 48  1  1  0  0  0
 44 42  1  0  0  0  0
 45 47  1  0  0  0  0
 45 40  1  0  0  0  0
 47 46  1  0  0  0  0
 48 50  1  0  0  0  0
 50 49  1  0  0  0  0
M  END
>  <MODEL>
7

>  <REMARK>
 VINA RESULT:      -5.5      2.262      4.271
  Name = 
  20 active torsions:
  status: ('A' for Active; 'I' for Inactive)
    1  A    between atoms: C_1  and  C_41
    2  A    between atoms: C_2  and  O_20
    3  A    between atoms: C_2  and  C_41
    4  A    between atoms: C_3  and  O_36
    5  A    between atoms: C_4  and  C_21
    6  A    between atoms: C_4  and  C_37
    7  A    between atoms: C_5  and  C_24
    8  A    between atoms: C_11  and  C_25
    9  A    between atoms: C_14  and  C_26
   10  A    between atoms: C_14  and  C_46
   11  A    between atoms: C_18  and  C_23
   12  A    between atoms: C_18  and  C_32
   13  A    between atoms: C_19  and  C_23
   14  A    between atoms: C_19  and  C_44
   15  A    between atoms: O_20  and  C_26
   16  A    between atoms: C_24  and  C_27
   17  A    between atoms: C_25  and  C_44
   18  A    between atoms: C_26  and  C_29
   19  A    between atoms: C_30  and  C_34
   20  A    between atoms: C_30  and  C_46
                            x       y       z     vdW  Elec       q    Type
                         _______ _______ _______ _____ _____    ______ ____

>  <TORSDO>
F 20

$$$$
=
 OpenBabel11062419203D

 50 55  0  0  1  0  0  0  0  0999 V2000
  186.3570  175.6250  142.9200 O   0  0  0  0  0  0  0  0  0  0  0  0
  186.8530  176.6570  143.7530 C   0  0  1  0  0  0  0  0  0  0  0  0
  188.3760  174.7200  143.5900 O   0  0  0  0  0  1  0  0  0  0  0  0
  187.7560  175.7880  142.9330 C   0  0  1  0  0  0  0  0  0  0  0  0
  184.7940  178.8740  144.9880 C   0  0  0  0  0  0  0  0  0  0  0  0
  187.6700  178.6570  142.6740 O   0  0  0  0  0  1  0  0  0  0  0  0
  182.9770  178.3020  141.8950 C   0  0  0  0  0  3  0  0  0  0  0  0
  186.5320  178.1160  143.2750 C   0  0  2  0  0  0  0  0  0  0  0  0
  183.8300  178.5850  144.1660 N   0  0  0  0  0  0  0  0  0  0  0  0
  183.1910  178.1110  140.5290 C   0  0  0  0  0  3  0  0  0  0  0  0
  185.5710  177.9710  140.9180 C   0  0  0  0  0  3  0  0  0  0  0  0
  186.2100  179.0260  144.4800 C   0  0  0  0  0  2  0  0  0  0  0  0
  184.4870  177.9530  140.0410 C   0  0  0  0  0  3  0  0  0  0  0  0
  184.0590  178.3350  142.7760 C   0  0  0  0  0  0  0  0  0  0  0  0
  185.3710  178.1610  142.2940 C   0  0  0  0  0  0  0  0  0  0  0  0
  185.4800  179.0390  147.3520 C   0  0  0  0  0  1  0  0  0  0  0  0
  184.4930  179.0840  146.3340 O   0  0  0  0  0  0  0  0  0  0  0  0
  186.7940  176.2940  145.2440 C   0  0  0  0  0  2  0  0  0  0  0  0
  188.0170  176.7950  145.9900 C   0  0  0  0  0  2  0  0  0  0  0  0
  188.5030  175.7090  146.9250 C   0  0  0  0  0  2  0  0  0  0  0  0
  189.9170  175.2940  146.5670 C   0  0  0  0  0  2  0  0  0  0  0  0
  192.6840  174.5450  146.6120 C   0  0  0  0  0  1  0  0  0  0  0  0
  191.7490  177.4170  148.8370 C   0  0  0  0  0  1  0  0  0  0  0  0
  190.9060  176.4120  146.8920 C   0  0  2  0  0  3  0  0  0  0  0  0
  192.3140  175.9900  146.9180 C   0  0  0  0  0  0  0  0  0  0  0  0
  191.5560  176.1240  148.1900 N   0  0  0  0  0  0  0  0  0  0  0  0
  193.3460  177.0690  146.5930 C   0  0  0  0  0  1  0  0  0  0  0  0
  188.2710  176.1730  141.5440 C   0  0  0  0  0  2  0  0  0  0  0  0
  188.2590  174.9950  140.5690 C   0  0  0  0  0  2  0  0  0  0  0  0
  189.4680  174.0950  140.7720 C   0  0  0  0  0  2  0  0  0  0  0  0
  190.0450  173.6430  139.4390 C   0  0  2  0  0  3  0  0  0  0  0  0
  188.1910  172.3610  138.6740 O   0  0  0  0  0  1  0  0  0  0  0  0
  188.9530  173.3400  138.4670 C   0  0  0  0  0  0  0  0  0  0  0  0
  188.7890  174.1240  137.3330 O   0  0  0  0  0  0  0  0  0  0  0  0
  190.8550  172.4910  139.6470 O   0  0  0  0  0  0  0  0  0  0  0  0
  192.2500  172.5410  139.7230 C   0  0  0  0  0  0  0  0  0  0  0  0
  192.9200  172.4040  138.6650 O   0  0  0  0  0  0  0  0  0  0  0  0
  192.9510  172.6720  141.0450 C   0  0  0  0  0  2  0  0  0  0  0  0
  193.4620  174.0950  141.2820 C   0  0  1  0  0  3  0  0  0  0  0  0
  194.1590  174.3240  142.5740 C   0  0  2  0  0  0  0  0  0  0  0  0
  195.0030  174.0740  141.2880 C   0  0  2  0  0  0  0  0  0  0  0  0
  195.1560  175.1010  140.1520 C   0  0  1  0  0  3  0  0  0  0  0  0
  194.1450  173.1760  143.5790 C   0  0  0  0  0  1  0  0  0  0  0  0
  195.9870  175.2580  141.3520 C   0  0  0  0  0  2  0  0  0  0  0  0
  193.8110  175.7210  143.1040 C   0  0  0  0  0  2  0  0  0  0  0  0
  191.4580  176.4370  143.3760 C   0  0  0  0  0  1  0  0  0  0  0  0
  192.6000  176.2900  142.3930 C   0  0  0  0  0  2  0  0  0  0  0  0
  195.9790  174.4850  139.0340 C   0  0  0  0  0  2  0  0  0  0  0  0
  194.0970  175.2990  137.8120 O   0  0  0  0  0  1  0  0  0  0  0  0
  195.4330  174.9140  137.6820 C   0  0  0  0  0  2  0  0  0  0  0  0
  1  4  1  0  0  0  0
  1  2  1  0  0  0  0
  2 18  1  1  0  0  0
  4  3  1  1  0  0  0
  4  2  1  0  0  0  0
  5 17  1  0  0  0  0
  7 14  1  0  0  0  0
  8  6  1  6  0  0  0
  8  2  1  0  0  0  0
  8 12  1  0  0  0  0
  9  5  2  0  0  0  0
 10  7  2  0  0  0  0
 11 15  1  0  0  0  0
 12  5  1  0  0  0  0
 13 10  1  0  0  0  0
 13 11  2  0  0  0  0
 14  9  1  0  0  0  0
 15 14  2  0  0  0  0
 15  8  1  0  0  0  0
 17 16  1  0  0  0  0
 18 19  1  0  0  0  0
 19 20  1  0  0  0  0
 21 20  1  0  0  0  0
 22 25  1  0  0  0  0
 24 21  1  6  0  0  0
 24 25  1  0  0  0  0
 24 26  1  0  0  0  0
 25 26  1  0  0  0  0
 26 23  1  0  0  0  0
 27 25  1  0  0  0  0
 28  4  1  0  0  0  0
 29 30  1  0  0  0  0
 29 28  1  0  0  0  0
 31 35  1  0  0  0  0
 31 30  1  1  0  0  0
 33 32  1  0  0  0  0
 33 31  1  0  0  0  0
 34 33  2  0  0  0  0
 35 36  1  0  0  0  0
 36 38  1  0  0  0  0
 37 36  2  0  0  0  0
 39 38  1  1  0  0  0
 39 41  1  0  0  0  0
 39 40  1  0  0  0  0
 40 45  1  0  0  0  0
 40 43  1  1  0  0  0
 41 44  1  6  0  0  0
 41 40  1  0  0  0  0
 42 48  1  6  0  0  0
 42 41  1  0  0  0  0
 42 44  1  0  0  0  0
 47 45  1  0  0  0  0
 47 46  1  0  0  0  0
 50 49  1  0  0  0  0
 50 48  1  0  0  0  0
M  END
>  <MODEL>
8

>  <REMARK>
 VINA RESULT:      -5.5      2.905      8.491
  Name = 
  20 active torsions:
  status: ('A' for Active; 'I' for Inactive)
    1  A    between atoms: C_1  and  C_41
    2  A    between atoms: C_2  and  O_20
    3  A    between atoms: C_2  and  C_41
    4  A    between atoms: C_3  and  O_36
    5  A    between atoms: C_4  and  C_21
    6  A    between atoms: C_4  and  C_37
    7  A    between atoms: C_5  and  C_24
    8  A    between atoms: C_11  and  C_25
    9  A    between atoms: C_14  and  C_26
   10  A    between atoms: C_14  and  C_46
   11  A    between atoms: C_18  and  C_23
   12  A    between atoms: C_18  and  C_32
   13  A    between atoms: C_19  and  C_23
   14  A    between atoms: C_19  and  C_44
   15  A    between atoms: O_20  and  C_26
   16  A    between atoms: C_24  and  C_27
   17  A    between atoms: C_25  and  C_44
   18  A    between atoms: C_26  and  C_29
   19  A    between atoms: C_30  and  C_34
   20  A    between atoms: C_30  and  C_46
                            x       y       z     vdW  Elec       q    Type
                         _______ _______ _______ _____ _____    ______ ____

>  <TORSDO>
F 20

$$$$
=
 OpenBabel11062419203D

 50 55  0  0  1  0  0  0  0  0999 V2000
  187.5250  175.0950  143.1840 O   0  0  0  0  0  0  0  0  0  0  0  0
  188.1350  176.0490  144.0350 C   0  0  1  0  0  0  0  0  0  0  0  0
  189.3280  173.8870  143.9820 O   0  0  0  0  0  1  0  0  0  0  0  0
  188.9290  175.0290  143.2780 C   0  0  1  0  0  0  0  0  0  0  0  0
  186.1870  178.5180  144.9220 C   0  0  0  0  0  0  0  0  0  0  0  0
  189.3670  177.9200  143.1340 O   0  0  0  0  0  1  0  0  0  0  0  0
  184.8690  178.1420  141.5580 C   0  0  0  0  0  3  0  0  0  0  0  0
  188.0840  177.5310  143.5250 C   0  0  2  0  0  0  0  0  0  0  0  0
  185.3500  178.3410  143.9440 N   0  0  0  0  0  0  0  0  0  0  0  0
  185.2890  177.9110  140.2470 C   0  0  0  0  0  3  0  0  0  0  0  0
  187.5320  177.4810  141.0360 C   0  0  0  0  0  3  0  0  0  0  0  0
  187.6760  178.4870  144.6660 C   0  0  0  0  0  2  0  0  0  0  0  0
  186.6200  177.5880  139.9860 C   0  0  0  0  0  3  0  0  0  0  0  0
  185.7800  178.0500  142.6120 C   0  0  0  0  0  0  0  0  0  0  0  0
  187.1240  177.7090  142.3590 C   0  0  0  0  0  0  0  0  0  0  0  0
  186.3190  178.3000  147.3760 C   0  0  0  0  0  1  0  0  0  0  0  0
  185.6870  178.7780  146.1990 O   0  0  0  0  0  0  0  0  0  0  0  0
  187.9320  175.7280  145.5230 C   0  0  0  0  0  2  0  0  0  0  0  0
  189.1190  176.1730  146.3570 C   0  0  0  0  0  2  0  0  0  0  0  0
  189.5100  175.0520  147.2940 C   0  0  0  0  0  2  0  0  0  0  0  0
  190.9700  175.1740  147.6870 C   0  0  0  0  0  2  0  0  0  0  0  0
  192.2420  174.0130  145.3950 C   0  0  0  0  0  1  0  0  0  0  0  0
  193.8120  177.1620  146.6940 C   0  0  0  0  0  1  0  0  0  0  0  0
  191.6970  176.1480  146.7630 C   0  0  2  0  0  3  0  0  0  0  0  0
  192.3470  175.5170  145.6050 C   0  0  0  0  0  0  0  0  0  0  0  0
  193.1510  175.8680  146.8060 N   0  0  0  0  0  0  0  0  0  0  0  0
  192.5110  176.3950  144.3640 C   0  0  0  0  0  1  0  0  0  0  0  0
  189.5790  175.2980  141.9190 C   0  0  0  0  0  2  0  0  0  0  0  0
  189.1540  174.2840  140.8580 C   0  0  0  0  0  2  0  0  0  0  0  0
  190.0950  173.0900  140.8230 C   0  0  0  0  0  2  0  0  0  0  0  0
  191.4080  173.4450  140.1420 C   0  0  2  0  0  3  0  0  0  0  0  0
  192.3880  173.2550  137.9810 O   0  0  0  0  0  0  0  0  0  0  0  0
  191.3650  173.0880  138.6930 C   0  0  0  0  0  0  0  0  0  0  0  0
  190.1990  172.5860  138.1300 O   0  0  0  0  0  1  0  0  0  0  0  0
  192.4720  172.7560  140.7880 O   0  0  0  0  0  0  0  0  0  0  0  0
  193.4710  173.4060  141.5200 C   0  0  0  0  0  0  0  0  0  0  0  0
  193.3970  174.6540  141.6710 O   0  0  0  0  0  0  0  0  0  0  0  0
  194.6570  172.6530  142.0520 C   0  0  0  0  0  2  0  0  0  0  0  0
  194.7330  172.7090  143.5790 C   0  0  1  0  0  3  0  0  0  0  0  0
  195.4380  171.5770  144.2330 C   0  0  2  0  0  0  0  0  0  0  0  0
  196.2010  172.9150  143.9970 C   0  0  2  0  0  0  0  0  0  0  0  0
  195.9360  174.2050  144.7930 C   0  0  1  0  0  3  0  0  0  0  0  0
  195.8600  170.4170  143.3370 C   0  0  0  0  0  1  0  0  0  0  0  0
  196.7820  173.1710  145.4010 C   0  0  0  0  0  2  0  0  0  0  0  0
  194.7320  171.2240  145.5480 C   0  0  0  0  0  2  0  0  0  0  0  0
  196.3310  169.8700  146.8650 C   0  0  0  0  0  1  0  0  0  0  0  0
  195.0880  169.8220  146.0010 C   0  0  0  0  0  2  0  0  0  0  0  0
  196.8050  175.3190  144.2370 C   0  0  0  0  0  2  0  0  0  0  0  0
  196.5300  176.4510  142.1540 O   0  0  0  0  0  1  0  0  0  0  0  0
  195.9630  176.2830  143.4190 C   0  0  0  0  0  2  0  0  0  0  0  0
  1  4  1  0  0  0  0
  1  2  1  0  0  0  0
  2 18  1  1  0  0  0
  4  3  1  1  0  0  0
  4  2  1  0  0  0  0
  5 17  1  0  0  0  0
  7 14  1  0  0  0  0
  8  6  1  6  0  0  0
  8  2  1  0  0  0  0
  8 12  1  0  0  0  0
  9  5  2  0  0  0  0
 10  7  2  0  0  0  0
 11 15  1  0  0  0  0
 12  5  1  0  0  0  0
 13 10  1  0  0  0  0
 13 11  2  0  0  0  0
 14  9  1  0  0  0  0
 15 14  2  0  0  0  0
 15  8  1  0  0  0  0
 17 16  1  0  0  0  0
 18 19  1  0  0  0  0
 19 20  1  0  0  0  0
 20 21  1  0  0  0  0
 22 25  1  0  0  0  0
 23 26  1  0  0  0  0
 24 26  1  0  0  0  0
 24 21  1  1  0  0  0
 25 24  1  0  0  0  0
 25 26  1  0  0  0  0
 27 25  1  0  0  0  0
 28  4  1  0  0  0  0
 29 28  1  0  0  0  0
 30 29  1  0  0  0  0
 31 35  1  0  0  0  0
 31 30  1  1  0  0  0
 32 33  2  0  0  0  0
 33 31  1  0  0  0  0
 34 33  1  0  0  0  0
 35 36  1  0  0  0  0
 36 37  2  0  0  0  0
 36 38  1  0  0  0  0
 39 38  1  6  0  0  0
 39 41  1  0  0  0  0
 39 40  1  0  0  0  0
 40 43  1  6  0  0  0
 40 45  1  0  0  0  0
 41 40  1  0  0  0  0
 41 42  1  0  0  0  0
 41 44  1  6  0  0  0
 42 48  1  6  0  0  0
 42 44  1  0  0  0  0
 45 47  1  0  0  0  0
 47 46  1  0  0  0  0
 49 50  1  0  0  0  0
 50 48  1  0  0  0  0
M  END
>  <MODEL>
9

>  <REMARK>
 VINA RESULT:      -5.4      2.712      7.991
  Name = 
  20 active torsions:
  status: ('A' for Active; 'I' for Inactive)
    1  A    between atoms: C_1  and  C_41
    2  A    between atoms: C_2  and  O_20
    3  A    between atoms: C_2  and  C_41
    4  A    between atoms: C_3  and  O_36
    5  A    between atoms: C_4  and  C_21
    6  A    between atoms: C_4  and  C_37
    7  A    between atoms: C_5  and  C_24
    8  A    between atoms: C_11  and  C_25
    9  A    between atoms: C_14  and  C_26
   10  A    between atoms: C_14  and  C_46
   11  A    between atoms: C_18  and  C_23
   12  A    between atoms: C_18  and  C_32
   13  A    between atoms: C_19  and  C_23
   14  A    between atoms: C_19  and  C_44
   15  A    between atoms: O_20  and  C_26
   16  A    between atoms: C_24  and  C_27
   17  A    between atoms: C_25  and  C_44
   18  A    between atoms: C_26  and  C_29
   19  A    between atoms: C_30  and  C_34
   20  A    between atoms: C_30  and  C_46
                            x       y       z     vdW  Elec       q    Type
                         _______ _______ _______ _____ _____    ______ ____

>  <TORSDO>
F 20

$$$$
