=
 OpenBabel11062420553D

 31 33  0  0  1  0  0  0  0  0999 V2000
  189.5570  177.3670  143.7430 C   0  0  1  0  0  3  0  0  0  0  0  0
  191.3760  175.0100  143.1000 C   0  0  1  0  0  3  0  0  0  0  0  0
  188.3200  176.9800  142.9130 C   0  0  1  0  0  0  0  0  0  0  0  0
  187.2790  174.7470  142.0400 C   0  0  0  0  0  2  0  0  0  0  0  0
  191.6350  173.5170  143.1630 C   0  0  0  0  0  1  0  0  0  0  0  0
  190.0750  175.3050  142.3810 C   0  0  2  0  0  3  0  0  0  0  0  0
  189.6800  174.5040  141.2280 N   0  0  0  0  0  2  0  0  0  0  0  0
  188.2890  174.8240  140.8650 C   0  0  0  0  0  2  0  0  0  0  0  0
  189.9640  176.3740  144.8570 C   0  0  0  0  0  2  0  0  0  0  0  0
  189.7090  176.7860  142.3260 C   0  0  2  0  0  3  0  0  0  0  0  0
  187.5220  175.6930  143.2450 C   0  0  0  0  0  2  0  0  0  0  0  0
  191.2450  175.5550  144.5380 C   0  0  2  0  0  3  0  0  0  0  0  0
  194.0170  176.6610  146.6940 O   0  0  0  0  0  0  0  0  0  0  0  0
  192.4680  176.1990  145.0180 N   0  0  0  0  0  0  0  0  0  0  0  0
  193.2090  176.9520  144.0970 N   0  0  0  0  0  1  0  0  0  0  0  0
  192.9160  176.1320  146.3820 C   0  0  0  0  0  0  0  0  0  0  0  0
  192.1610  175.4010  147.3600 N   0  0  0  0  0  0  0  0  0  0  0  0
  191.4030  175.8720  148.3100 C   0  0  0  0  0  3  0  0  0  0  0  0
  190.1190  177.8230  147.8230 O   0  0  0  0  0  0  0  0  0  0  0  0
  191.0320  177.2850  148.5030 C   0  0  0  0  0  0  0  0  0  0  0  0
  191.6360  178.0090  149.5230 O   0  0  0  0  0  1  0  0  0  0  0  0
  187.5680  178.1700  142.3370 C   0  0  0  0  0  2  0  0  0  0  0  0
  186.1110  177.8930  140.5100 C   0  0  0  0  0  1  0  0  0  0  0  0
  186.2160  177.7800  141.9620 N   0  0  0  0  0  0  0  0  0  0  0  0
  184.0680  178.0570  142.9420 O   0  0  0  0  0  1  0  0  0  0  0  0
  185.2790  178.6920  142.6270 C   0  0  1  0  0  3  0  0  0  0  0  0
  185.9110  179.2900  143.8750 C   0  0  0  0  0  2  0  0  0  0  0  0
  184.9770  179.1390  145.0620 C   0  0  0  0  0  2  0  0  0  0  0  0
  185.7650  178.7740  146.3060 C   0  0  0  0  0  2  0  0  0  0  0  0
  186.7780  176.8840  146.8240 C   0  0  0  0  0  1  0  0  0  0  0  0
  186.8580  177.9770  145.9620 O   0  0  0  0  0  0  0  0  0  0  0  0
  1  9  1  1  0  0  0
  2  5  1  1  0  0  0
  2 12  1  0  0  0  0
  3 22  1  6  0  0  0
  3 11  1  0  0  0  0
  3  1  1  0  0  0  0
  4 11  1  0  0  0  0
  6  7  1  6  0  0  0
  6  2  1  0  0  0  0
  8  7  1  0  0  0  0
  8  4  1  0  0  0  0
 10  6  1  0  0  0  0
 10  3  1  0  0  0  0
 10  1  1  0  0  0  0
 12  9  1  0  0  0  0
 12 14  1  0  0  0  0
 14 16  1  0  0  0  0
 15 14  1  0  0  0  0
 16 13  2  0  0  0  0
 16 17  1  0  0  0  0
 17 18  2  0  0  0  0
 18 20  1  0  0  0  0
 19 20  2  0  0  0  0
 20 21  1  0  0  0  0
 23 24  1  0  0  0  0
 24 22  1  0  0  0  0
 24 26  1  0  0  0  0
 26 25  1  0  0  0  0
 26 27  1  0  0  0  0
 27 28  1  0  0  0  0
 28 29  1  0  0  0  0
 31 29  1  0  0  0  0
 31 30  1  0  0  0  0
M  END
>  <MODEL>
1

>  <REMARK>
 VINA RESULT:      -6.1      0.000      0.000
  Name = 
  10 active torsions:
  status: ('A' for Active; 'I' for Inactive)
    1  A    between atoms: C_5  and  C_9
    2  A    between atoms: C_5  and  C_21
    3  A    between atoms: C_7  and  C_20
    4  A    between atoms: C_9  and  N_30
    5  A    between atoms: C_11  and  C_21
    6  A    between atoms: C_11  and  O_31
    7  A    between atoms: N_14  and  C_29
    8  A    between atoms: N_15  and  C_25
    9  A    between atoms: C_20  and  N_30
   10  A    between atoms: C_22  and  C_27
                            x       y       z     vdW  Elec       q    Type
                         _______ _______ _______ _____ _____    ______ ____

>  <TORSDO>
F 10

$$$$
=
 OpenBabel11062420553D

 31 33  0  0  1  0  0  0  0  0999 V2000
  187.2140  176.7700  144.1880 C   0  0  1  0  0  3  0  0  0  0  0  0
  186.9970  177.4160  147.1570 C   0  0  1  0  0  3  0  0  0  0  0  0
  186.1090  177.6870  143.6360 C   0  0  1  0  0  0  0  0  0  0  0  0
  184.9850  179.9240  144.3920 C   0  0  0  0  0  2  0  0  0  0  0  0
  187.1020  178.4390  148.2730 C   0  0  0  0  0  1  0  0  0  0  0  0
  185.9910  177.8560  146.1110 C   0  0  2  0  0  3  0  0  0  0  0  0
  184.7680  178.5390  146.5180 N   0  0  0  0  0  2  0  0  0  0  0  0
  184.0870  179.0690  145.3240 C   0  0  0  0  0  2  0  0  0  0  0  0
  188.3820  177.4780  144.9160 C   0  0  0  0  0  2  0  0  0  0  0  0
  185.8680  176.9090  144.9210 C   0  0  2  0  0  3  0  0  0  0  0  0
  186.2240  179.2270  143.7710 C   0  0  0  0  0  2  0  0  0  0  0  0
  188.3680  177.2960  146.4590 C   0  0  2  0  0  3  0  0  0  0  0  0
  191.1440  174.9900  147.1910 O   0  0  0  0  0  0  0  0  0  0  0  0
  189.1340  176.1320  146.9040 N   0  0  0  0  0  0  0  0  0  0  0  0
  188.4270  175.0800  147.5020 N   0  0  0  0  0  1  0  0  0  0  0  0
  190.5530  175.9990  146.7170 C   0  0  0  0  0  0  0  0  0  0  0  0
  191.3030  177.0400  146.0730 N   0  0  0  0  0  0  0  0  0  0  0  0
  191.9120  177.0010  144.9220 C   0  0  0  0  0  3  0  0  0  0  0  0
  190.9830  175.8980  143.0200 O   0  0  0  0  0  0  0  0  0  0  0  0
  191.8430  175.9030  143.9410 C   0  0  0  0  0  0  0  0  0  0  0  0
  192.8060  174.9040  143.9760 O   0  0  0  0  0  1  0  0  0  0  0  0
  185.3830  177.1190  142.4260 C   0  0  0  0  0  2  0  0  0  0  0  0
  184.5750  178.3040  140.5610 C   0  0  0  0  0  1  0  0  0  0  0  0
  185.7870  177.8230  141.2180 N   0  0  0  0  0  0  0  0  0  0  0  0
  186.5600  177.3150  139.0280 O   0  0  0  0  0  1  0  0  0  0  0  0
  186.5070  176.8760  140.3590 C   0  0  1  0  0  3  0  0  0  0  0  0
  187.9070  176.6250  140.8970 C   0  0  0  0  0  2  0  0  0  0  0  0
  188.1180  175.1410  141.1430 C   0  0  0  0  0  2  0  0  0  0  0  0
  188.4580  174.4380  139.8430 C   0  0  0  0  0  2  0  0  0  0  0  0
  188.8290  172.7390  141.1990 C   0  0  0  0  0  1  0  0  0  0  0  0
  188.2490  173.0640  139.9740 O   0  0  0  0  0  0  0  0  0  0  0  0
  1  9  1  1  0  0  0
  1 10  1  0  0  0  0
  2  5  1  1  0  0  0
  3 22  1  6  0  0  0
  3 11  1  0  0  0  0
  3  1  1  0  0  0  0
  3 10  1  0  0  0  0
  4  8  1  0  0  0  0
  6  7  1  1  0  0  0
  6  2  1  0  0  0  0
  8  7  1  0  0  0  0
  9 12  1  0  0  0  0
 10  6  1  0  0  0  0
 11  4  1  0  0  0  0
 12 14  1  0  0  0  0
 12  2  1  0  0  0  0
 14 15  1  0  0  0  0
 16 14  1  0  0  0  0
 16 13  2  0  0  0  0
 17 16  1  0  0  0  0
 18 17  2  0  0  0  0
 19 20  2  0  0  0  0
 20 21  1  0  0  0  0
 20 18  1  0  0  0  0
 23 24  1  0  0  0  0
 24 22  1  0  0  0  0
 25 26  1  0  0  0  0
 26 27  1  0  0  0  0
 26 24  1  0  0  0  0
 27 28  1  0  0  0  0
 29 31  1  0  0  0  0
 29 28  1  0  0  0  0
 31 30  1  0  0  0  0
M  END
>  <MODEL>
2

>  <REMARK>
 VINA RESULT:      -6.0      2.633      5.215
  Name = 
  10 active torsions:
  status: ('A' for Active; 'I' for Inactive)
    1  A    between atoms: C_5  and  C_9
    2  A    between atoms: C_5  and  C_21
    3  A    between atoms: C_7  and  C_20
    4  A    between atoms: C_9  and  N_30
    5  A    between atoms: C_11  and  C_21
    6  A    between atoms: C_11  and  O_31
    7  A    between atoms: N_14  and  C_29
    8  A    between atoms: N_15  and  C_25
    9  A    between atoms: C_20  and  N_30
   10  A    between atoms: C_22  and  C_27
                            x       y       z     vdW  Elec       q    Type
                         _______ _______ _______ _____ _____    ______ ____

>  <TORSDO>
F 10

$$$$
=
 OpenBabel11062420553D

 31 33  0  0  1  0  0  0  0  0999 V2000
  190.4590  176.7440  143.0950 C   0  0  1  0  0  3  0  0  0  0  0  0
  192.0060  174.5540  144.5390 C   0  0  1  0  0  3  0  0  0  0  0  0
  189.4160  177.0860  144.1740 C   0  0  1  0  0  0  0  0  0  0  0  0
  189.3030  176.9310  146.7810 C   0  0  0  0  0  2  0  0  0  0  0  0
  192.8810  174.1380  145.7070 C   0  0  0  0  0  1  0  0  0  0  0  0
  190.6920  175.1330  145.0250 C   0  0  2  0  0  3  0  0  0  0  0  0
  190.0310  174.5620  146.1930 N   0  0  0  0  0  2  0  0  0  0  0  0
  188.9190  175.4390  146.5990 C   0  0  0  0  0  2  0  0  0  0  0  0
  191.9380  176.9680  143.4870 C   0  0  0  0  0  2  0  0  0  0  0  0
  189.7760  175.6320  143.9110 C   0  0  2  0  0  3  0  0  0  0  0  0
  189.8590  177.6740  145.5380 C   0  0  0  0  0  2  0  0  0  0  0  0
  192.7320  175.6560  143.7400 C   0  0  2  0  0  3  0  0  0  0  0  0
  195.2420  174.9870  141.1310 O   0  0  0  0  0  0  0  0  0  0  0  0
  193.3930  175.1490  142.5380 N   0  0  0  0  0  0  0  0  0  0  0  0
  192.6620  174.2860  141.7110 N   0  0  0  0  0  1  0  0  0  0  0  0
  194.7250  175.5240  142.1480 C   0  0  0  0  0  0  0  0  0  0  0  0
  195.4880  176.4360  142.9520 N   0  0  0  0  0  0  0  0  0  0  0  0
  196.3160  176.1590  143.9200 C   0  0  0  0  0  3  0  0  0  0  0  0
  197.5490  174.1430  143.5870 O   0  0  0  0  0  0  0  0  0  0  0  0
  196.7700  174.8140  144.3150 C   0  0  0  0  0  0  0  0  0  0  0  0
  196.4060  174.3160  145.5590 O   0  0  0  0  0  1  0  0  0  0  0  0
  188.0620  177.4970  143.6140 C   0  0  0  0  0  2  0  0  0  0  0  0
  186.6510  175.8800  142.6490 C   0  0  0  0  0  1  0  0  0  0  0  0
  187.0620  176.4820  143.9140 N   0  0  0  0  0  0  0  0  0  0  0  0
  185.7260  176.6540  145.8720 O   0  0  0  0  0  1  0  0  0  0  0  0
  185.9290  177.1410  144.5730 C   0  0  1  0  0  3  0  0  0  0  0  0
  186.1250  178.6490  144.5890 C   0  0  0  0  0  2  0  0  0  0  0  0
  184.8920  179.3470  144.0420 C   0  0  0  0  0  2  0  0  0  0  0  0
  184.1260  178.4130  143.1240 C   0  0  0  0  0  2  0  0  0  0  0  0
  183.4250  178.2450  141.0400 C   0  0  0  0  0  1  0  0  0  0  0  0
  184.5370  178.5970  141.8030 O   0  0  0  0  0  0  0  0  0  0  0  0
  1  9  1  1  0  0  0
  1 10  1  0  0  0  0
  1  3  1  0  0  0  0
  2  6  1  0  0  0  0
  2  5  1  1  0  0  0
  3 22  1  6  0  0  0
  3 11  1  0  0  0  0
  6  7  1  6  0  0  0
  7  8  1  0  0  0  0
  8  4  1  0  0  0  0
  9 12  1  0  0  0  0
 10  3  1  0  0  0  0
 10  6  1  0  0  0  0
 11  4  1  0  0  0  0
 12  2  1  0  0  0  0
 13 16  2  0  0  0  0
 14 12  1  0  0  0  0
 15 14  1  0  0  0  0
 16 14  1  0  0  0  0
 16 17  1  0  0  0  0
 17 18  2  0  0  0  0
 18 20  1  0  0  0  0
 19 20  2  0  0  0  0
 20 21  1  0  0  0  0
 22 24  1  0  0  0  0
 23 24  1  0  0  0  0
 24 26  1  0  0  0  0
 26 27  1  0  0  0  0
 26 25  1  0  0  0  0
 28 27  1  0  0  0  0
 29 28  1  0  0  0  0
 30 31  1  0  0  0  0
 31 29  1  0  0  0  0
M  END
>  <MODEL>
3

>  <REMARK>
 VINA RESULT:      -5.9      2.608      4.438
  Name = 
  10 active torsions:
  status: ('A' for Active; 'I' for Inactive)
    1  A    between atoms: C_5  and  C_9
    2  A    between atoms: C_5  and  C_21
    3  A    between atoms: C_7  and  C_20
    4  A    between atoms: C_9  and  N_30
    5  A    between atoms: C_11  and  C_21
    6  A    between atoms: C_11  and  O_31
    7  A    between atoms: N_14  and  C_29
    8  A    between atoms: N_15  and  C_25
    9  A    between atoms: C_20  and  N_30
   10  A    between atoms: C_22  and  C_27
                            x       y       z     vdW  Elec       q    Type
                         _______ _______ _______ _____ _____    ______ ____

>  <TORSDO>
F 10

$$$$
=
 OpenBabel11062420553D

 31 33  0  0  1  0  0  0  0  0999 V2000
  190.8110  175.8560  142.8010 C   0  0  1  0  0  3  0  0  0  0  0  0
  191.8070  174.6540  145.4160 C   0  0  1  0  0  3  0  0  0  0  0  0
  189.6200  176.6780  143.3240 C   0  0  1  0  0  0  0  0  0  0  0  0
  188.9850  177.8140  145.5920 C   0  0  0  0  0  2  0  0  0  0  0  0
  192.3890  174.8630  146.8020 C   0  0  0  0  0  1  0  0  0  0  0  0
  190.4920  175.3920  145.2620 C   0  0  2  0  0  3  0  0  0  0  0  0
  189.5590  175.4620  146.3810 N   0  0  0  0  0  2  0  0  0  0  0  0
  188.4880  176.4220  146.0620 C   0  0  0  0  0  2  0  0  0  0  0  0
  192.2010  176.2480  143.3560 C   0  0  0  0  0  2  0  0  0  0  0  0
  189.8690  175.2820  143.8730 C   0  0  2  0  0  3  0  0  0  0  0  0
  189.8480  177.8580  144.3040 C   0  0  0  0  0  2  0  0  0  0  0  0
  192.7870  175.2290  144.3720 C   0  0  2  0  0  3  0  0  0  0  0  0
  195.6670  173.4000  142.9860 O   0  0  0  0  0  0  0  0  0  0  0  0
  193.6130  174.2020  143.7380 N   0  0  0  0  0  0  0  0  0  0  0  0
  192.9790  173.0200  143.3300 N   0  0  0  0  0  1  0  0  0  0  0  0
  195.0170  174.3630  143.4760 C   0  0  0  0  0  0  0  0  0  0  0  0
  195.6900  175.5760  143.8460 N   0  0  0  0  0  0  0  0  0  0  0  0
  196.1980  176.4870  143.0630 C   0  0  0  0  0  3  0  0  0  0  0  0
  197.0070  176.2020  140.8370 O   0  0  0  0  0  0  0  0  0  0  0  0
  196.0630  176.5440  141.5970 C   0  0  0  0  0  0  0  0  0  0  0  0
  194.8380  176.8930  141.0450 O   0  0  0  0  0  1  0  0  0  0  0  0
  188.4530  176.7590  142.3520 C   0  0  0  0  0  2  0  0  0  0  0  0
  186.2970  176.0720  142.9970 C   0  0  0  0  0  1  0  0  0  0  0  0
  187.2450  177.1810  143.0470 N   0  0  0  0  0  0  0  0  0  0  0  0
  186.5350  178.1230  140.9830 O   0  0  0  0  0  1  0  0  0  0  0  0
  186.7100  178.3590  142.3540 C   0  0  1  0  0  3  0  0  0  0  0  0
  185.4040  178.8060  142.9930 C   0  0  0  0  0  2  0  0  0  0  0  0
  185.6780  179.7970  144.1110 C   0  0  0  0  0  2  0  0  0  0  0  0
  185.4050  179.1560  145.4580 C   0  0  0  0  0  2  0  0  0  0  0  0
  184.8710  177.2250  146.3800 C   0  0  0  0  0  1  0  0  0  0  0  0
  184.5640  178.0530  145.3020 O   0  0  0  0  0  0  0  0  0  0  0  0
  1  3  1  0  0  0  0
  1  9  1  1  0  0  0
  1 10  1  0  0  0  0
  2  5  1  1  0  0  0
  3 22  1  6  0  0  0
  3 10  1  0  0  0  0
  3 11  1  0  0  0  0
  4  8  1  0  0  0  0
  6  2  1  0  0  0  0
  6  7  1  1  0  0  0
  8  7  1  0  0  0  0
  9 12  1  0  0  0  0
 10  6  1  0  0  0  0
 11  4  1  0  0  0  0
 12  2  1  0  0  0  0
 13 16  2  0  0  0  0
 14 12  1  0  0  0  0
 15 14  1  0  0  0  0
 16 14  1  0  0  0  0
 16 17  1  0  0  0  0
 18 17  2  0  0  0  0
 19 20  2  0  0  0  0
 20 18  1  0  0  0  0
 21 20  1  0  0  0  0
 22 24  1  0  0  0  0
 23 24  1  0  0  0  0
 25 26  1  0  0  0  0
 26 27  1  0  0  0  0
 26 24  1  0  0  0  0
 27 28  1  0  0  0  0
 28 29  1  0  0  0  0
 31 29  1  0  0  0  0
 31 30  1  0  0  0  0
M  END
>  <MODEL>
4

>  <REMARK>
 VINA RESULT:      -5.9      2.821      4.335
  Name = 
  10 active torsions:
  status: ('A' for Active; 'I' for Inactive)
    1  A    between atoms: C_5  and  C_9
    2  A    between atoms: C_5  and  C_21
    3  A    between atoms: C_7  and  C_20
    4  A    between atoms: C_9  and  N_30
    5  A    between atoms: C_11  and  C_21
    6  A    between atoms: C_11  and  O_31
    7  A    between atoms: N_14  and  C_29
    8  A    between atoms: N_15  and  C_25
    9  A    between atoms: C_20  and  N_30
   10  A    between atoms: C_22  and  C_27
                            x       y       z     vdW  Elec       q    Type
                         _______ _______ _______ _____ _____    ______ ____

>  <TORSDO>
F 10

$$$$
=
 OpenBabel11062420553D

 31 33  0  0  1  0  0  0  0  0999 V2000
  189.9470  175.8010  146.3500 C   0  0  1  0  0  3  0  0  0  0  0  0
  191.8200  176.9620  144.2470 C   0  0  1  0  0  3  0  0  0  0  0  0
  188.5910  176.0660  145.6710 C   0  0  1  0  0  0  0  0  0  0  0  0
  187.7560  176.3430  143.2090 C   0  0  0  0  0  2  0  0  0  0  0  0
  192.3690  176.9190  142.8330 C   0  0  0  0  0  1  0  0  0  0  0  0
  190.3150  177.1390  144.2400 C   0  0  2  0  0  3  0  0  0  0  0  0
  189.6870  178.0030  143.2470 N   0  0  0  0  0  2  0  0  0  0  0  0
  188.2260  177.8190  143.2960 C   0  0  0  0  0  2  0  0  0  0  0  0
  190.9200  174.8760  145.5820 C   0  0  0  0  0  2  0  0  0  0  0  0
  189.6750  177.1320  145.6260 C   0  0  2  0  0  3  0  0  0  0  0  0
  188.2380  175.3810  144.3260 C   0  0  0  0  0  2  0  0  0  0  0  0
  192.1260  175.6180  144.9420 C   0  0  2  0  0  3  0  0  0  0  0  0
  195.4740  175.0970  146.3830 O   0  0  0  0  0  0  0  0  0  0  0  0
  193.2900  175.6840  145.8250 N   0  0  0  0  0  0  0  0  0  0  0  0
  193.1950  176.4960  146.9630 N   0  0  0  0  0  1  0  0  0  0  0  0
  194.4940  174.9290  145.6070 C   0  0  0  0  0  0  0  0  0  0  0  0
  194.6100  174.0580  144.4720 N   0  0  0  0  0  0  0  0  0  0  0  0
  195.3160  174.2330  143.3900 C   0  0  0  0  0  3  0  0  0  0  0  0
  197.5050  175.1810  143.4210 O   0  0  0  0  0  1  0  0  0  0  0  0
  196.2830  175.3190  143.1520 C   0  0  0  0  0  0  0  0  0  0  0  0
  195.8510  176.4830  142.5290 O   0  0  0  0  0  0  0  0  0  0  0  0
  187.4640  176.3740  146.6450 C   0  0  0  0  0  2  0  0  0  0  0  0
  186.8450  178.3830  147.7030 C   0  0  0  0  0  1  0  0  0  0  0  0
  186.9440  177.7130  146.4090 N   0  0  0  0  0  0  0  0  0  0  0  0
  184.7830  176.7260  146.5090 O   0  0  0  0  0  1  0  0  0  0  0  0
  185.6230  177.5840  145.7840 C   0  0  1  0  0  3  0  0  0  0  0  0
  184.9770  178.9510  145.6150 C   0  0  0  0  0  2  0  0  0  0  0  0
  184.0420  178.9470  144.4180 C   0  0  0  0  0  2  0  0  0  0  0  0
  184.8400  178.8570  143.1300 C   0  0  0  0  0  2  0  0  0  0  0  0
  184.8760  178.1430  141.0440 C   0  0  0  0  0  1  0  0  0  0  0  0
  184.2620  177.9170  142.2750 O   0  0  0  0  0  0  0  0  0  0  0  0
  1  9  1  6  0  0  0
  2  5  1  6  0  0  0
  2 12  1  0  0  0  0
  3  1  1  0  0  0  0
  3 22  1  1  0  0  0
  4  8  1  0  0  0  0
  4 11  1  0  0  0  0
  6  7  1  1  0  0  0
  6  2  1  0  0  0  0
  6 10  1  0  0  0  0
  7  8  1  0  0  0  0
 10  3  1  0  0  0  0
 10  1  1  0  0  0  0
 11  3  1  0  0  0  0
 12  9  1  0  0  0  0
 12 14  1  0  0  0  0
 14 15  1  0  0  0  0
 16 14  1  0  0  0  0
 16 13  2  0  0  0  0
 17 16  1  0  0  0  0
 18 17  2  0  0  0  0
 20 18  1  0  0  0  0
 20 19  1  0  0  0  0
 21 20  2  0  0  0  0
 24 22  1  0  0  0  0
 24 23  1  0  0  0  0
 26 24  1  0  0  0  0
 26 25  1  0  0  0  0
 27 26  1  0  0  0  0
 28 27  1  0  0  0  0
 29 28  1  0  0  0  0
 30 31  1  0  0  0  0
 31 29  1  0  0  0  0
M  END
>  <MODEL>
5

>  <REMARK>
 VINA RESULT:      -5.8      2.403      4.321
  Name = 
  10 active torsions:
  status: ('A' for Active; 'I' for Inactive)
    1  A    between atoms: C_5  and  C_9
    2  A    between atoms: C_5  and  C_21
    3  A    between atoms: C_7  and  C_20
    4  A    between atoms: C_9  and  N_30
    5  A    between atoms: C_11  and  C_21
    6  A    between atoms: C_11  and  O_31
    7  A    between atoms: N_14  and  C_29
    8  A    between atoms: N_15  and  C_25
    9  A    between atoms: C_20  and  N_30
   10  A    between atoms: C_22  and  C_27
                            x       y       z     vdW  Elec       q    Type
                         _______ _______ _______ _____ _____    ______ ____

>  <TORSDO>
F 10

$$$$
=
 OpenBabel11062420553D

 31 33  0  0  1  0  0  0  0  0999 V2000
  187.7250  175.4590  143.6250 C   0  0  1  0  0  3  0  0  0  0  0  0
  190.2930  174.3270  142.4410 C   0  0  1  0  0  3  0  0  0  0  0  0
  188.3180  176.4390  144.6540 C   0  0  1  0  0  0  0  0  0  0  0  0
  190.5490  177.7820  144.8850 C   0  0  0  0  0  2  0  0  0  0  0  0
  191.5810  174.5610  141.6740 C   0  0  0  0  0  1  0  0  0  0  0  0
  190.2350  175.1930  143.6830 C   0  0  2  0  0  3  0  0  0  0  0  0
  191.4460  175.4370  144.4590 N   0  0  0  0  0  2  0  0  0  0  0  0
  191.1800  176.4860  145.4590 C   0  0  0  0  0  2  0  0  0  0  0  0
  188.0840  175.7310  142.1450 C   0  0  0  0  0  2  0  0  0  0  0  0
  188.9410  175.0620  144.4810 C   0  0  2  0  0  3  0  0  0  0  0  0
  189.1700  177.6470  144.1880 C   0  0  0  0  0  2  0  0  0  0  0  0
  189.1010  174.7220  141.5440 C   0  0  2  0  0  3  0  0  0  0  0  0
  188.0540  172.2080  139.0660 O   0  0  0  0  0  0  0  0  0  0  0  0
  188.4570  173.5710  140.9110 N   0  0  0  0  0  0  0  0  0  0  0  0
  187.6350  172.7670  141.7110 N   0  0  0  0  0  1  0  0  0  0  0  0
  188.5900  173.2570  139.5150 C   0  0  0  0  0  0  0  0  0  0  0  0
  189.3940  174.0830  138.6580 N   0  0  0  0  0  0  0  0  0  0  0  0
  190.5280  173.7880  138.0870 C   0  0  0  0  0  3  0  0  0  0  0  0
  191.1110  171.7080  137.0750 O   0  0  0  0  0  0  0  0  0  0  0  0
  191.1770  172.4660  138.0790 C   0  0  0  0  0  0  0  0  0  0  0  0
  191.9570  172.0890  139.1650 O   0  0  0  0  0  1  0  0  0  0  0  0
  187.4850  176.5850  145.9180 C   0  0  0  0  0  2  0  0  0  0  0  0
  186.8370  178.2880  147.4070 C   0  0  0  0  0  1  0  0  0  0  0  0
  186.9130  177.9210  145.9950 N   0  0  0  0  0  0  0  0  0  0  0  0
  184.5760  177.6760  146.3540 O   0  0  0  0  0  1  0  0  0  0  0  0
  185.5760  177.8790  145.3920 C   0  0  1  0  0  3  0  0  0  0  0  0
  185.3080  179.1490  144.6000 C   0  0  0  0  0  2  0  0  0  0  0  0
  185.9200  179.0440  143.2140 C   0  0  0  0  0  2  0  0  0  0  0  0
  185.1750  178.0110  142.3900 C   0  0  0  0  0  2  0  0  0  0  0  0
  184.0460  178.2950  140.5170 C   0  0  0  0  0  1  0  0  0  0  0  0
  185.3430  178.2740  141.0290 O   0  0  0  0  0  0  0  0  0  0  0  0
  1  9  1  6  0  0  0
  1 10  1  0  0  0  0
  1  3  1  0  0  0  0
  2  5  1  6  0  0  0
  2  6  1  0  0  0  0
  3 22  1  1  0  0  0
  4  8  1  0  0  0  0
  6  7  1  1  0  0  0
  6 10  1  0  0  0  0
  7  8  1  0  0  0  0
 10  3  1  0  0  0  0
 11  3  1  0  0  0  0
 11  4  1  0  0  0  0
 12  9  1  0  0  0  0
 12  2  1  0  0  0  0
 13 16  2  0  0  0  0
 14 12  1  0  0  0  0
 14 15  1  0  0  0  0
 16 14  1  0  0  0  0
 17 16  1  0  0  0  0
 18 17  2  0  0  0  0
 19 20  2  0  0  0  0
 20 18  1  0  0  0  0
 20 21  1  0  0  0  0
 22 24  1  0  0  0  0
 24 23  1  0  0  0  0
 26 24  1  0  0  0  0
 26 25  1  0  0  0  0
 27 26  1  0  0  0  0
 28 27  1  0  0  0  0
 29 28  1  0  0  0  0
 30 31  1  0  0  0  0
 31 29  1  0  0  0  0
M  END
>  <MODEL>
6

>  <REMARK>
 VINA RESULT:      -5.8      3.531      6.315
  Name = 
  10 active torsions:
  status: ('A' for Active; 'I' for Inactive)
    1  A    between atoms: C_5  and  C_9
    2  A    between atoms: C_5  and  C_21
    3  A    between atoms: C_7  and  C_20
    4  A    between atoms: C_9  and  N_30
    5  A    between atoms: C_11  and  C_21
    6  A    between atoms: C_11  and  O_31
    7  A    between atoms: N_14  and  C_29
    8  A    between atoms: N_15  and  C_25
    9  A    between atoms: C_20  and  N_30
   10  A    between atoms: C_22  and  C_27
                            x       y       z     vdW  Elec       q    Type
                         _______ _______ _______ _____ _____    ______ ____

>  <TORSDO>
F 10

$$$$
=
 OpenBabel11062420553D

 31 33  0  0  1  0  0  0  0  0999 V2000
  190.1250  176.6250  146.1700 C   0  0  1  0  0  3  0  0  0  0  0  0
  187.9250  176.0930  144.1320 C   0  0  1  0  0  3  0  0  0  0  0  0
  191.3510  176.1670  145.3610 C   0  0  1  0  0  0  0  0  0  0  0  0
  191.9570  175.9880  142.8250 C   0  0  0  0  0  2  0  0  0  0  0  0
  187.3110  176.3940  142.7770 C   0  0  0  0  0  1  0  0  0  0  0  0
  189.3570  175.6190  143.9860 C   0  0  2  0  0  3  0  0  0  0  0  0
  189.7290  174.7550  142.8710 N   0  0  0  0  0  2  0  0  0  0  0  0
  191.1970  174.6360  142.8160 C   0  0  0  0  0  2  0  0  0  0  0  0
  189.3190  177.8030  145.5710 C   0  0  0  0  0  2  0  0  0  0  0  0
  190.0680  175.3510  145.3090 C   0  0  2  0  0  3  0  0  0  0  0  0
  191.7560  176.9050  144.0600 C   0  0  0  0  0  2  0  0  0  0  0  0
  187.9490  177.3900  144.9680 C   0  0  2  0  0  3  0  0  0  0  0  0
  184.9380  178.4850  146.7830 O   0  0  0  0  0  0  0  0  0  0  0  0
  186.8530  177.4670  145.9340 N   0  0  0  0  0  0  0  0  0  0  0  0
  186.7780  176.4640  146.9100 N   0  0  0  0  0  1  0  0  0  0  0  0
  185.8890  178.5330  145.9570 C   0  0  0  0  0  0  0  0  0  0  0  0
  185.9600  179.5970  144.9950 N   0  0  0  0  0  0  0  0  0  0  0  0
  185.3020  179.7180  143.8760 C   0  0  0  0  0  3  0  0  0  0  0  0
  184.4330  177.8710  142.6410 O   0  0  0  0  0  0  0  0  0  0  0  0
  184.2120  178.8420  143.4120 C   0  0  0  0  0  0  0  0  0  0  0  0
  182.9310  179.0350  143.9120 O   0  0  0  0  0  1  0  0  0  0  0  0
  192.4470  175.5370  146.2080 C   0  0  0  0  0  2  0  0  0  0  0  0
  193.5530  173.6010  145.4550 C   0  0  0  0  0  1  0  0  0  0  0  0
  193.5290  175.0580  145.3600 N   0  0  0  0  0  0  0  0  0  0  0  0
  195.7510  174.6510  146.0990 O   0  0  0  0  0  1  0  0  0  0  0  0
  194.7840  175.6360  145.8540 C   0  0  1  0  0  3  0  0  0  0  0  0
  195.3130  176.6760  144.8770 C   0  0  0  0  0  2  0  0  0  0  0  0
  195.6860  176.0190  143.5600 C   0  0  0  0  0  2  0  0  0  0  0  0
  196.7810  176.8120  142.8710 C   0  0  0  0  0  2  0  0  0  0  0  0
  195.3820  176.1540  141.2990 C   0  0  0  0  0  1  0  0  0  0  0  0
  196.4520  177.0170  141.5300 O   0  0  0  0  0  0  0  0  0  0  0  0
  1  9  1  6  0  0  0
  2  5  1  6  0  0  0
  2 12  1  0  0  0  0
  3  1  1  0  0  0  0
  3 22  1  1  0  0  0
  4 11  1  0  0  0  0
  6  7  1  6  0  0  0
  6  2  1  0  0  0  0
  6 10  1  0  0  0  0
  8  4  1  0  0  0  0
  8  7  1  0  0  0  0
 10  3  1  0  0  0  0
 10  1  1  0  0  0  0
 11  3  1  0  0  0  0
 12  9  1  0  0  0  0
 12 14  1  0  0  0  0
 14 16  1  0  0  0  0
 14 15  1  0  0  0  0
 16 13  2  0  0  0  0
 17 16  1  0  0  0  0
 18 17  2  0  0  0  0
 19 20  2  0  0  0  0
 20 18  1  0  0  0  0
 20 21  1  0  0  0  0
 24 23  1  0  0  0  0
 24 26  1  0  0  0  0
 24 22  1  0  0  0  0
 26 25  1  0  0  0  0
 27 26  1  0  0  0  0
 28 27  1  0  0  0  0
 29 28  1  0  0  0  0
 30 31  1  0  0  0  0
 31 29  1  0  0  0  0
M  END
>  <MODEL>
7

>  <REMARK>
 VINA RESULT:      -5.8      2.631      7.656
  Name = 
  10 active torsions:
  status: ('A' for Active; 'I' for Inactive)
    1  A    between atoms: C_5  and  C_9
    2  A    between atoms: C_5  and  C_21
    3  A    between atoms: C_7  and  C_20
    4  A    between atoms: C_9  and  N_30
    5  A    between atoms: C_11  and  C_21
    6  A    between atoms: C_11  and  O_31
    7  A    between atoms: N_14  and  C_29
    8  A    between atoms: N_15  and  C_25
    9  A    between atoms: C_20  and  N_30
   10  A    between atoms: C_22  and  C_27
                            x       y       z     vdW  Elec       q    Type
                         _______ _______ _______ _____ _____    ______ ____

>  <TORSDO>
F 10

$$$$
=
 OpenBabel11062420553D

 31 33  0  0  1  0  0  0  0  0999 V2000
  188.9410  174.7710  145.2010 C   0  0  1  0  0  3  0  0  0  0  0  0
  191.9310  174.2430  145.4500 C   0  0  1  0  0  3  0  0  0  0  0  0
  188.8080  175.9830  146.1400 C   0  0  1  0  0  0  0  0  0  0  0  0
  190.3920  177.8930  146.9630 C   0  0  0  0  0  2  0  0  0  0  0  0
  193.3550  174.7270  145.2470 C   0  0  0  0  0  1  0  0  0  0  0  0
  191.1550  175.1970  146.3370 C   0  0  2  0  0  3  0  0  0  0  0  0
  191.8150  175.8430  147.4660 N   0  0  0  0  0  2  0  0  0  0  0  0
  190.9330  176.8880  148.0130 C   0  0  0  0  0  2  0  0  0  0  0  0
  189.8680  174.9600  143.9770 C   0  0  0  0  0  2  0  0  0  0  0  0
  189.6930  174.8140  146.5440 C   0  0  2  0  0  3  0  0  0  0  0  0
  189.5280  177.3150  145.8110 C   0  0  0  0  0  2  0  0  0  0  0  0
  191.2190  174.2000  144.0820 C   0  0  2  0  0  3  0  0  0  0  0  0
  190.9690  171.4070  141.6960 O   0  0  0  0  0  0  0  0  0  0  0  0
  191.1630  172.8550  143.5100 N   0  0  0  0  0  0  0  0  0  0  0  0
  191.2970  171.7710  144.3880 N   0  0  0  0  0  1  0  0  0  0  0  0
  190.9350  172.5950  142.1140 C   0  0  0  0  0  0  0  0  0  0  0  0
  190.7560  173.6820  141.1930 N   0  0  0  0  0  0  0  0  0  0  0  0
  189.6970  173.9780  140.4930 C   0  0  0  0  0  3  0  0  0  0  0  0
  187.6730  173.4530  141.6410 O   0  0  0  0  0  1  0  0  0  0  0  0
  188.3760  173.3350  140.6030 C   0  0  0  0  0  0  0  0  0  0  0  0
  187.8570  172.6650  139.5030 O   0  0  0  0  0  0  0  0  0  0  0  0
  187.4840  176.0410  146.8870 C   0  0  0  0  0  2  0  0  0  0  0  0
  186.3840  177.8680  147.8810 C   0  0  0  0  0  1  0  0  0  0  0  0
  186.7980  177.2930  146.6040 N   0  0  0  0  0  0  0  0  0  0  0  0
  184.4420  177.4560  146.3370 O   0  0  0  0  0  1  0  0  0  0  0  0
  185.6350  176.9950  145.7620 C   0  0  1  0  0  3  0  0  0  0  0  0
  185.8200  177.5780  144.3700 C   0  0  0  0  0  2  0  0  0  0  0  0
  186.1520  176.4780  143.3780 C   0  0  0  0  0  2  0  0  0  0  0  0
  186.5260  177.0780  142.0350 C   0  0  0  0  0  2  0  0  0  0  0  0
  188.5650  177.9160  142.0110 C   0  0  0  0  0  1  0  0  0  0  0  0
  187.8470  176.7580  141.7190 O   0  0  0  0  0  0  0  0  0  0  0  0
  1  9  1  6  0  0  0
  1  3  1  0  0  0  0
  1 10  1  0  0  0  0
  2  5  1  6  0  0  0
  2  6  1  0  0  0  0
  3 10  1  0  0  0  0
  3 22  1  1  0  0  0
  4  8  1  0  0  0  0
  6 10  1  0  0  0  0
  6  7  1  1  0  0  0
  7  8  1  0  0  0  0
  9 12  1  0  0  0  0
 11  3  1  0  0  0  0
 11  4  1  0  0  0  0
 12  2  1  0  0  0  0
 13 16  2  0  0  0  0
 14 12  1  0  0  0  0
 14 15  1  0  0  0  0
 16 14  1  0  0  0  0
 17 16  1  0  0  0  0
 18 20  1  0  0  0  0
 18 17  2  0  0  0  0
 20 19  1  0  0  0  0
 21 20  2  0  0  0  0
 24 22  1  0  0  0  0
 24 23  1  0  0  0  0
 26 25  1  0  0  0  0
 26 24  1  0  0  0  0
 27 26  1  0  0  0  0
 28 27  1  0  0  0  0
 29 28  1  0  0  0  0
 31 30  1  0  0  0  0
 31 29  1  0  0  0  0
M  END
>  <MODEL>
8

>  <REMARK>
 VINA RESULT:      -5.7      3.035      5.677
  Name = 
  10 active torsions:
  status: ('A' for Active; 'I' for Inactive)
    1  A    between atoms: C_5  and  C_9
    2  A    between atoms: C_5  and  C_21
    3  A    between atoms: C_7  and  C_20
    4  A    between atoms: C_9  and  N_30
    5  A    between atoms: C_11  and  C_21
    6  A    between atoms: C_11  and  O_31
    7  A    between atoms: N_14  and  C_29
    8  A    between atoms: N_15  and  C_25
    9  A    between atoms: C_20  and  N_30
   10  A    between atoms: C_22  and  C_27
                            x       y       z     vdW  Elec       q    Type
                         _______ _______ _______ _____ _____    ______ ____

>  <TORSDO>
F 10

$$$$
=
 OpenBabel11062420553D

 31 33  0  0  1  0  0  0  0  0999 V2000
  191.0150  175.8320  142.8100 C   0  0  1  0  0  3  0  0  0  0  0  0
  189.5420  177.4220  144.9510 C   0  0  1  0  0  3  0  0  0  0  0  0
  192.0550  175.1110  143.6850 C   0  0  1  0  0  0  0  0  0  0  0  0
  192.1920  174.3490  146.1820 C   0  0  0  0  0  2  0  0  0  0  0  0
  188.6890  177.4270  146.2060 C   0  0  0  0  0  1  0  0  0  0  0  0
  190.8430  176.6780  145.1830 C   0  0  2  0  0  3  0  0  0  0  0  0
  191.5300  176.7910  146.4650 N   0  0  0  0  0  2  0  0  0  0  0  0
  192.6190  175.8010  146.5230 C   0  0  0  0  0  2  0  0  0  0  0  0
  189.5320  175.5220  143.1260 C   0  0  0  0  0  2  0  0  0  0  0  0
  191.7350  176.5740  143.9500 C   0  0  2  0  0  3  0  0  0  0  0  0
  191.6050  174.0980  144.7680 C   0  0  0  0  0  2  0  0  0  0  0  0
  188.7790  176.6830  143.8320 C   0  0  2  0  0  3  0  0  0  0  0  0
  186.2220  178.6210  142.0270 O   0  0  0  0  0  0  0  0  0  0  0  0
  188.1230  177.5930  142.8930 N   0  0  0  0  0  0  0  0  0  0  0  0
  188.9370  178.2920  141.9920 N   0  0  0  0  0  1  0  0  0  0  0  0
  186.6980  177.7670  142.8220 C   0  0  0  0  0  0  0  0  0  0  0  0
  185.8320  177.0370  143.7040 N   0  0  0  0  0  0  0  0  0  0  0  0
  185.2540  177.4560  144.7950 C   0  0  0  0  0  3  0  0  0  0  0  0
  184.7950  179.7890  144.5990 O   0  0  0  0  0  0  0  0  0  0  0  0
  185.2460  178.8420  145.2950 C   0  0  0  0  0  0  0  0  0  0  0  0
  185.6580  179.0930  146.5980 O   0  0  0  0  0  1  0  0  0  0  0  0
  193.3920  174.8880  142.9950 C   0  0  0  0  0  2  0  0  0  0  0  0
  194.5030  176.3610  141.5340 C   0  0  0  0  0  1  0  0  0  0  0  0
  194.1430  176.1330  142.9310 N   0  0  0  0  0  0  0  0  0  0  0  0
  195.3160  176.8400  144.8740 O   0  0  0  0  0  1  0  0  0  0  0  0
  195.3420  175.9840  143.7630 C   0  0  1  0  0  3  0  0  0  0  0  0
  195.5100  174.5380  144.2030 C   0  0  0  0  0  2  0  0  0  0  0  0
  195.9740  174.4780  145.6480 C   0  0  0  0  0  2  0  0  0  0  0  0
  197.1870  173.5760  145.7720 C   0  0  0  0  0  2  0  0  0  0  0  0
  197.1890  171.4040  145.3900 C   0  0  0  0  0  1  0  0  0  0  0  0
  196.8190  172.3550  146.3390 O   0  0  0  0  0  0  0  0  0  0  0  0
  1  9  1  1  0  0  0
  1  3  1  0  0  0  0
  1 10  1  0  0  0  0
  2  6  1  0  0  0  0
  2  5  1  1  0  0  0
  3 22  1  6  0  0  0
  3 10  1  0  0  0  0
  3 11  1  0  0  0  0
  4  8  1  0  0  0  0
  6  7  1  1  0  0  0
  7  8  1  0  0  0  0
  9 12  1  0  0  0  0
 10  6  1  0  0  0  0
 11  4  1  0  0  0  0
 12  2  1  0  0  0  0
 13 16  2  0  0  0  0
 14 12  1  0  0  0  0
 15 14  1  0  0  0  0
 16 14  1  0  0  0  0
 16 17  1  0  0  0  0
 17 18  2  0  0  0  0
 18 20  1  0  0  0  0
 19 20  2  0  0  0  0
 20 21  1  0  0  0  0
 23 24  1  0  0  0  0
 24 22  1  0  0  0  0
 24 26  1  0  0  0  0
 26 27  1  0  0  0  0
 26 25  1  0  0  0  0
 27 28  1  0  0  0  0
 28 29  1  0  0  0  0
 29 31  1  0  0  0  0
 30 31  1  0  0  0  0
M  END
>  <MODEL>
9

>  <REMARK>
 VINA RESULT:      -5.7      2.628      7.612
  Name = 
  10 active torsions:
  status: ('A' for Active; 'I' for Inactive)
    1  A    between atoms: C_5  and  C_9
    2  A    between atoms: C_5  and  C_21
    3  A    between atoms: C_7  and  C_20
    4  A    between atoms: C_9  and  N_30
    5  A    between atoms: C_11  and  C_21
    6  A    between atoms: C_11  and  O_31
    7  A    between atoms: N_14  and  C_29
    8  A    between atoms: N_15  and  C_25
    9  A    between atoms: C_20  and  N_30
   10  A    between atoms: C_22  and  C_27
                            x       y       z     vdW  Elec       q    Type
                         _______ _______ _______ _____ _____    ______ ____

>  <TORSDO>
F 10

$$$$
