=
 OpenBabel11062420333D

 32 39  0  0  1  0  0  0  0  0999 V2000
  188.6390  175.6910  143.1800 C   0  0  0  0  0  0  0  0  0  0  0  0
  194.3460  174.0410  145.8600 N   0  0  1  0  0  0  0  0  0  0  0  0
  192.8850  176.0040  145.8830 C   0  0  2  0  0  3  0  0  0  0  0  0
  185.0410  179.5980  145.3420 N   0  0  0  0  0  0  0  0  0  0  0  0
  194.4720  173.3710  144.6500 O   0  0  0  0  0  0  0  0  0  0  0  0
  184.8120  179.8190  144.0500 N   0  0  0  0  0  0  0  0  0  0  0  0
  192.2440  173.9610  144.6880 C   0  0  1  0  0  0  0  0  0  0  0  0
  188.6220  175.3900  144.6760 C   0  0  2  0  0  3  0  0  0  0  0  0
  194.2710  176.3680  146.2000 C   0  0  0  0  0  0  0  0  0  0  0  0
  185.3620  178.7300  141.9270 N   0  0  0  0  0  1  0  0  0  0  0  0
  190.7870  174.5670  142.4660 C   0  0  0  0  0  0  0  0  0  0  0  0
  191.2930  173.8500  141.5640 O   0  0  0  0  0  0  0  0  0  0  0  0
  195.1930  175.2370  145.9040 C   0  0  0  0  0  2  0  0  0  0  0  0
  194.6360  177.4830  146.5350 O   0  0  0  0  0  0  0  0  0  0  0  0
  185.4630  178.8760  143.3390 C   0  0  0  0  0  0  0  0  0  0  0  0
  189.4980  175.2600  142.2310 C   0  0  0  0  0  3  0  0  0  0  0  0
  191.5470  174.9050  143.7050 C   0  0  1  0  0  3  0  0  0  0  0  0
  186.7790  176.7160  144.0090 C   0  0  2  0  0  3  0  0  0  0  0  0
  186.1480  178.0470  144.1890 C   0  0  0  0  0  0  0  0  0  0  0  0
  187.7610  176.5440  145.1480 C   0  0  1  0  0  3  0  0  0  0  0  0
  193.2570  173.1460  144.0200 C   0  0  0  0  0  0  0  0  0  0  0  0
  189.9770  175.2860  145.3320 C   0  0  0  0  0  0  0  0  0  0  0  0
  191.7110  175.8320  148.1550 C   0  0  0  0  0  1  0  0  0  0  0  0
  191.7140  176.4430  146.7590 C   0  0  2  0  0  3  0  0  0  0  0  0
  187.0050  176.4880  146.4750 C   0  0  0  0  0  2  0  0  0  0  0  0
  187.5650  176.5140  142.8510 O   0  0  0  0  0  0  0  0  0  0  0  0
  193.0880  172.3520  143.0590 O   0  0  0  0  0  0  0  0  0  0  0  0
  186.3150  177.8620  146.7260 C   0  0  0  0  0  2  0  0  0  0  0  0
  192.9450  174.5090  145.8890 C   0  0  1  0  0  3  0  0  0  0  0  0
  190.7490  174.1230  144.7370 C   0  0  2  0  0  3  0  0  0  0  0  0
  185.8280  178.5080  145.4430 C   0  0  1  0  0  3  0  0  0  0  0  0
  190.4190  176.2520  146.1020 N   0  0  0  0  0  0  0  0  0  0  0  0
  2 29  1  0  0  0  0
  2 13  1  6  0  0  0
  3 29  1  0  0  0  0
  3  9  1  1  0  0  0
  3 24  1  0  0  0  0
  4 31  1  0  0  0  0
  5  2  1  0  0  0  0
  6  4  2  0  0  0  0
  7 21  1  6  0  0  0
  7 30  1  0  0  0  0
  7 29  1  0  0  0  0
  8  1  1  6  0  0  0
  8 20  1  0  0  0  0
  8 22  1  0  0  0  0
  9 14  2  0  0  0  0
 10 15  1  0  0  0  0
 12 11  2  0  0  0  0
 13  9  1  0  0  0  0
 15  6  1  0  0  0  0
 15 19  2  0  0  0  0
 16 11  1  0  0  0  0
 16  1  2  0  0  0  0
 17 11  1  6  0  0  0
 17  7  1  0  0  0  0
 17 30  1  0  0  0  0
 18 26  1  6  0  0  0
 18 19  1  0  0  0  0
 18 20  1  0  0  0  0
 19 31  1  0  0  0  0
 20 25  1  1  0  0  0
 21  5  1  0  0  0  0
 22 32  2  0  0  0  0
 24 23  1  1  0  0  0
 25 28  1  0  0  0  0
 26  1  1  0  0  0  0
 27 21  2  0  0  0  0
 30 22  1  0  0  0  0
 31 28  1  0  0  0  0
 32 24  1  0  0  0  0
M  END
>  <MODEL>
1

>  <REMARK>
 VINA RESULT:      -9.5      0.000      0.000
  Name = 
  0 active torsions:
  status: ('A' for Active; 'I' for Inactive)
                            x       y       z     vdW  Elec       q    Type
                         _______ _______ _______ _____ _____    ______ ____

>  <TORSDO>
F 0

$$$$
=
 OpenBabel11062420333D

 32 39  0  0  1  0  0  0  0  0999 V2000
  188.5280  177.6100  145.1050 C   0  0  0  0  0  0  0  0  0  0  0  0
  193.4850  173.4330  144.4300 N   0  0  1  0  0  0  0  0  0  0  0  0
  191.1480  173.5320  143.7130 C   0  0  2  0  0  3  0  0  0  0  0  0
  184.1090  178.0240  141.4740 N   0  0  0  0  0  0  0  0  0  0  0  0
  193.7660  173.9000  145.7080 O   0  0  0  0  0  0  0  0  0  0  0  0
  183.4580  178.2990  142.6010 N   0  0  0  0  0  2  0  0  0  0  0  0
  192.1720  175.3840  144.9520 C   0  0  1  0  0  0  0  0  0  0  0  0
  189.1770  177.5470  143.7250 C   0  0  2  0  0  3  0  0  0  0  0  0
  191.6340  172.1470  143.7570 C   0  0  0  0  0  0  0  0  0  0  0  0
  184.0450  178.8010  144.9260 N   0  0  0  0  0  1  0  0  0  0  0  0
  190.3340  176.5990  146.5550 C   0  0  0  0  0  0  0  0  0  0  0  0
  190.9290  176.7310  147.6560 O   0  0  0  0  0  0  0  0  0  0  0  0
  192.9430  172.0720  144.4610 C   0  0  0  0  0  2  0  0  0  0  0  0
  190.9940  171.1760  143.3860 O   0  0  0  0  0  0  0  0  0  0  0  0
  184.3640  178.4080  143.5950 C   0  0  0  0  0  0  0  0  0  0  0  0
  189.0530  177.3030  146.3110 C   0  0  0  0  0  3  0  0  0  0  0  0
  190.7780  175.5890  145.5500 C   0  0  1  0  0  3  0  0  0  0  0  0
  186.9810  178.4230  143.6420 C   0  0  2  0  0  3  0  0  0  0  0  0
  185.6200  178.1700  143.1030 C   0  0  0  0  0  0  0  0  0  0  0  0
  187.9270  177.5320  142.8680 C   0  0  1  0  0  3  0  0  0  0  0  0
  193.1670  175.1180  145.9890 C   0  0  0  0  0  0  0  0  0  0  0  0
  190.1240  176.3920  143.5050 C   0  0  0  0  0  0  0  0  0  0  0  0
  191.3210  174.2140  141.2480 C   0  0  0  0  0  1  0  0  0  0  0  0
  190.4390  174.1010  142.4860 C   0  0  2  0  0  3  0  0  0  0  0  0
  187.9570  177.9630  141.4020 C   0  0  0  0  0  2  0  0  0  0  0  0
  187.2240  178.0830  144.9930 O   0  0  0  0  0  0  0  0  0  0  0  0
  193.4690  175.8530  146.9650 O   0  0  0  0  0  0  0  0  0  0  0  0
  186.5520  177.7230  140.7730 C   0  0  0  0  0  2  0  0  0  0  0  0
  192.4050  174.3120  143.9360 C   0  0  1  0  0  3  0  0  0  0  0  0
  191.3010  176.5040  144.4550 C   0  0  2  0  0  3  0  0  0  0  0  0
  185.4260  177.9710  141.7570 C   0  0  0  0  0  0  0  0  0  0  0  0
  189.7640  175.3700  142.7650 N   0  0  0  0  0  0  0  0  0  0  0  0
  1 16  2  0  0  0  0
  2 13  1  1  0  0  0
  2  5  1  0  0  0  0
  3  9  1  6  0  0  0
  3 29  1  0  0  0  0
  4 31  2  0  0  0  0
  4  6  1  0  0  0  0
  5 21  1  0  0  0  0
  6 15  1  0  0  0  0
  7 17  1  0  0  0  0
  7 21  1  1  0  0  0
  8 22  1  1  0  0  0
  8  1  1  0  0  0  0
  9 13  1  0  0  0  0
 11 12  2  0  0  0  0
 14  9  2  0  0  0  0
 15 10  1  0  0  0  0
 16 11  1  0  0  0  0
 17 11  1  1  0  0  0
 18 19  1  6  0  0  0
 18 26  1  0  0  0  0
 19 15  2  0  0  0  0
 20 25  1  6  0  0  0
 20 18  1  0  0  0  0
 20  8  1  0  0  0  0
 21 27  2  0  0  0  0
 22 30  1  0  0  0  0
 24 23  1  6  0  0  0
 24 32  1  0  0  0  0
 24  3  1  0  0  0  0
 26  1  1  0  0  0  0
 28 25  1  0  0  0  0
 28 31  1  0  0  0  0
 29  2  1  0  0  0  0
 29  7  1  0  0  0  0
 30  7  1  0  0  0  0
 30 17  1  0  0  0  0
 31 19  1  0  0  0  0
 32 22  2  0  0  0  0
M  END
>  <MODEL>
2

>  <REMARK>
 VINA RESULT:      -9.5      1.905      3.987
  Name = 
  0 active torsions:
  status: ('A' for Active; 'I' for Inactive)
                            x       y       z     vdW  Elec       q    Type
                         _______ _______ _______ _____ _____    ______ ____

>  <TORSDO>
F 0

$$$$
=
 OpenBabel11062420333D

 32 39  0  0  1  0  0  0  0  0999 V2000
  191.5920  175.5190  146.4280 C   0  0  0  0  0  0  0  0  0  0  0  0
  185.9110  177.7750  144.1660 N   0  0  1  0  0  0  0  0  0  0  0  0
  188.0410  177.0630  143.1960 C   0  0  2  0  0  3  0  0  0  0  0  0
  195.2190  172.2500  143.4220 N   0  0  0  0  0  0  0  0  0  0  0  0
  185.9750  178.4960  145.3520 O   0  0  0  0  0  0  0  0  0  0  0  0
  196.1160  172.9360  144.1240 N   0  0  0  0  0  2  0  0  0  0  0  0
  187.6380  176.9220  145.6110 C   0  0  1  0  0  0  0  0  0  0  0  0
  190.6860  174.5030  145.7360 C   0  0  2  0  0  3  0  0  0  0  0  0
  187.3250  177.9760  142.2970 C   0  0  0  0  0  0  0  0  0  0  0  0
  196.0950  174.4670  146.0370 N   0  0  0  0  0  1  0  0  0  0  0  0
  189.9460  177.3510  146.9950 C   0  0  0  0  0  0  0  0  0  0  0  0
  189.6110  178.1530  147.9050 O   0  0  0  0  0  0  0  0  0  0  0  0
  186.1870  178.6250  143.0040 C   0  0  0  0  0  2  0  0  0  0  0  0
  187.6890  178.2650  141.1680 O   0  0  0  0  0  0  0  0  0  0  0  0
  195.4570  173.6820  145.0350 C   0  0  0  0  0  0  0  0  0  0  0  0
  191.2630  176.6730  147.0470 C   0  0  0  0  0  3  0  0  0  0  0  0
  189.1350  177.2090  145.7500 C   0  0  1  0  0  3  0  0  0  0  0  0
  192.9480  173.8100  145.7710 C   0  0  2  0  0  3  0  0  0  0  0  0
  194.1070  173.4920  144.8980 C   0  0  0  0  0  0  0  0  0  0  0  0
  191.7210  173.7940  144.8860 C   0  0  1  0  0  3  0  0  0  0  0  0
  186.8330  177.9370  146.2860 C   0  0  0  0  0  0  0  0  0  0  0  0
  189.5180  175.0840  144.9790 C   0  0  0  0  0  0  0  0  0  0  0  0
  187.5220  174.7170  142.3040 C   0  0  0  0  0  1  0  0  0  0  0  0
  188.5910  175.7220  142.7150 C   0  0  2  0  0  3  0  0  0  0  0  0
  191.4870  172.3790  144.3550 C   0  0  0  0  0  2  0  0  0  0  0  0
  192.9140  175.0870  146.3750 O   0  0  0  0  0  0  0  0  0  0  0  0
  186.8670  178.2550  147.5030 O   0  0  0  0  0  0  0  0  0  0  0  0
  192.6740  171.9820  143.4270 C   0  0  0  0  0  2  0  0  0  0  0  0
  187.0180  176.8010  144.2560 C   0  0  1  0  0  3  0  0  0  0  0  0
  188.5880  175.8030  145.9390 C   0  0  2  0  0  3  0  0  0  0  0  0
  193.9960  172.5560  143.8980 C   0  0  0  0  0  0  0  0  0  0  0  0
  189.5310  175.1260  143.6680 N   0  0  0  0  0  0  0  0  0  0  0  0
  1 16  2  0  0  0  0
  2 13  1  6  0  0  0
  2 29  1  0  0  0  0
  2  5  1  0  0  0  0
  3  9  1  6  0  0  0
  3 29  1  0  0  0  0
  4 31  2  0  0  0  0
  4  6  1  0  0  0  0
  5 21  1  0  0  0  0
  6 15  1  0  0  0  0
  7 17  1  0  0  0  0
  7 30  1  0  0  0  0
  7 21  1  1  0  0  0
  8 22  1  6  0  0  0
  8  1  1  0  0  0  0
  9 13  1  0  0  0  0
 11 16  1  0  0  0  0
 11 12  2  0  0  0  0
 14  9  2  0  0  0  0
 15 10  1  0  0  0  0
 17 30  1  0  0  0  0
 17 11  1  1  0  0  0
 18 19  1  6  0  0  0
 18 26  1  0  0  0  0
 19 15  2  0  0  0  0
 20 25  1  1  0  0  0
 20  8  1  0  0  0  0
 20 18  1  0  0  0  0
 21 27  2  0  0  0  0
 22 30  1  0  0  0  0
 24 23  1  1  0  0  0
 24  3  1  0  0  0  0
 24 32  1  0  0  0  0
 26  1  1  0  0  0  0
 28 31  1  0  0  0  0
 28 25  1  0  0  0  0
 29  7  1  0  0  0  0
 31 19  1  0  0  0  0
 32 22  2  0  0  0  0
M  END
>  <MODEL>
3

>  <REMARK>
 VINA RESULT:      -9.0      2.156      7.917
  Name = 
  0 active torsions:
  status: ('A' for Active; 'I' for Inactive)
                            x       y       z     vdW  Elec       q    Type
                         _______ _______ _______ _____ _____    ______ ____

>  <TORSDO>
F 0

$$$$
=
 OpenBabel11062420333D

 32 39  0  0  1  0  0  0  0  0999 V2000
  189.0350  176.9070  145.8740 C   0  0  0  0  0  0  0  0  0  0  0  0
  192.9650  172.4320  143.2280 N   0  0  1  0  0  0  0  0  0  0  0  0
  190.5790  172.9660  143.1330 C   0  0  2  0  0  3  0  0  0  0  0  0
  184.0790  178.6480  143.5740 N   0  0  0  0  0  0  0  0  0  0  0  0
  193.5850  172.5620  144.4640 O   0  0  0  0  0  0  0  0  0  0  0  0
  183.7380  178.7380  144.8560 N   0  0  0  0  0  2  0  0  0  0  0  0
  192.1380  174.3560  144.4160 C   0  0  1  0  0  0  0  0  0  0  0  0
  189.3560  177.0790  144.3910 C   0  0  2  0  0  3  0  0  0  0  0  0
  190.8240  171.5590  142.7910 C   0  0  0  0  0  0  0  0  0  0  0  0
  184.8800  178.6310  147.0200 N   0  0  0  0  0  1  0  0  0  0  0  0
  190.9120  175.3880  146.6200 C   0  0  0  0  0  0  0  0  0  0  0  0
  191.7410  175.1980  147.5480 O   0  0  0  0  0  0  0  0  0  0  0  0
  192.2220  171.1720  143.1290 C   0  0  0  0  0  2  0  0  0  0  0  0
  189.9680  170.7790  142.4080 O   0  0  0  0  0  0  0  0  0  0  0  0
  184.8380  178.5120  145.6020 C   0  0  0  0  0  0  0  0  0  0  0  0
  189.7450  176.2770  146.8340 C   0  0  0  0  0  3  0  0  0  0  0  0
  190.9580  174.5850  145.3630 C   0  0  1  0  0  3  0  0  0  0  0  0
  187.3710  178.2060  145.0140 C   0  0  2  0  0  3  0  0  0  0  0  0
  185.9040  178.2440  144.7830 C   0  0  0  0  0  0  0  0  0  0  0  0
  187.9690  177.4060  143.8780 C   0  0  1  0  0  3  0  0  0  0  0  0
  193.2720  173.7480  145.1100 C   0  0  0  0  0  0  0  0  0  0  0  0
  190.0280  175.9000  143.7310 C   0  0  0  0  0  0  0  0  0  0  0  0
  190.3370  174.1600  140.8770 C   0  0  0  0  0  1  0  0  0  0  0  0
  189.7310  173.8760  142.2470 C   0  0  2  0  0  3  0  0  0  0  0  0
  187.7580  178.1490  142.5580 C   0  0  0  0  0  2  0  0  0  0  0  0
  187.8340  177.5440  146.1740 O   0  0  0  0  0  0  0  0  0  0  0  0
  193.8930  174.2040  146.1050 O   0  0  0  0  0  0  0  0  0  0  0  0
  186.2320  178.2250  142.2550 C   0  0  0  0  0  2  0  0  0  0  0  0
  191.9670  173.5200  143.1880 C   0  0  1  0  0  3  0  0  0  0  0  0
  191.3820  175.6550  144.3700 C   0  0  2  0  0  3  0  0  0  0  0  0
  185.3980  178.3770  143.5130 C   0  0  0  0  0  0  0  0  0  0  0  0
  189.3540  175.1210  142.9200 N   0  0  0  0  0  0  0  0  0  0  0  0
  1 26  1  0  0  0  0
  1 16  2  0  0  0  0
  2 13  1  1  0  0  0
  2  5  1  0  0  0  0
  3  9  1  6  0  0  0
  3 29  1  0  0  0  0
  4  6  1  0  0  0  0
  5 21  1  0  0  0  0
  6 15  1  0  0  0  0
  7 21  1  1  0  0  0
  7 17  1  0  0  0  0
  8 22  1  6  0  0  0
  8  1  1  0  0  0  0
  9 13  1  0  0  0  0
 11 16  1  0  0  0  0
 11 12  2  0  0  0  0
 14  9  2  0  0  0  0
 15 10  1  0  0  0  0
 17 11  1  1  0  0  0
 18 19  1  6  0  0  0
 18 26  1  0  0  0  0
 19 15  2  0  0  0  0
 20 25  1  6  0  0  0
 20  8  1  0  0  0  0
 20 18  1  0  0  0  0
 21 27  2  0  0  0  0
 22 30  1  0  0  0  0
 24 23  1  6  0  0  0
 24 32  1  0  0  0  0
 24  3  1  0  0  0  0
 28 25  1  0  0  0  0
 28 31  1  0  0  0  0
 29  2  1  0  0  0  0
 29  7  1  0  0  0  0
 30  7  1  0  0  0  0
 30 17  1  0  0  0  0
 31  4  2  0  0  0  0
 31 19  1  0  0  0  0
 32 22  2  0  0  0  0
M  END
>  <MODEL>
4

>  <REMARK>
 VINA RESULT:      -8.9      2.017      4.048
  Name = 
  0 active torsions:
  status: ('A' for Active; 'I' for Inactive)
                            x       y       z     vdW  Elec       q    Type
                         _______ _______ _______ _____ _____    ______ ____

>  <TORSDO>
F 0

$$$$
=
 OpenBabel11062420333D

 32 39  0  0  1  0  0  0  0  0999 V2000
  190.3920  174.7620  142.4620 C   0  0  0  0  0  0  0  0  0  0  0  0
  186.0800  178.9090  145.0480 N   0  0  1  0  0  0  0  0  0  0  0  0
  187.3120  176.9370  145.8110 C   0  0  2  0  0  3  0  0  0  0  0  0
  194.2110  171.7380  145.4860 N   0  0  0  0  0  0  0  0  0  0  0  0
  185.5990  178.8800  143.7460 O   0  0  0  0  0  0  0  0  0  0  0  0
  193.9690  170.8430  144.5330 N   0  0  0  0  0  0  0  0  0  0  0  0
  187.6560  177.8550  143.5630 C   0  0  1  0  0  0  0  0  0  0  0  0
  190.9400  175.7660  143.4730 C   0  0  2  0  0  3  0  0  0  0  0  0
  186.0940  177.1440  146.6040 C   0  0  0  0  0  0  0  0  0  0  0  0
  192.8100  170.8010  142.3760 N   0  0  0  0  0  1  0  0  0  0  0  0
  188.2190  175.8640  141.7900 C   0  0  0  0  0  0  0  0  0  0  0  0
  187.4900  176.1250  140.7980 O   0  0  0  0  0  0  0  0  0  0  0  0
  185.2130  178.1570  145.9600 C   0  0  0  0  0  2  0  0  0  0  0  0
  185.7830  176.4860  147.5830 O   0  0  0  0  0  0  0  0  0  0  0  0
  193.1860  171.4230  143.6000 C   0  0  0  0  0  0  0  0  0  0  0  0
  189.2950  174.8510  141.6780 C   0  0  0  0  0  3  0  0  0  0  0  0
  187.9040  176.4040  143.1450 C   0  0  1  0  0  3  0  0  0  0  0  0
  192.3410  173.8740  143.2390 C   0  0  2  0  0  3  0  0  0  0  0  0
  192.8960  172.7090  143.9740 C   0  0  0  0  0  0  0  0  0  0  0  0
  191.8220  174.8380  144.2830 C   0  0  1  0  0  3  0  0  0  0  0  0
  186.5390  178.4420  142.8250 C   0  0  0  0  0  0  0  0  0  0  0  0
  189.9020  176.5240  144.2640 C   0  0  0  0  0  0  0  0  0  0  0  0
  189.2000  177.9380  147.2270 C   0  0  0  0  0  1  0  0  0  0  0  0
  188.6750  176.7260  146.4650 C   0  0  2  0  0  3  0  0  0  0  0  0
  192.9880  175.3690  145.1190 C   0  0  0  0  0  2  0  0  0  0  0  0
  191.2250  173.6490  142.4010 O   0  0  0  0  0  0  0  0  0  0  0  0
  186.4280  178.5670  141.5780 O   0  0  0  0  0  0  0  0  0  0  0  0
  193.6180  174.1910  145.9190 C   0  0  0  0  0  2  0  0  0  0  0  0
  187.3690  178.1880  144.9920 C   0  0  1  0  0  3  0  0  0  0  0  0
  189.0610  177.3730  143.3290 C   0  0  2  0  0  3  0  0  0  0  0  0
  193.5890  172.8850  145.1470 C   0  0  1  0  0  3  0  0  0  0  0  0
  189.6790  176.2270  145.5220 N   0  0  0  0  0  0  0  0  0  0  0  0
  2 13  1  1  0  0  0
  3 24  1  0  0  0  0
  3  9  1  1  0  0  0
  5  2  1  0  0  0  0
  6  4  2  0  0  0  0
  7 21  1  6  0  0  0
  7 29  1  0  0  0  0
  8  1  1  6  0  0  0
  8 22  1  0  0  0  0
  8 20  1  0  0  0  0
  9 14  2  0  0  0  0
 10 15  1  0  0  0  0
 12 11  2  0  0  0  0
 13  9  1  0  0  0  0
 15 19  2  0  0  0  0
 15  6  1  0  0  0  0
 16 11  1  0  0  0  0
 16  1  2  0  0  0  0
 17 11  1  6  0  0  0
 17 30  1  0  0  0  0
 17  7  1  0  0  0  0
 18 26  1  6  0  0  0
 18 19  1  0  0  0  0
 18 20  1  0  0  0  0
 19 31  1  0  0  0  0
 20 25  1  6  0  0  0
 21  5  1  0  0  0  0
 22 32  2  0  0  0  0
 24 23  1  6  0  0  0
 25 28  1  0  0  0  0
 26  1  1  0  0  0  0
 27 21  2  0  0  0  0
 29  2  1  0  0  0  0
 29  3  1  0  0  0  0
 30  7  1  0  0  0  0
 30 22  1  0  0  0  0
 31  4  1  0  0  0  0
 31 28  1  0  0  0  0
 32 24  1  0  0  0  0
M  END
>  <MODEL>
5

>  <REMARK>
 VINA RESULT:      -8.8      2.069      7.349
  Name = 
  0 active torsions:
  status: ('A' for Active; 'I' for Inactive)
                            x       y       z     vdW  Elec       q    Type
                         _______ _______ _______ _____ _____    ______ ____

>  <TORSDO>
F 0

$$$$
=
 OpenBabel11062420333D

 32 39  0  0  1  0  0  0  0  0999 V2000
  192.4460  176.0250  144.8730 C   0  0  0  0  0  0  0  0  0  0  0  0
  185.9790  176.7940  144.6130 N   0  0  1  0  0  0  0  0  0  0  0  0
  187.8830  177.3440  143.1770 C   0  0  2  0  0  3  0  0  0  0  0  0
  195.8760  175.7660  140.2850 N   0  0  0  0  0  0  0  0  0  0  0  0
  186.1630  176.9530  145.9800 O   0  0  0  0  0  0  0  0  0  0  0  0
  196.7110  176.3860  141.1150 N   0  0  0  0  0  2  0  0  0  0  0  0
  188.1930  176.1170  145.2780 C   0  0  1  0  0  0  0  0  0  0  0  0
  191.6950  175.1190  143.9010 C   0  0  2  0  0  3  0  0  0  0  0  0
  186.7360  178.2170  142.8980 C   0  0  0  0  0  0  0  0  0  0  0  0
  196.7930  176.9080  143.5060 N   0  0  0  0  0  1  0  0  0  0  0  0
  190.5840  176.7550  146.4180 C   0  0  0  0  0  0  0  0  0  0  0  0
  190.3020  176.9490  147.6290 O   0  0  0  0  0  0  0  0  0  0  0  0
  185.6970  178.0740  143.9550 C   0  0  0  0  0  2  0  0  0  0  0  0
  186.6940  179.0410  141.9990 O   0  0  0  0  0  0  0  0  0  0  0  0
  196.1440  176.4160  142.3380 C   0  0  0  0  0  0  0  0  0  0  0  0
  191.9990  176.6350  145.9920 C   0  0  0  0  0  3  0  0  0  0  0  0
  189.5390  176.8410  145.3560 C   0  0  1  0  0  3  0  0  0  0  0  0
  193.9840  175.3310  143.3410 C   0  0  2  0  0  3  0  0  0  0  0  0
  194.9080  175.8270  142.2900 C   0  0  0  0  0  0  0  0  0  0  0  0
  192.6150  175.2300  142.7030 C   0  0  1  0  0  3  0  0  0  0  0  0
  187.3560  176.4160  146.4380 C   0  0  0  0  0  0  0  0  0  0  0  0
  190.2550  175.4920  143.6460 C   0  0  0  0  0  0  0  0  0  0  0  0
  187.7910  175.5330  141.3650 C   0  0  0  0  0  1  0  0  0  0  0  0
  188.6230  176.6010  142.0660 C   0  0  2  0  0  3  0  0  0  0  0  0
  192.6350  174.1640  141.6070 C   0  0  0  0  0  2  0  0  0  0  0  0
  193.7710  176.1560  144.4690 O   0  0  0  0  0  0  0  0  0  0  0  0
  187.6270  176.2110  147.6500 O   0  0  0  0  0  0  0  0  0  0  0  0
  193.5920  174.6240  140.4670 C   0  0  0  0  0  2  0  0  0  0  0  0
  187.2890  176.3340  144.1060 C   0  0  1  0  0  3  0  0  0  0  0  0
  189.4590  175.3830  144.9330 C   0  0  2  0  0  3  0  0  0  0  0  0
  194.7890  175.3950  140.9910 C   0  0  0  0  0  0  0  0  0  0  0  0
  189.9060  176.0550  142.5140 N   0  0  0  0  0  0  0  0  0  0  0  0
  1 16  2  0  0  0  0
  2 13  1  6  0  0  0
  2  5  1  0  0  0  0
  3  9  1  6  0  0  0
  3 29  1  0  0  0  0
  4 31  2  0  0  0  0
  4  6  1  0  0  0  0
  5 21  1  0  0  0  0
  6 15  1  0  0  0  0
  7 17  1  0  0  0  0
  7 21  1  1  0  0  0
  8 22  1  6  0  0  0
  8  1  1  0  0  0  0
  9 13  1  0  0  0  0
 11 12  2  0  0  0  0
 14  9  2  0  0  0  0
 15 10  1  0  0  0  0
 16 11  1  0  0  0  0
 17 11  1  1  0  0  0
 18 19  1  6  0  0  0
 18 26  1  0  0  0  0
 19 15  2  0  0  0  0
 20 25  1  6  0  0  0
 20 18  1  0  0  0  0
 20  8  1  0  0  0  0
 21 27  2  0  0  0  0
 22 30  1  0  0  0  0
 24 23  1  1  0  0  0
 24 32  1  0  0  0  0
 24  3  1  0  0  0  0
 26  1  1  0  0  0  0
 28 31  1  0  0  0  0
 28 25  1  0  0  0  0
 29  2  1  0  0  0  0
 29  7  1  0  0  0  0
 30  7  1  0  0  0  0
 30 17  1  0  0  0  0
 31 19  1  0  0  0  0
 32 22  2  0  0  0  0
M  END
>  <MODEL>
6

>  <REMARK>
 VINA RESULT:      -8.7      2.909      7.779
  Name = 
  0 active torsions:
  status: ('A' for Active; 'I' for Inactive)
                            x       y       z     vdW  Elec       q    Type
                         _______ _______ _______ _____ _____    ______ ____

>  <TORSDO>
F 0

$$$$
=
 OpenBabel11062420333D

 32 39  0  0  1  0  0  0  0  0999 V2000
  189.5460  177.1900  144.5570 C   0  0  0  0  0  0  0  0  0  0  0  0
  193.3350  172.4640  142.1510 N   0  0  1  0  0  0  0  0  0  0  0  0
  190.9310  172.8510  142.3920 C   0  0  2  0  0  3  0  0  0  0  0  0
  184.1450  178.1820  142.9070 N   0  0  0  0  0  0  0  0  0  0  0  0
  194.1410  172.8740  143.2050 O   0  0  0  0  0  0  0  0  0  0  0  0
  184.0190  178.5150  144.1890 N   0  0  0  0  0  2  0  0  0  0  0  0
  192.5620  174.5480  143.0770 C   0  0  1  0  0  0  0  0  0  0  0  0
  189.5970  177.0700  143.0350 C   0  0  2  0  0  3  0  0  0  0  0  0
  191.2320  171.4170  142.2890 C   0  0  0  0  0  0  0  0  0  0  0  0
  185.5150  178.9080  146.0870 N   0  0  0  0  0  1  0  0  0  0  0  0
  191.6430  175.9490  145.2270 C   0  0  0  0  0  0  0  0  0  0  0  0
  192.6300  175.9930  146.0060 O   0  0  0  0  0  0  0  0  0  0  0  0
  192.6940  171.1760  142.4340 C   0  0  0  0  0  2  0  0  0  0  0  0
  190.3920  170.5350  142.2260 O   0  0  0  0  0  0  0  0  0  0  0  0
  185.2450  178.5000  144.7510 C   0  0  0  0  0  0  0  0  0  0  0  0
  190.4590  176.8050  145.4750 C   0  0  0  0  0  3  0  0  0  0  0  0
  191.5430  174.9080  144.1610 C   0  0  1  0  0  3  0  0  0  0  0  0
  187.6580  178.2030  143.7810 C   0  0  2  0  0  3  0  0  0  0  0  0
  186.1760  178.1220  143.8190 C   0  0  0  0  0  0  0  0  0  0  0  0
  188.1200  177.2170  142.7300 C   0  0  1  0  0  3  0  0  0  0  0  0
  193.8430  174.1500  143.6570 C   0  0  0  0  0  0  0  0  0  0  0  0
  190.2440  175.8150  142.5040 C   0  0  0  0  0  0  0  0  0  0  0  0
  190.2120  173.5440  140.0310 C   0  0  0  0  0  1  0  0  0  0  0  0
  189.8720  173.5180  141.5170 C   0  0  2  0  0  3  0  0  0  0  0  0
  187.6280  177.6640  141.3530 C   0  0  0  0  0  2  0  0  0  0  0  0
  188.3650  177.8160  144.9420 O   0  0  0  0  0  0  0  0  0  0  0  0
  194.5830  174.8290  144.4150 O   0  0  0  0  0  0  0  0  0  0  0  0
  186.0720  177.6020  141.3250 C   0  0  0  0  0  2  0  0  0  0  0  0
  192.2570  173.4710  142.0850 C   0  0  1  0  0  3  0  0  0  0  0  0
  191.7020  175.7720  142.9200 C   0  0  2  0  0  3  0  0  0  0  0  0
  185.4520  177.9680  142.6600 C   0  0  0  0  0  0  0  0  0  0  0  0
  189.5100  174.8550  141.9940 N   0  0  0  0  0  0  0  0  0  0  0  0
  1 26  1  0  0  0  0
  1 16  2  0  0  0  0
  2 13  1  1  0  0  0
  2  5  1  0  0  0  0
  3  9  1  6  0  0  0
  4  6  1  0  0  0  0
  5 21  1  0  0  0  0
  6 15  1  0  0  0  0
  7 21  1  1  0  0  0
  7 17  1  0  0  0  0
  8 22  1  1  0  0  0
  8  1  1  0  0  0  0
  9 13  1  0  0  0  0
 11 16  1  0  0  0  0
 11 12  2  0  0  0  0
 14  9  2  0  0  0  0
 15 10  1  0  0  0  0
 17 11  1  1  0  0  0
 18 19  1  1  0  0  0
 18 26  1  0  0  0  0
 19 15  2  0  0  0  0
 20 25  1  6  0  0  0
 20  8  1  0  0  0  0
 20 18  1  0  0  0  0
 21 27  2  0  0  0  0
 22 30  1  0  0  0  0
 24 23  1  6  0  0  0
 24 32  1  0  0  0  0
 24  3  1  0  0  0  0
 28 25  1  0  0  0  0
 28 31  1  0  0  0  0
 29  2  1  0  0  0  0
 29  3  1  0  0  0  0
 29  7  1  0  0  0  0
 30  7  1  0  0  0  0
 30 17  1  0  0  0  0
 31  4  2  0  0  0  0
 31 19  1  0  0  0  0
 32 22  2  0  0  0  0
M  END
>  <MODEL>
7

>  <REMARK>
 VINA RESULT:      -8.4      2.141      4.210
  Name = 
  0 active torsions:
  status: ('A' for Active; 'I' for Inactive)
                            x       y       z     vdW  Elec       q    Type
                         _______ _______ _______ _____ _____    ______ ____

>  <TORSDO>
F 0

$$$$
=
 OpenBabel11062420333D

 32 39  0  0  1  0  0  0  0  0999 V2000
  187.9770  175.3180  142.2730 C   0  0  0  0  0  0  0  0  0  0  0  0
  194.0080  173.1020  143.3640 N   0  0  1  0  0  0  0  0  0  0  0  0
  192.8240  175.2220  143.6620 C   0  0  2  0  0  3  0  0  0  0  0  0
  185.5630  179.6930  145.0860 N   0  0  0  0  0  0  0  0  0  0  0  0
  193.7160  172.3800  142.2140 O   0  0  0  0  0  0  0  0  0  0  0  0
  185.0010  179.8950  143.8970 N   0  0  0  0  0  0  0  0  0  0  0  0
  191.6630  173.2290  142.8300 C   0  0  1  0  0  0  0  0  0  0  0  0
  188.3550  175.0730  143.7320 C   0  0  2  0  0  3  0  0  0  0  0  0
  194.2730  175.4320  143.5560 C   0  0  0  0  0  0  0  0  0  0  0  0
  184.8110  178.6760  141.7810 N   0  0  0  0  0  1  0  0  0  0  0  0
  189.7060  173.9250  141.0660 C   0  0  0  0  0  0  0  0  0  0  0  0
  189.8590  173.1220  140.1090 O   0  0  0  0  0  0  0  0  0  0  0  0
  194.9510  174.1900  143.0910 C   0  0  0  0  0  2  0  0  0  0  0  0
  194.8310  176.5070  143.7020 O   0  0  0  0  0  0  0  0  0  0  0  0
  185.3230  178.8580  143.0970 C   0  0  0  0  0  0  0  0  0  0  0  0
  188.4820  174.7560  141.1530 C   0  0  0  0  0  3  0  0  0  0  0  0
  190.8170  174.2140  142.0200 C   0  0  1  0  0  3  0  0  0  0  0  0
  186.5450  176.5820  143.5170 C   0  0  2  0  0  3  0  0  0  0  0  0
  186.1310  177.9840  143.7760 C   0  0  0  0  0  0  0  0  0  0  0  0
  187.7870  176.3350  144.3460 C   0  0  1  0  0  3  0  0  0  0  0  0
  192.3560  172.2780  141.9630 C   0  0  0  0  0  0  0  0  0  0  0  0
  189.8220  174.8330  143.9910 C   0  0  0  0  0  0  0  0  0  0  0  0
  192.3320  175.2690  146.1770 C   0  0  0  0  0  1  0  0  0  0  0  0
  192.0010  175.8270  144.7980 C   0  0  2  0  0  3  0  0  0  0  0  0
  187.4370  176.4150  145.8320 C   0  0  0  0  0  2  0  0  0  0  0  0
  186.9450  176.2490  142.2020 O   0  0  0  0  0  0  0  0  0  0  0  0
  191.8410  171.4770  141.1420 O   0  0  0  0  0  0  0  0  0  0  0  0
  186.9910  177.8680  146.1730 C   0  0  0  0  0  2  0  0  0  0  0  0
  192.7290  173.7320  143.7510 C   0  0  1  0  0  3  0  0  0  0  0  0
  190.2690  173.5680  143.2820 C   0  0  2  0  0  3  0  0  0  0  0  0
  186.2300  178.5230  145.0370 C   0  0  1  0  0  3  0  0  0  0  0  0
  190.5610  175.7660  144.5410 N   0  0  0  0  0  0  0  0  0  0  0  0
  2 13  1  6  0  0  0
  2 29  1  0  0  0  0
  3  9  1  1  0  0  0
  3 29  1  0  0  0  0
  3 24  1  0  0  0  0
  5  2  1  0  0  0  0
  6  4  2  0  0  0  0
  7 21  1  6  0  0  0
  7 30  1  0  0  0  0
  7 29  1  0  0  0  0
  8  1  1  6  0  0  0
  8 22  1  0  0  0  0
  8 20  1  0  0  0  0
  9 14  2  0  0  0  0
 10 15  1  0  0  0  0
 11 16  1  0  0  0  0
 12 11  2  0  0  0  0
 13  9  1  0  0  0  0
 15 19  2  0  0  0  0
 15  6  1  0  0  0  0
 16  1  2  0  0  0  0
 17 11  1  6  0  0  0
 17  7  1  0  0  0  0
 17 30  1  0  0  0  0
 18 26  1  6  0  0  0
 18 19  1  0  0  0  0
 18 20  1  0  0  0  0
 19 31  1  0  0  0  0
 20 25  1  1  0  0  0
 21  5  1  0  0  0  0
 22 32  2  0  0  0  0
 24 23  1  1  0  0  0
 25 28  1  0  0  0  0
 26  1  1  0  0  0  0
 27 21  2  0  0  0  0
 30 22  1  0  0  0  0
 31  4  1  0  0  0  0
 31 28  1  0  0  0  0
 32 24  1  0  0  0  0
M  END
>  <MODEL>
8

>  <REMARK>
 VINA RESULT:      -8.3      1.503      1.815
  Name = 
  0 active torsions:
  status: ('A' for Active; 'I' for Inactive)
                            x       y       z     vdW  Elec       q    Type
                         _______ _______ _______ _____ _____    ______ ____

>  <TORSDO>
F 0

$$$$
=
 OpenBabel11062420333D

 32 39  0  0  1  0  0  0  0  0999 V2000
  189.8720  177.1870  145.1090 C   0  0  0  0  0  0  0  0  0  0  0  0
  192.6220  172.8400  141.1070 N   0  0  1  0  0  0  0  0  0  0  0  0
  190.4890  173.0540  142.2860 C   0  0  2  0  0  3  0  0  0  0  0  0
  184.2180  177.8900  145.7540 N   0  0  0  0  0  0  0  0  0  0  0  0
  193.7570  173.2550  141.7910 O   0  0  0  0  0  0  0  0  0  0  0  0
  184.5880  178.1550  147.0040 N   0  0  0  0  0  2  0  0  0  0  0  0
  192.1820  174.8240  142.3990 C   0  0  1  0  0  0  0  0  0  0  0  0
  189.3290  177.1410  143.6830 C   0  0  2  0  0  3  0  0  0  0  0  0
  190.7880  171.6500  141.9770 C   0  0  0  0  0  0  0  0  0  0  0  0
  186.6890  178.5600  148.1960 N   0  0  0  0  0  1  0  0  0  0  0  0
  192.1160  176.0600  144.8270 C   0  0  0  0  0  0  0  0  0  0  0  0
  193.3260  176.1340  145.1640 O   0  0  0  0  0  0  0  0  0  0  0  0
  192.2000  171.5010  141.5270 C   0  0  0  0  0  2  0  0  0  0  0  0
  190.0300  170.7170  142.1850 O   0  0  0  0  0  0  0  0  0  0  0  0
  185.9360  178.1960  147.0440 C   0  0  0  0  0  0  0  0  0  0  0  0
  191.0870  176.8220  145.5730 C   0  0  0  0  0  3  0  0  0  0  0  0
  191.6530  175.0650  143.8150 C   0  0  1  0  0  3  0  0  0  0  0  0
  187.7880  178.1060  145.1970 C   0  0  2  0  0  3  0  0  0  0  0  0
  186.4440  177.9240  145.8010 C   0  0  0  0  0  0  0  0  0  0  0  0
  187.8460  177.2030  143.9850 C   0  0  1  0  0  3  0  0  0  0  0  0
  193.6040  174.4860  142.4090 C   0  0  0  0  0  0  0  0  0  0  0  0
  189.7710  175.9570  142.8580 C   0  0  0  0  0  0  0  0  0  0  0  0
  188.8740  173.8050  140.4420 C   0  0  0  0  0  1  0  0  0  0  0  0
  189.1440  173.6880  141.9380 C   0  0  2  0  0  3  0  0  0  0  0  0
  186.8360  177.6780  142.9400 C   0  0  0  0  0  2  0  0  0  0  0  0
  188.9090  177.7150  145.9640 O   0  0  0  0  0  0  0  0  0  0  0  0
  194.5510  175.1780  142.8650 O   0  0  0  0  0  0  0  0  0  0  0  0
  185.3960  177.5140  143.5130 C   0  0  0  0  0  2  0  0  0  0  0  0
  191.5610  173.7750  141.5330 C   0  0  1  0  0  3  0  0  0  0  0  0
  191.2770  175.9930  142.6720 C   0  0  2  0  0  3  0  0  0  0  0  0
  185.3330  177.7750  145.0060 C   0  0  0  0  0  0  0  0  0  0  0  0
  188.9400  174.9740  142.6080 N   0  0  0  0  0  0  0  0  0  0  0  0
  1 16  2  0  0  0  0
  1 26  1  0  0  0  0
  2 13  1  1  0  0  0
  2 29  1  0  0  0  0
  2  5  1  0  0  0  0
  3  9  1  6  0  0  0
  4  6  1  0  0  0  0
  5 21  1  0  0  0  0
  6 15  1  0  0  0  0
  7 21  1  6  0  0  0
  7 30  1  0  0  0  0
  7 17  1  0  0  0  0
  8 22  1  1  0  0  0
  8 20  1  0  0  0  0
  8  1  1  0  0  0  0
  9 14  2  0  0  0  0
 11 12  2  0  0  0  0
 11 16  1  0  0  0  0
 13  9  1  0  0  0  0
 15 10  1  0  0  0  0
 17 11  1  1  0  0  0
 18 19  1  1  0  0  0
 18 26  1  0  0  0  0
 19 15  2  0  0  0  0
 20 25  1  6  0  0  0
 20 18  1  0  0  0  0
 21 27  2  0  0  0  0
 24 23  1  6  0  0  0
 24  3  1  0  0  0  0
 24 32  1  0  0  0  0
 25 28  1  0  0  0  0
 28 31  1  0  0  0  0
 29  3  1  0  0  0  0
 29  7  1  0  0  0  0
 30 22  1  0  0  0  0
 30 17  1  0  0  0  0
 31  4  2  0  0  0  0
 31 19  1  0  0  0  0
 32 22  2  0  0  0  0
M  END
>  <MODEL>
9

>  <REMARK>
 VINA RESULT:      -8.3      2.310      4.345
  Name = 
  0 active torsions:
  status: ('A' for Active; 'I' for Inactive)
                            x       y       z     vdW  Elec       q    Type
                         _______ _______ _______ _____ _____    ______ ____

>  <TORSDO>
F 0

$$$$
