=
 OpenBabel11072408413D

 65 70  0  0  1  0  0  0  0  0999 V2000
  191.8380  174.2160  141.5190 C   0  0  2  0  0  3  0  0  0  0  0  0
  194.7610  170.5390  139.5120 C   0  0  0  0  0  2  0  0  0  0  0  0
  195.4690  172.8870  139.8970 C   0  0  0  0  0  0  0  0  0  0  0  0
  196.3140  170.5520  143.4150 C   0  0  2  0  0  3  0  0  0  0  0  0
  187.3630  176.1060  142.7960 C   0  0  0  0  0  0  0  0  0  0  0  0
  191.1890  171.6490  139.8550 C   0  0  0  0  0  0  0  0  0  0  0  0
  196.3570  170.0780  141.9700 C   0  0  0  0  0  2  0  0  0  0  0  0
  190.9330  171.9960  141.1840 O   0  0  0  0  0  0  0  0  0  0  0  0
  195.6240  171.5830  140.1620 C   0  0  0  0  0  0  0  0  0  0  0  0
  196.5920  171.1800  141.0970 O   0  0  0  0  0  0  0  0  0  0  0  0
  190.4940  174.7170  141.2300 N   0  0  0  0  0  2  0  0  0  0  0  0
  191.8490  172.7560  141.9670 C   0  0  0  0  0  2  0  0  0  0  0  0
  193.3970  170.4080  140.1870 C   0  0  0  0  0  2  0  0  0  0  0  0
  195.0060  170.1580  145.4330 C   0  0  0  0  0  2  0  0  0  0  0  0
  195.7960  169.4560  144.3260 C   0  0  0  0  0  2  0  0  0  0  0  0
  192.0410  174.1670  144.6970 C   0  0  1  0  0  3  0  0  0  0  0  0
  193.4420  173.6580  144.9920 C   0  0  0  0  0  2  0  0  0  0  0  0
  194.9220  171.6280  145.0590 C   0  0  1  0  0  0  0  0  0  0  0  0
  188.9140  172.3400  138.9650 C   0  0  0  0  0  1  0  0  0  0  0  0
  187.3270  174.8930  142.3290 N   0  0  0  0  0  0  0  0  0  0  0  0
  195.3380  171.6950  143.6020 C   0  0  0  0  0  2  0  0  0  0  0  0
  193.4920  172.1570  145.2370 C   0  0  0  0  0  2  0  0  0  0  0  0
  195.9030  172.4090  145.9260 C   0  0  0  0  0  1  0  0  0  0  0  0
  188.4800  173.9960  142.4600 C   0  0  0  0  0  2  0  0  0  0  0  0
  190.3050  171.8220  138.8180 C   0  0  0  0  0  0  0  0  0  0  0  0
  192.0360  170.7740  137.9970 C   0  0  0  0  0  0  0  0  0  0  0  0
  191.3160  174.4300  146.0050 C   0  0  0  0  0  1  0  0  0  0  0  0
  192.1650  175.4350  143.8260 C   0  0  1  0  0  3  0  0  0  0  0  0
  192.6570  175.1960  142.3870 C   0  0  1  0  0  3  0  0  0  0  0  0
  189.7180  174.7700  142.4040 N   0  0  0  0  0  0  0  0  0  0  0  0
  190.9950  176.4240  143.8970 C   0  0  2  0  0  3  0  0  0  0  0  0
  190.8330  171.3090  137.6840 N   0  0  0  0  0  0  0  0  0  0  0  0
  192.3020  170.9980  139.3500 C   0  0  0  0  0  0  0  0  0  0  0  0
  189.7470  175.9630  143.2000 C   0  0  0  0  0  0  0  0  0  0  0  0
  191.3910  177.6940  143.4460 O   0  0  0  0  0  1  0  0  0  0  0  0
  188.6050  176.6310  143.3850 C   0  0  0  0  0  3  0  0  0  0  0  0
  193.0870  174.9130  137.8690 O   0  0  0  0  0  1  0  0  0  0  0  0
  194.1540  174.5990  138.6740 C   0  0  0  0  0  3  0  0  0  0  0  0
  194.3440  173.3470  139.0560 C   0  0  0  0  0  3  0  0  0  0  0  0
  193.8970  170.4170  136.2570 C   0  0  2  0  0  3  0  0  0  0  0  0
  192.5800  170.0330  135.6250 C   0  0  0  0  0  2  0  0  0  0  0  0
  192.7940  169.8010  137.1150 C   0  0  2  0  0  3  0  0  0  0  0  0
  193.9570  171.8110  136.3450 O   0  0  0  0  0  0  0  0  0  0  0  0
  194.9690  172.1710  135.4500 C   0  0  0  0  0  2  0  0  0  0  0  0
  194.8480  173.6510  135.1080 C   0  0  0  0  0  2  0  0  0  0  0  0
  196.1010  174.3560  135.5770 C   0  0  0  0  0  1  0  0  0  0  0  0
  186.5300  178.2650  142.1830 N   0  0  0  0  0  1  0  0  0  0  0  0
  186.1580  176.9690  142.7150 C   0  0  0  0  0  2  0  0  0  0  0  0
  194.1440  174.9180  142.3530 C   0  0  0  0  0  2  0  0  0  0  0  0
  195.3670  176.8020  141.5480 O   0  0  0  0  0  1  0  0  0  0  0  0
  194.9450  176.1580  142.7130 C   0  0  2  0  0  3  0  0  0  0  0  0
  196.1550  175.7690  143.5520 C   0  0  0  0  0  2  0  0  0  0  0  0
  194.8860  177.0890  145.2050 C   0  0  0  0  0  1  0  0  0  0  0  0
  195.8770  175.9390  145.0350 C   0  0  0  0  0  2  0  0  0  0  0  0
  196.4260  173.8650  140.5040 C   0  0  0  0  0  2  0  0  0  0  0  0
  197.4680  174.3670  139.5390 C   0  0  0  0  0  0  0  0  0  0  0  0
  197.9410  175.7050  139.6570 N   0  0  0  0  0  1  0  0  0  0  0  0
  197.9410  173.6140  138.6440 O   0  0  0  0  0  0  0  0  0  0  0  0
  190.2750  171.2600  136.4200 O   0  0  0  0  0  0  0  0  0  0  0  0
  188.9620  171.7530  134.5130 C   0  0  0  0  0  1  0  0  0  0  0  0
  189.4910  172.2930  135.8300 C   0  0  2  0  0  3  0  0  0  0  0  0
  191.6090  173.2160  135.1910 F   0  0  0  0  0  0  0  0  0  0  0  0
  189.7280  174.3700  134.6320 F   0  0  0  0  0  0  0  0  0  0  0  0
  190.4080  174.2970  136.7740 F   0  0  0  0  0  0  0  0  0  0  0  0
  190.3260  173.5660  135.5980 C   0  0  0  0  0  0  0  0  0  0  0  0
  1 12  1  1  0  0  0
  1 29  1  0  0  0  0
  2  9  1  0  0  0  0
  2 13  1  0  0  0  0
  3  9  2  0  0  0  0
  3 55  1  0  0  0  0
  4  7  1  6  0  0  0
  4 21  1  0  0  0  0
  4 15  1  0  0  0  0
  5 36  1  0  0  0  0
  6  8  1  0  0  0  0
  8 12  1  0  0  0  0
  9 10  1  0  0  0  0
 10  7  1  0  0  0  0
 11  1  1  0  0  0  0
 11 30  1  0  0  0  0
 15 14  1  0  0  0  0
 16 17  1  0  0  0  0
 16 27  1  1  0  0  0
 17 22  1  0  0  0  0
 18 22  1  0  0  0  0
 18 14  1  0  0  0  0
 18 23  1  1  0  0  0
 20 24  1  0  0  0  0
 20  5  2  0  0  0  0
 21 18  1  0  0  0  0
 25 19  1  0  0  0  0
 25  6  2  0  0  0  0
 26 33  2  0  0  0  0
 28 31  1  0  0  0  0
 28 16  1  0  0  0  0
 29 28  1  0  0  0  0
 30 24  1  0  0  0  0
 30 34  1  0  0  0  0
 32 26  1  0  0  0  0
 32 25  1  0  0  0  0
 33  6  1  0  0  0  0
 33 13  1  0  0  0  0
 34 36  2  0  0  0  0
 34 31  1  0  0  0  0
 35 31  1  0  0  0  0
 37 38  1  0  0  0  0
 38 39  2  0  0  0  0
 39  3  1  0  0  0  0
 40 43  1  0  0  0  0
 40 42  1  0  0  0  0
 41 40  1  0  0  0  0
 41 42  1  0  0  0  0
 42 26  1  0  0  0  0
 44 43  1  0  0  0  0
 45 44  1  0  0  0  0
 45 46  1  0  0  0  0
 47 48  1  0  0  0  0
 48  5  1  0  0  0  0
 49 29  1  0  0  0  0
 49 51  1  0  0  0  0
 50 51  1  0  0  0  0
 51 52  1  0  0  0  0
 52 54  1  0  0  0  0
 54 53  1  0  0  0  0
 56 57  1  0  0  0  0
 56 55  1  0  0  0  0
 58 56  2  0  0  0  0
 59 32  1  0  0  0  0
 60 61  1  0  0  0  0
 61 59  1  0  0  0  0
 62 65  1  0  0  0  0
 63 65  1  0  0  0  0
 65 61  1  0  0  0  0
 65 64  1  0  0  0  0
M  END
>  <MODEL>
1

>  <REMARK>
 VINA RESULT:      -5.6      0.000      0.000
  Name = 
  15 active torsions:
  status: ('A' for Active; 'I' for Inactive)
    1  A    between atoms: C_5  and  C_29
    2  A    between atoms: C_5  and  C_54
    3  A    between atoms: C_8  and  C_59
    4  A    between atoms: C_10  and  C_18
    5  A    between atoms: C_10  and  C_50
    6  A    between atoms: C_11  and  C_61
    7  A    between atoms: C_17  and  C_29
    8  A    between atoms: C_18  and  C_52
    9  A    between atoms: C_22  and  O_65
   10  A    between atoms: O_32  and  C_51
   11  A    between atoms: O_32  and  N_56
   12  A    between atoms: C_39  and  C_51
   13  A    between atoms: C_43  and  C_52
   14  A    between atoms: C_45  and  C_46
   15  A    between atoms: C_61  and  O_65
                            x       y       z     vdW  Elec       q    Type
                         _______ _______ _______ _____ _____    ______ ____

>  <TORSDO>
F 15

$$$$
=
 OpenBabel11072408413D

 65 70  0  0  1  0  0  0  0  0999 V2000
  191.7430  172.2920  140.1770 C   0  0  2  0  0  3  0  0  0  0  0  0
  193.0890  173.2610  145.0080 C   0  0  0  0  0  2  0  0  0  0  0  0
  192.9310  171.0040  143.9860 C   0  0  0  0  0  0  0  0  0  0  0  0
  196.9030  172.5580  143.3950 C   0  0  2  0  0  3  0  0  0  0  0  0
  189.6380  173.6320  135.8180 C   0  0  0  0  0  0  0  0  0  0  0  0
  191.0340  174.6000  142.1640 C   0  0  0  0  0  0  0  0  0  0  0  0
  195.9900  172.8090  144.5860 C   0  0  0  0  0  2  0  0  0  0  0  0
  191.7880  174.5720  140.9890 O   0  0  0  0  0  0  0  0  0  0  0  0
  193.6800  171.9530  144.5630 C   0  0  0  0  0  0  0  0  0  0  0  0
  195.0590  171.7390  144.7270 O   0  0  0  0  0  0  0  0  0  0  0  0
  190.6210  172.7030  139.3330 N   0  0  0  0  0  2  0  0  0  0  0  0
  192.6100  173.4640  140.6320 C   0  0  0  0  0  2  0  0  0  0  0  0
  192.9160  174.2450  143.8530 C   0  0  0  0  0  2  0  0  0  0  0  0
  197.8800  173.8040  141.5430 C   0  0  0  0  0  2  0  0  0  0  0  0
  197.7090  173.7990  143.0640 C   0  0  0  0  0  2  0  0  0  0  0  0
  194.2990  172.4170  138.2800 C   0  0  1  0  0  3  0  0  0  0  0  0
  195.4590  171.9790  139.1570 C   0  0  0  0  0  2  0  0  0  0  0  0
  197.0280  172.6730  140.9930 C   0  0  1  0  0  0  0  0  0  0  0  0
  188.8830  175.3920  141.0720 C   0  0  0  0  0  1  0  0  0  0  0  0
  189.6920  174.5780  136.7090 N   0  0  0  0  0  0  0  0  0  0  0  0
  196.1150  172.2690  142.1350 C   0  0  0  0  0  2  0  0  0  0  0  0
  196.2060  173.1450  139.7860 C   0  0  0  0  0  2  0  0  0  0  0  0
  197.9410  171.5150  140.6100 C   0  0  0  0  0  1  0  0  0  0  0  0
  190.7320  174.5860  137.7430 C   0  0  0  0  0  2  0  0  0  0  0  0
  189.7040  174.9360  142.2310 C   0  0  0  0  0  0  0  0  0  0  0  0
  190.3800  174.6460  144.2870 C   0  0  0  0  0  0  0  0  0  0  0  0
  194.8140  172.7420  136.8890 C   0  0  0  0  0  1  0  0  0  0  0  0
  193.2500  171.2850  138.2710 C   0  0  1  0  0  3  0  0  0  0  0  0
  192.5000  171.0760  139.5990 C   0  0  1  0  0  3  0  0  0  0  0  0
  191.0800  173.2140  138.1040 N   0  0  0  0  0  0  0  0  0  0  0  0
  192.3220  171.2280  137.0500 C   0  0  2  0  0  3  0  0  0  0  0  0
  189.3040  174.9420  143.5230 N   0  0  0  0  0  0  0  0  0  0  0  0
  191.4780  174.3960  143.4590 C   0  0  0  0  0  0  0  0  0  0  0  0
  191.2810  172.3100  137.0090 C   0  0  0  0  0  0  0  0  0  0  0  0
  191.7400  169.9560  136.9290 O   0  0  0  0  0  1  0  0  0  0  0  0
  190.5710  172.4970  135.8930 C   0  0  0  0  0  3  0  0  0  0  0  0
  189.5210  170.9610  142.4810 O   0  0  0  0  0  1  0  0  0  0  0  0
  190.8400  170.6460  142.6990 C   0  0  0  0  0  3  0  0  0  0  0  0
  191.5190  171.2750  143.6440 C   0  0  0  0  0  3  0  0  0  0  0  0
  190.3980  176.3530  146.2120 C   0  0  2  0  0  3  0  0  0  0  0  0
  191.7210  175.6260  146.2120 C   0  0  0  0  0  2  0  0  0  0  0  0
  190.4600  174.8890  145.7820 C   0  0  2  0  0  3  0  0  0  0  0  0
  190.3840  177.2480  145.1380 O   0  0  0  0  0  0  0  0  0  0  0  0
  191.7300  177.5730  144.9400 C   0  0  0  0  0  2  0  0  0  0  0  0
  191.9250  178.1190  143.5310 C   0  0  0  0  0  2  0  0  0  0  0  0
  190.5680  178.2590  142.8790 C   0  0  0  0  0  1  0  0  0  0  0  0
  188.2340  175.0660  134.5130 N   0  0  0  0  0  1  0  0  0  0  0  0
  188.6210  173.6870  134.7380 C   0  0  0  0  0  2  0  0  0  0  0  0
  193.3730  170.3810  140.6210 C   0  0  0  0  0  2  0  0  0  0  0  0
  192.4960  168.1690  140.8010 O   0  0  0  0  0  1  0  0  0  0  0  0
  193.5580  168.9120  140.2790 C   0  0  2  0  0  3  0  0  0  0  0  0
  194.8720  168.4050  140.8590 C   0  0  0  0  0  2  0  0  0  0  0  0
  195.3770  168.1660  138.4560 C   0  0  0  0  0  1  0  0  0  0  0  0
  195.9850  168.4530  139.8270 C   0  0  0  0  0  2  0  0  0  0  0  0
  193.5630  169.6870  143.6560 C   0  0  0  0  0  2  0  0  0  0  0  0
  193.6990  168.7690  144.8430 C   0  0  0  0  0  0  0  0  0  0  0  0
  192.5330  168.1680  145.3970 N   0  0  0  0  0  1  0  0  0  0  0  0
  194.8310  168.5120  145.3390 O   0  0  0  0  0  0  0  0  0  0  0  0
  188.0550  175.2380  144.0360 O   0  0  0  0  0  0  0  0  0  0  0  0
  186.9550  176.5580  145.6650 C   0  0  0  0  0  1  0  0  0  0  0  0
  187.5560  176.5520  144.2700 C   0  0  2  0  0  3  0  0  0  0  0  0
  185.9400  175.7960  142.6690 F   0  0  0  0  0  0  0  0  0  0  0  0
  185.4990  177.7180  143.8050 F   0  0  0  0  0  0  0  0  0  0  0  0
  187.0870  177.6910  142.2130 F   0  0  0  0  0  0  0  0  0  0  0  0
  186.4970  176.9440  143.2210 C   0  0  0  0  0  0  0  0  0  0  0  0
  1 12  1  6  0  0  0
  3  9  2  0  0  0  0
  4 21  1  6  0  0  0
  4  7  1  0  0  0  0
  5 36  1  0  0  0  0
  5 20  2  0  0  0  0
  6 25  2  0  0  0  0
  6 33  1  0  0  0  0
  7 10  1  0  0  0  0
  8  6  1  0  0  0  0
  9 10  1  0  0  0  0
  9  2  1  0  0  0  0
 11  1  1  0  0  0  0
 12  8  1  0  0  0  0
 13  2  1  0  0  0  0
 14 15  1  0  0  0  0
 15  4  1  0  0  0  0
 16 27  1  6  0  0  0
 16 17  1  0  0  0  0
 17 22  1  0  0  0  0
 18 23  1  6  0  0  0
 18 14  1  0  0  0  0
 18 21  1  0  0  0  0
 19 25  1  0  0  0  0
 20 24  1  0  0  0  0
 22 18  1  0  0  0  0
 24 30  1  0  0  0  0
 25 32  1  0  0  0  0
 26 42  1  0  0  0  0
 28 16  1  0  0  0  0
 28 29  1  0  0  0  0
 29  1  1  0  0  0  0
 29 49  1  0  0  0  0
 30 11  1  0  0  0  0
 31 28  1  0  0  0  0
 32 59  1  0  0  0  0
 32 26  1  0  0  0  0
 33 13  1  0  0  0  0
 33 26  2  0  0  0  0
 34 31  1  0  0  0  0
 34 30  1  0  0  0  0
 35 31  1  0  0  0  0
 36 34  2  0  0  0  0
 37 38  1  0  0  0  0
 38 39  2  0  0  0  0
 39  3  1  0  0  0  0
 40 41  1  0  0  0  0
 42 40  1  0  0  0  0
 42 41  1  0  0  0  0
 43 40  1  0  0  0  0
 44 43  1  0  0  0  0
 45 44  1  0  0  0  0
 46 45  1  0  0  0  0
 47 48  1  0  0  0  0
 48  5  1  0  0  0  0
 51 49  1  0  0  0  0
 51 50  1  0  0  0  0
 51 52  1  0  0  0  0
 53 54  1  0  0  0  0
 54 52  1  0  0  0  0
 55  3  1  0  0  0  0
 55 56  1  0  0  0  0
 56 58  2  0  0  0  0
 56 57  1  0  0  0  0
 59 61  1  0  0  0  0
 61 60  1  0  0  0  0
 62 65  1  0  0  0  0
 64 65  1  0  0  0  0
 65 63  1  0  0  0  0
 65 61  1  0  0  0  0
M  END
>  <MODEL>
2

>  <REMARK>
 VINA RESULT:      -3.3      2.960      7.624
  Name = 
  15 active torsions:
  status: ('A' for Active; 'I' for Inactive)
    1  A    between atoms: C_5  and  C_29
    2  A    between atoms: C_5  and  C_54
    3  A    between atoms: C_8  and  C_59
    4  A    between atoms: C_10  and  C_18
    5  A    between atoms: C_10  and  C_50
    6  A    between atoms: C_11  and  C_61
    7  A    between atoms: C_17  and  C_29
    8  A    between atoms: C_18  and  C_52
    9  A    between atoms: C_22  and  O_65
   10  A    between atoms: O_32  and  C_51
   11  A    between atoms: O_32  and  N_56
   12  A    between atoms: C_39  and  C_51
   13  A    between atoms: C_43  and  C_52
   14  A    between atoms: C_45  and  C_46
   15  A    between atoms: C_61  and  O_65
                            x       y       z     vdW  Elec       q    Type
                         _______ _______ _______ _____ _____    ______ ____

>  <TORSDO>
F 15

$$$$
=
 OpenBabel11072408413D

 65 70  0  0  1  0  0  0  0  0999 V2000
  191.6560  174.2500  141.8640 C   0  0  2  0  0  3  0  0  0  0  0  0
  195.0010  171.6190  139.0380 C   0  0  0  0  0  2  0  0  0  0  0  0
  195.5870  173.3670  140.7010 C   0  0  0  0  0  0  0  0  0  0  0  0
  195.4260  169.5380  142.6630 C   0  0  2  0  0  3  0  0  0  0  0  0
  187.0120  175.9040  142.8230 C   0  0  0  0  0  0  0  0  0  0  0  0
  191.4760  172.9180  139.0410 C   0  0  0  0  0  0  0  0  0  0  0  0
  195.8600  169.8150  141.2310 C   0  0  0  0  0  2  0  0  0  0  0  0
  190.8680  172.6160  140.2620 O   0  0  0  0  0  0  0  0  0  0  0  0
  195.6570  172.0890  140.3050 C   0  0  0  0  0  0  0  0  0  0  0  0
  196.3310  171.1550  141.1100 O   0  0  0  0  0  0  0  0  0  0  0  0
  190.4450  175.0120  141.5580 N   0  0  0  0  0  2  0  0  0  0  0  0
  191.5380  172.7690  141.5100 C   0  0  0  0  0  2  0  0  0  0  0  0
  193.5030  171.3730  139.2150 C   0  0  0  0  0  2  0  0  0  0  0  0
  193.6140  168.4120  143.8400 C   0  0  0  0  0  2  0  0  0  0  0  0
  194.6740  168.2250  142.7510 C   0  0  0  0  0  2  0  0  0  0  0  0
  190.9810  172.6530  144.5360 C   0  0  1  0  0  3  0  0  0  0  0  0
  192.2460  171.8740  144.8560 C   0  0  0  0  0  2  0  0  0  0  0  0
  193.6420  169.8760  144.2440 C   0  0  1  0  0  0  0  0  0  0  0  0
  189.5350  174.2630  138.1100 C   0  0  0  0  0  1  0  0  0  0  0  0
  187.0990  175.0830  141.8180 N   0  0  0  0  0  0  0  0  0  0  0  0
  194.4410  170.5750  143.1610 C   0  0  0  0  0  2  0  0  0  0  0  0
  192.2200  170.4500  144.3210 C   0  0  0  0  0  2  0  0  0  0  0  0
  194.3510  169.9980  145.5870 C   0  0  0  0  0  1  0  0  0  0  0  0
  188.1680  174.0810  141.7500 C   0  0  0  0  0  2  0  0  0  0  0  0
  190.9110  173.6900  138.0560 C   0  0  0  0  0  0  0  0  0  0  0  0
  192.7960  172.9340  137.2530 C   0  0  0  0  0  0  0  0  0  0  0  0
  189.9270  172.3550  145.5870 C   0  0  0  0  0  1  0  0  0  0  0  0
  191.3450  174.1520  144.4730 C   0  0  1  0  0  3  0  0  0  0  0  0
  192.2110  174.5670  143.2700 C   0  0  1  0  0  3  0  0  0  0  0  0
  189.3770  174.6040  142.3810 N   0  0  0  0  0  0  0  0  0  0  0  0
  190.2050  175.1390  144.7530 C   0  0  2  0  0  3  0  0  0  0  0  0
  191.7270  173.7160  136.9780 N   0  0  0  0  0  0  0  0  0  0  0  0
  192.6820  172.4410  138.5560 C   0  0  0  0  0  0  0  0  0  0  0  0
  189.1930  175.2500  143.6480 C   0  0  0  0  0  0  0  0  0  0  0  0
  190.7150  176.3990  145.1050 O   0  0  0  0  0  1  0  0  0  0  0  0
  188.0470  175.9000  143.8680 C   0  0  0  0  0  3  0  0  0  0  0  0
  194.2490  175.8740  138.2880 O   0  0  0  0  0  1  0  0  0  0  0  0
  195.1300  175.0260  138.9120 C   0  0  0  0  0  3  0  0  0  0  0  0
  194.7380  174.3280  139.9650 C   0  0  0  0  0  3  0  0  0  0  0  0
  193.2250  171.2800  135.3300 C   0  0  2  0  0  3  0  0  0  0  0  0
  194.1900  170.9650  136.4480 C   0  0  0  0  0  2  0  0  0  0  0  0
  193.7620  172.4070  136.2100 C   0  0  2  0  0  3  0  0  0  0  0  0
  191.9530  170.8400  135.7050 O   0  0  0  0  0  0  0  0  0  0  0  0
  191.5880  169.9380  134.6990 C   0  0  0  0  0  2  0  0  0  0  0  0
  191.8550  168.5130  135.1660 C   0  0  0  0  0  2  0  0  0  0  0  0
  191.1810  168.3120  136.5040 C   0  0  0  0  0  1  0  0  0  0  0  0
  186.3400  178.1830  142.5380 N   0  0  0  0  0  1  0  0  0  0  0  0
  185.8780  176.8590  142.9040 C   0  0  0  0  0  2  0  0  0  0  0  0
  193.6490  174.1330  143.4520 C   0  0  0  0  0  2  0  0  0  0  0  0
  195.1100  175.7110  144.4870 O   0  0  0  0  0  1  0  0  0  0  0  0
  194.2240  174.6640  144.7540 C   0  0  2  0  0  3  0  0  0  0  0  0
  194.9550  173.5500  145.4910 C   0  0  0  0  0  2  0  0  0  0  0  0
  197.2740  173.5940  146.3310 C   0  0  0  0  0  1  0  0  0  0  0  0
  196.4130  173.4740  145.0750 C   0  0  0  0  0  2  0  0  0  0  0  0
  196.3450  173.7890  141.9210 C   0  0  0  0  0  2  0  0  0  0  0  0
  197.2280  174.9890  141.6970 C   0  0  0  0  0  0  0  0  0  0  0  0
  197.2730  176.0150  142.6840 N   0  0  0  0  0  1  0  0  0  0  0  0
  197.9410  175.0870  140.6610 O   0  0  0  0  0  0  0  0  0  0  0  0
  191.5360  174.3590  135.7690 O   0  0  0  0  0  0  0  0  0  0  0  0
  190.1730  175.8380  134.5200 C   0  0  0  0  0  1  0  0  0  0  0  0
  191.2190  175.7390  135.6170 C   0  0  2  0  0  3  0  0  0  0  0  0
  193.3470  175.7770  134.5130 F   0  0  0  0  0  0  0  0  0  0  0  0
  192.1100  177.6880  134.5140 F   0  0  0  0  0  0  0  0  0  0  0  0
  193.1050  176.9920  136.4060 F   0  0  0  0  0  0  0  0  0  0  0  0
  192.4680  176.5640  135.2510 C   0  0  0  0  0  0  0  0  0  0  0  0
  1 12  1  1  0  0  0
  1 29  1  0  0  0  0
  2 13  1  0  0  0  0
  2  9  1  0  0  0  0
  3 55  1  0  0  0  0
  4  7  1  6  0  0  0
  4 15  1  0  0  0  0
  4 21  1  0  0  0  0
  5 48  1  0  0  0  0
  5 36  1  0  0  0  0
  6  8  1  0  0  0  0
  8 12  1  0  0  0  0
  9  3  2  0  0  0  0
  9 10  1  0  0  0  0
 10  7  1  0  0  0  0
 11  1  1  0  0  0  0
 11 30  1  0  0  0  0
 14 18  1  0  0  0  0
 15 14  1  0  0  0  0
 16 17  1  0  0  0  0
 16 27  1  1  0  0  0
 18 22  1  0  0  0  0
 18 23  1  1  0  0  0
 20  5  2  0  0  0  0
 21 18  1  0  0  0  0
 22 17  1  0  0  0  0
 24 20  1  0  0  0  0
 24 30  1  0  0  0  0
 25 19  1  0  0  0  0
 25  6  2  0  0  0  0
 26 33  2  0  0  0  0
 28 16  1  0  0  0  0
 28 31  1  0  0  0  0
 29 49  1  0  0  0  0
 29 28  1  0  0  0  0
 30 34  1  0  0  0  0
 31 35  1  0  0  0  0
 32 26  1  0  0  0  0
 32 25  1  0  0  0  0
 33  6  1  0  0  0  0
 33 13  1  0  0  0  0
 34 36  2  0  0  0  0
 34 31  1  0  0  0  0
 37 38  1  0  0  0  0
 38 39  2  0  0  0  0
 39  3  1  0  0  0  0
 40 43  1  0  0  0  0
 40 42  1  0  0  0  0
 40 41  1  0  0  0  0
 42 41  1  0  0  0  0
 42 26  1  0  0  0  0
 44 45  1  0  0  0  0
 44 43  1  0  0  0  0
 45 46  1  0  0  0  0
 47 48  1  0  0  0  0
 49 51  1  0  0  0  0
 50 51  1  0  0  0  0
 51 52  1  0  0  0  0
 54 52  1  0  0  0  0
 54 53  1  0  0  0  0
 56 55  1  0  0  0  0
 56 57  1  0  0  0  0
 58 56  2  0  0  0  0
 59 32  1  0  0  0  0
 60 61  1  0  0  0  0
 61 59  1  0  0  0  0
 62 65  1  0  0  0  0
 63 65  1  0  0  0  0
 65 61  1  0  0  0  0
 65 64  1  0  0  0  0
M  END
>  <MODEL>
3

>  <REMARK>
 VINA RESULT:      -3.2      1.858      2.537
  Name = 
  15 active torsions:
  status: ('A' for Active; 'I' for Inactive)
    1  A    between atoms: C_5  and  C_29
    2  A    between atoms: C_5  and  C_54
    3  A    between atoms: C_8  and  C_59
    4  A    between atoms: C_10  and  C_18
    5  A    between atoms: C_10  and  C_50
    6  A    between atoms: C_11  and  C_61
    7  A    between atoms: C_17  and  C_29
    8  A    between atoms: C_18  and  C_52
    9  A    between atoms: C_22  and  O_65
   10  A    between atoms: O_32  and  C_51
   11  A    between atoms: O_32  and  N_56
   12  A    between atoms: C_39  and  C_51
   13  A    between atoms: C_43  and  C_52
   14  A    between atoms: C_45  and  C_46
   15  A    between atoms: C_61  and  O_65
                            x       y       z     vdW  Elec       q    Type
                         _______ _______ _______ _____ _____    ______ ____

>  <TORSDO>
F 15

$$$$
