=
 OpenBabel11072409333D

 58 64  0  0  1  0  0  0  0  0999 V2000
  187.3180  178.6690  141.9920 O   0  0  0  0  0  0  0  0  0  0  0  0
  187.7880  177.5110  142.1540 C   0  0  0  0  0  0  0  0  0  0  0  0
  188.6630  174.5050  141.9680 C   0  0  0  0  0  0  0  0  0  0  0  0
  190.1020  176.6330  142.3970 C   0  0  0  0  0  2  0  0  0  0  0  0
  190.2530  173.1110  141.9830 C   0  0  0  0  0  0  0  0  0  0  0  0
  187.1650  176.4020  141.5120 N   0  0  0  0  0  2  0  0  0  0  0  0
  187.2700  175.0500  142.0450 C   0  0  0  0  0  2  0  0  0  0  0  0
  188.9480  177.3130  142.9670 N   0  0  0  0  0  0  0  0  0  0  0  0
  188.9130  173.1870  141.8430 N   0  0  0  0  0  0  0  0  0  0  0  0
  190.8150  174.2800  142.1940 O   0  0  0  0  0  0  0  0  0  0  0  0
  189.8570  175.1690  142.2050 C   0  0  0  0  0  0  0  0  0  0  0  0
  191.5650  169.9450  138.2850 N   0  0  0  0  0  0  0  0  0  0  0  0
  192.8030  170.5060  143.2480 C   0  0  0  0  0  2  0  0  0  0  0  0
  191.0100  171.8230  141.9110 C   0  0  1  0  0  3  0  0  0  0  0  0
  193.1530  168.1660  142.9670 O   0  0  0  0  0  1  0  0  0  0  0  0
  191.0710  172.1750  139.3730 C   0  0  2  0  0  3  0  0  0  0  0  0
  192.2360  169.1860  142.7200 C   0  0  2  0  0  3  0  0  0  0  0  0
  191.8660  171.7170  140.6220 C   0  0  2  0  0  3  0  0  0  0  0  0
  191.7980  171.6580  143.2190 C   0  0  0  0  0  2  0  0  0  0  0  0
  190.6570  171.0260  138.4980 C   0  0  0  0  0  0  0  0  0  0  0  0
  191.9040  169.2120  141.2210 C   0  0  0  0  0  2  0  0  0  0  0  0
  192.8470  169.9840  138.9900 C   0  0  1  0  0  3  0  0  0  0  0  0
  192.6110  170.3490  140.4630 C   0  0  1  0  0  3  0  0  0  0  0  0
  189.5270  171.0310  137.9430 O   0  0  0  0  0  0  0  0  0  0  0  0
  191.1970  168.8790  137.5340 O   0  0  0  0  0  1  0  0  0  0  0  0
  193.6470  168.6940  138.8290 C   0  0  0  0  0  3  0  0  0  0  0  0
  194.7850  168.9270  137.8530 C   0  0  0  0  0  2  0  0  0  0  0  0
  195.0570  168.9080  139.3420 C   0  0  0  0  0  2  0  0  0  0  0  0
  191.9060  173.1790  138.5900 C   0  0  0  0  0  2  0  0  0  0  0  0
  193.0610  173.6980  139.4310 C   0  0  0  0  0  2  0  0  0  0  0  0
  196.7520  172.3370  137.7210 C   0  0  0  0  0  3  0  0  0  0  0  0
  194.3530  173.2540  138.8400 C   0  0  0  0  0  0  0  0  0  0  0  0
  196.5650  172.2940  139.1070 C   0  0  0  0  0  3  0  0  0  0  0  0
  195.3660  172.7490  139.6660 C   0  0  0  0  0  3  0  0  0  0  0  0
  195.7390  172.8350  136.8930 C   0  0  0  0  0  3  0  0  0  0  0  0
  194.5400  173.2890  137.4520 C   0  0  0  0  0  3  0  0  0  0  0  0
  189.0880  178.0310  144.2290 C   0  0  0  0  0  2  0  0  0  0  0  0
  190.0440  177.2920  145.1520 C   0  0  0  0  0  2  0  0  0  0  0  0
  189.4320  177.1320  146.5350 C   0  0  2  0  0  3  0  0  0  0  0  0
  190.4960  176.9870  147.6300 C   0  0  0  0  0  2  0  0  0  0  0  0
  190.9880  175.5540  147.8110 C   0  0  0  0  0  2  0  0  0  0  0  0
  191.2640  174.0590  145.3880 O   0  0  0  0  0  0  0  0  0  0  0  0
  192.3080  174.5400  145.9050 C   0  0  0  0  0  0  0  0  0  0  0  0
  192.2310  175.3480  147.0800 N   0  0  0  0  0  2  0  0  0  0  0  0
  193.6320  174.2830  145.2690 C   0  0  0  0  0  2  0  0  0  0  0  0
  193.7960  175.1050  143.9960 C   0  0  0  0  0  3  0  0  0  0  0  0
  194.3200  174.2320  142.9010 C   0  0  0  0  0  3  0  0  0  0  0  0
  195.1390  173.3580  143.1400 O   0  0  0  0  0  0  0  0  0  0  0  0
  194.7520  176.2290  144.2380 C   0  0  0  0  0  3  0  0  0  0  0  0
  195.7020  176.0830  144.9890 O   0  0  0  0  0  0  0  0  0  0  0  0
  188.4330  175.9840  146.5470 C   0  0  0  0  0  2  0  0  0  0  0  0
  187.1760  176.3870  147.3010 C   0  0  0  0  0  2  0  0  0  0  0  0
  185.0100  177.6170  144.4500 C   0  0  0  0  0  3  0  0  0  0  0  0
  184.7350  178.9260  144.8590 C   0  0  0  0  0  3  0  0  0  0  0  0
  185.8070  176.7890  145.2490 C   0  0  0  0  0  3  0  0  0  0  0  0
  186.0490  178.5810  146.8620 C   0  0  0  0  0  3  0  0  0  0  0  0
  186.3300  177.2710  146.4540 C   0  0  0  0  0  0  0  0  0  0  0  0
  185.2520  179.4070  146.0650 C   0  0  0  0  0  3  0  0  0  0  0  0
  1  2  2  0  0  0  0
  2  8  1  0  0  0  0
  3  7  1  0  0  0  0
  3 11  2  0  0  0  0
  4  8  1  0  0  0  0
  5 10  1  0  0  0  0
  6  7  1  0  0  0  0
  6  2  1  0  0  0  0
  8 37  1  0  0  0  0
  9  3  1  0  0  0  0
  9  5  2  0  0  0  0
 10 11  1  0  0  0  0
 11  4  1  0  0  0  0
 12 20  1  0  0  0  0
 12 22  1  0  0  0  0
 14  5  1  1  0  0  0
 14 19  1  0  0  0  0
 16 29  1  6  0  0  0
 16 18  1  0  0  0  0
 17 15  1  6  0  0  0
 17 13  1  0  0  0  0
 18 14  1  0  0  0  0
 19 13  1  0  0  0  0
 20 16  1  0  0  0  0
 21 17  1  0  0  0  0
 22 23  1  0  0  0  0
 23 18  1  0  0  0  0
 23 21  1  0  0  0  0
 24 20  2  0  0  0  0
 25 12  1  0  0  0  0
 26 22  1  0  0  0  0
 26 28  1  0  0  0  0
 27 26  1  0  0  0  0
 27 28  1  0  0  0  0
 29 30  1  0  0  0  0
 31 33  1  0  0  0  0
 32 30  1  0  0  0  0
 32 34  1  0  0  0  0
 33 34  2  0  0  0  0
 35 36  1  0  0  0  0
 35 31  2  0  0  0  0
 36 32  2  0  0  0  0
 37 38  1  0  0  0  0
 38 39  1  0  0  0  0
 39 51  1  0  0  0  0
 39 40  1  0  0  0  0
 40 41  1  0  0  0  0
 42 43  2  0  0  0  0
 43 44  1  0  0  0  0
 44 41  1  0  0  0  0
 45 43  1  0  0  0  0
 46 49  1  0  0  0  0
 46 45  1  0  0  0  0
 47 48  2  0  0  0  0
 47 46  1  0  0  0  0
 49 50  2  0  0  0  0
 51 52  1  0  0  0  0
 53 54  2  0  0  0  0
 53 55  1  0  0  0  0
 54 58  1  0  0  0  0
 55 57  2  0  0  0  0
 57 56  1  0  0  0  0
 57 52  1  0  0  0  0
 58 56  2  0  0  0  0
M  END
>  <MODEL>
1

>  <REMARK>
 VINA RESULT:      -6.2      0.000      0.000
  Name = 
  18 active torsions:
  status: ('A' for Active; 'I' for Inactive)
    1  A    between atoms: C_1  and  C_13
    2  A    between atoms: C_4  and  C_41
    3  A    between atoms: C_7  and  C_10
    4  A    between atoms: C_7  and  C_46
    5  A    between atoms: C_7  and  C_47
    6  A    between atoms: C_10  and  C_54
    7  A    between atoms: C_12  and  C_33
    8  A    between atoms: C_13  and  C_31
    9  A    between atoms: C_13  and  C_39
   10  A    between atoms: C_14  and  C_31
   11  A    between atoms: C_18  and  C_56
   12  A    between atoms: C_19  and  C_24
   13  A    between atoms: C_24  and  C_56
   14  A    between atoms: C_26  and  C_54
   15  A    between atoms: C_28  and  N_43
   16  A    between atoms: C_28  and  C_47
   17  A    between atoms: N_38  and  C_40
   18  A    between atoms: C_40  and  C_46
                            x       y       z     vdW  Elec       q    Type
                         _______ _______ _______ _____ _____    ______ ____

>  <TORSDO>
F 18

$$$$
=
 OpenBabel11072409333D

 58 64  0  0  1  0  0  0  0  0999 V2000
  195.7140  173.4870  141.1060 O   0  0  0  0  0  0  0  0  0  0  0  0
  194.6770  173.9780  141.6270 C   0  0  0  0  0  0  0  0  0  0  0  0
  192.1800  175.6820  142.4640 C   0  0  0  0  0  0  0  0  0  0  0  0
  192.3490  173.1470  141.8900 C   0  0  0  0  0  2  0  0  0  0  0  0
  190.0930  175.7330  142.7970 C   0  0  0  0  0  0  0  0  0  0  0  0
  194.4340  175.3790  141.5250 N   0  0  0  0  0  2  0  0  0  0  0  0
  193.6210  176.0890  142.5050 C   0  0  0  0  0  2  0  0  0  0  0  0
  193.7440  173.1340  142.3060 N   0  0  0  0  0  0  0  0  0  0  0  0
  191.1860  176.5240  142.8070 N   0  0  0  0  0  0  0  0  0  0  0  0
  190.3630  174.4850  142.4880 O   0  0  0  0  0  0  0  0  0  0  0  0
  191.6530  174.4120  142.2870 C   0  0  0  0  0  0  0  0  0  0  0  0
  187.4060  176.3420  147.0200 N   0  0  0  0  0  0  0  0  0  0  0  0
  186.8930  177.7760  142.1040 C   0  0  0  0  0  2  0  0  0  0  0  0
  188.7190  176.2330  143.1150 C   0  0  1  0  0  3  0  0  0  0  0  0
  184.6090  177.6730  142.7750 O   0  0  0  0  0  1  0  0  0  0  0  0
  189.4740  176.3010  145.5630 C   0  0  2  0  0  3  0  0  0  0  0  0
  185.8050  176.9590  142.8060 C   0  0  2  0  0  3  0  0  0  0  0  0
  188.6760  177.0240  144.4480 C   0  0  2  0  0  3  0  0  0  0  0  0
  188.1970  177.0050  141.8940 C   0  0  0  0  0  2  0  0  0  0  0  0
  188.5830  175.6580  146.5880 C   0  0  0  0  0  0  0  0  0  0  0  0
  186.1420  176.6030  144.2620 C   0  0  0  0  0  2  0  0  0  0  0  0
  187.0920  177.6240  146.3870 C   0  0  1  0  0  3  0  0  0  0  0  0
  187.2420  177.4940  144.8640 C   0  0  1  0  0  3  0  0  0  0  0  0
  188.8860  174.5370  147.0730 O   0  0  0  0  0  0  0  0  0  0  0  0
  186.5650  175.7630  147.9110 O   0  0  0  0  0  1  0  0  0  0  0  0
  185.7230  178.1630  146.7960 C   0  0  0  0  0  3  0  0  0  0  0  0
  185.9010  179.4780  147.5310 C   0  0  0  0  0  2  0  0  0  0  0  0
  185.4660  179.4750  146.0810 C   0  0  0  0  0  2  0  0  0  0  0  0
  190.4270  177.2920  146.2190 C   0  0  0  0  0  2  0  0  0  0  0  0
  191.2330  176.6220  147.3190 C   0  0  0  0  0  2  0  0  0  0  0  0
  194.7530  174.7610  145.7240 C   0  0  0  0  0  3  0  0  0  0  0  0
  192.4470  175.9850  146.7380 C   0  0  0  0  0  0  0  0  0  0  0  0
  194.7910  176.1000  146.1260 C   0  0  0  0  0  3  0  0  0  0  0  0
  193.6410  176.7110  146.6360 C   0  0  0  0  0  3  0  0  0  0  0  0
  193.5630  174.0310  145.8310 C   0  0  0  0  0  3  0  0  0  0  0  0
  192.4130  174.6410  146.3410 C   0  0  0  0  0  3  0  0  0  0  0  0
  194.2210  172.0710  143.1820 C   0  0  0  0  0  2  0  0  0  0  0  0
  193.4420  170.7890  142.9300 C   0  0  0  0  0  2  0  0  0  0  0  0
  194.2220  169.8650  142.0080 C   0  0  2  0  0  3  0  0  0  0  0  0
  193.3850  168.6710  141.5350 C   0  0  0  0  0  2  0  0  0  0  0  0
  192.0780  169.0750  140.8580 C   0  0  0  0  0  2  0  0  0  0  0  0
  190.2960  171.0930  139.8920 O   0  0  0  0  0  0  0  0  0  0  0  0
  191.3820  170.9230  139.2750 C   0  0  0  0  0  0  0  0  0  0  0  0
  192.3420  169.9750  139.7430 N   0  0  0  0  0  2  0  0  0  0  0  0
  191.6760  171.7360  138.0610 C   0  0  0  0  0  2  0  0  0  0  0  0
  191.3460  173.2050  138.2940 C   0  0  0  0  0  3  0  0  0  0  0  0
  190.4600  173.7000  137.1950 C   0  0  0  0  0  3  0  0  0  0  0  0
  189.2970  173.9980  137.4200 O   0  0  0  0  0  0  0  0  0  0  0  0
  192.6060  174.0100  138.3180 C   0  0  0  0  0  3  0  0  0  0  0  0
  193.1000  174.4180  137.2800 O   0  0  0  0  0  0  0  0  0  0  0  0
  195.5250  169.4310  142.6660 C   0  0  0  0  0  2  0  0  0  0  0  0
  195.3060  168.1660  143.4820 C   0  0  0  0  0  2  0  0  0  0  0  0
  197.3860  168.6330  146.6100 C   0  0  0  0  0  3  0  0  0  0  0  0
  196.3940  168.8470  147.5720 C   0  0  0  0  0  3  0  0  0  0  0  0
  197.0300  168.4110  145.2750 C   0  0  0  0  0  3  0  0  0  0  0  0
  194.6900  168.6200  145.8670 C   0  0  0  0  0  3  0  0  0  0  0  0
  195.6820  168.4010  144.9030 C   0  0  0  0  0  0  0  0  0  0  0  0
  195.0460  168.8420  147.2000 C   0  0  0  0  0  3  0  0  0  0  0  0
  1  2  2  0  0  0  0
  2  8  1  0  0  0  0
  3  7  1  0  0  0  0
  3  9  1  0  0  0  0
  4 11  1  0  0  0  0
  4  8  1  0  0  0  0
  5  9  2  0  0  0  0
  6  2  1  0  0  0  0
  6  7  1  0  0  0  0
  8 37  1  0  0  0  0
 10  5  1  0  0  0  0
 11  3  2  0  0  0  0
 11 10  1  0  0  0  0
 12 25  1  0  0  0  0
 13 17  1  0  0  0  0
 14  5  1  6  0  0  0
 14 18  1  0  0  0  0
 16 29  1  1  0  0  0
 16 20  1  0  0  0  0
 17 15  1  1  0  0  0
 17 21  1  0  0  0  0
 18 23  1  0  0  0  0
 18 16  1  0  0  0  0
 19 13  1  0  0  0  0
 19 14  1  0  0  0  0
 20 12  1  0  0  0  0
 20 24  2  0  0  0  0
 21 23  1  0  0  0  0
 22 26  1  0  0  0  0
 22 12  1  0  0  0  0
 23 22  1  0  0  0  0
 26 27  1  0  0  0  0
 28 26  1  0  0  0  0
 28 27  1  0  0  0  0
 29 30  1  0  0  0  0
 31 35  2  0  0  0  0
 31 33  1  0  0  0  0
 32 30  1  0  0  0  0
 33 34  2  0  0  0  0
 34 32  1  0  0  0  0
 35 36  1  0  0  0  0
 36 32  2  0  0  0  0
 38 37  1  0  0  0  0
 39 51  1  0  0  0  0
 39 38  1  0  0  0  0
 40 39  1  0  0  0  0
 41 40  1  0  0  0  0
 43 44  1  0  0  0  0
 43 42  2  0  0  0  0
 44 41  1  0  0  0  0
 45 46  1  0  0  0  0
 45 43  1  0  0  0  0
 46 49  1  0  0  0  0
 47 48  2  0  0  0  0
 47 46  1  0  0  0  0
 50 49  2  0  0  0  0
 51 52  1  0  0  0  0
 52 57  1  0  0  0  0
 53 54  1  0  0  0  0
 55 53  2  0  0  0  0
 56 58  1  0  0  0  0
 57 55  1  0  0  0  0
 57 56  2  0  0  0  0
 58 54  2  0  0  0  0
M  END
>  <MODEL>
2

>  <REMARK>
 VINA RESULT:      -6.1      2.696      9.747
  Name = 
  18 active torsions:
  status: ('A' for Active; 'I' for Inactive)
    1  A    between atoms: C_1  and  C_13
    2  A    between atoms: C_4  and  C_41
    3  A    between atoms: C_7  and  C_10
    4  A    between atoms: C_7  and  C_46
    5  A    between atoms: C_7  and  C_47
    6  A    between atoms: C_10  and  C_54
    7  A    between atoms: C_12  and  C_33
    8  A    between atoms: C_13  and  C_31
    9  A    between atoms: C_13  and  C_39
   10  A    between atoms: C_14  and  C_31
   11  A    between atoms: C_18  and  C_56
   12  A    between atoms: C_19  and  C_24
   13  A    between atoms: C_24  and  C_56
   14  A    between atoms: C_26  and  C_54
   15  A    between atoms: C_28  and  N_43
   16  A    between atoms: C_28  and  C_47
   17  A    between atoms: N_38  and  C_40
   18  A    between atoms: C_40  and  C_46
                            x       y       z     vdW  Elec       q    Type
                         _______ _______ _______ _____ _____    ______ ____

>  <TORSDO>
F 18

$$$$
=
 OpenBabel11072409333D

 58 64  0  0  1  0  0  0  0  0999 V2000
  186.1330  177.8510  140.0420 O   0  0  0  0  0  0  0  0  0  0  0  0
  187.0170  177.3310  140.7730 C   0  0  0  0  0  0  0  0  0  0  0  0
  189.3320  175.6480  142.0550 C   0  0  0  0  0  0  0  0  0  0  0  0
  189.0460  178.2310  141.8930 C   0  0  0  0  0  2  0  0  0  0  0  0
  191.2160  175.6560  143.0170 C   0  0  0  0  0  0  0  0  0  0  0  0
  187.4430  175.9940  140.5190 N   0  0  0  0  0  2  0  0  0  0  0  0
  188.0030  175.1550  141.5710 C   0  0  0  0  0  2  0  0  0  0  0  0
  187.5990  178.0790  141.8430 N   0  0  0  0  0  0  0  0  0  0  0  0
  190.2700  174.8150  142.5470 N   0  0  0  0  0  0  0  0  0  0  0  0
  190.9050  176.9220  142.8530 O   0  0  0  0  0  0  0  0  0  0  0  0
  189.7350  176.9570  142.2700 C   0  0  0  0  0  0  0  0  0  0  0  0
  194.4230  171.8470  142.2280 N   0  0  0  0  0  0  0  0  0  0  0  0
  194.4300  176.1160  145.1020 C   0  0  0  0  0  2  0  0  0  0  0  0
  192.4800  175.1860  143.6630 C   0  0  1  0  0  3  0  0  0  0  0  0
  195.8570  174.7110  146.3930 O   0  0  0  0  0  1  0  0  0  0  0  0
  192.7890  173.6780  141.6140 C   0  0  2  0  0  3  0  0  0  0  0  0
  194.6280  174.7360  145.7350 C   0  0  2  0  0  3  0  0  0  0  0  0
  193.4880  174.6140  142.6330 C   0  0  2  0  0  3  0  0  0  0  0  0
  193.0290  176.3300  144.5290 C   0  0  0  0  0  2  0  0  0  0  0  0
  193.0980  172.2280  141.8530 C   0  0  0  0  0  0  0  0  0  0  0  0
  194.5730  173.5790  144.7280 C   0  0  0  0  0  2  0  0  0  0  0  0
  195.4080  172.9120  142.4210 C   0  0  1  0  0  3  0  0  0  0  0  0
  194.7920  174.0310  143.2740 C   0  0  1  0  0  3  0  0  0  0  0  0
  192.2010  171.3570  141.7040 O   0  0  0  0  0  0  0  0  0  0  0  0
  194.7150  170.5500  142.4900 O   0  0  0  0  0  1  0  0  0  0  0  0
  196.7260  172.3970  142.9960 C   0  0  0  0  0  3  0  0  0  0  0  0
  197.8060  172.4850  141.9340 C   0  0  0  0  0  2  0  0  0  0  0  0
  197.7360  173.5280  143.0300 C   0  0  0  0  0  2  0  0  0  0  0  0
  193.1850  174.0910  140.2030 C   0  0  0  0  0  2  0  0  0  0  0  0
  193.9060  175.4290  140.2110 C   0  0  0  0  0  2  0  0  0  0  0  0
  197.9390  174.8480  138.8710 C   0  0  0  0  0  3  0  0  0  0  0  0
  195.3030  175.2520  139.7280 C   0  0  0  0  0  0  0  0  0  0  0  0
  197.6810  175.6500  139.9880 C   0  0  0  0  0  3  0  0  0  0  0  0
  196.3660  175.8490  140.4190 C   0  0  0  0  0  3  0  0  0  0  0  0
  196.8790  174.2440  138.1830 C   0  0  0  0  0  3  0  0  0  0  0  0
  195.5630  174.4430  138.6140 C   0  0  0  0  0  3  0  0  0  0  0  0
  186.7600  178.9190  142.6900 C   0  0  0  0  0  2  0  0  0  0  0  0
  185.6480  178.0910  143.3160 C   0  0  0  0  0  2  0  0  0  0  0  0
  184.7750  178.9600  144.2090 C   0  0  2  0  0  3  0  0  0  0  0  0
  184.8100  178.5090  145.6740 C   0  0  0  0  0  2  0  0  0  0  0  0
  185.4130  177.1200  145.8680 C   0  0  0  0  0  2  0  0  0  0  0  0
  188.1730  177.0280  145.1190 O   0  0  0  0  0  0  0  0  0  0  0  0
  187.8970  177.0710  146.3480 C   0  0  0  0  0  0  0  0  0  0  0  0
  186.5430  177.1810  146.7860 N   0  0  0  0  0  2  0  0  0  0  0  0
  188.9990  177.0320  147.3520 C   0  0  0  0  0  2  0  0  0  0  0  0
  190.1340  176.1300  146.8840 C   0  0  0  0  0  3  0  0  0  0  0  0
  189.6870  174.7030  146.9210 C   0  0  0  0  0  3  0  0  0  0  0  0
  188.8320  174.3390  147.7140 O   0  0  0  0  0  0  0  0  0  0  0  0
  191.3210  176.3030  147.7760 C   0  0  0  0  0  3  0  0  0  0  0  0
  191.4220  177.2890  148.4880 O   0  0  0  0  0  0  0  0  0  0  0  0
  183.3570  179.0310  143.6610 C   0  0  0  0  0  2  0  0  0  0  0  0
  183.2880  178.3710  142.2930 C   0  0  0  0  0  2  0  0  0  0  0  0
  179.6200  179.2400  141.9520 C   0  0  0  0  0  3  0  0  0  0  0  0
  179.3310  178.7270  140.6840 C   0  0  0  0  0  3  0  0  0  0  0  0
  180.9110  179.1240  142.4770 C   0  0  0  0  0  3  0  0  0  0  0  0
  181.6240  177.9830  140.4610 C   0  0  0  0  0  3  0  0  0  0  0  0
  181.9150  178.4920  141.7330 C   0  0  0  0  0  0  0  0  0  0  0  0
  180.3340  178.1000  139.9380 C   0  0  0  0  0  3  0  0  0  0  0  0
  1  2  2  0  0  0  0
  2  8  1  0  0  0  0
  3 11  2  0  0  0  0
  3  9  1  0  0  0  0
  4 11  1  0  0  0  0
  6  2  1  0  0  0  0
  6  7  1  0  0  0  0
  7  3  1  0  0  0  0
  8  4  1  0  0  0  0
  8 37  1  0  0  0  0
  9  5  2  0  0  0  0
 10  5  1  0  0  0  0
 11 10  1  0  0  0  0
 12 22  1  0  0  0  0
 12 25  1  0  0  0  0
 13 17  1  0  0  0  0
 14  5  1  6  0  0  0
 14 19  1  0  0  0  0
 16 29  1  6  0  0  0
 16 20  1  0  0  0  0
 16 18  1  0  0  0  0
 17 15  1  6  0  0  0
 18 23  1  0  0  0  0
 18 14  1  0  0  0  0
 19 13  1  0  0  0  0
 20 12  1  0  0  0  0
 21 17  1  0  0  0  0
 22 26  1  0  0  0  0
 22 23  1  0  0  0  0
 23 21  1  0  0  0  0
 24 20  2  0  0  0  0
 26 28  1  0  0  0  0
 27 26  1  0  0  0  0
 27 28  1  0  0  0  0
 29 30  1  0  0  0  0
 31 33  1  0  0  0  0
 32 30  1  0  0  0  0
 32 34  1  0  0  0  0
 33 34  2  0  0  0  0
 35 36  1  0  0  0  0
 35 31  2  0  0  0  0
 36 32  2  0  0  0  0
 37 38  1  0  0  0  0
 38 39  1  0  0  0  0
 39 40  1  0  0  0  0
 40 41  1  0  0  0  0
 41 44  1  0  0  0  0
 42 43  2  0  0  0  0
 43 44  1  0  0  0  0
 43 45  1  0  0  0  0
 46 47  1  0  0  0  0
 46 45  1  0  0  0  0
 46 49  1  0  0  0  0
 47 48  2  0  0  0  0
 49 50  2  0  0  0  0
 51 39  1  0  0  0  0
 52 51  1  0  0  0  0
 53 55  1  0  0  0  0
 54 53  2  0  0  0  0
 56 57  1  0  0  0  0
 57 52  1  0  0  0  0
 57 55  2  0  0  0  0
 58 56  2  0  0  0  0
 58 54  1  0  0  0  0
M  END
>  <MODEL>
3

>  <REMARK>
 VINA RESULT:      -5.9      2.829      4.983
  Name = 
  18 active torsions:
  status: ('A' for Active; 'I' for Inactive)
    1  A    between atoms: C_1  and  C_13
    2  A    between atoms: C_4  and  C_41
    3  A    between atoms: C_7  and  C_10
    4  A    between atoms: C_7  and  C_46
    5  A    between atoms: C_7  and  C_47
    6  A    between atoms: C_10  and  C_54
    7  A    between atoms: C_12  and  C_33
    8  A    between atoms: C_13  and  C_31
    9  A    between atoms: C_13  and  C_39
   10  A    between atoms: C_14  and  C_31
   11  A    between atoms: C_18  and  C_56
   12  A    between atoms: C_19  and  C_24
   13  A    between atoms: C_24  and  C_56
   14  A    between atoms: C_26  and  C_54
   15  A    between atoms: C_28  and  N_43
   16  A    between atoms: C_28  and  C_47
   17  A    between atoms: N_38  and  C_40
   18  A    between atoms: C_40  and  C_46
                            x       y       z     vdW  Elec       q    Type
                         _______ _______ _______ _____ _____    ______ ____

>  <TORSDO>
F 18

$$$$
=
 OpenBabel11072409333D

 58 64  0  0  1  0  0  0  0  0999 V2000
  187.6380  177.7860  142.0040 O   0  0  0  0  0  0  0  0  0  0  0  0
  188.4060  176.7870  142.0410 C   0  0  0  0  0  0  0  0  0  0  0  0
  190.1550  174.2440  141.4840 C   0  0  0  0  0  0  0  0  0  0  0  0
  190.8200  176.5150  142.5690 C   0  0  0  0  0  2  0  0  0  0  0  0
  192.0700  173.3520  141.5550 C   0  0  0  0  0  0  0  0  0  0  0  0
  188.2360  175.7330  141.0970 N   0  0  0  0  0  2  0  0  0  0  0  0
  188.6650  174.3710  141.3840 C   0  0  0  0  0  2  0  0  0  0  0  0
  189.4500  176.7170  143.0160 N   0  0  0  0  0  0  0  0  0  0  0  0
  190.8000  173.1040  141.1710 N   0  0  0  0  0  0  0  0  0  0  0  0
  192.2240  174.5450  142.0840 O   0  0  0  0  0  0  0  0  0  0  0  0
  191.0520  175.1250  142.0680 C   0  0  0  0  0  0  0  0  0  0  0  0
  193.9360  170.6570  137.7240 N   0  0  0  0  0  0  0  0  0  0  0  0
  195.4140  171.6980  142.5420 C   0  0  0  0  0  2  0  0  0  0  0  0
  193.1800  172.3610  141.4000 C   0  0  1  0  0  3  0  0  0  0  0  0
  196.4460  169.5750  142.2110 O   0  0  0  0  0  1  0  0  0  0  0  0
  192.8810  172.6510  138.8710 C   0  0  2  0  0  3  0  0  0  0  0  0
  195.2380  170.2540  142.0640 C   0  0  2  0  0  3  0  0  0  0  0  0
  193.8970  172.4930  140.0310 C   0  0  2  0  0  3  0  0  0  0  0  0
  194.1040  172.4810  142.6210 C   0  0  0  0  0  2  0  0  0  0  0  0
  192.7610  171.4080  138.0340 C   0  0  0  0  0  0  0  0  0  0  0  0
  194.7690  170.1390  140.6060 C   0  0  0  0  0  2  0  0  0  0  0  0
  195.2040  171.1090  138.2970 C   0  0  1  0  0  3  0  0  0  0  0  0
  195.0110  171.4190  139.7890 C   0  0  1  0  0  3  0  0  0  0  0  0
  191.6370  171.0490  137.5960 O   0  0  0  0  0  0  0  0  0  0  0  0
  193.8460  169.5110  137.0070 O   0  0  0  0  0  1  0  0  0  0  0  0
  196.3460  170.1270  138.0480 C   0  0  0  0  0  3  0  0  0  0  0  0
  197.3610  170.7620  137.1170 C   0  0  0  0  0  2  0  0  0  0  0  0
  197.6340  170.7010  138.6040 C   0  0  0  0  0  2  0  0  0  0  0  0
  193.2820  173.8440  138.0140 C   0  0  0  0  0  2  0  0  0  0  0  0
  194.1670  174.8000  138.7960 C   0  0  0  0  0  2  0  0  0  0  0  0
  197.9410  175.3320  136.8280 C   0  0  0  0  0  3  0  0  0  0  0  0
  195.4760  174.9560  138.1030 C   0  0  0  0  0  0  0  0  0  0  0  0
  196.7510  175.6090  136.1460 C   0  0  0  0  0  3  0  0  0  0  0  0
  195.5200  175.4250  136.7840 C   0  0  0  0  0  3  0  0  0  0  0  0
  197.9000  174.8700  138.1490 C   0  0  0  0  0  3  0  0  0  0  0  0
  196.6690  174.6860  138.7870 C   0  0  0  0  0  3  0  0  0  0  0  0
  189.1970  177.1350  144.3900 C   0  0  0  0  0  2  0  0  0  0  0  0
  188.3620  176.0890  145.1140 C   0  0  0  0  0  2  0  0  0  0  0  0
  188.4660  176.2740  146.6200 C   0  0  2  0  0  3  0  0  0  0  0  0
  189.2230  175.1250  147.2970 C   0  0  0  0  0  2  0  0  0  0  0  0
  190.6560  175.4860  147.6810 C   0  0  0  0  0  2  0  0  0  0  0  0
  193.1710  176.6160  146.9220 O   0  0  0  0  0  0  0  0  0  0  0  0
  192.8120  175.5480  146.3580 C   0  0  0  0  0  0  0  0  0  0  0  0
  191.5980  174.8990  146.7360 N   0  0  0  0  0  2  0  0  0  0  0  0
  193.6770  174.9430  145.3050 C   0  0  0  0  0  2  0  0  0  0  0  0
  195.0950  175.4960  145.3780 C   0  0  0  0  0  3  0  0  0  0  0  0
  195.3690  176.3330  144.1690 C   0  0  0  0  0  3  0  0  0  0  0  0
  196.5050  176.4440  143.7330 O   0  0  0  0  0  0  0  0  0  0  0  0
  196.0760  174.3690  145.4360 C   0  0  0  0  0  3  0  0  0  0  0  0
  195.7300  173.2660  145.8260 O   0  0  0  0  0  0  0  0  0  0  0  0
  187.0870  176.4910  147.2270 C   0  0  0  0  0  2  0  0  0  0  0  0
  186.8200  177.9780  147.4080 C   0  0  0  0  0  2  0  0  0  0  0  0
  183.6060  178.7160  145.5490 C   0  0  0  0  0  3  0  0  0  0  0  0
  184.0900  179.3680  144.4110 C   0  0  0  0  0  3  0  0  0  0  0  0
  184.4980  178.2630  146.5270 C   0  0  0  0  0  3  0  0  0  0  0  0
  186.3560  179.1170  145.2260 C   0  0  0  0  0  3  0  0  0  0  0  0
  185.8740  178.4600  146.3660 C   0  0  0  0  0  0  0  0  0  0  0  0
  185.4640  179.5700  144.2500 C   0  0  0  0  0  3  0  0  0  0  0  0
  1  2  2  0  0  0  0
  2  8  1  0  0  0  0
  3 11  2  0  0  0  0
  4  8  1  0  0  0  0
  5 10  1  0  0  0  0
  6  7  1  0  0  0  0
  6  2  1  0  0  0  0
  7  3  1  0  0  0  0
  8 37  1  0  0  0  0
  9  3  1  0  0  0  0
  9  5  2  0  0  0  0
 11 10  1  0  0  0  0
 11  4  1  0  0  0  0
 12 20  1  0  0  0  0
 12 22  1  0  0  0  0
 13 19  1  0  0  0  0
 14  5  1  1  0  0  0
 14 19  1  0  0  0  0
 16 29  1  6  0  0  0
 16 18  1  0  0  0  0
 17 15  1  6  0  0  0
 17 13  1  0  0  0  0
 18 14  1  0  0  0  0
 20 16  1  0  0  0  0
 21 17  1  0  0  0  0
 22 23  1  0  0  0  0
 23 18  1  0  0  0  0
 23 21  1  0  0  0  0
 24 20  2  0  0  0  0
 25 12  1  0  0  0  0
 26 22  1  0  0  0  0
 26 28  1  0  0  0  0
 27 26  1  0  0  0  0
 27 28  1  0  0  0  0
 29 30  1  0  0  0  0
 31 35  1  0  0  0  0
 32 36  1  0  0  0  0
 32 30  1  0  0  0  0
 33 34  1  0  0  0  0
 33 31  2  0  0  0  0
 34 32  2  0  0  0  0
 35 36  2  0  0  0  0
 37 38  1  0  0  0  0
 38 39  1  0  0  0  0
 39 51  1  0  0  0  0
 39 40  1  0  0  0  0
 40 41  1  0  0  0  0
 43 44  1  0  0  0  0
 43 42  2  0  0  0  0
 44 41  1  0  0  0  0
 45 46  1  0  0  0  0
 45 43  1  0  0  0  0
 46 49  1  0  0  0  0
 47 46  1  0  0  0  0
 48 47  2  0  0  0  0
 49 50  2  0  0  0  0
 51 52  1  0  0  0  0
 53 55  1  0  0  0  0
 54 53  2  0  0  0  0
 56 57  1  0  0  0  0
 57 55  2  0  0  0  0
 57 52  1  0  0  0  0
 58 54  1  0  0  0  0
 58 56  2  0  0  0  0
M  END
>  <MODEL>
4

>  <REMARK>
 VINA RESULT:      -5.9      1.820      2.339
  Name = 
  18 active torsions:
  status: ('A' for Active; 'I' for Inactive)
    1  A    between atoms: C_1  and  C_13
    2  A    between atoms: C_4  and  C_41
    3  A    between atoms: C_7  and  C_10
    4  A    between atoms: C_7  and  C_46
    5  A    between atoms: C_7  and  C_47
    6  A    between atoms: C_10  and  C_54
    7  A    between atoms: C_12  and  C_33
    8  A    between atoms: C_13  and  C_31
    9  A    between atoms: C_13  and  C_39
   10  A    between atoms: C_14  and  C_31
   11  A    between atoms: C_18  and  C_56
   12  A    between atoms: C_19  and  C_24
   13  A    between atoms: C_24  and  C_56
   14  A    between atoms: C_26  and  C_54
   15  A    between atoms: C_28  and  N_43
   16  A    between atoms: C_28  and  C_47
   17  A    between atoms: N_38  and  C_40
   18  A    between atoms: C_40  and  C_46
                            x       y       z     vdW  Elec       q    Type
                         _______ _______ _______ _____ _____    ______ ____

>  <TORSDO>
F 18

$$$$
=
 OpenBabel11072409333D

 58 64  0  0  1  0  0  0  0  0999 V2000
  191.2120  179.2840  144.0250 O   0  0  0  0  0  0  0  0  0  0  0  0
  191.0840  178.0940  143.6300 C   0  0  0  0  0  0  0  0  0  0  0  0
  190.3330  175.4010  142.2080 C   0  0  0  0  0  0  0  0  0  0  0  0
  192.6750  176.4350  142.6810 C   0  0  0  0  0  2  0  0  0  0  0  0
  191.0120  173.6820  141.1810 C   0  0  0  0  0  0  0  0  0  0  0  0
  189.8850  177.6960  142.9700 N   0  0  0  0  0  2  0  0  0  0  0  0
  189.4280  176.3130  142.9790 C   0  0  0  0  0  2  0  0  0  0  0  0
  192.1410  177.1510  143.8310 N   0  0  0  0  0  0  0  0  0  0  0  0
  189.8800  174.2880  141.5990 N   0  0  0  0  0  0  0  0  0  0  0  0
  192.1000  174.3430  141.5070 O   0  0  0  0  0  0  0  0  0  0  0  0
  191.7180  175.4100  142.1590 C   0  0  0  0  0  0  0  0  0  0  0  0
  191.6510  172.3540  136.3590 N   0  0  0  0  0  0  0  0  0  0  0  0
  191.4210  169.8590  140.8540 C   0  0  0  0  0  2  0  0  0  0  0  0
  191.0170  172.3880  140.4310 C   0  0  1  0  0  3  0  0  0  0  0  0
  190.6390  168.1670  139.3690 O   0  0  0  0  0  1  0  0  0  0  0  0
  192.0140  173.7010  138.4700 C   0  0  2  0  0  3  0  0  0  0  0  0
  190.4700  169.5090  139.7070 C   0  0  2  0  0  3  0  0  0  0  0  0
  192.0550  172.3800  139.2800 C   0  0  2  0  0  3  0  0  0  0  0  0
  191.1780  171.2470  141.4470 C   0  0  0  0  0  2  0  0  0  0  0  0
  191.3780  173.5320  137.1190 C   0  0  0  0  0  0  0  0  0  0  0  0
  190.6690  170.3730  138.4530 C   0  0  0  0  0  2  0  0  0  0  0  0
  192.4990  171.3300  136.9710 C   0  0  1  0  0  3  0  0  0  0  0  0
  192.0370  171.0760  138.4140 C   0  0  1  0  0  3  0  0  0  0  0  0
  190.6280  174.4320  136.6570 O   0  0  0  0  0  0  0  0  0  0  0  0
  191.0550  172.1600  135.1580 O   0  0  0  0  0  1  0  0  0  0  0  0
  192.5650  170.0480  136.1440 C   0  0  0  0  0  3  0  0  0  0  0  0
  193.9560  169.9000  135.5570 C   0  0  0  0  0  2  0  0  0  0  0  0
  193.5590  169.0930  136.7750 C   0  0  0  0  0  2  0  0  0  0  0  0
  193.4280  174.2510  138.3370 C   0  0  0  0  0  2  0  0  0  0  0  0
  194.4410  173.2930  138.9430 C   0  0  0  0  0  2  0  0  0  0  0  0
  197.2690  175.5090  141.2870 C   0  0  0  0  0  3  0  0  0  0  0  0
  195.4110  174.0510  139.7820 C   0  0  0  0  0  0  0  0  0  0  0  0
  197.5820  174.2170  140.8510 C   0  0  0  0  0  3  0  0  0  0  0  0
  196.6560  173.4900  140.0960 C   0  0  0  0  0  3  0  0  0  0  0  0
  196.0280  176.0740  140.9690 C   0  0  0  0  0  3  0  0  0  0  0  0
  195.1020  175.3470  140.2140 C   0  0  0  0  0  3  0  0  0  0  0  0
  192.8670  177.1240  145.0950 C   0  0  0  0  0  2  0  0  0  0  0  0
  193.7000  175.8560  145.1960 C   0  0  0  0  0  2  0  0  0  0  0  0
  192.8100  174.6560  145.4840 C   0  0  2  0  0  3  0  0  0  0  0  0
  192.4810  174.5190  146.9750 C   0  0  0  0  0  2  0  0  0  0  0  0
  191.5600  175.6190  147.4960 C   0  0  0  0  0  2  0  0  0  0  0  0
  189.6360  177.6910  147.0630 O   0  0  0  0  0  0  0  0  0  0  0  0
  189.2750  176.5010  146.8590 C   0  0  0  0  0  0  0  0  0  0  0  0
  190.2050  175.4260  146.9960 N   0  0  0  0  0  2  0  0  0  0  0  0
  187.8720  176.2170  146.4450 C   0  0  0  0  0  2  0  0  0  0  0  0
  187.0600  177.5020  146.3470 C   0  0  0  0  0  3  0  0  0  0  0  0
  186.1820  177.6330  147.5500 C   0  0  0  0  0  3  0  0  0  0  0  0
  185.3450  178.5210  147.6170 O   0  0  0  0  0  0  0  0  0  0  0  0
  186.2140  177.4750  145.1140 C   0  0  0  0  0  3  0  0  0  0  0  0
  186.2510  176.5180  144.3580 O   0  0  0  0  0  0  0  0  0  0  0  0
  193.4260  173.3870  144.9110 C   0  0  0  0  0  2  0  0  0  0  0  0
  194.7580  173.7010  144.2480 C   0  0  0  0  0  2  0  0  0  0  0  0
  194.8310  170.8220  141.7910 C   0  0  0  0  0  3  0  0  0  0  0  0
  196.1210  170.3210  141.9920 C   0  0  0  0  0  3  0  0  0  0  0  0
  194.3870  171.9260  142.5270 C   0  0  0  0  0  3  0  0  0  0  0  0
  196.5250  172.0250  143.6630 C   0  0  0  0  0  3  0  0  0  0  0  0
  195.2320  172.5270  143.4670 C   0  0  0  0  0  0  0  0  0  0  0  0
  196.9680  170.9230  142.9270 C   0  0  0  0  0  3  0  0  0  0  0  0
  2  8  1  0  0  0  0
  2  1  2  0  0  0  0
  3  7  1  0  0  0  0
  4  8  1  0  0  0  0
  5 10  1  0  0  0  0
  5  9  2  0  0  0  0
  6  7  1  0  0  0  0
  6  2  1  0  0  0  0
  8 37  1  0  0  0  0
  9  3  1  0  0  0  0
 10 11  1  0  0  0  0
 11  3  2  0  0  0  0
 11  4  1  0  0  0  0
 12 22  1  0  0  0  0
 12 20  1  0  0  0  0
 13 19  1  0  0  0  0
 14  5  1  1  0  0  0
 14 19  1  0  0  0  0
 16 29  1  6  0  0  0
 16 18  1  0  0  0  0
 17 15  1  6  0  0  0
 17 13  1  0  0  0  0
 18 14  1  0  0  0  0
 20 16  1  0  0  0  0
 21 17  1  0  0  0  0
 22 23  1  0  0  0  0
 23 21  1  0  0  0  0
 23 18  1  0  0  0  0
 24 20  2  0  0  0  0
 25 12  1  0  0  0  0
 26 28  1  0  0  0  0
 26 22  1  0  0  0  0
 27 26  1  0  0  0  0
 27 28  1  0  0  0  0
 29 30  1  0  0  0  0
 30 32  1  0  0  0  0
 32 34  2  0  0  0  0
 32 36  1  0  0  0  0
 33 31  2  0  0  0  0
 34 33  1  0  0  0  0
 35 31  1  0  0  0  0
 36 35  2  0  0  0  0
 37 38  1  0  0  0  0
 38 39  1  0  0  0  0
 39 40  1  0  0  0  0
 40 41  1  0  0  0  0
 43 44  1  0  0  0  0
 43 42  2  0  0  0  0
 44 41  1  0  0  0  0
 45 43  1  0  0  0  0
 46 45  1  0  0  0  0
 46 47  1  0  0  0  0
 47 48  2  0  0  0  0
 49 46  1  0  0  0  0
 50 49  2  0  0  0  0
 51 39  1  0  0  0  0
 52 51  1  0  0  0  0
 53 54  2  0  0  0  0
 53 55  1  0  0  0  0
 54 58  1  0  0  0  0
 55 57  2  0  0  0  0
 57 56  1  0  0  0  0
 57 52  1  0  0  0  0
 58 56  2  0  0  0  0
M  END
>  <MODEL>
5

>  <REMARK>
 VINA RESULT:      -5.5      2.305      5.841
  Name = 
  18 active torsions:
  status: ('A' for Active; 'I' for Inactive)
    1  A    between atoms: C_1  and  C_13
    2  A    between atoms: C_4  and  C_41
    3  A    between atoms: C_7  and  C_10
    4  A    between atoms: C_7  and  C_46
    5  A    between atoms: C_7  and  C_47
    6  A    between atoms: C_10  and  C_54
    7  A    between atoms: C_12  and  C_33
    8  A    between atoms: C_13  and  C_31
    9  A    between atoms: C_13  and  C_39
   10  A    between atoms: C_14  and  C_31
   11  A    between atoms: C_18  and  C_56
   12  A    between atoms: C_19  and  C_24
   13  A    between atoms: C_24  and  C_56
   14  A    between atoms: C_26  and  C_54
   15  A    between atoms: C_28  and  N_43
   16  A    between atoms: C_28  and  C_47
   17  A    between atoms: N_38  and  C_40
   18  A    between atoms: C_40  and  C_46
                            x       y       z     vdW  Elec       q    Type
                         _______ _______ _______ _____ _____    ______ ____

>  <TORSDO>
F 18

$$$$
=
 OpenBabel11072409333D

 58 64  0  0  1  0  0  0  0  0999 V2000
  184.2810  178.5070  147.3710 O   0  0  0  0  0  0  0  0  0  0  0  0
  185.4850  178.2680  147.0870 C   0  0  0  0  0  0  0  0  0  0  0  0
  188.5350  177.5410  147.0350 C   0  0  0  0  0  0  0  0  0  0  0  0
  186.5830  176.6330  145.5700 C   0  0  0  0  0  2  0  0  0  0  0  0
  190.0640  176.3400  146.2020 C   0  0  0  0  0  0  0  0  0  0  0  0
  186.4830  178.3820  148.0990 N   0  0  0  0  0  2  0  0  0  0  0  0
  187.8750  178.6650  147.7730 C   0  0  0  0  0  2  0  0  0  0  0  0
  185.8470  177.8740  145.7610 N   0  0  0  0  0  0  0  0  0  0  0  0
  189.8570  177.2990  147.1300 N   0  0  0  0  0  0  0  0  0  0  0  0
  188.9700  176.0050  145.5570 O   0  0  0  0  0  0  0  0  0  0  0  0
  188.0010  176.7390  146.0380 C   0  0  0  0  0  0  0  0  0  0  0  0
  191.6930  172.0700  144.0740 N   0  0  0  0  0  0  0  0  0  0  0  0
  193.8780  176.4610  145.6320 C   0  0  0  0  0  2  0  0  0  0  0  0
  191.4050  175.7340  145.9380 C   0  0  1  0  0  3  0  0  0  0  0  0
  195.7020  174.9470  145.8800 O   0  0  0  0  0  1  0  0  0  0  0  0
  190.1880  174.0760  144.4100 C   0  0  2  0  0  3  0  0  0  0  0  0
  194.3490  175.1080  146.1730 C   0  0  2  0  0  3  0  0  0  0  0  0
  191.4460  174.9620  144.5940 C   0  0  2  0  0  3  0  0  0  0  0  0
  192.4650  176.8380  146.0760 C   0  0  0  0  0  2  0  0  0  0  0  0
  190.4780  172.6130  144.5940 C   0  0  0  0  0  0  0  0  0  0  0  0
  193.5660  173.9120  145.6140 C   0  0  0  0  0  2  0  0  0  0  0  0
  192.6330  172.9920  143.4360 C   0  0  1  0  0  3  0  0  0  0  0  0
  192.8070  174.2380  144.3170 C   0  0  1  0  0  3  0  0  0  0  0  0
  189.6470  171.8730  145.1820 O   0  0  0  0  0  0  0  0  0  0  0  0
  191.9950  170.7630  144.2650 O   0  0  0  0  0  1  0  0  0  0  0  0
  193.9650  172.3300  143.0900 C   0  0  0  0  0  3  0  0  0  0  0  0
  193.9900  171.9950  141.6100 C   0  0  0  0  0  2  0  0  0  0  0  0
  194.7290  173.2130  142.1230 C   0  0  0  0  0  2  0  0  0  0  0  0
  189.5860  174.3410  143.0370 C   0  0  0  0  0  2  0  0  0  0  0  0
  189.1550  173.0430  142.3730 C   0  0  0  0  0  2  0  0  0  0  0  0
  191.2680  172.5390  138.6740 C   0  0  0  0  0  3  0  0  0  0  0  0
  189.9090  172.8510  141.1040 C   0  0  0  0  0  0  0  0  0  0  0  0
  190.2890  171.6130  139.0530 C   0  0  0  0  0  3  0  0  0  0  0  0
  189.6080  171.7710  140.2650 C   0  0  0  0  0  3  0  0  0  0  0  0
  191.5660  173.6230  139.5090 C   0  0  0  0  0  3  0  0  0  0  0  0
  190.8850  173.7810  140.7200 C   0  0  0  0  0  3  0  0  0  0  0  0
  185.2410  178.5330  144.6100 C   0  0  0  0  0  2  0  0  0  0  0  0
  185.3050  177.6270  143.3900 C   0  0  0  0  0  2  0  0  0  0  0  0
  184.7330  178.3350  142.1710 C   0  0  2  0  0  3  0  0  0  0  0  0
  183.3970  177.7310  141.7200 C   0  0  0  0  0  2  0  0  0  0  0  0
  182.5810  178.6620  140.8270 C   0  0  0  0  0  2  0  0  0  0  0  0
  180.4700  180.5660  140.5140 O   0  0  0  0  0  0  0  0  0  0  0  0
  180.1590  179.3930  140.8530 C   0  0  0  0  0  0  0  0  0  0  0  0
  181.1590  178.3800  140.9650 N   0  0  0  0  0  2  0  0  0  0  0  0
  178.7300  179.0550  141.1130 C   0  0  0  0  0  2  0  0  0  0  0  0
  178.5280  177.5460  141.1770 C   0  0  0  0  0  3  0  0  0  0  0  0
  177.7580  177.0930  139.9770 C   0  0  0  0  0  3  0  0  0  0  0  0
  178.3330  176.8400  138.9290 O   0  0  0  0  0  0  0  0  0  0  0  0
  177.7730  177.1880  142.4170 C   0  0  0  0  0  3  0  0  0  0  0  0
  178.3040  177.2750  143.5120 O   0  0  0  0  0  0  0  0  0  0  0  0
  185.7580  178.3700  141.0450 C   0  0  0  0  0  2  0  0  0  0  0  0
  186.7760  177.2550  141.2270 C   0  0  0  0  0  2  0  0  0  0  0  0
  186.6400  176.3910  137.5440 C   0  0  0  0  0  3  0  0  0  0  0  0
  187.4390  175.2430  137.5010 C   0  0  0  0  0  3  0  0  0  0  0  0
  186.4250  177.0470  138.7610 C   0  0  0  0  0  3  0  0  0  0  0  0
  187.8090  175.4070  139.8880 C   0  0  0  0  0  3  0  0  0  0  0  0
  187.0060  176.5540  139.9350 C   0  0  0  0  0  0  0  0  0  0  0  0
  188.0240  174.7530  138.6720 C   0  0  0  0  0  3  0  0  0  0  0  0
  2  1  2  0  0  0  0
  2  6  1  0  0  0  0
  3  9  1  0  0  0  0
  3  7  1  0  0  0  0
  4  8  1  0  0  0  0
  4 11  1  0  0  0  0
  5  9  2  0  0  0  0
  7  6  1  0  0  0  0
  8  2  1  0  0  0  0
 10 11  1  0  0  0  0
 10  5  1  0  0  0  0
 11  3  2  0  0  0  0
 12 25  1  0  0  0  0
 12 20  1  0  0  0  0
 13 19  1  0  0  0  0
 13 17  1  0  0  0  0
 14 19  1  0  0  0  0
 14  5  1  6  0  0  0
 16 29  1  6  0  0  0
 16 20  1  0  0  0  0
 16 18  1  0  0  0  0
 17 15  1  6  0  0  0
 18 14  1  0  0  0  0
 20 24  2  0  0  0  0
 21 17  1  0  0  0  0
 22 12  1  0  0  0  0
 22 23  1  0  0  0  0
 23 18  1  0  0  0  0
 23 21  1  0  0  0  0
 26 22  1  0  0  0  0
 27 28  1  0  0  0  0
 27 26  1  0  0  0  0
 28 26  1  0  0  0  0
 30 29  1  0  0  0  0
 31 33  2  0  0  0  0
 31 35  1  0  0  0  0
 32 30  1  0  0  0  0
 33 34  1  0  0  0  0
 34 32  2  0  0  0  0
 35 36  2  0  0  0  0
 36 32  1  0  0  0  0
 37  8  1  0  0  0  0
 38 37  1  0  0  0  0
 39 38  1  0  0  0  0
 40 39  1  0  0  0  0
 41 44  1  0  0  0  0
 41 40  1  0  0  0  0
 42 43  2  0  0  0  0
 43 44  1  0  0  0  0
 43 45  1  0  0  0  0
 45 46  1  0  0  0  0
 46 49  1  0  0  0  0
 47 46  1  0  0  0  0
 48 47  2  0  0  0  0
 49 50  2  0  0  0  0
 51 52  1  0  0  0  0
 51 39  1  0  0  0  0
 53 55  1  0  0  0  0
 54 53  2  0  0  0  0
 54 58  1  0  0  0  0
 55 57  2  0  0  0  0
 56 57  1  0  0  0  0
 57 52  1  0  0  0  0
 58 56  2  0  0  0  0
M  END
>  <MODEL>
6

>  <REMARK>
 VINA RESULT:      -5.4      3.873      8.531
  Name = 
  18 active torsions:
  status: ('A' for Active; 'I' for Inactive)
    1  A    between atoms: C_1  and  C_13
    2  A    between atoms: C_4  and  C_41
    3  A    between atoms: C_7  and  C_10
    4  A    between atoms: C_7  and  C_46
    5  A    between atoms: C_7  and  C_47
    6  A    between atoms: C_10  and  C_54
    7  A    between atoms: C_12  and  C_33
    8  A    between atoms: C_13  and  C_31
    9  A    between atoms: C_13  and  C_39
   10  A    between atoms: C_14  and  C_31
   11  A    between atoms: C_18  and  C_56
   12  A    between atoms: C_19  and  C_24
   13  A    between atoms: C_24  and  C_56
   14  A    between atoms: C_26  and  C_54
   15  A    between atoms: C_28  and  N_43
   16  A    between atoms: C_28  and  C_47
   17  A    between atoms: N_38  and  C_40
   18  A    between atoms: C_40  and  C_46
                            x       y       z     vdW  Elec       q    Type
                         _______ _______ _______ _____ _____    ______ ____

>  <TORSDO>
F 18

$$$$
=
 OpenBabel11072409333D

 58 64  0  0  1  0  0  0  0  0999 V2000
  190.5170  178.2920  144.7060 O   0  0  0  0  0  0  0  0  0  0  0  0
  190.9560  177.4570  143.8710 C   0  0  0  0  0  0  0  0  0  0  0  0
  192.4730  175.2170  142.2840 C   0  0  0  0  0  0  0  0  0  0  0  0
  189.9190  175.5370  142.6790 C   0  0  0  0  0  2  0  0  0  0  0  0
  192.3410  173.4130  141.1880 C   0  0  0  0  0  0  0  0  0  0  0  0
  192.2980  176.9880  143.9820 N   0  0  0  0  0  2  0  0  0  0  0  0
  193.0350  176.4960  142.8250 C   0  0  0  0  0  2  0  0  0  0  0  0
  190.1090  176.9730  142.8250 N   0  0  0  0  0  0  0  0  0  0  0  0
  193.2400  174.3050  141.6560 N   0  0  0  0  0  0  0  0  0  0  0  0
  191.1000  173.7340  141.4780 O   0  0  0  0  0  0  0  0  0  0  0  0
  191.1410  174.8560  142.1480 C   0  0  0  0  0  0  0  0  0  0  0  0
  192.1960  172.0830  136.3270 N   0  0  0  0  0  0  0  0  0  0  0  0
  194.3190  170.1530  140.5990 C   0  0  0  0  0  2  0  0  0  0  0  0
  192.7270  172.1940  140.4120 C   0  0  1  0  0  3  0  0  0  0  0  0
  194.0160  168.1660  139.3190 O   0  0  0  0  0  1  0  0  0  0  0  0
  192.4640  173.6330  138.3080 C   0  0  2  0  0  3  0  0  0  0  0  0
  193.3590  169.3180  139.7470 C   0  0  2  0  0  3  0  0  0  0  0  0
  193.3080  172.5440  139.0180 C   0  0  2  0  0  3  0  0  0  0  0  0
  193.6470  171.3370  141.2950 C   0  0  0  0  0  2  0  0  0  0  0  0
  191.6370  173.0810  137.1820 C   0  0  0  0  0  0  0  0  0  0  0  0
  192.8070  170.0660  138.5250 C   0  0  0  0  0  2  0  0  0  0  0  0
  193.5420  171.5990  136.6350 C   0  0  1  0  0  3  0  0  0  0  0  0
  193.6470  171.2950  138.1370 C   0  0  1  0  0  3  0  0  0  0  0  0
  190.4700  173.5120  136.9850 O   0  0  0  0  0  0  0  0  0  0  0  0
  191.4540  171.5400  135.3320 O   0  0  0  0  0  1  0  0  0  0  0  0
  193.9530  170.4100  135.7690 C   0  0  0  0  0  3  0  0  0  0  0  0
  195.0410  170.8440  134.8050 C   0  0  0  0  0  2  0  0  0  0  0  0
  195.4020  170.0600  136.0490 C   0  0  0  0  0  2  0  0  0  0  0  0
  193.3880  174.7370  137.8110 C   0  0  0  0  0  2  0  0  0  0  0  0
  194.7310  174.6810  138.5210 C   0  0  0  0  0  2  0  0  0  0  0  0
  197.9410  174.3590  135.6930 C   0  0  0  0  0  3  0  0  0  0  0  0
  195.8250  174.5600  137.5180 C   0  0  0  0  0  0  0  0  0  0  0  0
  197.2330  175.5600  135.8150 C   0  0  0  0  0  3  0  0  0  0  0  0
  196.1790  175.6620  136.7290 C   0  0  0  0  0  3  0  0  0  0  0  0
  197.5930  173.2580  136.4850 C   0  0  0  0  0  3  0  0  0  0  0  0
  196.5400  173.3600  137.3990 C   0  0  0  0  0  3  0  0  0  0  0  0
  189.2250  177.8900  142.1150 C   0  0  0  0  0  2  0  0  0  0  0  0
  187.9540  178.1230  142.9170 C   0  0  0  0  0  2  0  0  0  0  0  0
  186.7610  177.4840  142.2220 C   0  0  2  0  0  3  0  0  0  0  0  0
  185.7790  178.5260  141.6750 C   0  0  0  0  0  2  0  0  0  0  0  0
  184.5900  177.9130  140.9400 C   0  0  0  0  0  2  0  0  0  0  0  0
  181.9780  177.6630  139.8020 O   0  0  0  0  0  0  0  0  0  0  0  0
  182.0750  178.1910  140.9430 C   0  0  0  0  0  0  0  0  0  0  0  0
  183.3430  178.2880  141.5930 N   0  0  0  0  0  2  0  0  0  0  0  0
  180.8510  178.6940  141.6290 C   0  0  0  0  0  2  0  0  0  0  0  0
  179.7330  178.9580  140.6280 C   0  0  0  0  0  3  0  0  0  0  0  0
  179.4750  180.4290  140.5410 C   0  0  0  0  0  3  0  0  0  0  0  0
  179.6620  181.0330  139.4960 O   0  0  0  0  0  0  0  0  0  0  0  0
  178.4850  178.2590  141.0650 C   0  0  0  0  0  3  0  0  0  0  0  0
  178.2260  177.1400  140.6540 O   0  0  0  0  0  0  0  0  0  0  0  0
  186.0820  176.4800  143.1440 C   0  0  0  0  0  2  0  0  0  0  0  0
  186.8240  176.3970  144.4690 C   0  0  0  0  0  2  0  0  0  0  0  0
  186.0260  178.1250  147.7410 C   0  0  0  0  0  3  0  0  0  0  0  0
  184.7590  178.6520  147.4710 C   0  0  0  0  0  3  0  0  0  0  0  0
  186.6990  177.3890  146.7600 C   0  0  0  0  0  3  0  0  0  0  0  0
  184.8380  177.7110  145.2420 C   0  0  0  0  0  3  0  0  0  0  0  0
  186.1050  177.1790  145.5110 C   0  0  0  0  0  0  0  0  0  0  0  0
  184.1660  178.4470  146.2220 C   0  0  0  0  0  3  0  0  0  0  0  0
  2  6  1  0  0  0  0
  2  1  2  0  0  0  0
  3  7  1  0  0  0  0
  4  8  1  0  0  0  0
  5 10  1  0  0  0  0
  5  9  2  0  0  0  0
  7  6  1  0  0  0  0
  8  2  1  0  0  0  0
  9  3  1  0  0  0  0
 10 11  1  0  0  0  0
 11  3  2  0  0  0  0
 11  4  1  0  0  0  0
 12 22  1  0  0  0  0
 12 20  1  0  0  0  0
 13 19  1  0  0  0  0
 14  5  1  1  0  0  0
 14 19  1  0  0  0  0
 16 29  1  6  0  0  0
 16 18  1  0  0  0  0
 17 15  1  6  0  0  0
 17 13  1  0  0  0  0
 18 14  1  0  0  0  0
 20 16  1  0  0  0  0
 21 17  1  0  0  0  0
 22 23  1  0  0  0  0
 23 21  1  0  0  0  0
 23 18  1  0  0  0  0
 24 20  2  0  0  0  0
 25 12  1  0  0  0  0
 26 28  1  0  0  0  0
 26 22  1  0  0  0  0
 27 26  1  0  0  0  0
 27 28  1  0  0  0  0
 29 30  1  0  0  0  0
 31 33  2  0  0  0  0
 31 35  1  0  0  0  0
 32 30  1  0  0  0  0
 33 34  1  0  0  0  0
 34 32  2  0  0  0  0
 35 36  2  0  0  0  0
 36 32  1  0  0  0  0
 37  8  1  0  0  0  0
 37 38  1  0  0  0  0
 39 38  1  0  0  0  0
 39 51  1  0  0  0  0
 40 39  1  0  0  0  0
 41 44  1  0  0  0  0
 41 40  1  0  0  0  0
 42 43  2  0  0  0  0
 43 44  1  0  0  0  0
 43 45  1  0  0  0  0
 46 49  1  0  0  0  0
 46 45  1  0  0  0  0
 47 46  1  0  0  0  0
 48 47  2  0  0  0  0
 50 49  2  0  0  0  0
 51 52  1  0  0  0  0
 52 57  1  0  0  0  0
 54 53  1  0  0  0  0
 55 53  2  0  0  0  0
 56 57  2  0  0  0  0
 56 58  1  0  0  0  0
 57 55  1  0  0  0  0
 58 54  2  0  0  0  0
M  END
>  <MODEL>
7

>  <REMARK>
 VINA RESULT:      -5.4      3.285      6.713
  Name = 
  18 active torsions:
  status: ('A' for Active; 'I' for Inactive)
    1  A    between atoms: C_1  and  C_13
    2  A    between atoms: C_4  and  C_41
    3  A    between atoms: C_7  and  C_10
    4  A    between atoms: C_7  and  C_46
    5  A    between atoms: C_7  and  C_47
    6  A    between atoms: C_10  and  C_54
    7  A    between atoms: C_12  and  C_33
    8  A    between atoms: C_13  and  C_31
    9  A    between atoms: C_13  and  C_39
   10  A    between atoms: C_14  and  C_31
   11  A    between atoms: C_18  and  C_56
   12  A    between atoms: C_19  and  C_24
   13  A    between atoms: C_24  and  C_56
   14  A    between atoms: C_26  and  C_54
   15  A    between atoms: C_28  and  N_43
   16  A    between atoms: C_28  and  C_47
   17  A    between atoms: N_38  and  C_40
   18  A    between atoms: C_40  and  C_46
                            x       y       z     vdW  Elec       q    Type
                         _______ _______ _______ _____ _____    ______ ____

>  <TORSDO>
F 18

$$$$
=
 OpenBabel11072409333D

 58 64  0  0  1  0  0  0  0  0999 V2000
  186.7830  178.5180  141.0770 O   0  0  0  0  0  0  0  0  0  0  0  0
  187.3700  177.4450  141.3820 C   0  0  0  0  0  0  0  0  0  0  0  0
  188.8810  174.6990  141.4760 C   0  0  0  0  0  0  0  0  0  0  0  0
  189.4290  176.9410  142.6800 C   0  0  0  0  0  2  0  0  0  0  0  0
  190.5460  173.6080  142.1900 C   0  0  0  0  0  0  0  0  0  0  0  0
  187.3890  176.3640  140.4530 N   0  0  0  0  0  2  0  0  0  0  0  0
  187.5330  174.9810  140.8890 C   0  0  0  0  0  2  0  0  0  0  0  0
  188.0230  177.3170  142.6480 N   0  0  0  0  0  0  0  0  0  0  0  0
  189.4500  173.4790  141.4140 N   0  0  0  0  0  0  0  0  0  0  0  0
  190.6640  174.8060  142.7190 O   0  0  0  0  0  0  0  0  0  0  0  0
  189.6400  175.5070  142.3080 C   0  0  0  0  0  0  0  0  0  0  0  0
  195.0020  172.2860  140.2350 N   0  0  0  0  0  0  0  0  0  0  0  0
  192.1940  170.8220  144.2910 C   0  0  0  0  0  2  0  0  0  0  0  0
  191.5170  172.4950  142.4260 C   0  0  1  0  0  3  0  0  0  0  0  0
  193.4020  168.8180  143.8440 O   0  0  0  0  0  1  0  0  0  0  0  0
  193.1830  173.8540  141.0310 C   0  0  2  0  0  3  0  0  0  0  0  0
  192.6380  169.8110  143.2320 C   0  0  2  0  0  3  0  0  0  0  0  0
  192.9890  172.9600  142.2820 C   0  0  2  0  0  3  0  0  0  0  0  0
  191.1790  171.8430  143.7750 C   0  0  0  0  0  2  0  0  0  0  0  0
  193.9060  173.1470  139.9210 C   0  0  0  0  0  0  0  0  0  0  0  0
  193.4470  170.4320  142.0840 C   0  0  0  0  0  2  0  0  0  0  0  0
  195.3270  172.0870  141.6480 C   0  0  1  0  0  3  0  0  0  0  0  0
  194.0390  171.8080  142.4370 C   0  0  1  0  0  3  0  0  0  0  0  0
  193.5600  173.3310  138.7240 O   0  0  0  0  0  0  0  0  0  0  0  0
  195.6410  171.6050  139.2530 O   0  0  0  0  0  1  0  0  0  0  0  0
  196.3880  171.0090  141.8620 C   0  0  0  0  0  3  0  0  0  0  0  0
  197.6620  171.6540  142.3730 C   0  0  0  0  0  2  0  0  0  0  0  0
  196.7400  170.9350  143.3350 C   0  0  0  0  0  2  0  0  0  0  0  0
  193.9190  175.1250  141.4350 C   0  0  0  0  0  2  0  0  0  0  0  0
  193.6960  175.4380  142.9050 C   0  0  0  0  0  2  0  0  0  0  0  0
  197.1960  174.3230  145.1200 C   0  0  0  0  0  3  0  0  0  0  0  0
  194.9110  175.0780  143.6870 C   0  0  0  0  0  0  0  0  0  0  0  0
  195.9250  174.0790  145.6510 C   0  0  0  0  0  3  0  0  0  0  0  0
  194.7830  174.4530  144.9340 C   0  0  0  0  0  3  0  0  0  0  0  0
  197.3260  174.9420  143.8710 C   0  0  0  0  0  3  0  0  0  0  0  0
  196.1850  175.3160  143.1540 C   0  0  0  0  0  3  0  0  0  0  0  0
  187.3900  177.8360  143.8540 C   0  0  0  0  0  2  0  0  0  0  0  0
  185.9350  177.3990  143.9150 C   0  0  0  0  0  2  0  0  0  0  0  0
  185.1170  178.3830  144.7390 C   0  0  2  0  0  3  0  0  0  0  0  0
  184.5540  177.7470  146.0150 C   0  0  0  0  0  2  0  0  0  0  0  0
  185.2400  178.2340  147.2890 C   0  0  0  0  0  2  0  0  0  0  0  0
  187.0850  176.0520  147.4090 O   0  0  0  0  0  0  0  0  0  0  0  0
  187.5520  177.2080  147.2180 C   0  0  0  0  0  0  0  0  0  0  0  0
  186.6790  178.3300  147.0860 N   0  0  0  0  0  2  0  0  0  0  0  0
  189.0260  177.3980  147.1040 C   0  0  0  0  0  2  0  0  0  0  0  0
  189.7610  176.0710  147.2420 C   0  0  0  0  0  3  0  0  0  0  0  0
  191.1680  176.3220  147.6850 C   0  0  0  0  0  3  0  0  0  0  0  0
  192.0670  175.5620  147.3590 O   0  0  0  0  0  0  0  0  0  0  0  0
  189.7720  175.3580  145.9280 C   0  0  0  0  0  3  0  0  0  0  0  0
  189.4990  174.1710  145.8650 O   0  0  0  0  0  0  0  0  0  0  0  0
  184.0300  179.0190  143.8840 C   0  0  0  0  0  2  0  0  0  0  0  0
  183.9000  178.2780  142.5620 C   0  0  0  0  0  2  0  0  0  0  0  0
  180.2460  179.2200  142.2660 C   0  0  0  0  0  3  0  0  0  0  0  0
  179.9590  178.8050  140.9610 C   0  0  0  0  0  3  0  0  0  0  0  0
  181.5320  179.0480  142.7870 C   0  0  0  0  0  3  0  0  0  0  0  0
  182.2440  178.0480  140.6970 C   0  0  0  0  0  3  0  0  0  0  0  0
  182.5320  178.4590  142.0050 C   0  0  0  0  0  0  0  0  0  0  0  0
  180.9580  178.2210  140.1770 C   0  0  0  0  0  3  0  0  0  0  0  0
  1  2  2  0  0  0  0
  2  8  1  0  0  0  0
  3 11  2  0  0  0  0
  5 10  1  0  0  0  0
  6  7  1  0  0  0  0
  6  2  1  0  0  0  0
  7  3  1  0  0  0  0
  8  4  1  0  0  0  0
  8 37  1  0  0  0  0
  9  3  1  0  0  0  0
  9  5  2  0  0  0  0
 11  4  1  0  0  0  0
 11 10  1  0  0  0  0
 12 22  1  0  0  0  0
 14  5  1  1  0  0  0
 14 19  1  0  0  0  0
 16 29  1  1  0  0  0
 16 18  1  0  0  0  0
 17 15  1  1  0  0  0
 17 13  1  0  0  0  0
 18 14  1  0  0  0  0
 18 23  1  0  0  0  0
 19 13  1  0  0  0  0
 20 12  1  0  0  0  0
 20 16  1  0  0  0  0
 21 23  1  0  0  0  0
 21 17  1  0  0  0  0
 22 26  1  0  0  0  0
 22 23  1  0  0  0  0
 24 20  2  0  0  0  0
 25 12  1  0  0  0  0
 26 27  1  0  0  0  0
 26 28  1  0  0  0  0
 27 28  1  0  0  0  0
 29 30  1  0  0  0  0
 30 32  1  0  0  0  0
 31 33  1  0  0  0  0
 32 34  1  0  0  0  0
 34 33  2  0  0  0  0
 35 31  2  0  0  0  0
 36 32  2  0  0  0  0
 36 35  1  0  0  0  0
 37 38  1  0  0  0  0
 38 39  1  0  0  0  0
 39 40  1  0  0  0  0
 40 41  1  0  0  0  0
 43 42  2  0  0  0  0
 44 43  1  0  0  0  0
 44 41  1  0  0  0  0
 45 43  1  0  0  0  0
 45 46  1  0  0  0  0
 46 47  1  0  0  0  0
 48 47  2  0  0  0  0
 49 46  1  0  0  0  0
 50 49  2  0  0  0  0
 51 39  1  0  0  0  0
 52 51  1  0  0  0  0
 53 55  1  0  0  0  0
 54 53  2  0  0  0  0
 56 57  1  0  0  0  0
 57 52  1  0  0  0  0
 57 55  2  0  0  0  0
 58 56  2  0  0  0  0
 58 54  1  0  0  0  0
M  END
>  <MODEL>
8

>  <REMARK>
 VINA RESULT:      -5.3      2.601      4.655
  Name = 
  18 active torsions:
  status: ('A' for Active; 'I' for Inactive)
    1  A    between atoms: C_1  and  C_13
    2  A    between atoms: C_4  and  C_41
    3  A    between atoms: C_7  and  C_10
    4  A    between atoms: C_7  and  C_46
    5  A    between atoms: C_7  and  C_47
    6  A    between atoms: C_10  and  C_54
    7  A    between atoms: C_12  and  C_33
    8  A    between atoms: C_13  and  C_31
    9  A    between atoms: C_13  and  C_39
   10  A    between atoms: C_14  and  C_31
   11  A    between atoms: C_18  and  C_56
   12  A    between atoms: C_19  and  C_24
   13  A    between atoms: C_24  and  C_56
   14  A    between atoms: C_26  and  C_54
   15  A    between atoms: C_28  and  N_43
   16  A    between atoms: C_28  and  C_47
   17  A    between atoms: N_38  and  C_40
   18  A    between atoms: C_40  and  C_46
                            x       y       z     vdW  Elec       q    Type
                         _______ _______ _______ _____ _____    ______ ____

>  <TORSDO>
F 18

$$$$
=
 OpenBabel11072409333D

 58 64  0  0  1  0  0  0  0  0999 V2000
  186.0380  177.8760  140.0690 O   0  0  0  0  0  0  0  0  0  0  0  0
  186.8930  177.3640  140.8410 C   0  0  0  0  0  0  0  0  0  0  0  0
  189.1210  175.6660  142.2510 C   0  0  0  0  0  0  0  0  0  0  0  0
  188.9460  178.2440  141.9310 C   0  0  0  0  0  2  0  0  0  0  0  0
  190.9930  175.6530  143.2340 C   0  0  0  0  0  0  0  0  0  0  0  0
  187.2640  175.9970  140.6730 N   0  0  0  0  0  2  0  0  0  0  0  0
  187.7770  175.2010  141.7800 C   0  0  0  0  0  2  0  0  0  0  0  0
  187.4950  178.1500  141.8720 N   0  0  0  0  0  0  0  0  0  0  0  0
  190.0180  174.8250  142.8040 N   0  0  0  0  0  0  0  0  0  0  0  0
  190.7380  176.9190  142.9910 O   0  0  0  0  0  0  0  0  0  0  0  0
  189.5770  176.9670  142.3920 C   0  0  0  0  0  0  0  0  0  0  0  0
  193.5240  171.2950  143.3840 N   0  0  0  0  0  0  0  0  0  0  0  0
  194.4200  176.1150  144.9480 C   0  0  0  0  0  2  0  0  0  0  0  0
  192.2300  175.1700  143.9230 C   0  0  1  0  0  3  0  0  0  0  0  0
  195.7400  174.8910  146.5090 O   0  0  0  0  0  1  0  0  0  0  0  0
  192.1240  173.1390  142.3640 C   0  0  2  0  0  3  0  0  0  0  0  0
  194.4730  174.9420  145.9310 C   0  0  2  0  0  3  0  0  0  0  0  0
  193.0440  174.1840  143.0460 C   0  0  2  0  0  3  0  0  0  0  0  0
  193.0180  176.3970  144.4070 C   0  0  0  0  0  2  0  0  0  0  0  0
  192.2400  171.7750  142.9840 C   0  0  0  0  0  0  0  0  0  0  0  0
  194.1560  173.5840  145.2900 C   0  0  0  0  0  2  0  0  0  0  0  0
  194.6670  172.1940  143.2240 C   0  0  1  0  0  3  0  0  0  0  0  0
  194.3030  173.5870  143.7590 C   0  0  1  0  0  3  0  0  0  0  0  0
  191.2150  171.0580  143.1270 O   0  0  0  0  0  0  0  0  0  0  0  0
  193.6460  170.0860  143.9840 O   0  0  0  0  0  1  0  0  0  0  0  0
  195.9440  171.6410  143.8550 C   0  0  0  0  0  3  0  0  0  0  0  0
  196.9190  171.2560  142.7590 C   0  0  0  0  0  2  0  0  0  0  0  0
  197.1070  172.5520  143.5170 C   0  0  0  0  0  2  0  0  0  0  0  0
  192.4440  173.0870  140.8760 C   0  0  0  0  0  2  0  0  0  0  0  0
  191.1840  173.2620  140.0440 C   0  0  0  0  0  2  0  0  0  0  0  0
  191.8220  171.4790  136.1950 C   0  0  0  0  0  3  0  0  0  0  0  0
  191.3830  172.6600  138.6960 C   0  0  0  0  0  0  0  0  0  0  0  0
  192.5120  172.6430  136.5500 C   0  0  0  0  0  3  0  0  0  0  0  0
  192.2960  173.2310  137.8000 C   0  0  0  0  0  3  0  0  0  0  0  0
  190.9140  170.9020  137.0910 C   0  0  0  0  0  3  0  0  0  0  0  0
  190.6980  171.4900  138.3420 C   0  0  0  0  0  3  0  0  0  0  0  0
  186.6840  179.0740  142.6570 C   0  0  0  0  0  2  0  0  0  0  0  0
  185.4950  178.3450  143.2650 C   0  0  0  0  0  2  0  0  0  0  0  0
  184.5600  179.3300  143.9500 C   0  0  2  0  0  3  0  0  0  0  0  0
  184.7790  179.3820  145.4670 C   0  0  0  0  0  2  0  0  0  0  0  0
  184.1220  178.2250  146.2150 C   0  0  0  0  0  2  0  0  0  0  0  0
  186.1640  178.2370  148.2180 O   0  0  0  0  0  0  0  0  0  0  0  0
  186.1190  177.2550  147.4290 C   0  0  0  0  0  0  0  0  0  0  0  0
  185.0870  177.1580  146.4480 N   0  0  0  0  0  2  0  0  0  0  0  0
  187.1390  176.1730  147.5400 C   0  0  0  0  0  2  0  0  0  0  0  0
  188.1140  176.2180  146.3700 C   0  0  0  0  0  3  0  0  0  0  0  0
  189.0880  175.0890  146.4870 C   0  0  0  0  0  3  0  0  0  0  0  0
  189.3120  174.5700  147.5700 O   0  0  0  0  0  0  0  0  0  0  0  0
  188.8540  177.5170  146.3760 C   0  0  0  0  0  3  0  0  0  0  0  0
  190.0440  177.5530  146.1090 O   0  0  0  0  0  0  0  0  0  0  0  0
  183.1120  179.0310  143.5870 C   0  0  0  0  0  2  0  0  0  0  0  0
  183.0210  178.5390  142.1500 C   0  0  0  0  0  2  0  0  0  0  0  0
  179.2880  179.1530  142.0530 C   0  0  0  0  0  3  0  0  0  0  0  0
  178.9380  178.5320  140.8500 C   0  0  0  0  0  3  0  0  0  0  0  0
  180.6210  179.1550  142.4770 C   0  0  0  0  0  3  0  0  0  0  0  0
  181.2510  177.9160  140.4920 C   0  0  0  0  0  3  0  0  0  0  0  0
  181.6040  178.5340  141.6980 C   0  0  0  0  0  0  0  0  0  0  0  0
  179.9190  177.9150  140.0690 C   0  0  0  0  0  3  0  0  0  0  0  0
  1  2  2  0  0  0  0
  2  8  1  0  0  0  0
  3 11  2  0  0  0  0
  3  9  1  0  0  0  0
  4 11  1  0  0  0  0
  6  2  1  0  0  0  0
  6  7  1  0  0  0  0
  7  3  1  0  0  0  0
  8  4  1  0  0  0  0
  8 37  1  0  0  0  0
  9  5  2  0  0  0  0
 10  5  1  0  0  0  0
 11 10  1  0  0  0  0
 12 25  1  0  0  0  0
 13 17  1  0  0  0  0
 14  5  1  6  0  0  0
 14 19  1  0  0  0  0
 16 29  1  6  0  0  0
 16 20  1  0  0  0  0
 16 18  1  0  0  0  0
 17 15  1  6  0  0  0
 18 23  1  0  0  0  0
 18 14  1  0  0  0  0
 19 13  1  0  0  0  0
 20 24  2  0  0  0  0
 20 12  1  0  0  0  0
 21 17  1  0  0  0  0
 22 12  1  0  0  0  0
 22 23  1  0  0  0  0
 22 26  1  0  0  0  0
 23 21  1  0  0  0  0
 27 28  1  0  0  0  0
 27 26  1  0  0  0  0
 28 26  1  0  0  0  0
 30 29  1  0  0  0  0
 31 33  2  0  0  0  0
 31 35  1  0  0  0  0
 32 30  1  0  0  0  0
 33 34  1  0  0  0  0
 34 32  2  0  0  0  0
 35 36  2  0  0  0  0
 36 32  1  0  0  0  0
 37 38  1  0  0  0  0
 38 39  1  0  0  0  0
 39 40  1  0  0  0  0
 40 41  1  0  0  0  0
 41 44  1  0  0  0  0
 43 45  1  0  0  0  0
 43 42  2  0  0  0  0
 44 43  1  0  0  0  0
 46 49  1  0  0  0  0
 46 47  1  0  0  0  0
 46 45  1  0  0  0  0
 47 48  2  0  0  0  0
 50 49  2  0  0  0  0
 51 39  1  0  0  0  0
 52 51  1  0  0  0  0
 53 55  1  0  0  0  0
 54 53  2  0  0  0  0
 56 57  1  0  0  0  0
 57 52  1  0  0  0  0
 57 55  2  0  0  0  0
 58 56  2  0  0  0  0
 58 54  1  0  0  0  0
M  END
>  <MODEL>
9

>  <REMARK>
 VINA RESULT:      -5.2      2.861      5.431
  Name = 
  18 active torsions:
  status: ('A' for Active; 'I' for Inactive)
    1  A    between atoms: C_1  and  C_13
    2  A    between atoms: C_4  and  C_41
    3  A    between atoms: C_7  and  C_10
    4  A    between atoms: C_7  and  C_46
    5  A    between atoms: C_7  and  C_47
    6  A    between atoms: C_10  and  C_54
    7  A    between atoms: C_12  and  C_33
    8  A    between atoms: C_13  and  C_31
    9  A    between atoms: C_13  and  C_39
   10  A    between atoms: C_14  and  C_31
   11  A    between atoms: C_18  and  C_56
   12  A    between atoms: C_19  and  C_24
   13  A    between atoms: C_24  and  C_56
   14  A    between atoms: C_26  and  C_54
   15  A    between atoms: C_28  and  N_43
   16  A    between atoms: C_28  and  C_47
   17  A    between atoms: N_38  and  C_40
   18  A    between atoms: C_40  and  C_46
                            x       y       z     vdW  Elec       q    Type
                         _______ _______ _______ _____ _____    ______ ____

>  <TORSDO>
F 18

$$$$
