=
 OpenBabel11062419013D

 51 56  0  0  1  0  0  0  0  0999 V2000
  193.6110  175.1390  143.9260 C   0  0  0  0  0  2  0  0  0  0  0  0
  193.8700  175.5010  145.3020 N   0  0  0  0  0  0  0  0  0  0  0  0
  195.8820  174.5220  144.5510 C   0  0  1  0  0  0  0  0  0  0  0  0
  195.2370  175.2550  145.7200 C   0  0  0  0  0  2  0  0  0  0  0  0
  196.7230  176.1070  143.0180 C   0  0  0  0  0  2  0  0  0  0  0  0
  195.4670  175.7040  142.5060 O   0  0  0  0  0  0  0  0  0  0  0  0
  194.9530  174.7100  143.3640 C   0  0  2  0  0  3  0  0  0  0  0  0
  197.1550  175.1790  144.1330 C   0  0  0  0  0  2  0  0  0  0  0  0
  192.8320  175.7980  146.2430 C   0  0  0  0  0  0  0  0  0  0  0  0
  193.0390  176.6180  147.1770 O   0  0  0  0  0  0  0  0  0  0  0  0
  196.6210  172.6670  145.8890 O   0  0  0  0  0  0  0  0  0  0  0  0
  196.0680  173.0560  144.8280 C   0  0  0  0  0  0  0  0  0  0  0  0
  195.5960  172.1280  143.8950 O   0  0  0  0  0  0  0  0  0  0  0  0
  189.1610  172.3190  140.9150 C   0  0  0  0  0  2  0  0  0  0  0  0
  194.3950  171.3470  144.0510 C   0  0  2  0  0  0  0  0  0  0  0  0
  192.1950  170.5350  141.1270 O   0  0  0  0  0  0  0  0  0  0  0  0
  191.3380  171.6610  141.2400 C   0  0  2  0  0  3  0  0  0  0  0  0
  188.7790  172.2330  142.3260 N   0  0  0  0  0  2  0  0  0  0  0  0
  192.4220  172.1190  144.7480 O   0  0  0  0  0  0  0  0  0  0  0  0
  193.4970  170.8330  141.6060 C   0  0  0  0  0  2  0  0  0  0  0  0
  189.5760  172.1200  144.5410 N   0  0  0  0  0  2  0  0  0  0  0  0
  193.4520  171.6020  142.9280 C   0  0  1  0  0  3  0  0  0  0  0  0
  189.8310  172.1030  143.2690 C   0  0  0  0  0  0  0  0  0  0  0  0
  192.2000  171.4540  143.5810 N   0  0  2  0  0  0  0  0  0  0  0  0
  191.2420  172.1710  142.7400 C   0  0  1  0  0  3  0  0  0  0  0  0
  190.1020  171.3130  140.6430 O   0  0  0  0  0  0  0  0  0  0  0  0
  193.6480  171.7700  145.1800 O   0  0  0  0  0  0  0  0  0  0  0  0
  194.7780  169.8890  144.2360 C   0  0  0  0  0  0  0  0  0  0  0  0
  195.6410  169.3550  143.5430 O   0  0  0  0  0  0  0  0  0  0  0  0
  193.0250  168.3540  144.6230 O   0  0  0  0  0  1  0  0  0  0  0  0
  194.0440  169.0600  145.2440 C   0  0  0  0  0  2  0  0  0  0  0  0
  191.5090  175.1070  146.1470 C   0  0  0  0  0  2  0  0  0  0  0  0
  190.3550  176.0820  145.9160 C   0  0  1  0  0  3  0  0  0  0  0  0
  190.2110  176.9600  146.9880 O   0  0  0  0  0  1  0  0  0  0  0  0
  190.4420  176.8130  144.5700 C   0  0  2  0  0  3  0  0  0  0  0  0
  190.9260  178.1130  144.7140 O   0  0  0  0  0  0  0  0  0  0  0  0
  191.8510  178.2230  143.7970 O   0  0  0  0  0  1  0  0  0  0  0  0
  189.1360  176.7680  143.7310 C   0  0  2  0  0  3  0  0  0  0  0  0
  189.2640  176.3420  142.2670 C   0  0  1  0  0  3  0  0  0  0  0  0
  190.2980  175.4200  142.0520 O   0  0  0  0  0  1  0  0  0  0  0  0
  187.7280  175.9100  140.5370 O   0  0  0  0  0  0  0  0  0  0  0  0
  186.9820  175.2110  142.6340 C   0  0  0  0  0  1  0  0  0  0  0  0
  187.9800  175.8190  141.7200 C   0  0  0  0  0  0  0  0  0  0  0  0
  188.4060  177.9850  143.8090 O   0  0  0  0  0  0  0  0  0  0  0  0
  186.1580  178.5720  143.9410 N   0  0  0  0  0  2  0  0  0  0  0  0
  187.1810  177.7910  145.9200 N   0  0  0  0  0  2  0  0  0  0  0  0
  187.2210  178.1190  144.5330 C   0  0  0  0  0  0  0  0  0  0  0  0
  185.7230  179.1600  147.4030 C   0  0  0  0  0  2  0  0  0  0  0  0
  186.2600  178.0350  148.0720 O   0  0  0  0  0  0  0  0  0  0  0  0
  184.8430  176.9210  146.4610 C   0  0  0  0  0  1  0  0  0  0  0  0
  185.9730  177.8920  146.7120 C   0  0  2  0  0  0  0  0  0  0  0  0
  1  2  1  0  0  0  0
  2  4  1  0  0  0  0
  2  9  1  0  0  0  0
  3 12  1  1  0  0  0
  3  4  1  0  0  0  0
  5  8  1  0  0  0  0
  6  5  1  0  0  0  0
  6  7  1  0  0  0  0
  7  1  1  1  0  0  0
  7  3  1  0  0  0  0
  8  3  1  0  0  0  0
  9 10  2  0  0  0  0
 12 11  2  0  0  0  0
 13 12  1  0  0  0  0
 14 18  1  0  0  0  0
 15 13  1  6  0  0  0
 15 28  1  0  0  0  0
 15 27  1  0  0  0  0
 16 17  1  0  0  0  0
 16 20  1  0  0  0  0
 17 26  1  1  0  0  0
 17 25  1  0  0  0  0
 18 23  1  0  0  0  0
 19 27  1  0  0  0  0
 22 20  1  6  0  0  0
 22 24  1  0  0  0  0
 22 15  1  0  0  0  0
 23 21  2  0  0  0  0
 24 19  1  1  0  0  0
 25 23  1  1  0  0  0
 25 24  1  0  0  0  0
 26 14  1  0  0  0  0
 28 31  1  0  0  0  0
 29 28  2  0  0  0  0
 30 31  1  0  0  0  0
 32  9  1  0  0  0  0
 33 32  1  0  0  0  0
 33 34  1  1  0  0  0
 35 36  1  1  0  0  0
 35 33  1  0  0  0  0
 37 36  1  0  0  0  0
 38 44  1  6  0  0  0
 38 35  1  0  0  0  0
 39 40  1  1  0  0  0
 39 38  1  0  0  0  0
 41 43  2  0  0  0  0
 43 39  1  0  0  0  0
 43 42  1  0  0  0  0
 44 47  1  0  0  0  0
 45 47  2  0  0  0  0
 46 51  1  0  0  0  0
 47 46  1  0  0  0  0
 48 49  1  0  0  0  0
 51 50  1  6  0  0  0
 51 48  1  0  0  0  0
 51 49  1  0  0  0  0
M  END
>  <MODEL>
1

>  <REMARK>
 VINA RESULT:      -6.6      0.000      0.000
  Name = 
  15 active torsions:
  status: ('A' for Active; 'I' for Inactive)
    1  A    between atoms: C_2  and  C_4
    2  A    between atoms: C_2  and  O_13
    3  A    between atoms: C_3  and  C_23
    4  A    between atoms: C_3  and  C_46
    5  A    between atoms: C_4  and  C_50
    6  A    between atoms: C_7  and  O_9
    7  A    between atoms: C_7  and  C_10
    8  A    between atoms: C_7  and  C_23
    9  A    between atoms: C_10  and  C_11
   10  A    between atoms: C_11  and  C_44
   11  A    between atoms: O_13  and  C_49
   12  A    between atoms: C_18  and  C_49
   13  A    between atoms: C_23  and  O_28
   14  A    between atoms: N_26  and  C_48
   15  A    between atoms: O_28  and  C_32
                            x       y       z     vdW  Elec       q    Type
                         _______ _______ _______ _____ _____    ______ ____

>  <TORSDO>
F 15

$$$$
=
 OpenBabel11062419013D

 51 56  0  0  1  0  0  0  0  0999 V2000
  190.0700  172.5920  142.2210 C   0  0  0  0  0  2  0  0  0  0  0  0
  189.7930  173.0830  140.8890 N   0  0  0  0  0  0  0  0  0  0  0  0
  191.7790  171.8270  140.6640 C   0  0  1  0  0  0  0  0  0  0  0  0
  190.7150  172.5870  139.8850 C   0  0  0  0  0  2  0  0  0  0  0  0
  191.0590  169.6030  140.9830 C   0  0  0  0  0  2  0  0  0  0  0  0
  190.7450  170.2850  142.1820 O   0  0  0  0  0  0  0  0  0  0  0  0
  191.2130  171.6090  142.0570 C   0  0  2  0  0  3  0  0  0  0  0  0
  191.9710  170.4510  140.1230 C   0  0  0  0  0  2  0  0  0  0  0  0
  188.8940  174.1660  140.6240 C   0  0  0  0  0  0  0  0  0  0  0  0
  188.2480  174.2030  139.5430 O   0  0  0  0  0  0  0  0  0  0  0  0
  193.6680  172.9660  139.7100 O   0  0  0  0  0  0  0  0  0  0  0  0
  193.0750  172.5850  140.7520 C   0  0  0  0  0  0  0  0  0  0  0  0
  193.6010  172.8790  142.0130 O   0  0  0  0  0  0  0  0  0  0  0  0
  190.6400  176.0220  147.6420 C   0  0  0  0  0  2  0  0  0  0  0  0
  193.6800  174.2010  142.5810 C   0  0  2  0  0  0  0  0  0  0  0  0
  193.6360  174.7460  146.2880 O   0  0  0  0  0  0  0  0  0  0  0  0
  192.2310  174.9000  146.4220 C   0  0  2  0  0  3  0  0  0  0  0  0
  190.3770  177.0390  146.6230 N   0  0  0  0  0  2  0  0  0  0  0  0
  191.9790  175.6260  142.8030 O   0  0  0  0  0  0  0  0  0  0  0  0
  193.9560  173.8910  145.2030 C   0  0  0  0  0  2  0  0  0  0  0  0
  190.6210  177.6040  144.3470 N   0  0  0  0  0  2  0  0  0  0  0  0
  193.1240  174.2150  143.9610 C   0  0  1  0  0  3  0  0  0  0  0  0
  190.8970  176.7970  145.3240 C   0  0  0  0  0  0  0  0  0  0  0  0
  192.5750  175.5240  144.0220 N   0  0  2  0  0  0  0  0  0  0  0  0
  191.5800  175.4710  145.0930 C   0  0  1  0  0  3  0  0  0  0  0  0
  191.9990  175.6720  147.5860 O   0  0  0  0  0  0  0  0  0  0  0  0
  192.8290  175.1070  141.8980 O   0  0  0  0  0  0  0  0  0  0  0  0
  195.1120  174.6980  142.4710 C   0  0  0  0  0  0  0  0  0  0  0  0
  196.0700  173.9380  142.5910 O   0  0  0  0  0  0  0  0  0  0  0  0
  196.1650  176.6430  143.3010 O   0  0  0  0  0  1  0  0  0  0  0  0
  195.3680  176.1600  142.2750 C   0  0  0  0  0  2  0  0  0  0  0  0
  188.7470  175.2810  141.6100 C   0  0  0  0  0  2  0  0  0  0  0  0
  187.3270  175.8440  141.6490 C   0  0  1  0  0  3  0  0  0  0  0  0
  186.6270  175.3720  142.7570 O   0  0  0  0  0  1  0  0  0  0  0  0
  187.2790  177.3730  141.5350 C   0  0  2  0  0  3  0  0  0  0  0  0
  188.2420  177.9850  142.3370 O   0  0  0  0  0  0  0  0  0  0  0  0
  188.9790  178.6690  141.5020 O   0  0  0  0  0  1  0  0  0  0  0  0
  185.8690  177.9870  141.7450 C   0  0  2  0  0  3  0  0  0  0  0  0
  185.0360  178.2620  140.4920 C   0  0  1  0  0  3  0  0  0  0  0  0
  185.4930  177.5660  139.3650 O   0  0  0  0  0  1  0  0  0  0  0  0
  182.9010  177.5260  139.8290 O   0  0  0  0  0  0  0  0  0  0  0  0
  182.9620  178.3470  142.0120 C   0  0  0  0  0  1  0  0  0  0  0  0
  183.5860  177.9980  140.7120 C   0  0  0  0  0  0  0  0  0  0  0  0
  185.9080  179.1540  142.5550 O   0  0  0  0  0  0  0  0  0  0  0  0
  185.5460  180.2440  144.5790 N   0  0  0  0  0  2  0  0  0  0  0  0
  185.7810  177.8960  144.6510 N   0  0  0  0  0  2  0  0  0  0  0  0
  185.7310  179.1300  143.9380 C   0  0  0  0  0  0  0  0  0  0  0  0
  186.7790  177.7800  146.9300 C   0  0  0  0  0  2  0  0  0  0  0  0
  186.0620  176.6050  146.5990 O   0  0  0  0  0  0  0  0  0  0  0  0
  184.2420  178.1960  146.6660 C   0  0  0  0  0  1  0  0  0  0  0  0
  185.5820  177.8120  146.0830 C   0  0  2  0  0  0  0  0  0  0  0  0
  2  1  1  0  0  0  0
  3 12  1  1  0  0  0
  3  7  1  0  0  0  0
  4  3  1  0  0  0  0
  4  2  1  0  0  0  0
  5  6  1  0  0  0  0
  7  6  1  0  0  0  0
  7  1  1  6  0  0  0
  8  3  1  0  0  0  0
  8  5  1  0  0  0  0
  9  2  1  0  0  0  0
  9 32  1  0  0  0  0
 10  9  2  0  0  0  0
 11 12  2  0  0  0  0
 12 13  1  0  0  0  0
 15 13  1  6  0  0  0
 15 22  1  0  0  0  0
 17 16  1  6  0  0  0
 17 26  1  0  0  0  0
 18 14  1  0  0  0  0
 20 16  1  0  0  0  0
 21 23  2  0  0  0  0
 22 24  1  0  0  0  0
 22 20  1  1  0  0  0
 23 18  1  0  0  0  0
 24 19  1  6  0  0  0
 24 25  1  0  0  0  0
 25 23  1  1  0  0  0
 25 17  1  0  0  0  0
 26 14  1  0  0  0  0
 27 15  1  0  0  0  0
 27 19  1  0  0  0  0
 28 15  1  0  0  0  0
 28 29  2  0  0  0  0
 31 28  1  0  0  0  0
 31 30  1  0  0  0  0
 32 33  1  0  0  0  0
 33 34  1  1  0  0  0
 35 33  1  0  0  0  0
 35 38  1  0  0  0  0
 35 36  1  1  0  0  0
 37 36  1  0  0  0  0
 38 44  1  6  0  0  0
 39 40  1  6  0  0  0
 39 43  1  0  0  0  0
 39 38  1  0  0  0  0
 41 43  2  0  0  0  0
 43 42  1  0  0  0  0
 44 47  1  0  0  0  0
 46 51  1  0  0  0  0
 47 45  2  0  0  0  0
 47 46  1  0  0  0  0
 49 48  1  0  0  0  0
 51 49  1  0  0  0  0
 51 50  1  1  0  0  0
 51 48  1  0  0  0  0
M  END
>  <MODEL>
2

>  <REMARK>
 VINA RESULT:      -6.6      2.316      5.503
  Name = 
  15 active torsions:
  status: ('A' for Active; 'I' for Inactive)
    1  A    between atoms: C_2  and  C_4
    2  A    between atoms: C_2  and  O_13
    3  A    between atoms: C_3  and  C_23
    4  A    between atoms: C_3  and  C_46
    5  A    between atoms: C_4  and  C_50
    6  A    between atoms: C_7  and  O_9
    7  A    between atoms: C_7  and  C_10
    8  A    between atoms: C_7  and  C_23
    9  A    between atoms: C_10  and  C_11
   10  A    between atoms: C_11  and  C_44
   11  A    between atoms: O_13  and  C_49
   12  A    between atoms: C_18  and  C_49
   13  A    between atoms: C_23  and  O_28
   14  A    between atoms: N_26  and  C_48
   15  A    between atoms: O_28  and  C_32
                            x       y       z     vdW  Elec       q    Type
                         _______ _______ _______ _____ _____    ______ ____

>  <TORSDO>
F 15

$$$$
=
 OpenBabel11062419013D

 51 56  0  0  1  0  0  0  0  0999 V2000
  191.5890  173.3220  140.2250 C   0  0  0  0  0  2  0  0  0  0  0  0
  191.4070  171.9680  140.7000 N   0  0  0  0  0  0  0  0  0  0  0  0
  189.2190  172.8250  140.4760 C   0  0  1  0  0  0  0  0  0  0  0  0
  190.0160  171.5640  140.7800 C   0  0  0  0  0  2  0  0  0  0  0  0
  188.9430  173.0170  138.1400 C   0  0  0  0  0  2  0  0  0  0  0  0
  190.0360  173.8530  138.4690 O   0  0  0  0  0  0  0  0  0  0  0  0
  190.2000  173.8140  139.8680 C   0  0  2  0  0  3  0  0  0  0  0  0
  188.2170  172.5880  139.3970 C   0  0  0  0  0  2  0  0  0  0  0  0
  192.4550  171.2010  141.3030 C   0  0  0  0  0  0  0  0  0  0  0  0
  192.4740  169.9470  141.1800 O   0  0  0  0  0  0  0  0  0  0  0  0
  187.4360  173.0780  142.0670 O   0  0  0  0  0  0  0  0  0  0  0  0
  188.5930  173.4170  141.7080 C   0  0  0  0  0  0  0  0  0  0  0  0
  189.3270  174.3380  142.4630 O   0  0  0  0  0  0  0  0  0  0  0  0
  184.4800  177.7520  146.3580 C   0  0  0  0  0  2  0  0  0  0  0  0
  188.9740  175.7240  142.6350 C   0  0  2  0  0  0  0  0  0  0  0  0
  187.9180  177.0760  145.9670 O   0  0  0  0  0  0  0  0  0  0  0  0
  186.5240  176.8630  145.8040 C   0  0  2  0  0  3  0  0  0  0  0  0
  184.2530  178.3930  145.0620 N   0  0  0  0  0  2  0  0  0  0  0  0
  186.9990  176.6350  142.1420 O   0  0  0  0  0  0  0  0  0  0  0  0
  188.6710  176.1160  145.2430 C   0  0  0  0  0  2  0  0  0  0  0  0
  184.9080  178.4630  142.7980 N   0  0  0  0  0  2  0  0  0  0  0  0
  188.1130  175.9020  143.8350 C   0  0  1  0  0  3  0  0  0  0  0  0
  185.1110  178.0110  143.9970 C   0  0  0  0  0  0  0  0  0  0  0  0
  187.2910  176.9860  143.4240 N   0  0  2  0  0  0  0  0  0  0  0  0
  186.1040  176.9090  144.2750 C   0  0  1  0  0  3  0  0  0  0  0  0
  185.8550  177.7880  146.6420 O   0  0  0  0  0  0  0  0  0  0  0  0
  188.1350  176.1770  141.5850 O   0  0  0  0  0  0  0  0  0  0  0  0
  190.2440  176.5570  142.6390 C   0  0  0  0  0  0  0  0  0  0  0  0
  190.2160  177.7770  142.4920 O   0  0  0  0  0  0  0  0  0  0  0  0
  192.5770  176.7060  142.3000 O   0  0  0  0  0  1  0  0  0  0  0  0
  191.5700  175.8730  142.7620 C   0  0  0  0  0  2  0  0  0  0  0  0
  193.5130  171.8780  142.1150 C   0  0  0  0  0  2  0  0  0  0  0  0
  194.6070  170.9150  142.5710 C   0  0  1  0  0  3  0  0  0  0  0  0
  195.8590  171.3190  142.1140 O   0  0  0  0  0  1  0  0  0  0  0  0
  194.5930  170.6560  144.0830 C   0  0  2  0  0  3  0  0  0  0  0  0
  193.3740  170.1290  144.5090 O   0  0  0  0  0  0  0  0  0  0  0  0
  193.6950  169.0530  145.1780 O   0  0  0  0  0  1  0  0  0  0  0  0
  195.0380  171.8670  144.9450 C   0  0  2  0  0  3  0  0  0  0  0  0
  196.3510  171.7270  145.7180 C   0  0  1  0  0  3  0  0  0  0  0  0
  197.1350  170.6520  145.2780 O   0  0  0  0  0  1  0  0  0  0  0  0
  197.2510  173.6630  146.7100 O   0  0  0  0  0  0  0  0  0  0  0  0
  197.7870  173.4450  144.4500 C   0  0  0  0  0  1  0  0  0  0  0  0
  197.1460  172.9880  145.7070 C   0  0  0  0  0  0  0  0  0  0  0  0
  194.0120  172.3030  145.8280 O   0  0  0  0  0  0  0  0  0  0  0  0
  192.3120  173.6920  145.0560 N   0  0  0  0  0  2  0  0  0  0  0  0
  194.0050  174.6910  146.3640 N   0  0  0  0  0  2  0  0  0  0  0  0
  193.4090  173.5570  145.7380 C   0  0  0  0  0  0  0  0  0  0  0  0
  193.9960  176.9850  145.3930 C   0  0  0  0  0  2  0  0  0  0  0  0
  194.2960  176.9900  146.7760 O   0  0  0  0  0  0  0  0  0  0  0  0
  192.0100  176.2080  146.8510 C   0  0  0  0  0  1  0  0  0  0  0  0
  193.4100  176.0110  146.3190 C   0  0  2  0  0  0  0  0  0  0  0  0
  1  2  1  0  0  0  0
  2  4  1  0  0  0  0
  2  9  1  0  0  0  0
  3  4  1  0  0  0  0
  3 12  1  1  0  0  0
  5  6  1  0  0  0  0
  5  8  1  0  0  0  0
  6  7  1  0  0  0  0
  7  1  1  6  0  0  0
  7  3  1  0  0  0  0
  8  3  1  0  0  0  0
  9 32  1  0  0  0  0
 10  9  2  0  0  0  0
 12 11  2  0  0  0  0
 12 13  1  0  0  0  0
 14 26  1  0  0  0  0
 15 13  1  6  0  0  0
 15 28  1  0  0  0  0
 15 22  1  0  0  0  0
 17 16  1  6  0  0  0
 17 26  1  0  0  0  0
 18 14  1  0  0  0  0
 20 16  1  0  0  0  0
 21 23  2  0  0  0  0
 22 20  1  1  0  0  0
 23 18  1  0  0  0  0
 24 19  1  6  0  0  0
 24 22  1  0  0  0  0
 24 25  1  0  0  0  0
 25 23  1  1  0  0  0
 25 17  1  0  0  0  0
 27 19  1  0  0  0  0
 27 15  1  0  0  0  0
 28 31  1  0  0  0  0
 29 28  2  0  0  0  0
 30 31  1  0  0  0  0
 32 33  1  0  0  0  0
 33 34  1  1  0  0  0
 33 35  1  0  0  0  0
 35 36  1  1  0  0  0
 35 38  1  0  0  0  0
 36 37  1  0  0  0  0
 38 39  1  0  0  0  0
 38 44  1  1  0  0  0
 39 40  1  6  0  0  0
 42 43  1  0  0  0  0
 43 39  1  0  0  0  0
 43 41  2  0  0  0  0
 45 47  2  0  0  0  0
 47 44  1  0  0  0  0
 47 46  1  0  0  0  0
 48 51  1  0  0  0  0
 48 49  1  0  0  0  0
 51 46  1  0  0  0  0
 51 49  1  0  0  0  0
 51 50  1  1  0  0  0
M  END
>  <MODEL>
3

>  <REMARK>
 VINA RESULT:      -6.5      1.929      8.294
  Name = 
  15 active torsions:
  status: ('A' for Active; 'I' for Inactive)
    1  A    between atoms: C_2  and  C_4
    2  A    between atoms: C_2  and  O_13
    3  A    between atoms: C_3  and  C_23
    4  A    between atoms: C_3  and  C_46
    5  A    between atoms: C_4  and  C_50
    6  A    between atoms: C_7  and  O_9
    7  A    between atoms: C_7  and  C_10
    8  A    between atoms: C_7  and  C_23
    9  A    between atoms: C_10  and  C_11
   10  A    between atoms: C_11  and  C_44
   11  A    between atoms: O_13  and  C_49
   12  A    between atoms: C_18  and  C_49
   13  A    between atoms: C_23  and  O_28
   14  A    between atoms: N_26  and  C_48
   15  A    between atoms: O_28  and  C_32
                            x       y       z     vdW  Elec       q    Type
                         _______ _______ _______ _____ _____    ______ ____

>  <TORSDO>
F 15

$$$$
=
 OpenBabel11062419013D

 51 56  0  0  1  0  0  0  0  0999 V2000
  191.5340  173.7450  140.6580 C   0  0  0  0  0  2  0  0  0  0  0  0
  191.5020  172.6690  141.6250 N   0  0  0  0  0  0  0  0  0  0  0  0
  189.2360  173.2320  141.2790 C   0  0  1  0  0  0  0  0  0  0  0  0
  190.1600  172.2390  141.9700 C   0  0  0  0  0  2  0  0  0  0  0  0
  188.8180  172.4920  139.0770 C   0  0  0  0  0  2  0  0  0  0  0  0
  189.8460  173.4580  138.9700 O   0  0  0  0  0  0  0  0  0  0  0  0
  190.0880  173.9710  140.2610 C   0  0  2  0  0  3  0  0  0  0  0  0
  188.2030  172.5340  140.4600 C   0  0  0  0  0  2  0  0  0  0  0  0
  192.6470  172.2620  142.3830 C   0  0  0  0  0  0  0  0  0  0  0  0
  192.7740  171.0620  142.7440 O   0  0  0  0  0  0  0  0  0  0  0  0
  187.3800  174.3890  142.2750 O   0  0  0  0  0  0  0  0  0  0  0  0
  188.6260  174.2110  142.2420 C   0  0  0  0  0  0  0  0  0  0  0  0
  189.4630  174.9090  143.1180 O   0  0  0  0  0  0  0  0  0  0  0  0
  184.2320  178.1580  146.6400 C   0  0  0  0  0  2  0  0  0  0  0  0
  189.2410  176.2620  143.5600 C   0  0  2  0  0  0  0  0  0  0  0  0
  187.5580  177.0020  146.8260 O   0  0  0  0  0  0  0  0  0  0  0  0
  186.2320  177.0740  146.3230 C   0  0  2  0  0  3  0  0  0  0  0  0
  184.4080  179.1000  145.5340 N   0  0  0  0  0  2  0  0  0  0  0  0
  187.5680  177.5870  142.9110 O   0  0  0  0  0  0  0  0  0  0  0  0
  188.3490  176.1120  146.0570 C   0  0  0  0  0  2  0  0  0  0  0  0
  185.6060  179.5560  143.5560 N   0  0  0  0  0  2  0  0  0  0  0  0
  188.1360  176.3160  144.5560 C   0  0  1  0  0  3  0  0  0  0  0  0
  185.4530  178.8220  144.6140 C   0  0  0  0  0  0  0  0  0  0  0  0
  187.5730  177.5890  144.2720 N   0  0  2  0  0  0  0  0  0  0  0  0
  186.2110  177.5310  144.8040 C   0  0  1  0  0  3  0  0  0  0  0  0
  185.4880  177.8920  147.2080 O   0  0  0  0  0  0  0  0  0  0  0  0
  188.7460  177.0750  142.5080 O   0  0  0  0  0  0  0  0  0  0  0  0
  190.5590  176.8420  144.0470 C   0  0  0  0  0  0  0  0  0  0  0  0
  190.9780  176.6260  145.1820 O   0  0  0  0  0  0  0  0  0  0  0  0
  191.5370  178.9740  143.7670 O   0  0  0  0  0  1  0  0  0  0  0  0
  191.3380  177.7500  143.1470 C   0  0  0  0  0  2  0  0  0  0  0  0
  193.6800  173.2670  142.7850 C   0  0  0  0  0  2  0  0  0  0  0  0
  193.1880  174.2020  143.8880 C   0  0  1  0  0  3  0  0  0  0  0  0
  192.3950  173.5240  144.8100 O   0  0  0  0  0  1  0  0  0  0  0  0
  194.3190  174.9930  144.5590 C   0  0  2  0  0  3  0  0  0  0  0  0
  194.0530  176.3620  144.5820 O   0  0  0  0  0  0  0  0  0  0  0  0
  194.2640  176.7180  145.8220 O   0  0  0  0  0  1  0  0  0  0  0  0
  195.7340  174.6830  144.0030 C   0  0  2  0  0  3  0  0  0  0  0  0
  196.7620  174.1240  144.9890 C   0  0  1  0  0  3  0  0  0  0  0  0
  196.3420  174.2030  146.3240 O   0  0  0  0  0  1  0  0  0  0  0  0
  197.6110  172.4590  143.5580 O   0  0  0  0  0  0  0  0  0  0  0  0
  196.9750  171.6470  145.6510 C   0  0  0  0  0  1  0  0  0  0  0  0
  197.1610  172.7280  144.6520 C   0  0  0  0  0  0  0  0  0  0  0  0
  196.2940  175.7920  143.3120 O   0  0  0  0  0  0  0  0  0  0  0  0
  196.0610  177.0080  141.3420 N   0  0  0  0  0  2  0  0  0  0  0  0
  196.6640  174.7350  141.1360 N   0  0  0  0  0  2  0  0  0  0  0  0
  196.3410  175.8810  141.9210 C   0  0  0  0  0  0  0  0  0  0  0  0
  197.9410  174.2000  139.0650 C   0  0  0  0  0  2  0  0  0  0  0  0
  197.7950  175.5940  139.2580 O   0  0  0  0  0  0  0  0  0  0  0  0
  195.4860  174.9840  138.8840 C   0  0  0  0  0  1  0  0  0  0  0  0
  196.7470  174.7770  139.6900 C   0  0  2  0  0  0  0  0  0  0  0  0
  1  2  1  0  0  0  0
  2  4  1  0  0  0  0
  2  9  1  0  0  0  0
  3  4  1  0  0  0  0
  3 12  1  1  0  0  0
  5  8  1  0  0  0  0
  6  5  1  0  0  0  0
  6  7  1  0  0  0  0
  7  1  1  1  0  0  0
  7  3  1  0  0  0  0
  8  3  1  0  0  0  0
  9 10  2  0  0  0  0
  9 32  1  0  0  0  0
 12 11  2  0  0  0  0
 12 13  1  0  0  0  0
 14 26  1  0  0  0  0
 15 13  1  6  0  0  0
 15 28  1  0  0  0  0
 15 22  1  0  0  0  0
 17 16  1  1  0  0  0
 17 26  1  0  0  0  0
 18 14  1  0  0  0  0
 20 16  1  0  0  0  0
 21 23  2  0  0  0  0
 22 20  1  1  0  0  0
 23 18  1  0  0  0  0
 24 19  1  6  0  0  0
 24 22  1  0  0  0  0
 24 25  1  0  0  0  0
 25 23  1  1  0  0  0
 25 17  1  0  0  0  0
 27 19  1  0  0  0  0
 27 15  1  0  0  0  0
 28 29  2  0  0  0  0
 31 30  1  0  0  0  0
 31 28  1  0  0  0  0
 32 33  1  0  0  0  0
 33 35  1  0  0  0  0
 33 34  1  1  0  0  0
 35 36  1  6  0  0  0
 36 37  1  0  0  0  0
 38 44  1  1  0  0  0
 38 35  1  0  0  0  0
 38 39  1  0  0  0  0
 39 40  1  1  0  0  0
 41 43  2  0  0  0  0
 43 39  1  0  0  0  0
 43 42  1  0  0  0  0
 45 47  2  0  0  0  0
 46 47  1  0  0  0  0
 47 44  1  0  0  0  0
 48 49  1  0  0  0  0
 48 51  1  0  0  0  0
 49 51  1  0  0  0  0
 51 50  1  6  0  0  0
 51 46  1  0  0  0  0
M  END
>  <MODEL>
4

>  <REMARK>
 VINA RESULT:      -6.4      2.156      8.721
  Name = 
  15 active torsions:
  status: ('A' for Active; 'I' for Inactive)
    1  A    between atoms: C_2  and  C_4
    2  A    between atoms: C_2  and  O_13
    3  A    between atoms: C_3  and  C_23
    4  A    between atoms: C_3  and  C_46
    5  A    between atoms: C_4  and  C_50
    6  A    between atoms: C_7  and  O_9
    7  A    between atoms: C_7  and  C_10
    8  A    between atoms: C_7  and  C_23
    9  A    between atoms: C_10  and  C_11
   10  A    between atoms: C_11  and  C_44
   11  A    between atoms: O_13  and  C_49
   12  A    between atoms: C_18  and  C_49
   13  A    between atoms: C_23  and  O_28
   14  A    between atoms: N_26  and  C_48
   15  A    between atoms: O_28  and  C_32
                            x       y       z     vdW  Elec       q    Type
                         _______ _______ _______ _____ _____    ______ ____

>  <TORSDO>
F 15

$$$$
=
 OpenBabel11062419013D

 51 56  0  0  1  0  0  0  0  0999 V2000
  193.2700  176.0600  141.8480 C   0  0  0  0  0  2  0  0  0  0  0  0
  192.9110  176.7620  143.0600 N   0  0  0  0  0  0  0  0  0  0  0  0
  194.9070  175.6220  143.5950 C   0  0  1  0  0  0  0  0  0  0  0  0
  193.8930  176.6290  144.1190 C   0  0  0  0  0  2  0  0  0  0  0  0
  196.5440  176.7610  142.3330 C   0  0  0  0  0  2  0  0  0  0  0  0
  195.6230  176.2420  141.3920 O   0  0  0  0  0  0  0  0  0  0  0  0
  194.6570  175.5010  142.1020 C   0  0  2  0  0  3  0  0  0  0  0  0
  196.2990  176.1490  143.6960 C   0  0  0  0  0  2  0  0  0  0  0  0
  191.6020  177.2900  143.3020 C   0  0  0  0  0  0  0  0  0  0  0  0
  191.4560  178.3210  144.0120 O   0  0  0  0  0  0  0  0  0  0  0  0
  194.7700  174.1640  145.5010 O   0  0  0  0  0  0  0  0  0  0  0  0
  194.7650  174.2750  144.2480 C   0  0  0  0  0  0  0  0  0  0  0  0
  194.6060  173.1460  143.4390 O   0  0  0  0  0  0  0  0  0  0  0  0
  189.0500  172.7850  139.0440 C   0  0  0  0  0  2  0  0  0  0  0  0
  193.4170  172.3330  143.3900 C   0  0  2  0  0  0  0  0  0  0  0  0
  191.9820  171.1590  140.1330 O   0  0  0  0  0  0  0  0  0  0  0  0
  191.1010  172.2530  139.9290 C   0  0  2  0  0  3  0  0  0  0  0  0
  188.3480  172.8160  140.3280 N   0  0  0  0  0  2  0  0  0  0  0  0
  191.3210  173.0830  143.5280 O   0  0  0  0  0  0  0  0  0  0  0  0
  193.1290  171.5550  140.8670 C   0  0  0  0  0  2  0  0  0  0  0  0
  188.6040  172.9450  142.6680 N   0  0  0  0  0  2  0  0  0  0  0  0
  192.7610  172.4420  142.0590 C   0  0  1  0  0  3  0  0  0  0  0  0
  189.1520  172.8190  141.4990 C   0  0  0  0  0  0  0  0  0  0  0  0
  191.3930  172.3030  142.4150 N   0  0  2  0  0  0  0  0  0  0  0  0
  190.6460  172.8970  141.3070 C   0  0  1  0  0  3  0  0  0  0  0  0
  190.0470  171.7990  139.1000 O   0  0  0  0  0  0  0  0  0  0  0  0
  192.4180  172.8280  144.2660 O   0  0  0  0  0  0  0  0  0  0  0  0
  193.7740  170.9160  143.8050 C   0  0  0  0  0  0  0  0  0  0  0  0
  194.9240  170.4900  143.7250 O   0  0  0  0  0  0  0  0  0  0  0  0
  192.3480  169.1190  143.2410 O   0  0  0  0  0  1  0  0  0  0  0  0
  192.6890  169.9910  144.2630 C   0  0  0  0  0  2  0  0  0  0  0  0
  190.3970  176.5990  142.7480 C   0  0  0  0  0  2  0  0  0  0  0  0
  189.1230  177.4290  142.9030 C   0  0  1  0  0  3  0  0  0  0  0  0
  188.9440  178.2880  141.8220 O   0  0  0  0  0  1  0  0  0  0  0  0
  187.8780  176.5780  143.1870 C   0  0  2  0  0  3  0  0  0  0  0  0
  186.8800  176.7830  142.2350 O   0  0  0  0  0  0  0  0  0  0  0  0
  187.0810  175.8500  141.3420 O   0  0  0  0  0  1  0  0  0  0  0  0
  187.3350  176.7010  144.6360 C   0  0  2  0  0  3  0  0  0  0  0  0
  185.8960  177.1930  144.8010 C   0  0  1  0  0  3  0  0  0  0  0  0
  185.1910  176.5040  145.7970 O   0  0  0  0  0  1  0  0  0  0  0  0
  185.8320  179.1080  146.1680 O   0  0  0  0  0  0  0  0  0  0  0  0
  185.7200  179.5930  143.8880 C   0  0  0  0  0  1  0  0  0  0  0  0
  185.8290  178.6630  145.0390 C   0  0  0  0  0  0  0  0  0  0  0  0
  188.1970  177.4670  145.4680 O   0  0  0  0  0  0  0  0  0  0  0  0
  188.3640  176.1800  147.4000 N   0  0  0  0  0  2  0  0  0  0  0  0
  190.3500  177.1700  146.5950 N   0  0  0  0  0  2  0  0  0  0  0  0
  188.9500  176.9120  146.5030 C   0  0  0  0  0  0  0  0  0  0  0  0
  192.0700  175.4970  147.2620 C   0  0  0  0  0  2  0  0  0  0  0  0
  190.8310  175.2790  147.9110 O   0  0  0  0  0  0  0  0  0  0  0  0
  191.4430  177.4030  148.8900 C   0  0  0  0  0  1  0  0  0  0  0  0
  191.1820  176.6030  147.6350 C   0  0  2  0  0  0  0  0  0  0  0  0
  1  2  1  0  0  0  0
  2  9  1  0  0  0  0
  2  4  1  0  0  0  0
  3  8  1  0  0  0  0
  3  4  1  0  0  0  0
  3 12  1  1  0  0  0
  5  8  1  0  0  0  0
  6  7  1  0  0  0  0
  6  5  1  0  0  0  0
  7  1  1  1  0  0  0
  7  3  1  0  0  0  0
  9 10  2  0  0  0  0
 12 11  2  0  0  0  0
 13 12  1  0  0  0  0
 14 26  1  0  0  0  0
 14 18  1  0  0  0  0
 15 13  1  1  0  0  0
 15 28  1  0  0  0  0
 15 27  1  0  0  0  0
 16 20  1  0  0  0  0
 17 26  1  1  0  0  0
 17 16  1  0  0  0  0
 17 25  1  0  0  0  0
 18 23  1  0  0  0  0
 19 27  1  0  0  0  0
 22 20  1  6  0  0  0
 22 24  1  0  0  0  0
 22 15  1  0  0  0  0
 23 21  2  0  0  0  0
 24 19  1  1  0  0  0
 25 23  1  1  0  0  0
 25 24  1  0  0  0  0
 28 31  1  0  0  0  0
 29 28  2  0  0  0  0
 30 31  1  0  0  0  0
 32 33  1  0  0  0  0
 32  9  1  0  0  0  0
 33 34  1  6  0  0  0
 33 35  1  0  0  0  0
 35 36  1  6  0  0  0
 35 38  1  0  0  0  0
 37 36  1  0  0  0  0
 38 39  1  0  0  0  0
 38 44  1  1  0  0  0
 39 43  1  0  0  0  0
 39 40  1  1  0  0  0
 42 43  1  0  0  0  0
 43 41  2  0  0  0  0
 44 47  1  0  0  0  0
 46 51  1  0  0  0  0
 47 46  1  0  0  0  0
 47 45  2  0  0  0  0
 48 51  1  0  0  0  0
 48 49  1  0  0  0  0
 51 49  1  0  0  0  0
 51 50  1  1  0  0  0
M  END
>  <MODEL>
5

>  <REMARK>
 VINA RESULT:      -6.3      1.785      3.451
  Name = 
  15 active torsions:
  status: ('A' for Active; 'I' for Inactive)
    1  A    between atoms: C_2  and  C_4
    2  A    between atoms: C_2  and  O_13
    3  A    between atoms: C_3  and  C_23
    4  A    between atoms: C_3  and  C_46
    5  A    between atoms: C_4  and  C_50
    6  A    between atoms: C_7  and  O_9
    7  A    between atoms: C_7  and  C_10
    8  A    between atoms: C_7  and  C_23
    9  A    between atoms: C_10  and  C_11
   10  A    between atoms: C_11  and  C_44
   11  A    between atoms: O_13  and  C_49
   12  A    between atoms: C_18  and  C_49
   13  A    between atoms: C_23  and  O_28
   14  A    between atoms: N_26  and  C_48
   15  A    between atoms: O_28  and  C_32
                            x       y       z     vdW  Elec       q    Type
                         _______ _______ _______ _____ _____    ______ ____

>  <TORSDO>
F 15

$$$$
=
 OpenBabel11062419013D

 51 56  0  0  1  0  0  0  0  0999 V2000
  193.5060  176.0670  142.4840 C   0  0  0  0  0  2  0  0  0  0  0  0
  194.2020  175.9760  143.7490 N   0  0  0  0  0  0  0  0  0  0  0  0
  195.4220  174.5760  142.2920 C   0  0  1  0  0  0  0  0  0  0  0  0
  195.4140  175.1820  143.6890 C   0  0  0  0  0  2  0  0  0  0  0  0
  196.4400  176.0950  140.8000 C   0  0  0  0  0  2  0  0  0  0  0  0
  195.0460  176.2840  140.6510 O   0  0  0  0  0  0  0  0  0  0  0  0
  194.3950  175.3520  141.4840 C   0  0  2  0  0  3  0  0  0  0  0  0
  196.7150  174.8360  141.5940 C   0  0  0  0  0  2  0  0  0  0  0  0
  193.6180  176.3750  144.9950 C   0  0  0  0  0  0  0  0  0  0  0  0
  194.3460  176.8230  145.9200 O   0  0  0  0  0  0  0  0  0  0  0  0
  195.3080  172.4010  143.3070 O   0  0  0  0  0  0  0  0  0  0  0  0
  195.0680  173.1150  142.2990 C   0  0  0  0  0  0  0  0  0  0  0  0
  194.4460  172.5650  141.1740 O   0  0  0  0  0  0  0  0  0  0  0  0
  188.8670  174.0170  137.0410 C   0  0  0  0  0  2  0  0  0  0  0  0
  193.0810  172.1060  141.1340 C   0  0  2  0  0  0  0  0  0  0  0  0
  191.2830  171.5920  137.8870 O   0  0  0  0  0  0  0  0  0  0  0  0
  190.7250  172.8940  137.7920 C   0  0  2  0  0  3  0  0  0  0  0  0
  188.2400  174.1430  138.3570 N   0  0  0  0  0  2  0  0  0  0  0  0
  191.2710  173.3770  141.4200 O   0  0  0  0  0  0  0  0  0  0  0  0
  192.5160  171.6140  138.5870 C   0  0  0  0  0  2  0  0  0  0  0  0
  188.5930  174.0330  140.6860 N   0  0  0  0  0  2  0  0  0  0  0  0
  192.4380  172.4800  139.8460 C   0  0  1  0  0  3  0  0  0  0  0  0
  189.0500  173.8490  139.4860 C   0  0  0  0  0  0  0  0  0  0  0  0
  191.0950  172.6870  140.2600 N   0  0  2  0  0  0  0  0  0  0  0  0
  190.5030  173.5370  139.2260 C   0  0  1  0  0  3  0  0  0  0  0  0
  189.5620  172.7980  136.9890 O   0  0  0  0  0  0  0  0  0  0  0  0
  192.2800  172.7860  142.0870 O   0  0  0  0  0  0  0  0  0  0  0  0
  193.0540  170.6190  141.4460 C   0  0  0  0  0  0  0  0  0  0  0  0
  193.8580  169.8390  140.9410 O   0  0  0  0  0  0  0  0  0  0  0  0
  192.5050  169.8190  143.6000 O   0  0  0  0  0  1  0  0  0  0  0  0
  191.9840  170.0770  142.3420 C   0  0  0  0  0  2  0  0  0  0  0  0
  192.1470  176.2260  145.2190 C   0  0  0  0  0  2  0  0  0  0  0  0
  191.7970  174.9420  145.9720 C   0  0  1  0  0  3  0  0  0  0  0  0
  191.9920  175.0910  147.3430 O   0  0  0  0  0  1  0  0  0  0  0  0
  190.4010  174.4050  145.6340 C   0  0  2  0  0  3  0  0  0  0  0  0
  190.4420  173.4550  144.6130 O   0  0  0  0  0  0  0  0  0  0  0  0
  189.8120  172.4190  145.1020 O   0  0  0  0  0  1  0  0  0  0  0  0
  189.3390  175.5050  145.3650 C   0  0  2  0  0  3  0  0  0  0  0  0
  188.3100  175.7640  146.4670 C   0  0  1  0  0  3  0  0  0  0  0  0
  188.4910  174.9450  147.5900 O   0  0  0  0  0  1  0  0  0  0  0  0
  189.2890  177.7900  147.1580 O   0  0  0  0  0  0  0  0  0  0  0  0
  186.9670  177.9020  146.9590 C   0  0  0  0  0  1  0  0  0  0  0  0
  188.2690  177.1980  146.8710 C   0  0  0  0  0  0  0  0  0  0  0  0
  188.6690  175.3120  144.1260 O   0  0  0  0  0  0  0  0  0  0  0  0
  188.9780  177.3610  143.0680 N   0  0  0  0  0  2  0  0  0  0  0  0
  186.8490  176.3610  142.8700 N   0  0  0  0  0  2  0  0  0  0  0  0
  188.1940  176.3630  143.3420 C   0  0  0  0  0  0  0  0  0  0  0  0
  185.7700  178.6000  142.7110 C   0  0  0  0  0  2  0  0  0  0  0  0
  184.9350  177.5680  142.2230 O   0  0  0  0  0  0  0  0  0  0  0  0
  186.7050  177.4790  140.5790 C   0  0  0  0  0  1  0  0  0  0  0  0
  186.3110  177.4160  142.0360 C   0  0  2  0  0  0  0  0  0  0  0  0
  1  2  1  0  0  0  0
  2  9  1  0  0  0  0
  3 12  1  1  0  0  0
  3  4  1  0  0  0  0
  4  2  1  0  0  0  0
  5  8  1  0  0  0  0
  6  5  1  0  0  0  0
  6  7  1  0  0  0  0
  7  3  1  0  0  0  0
  7  1  1  1  0  0  0
  8  3  1  0  0  0  0
  9 32  1  0  0  0  0
  9 10  2  0  0  0  0
 12 11  2  0  0  0  0
 13 12  1  0  0  0  0
 14 18  1  0  0  0  0
 15 13  1  1  0  0  0
 15 28  1  0  0  0  0
 15 27  1  0  0  0  0
 16 20  1  0  0  0  0
 17 26  1  1  0  0  0
 17 16  1  0  0  0  0
 17 25  1  0  0  0  0
 18 23  1  0  0  0  0
 19 27  1  0  0  0  0
 22 20  1  6  0  0  0
 22 24  1  0  0  0  0
 22 15  1  0  0  0  0
 23 21  2  0  0  0  0
 24 19  1  1  0  0  0
 25 23  1  1  0  0  0
 25 24  1  0  0  0  0
 26 14  1  0  0  0  0
 28 31  1  0  0  0  0
 29 28  2  0  0  0  0
 31 30  1  0  0  0  0
 32 33  1  0  0  0  0
 33 34  1  1  0  0  0
 35 36  1  6  0  0  0
 35 33  1  0  0  0  0
 36 37  1  0  0  0  0
 38 44  1  6  0  0  0
 38 35  1  0  0  0  0
 38 39  1  0  0  0  0
 39 43  1  0  0  0  0
 39 40  1  1  0  0  0
 43 42  1  0  0  0  0
 43 41  2  0  0  0  0
 45 47  2  0  0  0  0
 46 47  1  0  0  0  0
 47 44  1  0  0  0  0
 49 48  1  0  0  0  0
 51 50  1  6  0  0  0
 51 49  1  0  0  0  0
 51 48  1  0  0  0  0
 51 46  1  0  0  0  0
M  END
>  <MODEL>
6

>  <REMARK>
 VINA RESULT:      -6.3      2.350      3.720
  Name = 
  15 active torsions:
  status: ('A' for Active; 'I' for Inactive)
    1  A    between atoms: C_2  and  C_4
    2  A    between atoms: C_2  and  O_13
    3  A    between atoms: C_3  and  C_23
    4  A    between atoms: C_3  and  C_46
    5  A    between atoms: C_4  and  C_50
    6  A    between atoms: C_7  and  O_9
    7  A    between atoms: C_7  and  C_10
    8  A    between atoms: C_7  and  C_23
    9  A    between atoms: C_10  and  C_11
   10  A    between atoms: C_11  and  C_44
   11  A    between atoms: O_13  and  C_49
   12  A    between atoms: C_18  and  C_49
   13  A    between atoms: C_23  and  O_28
   14  A    between atoms: N_26  and  C_48
   15  A    between atoms: O_28  and  C_32
                            x       y       z     vdW  Elec       q    Type
                         _______ _______ _______ _____ _____    ______ ____

>  <TORSDO>
F 15

$$$$
=
 OpenBabel11062419013D

 51 56  0  0  1  0  0  0  0  0999 V2000
  191.7720  176.9160  144.4940 C   0  0  0  0  0  2  0  0  0  0  0  0
  191.2250  176.8080  145.8290 N   0  0  0  0  0  0  0  0  0  0  0  0
  192.8510  175.1010  145.7060 C   0  0  1  0  0  0  0  0  0  0  0  0
  191.8880  175.8100  146.6470 C   0  0  0  0  0  2  0  0  0  0  0  0
  194.8890  176.2880  145.6500 C   0  0  0  0  0  2  0  0  0  0  0  0
  194.1670  176.7080  144.5080 O   0  0  0  0  0  0  0  0  0  0  0  0
  192.9630  175.9770  144.4700 C   0  0  2  0  0  3  0  0  0  0  0  0
  194.2340  175.0700  146.2640 C   0  0  0  0  0  2  0  0  0  0  0  0
  189.9830  177.4040  146.2180 C   0  0  0  0  0  0  0  0  0  0  0  0
  189.8090  177.7900  147.4040 O   0  0  0  0  0  0  0  0  0  0  0  0
  191.1570  173.5300  145.0440 O   0  0  0  0  0  0  0  0  0  0  0  0
  192.3680  173.7310  145.3180 C   0  0  0  0  0  0  0  0  0  0  0  0
  193.2930  172.6840  145.2460 O   0  0  0  0  0  0  0  0  0  0  0  0
  192.4570  173.9050  138.3080 C   0  0  0  0  0  2  0  0  0  0  0  0
  193.5870  171.9320  144.0520 C   0  0  2  0  0  0  0  0  0  0  0  0
  194.7970  173.6130  140.9290 O   0  0  0  0  0  0  0  0  0  0  0  0
  193.5210  173.8210  140.3420 C   0  0  2  0  0  3  0  0  0  0  0  0
  191.8920  172.5570  138.3920 N   0  0  0  0  0  2  0  0  0  0  0  0
  192.0920  171.2250  142.5560 O   0  0  0  0  0  0  0  0  0  0  0  0
  194.7160  173.6240  142.3450 C   0  0  0  0  0  2  0  0  0  0  0  0
  191.3750  170.7640  139.8330 N   0  0  0  0  0  2  0  0  0  0  0  0
  193.5250  172.8070  142.8510 C   0  0  1  0  0  3  0  0  0  0  0  0
  191.9430  171.9170  139.6590 C   0  0  0  0  0  0  0  0  0  0  0  0
  193.0590  171.8920  141.8690 N   0  0  2  0  0  0  0  0  0  0  0  0
  192.4770  172.7250  140.8160 C   0  0  1  0  0  3  0  0  0  0  0  0
  193.7100  173.9070  138.9400 O   0  0  0  0  0  0  0  0  0  0  0  0
  192.5790  170.9710  143.7850 O   0  0  0  0  0  0  0  0  0  0  0  0
  194.9120  171.2110  144.2410 C   0  0  0  0  0  0  0  0  0  0  0  0
  195.2800  170.3260  143.4720 O   0  0  0  0  0  0  0  0  0  0  0  0
  196.7060  172.4960  145.0820 O   0  0  0  0  0  1  0  0  0  0  0  0
  195.7640  171.5400  145.4270 C   0  0  0  0  0  2  0  0  0  0  0  0
  188.8690  177.5360  145.2290 C   0  0  0  0  0  2  0  0  0  0  0  0
  187.7350  176.5440  145.4880 C   0  0  1  0  0  3  0  0  0  0  0  0
  187.8630  175.9460  146.7390 O   0  0  0  0  0  1  0  0  0  0  0  0
  186.3420  177.1480  145.2690 C   0  0  2  0  0  3  0  0  0  0  0  0
  185.3530  176.4330  145.9440 O   0  0  0  0  0  0  0  0  0  0  0  0
  184.8220  177.3000  146.7650 O   0  0  0  0  0  1  0  0  0  0  0  0
  185.9740  177.3860  143.7800 C   0  0  2  0  0  3  0  0  0  0  0  0
  184.6980  178.1800  143.4960 C   0  0  1  0  0  3  0  0  0  0  0  0
  184.7420  179.4880  143.9970 O   0  0  0  0  0  1  0  0  0  0  0  0
  183.2470  177.8670  141.6690 O   0  0  0  0  0  0  0  0  0  0  0  0
  185.3830  178.5680  141.0470 C   0  0  0  0  0  1  0  0  0  0  0  0
  184.3540  178.1910  142.0460 C   0  0  0  0  0  0  0  0  0  0  0  0
  185.9580  176.1780  143.0310 O   0  0  0  0  0  0  0  0  0  0  0  0
  187.9780  176.4920  141.9180 N   0  0  0  0  0  2  0  0  0  0  0  0
  187.2260  174.2680  142.1720 N   0  0  0  0  0  2  0  0  0  0  0  0
  187.0790  175.6720  142.3730 C   0  0  0  0  0  0  0  0  0  0  0  0
  188.9710  172.4910  142.1180 C   0  0  0  0  0  2  0  0  0  0  0  0
  189.5250  173.7790  142.3100 O   0  0  0  0  0  0  0  0  0  0  0  0
  188.6540  174.0330  140.0690 C   0  0  0  0  0  1  0  0  0  0  0  0
  188.3800  173.6890  141.5140 C   0  0  2  0  0  0  0  0  0  0  0  0
  1  2  1  0  0  0  0
  2  9  1  0  0  0  0
  2  4  1  0  0  0  0
  3 12  1  6  0  0  0
  3  8  1  0  0  0  0
  3  4  1  0  0  0  0
  5  8  1  0  0  0  0
  6  5  1  0  0  0  0
  7  1  1  1  0  0  0
  7  6  1  0  0  0  0
  7  3  1  0  0  0  0
  9 10  2  0  0  0  0
 11 12  2  0  0  0  0
 13 12  1  0  0  0  0
 14 18  1  0  0  0  0
 14 26  1  0  0  0  0
 15 28  1  1  0  0  0
 15 13  1  0  0  0  0
 16 20  1  0  0  0  0
 17 26  1  6  0  0  0
 17 25  1  0  0  0  0
 17 16  1  0  0  0  0
 18 23  1  0  0  0  0
 19 27  1  0  0  0  0
 22 20  1  6  0  0  0
 22 15  1  0  0  0  0
 23 21  2  0  0  0  0
 24 19  1  1  0  0  0
 24 22  1  0  0  0  0
 25 23  1  6  0  0  0
 25 24  1  0  0  0  0
 27 15  1  0  0  0  0
 28 31  1  0  0  0  0
 29 28  2  0  0  0  0
 30 31  1  0  0  0  0
 32 33  1  0  0  0  0
 32  9  1  0  0  0  0
 33 34  1  1  0  0  0
 35 33  1  0  0  0  0
 35 36  1  6  0  0  0
 36 37  1  0  0  0  0
 38 44  1  6  0  0  0
 38 35  1  0  0  0  0
 39 38  1  0  0  0  0
 39 40  1  6  0  0  0
 41 43  2  0  0  0  0
 42 43  1  0  0  0  0
 43 39  1  0  0  0  0
 45 47  2  0  0  0  0
 46 47  1  0  0  0  0
 47 44  1  0  0  0  0
 48 49  1  0  0  0  0
 51 50  1  6  0  0  0
 51 48  1  0  0  0  0
 51 46  1  0  0  0  0
 51 49  1  0  0  0  0
M  END
>  <MODEL>
7

>  <REMARK>
 VINA RESULT:      -6.2      2.411      4.361
  Name = 
  15 active torsions:
  status: ('A' for Active; 'I' for Inactive)
    1  A    between atoms: C_2  and  C_4
    2  A    between atoms: C_2  and  O_13
    3  A    between atoms: C_3  and  C_23
    4  A    between atoms: C_3  and  C_46
    5  A    between atoms: C_4  and  C_50
    6  A    between atoms: C_7  and  O_9
    7  A    between atoms: C_7  and  C_10
    8  A    between atoms: C_7  and  C_23
    9  A    between atoms: C_10  and  C_11
   10  A    between atoms: C_11  and  C_44
   11  A    between atoms: O_13  and  C_49
   12  A    between atoms: C_18  and  C_49
   13  A    between atoms: C_23  and  O_28
   14  A    between atoms: N_26  and  C_48
   15  A    between atoms: O_28  and  C_32
                            x       y       z     vdW  Elec       q    Type
                         _______ _______ _______ _____ _____    ______ ____

>  <TORSDO>
F 15

$$$$
=
 OpenBabel11062419013D

 51 56  0  0  1  0  0  0  0  0999 V2000
  191.3930  172.5790  140.9970 C   0  0  0  0  0  2  0  0  0  0  0  0
  190.8210  171.4530  141.7020 N   0  0  0  0  0  0  0  0  0  0  0  0
  189.5860  173.3200  142.4510 C   0  0  1  0  0  0  0  0  0  0  0  0
  189.6710  171.8020  142.5150 C   0  0  0  0  0  2  0  0  0  0  0  0
  188.3280  173.9420  140.5530 C   0  0  0  0  0  2  0  0  0  0  0  0
  189.6860  174.0560  140.1710 O   0  0  0  0  0  0  0  0  0  0  0  0
  190.4760  173.7500  141.2970 C   0  0  2  0  0  3  0  0  0  0  0  0
  188.2210  173.7720  142.0540 C   0  0  0  0  0  2  0  0  0  0  0  0
  191.4800  170.1870  141.8240 C   0  0  0  0  0  0  0  0  0  0  0  0
  190.8040  169.1270  141.9030 O   0  0  0  0  0  0  0  0  0  0  0  0
  189.7600  173.4780  144.8430 O   0  0  0  0  0  0  0  0  0  0  0  0
  190.0490  173.9740  143.7230 C   0  0  0  0  0  0  0  0  0  0  0  0
  190.8260  175.1340  143.6430 O   0  0  0  0  0  0  0  0  0  0  0  0
  185.0820  177.9180  146.7380 C   0  0  0  0  0  2  0  0  0  0  0  0
  190.3170  176.4730  143.7930 C   0  0  2  0  0  0  0  0  0  0  0  0
  188.5850  177.5700  146.9300 O   0  0  0  0  0  0  0  0  0  0  0  0
  187.2660  177.2410  146.5210 C   0  0  2  0  0  3  0  0  0  0  0  0
  185.0180  178.5950  145.4420 N   0  0  0  0  0  2  0  0  0  0  0  0
  188.3760  177.2260  142.9920 O   0  0  0  0  0  0  0  0  0  0  0  0
  189.5390  176.7160  146.3190 C   0  0  0  0  0  2  0  0  0  0  0  0
  186.0390  178.8270  143.3300 N   0  0  0  0  0  2  0  0  0  0  0  0
  189.2510  176.5180  144.8300 C   0  0  1  0  0  3  0  0  0  0  0  0
  186.0770  178.3410  144.5320 C   0  0  0  0  0  0  0  0  0  0  0  0
  188.4110  177.5420  144.3160 N   0  0  2  0  0  0  0  0  0  0  0  0
  187.1090  177.3200  144.9450 C   0  0  1  0  0  3  0  0  0  0  0  0
  186.3780  178.0630  147.2570 O   0  0  0  0  0  0  0  0  0  0  0  0
  189.6300  176.8970  142.6270 O   0  0  0  0  0  0  0  0  0  0  0  0
  191.4820  177.4160  144.0430 C   0  0  0  0  0  0  0  0  0  0  0  0
  191.3660  178.6330  143.9190 O   0  0  0  0  0  0  0  0  0  0  0  0
  192.9820  176.8110  145.7650 O   0  0  0  0  0  1  0  0  0  0  0  0
  192.8240  176.8480  144.3880 C   0  0  0  0  0  2  0  0  0  0  0  0
  192.9710  170.1190  141.8980 C   0  0  0  0  0  2  0  0  0  0  0  0
  193.5200  170.6950  143.2030 C   0  0  1  0  0  3  0  0  0  0  0  0
  192.8180  170.2110  144.3040 O   0  0  0  0  0  1  0  0  0  0  0  0
  195.0360  170.5180  143.3520 C   0  0  2  0  0  3  0  0  0  0  0  0
  195.3570  169.3750  144.0840 O   0  0  0  0  0  0  0  0  0  0  0  0
  195.8530  168.5480  143.2020 O   0  0  0  0  0  1  0  0  0  0  0  0
  195.7790  171.7750  143.8790 C   0  0  2  0  0  3  0  0  0  0  0  0
  195.5910  172.1270  145.3550 C   0  0  1  0  0  3  0  0  0  0  0  0
  196.7940  172.1350  146.0750 O   0  0  0  0  0  1  0  0  0  0  0  0
  193.6590  173.4680  145.4480 O   0  0  0  0  0  0  0  0  0  0  0  0
  195.6330  174.6620  145.7950 C   0  0  0  0  0  1  0  0  0  0  0  0
  194.8680  173.4180  145.5370 C   0  0  0  0  0  0  0  0  0  0  0  0
  195.5230  172.9230  143.0810 O   0  0  0  0  0  0  0  0  0  0  0  0
  197.6700  173.6260  142.5220 N   0  0  0  0  0  2  0  0  0  0  0  0
  196.0220  173.7690  140.8380 N   0  0  0  0  0  2  0  0  0  0  0  0
  196.4390  173.4330  142.1600 C   0  0  0  0  0  0  0  0  0  0  0  0
  196.8870  173.6720  138.5040 C   0  0  0  0  0  2  0  0  0  0  0  0
  197.8730  173.3180  139.4560 O   0  0  0  0  0  0  0  0  0  0  0  0
  197.5560  175.6440  140.0330 C   0  0  0  0  0  1  0  0  0  0  0  0
  196.9350  174.2810  139.8370 C   0  0  2  0  0  0  0  0  0  0  0  0
  1  2  1  0  0  0  0
  2  9  1  0  0  0  0
  2  4  1  0  0  0  0
  3  4  1  0  0  0  0
  3 12  1  1  0  0  0
  5  8  1  0  0  0  0
  6  5  1  0  0  0  0
  6  7  1  0  0  0  0
  7  1  1  6  0  0  0
  7  3  1  0  0  0  0
  8  3  1  0  0  0  0
  9 32  1  0  0  0  0
  9 10  2  0  0  0  0
 12 11  2  0  0  0  0
 13 12  1  0  0  0  0
 14 26  1  0  0  0  0
 15 13  1  6  0  0  0
 15 28  1  0  0  0  0
 15 22  1  0  0  0  0
 17 16  1  6  0  0  0
 17 26  1  0  0  0  0
 18 14  1  0  0  0  0
 20 16  1  0  0  0  0
 21 23  2  0  0  0  0
 22 20  1  1  0  0  0
 23 18  1  0  0  0  0
 24 19  1  6  0  0  0
 24 22  1  0  0  0  0
 24 25  1  0  0  0  0
 25 23  1  1  0  0  0
 25 17  1  0  0  0  0
 27 19  1  0  0  0  0
 27 15  1  0  0  0  0
 28 31  1  0  0  0  0
 29 28  2  0  0  0  0
 31 30  1  0  0  0  0
 32 33  1  0  0  0  0
 33 35  1  0  0  0  0
 33 34  1  1  0  0  0
 35 38  1  0  0  0  0
 35 36  1  1  0  0  0
 37 36  1  0  0  0  0
 38 44  1  6  0  0  0
 38 39  1  0  0  0  0
 39 43  1  0  0  0  0
 39 40  1  6  0  0  0
 41 43  2  0  0  0  0
 43 42  1  0  0  0  0
 46 47  1  0  0  0  0
 47 45  2  0  0  0  0
 47 44  1  0  0  0  0
 48 49  1  0  0  0  0
 48 51  1  0  0  0  0
 49 51  1  0  0  0  0
 51 50  1  1  0  0  0
 51 46  1  0  0  0  0
M  END
>  <MODEL>
8

>  <REMARK>
 VINA RESULT:      -6.1      2.116      8.870
  Name = 
  15 active torsions:
  status: ('A' for Active; 'I' for Inactive)
    1  A    between atoms: C_2  and  C_4
    2  A    between atoms: C_2  and  O_13
    3  A    between atoms: C_3  and  C_23
    4  A    between atoms: C_3  and  C_46
    5  A    between atoms: C_4  and  C_50
    6  A    between atoms: C_7  and  O_9
    7  A    between atoms: C_7  and  C_10
    8  A    between atoms: C_7  and  C_23
    9  A    between atoms: C_10  and  C_11
   10  A    between atoms: C_11  and  C_44
   11  A    between atoms: O_13  and  C_49
   12  A    between atoms: C_18  and  C_49
   13  A    between atoms: C_23  and  O_28
   14  A    between atoms: N_26  and  C_48
   15  A    between atoms: O_28  and  C_32
                            x       y       z     vdW  Elec       q    Type
                         _______ _______ _______ _____ _____    ______ ____

>  <TORSDO>
F 15

$$$$
=
 OpenBabel11062419013D

 51 56  0  0  1  0  0  0  0  0999 V2000
  191.6990  173.2170  140.5330 C   0  0  0  0  0  2  0  0  0  0  0  0
  191.3980  171.9260  141.1120 N   0  0  0  0  0  0  0  0  0  0  0  0
  189.2900  172.8820  140.6500 C   0  0  1  0  0  0  0  0  0  0  0  0
  189.9820  171.6120  141.1240 C   0  0  0  0  0  2  0  0  0  0  0  0
  189.1880  172.8700  138.2930 C   0  0  0  0  0  2  0  0  0  0  0  0
  190.3070  173.6690  138.6260 O   0  0  0  0  0  0  0  0  0  0  0  0
  190.3710  173.7520  140.0310 C   0  0  2  0  0  3  0  0  0  0  0  0
  188.3510  172.6030  139.5250 C   0  0  0  0  0  2  0  0  0  0  0  0
  192.3510  171.1600  141.8570 C   0  0  0  0  0  0  0  0  0  0  0  0
  192.2980  169.9020  141.8490 O   0  0  0  0  0  0  0  0  0  0  0  0
  187.4050  173.4280  142.0370 O   0  0  0  0  0  0  0  0  0  0  0  0
  188.6200  173.6220  141.7740 C   0  0  0  0  0  0  0  0  0  0  0  0
  189.3740  174.5170  142.5390 O   0  0  0  0  0  0  0  0  0  0  0  0
  184.3680  177.8780  146.2750 C   0  0  0  0  0  2  0  0  0  0  0  0
  189.0390  175.9030  142.7470 C   0  0  2  0  0  0  0  0  0  0  0  0
  187.8090  177.1410  146.0630 O   0  0  0  0  0  0  0  0  0  0  0  0
  186.4240  176.9660  145.8080 C   0  0  2  0  0  3  0  0  0  0  0  0
  184.2330  178.5770  144.9950 N   0  0  0  0  0  2  0  0  0  0  0  0
  187.1160  176.8780  142.1750 O   0  0  0  0  0  0  0  0  0  0  0  0
  188.5850  176.1950  145.3470 C   0  0  0  0  0  2  0  0  0  0  0  0
  185.0260  178.7240  142.7800 N   0  0  0  0  0  2  0  0  0  0  0  0
  188.1100  176.0520  143.9000 C   0  0  1  0  0  3  0  0  0  0  0  0
  185.1470  178.2190  143.9690 C   0  0  0  0  0  0  0  0  0  0  0  0
  187.3370  177.1690  143.4860 N   0  0  2  0  0  0  0  0  0  0  0  0
  186.0980  177.0850  144.2600 C   0  0  1  0  0  3  0  0  0  0  0  0
  185.7230  177.8720  146.6420 O   0  0  0  0  0  0  0  0  0  0  0  0
  188.2750  176.4170  141.6680 O   0  0  0  0  0  0  0  0  0  0  0  0
  190.3230  176.7070  142.8630 C   0  0  0  0  0  0  0  0  0  0  0  0
  190.3690  177.8970  142.5610 O   0  0  0  0  0  0  0  0  0  0  0  0
  192.5090  176.0380  142.2650 O   0  0  0  0  0  1  0  0  0  0  0  0
  191.5820  176.0200  143.2960 C   0  0  0  0  0  2  0  0  0  0  0  0
  193.3910  171.8500  142.6820 C   0  0  0  0  0  2  0  0  0  0  0  0
  192.8690  172.2610  144.0580 C   0  0  1  0  0  3  0  0  0  0  0  0
  191.6450  171.6570  144.3360 O   0  0  0  0  0  1  0  0  0  0  0  0
  193.8920  172.0510  145.1810 C   0  0  2  0  0  3  0  0  0  0  0  0
  193.8460  173.0760  146.1260 O   0  0  0  0  0  0  0  0  0  0  0  0
  193.3270  174.0900  145.4860 O   0  0  0  0  0  1  0  0  0  0  0  0
  195.3380  171.7790  144.6880 C   0  0  2  0  0  3  0  0  0  0  0  0
  195.9130  170.3850  144.9500 C   0  0  1  0  0  3  0  0  0  0  0  0
  197.0560  170.4070  145.7610 O   0  0  0  0  0  1  0  0  0  0  0  0
  194.0440  168.9620  144.8010 O   0  0  0  0  0  0  0  0  0  0  0  0
  194.8950  169.1510  146.9650 C   0  0  0  0  0  1  0  0  0  0  0  0
  194.8940  169.4540  145.5130 C   0  0  0  0  0  0  0  0  0  0  0  0
  196.2550  172.7640  145.1440 O   0  0  0  0  0  0  0  0  0  0  0  0
  197.9410  174.2530  144.5460 N   0  0  0  0  0  2  0  0  0  0  0  0
  195.9480  174.3240  143.2830 N   0  0  0  0  0  2  0  0  0  0  0  0
  196.7510  173.7820  144.3290 C   0  0  0  0  0  0  0  0  0  0  0  0
  196.1850  175.1890  140.9590 C   0  0  0  0  0  2  0  0  0  0  0  0
  197.4370  174.9030  141.5540 O   0  0  0  0  0  0  0  0  0  0  0  0
  196.7190  176.7360  142.9570 C   0  0  0  0  0  1  0  0  0  0  0  0
  196.4220  175.3660  142.3950 C   0  0  2  0  0  0  0  0  0  0  0  0
  1  2  1  0  0  0  0
  2  4  1  0  0  0  0
  2  9  1  0  0  0  0
  3  4  1  0  0  0  0
  3 12  1  1  0  0  0
  5  6  1  0  0  0  0
  5  8  1  0  0  0  0
  6  7  1  0  0  0  0
  7  1  1  1  0  0  0
  7  3  1  0  0  0  0
  8  3  1  0  0  0  0
  9 32  1  0  0  0  0
 10  9  2  0  0  0  0
 12 11  2  0  0  0  0
 12 13  1  0  0  0  0
 14 26  1  0  0  0  0
 15 13  1  6  0  0  0
 15 28  1  0  0  0  0
 15 22  1  0  0  0  0
 17 16  1  6  0  0  0
 17 26  1  0  0  0  0
 18 14  1  0  0  0  0
 20 16  1  0  0  0  0
 21 23  2  0  0  0  0
 22 20  1  1  0  0  0
 23 18  1  0  0  0  0
 24 19  1  6  0  0  0
 24 22  1  0  0  0  0
 24 25  1  0  0  0  0
 25 23  1  1  0  0  0
 25 17  1  0  0  0  0
 27 19  1  0  0  0  0
 27 15  1  0  0  0  0
 28 31  1  0  0  0  0
 29 28  2  0  0  0  0
 30 31  1  0  0  0  0
 32 33  1  0  0  0  0
 33 34  1  1  0  0  0
 33 35  1  0  0  0  0
 35 36  1  1  0  0  0
 37 36  1  0  0  0  0
 38 39  1  0  0  0  0
 38 44  1  1  0  0  0
 38 35  1  0  0  0  0
 39 43  1  0  0  0  0
 39 40  1  1  0  0  0
 41 43  2  0  0  0  0
 43 42  1  0  0  0  0
 46 47  1  0  0  0  0
 47 45  2  0  0  0  0
 47 44  1  0  0  0  0
 48 49  1  0  0  0  0
 48 51  1  0  0  0  0
 49 51  1  0  0  0  0
 51 50  1  1  0  0  0
 51 46  1  0  0  0  0
M  END
>  <MODEL>
9

>  <REMARK>
 VINA RESULT:      -6.0      1.943      8.671
  Name = 
  15 active torsions:
  status: ('A' for Active; 'I' for Inactive)
    1  A    between atoms: C_2  and  C_4
    2  A    between atoms: C_2  and  O_13
    3  A    between atoms: C_3  and  C_23
    4  A    between atoms: C_3  and  C_46
    5  A    between atoms: C_4  and  C_50
    6  A    between atoms: C_7  and  O_9
    7  A    between atoms: C_7  and  C_10
    8  A    between atoms: C_7  and  C_23
    9  A    between atoms: C_10  and  C_11
   10  A    between atoms: C_11  and  C_44
   11  A    between atoms: O_13  and  C_49
   12  A    between atoms: C_18  and  C_49
   13  A    between atoms: C_23  and  O_28
   14  A    between atoms: N_26  and  C_48
   15  A    between atoms: O_28  and  C_32
                            x       y       z     vdW  Elec       q    Type
                         _______ _______ _______ _____ _____    ______ ____

>  <TORSDO>
F 15

$$$$
