=
 OpenBabel11062418423D

 43 49  0  0  1  0  0  0  0  0999 V2000
  188.5790  172.8190  140.2750 C   0  0  0  0  0  1  0  0  0  0  0  0
  193.1100  172.5140  142.5080 C   0  0  0  0  0  3  0  0  0  0  0  0
  195.2460  172.5720  144.4980 C   0  0  2  0  0  0  0  0  0  0  0  0
  194.1690  171.7140  142.3970 C   0  0  0  0  0  0  0  0  0  0  0  0
  192.2430  173.6060  145.1680 C   0  0  0  0  0  2  0  0  0  0  0  0
  191.6130  174.4980  144.0930 C   0  0  0  0  0  2  0  0  0  0  0  0
  191.8660  172.0920  141.8470 C   0  0  2  0  0  3  0  0  0  0  0  0
  193.3960  175.5650  146.2330 C   0  0  0  0  0  1  0  0  0  0  0  0
  195.1830  171.5780  145.6430 C   0  0  0  0  0  2  0  0  0  0  0  0
  190.3240  170.7870  139.0170 O   0  0  0  0  0  0  0  0  0  0  0  0
  194.7920  174.0290  144.7160 C   0  0  2  0  0  3  0  0  0  0  0  0
  196.0130  174.6720  145.3520 C   0  0  0  0  0  2  0  0  0  0  0  0
  190.7120  171.4610  140.0090 C   0  0  0  0  0  0  0  0  0  0  0  0
  189.9620  172.9920  143.1400 C   0  0  0  0  0  2  0  0  0  0  0  0
  192.9240  170.2700  140.6800 C   0  0  0  0  0  2  0  0  0  0  0  0
  192.1170  171.5480  140.4690 C   0  0  2  0  0  3  0  0  0  0  0  0
  193.5810  174.1510  145.6880 C   0  0  2  0  0  3  0  0  0  0  0  0
  194.1320  170.6020  141.4660 N   0  0  0  0  0  2  0  0  0  0  0  0
  190.1780  174.2180  143.9410 N   0  0  2  0  0  0  0  0  0  0  0  0
  189.8630  172.3340  140.7540 N   0  0  0  0  0  0  0  0  0  0  0  0
  195.3620  172.0290  143.1260 N   0  0  0  0  0  0  0  0  0  0  0  0
  196.6670  173.5670  146.1590 C   0  0  0  0  0  2  0  0  0  0  0  0
  196.4860  172.3050  145.3420 C   0  0  2  0  0  3  0  0  0  0  0  0
  190.6620  173.0060  141.7740 C   0  0  2  0  0  3  0  0  0  0  0  0
  188.1980  175.0670  142.8270 N   0  0  0  0  0  0  0  0  0  0  0  0
  188.7250  178.0250  142.3500 C   0  0  0  0  0  3  0  0  0  0  0  0
  189.5450  175.3840  143.2950 C   0  0  1  0  0  3  0  0  0  0  0  0
  187.5170  175.8490  142.0460 C   0  0  0  0  0  3  0  0  0  0  0  0
  189.4830  176.6040  144.1900 C   0  0  0  0  0  0  0  0  0  0  0  0
  189.1750  177.7670  143.6900 N   0  0  0  0  0  0  0  0  0  0  0  0
  187.9820  177.1840  141.6170 C   0  0  0  0  0  3  0  0  0  0  0  0
  189.8550  176.5340  145.6430 C   0  0  2  0  0  3  0  0  0  0  0  0
  188.9280  175.7230  146.3270 O   0  0  0  0  0  0  0  0  0  0  0  0
  188.7860  177.1100  146.4920 C   0  0  0  0  0  2  0  0  0  0  0  0
  197.3280  170.9570  142.2680 C   0  0  0  0  0  2  0  0  0  0  0  0
  196.6130  172.0670  142.4090 C   0  0  0  0  0  0  0  0  0  0  0  0
  196.9460  173.2290  141.5270 C   0  0  0  0  0  2  0  0  0  0  0  0
  197.5640  174.2420  142.2640 O   0  0  0  0  0  0  0  0  0  0  0  0
  197.5670  175.3530  141.4170 C   0  0  0  0  0  2  0  0  0  0  0  0
  196.6330  176.3900  141.9440 C   0  0  0  0  0  0  0  0  0  0  0  0
  196.9210  177.0160  142.9520 O   0  0  0  0  0  0  0  0  0  0  0  0
  194.3770  175.7160  141.7020 O   0  0  0  0  0  1  0  0  0  0  0  0
  195.3330  176.6340  141.2550 C   0  0  0  0  0  2  0  0  0  0  0  0
  1 20  1  0  0  0  0
  3 11  1  0  0  0  0
  3 23  1  0  0  0  0
  3  9  1  1  0  0  0
  4  2  2  0  0  0  0
  4 21  1  0  0  0  0
  5 17  1  0  0  0  0
  6  5  1  0  0  0  0
  7  2  1  6  0  0  0
 10 13  2  0  0  0  0
 11 12  1  1  0  0  0
 11 17  1  0  0  0  0
 12 22  1  0  0  0  0
 13 16  1  0  0  0  0
 13 20  1  0  0  0  0
 15 18  1  0  0  0  0
 16 15  1  1  0  0  0
 16  7  1  0  0  0  0
 17  8  1  6  0  0  0
 18  4  1  0  0  0  0
 19 14  1  6  0  0  0
 19  6  1  0  0  0  0
 20 24  1  0  0  0  0
 21  3  1  0  0  0  0
 23  9  1  1  0  0  0
 23 22  1  0  0  0  0
 24  7  1  0  0  0  0
 24 14  1  1  0  0  0
 26 30  1  0  0  0  0
 27 25  1  1  0  0  0
 27 19  1  0  0  0  0
 27 29  1  0  0  0  0
 28 25  2  0  0  0  0
 30 29  2  0  0  0  0
 31 28  1  0  0  0  0
 31 26  2  0  0  0  0
 32 29  1  6  0  0  0
 32 33  1  0  0  0  0
 32 34  1  0  0  0  0
 33 34  1  0  0  0  0
 35 36  2  0  0  0  0
 36 21  1  0  0  0  0
 37 38  1  0  0  0  0
 37 36  1  0  0  0  0
 39 40  1  0  0  0  0
 39 38  1  0  0  0  0
 40 41  2  0  0  0  0
 43 42  1  0  0  0  0
 43 40  1  0  0  0  0
M  END
>  <MODEL>
1

>  <REMARK>
 VINA RESULT:      -6.8      0.000      0.000
  Name = 
  8 active torsions:
  status: ('A' for Active; 'I' for Inactive)
    1  A    between atoms: C_1  and  C_31
    2  A    between atoms: C_13  and  N_37
    3  A    between atoms: C_19  and  C_30
    4  A    between atoms: C_19  and  N_40
    5  A    between atoms: C_21  and  C_33
    6  A    between atoms: C_21  and  C_34
    7  A    between atoms: O_27  and  C_30
    8  A    between atoms: O_27  and  C_33
                            x       y       z     vdW  Elec       q    Type
                         _______ _______ _______ _____ _____    ______ ____

>  <TORSDO>
F 8

$$$$
=
 OpenBabel11062418423D

 43 49  0  0  1  0  0  0  0  0999 V2000
  194.9400  175.9770  146.5110 C   0  0  0  0  0  1  0  0  0  0  0  0
  190.8370  175.0190  143.7080 C   0  0  0  0  0  3  0  0  0  0  0  0
  188.9500  173.7610  141.8680 C   0  0  2  0  0  0  0  0  0  0  0  0
  189.5240  175.1680  143.8690 C   0  0  0  0  0  0  0  0  0  0  0  0
  191.9780  172.6560  142.2460 C   0  0  0  0  0  2  0  0  0  0  0  0
  193.0630  173.7380  142.2600 C   0  0  0  0  0  2  0  0  0  0  0  0
  191.6920  175.1810  144.8940 C   0  0  2  0  0  3  0  0  0  0  0  0
  192.0110  172.5410  139.7390 C   0  0  0  0  0  1  0  0  0  0  0  0
  188.3840  172.4040  142.2420 C   0  0  0  0  0  2  0  0  0  0  0  0
  192.4590  177.0080  147.7510 O   0  0  0  0  0  0  0  0  0  0  0  0
  190.1100  173.8620  140.8560 C   0  0  2  0  0  3  0  0  0  0  0  0
  189.3970  173.7800  139.5160 C   0  0  0  0  0  2  0  0  0  0  0  0
  192.4350  176.3900  146.6520 C   0  0  0  0  0  0  0  0  0  0  0  0
  193.6860  173.7500  144.6080 C   0  0  0  0  0  2  0  0  0  0  0  0
  189.8920  176.0080  146.2650 C   0  0  0  0  0  2  0  0  0  0  0  0
  191.2780  176.3590  145.7290 C   0  0  2  0  0  3  0  0  0  0  0  0
  191.1220  172.6840  140.9720 C   0  0  2  0  0  3  0  0  0  0  0  0
  189.0110  175.6960  145.1190 N   0  0  0  0  0  2  0  0  0  0  0  0
  194.1200  173.4220  143.2320 N   0  0  2  0  0  0  0  0  0  0  0  0
  193.5710  175.7330  146.0890 N   0  0  0  0  0  0  0  0  0  0  0  0
  188.6490  174.9000  142.7650 N   0  0  0  0  0  0  0  0  0  0  0  0
  188.1930  172.8900  139.7620 C   0  0  0  0  0  2  0  0  0  0  0  0
  187.7110  173.2320  141.1560 C   0  0  2  0  0  3  0  0  0  0  0  0
  193.2010  175.1960  144.7830 C   0  0  2  0  0  3  0  0  0  0  0  0
  196.3330  174.1310  143.9260 N   0  0  0  0  0  0  0  0  0  0  0  0
  197.5040  175.6230  141.5470 C   0  0  0  0  0  3  0  0  0  0  0  0
  195.3280  174.1870  142.8670 C   0  0  1  0  0  3  0  0  0  0  0  0
  197.3880  174.8870  143.9400 C   0  0  0  0  0  3  0  0  0  0  0  0
  195.9550  173.7310  141.5660 C   0  0  0  0  0  0  0  0  0  0  0  0
  196.8750  174.4550  140.9950 N   0  0  0  0  0  0  0  0  0  0  0  0
  197.7430  175.8200  142.8500 C   0  0  0  0  0  3  0  0  0  0  0  0
  195.4830  172.4950  140.8540 C   0  0  2  0  0  3  0  0  0  0  0  0
  195.7910  171.3600  141.6300 O   0  0  0  0  0  0  0  0  0  0  0  0
  196.6220  171.6070  140.5250 C   0  0  0  0  0  2  0  0  0  0  0  0
  187.8420  176.6250  141.3090 C   0  0  0  0  0  2  0  0  0  0  0  0
  187.6730  175.8980  142.4070 C   0  0  0  0  0  0  0  0  0  0  0  0
  186.3150  175.8910  143.0370 C   0  0  0  0  0  2  0  0  0  0  0  0
  185.8260  177.1930  143.1600 O   0  0  0  0  0  0  0  0  0  0  0  0
  185.9510  177.4980  144.5180 C   0  0  0  0  0  2  0  0  0  0  0  0
  185.1690  178.7280  144.8330 C   0  0  0  0  0  0  0  0  0  0  0  0
  185.4490  179.7860  144.2900 O   0  0  0  0  0  0  0  0  0  0  0  0
  184.6050  178.5430  147.1250 O   0  0  0  0  0  1  0  0  0  0  0  0
  184.0690  178.6700  145.8380 C   0  0  0  0  0  2  0  0  0  0  0  0
  2  4  2  0  0  0  0
  3  9  1  1  0  0  0
  3 21  1  0  0  0  0
  4 18  1  0  0  0  0
  5  6  1  0  0  0  0
  7  2  1  6  0  0  0
  7 16  1  0  0  0  0
 11 12  1  6  0  0  0
 11 17  1  0  0  0  0
 11  3  1  0  0  0  0
 12 22  1  0  0  0  0
 13 10  2  0  0  0  0
 16 15  1  1  0  0  0
 16 13  1  0  0  0  0
 17  8  1  6  0  0  0
 17  5  1  0  0  0  0
 18 15  1  0  0  0  0
 19  6  1  6  0  0  0
 19 14  1  0  0  0  0
 20  1  1  0  0  0  0
 20 13  1  0  0  0  0
 21  4  1  0  0  0  0
 23 22  1  6  0  0  0
 23  3  1  0  0  0  0
 23  9  1  0  0  0  0
 24 14  1  1  0  0  0
 24  7  1  0  0  0  0
 24 20  1  0  0  0  0
 25 28  2  0  0  0  0
 26 31  2  0  0  0  0
 27 29  1  6  0  0  0
 27 19  1  0  0  0  0
 27 25  1  0  0  0  0
 30 26  1  0  0  0  0
 30 29  2  0  0  0  0
 31 28  1  0  0  0  0
 32 29  1  1  0  0  0
 32 33  1  0  0  0  0
 34 32  1  0  0  0  0
 34 33  1  0  0  0  0
 35 36  2  0  0  0  0
 36 21  1  0  0  0  0
 36 37  1  0  0  0  0
 37 38  1  0  0  0  0
 38 39  1  0  0  0  0
 39 40  1  0  0  0  0
 40 43  1  0  0  0  0
 41 40  2  0  0  0  0
 43 42  1  0  0  0  0
M  END
>  <MODEL>
2

>  <REMARK>
 VINA RESULT:      -6.4      2.470      8.687
  Name = 
  8 active torsions:
  status: ('A' for Active; 'I' for Inactive)
    1  A    between atoms: C_1  and  C_31
    2  A    between atoms: C_13  and  N_37
    3  A    between atoms: C_19  and  C_30
    4  A    between atoms: C_19  and  N_40
    5  A    between atoms: C_21  and  C_33
    6  A    between atoms: C_21  and  C_34
    7  A    between atoms: O_27  and  C_30
    8  A    between atoms: O_27  and  C_33
                            x       y       z     vdW  Elec       q    Type
                         _______ _______ _______ _____ _____    ______ ____

>  <TORSDO>
F 8

$$$$
=
 OpenBabel11062418423D

 43 49  0  0  1  0  0  0  0  0999 V2000
  196.6450  176.2570  143.8260 C   0  0  0  0  0  1  0  0  0  0  0  0
  191.8030  175.1150  142.8960 C   0  0  0  0  0  3  0  0  0  0  0  0
  189.3810  173.7200  142.0510 C   0  0  2  0  0  0  0  0  0  0  0  0
  190.6450  175.3160  143.5230 C   0  0  0  0  0  0  0  0  0  0  0  0
  192.3450  172.5820  141.3780 C   0  0  0  0  0  2  0  0  0  0  0  0
  193.3380  173.6300  140.8640 C   0  0  0  0  0  2  0  0  0  0  0  0
  193.0390  175.3790  143.6480 C   0  0  2  0  0  3  0  0  0  0  0  0
  191.4320  172.2010  139.0710 C   0  0  0  0  0  1  0  0  0  0  0  0
  189.0190  172.4260  142.7550 C   0  0  0  0  0  2  0  0  0  0  0  0
  194.7990  177.4790  145.7900 O   0  0  0  0  0  0  0  0  0  0  0  0
  190.0710  173.6820  140.6720 C   0  0  2  0  0  3  0  0  0  0  0  0
  188.9070  173.4780  139.7170 C   0  0  0  0  0  2  0  0  0  0  0  0
  194.3720  176.7480  144.8550 C   0  0  0  0  0  0  0  0  0  0  0  0
  194.8010  173.8750  142.7890 C   0  0  0  0  0  2  0  0  0  0  0  0
  191.8780  176.3940  145.4980 C   0  0  0  0  0  2  0  0  0  0  0  0
  192.9530  176.6500  144.4450 C   0  0  2  0  0  3  0  0  0  0  0  0
  191.0710  172.4960  140.5250 C   0  0  2  0  0  3  0  0  0  0  0  0
  190.6340  175.9860  144.8100 N   0  0  0  0  0  2  0  0  0  0  0  0
  194.6880  173.3910  141.3950 N   0  0  2  0  0  0  0  0  0  0  0  0
  195.2220  176.0050  143.9800 N   0  0  0  0  0  0  0  0  0  0  0  0
  189.4230  174.9540  142.8660 N   0  0  0  0  0  0  0  0  0  0  0  0
  187.8990  172.6510  140.4920 C   0  0  0  0  0  2  0  0  0  0  0  0
  187.9740  173.1510  141.9200 C   0  0  2  0  0  3  0  0  0  0  0  0
  194.3940  175.3430  142.9760 C   0  0  2  0  0  3  0  0  0  0  0  0
  196.9730  174.1660  141.1490 N   0  0  0  0  0  0  0  0  0  0  0  0
  197.1650  175.2850  138.3270 C   0  0  0  0  0  3  0  0  0  0  0  0
  195.6570  174.0800  140.5210 C   0  0  1  0  0  3  0  0  0  0  0  0
  197.9340  174.9030  140.6820 C   0  0  0  0  0  3  0  0  0  0  0  0
  195.8010  173.4340  139.1590 C   0  0  0  0  0  0  0  0  0  0  0  0
  196.4290  174.0570  138.2030 N   0  0  0  0  0  0  0  0  0  0  0  0
  197.8420  175.6650  139.4190 C   0  0  0  0  0  3  0  0  0  0  0  0
  195.1570  172.1150  138.8410 C   0  0  2  0  0  3  0  0  0  0  0  0
  195.7920  171.0940  139.5750 O   0  0  0  0  0  0  0  0  0  0  0  0
  196.1300  171.1890  138.2150 C   0  0  0  0  0  2  0  0  0  0  0  0
  187.7350  176.3040  143.9030 C   0  0  0  0  0  2  0  0  0  0  0  0
  188.3690  175.9350  142.7960 C   0  0  0  0  0  0  0  0  0  0  0  0
  188.2140  176.7960  141.5820 C   0  0  0  0  0  2  0  0  0  0  0  0
  186.9890  176.5450  140.9570 O   0  0  0  0  0  0  0  0  0  0  0  0
  186.5960  177.7780  140.4290 C   0  0  0  0  0  2  0  0  0  0  0  0
  185.2750  178.1720  140.9970 C   0  0  0  0  0  0  0  0  0  0  0  0
  184.2740  178.1380  140.2980 O   0  0  0  0  0  0  0  0  0  0  0  0
  184.5450  177.6730  143.1930 O   0  0  0  0  0  1  0  0  0  0  0  0
  185.1870  178.6390  142.4110 C   0  0  0  0  0  2  0  0  0  0  0  0
  1 20  1  0  0  0  0
  2  4  2  0  0  0  0
  3  9  1  1  0  0  0
  3 21  1  0  0  0  0
  4 18  1  0  0  0  0
  6  5  1  0  0  0  0
  7  2  1  6  0  0  0
  7 16  1  0  0  0  0
 11 12  1  6  0  0  0
 11  3  1  0  0  0  0
 12 22  1  0  0  0  0
 13 10  2  0  0  0  0
 16 13  1  0  0  0  0
 16 15  1  1  0  0  0
 17  8  1  6  0  0  0
 17 11  1  0  0  0  0
 17  5  1  0  0  0  0
 18 15  1  0  0  0  0
 19  6  1  6  0  0  0
 19 14  1  0  0  0  0
 20 13  1  0  0  0  0
 21  4  1  0  0  0  0
 23 22  1  6  0  0  0
 23  3  1  0  0  0  0
 23  9  1  0  0  0  0
 24 14  1  1  0  0  0
 24  7  1  0  0  0  0
 24 20  1  0  0  0  0
 26 31  2  0  0  0  0
 27 29  1  6  0  0  0
 27 25  1  0  0  0  0
 27 19  1  0  0  0  0
 28 25  2  0  0  0  0
 30 26  1  0  0  0  0
 30 29  2  0  0  0  0
 31 28  1  0  0  0  0
 32 29  1  1  0  0  0
 32 33  1  0  0  0  0
 34 32  1  0  0  0  0
 34 33  1  0  0  0  0
 36 21  1  0  0  0  0
 36 35  2  0  0  0  0
 37 36  1  0  0  0  0
 38 37  1  0  0  0  0
 39 38  1  0  0  0  0
 39 40  1  0  0  0  0
 40 43  1  0  0  0  0
 41 40  2  0  0  0  0
 43 42  1  0  0  0  0
M  END
>  <MODEL>
3

>  <REMARK>
 VINA RESULT:      -6.3      2.887      8.638
  Name = 
  8 active torsions:
  status: ('A' for Active; 'I' for Inactive)
    1  A    between atoms: C_1  and  C_31
    2  A    between atoms: C_13  and  N_37
    3  A    between atoms: C_19  and  C_30
    4  A    between atoms: C_19  and  N_40
    5  A    between atoms: C_21  and  C_33
    6  A    between atoms: C_21  and  C_34
    7  A    between atoms: O_27  and  C_30
    8  A    between atoms: O_27  and  C_33
                            x       y       z     vdW  Elec       q    Type
                         _______ _______ _______ _____ _____    ______ ____

>  <TORSDO>
F 8

$$$$
=
 OpenBabel11062418423D

 43 49  0  0  1  0  0  0  0  0999 V2000
  189.3790  178.6190  148.3880 C   0  0  0  0  0  1  0  0  0  0  0  0
  190.9530  175.2020  145.0020 C   0  0  0  0  0  3  0  0  0  0  0  0
  191.4400  173.7770  142.5010 C   0  0  2  0  0  0  0  0  0  0  0  0
  192.0530  174.4710  144.8360 C   0  0  0  0  0  0  0  0  0  0  0  0
  189.4620  176.3460  142.6600 C   0  0  0  0  0  2  0  0  0  0  0  0
  188.4920  176.3410  143.8460 C   0  0  0  0  0  2  0  0  0  0  0  0
  191.0020  176.2920  145.9900 C   0  0  2  0  0  3  0  0  0  0  0  0
  187.9020  174.9490  141.2750 C   0  0  0  0  0  1  0  0  0  0  0  0
  192.2810  174.4620  141.4400 C   0  0  0  0  0  2  0  0  0  0  0  0
  191.9410  177.3590  149.1630 O   0  0  0  0  0  0  0  0  0  0  0  0
  189.9020  173.7750  142.3840 C   0  0  2  0  0  3  0  0  0  0  0  0
  189.6380  172.6280  141.4220 C   0  0  0  0  0  2  0  0  0  0  0  0
  191.3590  177.0530  148.0870 C   0  0  0  0  0  0  0  0  0  0  0  0
  189.4570  178.0730  145.2500 C   0  0  0  0  0  2  0  0  0  0  0  0
  193.1420  175.6110  146.8610 C   0  0  0  0  0  2  0  0  0  0  0  0
  191.6910  175.8730  147.2570 C   0  0  2  0  0  3  0  0  0  0  0  0
  189.3360  175.0940  141.7790 C   0  0  2  0  0  3  0  0  0  0  0  0
  193.1570  174.6170  145.7660 N   0  0  0  0  0  2  0  0  0  0  0  0
  188.3120  177.6940  144.3930 N   0  0  2  0  0  0  0  0  0  0  0  0
  190.2120  177.7390  147.5850 N   0  0  0  0  0  0  0  0  0  0  0  0
  192.0840  173.4810  143.8000 N   0  0  0  0  0  0  0  0  0  0  0  0
  190.8360  172.6090  140.4920 C   0  0  0  0  0  2  0  0  0  0  0  0
  192.0280  172.9640  141.3550 C   0  0  2  0  0  3  0  0  0  0  0  0
  189.7600  177.0680  146.3700 C   0  0  2  0  0  3  0  0  0  0  0  0
  187.1470  178.6140  146.3110 N   0  0  0  0  0  0  0  0  0  0  0  0
  184.3030  177.5490  146.1380 C   0  0  0  0  0  3  0  0  0  0  0  0
  187.0520  177.7180  145.1620 C   0  0  1  0  0  3  0  0  0  0  0  0
  186.2570  178.6510  147.2550 C   0  0  0  0  0  3  0  0  0  0  0  0
  185.8490  178.1090  144.3280 C   0  0  0  0  0  0  0  0  0  0  0  0
  184.6460  177.9440  144.8000 N   0  0  0  0  0  0  0  0  0  0  0  0
  185.0060  177.8650  147.2340 C   0  0  0  0  0  3  0  0  0  0  0  0
  185.9960  178.6060  142.9190 C   0  0  2  0  0  3  0  0  0  0  0  0
  184.7280  178.6640  142.3070 O   0  0  0  0  0  0  0  0  0  0  0  0
  185.5480  177.5820  141.9470 C   0  0  0  0  0  2  0  0  0  0  0  0
  191.5870  171.1820  144.2630 C   0  0  0  0  0  2  0  0  0  0  0  0
  192.4950  172.1430  144.1450 C   0  0  0  0  0  0  0  0  0  0  0  0
  193.9310  171.7370  144.0240 C   0  0  0  0  0  2  0  0  0  0  0  0
  194.6610  172.7160  143.3470 O   0  0  0  0  0  0  0  0  0  0  0  0
  195.8820  172.7880  144.0240 C   0  0  0  0  0  2  0  0  0  0  0  0
  196.2900  174.2140  144.1780 C   0  0  0  0  0  0  0  0  0  0  0  0
  197.0400  174.5410  145.0850 O   0  0  0  0  0  0  0  0  0  0  0  0
  195.4250  176.4060  143.9490 O   0  0  0  0  0  1  0  0  0  0  0  0
  195.7520  175.2430  143.2420 C   0  0  0  0  0  2  0  0  0  0  0  0
  3  9  1  6  0  0  0
  3 21  1  0  0  0  0
  4  2  2  0  0  0  0
  4 18  1  0  0  0  0
  5  6  1  0  0  0  0
  7  2  1  1  0  0  0
  7 24  1  0  0  0  0
  7 16  1  0  0  0  0
 11 12  1  6  0  0  0
 11  3  1  0  0  0  0
 13 10  2  0  0  0  0
 16 15  1  6  0  0  0
 16 13  1  0  0  0  0
 17  8  1  1  0  0  0
 17 11  1  0  0  0  0
 17  5  1  0  0  0  0
 18 15  1  0  0  0  0
 19  6  1  1  0  0  0
 19 27  1  0  0  0  0
 19 14  1  0  0  0  0
 20 13  1  0  0  0  0
 20  1  1  0  0  0  0
 21 36  1  0  0  0  0
 21  4  1  0  0  0  0
 22 12  1  0  0  0  0
 23 22  1  6  0  0  0
 23  9  1  0  0  0  0
 23  3  1  0  0  0  0
 24 14  1  6  0  0  0
 24 20  1  0  0  0  0
 25 28  2  0  0  0  0
 26 31  2  0  0  0  0
 27 29  1  6  0  0  0
 27 25  1  0  0  0  0
 29 30  2  0  0  0  0
 30 26  1  0  0  0  0
 31 28  1  0  0  0  0
 32 29  1  1  0  0  0
 33 32  1  0  0  0  0
 34 33  1  0  0  0  0
 34 32  1  0  0  0  0
 36 35  2  0  0  0  0
 37 36  1  0  0  0  0
 38 37  1  0  0  0  0
 38 39  1  0  0  0  0
 39 40  1  0  0  0  0
 40 41  2  0  0  0  0
 43 42  1  0  0  0  0
 43 40  1  0  0  0  0
M  END
>  <MODEL>
4

>  <REMARK>
 VINA RESULT:      -6.3      2.612      6.016
  Name = 
  8 active torsions:
  status: ('A' for Active; 'I' for Inactive)
    1  A    between atoms: C_1  and  C_31
    2  A    between atoms: C_13  and  N_37
    3  A    between atoms: C_19  and  C_30
    4  A    between atoms: C_19  and  N_40
    5  A    between atoms: C_21  and  C_33
    6  A    between atoms: C_21  and  C_34
    7  A    between atoms: O_27  and  C_30
    8  A    between atoms: O_27  and  C_33
                            x       y       z     vdW  Elec       q    Type
                         _______ _______ _______ _____ _____    ______ ____

>  <TORSDO>
F 8

$$$$
=
 OpenBabel11062418423D

 43 49  0  0  1  0  0  0  0  0999 V2000
  188.3380  173.1970  140.1680 C   0  0  0  0  0  1  0  0  0  0  0  0
  192.8960  173.1430  142.3670 C   0  0  0  0  0  3  0  0  0  0  0  0
  195.0300  173.1990  144.3600 C   0  0  2  0  0  0  0  0  0  0  0  0
  194.0390  172.4920  142.1620 C   0  0  0  0  0  0  0  0  0  0  0  0
  191.9340  173.7860  145.1390 C   0  0  0  0  0  2  0  0  0  0  0  0
  191.1940  174.7270  144.1810 C   0  0  0  0  0  2  0  0  0  0  0  0
  191.7020  172.6660  141.6520 C   0  0  2  0  0  3  0  0  0  0  0  0
  192.8620  175.7180  146.4460 C   0  0  0  0  0  1  0  0  0  0  0  0
  195.0930  172.0700  145.3710 C   0  0  0  0  0  2  0  0  0  0  0  0
  190.2940  171.5550  138.6740 O   0  0  0  0  0  0  0  0  0  0  0  0
  194.4120  174.5560  144.7560 C   0  0  2  0  0  3  0  0  0  0  0  0
  195.5560  175.2510  145.4740 C   0  0  0  0  0  2  0  0  0  0  0  0
  190.6110  172.1400  139.7440 C   0  0  0  0  0  0  0  0  0  0  0  0
  189.7190  173.1700  143.0390 C   0  0  0  0  0  2  0  0  0  0  0  0
  192.9520  171.1390  140.2720 C   0  0  0  0  0  2  0  0  0  0  0  0
  192.0000  172.3310  140.2190 C   0  0  2  0  0  3  0  0  0  0  0  0
  193.2050  174.4130  145.7300 C   0  0  2  0  0  3  0  0  0  0  0  0
  194.1220  171.5080  141.0990 N   0  0  0  0  0  2  0  0  0  0  0  0
  189.8000  174.3030  143.9880 N   0  0  2  0  0  0  0  0  0  0  0  0
  189.6740  172.8080  140.5890 N   0  0  0  0  0  0  0  0  0  0  0  0
  195.1940  172.8500  142.9310 N   0  0  0  0  0  0  0  0  0  0  0  0
  196.3420  174.1370  146.1390 C   0  0  0  0  0  2  0  0  0  0  0  0
  196.3000  172.9750  145.1700 C   0  0  2  0  0  3  0  0  0  0  0  0
  190.4000  173.4360  141.6890 C   0  0  2  0  0  3  0  0  0  0  0  0
  187.8380  175.0310  142.7620 N   0  0  0  0  0  0  0  0  0  0  0  0
  187.8210  178.0670  142.9620 C   0  0  0  0  0  3  0  0  0  0  0  0
  189.0300  175.4590  143.4900 C   0  0  1  0  0  3  0  0  0  0  0  0
  187.1140  175.8410  142.0520 C   0  0  0  0  0  3  0  0  0  0  0  0
  188.6210  176.4220  144.5850 C   0  0  0  0  0  0  0  0  0  0  0  0
  188.1510  177.5980  144.2790 N   0  0  0  0  0  0  0  0  0  0  0  0
  187.3530  177.2970  141.9700 C   0  0  0  0  0  3  0  0  0  0  0  0
  188.8240  176.0960  146.0370 C   0  0  2  0  0  3  0  0  0  0  0  0
  188.2290  177.0970  146.8300 O   0  0  0  0  0  0  0  0  0  0  0  0
  189.6270  177.1460  146.7070 C   0  0  0  0  0  2  0  0  0  0  0  0
  197.2050  172.1160  141.8490 C   0  0  0  0  0  2  0  0  0  0  0  0
  196.4250  173.1210  142.2300 C   0  0  0  0  0  0  0  0  0  0  0  0
  196.6670  174.4650  141.6160 C   0  0  0  0  0  2  0  0  0  0  0  0
  196.6790  174.3710  140.2230 O   0  0  0  0  0  0  0  0  0  0  0  0
  195.5410  175.0650  139.8050 C   0  0  0  0  0  2  0  0  0  0  0  0
  194.8700  174.3160  138.7030 C   0  0  0  0  0  0  0  0  0  0  0  0
  195.3070  173.2330  138.3460 O   0  0  0  0  0  0  0  0  0  0  0  0
  193.0220  173.9280  137.2760 O   0  0  0  0  0  1  0  0  0  0  0  0
  193.6880  174.9110  138.0160 C   0  0  0  0  0  2  0  0  0  0  0  0
  1 20  1  0  0  0  0
  3 11  1  0  0  0  0
  3 23  1  0  0  0  0
  3  9  1  1  0  0  0
  4  2  2  0  0  0  0
  4 21  1  0  0  0  0
  5 17  1  0  0  0  0
  6  5  1  0  0  0  0
  7 24  1  0  0  0  0
  7  2  1  6  0  0  0
 10 13  2  0  0  0  0
 11 12  1  1  0  0  0
 11 17  1  0  0  0  0
 12 22  1  0  0  0  0
 13 16  1  0  0  0  0
 13 20  1  0  0  0  0
 15 18  1  0  0  0  0
 16 15  1  1  0  0  0
 16  7  1  0  0  0  0
 17  8  1  6  0  0  0
 18  4  1  0  0  0  0
 19 14  1  6  0  0  0
 19  6  1  0  0  0  0
 20 24  1  0  0  0  0
 21  3  1  0  0  0  0
 23  9  1  1  0  0  0
 23 22  1  0  0  0  0
 24 14  1  1  0  0  0
 26 30  1  0  0  0  0
 27 25  1  1  0  0  0
 27 19  1  0  0  0  0
 27 29  1  0  0  0  0
 28 25  2  0  0  0  0
 30 29  2  0  0  0  0
 31 28  1  0  0  0  0
 31 26  2  0  0  0  0
 32 29  1  6  0  0  0
 32 34  1  0  0  0  0
 32 33  1  0  0  0  0
 34 33  1  0  0  0  0
 35 36  2  0  0  0  0
 36 21  1  0  0  0  0
 37 36  1  0  0  0  0
 38 37  1  0  0  0  0
 39 38  1  0  0  0  0
 40 39  1  0  0  0  0
 41 40  2  0  0  0  0
 42 43  1  0  0  0  0
 43 40  1  0  0  0  0
M  END
>  <MODEL>
5

>  <REMARK>
 VINA RESULT:      -6.2      1.521      1.760
  Name = 
  8 active torsions:
  status: ('A' for Active; 'I' for Inactive)
    1  A    between atoms: C_1  and  C_31
    2  A    between atoms: C_13  and  N_37
    3  A    between atoms: C_19  and  C_30
    4  A    between atoms: C_19  and  N_40
    5  A    between atoms: C_21  and  C_33
    6  A    between atoms: C_21  and  C_34
    7  A    between atoms: O_27  and  C_30
    8  A    between atoms: O_27  and  C_33
                            x       y       z     vdW  Elec       q    Type
                         _______ _______ _______ _____ _____    ______ ____

>  <TORSDO>
F 8

$$$$
=
 OpenBabel11062418423D

 43 49  0  0  1  0  0  0  0  0999 V2000
  190.3200  171.1160  138.8700 C   0  0  0  0  0  1  0  0  0  0  0  0
  190.4610  174.1100  142.9490 C   0  0  0  0  0  3  0  0  0  0  0  0
  191.4000  175.8480  145.0990 C   0  0  2  0  0  0  0  0  0  0  0  0
  189.6700  175.0490  143.4620 C   0  0  0  0  0  0  0  0  0  0  0  0
  193.4530  174.3270  143.0960 C   0  0  0  0  0  2  0  0  0  0  0  0
  193.1260  172.8530  142.8340 C   0  0  0  0  0  2  0  0  0  0  0  0
  190.1810  173.6560  141.5770 C   0  0  2  0  0  3  0  0  0  0  0  0
  194.7190  173.7580  145.1880 C   0  0  0  0  0  1  0  0  0  0  0  0
  191.9940  177.1930  144.7220 C   0  0  0  0  0  2  0  0  0  0  0  0
  187.8240  172.6660  139.2210 O   0  0  0  0  0  0  0  0  0  0  0  0
  192.3270  174.6640  145.4410 C   0  0  2  0  0  3  0  0  0  0  0  0
  192.6820  174.9230  146.8950 C   0  0  0  0  0  2  0  0  0  0  0  0
  188.7910  172.7910  140.0200 C   0  0  0  0  0  0  0  0  0  0  0  0
  192.3130  172.9510  140.5470 C   0  0  0  0  0  2  0  0  0  0  0  0
  188.0910  174.8480  141.4480 C   0  0  0  0  0  2  0  0  0  0  0  0
  188.7110  173.4570  141.3400 C   0  0  2  0  0  3  0  0  0  0  0  0
  193.6300  174.6450  144.5880 C   0  0  2  0  0  3  0  0  0  0  0  0
  188.4540  175.4220  142.7620 N   0  0  0  0  0  2  0  0  0  0  0  0
  193.4000  172.4870  141.4370 N   0  0  2  0  0  0  0  0  0  0  0  0
  190.0720  172.1950  139.8110 N   0  0  0  0  0  0  0  0  0  0  0  0
  189.9840  175.6020  144.7460 N   0  0  0  0  0  0  0  0  0  0  0  0
  192.6890  176.4330  147.0380 C   0  0  0  0  0  2  0  0  0  0  0  0
  191.5620  176.9310  146.1580 C   0  0  2  0  0  3  0  0  0  0  0  0
  190.9140  172.4810  140.9690 C   0  0  2  0  0  3  0  0  0  0  0  0
  193.5180  170.5500  139.9810 N   0  0  0  0  0  0  0  0  0  0  0  0
  194.0880  168.1820  141.8040 C   0  0  0  0  0  3  0  0  0  0  0  0
  193.5460  171.0200  141.3640 C   0  0  1  0  0  3  0  0  0  0  0  0
  193.4160  169.2960  139.6610 C   0  0  0  0  0  3  0  0  0  0  0  0
  194.8040  170.5090  142.0340 C   0  0  0  0  0  0  0  0  0  0  0  0
  194.9520  169.2350  142.2620 N   0  0  0  0  0  0  0  0  0  0  0  0
  193.4090  168.1970  140.6480 C   0  0  0  0  0  3  0  0  0  0  0  0
  195.8660  171.4460  142.5340 C   0  0  2  0  0  3  0  0  0  0  0  0
  196.4500  172.1180  141.4420 O   0  0  0  0  0  0  0  0  0  0  0  0
  197.1970  171.0680  142.0020 C   0  0  0  0  0  2  0  0  0  0  0  0
  188.9490  174.7650  146.7400 C   0  0  0  0  0  2  0  0  0  0  0  0
  188.9450  175.6440  145.7450 C   0  0  0  0  0  0  0  0  0  0  0  0
  188.0780  176.8560  145.8870 C   0  0  0  0  0  2  0  0  0  0  0  0
  186.8020  176.4970  146.3270 O   0  0  0  0  0  0  0  0  0  0  0  0
  185.9560  176.7890  145.2540 C   0  0  0  0  0  2  0  0  0  0  0  0
  184.9660  177.8270  145.6620 C   0  0  0  0  0  0  0  0  0  0  0  0
  184.4980  177.8160  146.7910 O   0  0  0  0  0  0  0  0  0  0  0  0
  185.5930  179.6900  144.3440 O   0  0  0  0  0  1  0  0  0  0  0  0
  184.5210  178.8550  144.6760 C   0  0  0  0  0  2  0  0  0  0  0  0
  1 20  1  0  0  0  0
  2  4  2  0  0  0  0
  3  9  1  6  0  0  0
  3 11  1  0  0  0  0
  3 23  1  0  0  0  0
  4 21  1  0  0  0  0
  5 17  1  0  0  0  0
  6  5  1  0  0  0  0
  7  2  1  1  0  0  0
 10 13  2  0  0  0  0
 11 12  1  1  0  0  0
 12 22  1  0  0  0  0
 13 16  1  0  0  0  0
 15 18  1  0  0  0  0
 16 15  1  6  0  0  0
 16  7  1  0  0  0  0
 17  8  1  1  0  0  0
 17 11  1  0  0  0  0
 18  4  1  0  0  0  0
 19 14  1  6  0  0  0
 19  6  1  0  0  0  0
 20 13  1  0  0  0  0
 20 24  1  0  0  0  0
 21  3  1  0  0  0  0
 21 36  1  0  0  0  0
 23  9  1  6  0  0  0
 23 22  1  0  0  0  0
 24 14  1  6  0  0  0
 24  7  1  0  0  0  0
 26 30  1  0  0  0  0
 27 25  1  6  0  0  0
 27 19  1  0  0  0  0
 27 29  1  0  0  0  0
 28 25  2  0  0  0  0
 28 31  1  0  0  0  0
 29 30  2  0  0  0  0
 31 26  2  0  0  0  0
 32 29  1  6  0  0  0
 33 34  1  0  0  0  0
 33 32  1  0  0  0  0
 34 32  1  0  0  0  0
 36 37  1  0  0  0  0
 36 35  2  0  0  0  0
 37 38  1  0  0  0  0
 39 40  1  0  0  0  0
 39 38  1  0  0  0  0
 40 41  2  0  0  0  0
 42 43  1  0  0  0  0
 43 40  1  0  0  0  0
M  END
>  <MODEL>
6

>  <REMARK>
 VINA RESULT:      -6.2      2.154      7.590
  Name = 
  8 active torsions:
  status: ('A' for Active; 'I' for Inactive)
    1  A    between atoms: C_1  and  C_31
    2  A    between atoms: C_13  and  N_37
    3  A    between atoms: C_19  and  C_30
    4  A    between atoms: C_19  and  N_40
    5  A    between atoms: C_21  and  C_33
    6  A    between atoms: C_21  and  C_34
    7  A    between atoms: O_27  and  C_30
    8  A    between atoms: O_27  and  C_33
                            x       y       z     vdW  Elec       q    Type
                         _______ _______ _______ _____ _____    ______ ____

>  <TORSDO>
F 8

$$$$
=
 OpenBabel11062418423D

 43 49  0  0  1  0  0  0  0  0999 V2000
  193.5290  168.9290  141.6020 C   0  0  0  0  0  1  0  0  0  0  0  0
  192.4930  173.3290  143.8780 C   0  0  0  0  0  3  0  0  0  0  0  0
  191.0900  175.6820  144.8870 C   0  0  2  0  0  0  0  0  0  0  0  0
  192.8900  173.9330  144.9960 C   0  0  0  0  0  0  0  0  0  0  0  0
  189.6650  173.5540  142.8930 C   0  0  0  0  0  2  0  0  0  0  0  0
  190.5190  173.1160  141.6990 C   0  0  0  0  0  2  0  0  0  0  0  0
  192.8420  171.9090  143.7100 C   0  0  2  0  0  3  0  0  0  0  0  0
  188.8480  175.5860  141.6680 C   0  0  0  0  0  1  0  0  0  0  0  0
  190.0010  175.4750  145.9230 C   0  0  0  0  0  2  0  0  0  0  0  0
  195.2490  169.4130  143.9600 O   0  0  0  0  0  0  0  0  0  0  0  0
  190.7160  175.9010  143.4070 C   0  0  2  0  0  3  0  0  0  0  0  0
  190.3780  177.3820  143.3600 C   0  0  0  0  0  2  0  0  0  0  0  0
  194.3600  170.2380  143.6170 C   0  0  0  0  0  0  0  0  0  0  0  0
  191.0890  170.8420  142.3340 C   0  0  0  0  0  2  0  0  0  0  0  0
  194.2970  171.8830  145.6300 C   0  0  0  0  0  2  0  0  0  0  0  0
  194.2570  171.6240  144.1250 C   0  0  2  0  0  3  0  0  0  0  0  0
  189.4710  175.0750  142.9660 C   0  0  2  0  0  3  0  0  0  0  0  0
  193.8220  173.2610  145.8820 N   0  0  0  0  0  2  0  0  0  0  0  0
  190.3230  171.6910  141.3950 N   0  0  2  0  0  0  0  0  0  0  0  0
  193.3990  169.9840  142.5920 N   0  0  0  0  0  0  0  0  0  0  0  0
  192.4670  175.2780  145.2510 N   0  0  0  0  0  0  0  0  0  0  0  0
  189.7970  177.6990  144.7250 C   0  0  0  0  0  2  0  0  0  0  0  0
  190.5870  176.8630  145.7090 C   0  0  2  0  0  3  0  0  0  0  0  0
  192.5840  171.1820  142.4090 C   0  0  2  0  0  3  0  0  0  0  0  0
  190.8290  170.0220  139.7100 N   0  0  0  0  0  0  0  0  0  0  0  0
  191.3950  171.5760  137.1560 C   0  0  0  0  0  3  0  0  0  0  0  0
  190.7510  171.4510  140.0040 C   0  0  1  0  0  3  0  0  0  0  0  0
  191.3790  169.5500  138.6330 C   0  0  0  0  0  3  0  0  0  0  0  0
  189.8580  172.1190  138.9790 C   0  0  0  0  0  0  0  0  0  0  0  0
  190.2370  172.1990  137.7350 N   0  0  0  0  0  0  0  0  0  0  0  0
  191.9030  170.3970  137.5420 C   0  0  0  0  0  3  0  0  0  0  0  0
  188.5680  172.7800  139.3700 C   0  0  2  0  0  3  0  0  0  0  0  0
  187.8110  173.0520  138.2140 O   0  0  0  0  0  0  0  0  0  0  0  0
  188.4770  174.1430  138.7960 C   0  0  0  0  0  2  0  0  0  0  0  0
  193.7830  176.4610  146.8690 C   0  0  0  0  0  2  0  0  0  0  0  0
  193.4680  176.2570  145.5950 C   0  0  0  0  0  0  0  0  0  0  0  0
  194.4000  176.7870  144.5510 C   0  0  0  0  0  2  0  0  0  0  0  0
  195.6080  176.0840  144.5710 O   0  0  0  0  0  0  0  0  0  0  0  0
  196.3740  176.6540  143.5510 C   0  0  0  0  0  2  0  0  0  0  0  0
  195.9870  176.0620  142.2390 C   0  0  0  0  0  0  0  0  0  0  0  0
  195.7550  176.7880  141.2850 O   0  0  0  0  0  0  0  0  0  0  0  0
  194.7260  174.2750  141.3320 O   0  0  0  0  0  1  0  0  0  0  0  0
  195.8500  174.5820  142.1060 C   0  0  0  0  0  2  0  0  0  0  0  0
  1 20  1  0  0  0  0
  2  4  2  0  0  0  0
  3 21  1  0  0  0  0
  3 23  1  0  0  0  0
  3  9  1  1  0  0  0
  4 21  1  0  0  0  0
  4 18  1  0  0  0  0
  5 17  1  0  0  0  0
  6  5  1  0  0  0  0
  7  2  1  6  0  0  0
  7 16  1  0  0  0  0
 11 12  1  1  0  0  0
 11  3  1  0  0  0  0
 12 22  1  0  0  0  0
 13 10  2  0  0  0  0
 13 16  1  0  0  0  0
 15 18  1  0  0  0  0
 16 15  1  1  0  0  0
 17  8  1  6  0  0  0
 17 11  1  0  0  0  0
 19  6  1  1  0  0  0
 19 14  1  0  0  0  0
 20 13  1  0  0  0  0
 21 36  1  0  0  0  0
 23 22  1  6  0  0  0
 23  9  1  0  0  0  0
 24 14  1  1  0  0  0
 24 20  1  0  0  0  0
 24  7  1  0  0  0  0
 25 27  1  0  0  0  0
 26 31  2  0  0  0  0
 26 30  1  0  0  0  0
 27 29  1  6  0  0  0
 27 19  1  0  0  0  0
 28 25  2  0  0  0  0
 30 29  2  0  0  0  0
 31 28  1  0  0  0  0
 32 29  1  6  0  0  0
 33 34  1  0  0  0  0
 33 32  1  0  0  0  0
 34 32  1  0  0  0  0
 36 35  2  0  0  0  0
 37 38  1  0  0  0  0
 37 36  1  0  0  0  0
 39 38  1  0  0  0  0
 40 39  1  0  0  0  0
 41 40  2  0  0  0  0
 42 43  1  0  0  0  0
 43 40  1  0  0  0  0
M  END
>  <MODEL>
7

>  <REMARK>
 VINA RESULT:      -6.1      2.266      5.694
  Name = 
  8 active torsions:
  status: ('A' for Active; 'I' for Inactive)
    1  A    between atoms: C_1  and  C_31
    2  A    between atoms: C_13  and  N_37
    3  A    between atoms: C_19  and  C_30
    4  A    between atoms: C_19  and  N_40
    5  A    between atoms: C_21  and  C_33
    6  A    between atoms: C_21  and  C_34
    7  A    between atoms: O_27  and  C_30
    8  A    between atoms: O_27  and  C_33
                            x       y       z     vdW  Elec       q    Type
                         _______ _______ _______ _____ _____    ______ ____

>  <TORSDO>
F 8

$$$$
=
 OpenBabel11062418423D

 43 49  0  0  1  0  0  0  0  0999 V2000
  189.4150  178.4540  148.2110 C   0  0  0  0  0  1  0  0  0  0  0  0
  191.0140  174.9770  144.8990 C   0  0  0  0  0  3  0  0  0  0  0  0
  191.5600  173.5300  142.4220 C   0  0  2  0  0  0  0  0  0  0  0  0
  192.0930  174.2060  144.7820 C   0  0  0  0  0  0  0  0  0  0  0  0
  189.6700  176.1690  142.4920 C   0  0  0  0  0  2  0  0  0  0  0  0
  188.6490  176.2010  143.6350 C   0  0  0  0  0  2  0  0  0  0  0  0
  191.0580  176.0650  145.8880 C   0  0  2  0  0  3  0  0  0  0  0  0
  188.1240  174.8270  141.0400 C   0  0  0  0  0  1  0  0  0  0  0  0
  192.4710  174.1830  141.3990 C   0  0  0  0  0  2  0  0  0  0  0  0
  191.8930  177.1030  149.1000 O   0  0  0  0  0  0  0  0  0  0  0  0
  190.0290  173.5840  142.2370 C   0  0  2  0  0  3  0  0  0  0  0  0
  189.7670  172.4460  141.2640 C   0  0  0  0  0  2  0  0  0  0  0  0
  191.3490  176.8160  147.9990 C   0  0  0  0  0  0  0  0  0  0  0  0
  189.6130  177.9000  145.0800 C   0  0  0  0  0  2  0  0  0  0  0  0
  193.1310  175.3090  146.8530 C   0  0  0  0  0  2  0  0  0  0  0  0
  191.6740  175.6240  147.1850 C   0  0  2  0  0  3  0  0  0  0  0  0
  189.5390  174.9210  141.6070 C   0  0  2  0  0  3  0  0  0  0  0  0
  193.1600  174.3130  145.7600 N   0  0  0  0  0  2  0  0  0  0  0  0
  188.4930  177.5600  144.1730 N   0  0  2  0  0  0  0  0  0  0  0  0
  190.2510  177.5430  147.4470 N   0  0  0  0  0  0  0  0  0  0  0  0
  192.1340  173.2140  143.7490 N   0  0  0  0  0  0  0  0  0  0  0  0
  191.0040  172.3810  140.3880 C   0  0  0  0  0  2  0  0  0  0  0  0
  192.1690  172.6950  141.3030 C   0  0  2  0  0  3  0  0  0  0  0  0
  189.8290  176.8860  146.2130 C   0  0  2  0  0  3  0  0  0  0  0  0
  187.2840  178.5120  146.0470 N   0  0  0  0  0  0  0  0  0  0  0  0
  184.4080  177.5700  145.7360 C   0  0  0  0  0  3  0  0  0  0  0  0
  187.2030  177.6310  144.8850 C   0  0  1  0  0  3  0  0  0  0  0  0
  186.3540  178.5780  146.9510 C   0  0  0  0  0  3  0  0  0  0  0  0
  186.0560  178.0800  144.0030 C   0  0  0  0  0  0  0  0  0  0  0  0
  184.8270  177.9620  144.4180 N   0  0  0  0  0  0  0  0  0  0  0  0
  185.0740  177.8460  146.8650 C   0  0  0  0  0  3  0  0  0  0  0  0
  186.2870  178.5840  142.6070 C   0  0  2  0  0  3  0  0  0  0  0  0
  185.0550  178.6670  141.9290 O   0  0  0  0  0  0  0  0  0  0  0  0
  185.8740  177.5730  141.6050 C   0  0  0  0  0  2  0  0  0  0  0  0
  191.5710  170.9000  144.0240 C   0  0  0  0  0  2  0  0  0  0  0  0
  192.4810  171.8620  144.1110 C   0  0  0  0  0  0  0  0  0  0  0  0
  193.9170  171.4570  144.2400 C   0  0  0  0  0  2  0  0  0  0  0  0
  194.1950  171.0510  145.5470 O   0  0  0  0  0  0  0  0  0  0  0  0
  195.5820  170.8850  145.5850 C   0  0  0  0  0  2  0  0  0  0  0  0
  195.9230  169.6740  146.3850 C   0  0  0  0  0  0  0  0  0  0  0  0
  197.0540  169.5290  146.8230 O   0  0  0  0  0  0  0  0  0  0  0  0
  194.5350  168.5940  147.9700 O   0  0  0  0  0  1  0  0  0  0  0  0
  194.8900  168.6240  146.6170 C   0  0  0  0  0  2  0  0  0  0  0  0
  3  9  1  6  0  0  0
  3 21  1  0  0  0  0
  4  2  2  0  0  0  0
  4 18  1  0  0  0  0
  5  6  1  0  0  0  0
  7  2  1  6  0  0  0
  7 24  1  0  0  0  0
  7 16  1  0  0  0  0
 11 12  1  6  0  0  0
 11  3  1  0  0  0  0
 13 10  2  0  0  0  0
 16 15  1  6  0  0  0
 16 13  1  0  0  0  0
 17  8  1  1  0  0  0
 17 11  1  0  0  0  0
 17  5  1  0  0  0  0
 18 15  1  0  0  0  0
 19  6  1  1  0  0  0
 19 27  1  0  0  0  0
 19 14  1  0  0  0  0
 20 13  1  0  0  0  0
 20  1  1  0  0  0  0
 21 36  1  0  0  0  0
 21  4  1  0  0  0  0
 22 12  1  0  0  0  0
 23 22  1  6  0  0  0
 23  9  1  0  0  0  0
 23  3  1  0  0  0  0
 24 14  1  6  0  0  0
 24 20  1  0  0  0  0
 25 28  2  0  0  0  0
 26 31  2  0  0  0  0
 27 29  1  6  0  0  0
 27 25  1  0  0  0  0
 29 30  2  0  0  0  0
 30 26  1  0  0  0  0
 31 28  1  0  0  0  0
 32 29  1  1  0  0  0
 33 32  1  0  0  0  0
 34 33  1  0  0  0  0
 34 32  1  0  0  0  0
 35 36  2  0  0  0  0
 36 37  1  0  0  0  0
 37 38  1  0  0  0  0
 38 39  1  0  0  0  0
 39 40  1  0  0  0  0
 40 43  1  0  0  0  0
 40 41  2  0  0  0  0
 43 42  1  0  0  0  0
M  END
>  <MODEL>
8

>  <REMARK>
 VINA RESULT:      -6.1      3.182      6.509
  Name = 
  8 active torsions:
  status: ('A' for Active; 'I' for Inactive)
    1  A    between atoms: C_1  and  C_31
    2  A    between atoms: C_13  and  N_37
    3  A    between atoms: C_19  and  C_30
    4  A    between atoms: C_19  and  N_40
    5  A    between atoms: C_21  and  C_33
    6  A    between atoms: C_21  and  C_34
    7  A    between atoms: O_27  and  C_30
    8  A    between atoms: O_27  and  C_33
                            x       y       z     vdW  Elec       q    Type
                         _______ _______ _______ _____ _____    ______ ____

>  <TORSDO>
F 8

$$$$
=
 OpenBabel11062418423D

 43 49  0  0  1  0  0  0  0  0999 V2000
  188.3110  173.0930  140.9240 C   0  0  0  0  0  1  0  0  0  0  0  0
  192.6560  175.0200  142.6630 C   0  0  0  0  0  3  0  0  0  0  0  0
  195.4610  175.7930  142.9090 C   0  0  2  0  0  0  0  0  0  0  0  0
  193.0060  176.1170  143.3310 C   0  0  0  0  0  0  0  0  0  0  0  0
  194.4130  173.8620  140.5200 C   0  0  0  0  0  2  0  0  0  0  0  0
  193.4570  172.7480  140.9620 C   0  0  0  0  0  2  0  0  0  0  0  0
  191.2940  174.9630  142.1090 C   0  0  2  0  0  3  0  0  0  0  0  0
  196.4240  172.4640  141.0700 C   0  0  0  0  0  1  0  0  0  0  0  0
  196.0220  176.7760  141.8980 C   0  0  0  0  0  2  0  0  0  0  0  0
  187.8930  175.5110  142.5790 O   0  0  0  0  0  0  0  0  0  0  0  0
  195.7300  174.2830  142.7480 C   0  0  2  0  0  3  0  0  0  0  0  0
  197.1160  174.1220  143.3490 C   0  0  0  0  0  2  0  0  0  0  0  0
  189.0500  175.0650  142.3500 C   0  0  0  0  0  0  0  0  0  0  0  0
  191.3460  173.5600  140.0760 C   0  0  0  0  0  2  0  0  0  0  0  0
  190.5830  176.9610  143.2520 C   0  0  0  0  0  2  0  0  0  0  0  0
  190.2700  175.4760  143.0810 C   0  0  2  0  0  3  0  0  0  0  0  0
  195.7580  173.8250  141.2600 C   0  0  2  0  0  3  0  0  0  0  0  0
  191.9930  177.0970  143.6790 N   0  0  0  0  0  2  0  0  0  0  0  0
  192.3990  172.5260  139.9660 N   0  0  2  0  0  0  0  0  0  0  0  0
  189.3220  174.0050  141.4330 N   0  0  0  0  0  0  0  0  0  0  0  0
  194.3590  176.2610  143.7800 N   0  0  0  0  0  0  0  0  0  0  0  0
  197.8300  175.4280  143.0550 C   0  0  0  0  0  2  0  0  0  0  0  0
  196.7770  176.5070  143.1920 C   0  0  2  0  0  3  0  0  0  0  0  0
  190.7490  173.6980  141.4830 C   0  0  2  0  0  3  0  0  0  0  0  0
  191.1980  171.0740  141.4920 N   0  0  0  0  0  0  0  0  0  0  0  0
  190.7390  168.4790  139.9710 C   0  0  0  0  0  3  0  0  0  0  0  0
  191.8350  171.1800  140.1820 C   0  0  1  0  0  3  0  0  0  0  0  0
  190.8160  169.9440  142.0040 C   0  0  0  0  0  3  0  0  0  0  0  0
  190.8430  170.7670  139.1150 C   0  0  0  0  0  0  0  0  0  0  0  0
  190.4460  169.5300  139.0350 N   0  0  0  0  0  0  0  0  0  0  0  0
  190.8960  168.6520  141.2910 C   0  0  0  0  0  3  0  0  0  0  0  0
  190.3610  171.7350  138.0730 C   0  0  2  0  0  3  0  0  0  0  0  0
  189.7740  171.0240  137.0080 O   0  0  0  0  0  0  0  0  0  0  0  0
  191.0680  171.5240  136.7880 C   0  0  0  0  0  2  0  0  0  0  0  0
  194.9200  177.8410  145.4940 C   0  0  0  0  0  2  0  0  0  0  0  0
  194.5890  176.5980  145.1620 C   0  0  0  0  0  0  0  0  0  0  0  0
  194.1220  175.6850  146.2530 C   0  0  0  0  0  2  0  0  0  0  0  0
  193.0030  176.2200  146.8940 O   0  0  0  0  0  0  0  0  0  0  0  0
  192.0310  175.2190  146.8180 C   0  0  0  0  0  2  0  0  0  0  0  0
  190.6730  175.8240  146.9360 C   0  0  0  0  0  0  0  0  0  0  0  0
  190.5320  177.0330  146.8350 O   0  0  0  0  0  0  0  0  0  0  0  0
  188.3140  175.6320  146.8940 O   0  0  0  0  0  1  0  0  0  0  0  0
  189.4950  174.9520  147.2130 C   0  0  0  0  0  2  0  0  0  0  0  0
  1 20  1  0  0  0  0
  2  4  2  0  0  0  0
  3  9  1  6  0  0  0
  3 23  1  0  0  0  0
  3 21  1  0  0  0  0
  4 18  1  0  0  0  0
  4 21  1  0  0  0  0
  5  6  1  0  0  0  0
  5 17  1  0  0  0  0
  7  2  1  1  0  0  0
  7 16  1  0  0  0  0
 11  3  1  0  0  0  0
 11 12  1  6  0  0  0
 13 10  2  0  0  0  0
 13 16  1  0  0  0  0
 15 18  1  0  0  0  0
 16 15  1  6  0  0  0
 17  8  1  1  0  0  0
 17 11  1  0  0  0  0
 19 14  1  1  0  0  0
 19 27  1  0  0  0  0
 19  6  1  0  0  0  0
 20 24  1  0  0  0  0
 20 13  1  0  0  0  0
 21 36  1  0  0  0  0
 22 23  1  0  0  0  0
 22 12  1  0  0  0  0
 23  9  1  6  0  0  0
 24 14  1  6  0  0  0
 24  7  1  0  0  0  0
 25 28  2  0  0  0  0
 26 31  2  0  0  0  0
 27 29  1  6  0  0  0
 27 25  1  0  0  0  0
 30 29  2  0  0  0  0
 30 26  1  0  0  0  0
 31 28  1  0  0  0  0
 32 29  1  1  0  0  0
 33 32  1  0  0  0  0
 34 33  1  0  0  0  0
 34 32  1  0  0  0  0
 36 35  2  0  0  0  0
 36 37  1  0  0  0  0
 37 38  1  0  0  0  0
 39 38  1  0  0  0  0
 39 40  1  0  0  0  0
 40 43  1  0  0  0  0
 41 40  2  0  0  0  0
 42 43  1  0  0  0  0
M  END
>  <MODEL>
9

>  <REMARK>
 VINA RESULT:      -6.0      2.549      6.395
  Name = 
  8 active torsions:
  status: ('A' for Active; 'I' for Inactive)
    1  A    between atoms: C_1  and  C_31
    2  A    between atoms: C_13  and  N_37
    3  A    between atoms: C_19  and  C_30
    4  A    between atoms: C_19  and  N_40
    5  A    between atoms: C_21  and  C_33
    6  A    between atoms: C_21  and  C_34
    7  A    between atoms: O_27  and  C_30
    8  A    between atoms: O_27  and  C_33
                            x       y       z     vdW  Elec       q    Type
                         _______ _______ _______ _____ _____    ______ ____

>  <TORSDO>
F 8

$$$$
