=
 OpenBabel11062422573D

 29 32  0  0  1  0  0  0  0  0999 V2000
  188.4690  177.5500  143.5730 C   0  0  2  0  0  3  0  0  0  0  0  0
  189.9250  175.7010  144.6880 C   0  0  2  0  0  3  0  0  0  0  0  0
  189.6910  177.8770  142.8630 N   0  0  0  0  0  0  0  0  0  0  0  0
  190.8420  177.5890  143.3630 C   0  0  0  0  0  3  0  0  0  0  0  0
  188.5160  176.1390  144.1990 C   0  0  1  0  0  3  0  0  0  0  0  0
  190.9210  176.8770  144.6780 C   0  0  0  0  0  2  0  0  0  0  0  0
  187.2680  177.7400  142.6860 C   0  0  0  0  0  0  0  0  0  0  0  0
  183.9140  178.3480  140.2580 N   0  0  0  0  0  1  0  0  0  0  0  0
  186.3290  179.2680  144.1480 O   0  0  0  0  0  0  0  0  0  0  0  0
  185.0530  178.1380  141.0850 C   0  0  0  0  0  0  0  0  0  0  0  0
  187.1190  177.0520  141.4660 C   0  0  0  0  0  0  0  0  0  0  0  0
  188.1140  176.1350  141.0170 N   0  0  0  0  0  1  0  0  0  0  0  0
  186.0180  177.2650  140.7010 N   0  0  0  0  0  0  0  0  0  0  0  0
  186.2530  178.6320  143.0630 C   0  0  0  0  0  0  0  0  0  0  0  0
  185.1750  178.8130  142.2560 N   0  0  0  0  0  2  0  0  0  0  0  0
  190.4370  174.5710  143.8950 N   0  0  0  0  0  0  0  0  0  0  0  0
  189.5510  172.3220  143.6680 C   0  0  0  0  0  2  0  0  0  0  0  0
  189.3080  173.7910  143.3790 C   0  0  0  0  0  2  0  0  0  0  0  0
  191.1560  173.6610  144.7830 C   0  0  0  0  0  2  0  0  0  0  0  0
  190.9240  172.2620  144.2780 C   0  0  0  0  0  2  0  0  0  0  0  0
  187.6100  176.0630  145.2590 O   0  0  0  0  0  0  0  0  0  0  0  0
  188.3480  176.4150  146.3930 C   0  0  0  0  0  2  0  0  0  0  0  0
  187.8930  177.7660  146.9090 C   0  0  0  0  0  2  0  0  0  0  0  0
  186.5820  177.6490  147.6700 C   0  0  1  0  0  3  0  0  0  0  0  0
  185.8260  178.9020  147.6030 C   0  0  0  0  0  0  0  0  0  0  0  0
  186.1890  180.0010  148.0990 O   0  0  0  0  0  0  0  0  0  0  0  0
  185.7650  176.6770  147.0470 O   0  0  0  0  0  0  0  0  0  0  0  0
  184.6150  178.7260  146.9370 N   0  0  0  0  0  0  0  0  0  0  0  0
  184.6120  177.3330  146.5280 C   0  0  0  0  0  3  0  0  0  0  0  0
  1  7  1  6  0  0  0
  1  5  1  0  0  0  0
  2 16  1  6  0  0  0
  3  4  2  0  0  0  0
  3  1  1  0  0  0  0
  4  6  1  0  0  0  0
  5  2  1  0  0  0  0
  5 21  1  1  0  0  0
  6  2  1  0  0  0  0
  7 14  1  0  0  0  0
  8 10  1  0  0  0  0
 10 15  1  0  0  0  0
 11  7  2  0  0  0  0
 12 11  1  0  0  0  0
 13 10  2  0  0  0  0
 13 11  1  0  0  0  0
 14  9  2  0  0  0  0
 15 14  1  0  0  0  0
 16 19  1  0  0  0  0
 17 20  1  0  0  0  0
 18 17  1  0  0  0  0
 18 16  1  0  0  0  0
 20 19  1  0  0  0  0
 21 22  1  0  0  0  0
 22 23  1  0  0  0  0
 24 23  1  6  0  0  0
 25 24  1  0  0  0  0
 25 26  2  0  0  0  0
 27 24  1  0  0  0  0
 28 25  1  0  0  0  0
 29 28  2  0  0  0  0
 29 27  1  0  0  0  0
M  END
>  <MODEL>
1

>  <REMARK>
 VINA RESULT:      -7.0      0.000      0.000
  Name = 
  6 active torsions:
  status: ('A' for Active; 'I' for Inactive)
    1  A    between atoms: C_1  and  C_4
    2  A    between atoms: C_2  and  C_18
    3  A    between atoms: C_2  and  O_20
    4  A    between atoms: N_3  and  C_11
    5  A    between atoms: C_15  and  C_18
    6  A    between atoms: O_20  and  C_26
                            x       y       z     vdW  Elec       q    Type
                         _______ _______ _______ _____ _____    ______ ____

>  <TORSDO>
F 6

$$$$
=
 OpenBabel11062422573D

 29 32  0  0  1  0  0  0  0  0999 V2000
  191.1100  175.3120  145.9190 C   0  0  2  0  0  3  0  0  0  0  0  0
  193.0240  174.8900  144.2050 C   0  0  2  0  0  3  0  0  0  0  0  0
  192.1520  175.9430  146.7050 N   0  0  0  0  0  0  0  0  0  0  0  0
  193.3870  175.6100  146.5530 C   0  0  0  0  0  3  0  0  0  0  0  0
  191.5100  175.1540  144.4350 C   0  0  1  0  0  3  0  0  0  0  0  0
  193.7560  174.5830  145.5260 C   0  0  0  0  0  2  0  0  0  0  0  0
  189.8030  176.0400  146.0810 C   0  0  0  0  0  0  0  0  0  0  0  0
  186.1530  178.0180  146.6090 N   0  0  0  0  0  1  0  0  0  0  0  0
  188.9480  174.3690  147.4370 O   0  0  0  0  0  0  0  0  0  0  0  0
  187.3930  177.3450  146.4270 C   0  0  0  0  0  0  0  0  0  0  0  0
  189.5540  177.2830  145.4680 C   0  0  0  0  0  0  0  0  0  0  0  0
  190.5450  177.9100  144.6570 N   0  0  0  0  0  1  0  0  0  0  0  0
  188.3590  177.9010  145.6530 N   0  0  0  0  0  0  0  0  0  0  0  0
  188.7840  175.4840  146.8710 C   0  0  0  0  0  0  0  0  0  0  0  0
  187.6090  176.1470  147.0280 N   0  0  0  0  0  2  0  0  0  0  0  0
  193.6600  176.0160  143.5000 N   0  0  0  0  0  0  0  0  0  0  0  0
  194.6310  176.0900  141.2770 C   0  0  0  0  0  2  0  0  0  0  0  0
  193.3490  175.9300  142.0710 C   0  0  0  0  0  2  0  0  0  0  0  0
  195.1100  175.8650  143.5860 C   0  0  0  0  0  2  0  0  0  0  0  0
  195.6930  176.3850  142.2990 C   0  0  0  0  0  2  0  0  0  0  0  0
  190.7640  174.1280  143.8520 O   0  0  0  0  0  0  0  0  0  0  0  0
  190.0820  174.7320  142.7920 C   0  0  0  0  0  2  0  0  0  0  0  0
  188.5930  174.7590  143.0810 C   0  0  0  0  0  2  0  0  0  0  0  0
  187.8540  175.6150  142.0630 C   0  0  1  0  0  3  0  0  0  0  0  0
  186.8700  176.4760  142.7240 C   0  0  0  0  0  0  0  0  0  0  0  0
  185.8530  176.0770  143.3500 O   0  0  0  0  0  0  0  0  0  0  0  0
  188.7690  176.4910  141.4370 O   0  0  0  0  0  0  0  0  0  0  0  0
  187.1790  177.8230  142.5470 N   0  0  0  0  0  0  0  0  0  0  0  0
  188.4180  177.8260  141.7910 C   0  0  0  0  0  3  0  0  0  0  0  0
  1  7  1  6  0  0  0
  1  3  1  0  0  0  0
  2 16  1  1  0  0  0
  2  5  1  0  0  0  0
  2  6  1  0  0  0  0
  4  3  2  0  0  0  0
  5 21  1  1  0  0  0
  5  1  1  0  0  0  0
  6  4  1  0  0  0  0
  7 14  1  0  0  0  0
 10  8  1  0  0  0  0
 10 15  1  0  0  0  0
 11 13  1  0  0  0  0
 11  7  2  0  0  0  0
 12 11  1  0  0  0  0
 13 10  2  0  0  0  0
 14 15  1  0  0  0  0
 14  9  2  0  0  0  0
 16 19  1  0  0  0  0
 17 18  1  0  0  0  0
 17 20  1  0  0  0  0
 18 16  1  0  0  0  0
 20 19  1  0  0  0  0
 22 23  1  0  0  0  0
 22 21  1  0  0  0  0
 24 25  1  0  0  0  0
 24 23  1  1  0  0  0
 25 26  2  0  0  0  0
 27 29  1  0  0  0  0
 27 24  1  0  0  0  0
 28 25  1  0  0  0  0
 29 28  2  0  0  0  0
M  END
>  <MODEL>
2

>  <REMARK>
 VINA RESULT:      -6.8      2.848      5.241
  Name = 
  6 active torsions:
  status: ('A' for Active; 'I' for Inactive)
    1  A    between atoms: C_1  and  C_4
    2  A    between atoms: C_2  and  C_18
    3  A    between atoms: C_2  and  O_20
    4  A    between atoms: N_3  and  C_11
    5  A    between atoms: C_15  and  C_18
    6  A    between atoms: O_20  and  C_26
                            x       y       z     vdW  Elec       q    Type
                         _______ _______ _______ _____ _____    ______ ____

>  <TORSDO>
F 6

$$$$
=
 OpenBabel11062422573D

 29 32  0  0  1  0  0  0  0  0999 V2000
  191.2990  176.1280  145.2700 C   0  0  2  0  0  3  0  0  0  0  0  0
  189.2140  177.4130  146.1540 C   0  0  2  0  0  3  0  0  0  0  0  0
  191.3220  175.5460  146.5970 N   0  0  0  0  0  0  0  0  0  0  0  0
  190.8040  176.1680  147.5990 C   0  0  0  0  0  3  0  0  0  0  0  0
  189.9360  176.7720  144.9350 C   0  0  1  0  0  3  0  0  0  0  0  0
  190.1380  177.4930  147.3850 C   0  0  0  0  0  2  0  0  0  0  0  0
  191.7190  175.1180  144.2360 C   0  0  0  0  0  0  0  0  0  0  0  0
  192.9700  172.3430  141.3630 N   0  0  0  0  0  1  0  0  0  0  0  0
  193.4820  176.4450  143.5380 O   0  0  0  0  0  0  0  0  0  0  0  0
  192.5420  173.2880  142.3380 C   0  0  0  0  0  0  0  0  0  0  0  0
  191.0320  173.9030  144.0510 C   0  0  0  0  0  0  0  0  0  0  0  0
  189.8940  173.5760  144.8460 N   0  0  0  0  0  1  0  0  0  0  0  0
  191.4570  173.0230  143.1080 N   0  0  0  0  0  0  0  0  0  0  0  0
  192.8340  175.3700  143.4220 C   0  0  0  0  0  0  0  0  0  0  0  0
  193.2210  174.4520  142.4980 N   0  0  0  0  0  2  0  0  0  0  0  0
  187.9710  176.6910  146.4760 N   0  0  0  0  0  0  0  0  0  0  0  0
  185.7880  176.8420  145.4270 C   0  0  0  0  0  2  0  0  0  0  0  0
  187.2330  176.4220  145.2390 C   0  0  0  0  0  2  0  0  0  0  0  0
  187.1050  177.5730  147.2550 C   0  0  0  0  0  2  0  0  0  0  0  0
  185.6830  177.2650  146.8650 C   0  0  0  0  0  2  0  0  0  0  0  0
  190.1010  177.7320  143.9350 O   0  0  0  0  0  0  0  0  0  0  0  0
  189.6100  177.1320  142.7720 C   0  0  0  0  0  2  0  0  0  0  0  0
  188.6130  178.0530  142.0940 C   0  0  0  0  0  2  0  0  0  0  0  0
  187.3050  177.3280  141.8090 C   0  0  1  0  0  3  0  0  0  0  0  0
  186.1900  178.2750  141.7410 C   0  0  0  0  0  0  0  0  0  0  0  0
  185.7670  178.9760  142.6980 O   0  0  0  0  0  0  0  0  0  0  0  0
  187.3740  176.7270  140.5320 O   0  0  0  0  0  0  0  0  0  0  0  0
  185.6160  178.2880  140.4710 N   0  0  0  0  0  0  0  0  0  0  0  0
  186.4110  177.3570  139.6910 C   0  0  0  0  0  3  0  0  0  0  0  0
  1  7  1  6  0  0  0
  1  3  1  0  0  0  0
  2 16  1  1  0  0  0
  2  6  1  0  0  0  0
  3  4  2  0  0  0  0
  5 21  1  6  0  0  0
  5  1  1  0  0  0  0
  5  2  1  0  0  0  0
  6  4  1  0  0  0  0
  8 10  1  0  0  0  0
 10 15  1  0  0  0  0
 10 13  2  0  0  0  0
 11  7  2  0  0  0  0
 11 12  1  0  0  0  0
 13 11  1  0  0  0  0
 14  9  2  0  0  0  0
 14  7  1  0  0  0  0
 15 14  1  0  0  0  0
 16 19  1  0  0  0  0
 17 20  1  0  0  0  0
 18 17  1  0  0  0  0
 18 16  1  0  0  0  0
 20 19  1  0  0  0  0
 22 21  1  0  0  0  0
 23 22  1  0  0  0  0
 24 23  1  6  0  0  0
 25 24  1  0  0  0  0
 25 26  2  0  0  0  0
 27 24  1  0  0  0  0
 28 25  1  0  0  0  0
 29 28  2  0  0  0  0
 29 27  1  0  0  0  0
M  END
>  <MODEL>
3

>  <REMARK>
 VINA RESULT:      -6.8      2.515      6.054
  Name = 
  6 active torsions:
  status: ('A' for Active; 'I' for Inactive)
    1  A    between atoms: C_1  and  C_4
    2  A    between atoms: C_2  and  C_18
    3  A    between atoms: C_2  and  O_20
    4  A    between atoms: N_3  and  C_11
    5  A    between atoms: C_15  and  C_18
    6  A    between atoms: O_20  and  C_26
                            x       y       z     vdW  Elec       q    Type
                         _______ _______ _______ _____ _____    ______ ____

>  <TORSDO>
F 6

$$$$
=
 OpenBabel11062422573D

 29 32  0  0  1  0  0  0  0  0999 V2000
  190.1720  174.9480  143.3910 C   0  0  2  0  0  3  0  0  0  0  0  0
  187.8620  175.6070  142.3830 C   0  0  2  0  0  3  0  0  0  0  0  0
  190.5580  174.7600  142.0060 N   0  0  0  0  0  0  0  0  0  0  0  0
  189.6760  174.4910  141.1060 C   0  0  0  0  0  3  0  0  0  0  0  0
  188.8920  175.8020  143.5310 C   0  0  1  0  0  3  0  0  0  0  0  0
  188.2300  174.4070  141.4870 C   0  0  0  0  0  2  0  0  0  0  0  0
  191.3170  175.5040  144.1940 C   0  0  0  0  0  0  0  0  0  0  0  0
  194.5280  176.9640  146.4450 N   0  0  0  0  0  1  0  0  0  0  0  0
  191.5240  173.5430  145.4060 O   0  0  0  0  0  0  0  0  0  0  0  0
  193.4340  176.4690  145.6820 C   0  0  0  0  0  0  0  0  0  0  0  0
  191.8130  176.8060  143.9930 C   0  0  0  0  0  0  0  0  0  0  0  0
  191.2420  177.6630  143.0070 N   0  0  0  0  0  1  0  0  0  0  0  0
  192.8530  177.2560  144.7410 N   0  0  0  0  0  0  0  0  0  0  0  0
  191.9320  174.7140  145.1770 C   0  0  0  0  0  0  0  0  0  0  0  0
  192.9730  175.2100  145.8930 N   0  0  0  0  0  2  0  0  0  0  0  0
  187.7170  176.8350  141.5840 N   0  0  0  0  0  0  0  0  0  0  0  0
  185.7470  178.2000  141.2020 C   0  0  0  0  0  2  0  0  0  0  0  0
  186.7510  177.7240  142.2340 C   0  0  0  0  0  2  0  0  0  0  0  0
  187.1150  176.4910  140.2980 C   0  0  0  0  0  2  0  0  0  0  0  0
  186.2300  177.6400  139.8940 C   0  0  0  0  0  2  0  0  0  0  0  0
  188.2790  175.5340  144.7570 O   0  0  0  0  0  0  0  0  0  0  0  0
  188.0830  176.7860  145.3460 C   0  0  0  0  0  2  0  0  0  0  0  0
  187.8710  176.6290  146.8400 C   0  0  0  0  0  2  0  0  0  0  0  0
  186.4410  176.9730  147.2280 C   0  0  1  0  0  3  0  0  0  0  0  0
  186.2940  178.4130  147.4510 C   0  0  0  0  0  0  0  0  0  0  0  0
  186.8590  179.0730  148.3630 O   0  0  0  0  0  0  0  0  0  0  0  0
  185.5770  176.6630  146.1530 O   0  0  0  0  0  0  0  0  0  0  0  0
  185.4100  178.9780  146.5350 N   0  0  0  0  0  0  0  0  0  0  0  0
  185.0110  177.8800  145.6730 C   0  0  0  0  0  3  0  0  0  0  0  0
  1  5  1  0  0  0  0
  1  7  1  1  0  0  0
  2  6  1  6  0  0  0
  2  5  1  0  0  0  0
  3  1  1  0  0  0  0
  4  6  1  0  0  0  0
  4  3  2  0  0  0  0
  5 21  1  1  0  0  0
  7 14  1  0  0  0  0
 10 15  1  0  0  0  0
 10  8  1  0  0  0  0
 11  7  2  0  0  0  0
 11 13  1  0  0  0  0
 12 11  1  0  0  0  0
 13 10  2  0  0  0  0
 14  9  2  0  0  0  0
 14 15  1  0  0  0  0
 16 18  1  0  0  0  0
 16  2  1  0  0  0  0
 17 18  1  0  0  0  0
 19 16  1  0  0  0  0
 20 19  1  0  0  0  0
 20 17  1  0  0  0  0
 21 22  1  0  0  0  0
 22 23  1  0  0  0  0
 24 23  1  6  0  0  0
 24 25  1  0  0  0  0
 25 26  2  0  0  0  0
 27 24  1  0  0  0  0
 28 25  1  0  0  0  0
 29 27  1  0  0  0  0
 29 28  2  0  0  0  0
M  END
>  <MODEL>
4

>  <REMARK>
 VINA RESULT:      -6.8      2.086      5.475
  Name = 
  6 active torsions:
  status: ('A' for Active; 'I' for Inactive)
    1  A    between atoms: C_1  and  C_4
    2  A    between atoms: C_2  and  C_18
    3  A    between atoms: C_2  and  O_20
    4  A    between atoms: N_3  and  C_11
    5  A    between atoms: C_15  and  C_18
    6  A    between atoms: O_20  and  C_26
                            x       y       z     vdW  Elec       q    Type
                         _______ _______ _______ _____ _____    ______ ____

>  <TORSDO>
F 6

$$$$
=
 OpenBabel11062422573D

 29 32  0  0  1  0  0  0  0  0999 V2000
  188.9950  176.5010  146.4380 C   0  0  2  0  0  3  0  0  0  0  0  0
  191.2570  175.2160  146.5590 C   0  0  2  0  0  3  0  0  0  0  0  0
  189.7160  177.5410  147.1470 N   0  0  0  0  0  0  0  0  0  0  0  0
  190.7370  177.2550  147.8780 C   0  0  0  0  0  3  0  0  0  0  0  0
  189.9430  175.4810  145.7710 C   0  0  1  0  0  3  0  0  0  0  0  0
  191.2080  175.8360  147.9700 C   0  0  0  0  0  2  0  0  0  0  0  0
  188.0210  177.0980  145.4580 C   0  0  0  0  0  0  0  0  0  0  0  0
  185.2530  178.7630  142.7990 N   0  0  0  0  0  1  0  0  0  0  0  0
  186.2060  176.4160  146.7220 O   0  0  0  0  0  0  0  0  0  0  0  0
  186.1940  178.1950  143.7010 C   0  0  0  0  0  0  0  0  0  0  0  0
  188.4430  177.7640  144.2910 C   0  0  0  0  0  0  0  0  0  0  0  0
  189.8300  177.9000  143.9870 N   0  0  0  0  0  1  0  0  0  0  0  0
  187.5230  178.2910  143.4440 N   0  0  0  0  0  0  0  0  0  0  0  0
  186.6420  177.0070  145.6970 C   0  0  0  0  0  0  0  0  0  0  0  0
  185.7630  177.5580  144.8200 N   0  0  0  0  0  2  0  0  0  0  0  0
  192.4320  175.6980  145.8130 N   0  0  0  0  0  0  0  0  0  0  0  0
  194.4930  174.5360  145.2720 C   0  0  0  0  0  2  0  0  0  0  0  0
  192.9960  174.5920  145.0340 C   0  0  0  0  0  2  0  0  0  0  0  0
  193.4750  176.0650  146.7680 C   0  0  0  0  0  2  0  0  0  0  0  0
  194.8000  175.7250  146.1380 C   0  0  0  0  0  2  0  0  0  0  0  0
  189.2710  174.2740  145.5670 O   0  0  0  0  0  0  0  0  0  0  0  0
  189.8760  173.7070  144.4420 C   0  0  0  0  0  2  0  0  0  0  0  0
  189.5980  174.5590  143.2190 C   0  0  0  0  0  2  0  0  0  0  0  0
  188.4820  173.9590  142.3760 C   0  0  1  0  0  3  0  0  0  0  0  0
  188.2900  174.7270  141.1430 C   0  0  0  0  0  0  0  0  0  0  0  0
  187.9000  175.9220  141.0800 O   0  0  0  0  0  0  0  0  0  0  0  0
  188.8540  172.6600  141.9630 O   0  0  0  0  0  0  0  0  0  0  0  0
  188.5660  173.9520  140.0190 N   0  0  0  0  0  0  0  0  0  0  0  0
  188.9880  172.6660  140.5450 C   0  0  0  0  0  3  0  0  0  0  0  0
  1  7  1  6  0  0  0
  1  3  1  0  0  0  0
  2 16  1  6  0  0  0
  2  6  1  0  0  0  0
  3  4  2  0  0  0  0
  4  6  1  0  0  0  0
  5 21  1  1  0  0  0
  5  1  1  0  0  0  0
  5  2  1  0  0  0  0
  7 14  1  0  0  0  0
  8 10  1  0  0  0  0
 10 15  1  0  0  0  0
 11  7  2  0  0  0  0
 12 11  1  0  0  0  0
 13 10  2  0  0  0  0
 13 11  1  0  0  0  0
 14  9  2  0  0  0  0
 15 14  1  0  0  0  0
 16 19  1  0  0  0  0
 17 20  1  0  0  0  0
 18 17  1  0  0  0  0
 18 16  1  0  0  0  0
 20 19  1  0  0  0  0
 22 21  1  0  0  0  0
 23 22  1  0  0  0  0
 24 23  1  1  0  0  0
 25 24  1  0  0  0  0
 26 25  2  0  0  0  0
 27 24  1  0  0  0  0
 28 29  2  0  0  0  0
 28 25  1  0  0  0  0
 29 27  1  0  0  0  0
M  END
>  <MODEL>
5

>  <REMARK>
 VINA RESULT:      -6.7      2.593      4.944
  Name = 
  6 active torsions:
  status: ('A' for Active; 'I' for Inactive)
    1  A    between atoms: C_1  and  C_4
    2  A    between atoms: C_2  and  C_18
    3  A    between atoms: C_2  and  O_20
    4  A    between atoms: N_3  and  C_11
    5  A    between atoms: C_15  and  C_18
    6  A    between atoms: O_20  and  C_26
                            x       y       z     vdW  Elec       q    Type
                         _______ _______ _______ _____ _____    ______ ____

>  <TORSDO>
F 6

$$$$
=
 OpenBabel11062422573D

 29 32  0  0  1  0  0  0  0  0999 V2000
  188.9250  175.9580  144.9530 C   0  0  2  0  0  3  0  0  0  0  0  0
  191.4960  175.9140  144.5410 C   0  0  2  0  0  3  0  0  0  0  0  0
  189.1440  174.6490  145.5360 N   0  0  0  0  0  0  0  0  0  0  0  0
  190.1500  173.9280  145.1800 C   0  0  0  0  0  3  0  0  0  0  0  0
  190.2320  176.7710  144.8320 C   0  0  1  0  0  3  0  0  0  0  0  0
  191.1270  174.4620  144.1780 C   0  0  0  0  0  2  0  0  0  0  0  0
  187.8570  176.7060  145.7040 C   0  0  0  0  0  0  0  0  0  0  0  0
  184.8250  178.7320  147.7580 N   0  0  0  0  0  1  0  0  0  0  0  0
  186.2180  176.0170  144.2220 O   0  0  0  0  0  0  0  0  0  0  0  0
  185.8570  178.0460  147.0580 C   0  0  0  0  0  0  0  0  0  0  0  0
  188.1390  177.4560  146.8620 C   0  0  0  0  0  0  0  0  0  0  0  0
  189.4660  177.5370  147.3770 N   0  0  0  0  0  1  0  0  0  0  0  0
  187.1360  178.1060  147.5060 N   0  0  0  0  0  0  0  0  0  0  0  0
  186.5270  176.6650  145.2580 C   0  0  0  0  0  0  0  0  0  0  0  0
  185.5610  177.3290  145.9440 N   0  0  0  0  0  2  0  0  0  0  0  0
  192.4360  175.9500  145.6740 N   0  0  0  0  0  0  0  0  0  0  0  0
  194.7100  176.7930  145.7610 C   0  0  0  0  0  2  0  0  0  0  0  0
  193.2500  177.1660  145.5890 C   0  0  0  0  0  2  0  0  0  0  0  0
  193.3820  174.8450  145.5350 C   0  0  0  0  0  2  0  0  0  0  0  0
  194.7090  175.3210  146.0630 C   0  0  0  0  0  2  0  0  0  0  0  0
  190.0920  177.7450  143.8410 O   0  0  0  0  0  0  0  0  0  0  0  0
  189.6480  177.0520  142.7110 C   0  0  0  0  0  2  0  0  0  0  0  0
  188.7260  177.9340  141.8910 C   0  0  0  0  0  2  0  0  0  0  0  0
  187.3620  177.2840  141.7140 C   0  0  1  0  0  3  0  0  0  0  0  0
  186.3010  178.2930  141.7120 C   0  0  0  0  0  0  0  0  0  0  0  0
  185.9910  179.0290  142.6870 O   0  0  0  0  0  0  0  0  0  0  0  0
  187.3010  176.6640  140.4440 O   0  0  0  0  0  0  0  0  0  0  0  0
  185.6360  178.3250  140.4880 N   0  0  0  0  0  0  0  0  0  0  0  0
  186.3170  177.3410  139.6670 C   0  0  0  0  0  3  0  0  0  0  0  0
  1  3  1  0  0  0  0
  1  7  1  1  0  0  0
  2  6  1  1  0  0  0
  2  5  1  0  0  0  0
  2 16  1  0  0  0  0
  4  3  2  0  0  0  0
  5 21  1  6  0  0  0
  5  1  1  0  0  0  0
  6  4  1  0  0  0  0
  7 11  2  0  0  0  0
  9 14  2  0  0  0  0
 10 13  2  0  0  0  0
 10  8  1  0  0  0  0
 11 12  1  0  0  0  0
 11 13  1  0  0  0  0
 14  7  1  0  0  0  0
 14 15  1  0  0  0  0
 15 10  1  0  0  0  0
 17 20  1  0  0  0  0
 18 16  1  0  0  0  0
 18 17  1  0  0  0  0
 19 16  1  0  0  0  0
 19 20  1  0  0  0  0
 22 21  1  0  0  0  0
 23 22  1  0  0  0  0
 24 23  1  6  0  0  0
 25 24  1  0  0  0  0
 25 26  2  0  0  0  0
 27 24  1  0  0  0  0
 28 25  1  0  0  0  0
 29 27  1  0  0  0  0
 29 28  2  0  0  0  0
M  END
>  <MODEL>
6

>  <REMARK>
 VINA RESULT:      -6.7      2.297      5.028
  Name = 
  6 active torsions:
  status: ('A' for Active; 'I' for Inactive)
    1  A    between atoms: C_1  and  C_4
    2  A    between atoms: C_2  and  C_18
    3  A    between atoms: C_2  and  O_20
    4  A    between atoms: N_3  and  C_11
    5  A    between atoms: C_15  and  C_18
    6  A    between atoms: O_20  and  C_26
                            x       y       z     vdW  Elec       q    Type
                         _______ _______ _______ _____ _____    ______ ____

>  <TORSDO>
F 6

$$$$
=
 OpenBabel11062422573D

 29 32  0  0  1  0  0  0  0  0999 V2000
  188.6120  176.4620  145.1050 C   0  0  2  0  0  3  0  0  0  0  0  0
  190.8220  175.4740  146.0660 C   0  0  2  0  0  3  0  0  0  0  0  0
  188.9850  177.6430  145.8590 N   0  0  0  0  0  0  0  0  0  0  0  0
  189.7460  177.5530  146.8940 C   0  0  0  0  0  3  0  0  0  0  0  0
  189.8040  175.5040  144.8910 C   0  0  1  0  0  3  0  0  0  0  0  0
  190.2820  176.2160  147.3050 C   0  0  0  0  0  2  0  0  0  0  0  0
  187.9480  176.8420  143.8090 C   0  0  0  0  0  0  0  0  0  0  0  0
  186.0250  177.9160  140.2510 N   0  0  0  0  0  1  0  0  0  0  0  0
  185.8440  176.3860  144.6600 O   0  0  0  0  0  0  0  0  0  0  0  0
  186.6800  177.5480  141.4590 C   0  0  0  0  0  0  0  0  0  0  0  0
  188.6820  177.2770  142.6890 C   0  0  0  0  0  0  0  0  0  0  0  0
  190.1030  177.3750  142.7370 N   0  0  0  0  0  1  0  0  0  0  0  0
  188.0320  177.6150  141.5450 N   0  0  0  0  0  0  0  0  0  0  0  0
  186.5510  176.7760  143.6920 C   0  0  0  0  0  0  0  0  0  0  0  0
  185.9510  177.1320  142.5270 N   0  0  0  0  0  2  0  0  0  0  0  0
  192.1270  176.0190  145.6540 N   0  0  0  0  0  0  0  0  0  0  0  0
  194.2790  174.9090  145.4990 C   0  0  0  0  0  2  0  0  0  0  0  0
  192.8760  174.9880  144.9310 C   0  0  0  0  0  2  0  0  0  0  0  0
  192.9170  176.2980  146.8500 C   0  0  0  0  0  2  0  0  0  0  0  0
  194.3580  176.0150  146.5130 C   0  0  0  0  0  2  0  0  0  0  0  0
  189.3340  174.2120  144.6500 O   0  0  0  0  0  0  0  0  0  0  0  0
  189.9630  173.8100  143.4680 C   0  0  0  0  0  2  0  0  0  0  0  0
  188.9300  173.5710  142.3850 C   0  0  0  0  0  2  0  0  0  0  0  0
  189.5360  173.7520  141.0010 C   0  0  1  0  0  3  0  0  0  0  0  0
  189.6890  172.4600  140.3270 C   0  0  0  0  0  0  0  0  0  0  0  0
  190.4470  171.5270  140.7010 O   0  0  0  0  0  0  0  0  0  0  0  0
  188.6460  174.4990  140.1950 O   0  0  0  0  0  0  0  0  0  0  0  0
  188.9040  172.3940  139.1780 N   0  0  0  0  0  0  0  0  0  0  0  0
  188.1950  173.6600  139.1360 C   0  0  0  0  0  3  0  0  0  0  0  0
  1  7  1  6  0  0  0
  1  3  1  0  0  0  0
  2 16  1  6  0  0  0
  2  6  1  0  0  0  0
  3  4  2  0  0  0  0
  4  6  1  0  0  0  0
  5 21  1  1  0  0  0
  5  1  1  0  0  0  0
  5  2  1  0  0  0  0
  8 10  1  0  0  0  0
 10 13  2  0  0  0  0
 10 15  1  0  0  0  0
 11 12  1  0  0  0  0
 11  7  2  0  0  0  0
 13 11  1  0  0  0  0
 14  7  1  0  0  0  0
 14  9  2  0  0  0  0
 15 14  1  0  0  0  0
 16 19  1  0  0  0  0
 17 20  1  0  0  0  0
 18 17  1  0  0  0  0
 18 16  1  0  0  0  0
 20 19  1  0  0  0  0
 22 21  1  0  0  0  0
 23 22  1  0  0  0  0
 24 23  1  1  0  0  0
 25 26  2  0  0  0  0
 25 24  1  0  0  0  0
 27 24  1  0  0  0  0
 28 25  1  0  0  0  0
 29 28  2  0  0  0  0
 29 27  1  0  0  0  0
M  END
>  <MODEL>
7

>  <REMARK>
 VINA RESULT:      -6.7      2.792      5.356
  Name = 
  6 active torsions:
  status: ('A' for Active; 'I' for Inactive)
    1  A    between atoms: C_1  and  C_4
    2  A    between atoms: C_2  and  C_18
    3  A    between atoms: C_2  and  O_20
    4  A    between atoms: N_3  and  C_11
    5  A    between atoms: C_15  and  C_18
    6  A    between atoms: O_20  and  C_26
                            x       y       z     vdW  Elec       q    Type
                         _______ _______ _______ _____ _____    ______ ____

>  <TORSDO>
F 6

$$$$
=
 OpenBabel11062422573D

 29 32  0  0  1  0  0  0  0  0999 V2000
  190.9460  175.8920  145.1880 C   0  0  2  0  0  3  0  0  0  0  0  0
  189.5010  177.4440  146.7000 C   0  0  2  0  0  3  0  0  0  0  0  0
  191.1220  175.1180  146.4010 N   0  0  0  0  0  0  0  0  0  0  0  0
  191.0160  175.6730  147.5590 C   0  0  0  0  0  3  0  0  0  0  0  0
  189.7460  176.8610  145.2800 C   0  0  1  0  0  3  0  0  0  0  0  0
  190.6700  177.1280  147.6540 C   0  0  0  0  0  2  0  0  0  0  0  0
  190.8560  174.9890  143.9870 C   0  0  0  0  0  0  0  0  0  0  0  0
  190.5270  172.4480  140.6780 N   0  0  0  0  0  1  0  0  0  0  0  0
  189.4050  173.5510  145.0760 O   0  0  0  0  0  0  0  0  0  0  0  0
  190.6420  173.3110  141.8040 C   0  0  0  0  0  0  0  0  0  0  0  0
  191.5570  175.2540  142.7940 C   0  0  0  0  0  0  0  0  0  0  0  0
  192.3910  176.4040  142.6750 N   0  0  0  0  0  1  0  0  0  0  0  0
  191.4350  174.4100  141.7380 N   0  0  0  0  0  0  0  0  0  0  0  0
  190.0490  173.8420  144.0310 C   0  0  0  0  0  0  0  0  0  0  0  0
  189.9570  173.0350  142.9430 N   0  0  0  0  0  2  0  0  0  0  0  0
  188.2240  176.9670  147.2580 N   0  0  0  0  0  0  0  0  0  0  0  0
  186.0500  176.7900  146.1930 C   0  0  0  0  0  2  0  0  0  0  0  0
  187.4730  176.2640  146.2150 C   0  0  0  0  0  2  0  0  0  0  0  0
  187.4040  178.1250  147.6060 C   0  0  0  0  0  2  0  0  0  0  0  0
  185.9680  177.7540  147.3430 C   0  0  0  0  0  2  0  0  0  0  0  0
  189.9140  177.9070  144.3700 O   0  0  0  0  0  0  0  0  0  0  0  0
  188.6810  178.0250  143.7210 C   0  0  0  0  0  2  0  0  0  0  0  0
  188.8700  177.8990  142.2220 C   0  0  0  0  0  2  0  0  0  0  0  0
  187.5590  177.5510  141.5330 C   0  0  1  0  0  3  0  0  0  0  0  0
  186.9060  176.4200  142.1960 C   0  0  0  0  0  0  0  0  0  0  0  0
  187.3600  175.2470  142.2550 O   0  0  0  0  0  0  0  0  0  0  0  0
  186.6630  178.6370  141.6590 O   0  0  0  0  0  0  0  0  0  0  0  0
  185.6790  176.7940  142.7400 N   0  0  0  0  0  0  0  0  0  0  0  0
  185.5610  178.2130  142.4570 C   0  0  0  0  0  3  0  0  0  0  0  0
  1  7  1  6  0  0  0
  1  5  1  0  0  0  0
  1  3  1  0  0  0  0
  2 16  1  1  0  0  0
  2  6  1  0  0  0  0
  3  4  2  0  0  0  0
  4  6  1  0  0  0  0
  5 21  1  6  0  0  0
  5  2  1  0  0  0  0
  7 14  1  0  0  0  0
  8 10  1  0  0  0  0
 10 15  1  0  0  0  0
 11  7  2  0  0  0  0
 12 11  1  0  0  0  0
 13 10  2  0  0  0  0
 13 11  1  0  0  0  0
 14  9  2  0  0  0  0
 15 14  1  0  0  0  0
 16 19  1  0  0  0  0
 17 18  1  0  0  0  0
 17 20  1  0  0  0  0
 18 16  1  0  0  0  0
 20 19  1  0  0  0  0
 22 21  1  0  0  0  0
 23 22  1  0  0  0  0
 24 27  1  0  0  0  0
 24 25  1  0  0  0  0
 24 23  1  1  0  0  0
 25 26  2  0  0  0  0
 25 28  1  0  0  0  0
 27 29  1  0  0  0  0
 29 28  2  0  0  0  0
M  END
>  <MODEL>
8

>  <REMARK>
 VINA RESULT:      -6.6      2.382      5.530
  Name = 
  6 active torsions:
  status: ('A' for Active; 'I' for Inactive)
    1  A    between atoms: C_1  and  C_4
    2  A    between atoms: C_2  and  C_18
    3  A    between atoms: C_2  and  O_20
    4  A    between atoms: N_3  and  C_11
    5  A    between atoms: C_15  and  C_18
    6  A    between atoms: O_20  and  C_26
                            x       y       z     vdW  Elec       q    Type
                         _______ _______ _______ _____ _____    ______ ____

>  <TORSDO>
F 6

$$$$
=
 OpenBabel11062422573D

 29 32  0  0  1  0  0  0  0  0999 V2000
  189.1080  175.8510  142.9930 C   0  0  2  0  0  3  0  0  0  0  0  0
  187.2140  176.5040  144.6560 C   0  0  2  0  0  3  0  0  0  0  0  0
  188.4240  176.7540  142.0880 N   0  0  0  0  0  0  0  0  0  0  0  0
  187.1660  176.9960  142.2230 C   0  0  0  0  0  3  0  0  0  0  0  0
  188.6950  176.0720  144.4650 C   0  0  1  0  0  3  0  0  0  0  0  0
  186.4070  176.3650  143.3500 C   0  0  0  0  0  2  0  0  0  0  0  0
  190.5990  175.9320  142.8030 C   0  0  0  0  0  0  0  0  0  0  0  0
  194.7390  176.0880  142.2150 N   0  0  0  0  0  1  0  0  0  0  0  0
  190.7070  173.7360  142.0770 O   0  0  0  0  0  0  0  0  0  0  0  0
  193.3320  176.0340  142.4180 C   0  0  0  0  0  0  0  0  0  0  0  0
  191.3290  177.1040  143.0770 C   0  0  0  0  0  0  0  0  0  0  0  0
  190.6760  178.2790  143.5530 N   0  0  0  0  0  1  0  0  0  0  0  0
  192.6720  177.1250  142.8810 N   0  0  0  0  0  0  0  0  0  0  0  0
  191.3070  174.8160  142.3310 C   0  0  0  0  0  0  0  0  0  0  0  0
  192.6500  174.8920  142.1460 N   0  0  0  0  0  2  0  0  0  0  0  0
  187.1230  177.8750  145.1870 N   0  0  0  0  0  0  0  0  0  0  0  0
  185.7630  178.7350  147.0040 C   0  0  0  0  0  2  0  0  0  0  0  0
  186.9150  177.8190  146.6370 C   0  0  0  0  0  2  0  0  0  0  0  0
  185.9200  178.5070  144.6520 C   0  0  0  0  0  2  0  0  0  0  0  0
  185.3760  179.4160  145.7220 C   0  0  0  0  0  2  0  0  0  0  0  0
  188.9420  174.9130  145.2030 O   0  0  0  0  0  0  0  0  0  0  0  0
  189.2480  175.3610  146.4910 C   0  0  0  0  0  2  0  0  0  0  0  0
  190.4130  176.3310  146.4390 C   0  0  0  0  0  2  0  0  0  0  0  0
  191.6500  175.7370  147.0950 C   0  0  1  0  0  3  0  0  0  0  0  0
  192.4830  175.0460  146.1070 C   0  0  0  0  0  0  0  0  0  0  0  0
  192.1480  174.0190  145.4610 O   0  0  0  0  0  0  0  0  0  0  0  0
  192.4530  176.7810  147.6090 O   0  0  0  0  0  0  0  0  0  0  0  0
  193.7300  175.6540  145.9860 N   0  0  0  0  0  0  0  0  0  0  0  0
  193.6820  176.7910  146.8880 C   0  0  0  0  0  3  0  0  0  0  0  0
  1  7  1  1  0  0  0
  1  5  1  0  0  0  0
  2  6  1  6  0  0  0
  2 16  1  0  0  0  0
  3  4  2  0  0  0  0
  3  1  1  0  0  0  0
  4  6  1  0  0  0  0
  5  2  1  0  0  0  0
  5 21  1  1  0  0  0
  7 11  2  0  0  0  0
  8 10  1  0  0  0  0
  9 14  2  0  0  0  0
 10 13  2  0  0  0  0
 11 12  1  0  0  0  0
 13 11  1  0  0  0  0
 14  7  1  0  0  0  0
 15 14  1  0  0  0  0
 15 10  1  0  0  0  0
 16 18  1  0  0  0  0
 18 17  1  0  0  0  0
 19 16  1  0  0  0  0
 19 20  1  0  0  0  0
 20 17  1  0  0  0  0
 21 22  1  0  0  0  0
 23 22  1  0  0  0  0
 24 23  1  6  0  0  0
 24 27  1  0  0  0  0
 25 24  1  0  0  0  0
 26 25  2  0  0  0  0
 28 25  1  0  0  0  0
 28 29  2  0  0  0  0
 29 27  1  0  0  0  0
M  END
>  <MODEL>
9

>  <REMARK>
 VINA RESULT:      -6.6      2.752      6.386
  Name = 
  6 active torsions:
  status: ('A' for Active; 'I' for Inactive)
    1  A    between atoms: C_1  and  C_4
    2  A    between atoms: C_2  and  C_18
    3  A    between atoms: C_2  and  O_20
    4  A    between atoms: N_3  and  C_11
    5  A    between atoms: C_15  and  C_18
    6  A    between atoms: O_20  and  C_26
                            x       y       z     vdW  Elec       q    Type
                         _______ _______ _______ _____ _____    ______ ____

>  <TORSDO>
F 6

$$$$
