=
 OpenBabel11062419193D

 50 55  0  0  1  0  0  0  0  0999 V2000
  190.9140  175.2490  145.1260 N   0  0  0  0  0  2  0  0  0  0  0  0
  193.2210  170.9220  144.0960 C   0  0  0  0  0  3  0  0  0  0  0  0
  192.4140  172.9280  141.5650 O   0  0  0  0  0  0  0  0  0  0  0  0
  189.5860  173.4720  140.8600 C   0  0  0  0  0  3  0  0  0  0  0  0
  191.5000  173.4460  142.5480 C   0  0  2  0  0  3  0  0  0  0  0  0
  192.0570  171.3900  143.8040 N   0  0  0  0  0  0  0  0  0  0  0  0
  192.7360  173.6300  144.7700 C   0  0  2  0  0  3  0  0  0  0  0  0
  190.7670  170.7270  138.9680 C   0  0  1  0  0  3  0  0  0  0  0  0
  191.7170  172.8000  143.9320 C   0  0  1  0  0  3  0  0  0  0  0  0
  189.6900  174.9670  145.8700 C   0  0  2  0  0  3  0  0  0  0  0  0
  194.2950  171.8460  144.5640 C   0  0  0  0  0  2  0  0  0  0  0  0
  190.3650  168.4220  139.4790 O   0  0  0  0  0  0  0  0  0  0  0  0
  193.6860  172.7850  145.5000 N   0  0  0  0  0  2  0  0  0  0  0  0
  191.0540  169.4530  139.7050 C   0  0  0  0  0  0  0  0  0  0  0  0
  190.4450  173.2080  139.6580 C   0  0  0  0  0  2  0  0  0  0  0  0
  190.0280  173.5470  142.1310 C   0  0  0  0  0  0  0  0  0  0  0  0
  189.4960  173.5900  146.0260 O   0  0  0  0  0  1  0  0  0  0  0  0
  192.1240  171.8270  140.7440 C   0  0  0  0  0  0  0  0  0  0  0  0
  188.4670  175.5710  145.1700 C   0  0  2  0  0  3  0  0  0  0  0  0
  192.0560  169.4290  140.6760 O   0  0  0  0  0  0  0  0  0  0  0  0
  188.5450  175.5430  143.3300 S   0  0  0  0  0  0  0  0  0  0  0  0
  192.0360  174.5650  145.7550 C   0  0  1  0  0  3  0  0  0  0  0  0
  192.9040  170.5560  140.8940 C   0  0  0  0  0  2  0  0  0  0  0  0
  188.9870  173.7760  143.1890 C   0  0  0  0  0  2  0  0  0  0  0  0
  191.1640  171.9180  139.8180 C   0  0  0  0  0  0  0  0  0  0  0  0
  191.4540  170.7320  137.5910 C   0  0  0  0  0  0  0  0  0  0  0  0
  190.5550  170.3440  136.4260 C   0  0  0  0  0  2  0  0  0  0  0  0
  190.9510  171.7940  136.6360 C   0  0  0  0  0  2  0  0  0  0  0  0
  193.8630  171.4390  137.1510 C   0  0  0  0  0  0  0  0  0  0  0  0
  194.1160  169.8550  135.5370 C   0  0  0  0  0  0  0  0  0  0  0  0
  194.5220  169.1740  134.5130 N   0  0  0  0  0  2  0  0  0  0  0  0
  194.6280  171.2060  135.8830 C   0  0  2  0  0  3  0  0  0  0  0  0
  192.9330  170.3040  137.4760 C   0  0  2  0  0  3  0  0  0  0  0  0
  193.9540  172.4560  137.8160 O   0  0  0  0  0  0  0  0  0  0  0  0
  193.1500  169.3800  136.4160 O   0  0  0  0  0  0  0  0  0  0  0  0
  195.9980  171.1450  136.1490 O   0  0  0  0  0  0  0  0  0  0  0  0
  196.5550  172.1630  135.3810 C   0  0  0  0  0  1  0  0  0  0  0  0
  188.2120  176.9620  145.6360 C   0  0  0  0  0  0  0  0  0  0  0  0
  187.5720  177.1810  146.9040 N   0  0  0  0  0  2  0  0  0  0  0  0
  188.4390  177.9270  144.8590 O   0  0  0  0  0  0  0  0  0  0  0  0
  186.9570  178.4640  147.2610 C   0  0  0  0  0  2  0  0  0  0  0  0
  185.4950  178.2620  147.6400 C   0  0  0  0  0  2  0  0  0  0  0  0
  184.7500  177.6340  146.4750 C   0  0  0  0  0  2  0  0  0  0  0  0
  184.2170  178.7310  145.5710 C   0  0  0  0  0  2  0  0  0  0  0  0
  184.6160  178.4650  144.1280 C   0  0  1  0  0  3  0  0  0  0  0  0
  185.5420  179.5550  143.6200 C   0  0  0  0  0  1  0  0  0  0  0  0
  185.2510  177.2290  144.0210 O   0  0  0  0  0  1  0  0  0  0  0  0
  192.9990  175.6020  146.3080 C   0  0  0  0  0  2  0  0  0  0  0  0
  195.1670  176.5090  145.1600 C   0  0  0  0  0  1  0  0  0  0  0  0
  193.3890  176.8140  145.0080 S   0  0  0  0  0  0  0  0  0  0  0  0
  1 22  1  0  0  0  0
  1 10  1  0  0  0  0
  2 11  1  0  0  0  0
  4 16  2  0  0  0  0
  5  3  1  6  0  0  0
  5  9  1  0  0  0  0
  6  2  2  0  0  0  0
  7 13  1  1  0  0  0
  7 22  1  0  0  0  0
  8 26  1  6  0  0  0
  8 14  1  0  0  0  0
  8 25  1  0  0  0  0
  9  6  1  6  0  0  0
  9  7  1  0  0  0  0
 10 17  1  6  0  0  0
 11 13  1  0  0  0  0
 12 14  2  0  0  0  0
 14 20  1  0  0  0  0
 15 25  1  0  0  0  0
 15  4  1  0  0  0  0
 16  5  1  0  0  0  0
 16 24  1  0  0  0  0
 18 23  1  0  0  0  0
 18  3  1  0  0  0  0
 19 38  1  1  0  0  0
 19 10  1  0  0  0  0
 20 23  1  0  0  0  0
 21 19  1  0  0  0  0
 22 48  1  6  0  0  0
 24 21  1  0  0  0  0
 25 18  2  0  0  0  0
 27 28  1  0  0  0  0
 27 26  1  0  0  0  0
 28 26  1  0  0  0  0
 29 33  1  0  0  0  0
 29 34  2  0  0  0  0
 30 32  1  0  0  0  0
 30 35  1  0  0  0  0
 31 30  2  0  0  0  0
 32 36  1  1  0  0  0
 32 29  1  0  0  0  0
 33 26  1  6  0  0  0
 35 33  1  0  0  0  0
 37 36  1  0  0  0  0
 38 39  1  0  0  0  0
 39 41  1  0  0  0  0
 40 38  2  0  0  0  0
 41 42  1  0  0  0  0
 43 42  1  0  0  0  0
 44 43  1  0  0  0  0
 45 46  1  1  0  0  0
 45 44  1  0  0  0  0
 47 45  1  0  0  0  0
 50 49  1  0  0  0  0
 50 48  1  0  0  0  0
M  END
>  <MODEL>
1

>  <REMARK>
 VINA RESULT:      -6.6      0.000      0.000
  Name = 
  11 active torsions:
  status: ('A' for Active; 'I' for Inactive)
    1  A    between atoms: C_4  and  C_32
    2  A    between atoms: C_4  and  N_45
    3  A    between atoms: C_5  and  C_16
    4  A    between atoms: C_5  and  C_39
    5  A    between atoms: O_8  and  C_21
    6  A    between atoms: C_12  and  C_30
    7  A    between atoms: C_12  and  C_32
    8  A    between atoms: C_15  and  C_38
    9  A    between atoms: C_25  and  C_30
   10  A    between atoms: S_34  and  C_44
   11  A    between atoms: C_42  and  C_44
                            x       y       z     vdW  Elec       q    Type
                         _______ _______ _______ _____ _____    ______ ____

>  <TORSDO>
F 11

$$$$
=
 OpenBabel11062419193D

 50 55  0  0  1  0  0  0  0  0999 V2000
  186.7060  177.2780  144.1100 N   0  0  0  0  0  2  0  0  0  0  0  0
  189.5220  174.2130  146.9000 C   0  0  0  0  0  3  0  0  0  0  0  0
  191.0310  176.6540  145.2140 O   0  0  0  0  0  0  0  0  0  0  0  0
  191.1000  176.6780  142.2500 C   0  0  0  0  0  3  0  0  0  0  0  0
  189.8130  176.5910  144.4520 C   0  0  2  0  0  3  0  0  0  0  0  0
  189.4640  174.4470  145.6350 N   0  0  0  0  0  0  0  0  0  0  0  0
  187.8640  176.3590  146.0800 C   0  0  2  0  0  3  0  0  0  0  0  0
  193.9910  175.0570  143.4830 C   0  0  1  0  0  3  0  0  0  0  0  0
  188.7950  175.6130  145.0760 C   0  0  1  0  0  3  0  0  0  0  0  0
  185.9510  176.4810  143.1470 C   0  0  2  0  0  3  0  0  0  0  0  0
  188.9070  175.1750  147.8600 C   0  0  0  0  0  2  0  0  0  0  0  0
  194.2870  172.6850  143.6320 O   0  0  0  0  0  0  0  0  0  0  0  0
  187.6230  175.5870  147.3040 N   0  0  0  0  0  2  0  0  0  0  0  0
  193.8050  173.7280  144.1510 C   0  0  0  0  0  0  0  0  0  0  0  0
  192.4230  177.0310  142.8650 C   0  0  0  0  0  2  0  0  0  0  0  0
  189.9590  176.4530  142.9320 C   0  0  0  0  0  0  0  0  0  0  0  0
  186.2730  175.1240  143.2480 O   0  0  0  0  0  1  0  0  0  0  0  0
  192.1440  175.8350  144.9630 C   0  0  0  0  0  0  0  0  0  0  0  0
  186.2140  176.9550  141.7130 C   0  0  2  0  0  3  0  0  0  0  0  0
  193.0550  173.6440  145.3250 O   0  0  0  0  0  0  0  0  0  0  0  0
  187.9340  177.5340  141.3990 S   0  0  0  0  0  0  0  0  0  0  0  0
  186.5240  176.7290  145.4470 C   0  0  1  0  0  3  0  0  0  0  0  0
  192.5670  174.8160  145.9770 C   0  0  0  0  0  2  0  0  0  0  0  0
  188.7570  176.0690  142.1190 C   0  0  0  0  0  2  0  0  0  0  0  0
  192.8340  175.9760  143.8270 C   0  0  0  0  0  0  0  0  0  0  0  0
  195.3560  175.6680  143.8460 C   0  0  0  0  0  0  0  0  0  0  0  0
  195.2930  176.8550  144.7960 C   0  0  0  0  0  2  0  0  0  0  0  0
  195.7600  175.4990  145.2960 C   0  0  0  0  0  2  0  0  0  0  0  0
  195.9870  176.0110  141.4000 C   0  0  0  0  0  0  0  0  0  0  0  0
  197.0860  174.0200  141.3220 C   0  0  0  0  0  0  0  0  0  0  0  0
  197.6500  172.9250  140.9270 N   0  0  0  0  0  2  0  0  0  0  0  0
  196.3300  174.9280  140.4220 C   0  0  2  0  0  3  0  0  0  0  0  0
  196.4790  175.7080  142.7870 C   0  0  2  0  0  3  0  0  0  0  0  0
  195.3420  177.0040  141.1090 O   0  0  0  0  0  0  0  0  0  0  0  0
  197.1330  174.4530  142.6430 O   0  0  0  0  0  0  0  0  0  0  0  0
  197.1730  175.4250  139.4260 O   0  0  0  0  0  0  0  0  0  0  0  0
  196.5280  175.1210  138.2300 C   0  0  0  0  0  1  0  0  0  0  0  0
  185.2510  178.0180  141.3120 C   0  0  0  0  0  0  0  0  0  0  0  0
  183.9920  178.1320  141.9970 N   0  0  0  0  0  2  0  0  0  0  0  0
  185.4910  178.7190  140.2940 O   0  0  0  0  0  0  0  0  0  0  0  0
  182.8600  178.8790  141.4370 C   0  0  0  0  0  2  0  0  0  0  0  0
  182.0750  178.0020  140.4700 C   0  0  0  0  0  2  0  0  0  0  0  0
  180.5920  178.2930  140.6110 C   0  0  0  0  0  2  0  0  0  0  0  0
  180.3450  179.0200  141.9200 C   0  0  0  0  0  2  0  0  0  0  0  0
  179.0040  178.6080  142.5080 C   0  0  1  0  0  3  0  0  0  0  0  0
  177.8770  179.4020  141.8750 C   0  0  0  0  0  1  0  0  0  0  0  0
  178.7850  177.2470  142.3060 O   0  0  0  0  0  1  0  0  0  0  0  0
  185.7750  177.7400  146.2990 C   0  0  0  0  0  2  0  0  0  0  0  0
  183.7460  179.0710  145.3230 C   0  0  0  0  0  1  0  0  0  0  0  0
  185.5440  179.2740  145.3470 S   0  0  0  0  0  0  0  0  0  0  0  0
  1 22  1  0  0  0  0
  2 11  1  0  0  0  0
  4 15  1  0  0  0  0
  4 16  2  0  0  0  0
  5 16  1  6  0  0  0
  5  9  1  0  0  0  0
  5  3  1  0  0  0  0
  6  2  2  0  0  0  0
  7 13  1  1  0  0  0
  8 25  1  0  0  0  0
  8 26  1  1  0  0  0
  8 14  1  0  0  0  0
  9  6  1  1  0  0  0
  9  7  1  0  0  0  0
 10 17  1  6  0  0  0
 10  1  1  0  0  0  0
 12 14  2  0  0  0  0
 13 11  1  0  0  0  0
 14 20  1  0  0  0  0
 15 25  1  0  0  0  0
 18  3  1  0  0  0  0
 18 23  1  0  0  0  0
 19 38  1  1  0  0  0
 19 10  1  0  0  0  0
 20 23  1  0  0  0  0
 21 19  1  0  0  0  0
 21 24  1  0  0  0  0
 22  7  1  0  0  0  0
 22 48  1  1  0  0  0
 24 16  1  0  0  0  0
 25 18  2  0  0  0  0
 26 27  1  0  0  0  0
 26 28  1  0  0  0  0
 27 28  1  0  0  0  0
 29 33  1  0  0  0  0
 30 35  1  0  0  0  0
 31 30  2  0  0  0  0
 32 36  1  6  0  0  0
 32 30  1  0  0  0  0
 32 29  1  0  0  0  0
 33 26  1  1  0  0  0
 34 29  2  0  0  0  0
 35 33  1  0  0  0  0
 37 36  1  0  0  0  0
 38 39  1  0  0  0  0
 40 38  2  0  0  0  0
 41 39  1  0  0  0  0
 42 43  1  0  0  0  0
 42 41  1  0  0  0  0
 43 44  1  0  0  0  0
 44 45  1  0  0  0  0
 45 46  1  6  0  0  0
 47 45  1  0  0  0  0
 49 50  1  0  0  0  0
 50 48  1  0  0  0  0
M  END
>  <MODEL>
2

>  <REMARK>
 VINA RESULT:      -6.3      4.293      6.618
  Name = 
  11 active torsions:
  status: ('A' for Active; 'I' for Inactive)
    1  A    between atoms: C_4  and  C_32
    2  A    between atoms: C_4  and  N_45
    3  A    between atoms: C_5  and  C_16
    4  A    between atoms: C_5  and  C_39
    5  A    between atoms: O_8  and  C_21
    6  A    between atoms: C_12  and  C_30
    7  A    between atoms: C_12  and  C_32
    8  A    between atoms: C_15  and  C_38
    9  A    between atoms: C_25  and  C_30
   10  A    between atoms: S_34  and  C_44
   11  A    between atoms: C_42  and  C_44
                            x       y       z     vdW  Elec       q    Type
                         _______ _______ _______ _____ _____    ______ ____

>  <TORSDO>
F 11

$$$$
=
 OpenBabel11062419193D

 50 55  0  0  1  0  0  0  0  0999 V2000
  193.9180  170.9130  141.6600 N   0  0  0  0  0  2  0  0  0  0  0  0
  194.7280  174.7980  144.7190 C   0  0  0  0  0  3  0  0  0  0  0  0
  191.6690  173.4920  144.5930 O   0  0  0  0  0  0  0  0  0  0  0  0
  190.0080  173.6700  142.1440 C   0  0  0  0  0  3  0  0  0  0  0  0
  192.1620  173.0000  143.3350 C   0  0  2  0  0  3  0  0  0  0  0  0
  193.9850  174.6360  143.6800 N   0  0  0  0  0  0  0  0  0  0  0  0
  194.5470  172.1670  143.6850 C   0  0  2  0  0  3  0  0  0  0  0  0
  189.2950  176.4170  144.2530 C   0  0  1  0  0  3  0  0  0  0  0  0
  193.6570  173.3250  143.1380 C   0  0  1  0  0  3  0  0  0  0  0  0
  194.2880  171.2960  140.3010 C   0  0  2  0  0  3  0  0  0  0  0  0
  195.2720  173.6060  145.4340 C   0  0  0  0  0  2  0  0  0  0  0  0
  190.1920  178.6230  144.0000 O   0  0  0  0  0  0  0  0  0  0  0  0
  195.7180  172.6550  144.4210 N   0  0  0  0  0  2  0  0  0  0  0  0
  190.3670  177.4510  144.4270 C   0  0  0  0  0  0  0  0  0  0  0  0
  189.2340  173.9690  143.3940 C   0  0  0  0  0  2  0  0  0  0  0  0
  191.2960  173.2760  142.1010 C   0  0  0  0  0  0  0  0  0  0  0  0
  194.7010  172.6320  140.2440 O   0  0  0  0  0  1  0  0  0  0  0  0
  191.0870  174.7610  144.7520 C   0  0  0  0  0  0  0  0  0  0  0  0
  193.1180  171.0900  139.3310 C   0  0  2  0  0  3  0  0  0  0  0  0
  191.5790  177.0940  145.0220 O   0  0  0  0  0  0  0  0  0  0  0  0
  191.4570  171.4360  140.0480 S   0  0  0  0  0  0  0  0  0  0  0  0
  195.0100  171.2300  142.5710 C   0  0  1  0  0  3  0  0  0  0  0  0
  191.7730  175.7980  145.5880 C   0  0  0  0  0  2  0  0  0  0  0  0
  191.8890  173.0730  140.7370 C   0  0  0  0  0  2  0  0  0  0  0  0
  189.9150  175.0360  144.1720 C   0  0  0  0  0  0  0  0  0  0  0  0
  188.2420  176.5250  145.3700 C   0  0  0  0  0  0  0  0  0  0  0  0
  188.4280  175.5490  146.5220 C   0  0  0  0  0  2  0  0  0  0  0  0
  188.7770  177.0150  146.6990 C   0  0  0  0  0  2  0  0  0  0  0  0
  186.4730  176.7330  143.5460 C   0  0  0  0  0  0  0  0  0  0  0  0
  185.9910  178.8740  144.1470 C   0  0  0  0  0  0  0  0  0  0  0  0
  185.5950  180.1060  144.1530 N   0  0  0  0  0  2  0  0  0  0  0  0
  185.9870  178.0130  142.9360 C   0  0  2  0  0  3  0  0  0  0  0  0
  186.7820  176.8760  145.0100 C   0  0  2  0  0  3  0  0  0  0  0  0
  186.6410  175.7050  142.9130 O   0  0  0  0  0  0  0  0  0  0  0  0
  186.4660  178.2350  145.2870 O   0  0  0  0  0  0  0  0  0  0  0  0
  184.6820  177.8590  142.4630 O   0  0  0  0  0  0  0  0  0  0  0  0
  184.7510  178.1990  141.1150 C   0  0  0  0  0  1  0  0  0  0  0  0
  193.1340  169.7180  138.7530 C   0  0  0  0  0  0  0  0  0  0  0  0
  193.8130  169.4790  137.5090 N   0  0  0  0  0  2  0  0  0  0  0  0
  192.4420  168.8120  139.2890 O   0  0  0  0  0  0  0  0  0  0  0  0
  193.5660  168.2810  136.6990 C   0  0  0  0  0  2  0  0  0  0  0  0
  193.4600  168.6540  135.2250 C   0  0  0  0  0  2  0  0  0  0  0  0
  192.6890  169.9540  135.0830 C   0  0  0  0  0  2  0  0  0  0  0  0
  191.2000  169.6630  135.1480 C   0  0  0  0  0  2  0  0  0  0  0  0
  190.5390  170.5300  136.2090 C   0  0  1  0  0  3  0  0  0  0  0  0
  189.4920  171.4320  135.5840 C   0  0  0  0  0  1  0  0  0  0  0  0
  189.9440  169.7320  137.1840 O   0  0  0  0  0  1  0  0  0  0  0  0
  195.5700  169.9360  143.1380 C   0  0  0  0  0  2  0  0  0  0  0  0
  194.6990  168.8250  145.3400 C   0  0  0  0  0  1  0  0  0  0  0  0
  194.1950  168.8370  143.6010 S   0  0  0  0  0  0  0  0  0  0  0  0
  1 22  1  0  0  0  0
  2 11  1  0  0  0  0
  3 18  1  0  0  0  0
  4 15  1  0  0  0  0
  5 16  1  6  0  0  0
  5  3  1  0  0  0  0
  6  2  2  0  0  0  0
  7 13  1  6  0  0  0
  8 14  1  0  0  0  0
  8 26  1  1  0  0  0
  9  5  1  0  0  0  0
  9  6  1  1  0  0  0
  9  7  1  0  0  0  0
 10 17  1  1  0  0  0
 10  1  1  0  0  0  0
 12 14  2  0  0  0  0
 13 11  1  0  0  0  0
 14 20  1  0  0  0  0
 15 25  1  0  0  0  0
 16  4  2  0  0  0  0
 18 23  1  0  0  0  0
 19 38  1  1  0  0  0
 19 21  1  0  0  0  0
 19 10  1  0  0  0  0
 20 23  1  0  0  0  0
 21 24  1  0  0  0  0
 22 48  1  1  0  0  0
 22  7  1  0  0  0  0
 24 16  1  0  0  0  0
 25  8  1  0  0  0  0
 25 18  2  0  0  0  0
 26 27  1  0  0  0  0
 26 28  1  0  0  0  0
 27 28  1  0  0  0  0
 29 33  1  0  0  0  0
 30 31  2  0  0  0  0
 30 35  1  0  0  0  0
 32 36  1  1  0  0  0
 32 29  1  0  0  0  0
 32 30  1  0  0  0  0
 33 35  1  0  0  0  0
 33 26  1  6  0  0  0
 34 29  2  0  0  0  0
 37 36  1  0  0  0  0
 38 40  2  0  0  0  0
 39 38  1  0  0  0  0
 41 39  1  0  0  0  0
 42 41  1  0  0  0  0
 43 44  1  0  0  0  0
 43 42  1  0  0  0  0
 44 45  1  0  0  0  0
 45 46  1  6  0  0  0
 45 47  1  0  0  0  0
 48 50  1  0  0  0  0
 50 49  1  0  0  0  0
M  END
>  <MODEL>
3

>  <REMARK>
 VINA RESULT:      -6.1      2.555     10.004
  Name = 
  11 active torsions:
  status: ('A' for Active; 'I' for Inactive)
    1  A    between atoms: C_4  and  C_32
    2  A    between atoms: C_4  and  N_45
    3  A    between atoms: C_5  and  C_16
    4  A    between atoms: C_5  and  C_39
    5  A    between atoms: O_8  and  C_21
    6  A    between atoms: C_12  and  C_30
    7  A    between atoms: C_12  and  C_32
    8  A    between atoms: C_15  and  C_38
    9  A    between atoms: C_25  and  C_30
   10  A    between atoms: S_34  and  C_44
   11  A    between atoms: C_42  and  C_44
                            x       y       z     vdW  Elec       q    Type
                         _______ _______ _______ _____ _____    ______ ____

>  <TORSDO>
F 11

$$$$
=
 OpenBabel11062419193D

 50 55  0  0  1  0  0  0  0  0999 V2000
  194.2630  172.4770  139.1260 N   0  0  0  0  0  2  0  0  0  0  0  0
  191.3710  170.6950  142.8090 C   0  0  0  0  0  3  0  0  0  0  0  0
  190.9810  173.8680  141.8830 O   0  0  0  0  0  0  0  0  0  0  0  0
  193.1110  175.8830  142.3190 C   0  0  0  0  0  3  0  0  0  0  0  0
  192.3060  173.6570  141.3660 C   0  0  2  0  0  3  0  0  0  0  0  0
  192.2700  171.6170  142.7630 N   0  0  0  0  0  0  0  0  0  0  0  0
  192.3700  171.3680  140.2450 C   0  0  2  0  0  3  0  0  0  0  0  0
  190.9000  175.8900  145.0800 C   0  0  1  0  0  3  0  0  0  0  0  0
  192.7540  172.1880  141.5140 C   0  0  1  0  0  3  0  0  0  0  0  0
  195.6640  172.2980  139.4950 C   0  0  2  0  0  3  0  0  0  0  0  0
  190.7640  170.1890  141.5430 C   0  0  0  0  0  2  0  0  0  0  0  0
  191.2950  174.7840  147.1670 O   0  0  0  0  0  0  0  0  0  0  0  0
  191.8410  170.0390  140.5710 N   0  0  0  0  0  2  0  0  0  0  0  0
  190.9080  174.6850  145.9720 C   0  0  0  0  0  0  0  0  0  0  0  0
  191.7460  176.3940  142.6780 C   0  0  0  0  0  2  0  0  0  0  0  0
  193.3740  174.6780  141.7740 C   0  0  0  0  0  0  0  0  0  0  0  0
  195.7850  171.7400  140.7720 O   0  0  0  0  0  1  0  0  0  0  0  0
  190.7200  174.2550  143.2080 C   0  0  0  0  0  0  0  0  0  0  0  0
  196.4210  173.6300  139.4540 C   0  0  2  0  0  3  0  0  0  0  0  0
  190.5280  173.4430  145.4580 O   0  0  0  0  0  0  0  0  0  0  0  0
  195.4310  175.0910  139.9800 S   0  0  0  0  0  0  0  0  0  0  0  0
  193.5500  171.2170  139.2870 C   0  0  1  0  0  3  0  0  0  0  0  0
  190.0090  173.3160  144.1350 C   0  0  0  0  0  2  0  0  0  0  0  0
  194.8200  174.3530  141.5360 C   0  0  0  0  0  2  0  0  0  0  0  0
  191.0920  175.4660  143.6360 C   0  0  0  0  0  0  0  0  0  0  0  0
  189.6210  176.7180  145.2850 C   0  0  0  0  0  0  0  0  0  0  0  0
  189.5980  177.5570  146.5540 C   0  0  0  0  0  2  0  0  0  0  0  0
  189.8170  178.2170  145.2050 C   0  0  0  0  0  2  0  0  0  0  0  0
  187.6730  176.8660  143.6470 C   0  0  0  0  0  0  0  0  0  0  0  0
  186.1540  176.9600  145.3380 C   0  0  0  0  0  0  0  0  0  0  0  0
  185.0890  177.1630  146.0450 N   0  0  0  0  0  2  0  0  0  0  0  0
  186.3190  177.4390  143.9420 C   0  0  2  0  0  3  0  0  0  0  0  0
  188.2610  176.1460  144.8280 C   0  0  2  0  0  3  0  0  0  0  0  0
  188.2490  177.0080  142.5820 O   0  0  0  0  0  0  0  0  0  0  0  0
  187.2570  176.2690  145.8280 O   0  0  0  0  0  0  0  0  0  0  0  0
  185.3560  176.8520  143.1180 O   0  0  0  0  0  0  0  0  0  0  0  0
  184.5400  177.9070  142.7200 C   0  0  0  0  0  1  0  0  0  0  0  0
  197.0000  173.8800  138.1050 C   0  0  0  0  0  0  0  0  0  0  0  0
  196.6100  175.0520  137.3710 N   0  0  0  0  0  2  0  0  0  0  0  0
  197.7210  172.9990  137.5670 O   0  0  0  0  0  0  0  0  0  0  0  0
  196.8290  175.1810  135.9260 C   0  0  0  0  0  2  0  0  0  0  0  0
  196.9730  176.6480  135.5420 C   0  0  0  0  0  2  0  0  0  0  0  0
  195.9160  177.0100  134.5130 C   0  0  0  0  0  2  0  0  0  0  0  0
  195.6820  178.5100  134.5400 C   0  0  0  0  0  2  0  0  0  0  0  0
  194.1910  178.8120  134.5130 C   0  0  1  0  0  3  0  0  0  0  0  0
  193.4120  177.7130  135.2120 C   0  0  0  0  0  1  0  0  0  0  0  0
  193.9330  180.0320  135.1330 O   0  0  0  0  0  1  0  0  0  0  0  0
  193.0910  170.7320  137.9210 C   0  0  0  0  0  2  0  0  0  0  0  0
  191.3110  171.9540  136.4450 C   0  0  0  0  0  1  0  0  0  0  0  0
  193.0850  172.1310  136.7570 S   0  0  0  0  0  0  0  0  0  0  0  0
  1 22  1  0  0  0  0
  1 10  1  0  0  0  0
  3 18  1  0  0  0  0
  4 15  1  0  0  0  0
  5  9  1  0  0  0  0
  5 16  1  1  0  0  0
  5  3  1  0  0  0  0
  6  2  2  0  0  0  0
  7 13  1  1  0  0  0
  7  9  1  0  0  0  0
  8 26  1  6  0  0  0
  8 14  1  0  0  0  0
  9  6  1  1  0  0  0
 10 17  1  1  0  0  0
 11  2  1  0  0  0  0
 13 11  1  0  0  0  0
 14 12  2  0  0  0  0
 15 25  1  0  0  0  0
 16  4  2  0  0  0  0
 18 25  2  0  0  0  0
 18 23  1  0  0  0  0
 19 38  1  6  0  0  0
 19 10  1  0  0  0  0
 19 21  1  0  0  0  0
 20 14  1  0  0  0  0
 21 24  1  0  0  0  0
 22 48  1  6  0  0  0
 22  7  1  0  0  0  0
 23 20  1  0  0  0  0
 24 16  1  0  0  0  0
 25  8  1  0  0  0  0
 26 27  1  0  0  0  0
 28 26  1  0  0  0  0
 28 27  1  0  0  0  0
 29 32  1  0  0  0  0
 29 33  1  0  0  0  0
 30 35  1  0  0  0  0
 30 31  2  0  0  0  0
 32 36  1  6  0  0  0
 32 30  1  0  0  0  0
 33 26  1  1  0  0  0
 33 35  1  0  0  0  0
 34 29  2  0  0  0  0
 37 36  1  0  0  0  0
 39 38  1  0  0  0  0
 40 38  2  0  0  0  0
 41 39  1  0  0  0  0
 42 41  1  0  0  0  0
 43 44  1  0  0  0  0
 43 42  1  0  0  0  0
 45 44  1  0  0  0  0
 45 47  1  0  0  0  0
 45 46  1  1  0  0  0
 49 50  1  0  0  0  0
 50 48  1  0  0  0  0
M  END
>  <MODEL>
4

>  <REMARK>
 VINA RESULT:      -6.0      3.539     10.188
  Name = 
  11 active torsions:
  status: ('A' for Active; 'I' for Inactive)
    1  A    between atoms: C_4  and  C_32
    2  A    between atoms: C_4  and  N_45
    3  A    between atoms: C_5  and  C_16
    4  A    between atoms: C_5  and  C_39
    5  A    between atoms: O_8  and  C_21
    6  A    between atoms: C_12  and  C_30
    7  A    between atoms: C_12  and  C_32
    8  A    between atoms: C_15  and  C_38
    9  A    between atoms: C_25  and  C_30
   10  A    between atoms: S_34  and  C_44
   11  A    between atoms: C_42  and  C_44
                            x       y       z     vdW  Elec       q    Type
                         _______ _______ _______ _____ _____    ______ ____

>  <TORSDO>
F 11

$$$$
=
 OpenBabel11062419193D

 50 55  0  0  1  0  0  0  0  0999 V2000
  195.0620  172.4110  143.4270 N   0  0  0  0  0  2  0  0  0  0  0  0
  193.8750  176.9450  145.1990 C   0  0  0  0  0  3  0  0  0  0  0  0
  191.4120  174.7980  144.5650 O   0  0  0  0  0  0  0  0  0  0  0  0
  190.7950  173.9190  141.8020 C   0  0  0  0  0  3  0  0  0  0  0  0
  192.4290  174.2040  143.7400 C   0  0  2  0  0  3  0  0  0  0  0  0
  193.6250  176.3400  144.0890 N   0  0  0  0  0  0  0  0  0  0  0  0
  194.6210  174.2170  145.0430 C   0  0  2  0  0  3  0  0  0  0  0  0
  188.8120  176.7330  142.6140 C   0  0  1  0  0  3  0  0  0  0  0  0
  193.7930  174.9050  143.9160 C   0  0  1  0  0  3  0  0  0  0  0  0
  195.8320  172.5700  142.1970 C   0  0  2  0  0  3  0  0  0  0  0  0
  194.3340  176.1610  146.3830 C   0  0  0  0  0  2  0  0  0  0  0  0
  189.2840  178.9890  141.9640 O   0  0  0  0  0  0  0  0  0  0  0  0
  195.3070  175.1830  145.9080 N   0  0  0  0  0  2  0  0  0  0  0  0
  189.5130  178.0490  142.7710 C   0  0  0  0  0  0  0  0  0  0  0  0
  189.5640  174.2490  142.5960 C   0  0  0  0  0  2  0  0  0  0  0  0
  192.0550  173.9260  142.2800 C   0  0  0  0  0  0  0  0  0  0  0  0
  195.9620  173.9190  141.8510 O   0  0  0  0  0  1  0  0  0  0  0  0
  190.5750  175.8390  144.1310 C   0  0  0  0  0  0  0  0  0  0  0  0
  195.1780  171.8130  141.0350 C   0  0  2  0  0  3  0  0  0  0  0  0
  190.4560  178.2110  143.7880 O   0  0  0  0  0  0  0  0  0  0  0  0
  193.3370  171.8040  141.0650 S   0  0  0  0  0  0  0  0  0  0  0  0
  195.6450  173.2330  144.4790 C   0  0  1  0  0  3  0  0  0  0  0  0
  190.6760  177.1940  144.7640 C   0  0  0  0  0  2  0  0  0  0  0  0
  193.1450  173.6070  141.2990 C   0  0  0  0  0  2  0  0  0  0  0  0
  189.6770  175.6160  143.1660 C   0  0  0  0  0  0  0  0  0  0  0  0
  187.4180  176.7720  143.2640 C   0  0  0  0  0  0  0  0  0  0  0  0
  186.2550  176.7810  142.2830 C   0  0  0  0  0  2  0  0  0  0  0  0
  186.5890  175.5210  143.0610 C   0  0  0  0  0  2  0  0  0  0  0  0
  187.0250  176.7000  145.7810 C   0  0  0  0  0  0  0  0  0  0  0  0
  185.1960  178.0440  145.6140 C   0  0  0  0  0  0  0  0  0  0  0  0
  184.0760  178.6550  145.8330 N   0  0  0  0  0  2  0  0  0  0  0  0
  185.7190  176.9500  146.4740 C   0  0  2  0  0  3  0  0  0  0  0  0
  187.2070  177.5700  144.5700 C   0  0  2  0  0  3  0  0  0  0  0  0
  187.8260  175.8540  146.1380 O   0  0  0  0  0  0  0  0  0  0  0  0
  186.0220  178.3550  144.5400 O   0  0  0  0  0  0  0  0  0  0  0  0
  185.9410  177.4240  147.7690 O   0  0  0  0  0  0  0  0  0  0  0  0
  187.0200  178.2930  147.6480 C   0  0  0  0  0  1  0  0  0  0  0  0
  195.6810  170.4140  140.9520 C   0  0  0  0  0  0  0  0  0  0  0  0
  196.8990  170.1380  140.2410 N   0  0  0  0  0  2  0  0  0  0  0  0
  194.9690  169.4730  141.3920 O   0  0  0  0  0  0  0  0  0  0  0  0
  197.2580  168.7860  139.7970 C   0  0  0  0  0  2  0  0  0  0  0  0
  197.7900  168.8230  138.3700 C   0  0  0  0  0  2  0  0  0  0  0  0
  196.7580  169.4670  137.4600 C   0  0  0  0  0  2  0  0  0  0  0  0
  197.4640  170.1200  136.2850 C   0  0  0  0  0  2  0  0  0  0  0  0
  196.9340  171.5300  136.0700 C   0  0  1  0  0  3  0  0  0  0  0  0
  197.9310  172.3610  135.2850 C   0  0  0  0  0  1  0  0  0  0  0  0
  195.7200  171.4910  135.3870 O   0  0  0  0  0  1  0  0  0  0  0  0
  196.1940  172.3260  145.5670 C   0  0  0  0  0  2  0  0  0  0  0  0
  196.6860  169.8640  146.3000 C   0  0  0  0  0  1  0  0  0  0  0  0
  195.2980  170.7430  145.5400 S   0  0  0  0  0  0  0  0  0  0  0  0
  1 22  1  0  0  0  0
  2 11  1  0  0  0  0
  4 16  2  0  0  0  0
  4 15  1  0  0  0  0
  5 16  1  6  0  0  0
  5  9  1  0  0  0  0
  5  3  1  0  0  0  0
  6  2  2  0  0  0  0
  7 13  1  6  0  0  0
  8 14  1  0  0  0  0
  8 25  1  0  0  0  0
  8 26  1  1  0  0  0
  9  6  1  1  0  0  0
  9  7  1  0  0  0  0
 10 17  1  6  0  0  0
 10  1  1  0  0  0  0
 12 14  2  0  0  0  0
 13 11  1  0  0  0  0
 14 20  1  0  0  0  0
 15 25  1  0  0  0  0
 18  3  1  0  0  0  0
 18 23  1  0  0  0  0
 19 38  1  1  0  0  0
 19 21  1  0  0  0  0
 19 10  1  0  0  0  0
 20 23  1  0  0  0  0
 21 24  1  0  0  0  0
 22  7  1  0  0  0  0
 22 48  1  1  0  0  0
 24 16  1  0  0  0  0
 25 18  2  0  0  0  0
 27 28  1  0  0  0  0
 27 26  1  0  0  0  0
 28 26  1  0  0  0  0
 29 34  2  0  0  0  0
 29 32  1  0  0  0  0
 30 31  2  0  0  0  0
 30 32  1  0  0  0  0
 32 36  1  1  0  0  0
 33 26  1  6  0  0  0
 33 29  1  0  0  0  0
 35 33  1  0  0  0  0
 35 30  1  0  0  0  0
 37 36  1  0  0  0  0
 38 40  2  0  0  0  0
 39 38  1  0  0  0  0
 41 39  1  0  0  0  0
 42 41  1  0  0  0  0
 43 42  1  0  0  0  0
 44 43  1  0  0  0  0
 45 46  1  6  0  0  0
 45 44  1  0  0  0  0
 47 45  1  0  0  0  0
 50 48  1  0  0  0  0
 50 49  1  0  0  0  0
M  END
>  <MODEL>
5

>  <REMARK>
 VINA RESULT:      -5.7      3.197     10.604
  Name = 
  11 active torsions:
  status: ('A' for Active; 'I' for Inactive)
    1  A    between atoms: C_4  and  C_32
    2  A    between atoms: C_4  and  N_45
    3  A    between atoms: C_5  and  C_16
    4  A    between atoms: C_5  and  C_39
    5  A    between atoms: O_8  and  C_21
    6  A    between atoms: C_12  and  C_30
    7  A    between atoms: C_12  and  C_32
    8  A    between atoms: C_15  and  C_38
    9  A    between atoms: C_25  and  C_30
   10  A    between atoms: S_34  and  C_44
   11  A    between atoms: C_42  and  C_44
                            x       y       z     vdW  Elec       q    Type
                         _______ _______ _______ _____ _____    ______ ____

>  <TORSDO>
F 11

$$$$
=
 OpenBabel11062419193D

 50 55  0  0  1  0  0  0  0  0999 V2000
  193.6430  170.3630  141.8250 N   0  0  0  0  0  2  0  0  0  0  0  0
  189.6000  171.9480  139.3250 C   0  0  0  0  0  3  0  0  0  0  0  0
  191.2340  174.1270  141.2390 O   0  0  0  0  0  0  0  0  0  0  0  0
  191.3140  173.8440  144.1880 C   0  0  0  0  0  3  0  0  0  0  0  0
  191.7080  172.9130  141.8460 C   0  0  2  0  0  3  0  0  0  0  0  0
  189.8740  171.8410  140.5790 N   0  0  0  0  0  0  0  0  0  0  0  0
  192.2660  171.2570  139.9880 C   0  0  2  0  0  3  0  0  0  0  0  0
  188.5950  175.9140  143.2770 C   0  0  1  0  0  3  0  0  0  0  0  0
  191.2290  171.6620  141.0810 C   0  0  1  0  0  3  0  0  0  0  0  0
  193.2650  169.2350  142.6710 C   0  0  2  0  0  3  0  0  0  0  0  0
  190.7030  171.9120  138.3200 C   0  0  0  0  0  2  0  0  0  0  0  0
  186.3140  175.2050  143.1090 O   0  0  0  0  0  0  0  0  0  0  0  0
  191.6300  170.8620  138.7270 N   0  0  0  0  0  2  0  0  0  0  0  0
  187.4470  175.2700  142.5600 C   0  0  0  0  0  0  0  0  0  0  0  0
  191.0620  175.2560  143.7470 C   0  0  0  0  0  2  0  0  0  0  0  0
  191.5670  172.8040  143.3680 C   0  0  0  0  0  0  0  0  0  0  0  0
  191.8950  168.9680  142.5770 O   0  0  0  0  0  1  0  0  0  0  0  0
  190.0310  174.7550  141.6030 C   0  0  0  0  0  0  0  0  0  0  0  0
  193.6270  169.4980  144.1370 C   0  0  2  0  0  3  0  0  0  0  0  0
  187.6510  174.7000  141.3020 O   0  0  0  0  0  0  0  0  0  0  0  0
  193.4410  171.2510  144.6710 S   0  0  0  0  0  0  0  0  0  0  0  0
  193.1820  170.1300  140.4630 C   0  0  1  0  0  3  0  0  0  0  0  0
  188.8990  174.8300  140.6230 C   0  0  0  0  0  2  0  0  0  0  0  0
  191.7460  171.4650  144.0210 C   0  0  0  0  0  2  0  0  0  0  0  0
  189.9040  175.2990  142.8170 C   0  0  0  0  0  0  0  0  0  0  0  0
  188.5680  177.4420  143.0960 C   0  0  0  0  0  0  0  0  0  0  0  0
  189.8350  178.0390  142.5010 C   0  0  0  0  0  2  0  0  0  0  0  0
  188.5810  177.9100  141.6560 C   0  0  0  0  0  2  0  0  0  0  0  0
  187.6670  177.6600  145.4700 C   0  0  0  0  0  0  0  0  0  0  0  0
  185.5900  178.2060  144.7170 C   0  0  0  0  0  0  0  0  0  0  0  0
  184.3150  178.4010  144.6130 N   0  0  0  0  0  2  0  0  0  0  0  0
  186.2290  177.5360  145.8790 C   0  0  2  0  0  3  0  0  0  0  0  0
  187.8270  178.3190  144.1300 C   0  0  2  0  0  3  0  0  0  0  0  0
  188.5950  177.2330  146.1340 O   0  0  0  0  0  0  0  0  0  0  0  0
  186.4910  178.6070  143.7370 O   0  0  0  0  0  0  0  0  0  0  0  0
  185.9920  178.2700  147.0440 O   0  0  0  0  0  0  0  0  0  0  0  0
  185.9100  177.3160  148.0530 C   0  0  0  0  0  1  0  0  0  0  0  0
  195.0070  169.0290  144.4430 C   0  0  0  0  0  0  0  0  0  0  0  0
  195.7530  169.6560  145.4990 N   0  0  0  0  0  2  0  0  0  0  0  0
  195.5530  168.1780  143.6920 O   0  0  0  0  0  0  0  0  0  0  0  0
  197.2090  169.5220  145.6160 C   0  0  0  0  0  2  0  0  0  0  0  0
  197.9030  170.7360  145.0110 C   0  0  0  0  0  2  0  0  0  0  0  0
  197.2070  172.0020  145.4750 C   0  0  0  0  0  2  0  0  0  0  0  0
  197.0410  172.9450  144.2970 C   0  0  0  0  0  2  0  0  0  0  0  0
  196.4910  174.2830  144.7650 C   0  0  1  0  0  3  0  0  0  0  0  0
  195.1850  174.5990  144.0600 C   0  0  0  0  0  1  0  0  0  0  0  0
  196.2840  174.2660  146.1430 O   0  0  0  0  0  1  0  0  0  0  0  0
  194.3890  169.9810  139.5520 C   0  0  0  0  0  2  0  0  0  0  0  0
  196.8140  169.0610  139.8870 C   0  0  0  0  0  1  0  0  0  0  0  0
  195.1500  168.3510  139.8240 S   0  0  0  0  0  0  0  0  0  0  0  0
  1 10  1  0  0  0  0
  2  6  2  0  0  0  0
  3 18  1  0  0  0  0
  5  3  1  6  0  0  0
  5 16  1  0  0  0  0
  7 13  1  6  0  0  0
  7 22  1  0  0  0  0
  7  9  1  0  0  0  0
  8 26  1  6  0  0  0
  9  6  1  6  0  0  0
  9  5  1  0  0  0  0
 10 17  1  1  0  0  0
 10 19  1  0  0  0  0
 11 13  1  0  0  0  0
 11  2  1  0  0  0  0
 14 12  2  0  0  0  0
 14  8  1  0  0  0  0
 15  4  1  0  0  0  0
 16 24  1  0  0  0  0
 16  4  2  0  0  0  0
 18 25  2  0  0  0  0
 19 38  1  6  0  0  0
 19 21  1  0  0  0  0
 20 14  1  0  0  0  0
 22 48  1  6  0  0  0
 22  1  1  0  0  0  0
 23 20  1  0  0  0  0
 23 18  1  0  0  0  0
 24 21  1  0  0  0  0
 25  8  1  0  0  0  0
 25 15  1  0  0  0  0
 27 26  1  0  0  0  0
 28 27  1  0  0  0  0
 28 26  1  0  0  0  0
 29 32  1  0  0  0  0
 29 34  2  0  0  0  0
 30 32  1  0  0  0  0
 31 30  2  0  0  0  0
 32 36  1  1  0  0  0
 33 26  1  6  0  0  0
 33 29  1  0  0  0  0
 35 33  1  0  0  0  0
 35 30  1  0  0  0  0
 36 37  1  0  0  0  0
 38 39  1  0  0  0  0
 39 41  1  0  0  0  0
 40 38  2  0  0  0  0
 42 43  1  0  0  0  0
 42 41  1  0  0  0  0
 44 45  1  0  0  0  0
 44 43  1  0  0  0  0
 45 46  1  6  0  0  0
 45 47  1  0  0  0  0
 48 50  1  0  0  0  0
 50 49  1  0  0  0  0
M  END
>  <MODEL>
6

>  <REMARK>
 VINA RESULT:      -5.7      3.153      9.832
  Name = 
  11 active torsions:
  status: ('A' for Active; 'I' for Inactive)
    1  A    between atoms: C_4  and  C_32
    2  A    between atoms: C_4  and  N_45
    3  A    between atoms: C_5  and  C_16
    4  A    between atoms: C_5  and  C_39
    5  A    between atoms: O_8  and  C_21
    6  A    between atoms: C_12  and  C_30
    7  A    between atoms: C_12  and  C_32
    8  A    between atoms: C_15  and  C_38
    9  A    between atoms: C_25  and  C_30
   10  A    between atoms: S_34  and  C_44
   11  A    between atoms: C_42  and  C_44
                            x       y       z     vdW  Elec       q    Type
                         _______ _______ _______ _____ _____    ______ ____

>  <TORSDO>
F 11

$$$$
=
 OpenBabel11062419193D

 50 55  0  0  1  0  0  0  0  0999 V2000
  191.2610  174.7630  144.9530 N   0  0  0  0  0  2  0  0  0  0  0  0
  193.6630  170.5280  143.7700 C   0  0  0  0  0  3  0  0  0  0  0  0
  193.2950  172.8500  141.4140 O   0  0  0  0  0  0  0  0  0  0  0  0
  190.6240  173.5580  140.3410 C   0  0  0  0  0  3  0  0  0  0  0  0
  192.2390  173.2710  142.2950 C   0  0  2  0  0  3  0  0  0  0  0  0
  192.5660  171.0620  143.3580 N   0  0  0  0  0  0  0  0  0  0  0  0
  193.1010  173.1470  144.6920 C   0  0  2  0  0  3  0  0  0  0  0  0
  192.0690  171.0310  138.3330 C   0  0  1  0  0  3  0  0  0  0  0  0
  192.2230  172.4550  143.6040 C   0  0  1  0  0  3  0  0  0  0  0  0
  189.9300  174.4280  145.4510 C   0  0  2  0  0  3  0  0  0  0  0  0
  194.6570  171.3560  144.5150 C   0  0  0  0  0  2  0  0  0  0  0  0
  191.5680  168.6940  138.4810 O   0  0  0  0  0  0  0  0  0  0  0  0
  193.9130  172.1910  145.4520 N   0  0  0  0  0  2  0  0  0  0  0  0
  192.2210  169.6690  138.9410 C   0  0  0  0  0  0  0  0  0  0  0  0
  191.6630  173.4180  139.2670 C   0  0  0  0  0  2  0  0  0  0  0  0
  190.8550  173.4660  141.6660 C   0  0  0  0  0  0  0  0  0  0  0  0
  189.7000  173.0490  145.4000 O   0  0  0  0  0  1  0  0  0  0  0  0
  193.1310  171.8660  140.4260 C   0  0  0  0  0  0  0  0  0  0  0  0
  188.8420  175.1490  144.6460 C   0  0  2  0  0  3  0  0  0  0  0  0
  193.0530  169.4970  140.0490 O   0  0  0  0  0  0  0  0  0  0  0  0
  189.2160  175.3430  142.8530 S   0  0  0  0  0  0  0  0  0  0  0  0
  192.2600  173.9740  145.6610 C   0  0  1  0  0  3  0  0  0  0  0  0
  193.8650  170.5640  140.5380 C   0  0  0  0  0  2  0  0  0  0  0  0
  189.6590  173.5940  142.5640 C   0  0  0  0  0  2  0  0  0  0  0  0
  192.3340  172.0980  139.3780 C   0  0  0  0  0  0  0  0  0  0  0  0
  192.9690  171.1840  137.0940 C   0  0  0  0  0  0  0  0  0  0  0  0
  194.4300  171.4840  137.3980 C   0  0  0  0  0  2  0  0  0  0  0  0
  194.0140  170.0990  136.9340 C   0  0  0  0  0  2  0  0  0  0  0  0
  192.0660  173.2840  135.9670 C   0  0  0  0  0  0  0  0  0  0  0  0
  190.1720  172.2100  135.3060 C   0  0  0  0  0  0  0  0  0  0  0  0
  188.9690  171.9340  134.9160 N   0  0  0  0  0  2  0  0  0  0  0  0
  190.6230  173.5750  135.6800 C   0  0  2  0  0  3  0  0  0  0  0  0
  192.3990  171.8270  135.8120 C   0  0  2  0  0  3  0  0  0  0  0  0
  192.8650  174.1300  136.3300 O   0  0  0  0  0  0  0  0  0  0  0  0
  191.1640  171.2430  135.4150 O   0  0  0  0  0  0  0  0  0  0  0  0
  190.5110  174.4340  134.5840 O   0  0  0  0  0  0  0  0  0  0  0  0
  189.8020  175.5300  135.0640 C   0  0  0  0  0  1  0  0  0  0  0  0
  188.5280  176.4790  145.2360 C   0  0  0  0  0  0  0  0  0  0  0  0
  187.9720  176.5580  146.5580 N   0  0  0  0  0  2  0  0  0  0  0  0
  188.6290  177.5130  144.5220 O   0  0  0  0  0  0  0  0  0  0  0  0
  187.2980  177.7620  147.0560 C   0  0  0  0  0  2  0  0  0  0  0  0
  185.9370  177.4040  147.6390 C   0  0  0  0  0  2  0  0  0  0  0  0
  184.9260  177.2590  146.5150 C   0  0  0  0  0  2  0  0  0  0  0  0
  184.6340  178.6270  145.9240 C   0  0  0  0  0  2  0  0  0  0  0  0
  184.7400  178.5790  144.4070 C   0  0  1  0  0  3  0  0  0  0  0  0
  185.5760  179.7360  143.8940 C   0  0  0  0  0  1  0  0  0  0  0  0
  185.3100  177.3750  143.9990 O   0  0  0  0  0  1  0  0  0  0  0  0
  193.1300  174.9080  146.4860 C   0  0  0  0  0  2  0  0  0  0  0  0
  194.3410  177.2230  146.6030 C   0  0  0  0  0  1  0  0  0  0  0  0
  194.1630  175.9080  145.3720 S   0  0  0  0  0  0  0  0  0  0  0  0
  1 10  1  0  0  0  0
  1 22  1  0  0  0  0
  2 11  1  0  0  0  0
  4 16  2  0  0  0  0
  5  3  1  6  0  0  0
  5  9  1  0  0  0  0
  6  2  2  0  0  0  0
  7 13  1  1  0  0  0
  7 22  1  0  0  0  0
  8 26  1  6  0  0  0
  8 14  1  0  0  0  0
  8 25  1  0  0  0  0
  9  6  1  6  0  0  0
  9  7  1  0  0  0  0
 10 17  1  6  0  0  0
 11 13  1  0  0  0  0
 12 14  2  0  0  0  0
 14 20  1  0  0  0  0
 15 25  1  0  0  0  0
 15  4  1  0  0  0  0
 16  5  1  0  0  0  0
 16 24  1  0  0  0  0
 18 23  1  0  0  0  0
 18  3  1  0  0  0  0
 19 38  1  1  0  0  0
 19 10  1  0  0  0  0
 20 23  1  0  0  0  0
 21 19  1  0  0  0  0
 22 48  1  6  0  0  0
 24 21  1  0  0  0  0
 25 18  2  0  0  0  0
 26 27  1  0  0  0  0
 28 26  1  0  0  0  0
 28 27  1  0  0  0  0
 29 34  2  0  0  0  0
 30 35  1  0  0  0  0
 30 32  1  0  0  0  0
 31 30  2  0  0  0  0
 32 36  1  6  0  0  0
 32 29  1  0  0  0  0
 33 29  1  0  0  0  0
 33 26  1  1  0  0  0
 35 33  1  0  0  0  0
 36 37  1  0  0  0  0
 38 39  1  0  0  0  0
 39 41  1  0  0  0  0
 40 38  2  0  0  0  0
 41 42  1  0  0  0  0
 43 42  1  0  0  0  0
 44 43  1  0  0  0  0
 45 46  1  1  0  0  0
 45 44  1  0  0  0  0
 47 45  1  0  0  0  0
 50 48  1  0  0  0  0
 50 49  1  0  0  0  0
M  END
>  <MODEL>
7

>  <REMARK>
 VINA RESULT:      -5.7      1.698      2.347
  Name = 
  11 active torsions:
  status: ('A' for Active; 'I' for Inactive)
    1  A    between atoms: C_4  and  C_32
    2  A    between atoms: C_4  and  N_45
    3  A    between atoms: C_5  and  C_16
    4  A    between atoms: C_5  and  C_39
    5  A    between atoms: O_8  and  C_21
    6  A    between atoms: C_12  and  C_30
    7  A    between atoms: C_12  and  C_32
    8  A    between atoms: C_15  and  C_38
    9  A    between atoms: C_25  and  C_30
   10  A    between atoms: S_34  and  C_44
   11  A    between atoms: C_42  and  C_44
                            x       y       z     vdW  Elec       q    Type
                         _______ _______ _______ _____ _____    ______ ____

>  <TORSDO>
F 11

$$$$
=
 OpenBabel11062419193D

 50 55  0  0  1  0  0  0  0  0999 V2000
  189.9730  175.7390  142.9090 N   0  0  0  0  0  2  0  0  0  0  0  0
  193.1980  171.9160  143.2090 C   0  0  0  0  0  3  0  0  0  0  0  0
  192.6310  173.2790  140.2260 O   0  0  0  0  0  0  0  0  0  0  0  0
  189.9850  173.0740  138.9060 C   0  0  0  0  0  3  0  0  0  0  0  0
  191.4410  173.7300  140.8960 C   0  0  2  0  0  3  0  0  0  0  0  0
  192.0650  172.0670  142.6160 N   0  0  0  0  0  0  0  0  0  0  0  0
  192.0910  174.5230  143.2310 C   0  0  2  0  0  3  0  0  0  0  0  0
  192.0390  170.3950  137.8510 C   0  0  1  0  0  3  0  0  0  0  0  0
  191.4550  173.3700  142.3960 C   0  0  1  0  0  3  0  0  0  0  0  0
  188.6850  175.3140  143.4490 C   0  0  2  0  0  3  0  0  0  0  0  0
  193.9540  173.1140  143.6790 C   0  0  0  0  0  2  0  0  0  0  0  0
  191.9570  168.1660  138.7240 O   0  0  0  0  0  0  0  0  0  0  0  0
  192.9900  174.0300  144.2800 N   0  0  0  0  0  2  0  0  0  0  0  0
  192.3780  169.3450  138.8660 C   0  0  0  0  0  0  0  0  0  0  0  0
  191.1250  172.8220  137.9640 C   0  0  0  0  0  2  0  0  0  0  0  0
  190.1080  173.4410  140.1980 C   0  0  0  0  0  0  0  0  0  0  0  0
  188.7140  173.9700  143.8350 O   0  0  0  0  0  1  0  0  0  0  0  0
  192.7380  172.0270  139.5990 C   0  0  0  0  0  0  0  0  0  0  0  0
  187.5620  175.5200  142.4260 C   0  0  2  0  0  3  0  0  0  0  0  0
  193.1240  169.6910  139.9950 O   0  0  0  0  0  0  0  0  0  0  0  0
  188.0560  175.2250  140.6760 S   0  0  0  0  0  0  0  0  0  0  0  0
  191.0300  175.4230  143.8610 C   0  0  1  0  0  3  0  0  0  0  0  0
  193.6820  170.9970  140.1420 C   0  0  0  0  0  2  0  0  0  0  0  0
  188.8320  173.5970  140.9730 C   0  0  0  0  0  2  0  0  0  0  0  0
  192.0110  171.7610  138.5090 C   0  0  0  0  0  0  0  0  0  0  0  0
  193.0050  170.3360  136.6560 C   0  0  0  0  0  0  0  0  0  0  0  0
  192.4450  169.6630  135.4120 C   0  0  0  0  0  2  0  0  0  0  0  0
  192.5900  171.1730  135.4640 C   0  0  0  0  0  2  0  0  0  0  0  0
  195.3350  171.3700  136.6160 C   0  0  0  0  0  0  0  0  0  0  0  0
  196.1510  169.6760  135.3340 C   0  0  0  0  0  0  0  0  0  0  0  0
  196.8610  168.9600  134.5240 N   0  0  0  0  0  2  0  0  0  0  0  0
  196.3880  171.1230  135.5770 C   0  0  2  0  0  3  0  0  0  0  0  0
  194.5170  170.1440  136.9070 C   0  0  2  0  0  3  0  0  0  0  0  0
  195.1390  172.4560  137.1320 O   0  0  0  0  0  0  0  0  0  0  0  0
  195.0850  169.1540  136.0580 O   0  0  0  0  0  0  0  0  0  0  0  0
  197.6590  171.3140  136.1220 O   0  0  0  0  0  0  0  0  0  0  0  0
  197.9270  172.6660  135.9310 C   0  0  0  0  0  1  0  0  0  0  0  0
  186.9610  176.8760  142.5510 C   0  0  0  0  0  0  0  0  0  0  0  0
  185.5710  177.0090  142.8890 N   0  0  0  0  0  2  0  0  0  0  0  0
  187.6410  177.8880  142.2320 O   0  0  0  0  0  0  0  0  0  0  0  0
  184.8250  178.2530  142.6680 C   0  0  0  0  0  2  0  0  0  0  0  0
  184.2000  178.7340  143.9710 C   0  0  0  0  0  2  0  0  0  0  0  0
  185.2560  179.4190  144.8190 C   0  0  0  0  0  2  0  0  0  0  0  0
  185.0820  179.0050  146.2690 C   0  0  0  0  0  2  0  0  0  0  0  0
  186.3090  178.2440  146.7510 C   0  0  1  0  0  3  0  0  0  0  0  0
  185.9140  176.8840  147.2940 C   0  0  0  0  0  1  0  0  0  0  0  0
  187.2190  178.0830  145.7080 O   0  0  0  0  0  1  0  0  0  0  0  0
  191.6390  176.7190  144.3700 C   0  0  0  0  0  2  0  0  0  0  0  0
  191.3170  175.8460  146.8140 C   0  0  0  0  0  1  0  0  0  0  0  0
  190.7370  177.2660  145.8520 S   0  0  0  0  0  0  0  0  0  0  0  0
  1 10  1  0  0  0  0
  1 22  1  0  0  0  0
  2 11  1  0  0  0  0
  3  5  1  0  0  0  0
  4 16  2  0  0  0  0
  5 16  1  6  0  0  0
  5  9  1  0  0  0  0
  6  2  2  0  0  0  0
  7 22  1  0  0  0  0
  7 13  1  1  0  0  0
  8 26  1  6  0  0  0
  8 25  1  0  0  0  0
  8 14  1  0  0  0  0
  9  6  1  6  0  0  0
  9  7  1  0  0  0  0
 10 17  1  6  0  0  0
 11 13  1  0  0  0  0
 12 14  2  0  0  0  0
 14 20  1  0  0  0  0
 15 25  1  0  0  0  0
 15  4  1  0  0  0  0
 16 24  1  0  0  0  0
 18 23  1  0  0  0  0
 18  3  1  0  0  0  0
 19 38  1  6  0  0  0
 19 10  1  0  0  0  0
 20 23  1  0  0  0  0
 21 24  1  0  0  0  0
 21 19  1  0  0  0  0
 22 48  1  6  0  0  0
 25 18  2  0  0  0  0
 27 28  1  0  0  0  0
 27 26  1  0  0  0  0
 28 26  1  0  0  0  0
 29 33  1  0  0  0  0
 29 34  2  0  0  0  0
 30 32  1  0  0  0  0
 30 35  1  0  0  0  0
 31 30  2  0  0  0  0
 32 36  1  1  0  0  0
 32 29  1  0  0  0  0
 33 26  1  6  0  0  0
 35 33  1  0  0  0  0
 37 36  1  0  0  0  0
 38 39  1  0  0  0  0
 40 38  2  0  0  0  0
 41 39  1  0  0  0  0
 41 42  1  0  0  0  0
 42 43  1  0  0  0  0
 43 44  1  0  0  0  0
 44 45  1  0  0  0  0
 45 46  1  6  0  0  0
 47 45  1  0  0  0  0
 48 50  1  0  0  0  0
 50 49  1  0  0  0  0
M  END
>  <MODEL>
8

>  <REMARK>
 VINA RESULT:      -5.5      1.821      2.421
  Name = 
  11 active torsions:
  status: ('A' for Active; 'I' for Inactive)
    1  A    between atoms: C_4  and  C_32
    2  A    between atoms: C_4  and  N_45
    3  A    between atoms: C_5  and  C_16
    4  A    between atoms: C_5  and  C_39
    5  A    between atoms: O_8  and  C_21
    6  A    between atoms: C_12  and  C_30
    7  A    between atoms: C_12  and  C_32
    8  A    between atoms: C_15  and  C_38
    9  A    between atoms: C_25  and  C_30
   10  A    between atoms: S_34  and  C_44
   11  A    between atoms: C_42  and  C_44
                            x       y       z     vdW  Elec       q    Type
                         _______ _______ _______ _____ _____    ______ ____

>  <TORSDO>
F 11

$$$$
=
 OpenBabel11062419193D

 50 55  0  0  1  0  0  0  0  0999 V2000
  190.1790  175.7960  143.8570 N   0  0  0  0  0  2  0  0  0  0  0  0
  194.2010  173.1010  145.1480 C   0  0  0  0  0  3  0  0  0  0  0  0
  194.2390  174.7040  142.2320 O   0  0  0  0  0  0  0  0  0  0  0  0
  192.4140  173.9460  140.0220 C   0  0  0  0  0  3  0  0  0  0  0  0
  192.8160  174.6680  142.4360 C   0  0  2  0  0  3  0  0  0  0  0  0
  193.3480  173.0050  144.1880 N   0  0  0  0  0  0  0  0  0  0  0  0
  192.3460  175.2250  144.8800 C   0  0  2  0  0  3  0  0  0  0  0  0
  195.4720  172.2020  139.6770 C   0  0  1  0  0  3  0  0  0  0  0  0
  192.4480  174.0880  143.8180 C   0  0  1  0  0  3  0  0  0  0  0  0
  189.0060  174.9280  143.8640 C   0  0  2  0  0  3  0  0  0  0  0  0
  194.3090  174.3750  145.9180 C   0  0  0  0  0  2  0  0  0  0  0  0
  195.8540  169.9370  140.3550 O   0  0  0  0  0  0  0  0  0  0  0  0
  192.9530  174.8540  146.1620 N   0  0  0  0  0  2  0  0  0  0  0  0
  195.7840  171.1480  140.6970 C   0  0  0  0  0  0  0  0  0  0  0  0
  193.8180  174.1990  139.5560 C   0  0  0  0  0  2  0  0  0  0  0  0
  191.9700  174.1160  141.2830 C   0  0  0  0  0  0  0  0  0  0  0  0
  189.3520  173.6080  144.1720 O   0  0  0  0  0  1  0  0  0  0  0  0
  194.9610  173.6590  141.6320 C   0  0  0  0  0  0  0  0  0  0  0  0
  188.2880  174.9580  142.5100 C   0  0  2  0  0  3  0  0  0  0  0  0
  195.9490  171.5100  142.0350 O   0  0  0  0  0  0  0  0  0  0  0  0
  189.4050  175.1120  141.0530 S   0  0  0  0  0  0  0  0  0  0  0  0
  190.8990  175.6550  145.1150 C   0  0  1  0  0  3  0  0  0  0  0  0
  195.9560  172.8790  142.4370 C   0  0  0  0  0  2  0  0  0  0  0  0
  190.5340  173.7600  141.5410 C   0  0  0  0  0  2  0  0  0  0  0  0
  194.7720  173.3730  140.3400 C   0  0  0  0  0  0  0  0  0  0  0  0
  196.7420  172.6280  138.9200 C   0  0  0  0  0  0  0  0  0  0  0  0
  197.1750  174.0670  139.1550 C   0  0  0  0  0  2  0  0  0  0  0  0
  197.9360  172.9240  139.8030 C   0  0  0  0  0  2  0  0  0  0  0  0
  195.7660  171.7880  136.7200 C   0  0  0  0  0  0  0  0  0  0  0  0
  196.9390  169.8420  136.8520 C   0  0  0  0  0  0  0  0  0  0  0  0
  197.3480  168.6230  136.7060 N   0  0  0  0  0  2  0  0  0  0  0  0
  195.6580  170.3530  136.2990 C   0  0  2  0  0  3  0  0  0  0  0  0
  197.0150  172.0610  137.5100 C   0  0  2  0  0  3  0  0  0  0  0  0
  194.9130  172.6250  136.4850 O   0  0  0  0  0  0  0  0  0  0  0  0
  197.6680  170.7980  137.5500 O   0  0  0  0  0  0  0  0  0  0  0  0
  195.6650  170.2560  134.9060 O   0  0  0  0  0  0  0  0  0  0  0  0
  194.4730  169.6130  134.5880 C   0  0  0  0  0  1  0  0  0  0  0  0
  187.2630  176.0370  142.4670 C   0  0  0  0  0  0  0  0  0  0  0  0
  186.7270  176.5580  143.6940 N   0  0  0  0  0  2  0  0  0  0  0  0
  186.7800  176.3890  141.3570 O   0  0  0  0  0  0  0  0  0  0  0  0
  185.4790  177.3280  143.7400 C   0  0  0  0  0  2  0  0  0  0  0  0
  185.7800  178.8140  143.8900 C   0  0  0  0  0  2  0  0  0  0  0  0
  184.9690  179.3820  145.0410 C   0  0  0  0  0  2  0  0  0  0  0  0
  184.4930  178.2460  145.9280 C   0  0  0  0  0  2  0  0  0  0  0  0
  185.2640  178.2430  147.2400 C   0  0  1  0  0  3  0  0  0  0  0  0
  186.2610  177.1000  147.2700 C   0  0  0  0  0  1  0  0  0  0  0  0
  185.9350  179.4520  147.4100 O   0  0  0  0  0  1  0  0  0  0  0  0
  190.8340  176.9720  145.8710 C   0  0  0  0  0  2  0  0  0  0  0  0
  189.7420  175.0700  147.2960 C   0  0  0  0  0  1  0  0  0  0  0  0
  190.5790  176.6370  147.6420 S   0  0  0  0  0  0  0  0  0  0  0  0
  1 10  1  0  0  0  0
  1 22  1  0  0  0  0
  2 11  1  0  0  0  0
  3  5  1  0  0  0  0
  4 16  2  0  0  0  0
  5 16  1  6  0  0  0
  5  9  1  0  0  0  0
  6  2  2  0  0  0  0
  7 22  1  0  0  0  0
  7 13  1  1  0  0  0
  8 26  1  1  0  0  0
  8 25  1  0  0  0  0
  8 14  1  0  0  0  0
  9  6  1  1  0  0  0
  9  7  1  0  0  0  0
 10 17  1  6  0  0  0
 11 13  1  0  0  0  0
 12 14  2  0  0  0  0
 14 20  1  0  0  0  0
 15  4  1  0  0  0  0
 15 25  1  0  0  0  0
 16 24  1  0  0  0  0
 18  3  1  0  0  0  0
 18 23  1  0  0  0  0
 19 38  1  1  0  0  0
 19 10  1  0  0  0  0
 20 23  1  0  0  0  0
 21 24  1  0  0  0  0
 21 19  1  0  0  0  0
 22 48  1  6  0  0  0
 25 18  2  0  0  0  0
 26 27  1  0  0  0  0
 26 28  1  0  0  0  0
 27 28  1  0  0  0  0
 29 33  1  0  0  0  0
 30 35  1  0  0  0  0
 31 30  2  0  0  0  0
 32 36  1  6  0  0  0
 32 29  1  0  0  0  0
 32 30  1  0  0  0  0
 33 35  1  0  0  0  0
 33 26  1  1  0  0  0
 34 29  2  0  0  0  0
 37 36  1  0  0  0  0
 38 39  1  0  0  0  0
 39 41  1  0  0  0  0
 40 38  2  0  0  0  0
 41 42  1  0  0  0  0
 42 43  1  0  0  0  0
 43 44  1  0  0  0  0
 44 45  1  0  0  0  0
 45 46  1  6  0  0  0
 45 47  1  0  0  0  0
 48 50  1  0  0  0  0
 49 50  1  0  0  0  0
M  END
>  <MODEL>
9

>  <REMARK>
 VINA RESULT:      -5.3      2.568      3.679
  Name = 
  11 active torsions:
  status: ('A' for Active; 'I' for Inactive)
    1  A    between atoms: C_4  and  C_32
    2  A    between atoms: C_4  and  N_45
    3  A    between atoms: C_5  and  C_16
    4  A    between atoms: C_5  and  C_39
    5  A    between atoms: O_8  and  C_21
    6  A    between atoms: C_12  and  C_30
    7  A    between atoms: C_12  and  C_32
    8  A    between atoms: C_15  and  C_38
    9  A    between atoms: C_25  and  C_30
   10  A    between atoms: S_34  and  C_44
   11  A    between atoms: C_42  and  C_44
                            x       y       z     vdW  Elec       q    Type
                         _______ _______ _______ _____ _____    ______ ____

>  <TORSDO>
F 11

$$$$
