=
 OpenBabel11062420523D

 50 54  0  0  1  0  0  0  0  0999 V2000
  194.4020  174.3690  143.2100 C   0  0  1  0  0  3  0  0  0  0  0  0
  196.4160  175.7350  143.2880 O   0  0  0  0  0  0  0  0  0  0  0  0
  195.9290  174.4090  143.0470 C   0  0  2  0  0  3  0  0  0  0  0  0
  196.6400  176.3010  140.9910 C   0  0  0  0  0  3  0  0  0  0  0  0
  196.5350  172.7180  141.4700 O   0  0  0  0  0  0  0  0  0  0  0  0
  197.2170  175.3370  138.4330 O   0  0  0  0  0  0  0  0  0  0  0  0
  196.6520  174.5520  139.2430 C   0  0  0  0  0  0  0  0  0  0  0  0
  196.3420  173.9460  141.6770 C   0  0  0  0  0  0  0  0  0  0  0  0
  196.5240  174.9170  140.6290 N   0  0  0  0  0  0  0  0  0  0  0  0
  196.6020  176.6770  142.2690 C   0  0  0  0  0  3  0  0  0  0  0  0
  196.0900  173.2640  138.7220 C   0  0  0  0  0  2  0  0  0  0  0  0
  193.6990  172.8210  138.8830 C   0  0  0  0  0  2  0  0  0  0  0  0
  194.6870  173.4520  138.2560 C   0  0  0  0  0  0  0  0  0  0  0  0
  194.4230  174.3810  137.1980 N   0  0  0  0  0  2  0  0  0  0  0  0
  193.3280  176.2730  136.3240 N   0  0  0  0  0  2  0  0  0  0  0  0
  193.5180  175.4780  137.3230 C   0  0  0  0  0  3  0  0  0  0  0  0
  193.7870  173.1180  142.5900 C   0  0  0  0  0  2  0  0  0  0  0  0
  193.0910  172.2730  143.6470 C   0  0  1  0  0  3  0  0  0  0  0  0
  188.0560  172.6770  141.8800 C   0  0  0  0  0  1  0  0  0  0  0  0
  190.6370  172.0630  144.4100 C   0  0  0  0  0  3  0  0  0  0  0  0
  189.3210  172.4940  142.6390 C   0  0  0  0  0  0  0  0  0  0  0  0
  189.3610  172.1710  143.9490 N   0  0  0  0  0  0  0  0  0  0  0  0
  190.8580  172.6600  141.9840 S   0  0  0  0  0  0  0  0  0  0  0  0
  191.6110  172.3020  143.4430 C   0  0  0  0  0  0  0  0  0  0  0  0
  193.7110  170.5570  143.6270 P   0  0  1  0  0  0  0  0  0  0  0  0
  193.0930  169.7780  144.7660 O   0  0  0  0  0  1  0  0  0  0  0  0
  193.2940  169.8300  142.1570 O   0  0  0  0  0  0  0  0  0  0  0  0
  195.4560  170.5690  143.8010 N   0  0  0  0  0  2  0  0  0  0  0  0
  195.7590  171.1490  145.0970 C   0  0  0  0  0  1  0  0  0  0  0  0
  193.9600  174.5060  144.6710 C   0  0  0  0  0  2  0  0  0  0  0  0
  188.9680  177.5710  145.7200 C   0  0  0  0  0  3  0  0  0  0  0  0
  191.3670  175.2280  148.1810 C   0  0  0  0  0  1  0  0  0  0  0  0
  193.0630  175.9920  146.5000 C   0  0  0  0  0  2  0  0  0  0  0  0
  190.1270  177.0840  146.1860 C   0  0  0  0  0  3  0  0  0  0  0  0
  190.6380  175.7210  145.8010 C   0  0  1  0  0  3  0  0  0  0  0  0
  193.5090  175.9230  145.0390 C   0  0  2  0  0  3  0  0  0  0  0  0
  187.9910  176.8260  144.8240 C   0  0  2  0  0  3  0  0  0  0  0  0
  191.0810  175.6820  144.3200 C   0  0  1  0  0  3  0  0  0  0  0  0
  190.0340  176.2500  143.3580 C   0  0  0  0  0  2  0  0  0  0  0  0
  191.7640  175.2150  146.7150 C   0  0  2  0  0  3  0  0  0  0  0  0
  188.6170  175.8720  143.7800 C   0  0  0  0  0  2  0  0  0  0  0  0
  192.4020  176.4300  144.1100 C   0  0  0  0  0  2  0  0  0  0  0  0
  187.0100  177.8020  144.1630 C   0  0  2  0  0  3  0  0  0  0  0  0
  185.1390  177.3790  142.6960 C   0  0  2  0  0  3  0  0  0  0  0  0
  184.6380  178.0220  143.9020 N   0  0  0  0  0  2  0  0  0  0  0  0
  185.6820  177.8370  144.8950 C   0  0  0  0  0  2  0  0  0  0  0  0
  186.6540  177.3710  142.7560 C   0  0  0  0  0  2  0  0  0  0  0  0
  184.6630  178.1110  141.4860 C   0  0  0  0  0  0  0  0  0  0  0  0
  183.4590  178.4660  141.4060 O   0  0  0  0  0  1  0  0  0  0  0  0
  185.5410  178.4120  140.4530 O   0  0  0  0  0  0  0  0  0  0  0  0
  1 17  1  1  0  0  0
  1 30  1  0  0  0  0
  3  1  1  6  0  0  0
  3  2  1  0  0  0  0
  4 10  2  0  0  0  0
  5  8  2  0  0  0  0
  6  7  2  0  0  0  0
  7  9  1  0  0  0  0
  8  3  1  0  0  0  0
  9  4  1  0  0  0  0
  9  8  1  0  0  0  0
 10  2  1  0  0  0  0
 11  7  1  0  0  0  0
 13 11  1  0  0  0  0
 13 12  2  0  0  0  0
 14 16  1  0  0  0  0
 14 13  1  0  0  0  0
 15 16  2  0  0  0  0
 18 17  1  6  0  0  0
 19 21  1  0  0  0  0
 21 22  2  0  0  0  0
 22 20  1  0  0  0  0
 23 21  1  0  0  0  0
 23 24  1  0  0  0  0
 24 18  1  0  0  0  0
 24 20  2  0  0  0  0
 25 27  2  6  0  0  0
 25 18  1  0  0  0  0
 25 28  1  0  0  0  0
 25 26  1  0  0  0  0
 28 29  1  0  0  0  0
 31 34  2  0  0  0  0
 33 40  1  0  0  0  0
 35 34  1  1  0  0  0
 35 40  1  0  0  0  0
 36 30  1  6  0  0  0
 36 33  1  0  0  0  0
 37 41  1  6  0  0  0
 37 31  1  0  0  0  0
 38 39  1  6  0  0  0
 38 35  1  0  0  0  0
 39 41  1  0  0  0  0
 40 32  1  1  0  0  0
 42 38  1  0  0  0  0
 42 36  1  0  0  0  0
 43 47  1  6  0  0  0
 43 37  1  0  0  0  0
 43 46  1  0  0  0  0
 44 48  1  6  0  0  0
 44 47  1  0  0  0  0
 44 45  1  0  0  0  0
 45 46  1  0  0  0  0
 49 48  1  0  0  0  0
 50 48  2  0  0  0  0
M  END
>  <MODEL>
1

>  <REMARK>
 VINA RESULT:      -7.1      0.000      0.000
  Name = 
  13 active torsions:
  status: ('A' for Active; 'I' for Inactive)
    1  A    between atoms: C_2  and  C_35
    2  A    between atoms: C_4  and  C_20
    3  A    between atoms: C_5  and  CA_13
    4  A    between atoms: P_8  and  N_9
    5  A    between atoms: P_8  and  C_17
    6  A    between atoms: N_14  and  C_47
    7  A    between atoms: C_17  and  C_28
    8  A    between atoms: C_17  and  C_38
    9  A    between atoms: C_20  and  C_28
   10  A    between atoms: C_20  and  C_37
   11  A    between atoms: C_26  and  C_32
   12  A    between atoms: C_31  and  C_37
   13  A    between atoms: C_32  and  C_47
                            x       y       z     vdW  Elec       q    Type
                         _______ _______ _______ _____ _____    ______ ____

>  <TORSDO>
F 13

$$$$
=
 OpenBabel11062420523D

 50 54  0  0  1  0  0  0  0  0999 V2000
  193.7370  173.8130  141.5580 C   0  0  1  0  0  3  0  0  0  0  0  0
  195.9990  174.6190  141.9630 O   0  0  0  0  0  0  0  0  0  0  0  0
  194.6390  175.0360  141.7870 C   0  0  2  0  0  3  0  0  0  0  0  0
  195.9720  174.7990  144.3320 C   0  0  0  0  0  3  0  0  0  0  0  0
  193.3130  176.7320  142.8260 O   0  0  0  0  0  0  0  0  0  0  0  0
  194.9280  176.1900  146.5190 O   0  0  0  0  0  0  0  0  0  0  0  0
  194.2020  176.0790  145.4930 C   0  0  0  0  0  0  0  0  0  0  0  0
  194.1820  175.8330  142.9780 C   0  0  0  0  0  0  0  0  0  0  0  0
  194.7590  175.5640  144.2700 N   0  0  0  0  0  0  0  0  0  0  0  0
  196.5640  174.3670  143.2190 C   0  0  0  0  0  3  0  0  0  0  0  0
  192.7550  176.4530  145.5930 C   0  0  0  0  0  2  0  0  0  0  0  0
  192.4300  174.0820  146.0520 C   0  0  0  0  0  2  0  0  0  0  0  0
  191.9530  175.3200  146.1340 C   0  0  0  0  0  0  0  0  0  0  0  0
  190.7250  175.5990  146.8170 N   0  0  0  0  0  2  0  0  0  0  0  0
  188.4360  175.2100  147.2130 N   0  0  0  0  0  2  0  0  0  0  0  0
  189.5060  174.9000  146.5600 C   0  0  0  0  0  3  0  0  0  0  0  0
  193.6840  172.8980  142.7780 C   0  0  0  0  0  2  0  0  0  0  0  0
  194.4510  171.6090  142.5240 C   0  0  1  0  0  3  0  0  0  0  0  0
  197.2110  169.3290  146.5020 C   0  0  0  0  0  1  0  0  0  0  0  0
  194.3230  171.0490  145.0380 C   0  0  0  0  0  3  0  0  0  0  0  0
  196.2320  170.0110  145.6150 C   0  0  0  0  0  0  0  0  0  0  0  0
  195.0340  170.4640  146.0400 N   0  0  0  0  0  0  0  0  0  0  0  0
  196.4740  170.3110  143.9810 S   0  0  0  0  0  0  0  0  0  0  0  0
  194.9780  171.0560  143.8090 C   0  0  0  0  0  0  0  0  0  0  0  0
  193.4020  170.3800  141.6750 P   0  0  1  0  0  0  0  0  0  0  0  0
  193.0400  170.8840  140.2960 O   0  0  0  0  0  0  0  0  0  0  0  0
  194.2500  168.9220  141.5370 O   0  0  0  0  0  1  0  0  0  0  0  0
  191.9400  170.1220  142.6100 N   0  0  0  0  0  2  0  0  0  0  0  0
  191.0400  169.3260  141.7950 C   0  0  0  0  0  1  0  0  0  0  0  0
  192.3180  174.1980  141.1240 C   0  0  0  0  0  2  0  0  0  0  0  0
  186.6700  175.2810  142.6520 C   0  0  0  0  0  3  0  0  0  0  0  0
  188.3420  173.0600  139.5580 C   0  0  0  0  0  1  0  0  0  0  0  0
  190.1680  172.8900  141.2670 C   0  0  0  0  0  2  0  0  0  0  0  0
  187.5610  174.4510  142.0910 C   0  0  0  0  0  3  0  0  0  0  0  0
  188.6830  174.9480  141.2190 C   0  0  1  0  0  3  0  0  0  0  0  0
  191.2310  173.6550  142.0570 C   0  0  2  0  0  3  0  0  0  0  0  0
  186.6100  176.7860  142.4460 C   0  0  2  0  0  3  0  0  0  0  0  0
  189.7420  175.7160  142.0430 C   0  0  1  0  0  3  0  0  0  0  0  0
  189.1380  176.7890  142.9550 C   0  0  0  0  0  2  0  0  0  0  0  0
  189.3470  173.8360  140.3920 C   0  0  2  0  0  3  0  0  0  0  0  0
  187.9690  177.5060  142.2870 C   0  0  0  0  0  2  0  0  0  0  0  0
  190.5890  174.7650  142.8940 C   0  0  0  0  0  2  0  0  0  0  0  0
  185.7570  177.4480  143.5350 C   0  0  2  0  0  3  0  0  0  0  0  0
  186.3490  178.1460  145.7700 C   0  0  2  0  0  3  0  0  0  0  0  0
  185.9260  179.3200  145.0220 N   0  0  0  0  0  2  0  0  0  0  0  0
  186.0270  178.9390  143.6230 C   0  0  0  0  0  2  0  0  0  0  0  0
  186.1000  176.9210  144.9120 C   0  0  0  0  0  2  0  0  0  0  0  0
  185.5930  178.0540  147.0530 C   0  0  0  0  0  0  0  0  0  0  0  0
  186.0960  177.4440  148.0310 O   0  0  0  0  0  1  0  0  0  0  0  0
  184.3410  178.6440  147.1780 O   0  0  0  0  0  0  0  0  0  0  0  0
  1 30  1  1  0  0  0
  1 17  1  0  0  0  0
  2 10  1  0  0  0  0
  3  1  1  1  0  0  0
  3  2  1  0  0  0  0
  3  8  1  0  0  0  0
  5  8  2  0  0  0  0
  7 11  1  0  0  0  0
  7  6  2  0  0  0  0
  8  9  1  0  0  0  0
  9  4  1  0  0  0  0
  9  7  1  0  0  0  0
 10  4  2  0  0  0  0
 11 13  1  0  0  0  0
 12 13  2  0  0  0  0
 13 14  1  0  0  0  0
 16 14  1  0  0  0  0
 16 15  2  0  0  0  0
 18 17  1  1  0  0  0
 18 24  1  0  0  0  0
 20 22  1  0  0  0  0
 21 22  2  0  0  0  0
 21 19  1  0  0  0  0
 23 21  1  0  0  0  0
 24 23  1  0  0  0  0
 24 20  2  0  0  0  0
 25 26  2  6  0  0  0
 25 18  1  0  0  0  0
 25 28  1  0  0  0  0
 27 25  1  0  0  0  0
 29 28  1  0  0  0  0
 33 36  1  0  0  0  0
 34 31  2  0  0  0  0
 35 38  1  0  0  0  0
 35 34  1  1  0  0  0
 36 30  1  6  0  0  0
 36 42  1  0  0  0  0
 37 41  1  1  0  0  0
 37 31  1  0  0  0  0
 37 43  1  0  0  0  0
 38 42  1  1  0  0  0
 38 39  1  0  0  0  0
 40 32  1  1  0  0  0
 40 35  1  0  0  0  0
 40 33  1  0  0  0  0
 41 39  1  0  0  0  0
 43 46  1  1  0  0  0
 43 47  1  0  0  0  0
 44 48  1  1  0  0  0
 45 44  1  0  0  0  0
 46 45  1  0  0  0  0
 47 44  1  0  0  0  0
 48 50  2  0  0  0  0
 48 49  1  0  0  0  0
M  END
>  <MODEL>
2

>  <REMARK>
 VINA RESULT:      -6.7      3.058      5.656
  Name = 
  13 active torsions:
  status: ('A' for Active; 'I' for Inactive)
    1  A    between atoms: C_2  and  C_35
    2  A    between atoms: C_4  and  C_20
    3  A    between atoms: C_5  and  CA_13
    4  A    between atoms: P_8  and  N_9
    5  A    between atoms: P_8  and  C_17
    6  A    between atoms: N_14  and  C_47
    7  A    between atoms: C_17  and  C_28
    8  A    between atoms: C_17  and  C_38
    9  A    between atoms: C_20  and  C_28
   10  A    between atoms: C_20  and  C_37
   11  A    between atoms: C_26  and  C_32
   12  A    between atoms: C_31  and  C_37
   13  A    between atoms: C_32  and  C_47
                            x       y       z     vdW  Elec       q    Type
                         _______ _______ _______ _____ _____    ______ ____

>  <TORSDO>
F 13

$$$$
=
 OpenBabel11062420523D

 50 54  0  0  1  0  0  0  0  0999 V2000
  195.0230  172.9340  142.9550 C   0  0  1  0  0  3  0  0  0  0  0  0
  195.3670  170.6850  142.0900 O   0  0  0  0  0  0  0  0  0  0  0  0
  194.6400  171.4500  143.0590 C   0  0  2  0  0  3  0  0  0  0  0  0
  193.5700  170.5410  140.5420 C   0  0  0  0  0  3  0  0  0  0  0  0
  192.3950  171.3320  143.8690 O   0  0  0  0  0  0  0  0  0  0  0  0
  190.7950  170.3860  140.2500 O   0  0  0  0  0  0  0  0  0  0  0  0
  191.2470  171.0290  141.2370 C   0  0  0  0  0  0  0  0  0  0  0  0
  193.1610  171.2540  142.8720 C   0  0  0  0  0  0  0  0  0  0  0  0
  192.6490  170.9660  141.5570 N   0  0  0  0  0  0  0  0  0  0  0  0
  194.8660  170.3950  140.8140 C   0  0  0  0  0  3  0  0  0  0  0  0
  190.3060  171.8830  142.0310 C   0  0  0  0  0  2  0  0  0  0  0  0
  190.9300  173.6300  140.4510 C   0  0  0  0  0  2  0  0  0  0  0  0
  190.0450  173.1720  141.3300 C   0  0  0  0  0  0  0  0  0  0  0  0
  188.8000  173.8450  141.5510 N   0  0  0  0  0  2  0  0  0  0  0  0
  187.4600  175.7820  141.5560 N   0  0  0  0  0  2  0  0  0  0  0  0
  188.6120  175.2430  141.3310 C   0  0  0  0  0  3  0  0  0  0  0  0
  194.5640  173.5570  141.6400 C   0  0  0  0  0  2  0  0  0  0  0  0
  195.7490  173.8300  140.7260 C   0  0  1  0  0  3  0  0  0  0  0  0
  195.2380  172.7150  135.5160 C   0  0  0  0  0  1  0  0  0  0  0  0
  194.2310  174.2600  138.6850 C   0  0  0  0  0  3  0  0  0  0  0  0
  195.1190  173.1820  136.9220 C   0  0  0  0  0  0  0  0  0  0  0  0
  194.1150  173.9710  137.3610 N   0  0  0  0  0  0  0  0  0  0  0  0
  196.2000  172.8010  138.1490 S   0  0  0  0  0  0  0  0  0  0  0  0
  195.3440  173.6850  139.2940 C   0  0  0  0  0  0  0  0  0  0  0  0
  196.4440  175.4890  141.0330 P   0  0  1  0  0  0  0  0  0  0  0  0
  197.3660  175.8740  139.8980 O   0  0  0  0  0  0  0  0  0  0  0  0
  195.1840  176.6130  141.1390 O   0  0  0  0  0  1  0  0  0  0  0  0
  197.3420  175.4710  142.5400 N   0  0  0  0  0  2  0  0  0  0  0  0
  197.2110  176.7870  143.1390 C   0  0  0  0  0  1  0  0  0  0  0  0
  194.5090  173.7610  144.1390 C   0  0  0  0  0  2  0  0  0  0  0  0
  189.8900  177.0280  145.9840 C   0  0  0  0  0  3  0  0  0  0  0  0
  193.9470  177.1760  146.8920 C   0  0  0  0  0  1  0  0  0  0  0  0
  194.0410  176.1980  144.5860 C   0  0  0  0  0  2  0  0  0  0  0  0
  191.2020  176.9550  145.7170 C   0  0  0  0  0  3  0  0  0  0  0  0
  192.0260  175.7430  146.0610 C   0  0  1  0  0  3  0  0  0  0  0  0
  193.6970  174.9890  143.7150 C   0  0  2  0  0  3  0  0  0  0  0  0
  189.0750  175.9700  146.7110 C   0  0  2  0  0  3  0  0  0  0  0  0
  191.6570  174.5370  145.1650 C   0  0  1  0  0  3  0  0  0  0  0  0
  190.1500  174.2700  145.0970 C   0  0  0  0  0  2  0  0  0  0  0  0
  193.5390  176.0040  146.0160 C   0  0  2  0  0  3  0  0  0  0  0  0
  189.4760  174.5010  146.4460 C   0  0  0  0  0  2  0  0  0  0  0  0
  192.1910  174.7140  143.7390 C   0  0  0  0  0  2  0  0  0  0  0  0
  187.5750  176.1860  146.4750 C   0  0  2  0  0  3  0  0  0  0  0  0
  186.3300  178.2230  146.1100 C   0  0  2  0  0  3  0  0  0  0  0  0
  186.1780  177.3770  144.9350 N   0  0  0  0  0  2  0  0  0  0  0  0
  187.2710  176.4220  145.0080 C   0  0  0  0  0  2  0  0  0  0  0  0
  187.0730  177.4340  147.1700 C   0  0  0  0  0  2  0  0  0  0  0  0
  184.9930  178.6520  146.6120 C   0  0  0  0  0  0  0  0  0  0  0  0
  184.7670  178.6700  147.8490 O   0  0  0  0  0  1  0  0  0  0  0  0
  183.9980  179.0410  145.7230 O   0  0  0  0  0  0  0  0  0  0  0  0
  1 17  1  6  0  0  0
  1 30  1  0  0  0  0
  2  3  1  0  0  0  0
  3  1  1  6  0  0  0
  4 10  2  0  0  0  0
  4  9  1  0  0  0  0
  6  7  2  0  0  0  0
  7  9  1  0  0  0  0
  7 11  1  0  0  0  0
  8  3  1  0  0  0  0
  8  5  2  0  0  0  0
  9  8  1  0  0  0  0
 10  2  1  0  0  0  0
 12 13  2  0  0  0  0
 13 14  1  0  0  0  0
 13 11  1  0  0  0  0
 16 14  1  0  0  0  0
 16 15  2  0  0  0  0
 18 25  1  0  0  0  0
 18 17  1  1  0  0  0
 19 21  1  0  0  0  0
 20 24  2  0  0  0  0
 21 22  2  0  0  0  0
 21 23  1  0  0  0  0
 22 20  1  0  0  0  0
 23 24  1  0  0  0  0
 24 18  1  0  0  0  0
 25 26  2  6  0  0  0
 25 27  1  0  0  0  0
 25 28  1  0  0  0  0
 28 29  1  0  0  0  0
 33 40  1  0  0  0  0
 34 31  2  0  0  0  0
 35 34  1  6  0  0  0
 36 42  1  0  0  0  0
 36 30  1  1  0  0  0
 36 33  1  0  0  0  0
 37 31  1  6  0  0  0
 38 42  1  6  0  0  0
 38 35  1  0  0  0  0
 39 38  1  0  0  0  0
 39 41  1  0  0  0  0
 40 35  1  0  0  0  0
 40 32  1  1  0  0  0
 41 37  1  0  0  0  0
 43 46  1  6  0  0  0
 43 37  1  0  0  0  0
 43 47  1  0  0  0  0
 44 48  1  1  0  0  0
 44 47  1  0  0  0  0
 45 46  1  0  0  0  0
 45 44  1  0  0  0  0
 48 49  1  0  0  0  0
 50 48  2  0  0  0  0
M  END
>  <MODEL>
3

>  <REMARK>
 VINA RESULT:      -6.6      2.559      5.248
  Name = 
  13 active torsions:
  status: ('A' for Active; 'I' for Inactive)
    1  A    between atoms: C_2  and  C_35
    2  A    between atoms: C_4  and  C_20
    3  A    between atoms: C_5  and  CA_13
    4  A    between atoms: P_8  and  N_9
    5  A    between atoms: P_8  and  C_17
    6  A    between atoms: N_14  and  C_47
    7  A    between atoms: C_17  and  C_28
    8  A    between atoms: C_17  and  C_38
    9  A    between atoms: C_20  and  C_28
   10  A    between atoms: C_20  and  C_37
   11  A    between atoms: C_26  and  C_32
   12  A    between atoms: C_31  and  C_37
   13  A    between atoms: C_32  and  C_47
                            x       y       z     vdW  Elec       q    Type
                         _______ _______ _______ _____ _____    ______ ____

>  <TORSDO>
F 13

$$$$
=
 OpenBabel11062420523D

 50 54  0  0  1  0  0  0  0  0999 V2000
  193.6290  171.5110  143.8650 C   0  0  1  0  0  3  0  0  0  0  0  0
  193.3050  169.1210  143.5330 O   0  0  0  0  0  0  0  0  0  0  0  0
  192.6240  170.3500  143.8140 C   0  0  2  0  0  3  0  0  0  0  0  0
  192.7310  169.0820  141.2280 C   0  0  0  0  0  3  0  0  0  0  0  0
  190.5220  171.2400  143.1080 O   0  0  0  0  0  0  0  0  0  0  0  0
  190.7940  169.7570  139.3300 O   0  0  0  0  0  0  0  0  0  0  0  0
  190.9060  170.4990  140.3440 C   0  0  0  0  0  0  0  0  0  0  0  0
  191.5570  170.6000  142.7840 C   0  0  0  0  0  0  0  0  0  0  0  0
  191.7310  170.0870  141.4500 N   0  0  0  0  0  0  0  0  0  0  0  0
  193.4670  168.6170  142.2370 C   0  0  0  0  0  3  0  0  0  0  0  0
  190.2000  171.8200  140.3500 C   0  0  0  0  0  2  0  0  0  0  0  0
  191.6030  173.8040  140.5430 C   0  0  0  0  0  2  0  0  0  0  0  0
  191.0620  172.8810  139.7540 C   0  0  0  0  0  0  0  0  0  0  0  0
  191.3640  172.8290  138.3550 N   0  0  0  0  0  2  0  0  0  0  0  0
  191.2140  173.6850  136.1660 N   0  0  0  0  0  2  0  0  0  0  0  0
  190.9040  173.7990  137.4150 C   0  0  0  0  0  3  0  0  0  0  0  0
  193.8990  172.1020  142.4840 C   0  0  0  0  0  2  0  0  0  0  0  0
  195.3350  171.8410  142.0520 C   0  0  1  0  0  3  0  0  0  0  0  0
  196.2230  169.6270  137.2610 C   0  0  0  0  0  1  0  0  0  0  0  0
  194.7030  172.0450  139.5600 C   0  0  0  0  0  3  0  0  0  0  0  0
  195.7910  170.4310  138.4350 C   0  0  0  0  0  0  0  0  0  0  0  0
  194.9400  171.4750  138.3480 N   0  0  0  0  0  0  0  0  0  0  0  0
  196.2930  170.1590  140.0140 S   0  0  0  0  0  0  0  0  0  0  0  0
  195.3790  171.4350  140.6140 C   0  0  0  0  0  0  0  0  0  0  0  0
  196.3820  173.3070  142.3410 P   0  0  1  0  0  0  0  0  0  0  0  0
  197.6780  173.1670  141.5750 O   0  0  0  0  0  0  0  0  0  0  0  0
  195.5640  174.6910  141.8130 O   0  0  0  0  0  1  0  0  0  0  0  0
  196.7240  173.4460  144.0550 N   0  0  0  0  0  2  0  0  0  0  0  0
  197.5640  174.6170  144.2360 C   0  0  0  0  0  1  0  0  0  0  0  0
  193.2070  172.6170  144.8390 C   0  0  0  0  0  2  0  0  0  0  0  0
  189.9580  177.4900  145.8920 C   0  0  0  0  0  3  0  0  0  0  0  0
  193.9360  176.5700  146.6830 C   0  0  0  0  0  1  0  0  0  0  0  0
  193.5300  175.1130  144.6840 C   0  0  0  0  0  2  0  0  0  0  0  0
  191.1590  176.9530  145.6340 C   0  0  0  0  0  3  0  0  0  0  0  0
  191.6090  175.6560  146.2510 C   0  0  1  0  0  3  0  0  0  0  0  0
  192.7660  173.9060  144.1390 C   0  0  2  0  0  3  0  0  0  0  0  0
  188.9310  176.9340  146.8650 C   0  0  2  0  0  3  0  0  0  0  0  0
  190.8200  174.4550  145.6810 C   0  0  1  0  0  3  0  0  0  0  0  0
  189.3020  174.6630  145.7000 C   0  0  0  0  0  2  0  0  0  0  0  0
  193.1210  175.4160  146.1250 C   0  0  2  0  0  3  0  0  0  0  0  0
  188.8490  175.3930  146.9610 C   0  0  0  0  0  2  0  0  0  0  0  0
  191.2540  174.1270  144.2490 C   0  0  0  0  0  2  0  0  0  0  0  0
  187.5500  177.5460  146.6030 C   0  0  2  0  0  3  0  0  0  0  0  0
  185.8590  176.9480  144.9850 C   0  0  2  0  0  3  0  0  0  0  0  0
  185.2980  176.7780  146.3170 N   0  0  0  0  0  2  0  0  0  0  0  0
  186.4430  176.7030  147.2080 C   0  0  0  0  0  2  0  0  0  0  0  0
  187.2270  177.5880  145.1240 C   0  0  0  0  0  2  0  0  0  0  0  0
  184.9610  177.8000  144.1530 C   0  0  0  0  0  0  0  0  0  0  0  0
  184.8820  177.5980  142.9140 O   0  0  0  0  0  0  0  0  0  0  0  0
  184.2040  178.8080  144.7370 O   0  0  0  0  0  1  0  0  0  0  0  0
  1 17  1  6  0  0  0
  1 30  1  0  0  0  0
  2  3  1  0  0  0  0
  3  1  1  6  0  0  0
  4  9  1  0  0  0  0
  4 10  2  0  0  0  0
  6  7  2  0  0  0  0
  7 11  1  0  0  0  0
  7  9  1  0  0  0  0
  8  5  2  0  0  0  0
  8  3  1  0  0  0  0
  9  8  1  0  0  0  0
 10  2  1  0  0  0  0
 13 11  1  0  0  0  0
 13 12  2  0  0  0  0
 14 13  1  0  0  0  0
 15 16  2  0  0  0  0
 16 14  1  0  0  0  0
 18 25  1  0  0  0  0
 18 17  1  6  0  0  0
 19 21  1  0  0  0  0
 20 24  2  0  0  0  0
 21 23  1  0  0  0  0
 22 21  2  0  0  0  0
 22 20  1  0  0  0  0
 23 24  1  0  0  0  0
 24 18  1  0  0  0  0
 25 26  2  6  0  0  0
 25 28  1  0  0  0  0
 27 25  1  0  0  0  0
 28 29  1  0  0  0  0
 33 40  1  0  0  0  0
 34 31  2  0  0  0  0
 35 34  1  6  0  0  0
 36 42  1  0  0  0  0
 36 33  1  0  0  0  0
 36 30  1  1  0  0  0
 37 31  1  6  0  0  0
 37 41  1  0  0  0  0
 38 42  1  6  0  0  0
 38 39  1  0  0  0  0
 38 35  1  0  0  0  0
 39 41  1  0  0  0  0
 40 35  1  0  0  0  0
 40 32  1  6  0  0  0
 43 47  1  6  0  0  0
 43 37  1  0  0  0  0
 43 46  1  0  0  0  0
 44 48  1  6  0  0  0
 44 47  1  0  0  0  0
 44 45  1  0  0  0  0
 45 46  1  0  0  0  0
 48 50  1  0  0  0  0
 49 48  2  0  0  0  0
M  END
>  <MODEL>
4

>  <REMARK>
 VINA RESULT:      -6.5      2.584      4.811
  Name = 
  13 active torsions:
  status: ('A' for Active; 'I' for Inactive)
    1  A    between atoms: C_2  and  C_35
    2  A    between atoms: C_4  and  C_20
    3  A    between atoms: C_5  and  CA_13
    4  A    between atoms: P_8  and  N_9
    5  A    between atoms: P_8  and  C_17
    6  A    between atoms: N_14  and  C_47
    7  A    between atoms: C_17  and  C_28
    8  A    between atoms: C_17  and  C_38
    9  A    between atoms: C_20  and  C_28
   10  A    between atoms: C_20  and  C_37
   11  A    between atoms: C_26  and  C_32
   12  A    between atoms: C_31  and  C_37
   13  A    between atoms: C_32  and  C_47
                            x       y       z     vdW  Elec       q    Type
                         _______ _______ _______ _____ _____    ______ ____

>  <TORSDO>
F 13

$$$$
=
 OpenBabel11062420523D

 50 54  0  0  1  0  0  0  0  0999 V2000
  193.6330  173.6770  141.6310 C   0  0  1  0  0  3  0  0  0  0  0  0
  193.4510  173.9640  139.2200 O   0  0  0  0  0  0  0  0  0  0  0  0
  194.1540  173.2550  140.2490 C   0  0  2  0  0  3  0  0  0  0  0  0
  191.9930  172.1660  138.6830 C   0  0  0  0  0  3  0  0  0  0  0  0
  194.9420  171.0060  140.4240 O   0  0  0  0  0  0  0  0  0  0  0  0
  191.7330  169.3890  138.5190 O   0  0  0  0  0  0  0  0  0  0  0  0
  192.4980  169.8550  139.4070 C   0  0  0  0  0  0  0  0  0  0  0  0
  194.0170  171.7720  140.0450 C   0  0  0  0  0  0  0  0  0  0  0  0
  192.8350  171.2550  139.4040 N   0  0  0  0  0  0  0  0  0  0  0  0
  192.3070  173.4570  138.5900 C   0  0  0  0  0  3  0  0  0  0  0  0
  193.0050  168.9350  140.4750 C   0  0  0  0  0  2  0  0  0  0  0  0
  190.9160  169.5340  141.5800 C   0  0  0  0  0  2  0  0  0  0  0  0
  192.1220  168.9830  141.6750 C   0  0  0  0  0  0  0  0  0  0  0  0
  192.5560  168.3490  142.8850 N   0  0  0  0  0  2  0  0  0  0  0  0
  193.3220  168.4300  145.1100 N   0  0  0  0  0  2  0  0  0  0  0  0
  192.9380  169.0700  144.0560 C   0  0  0  0  0  3  0  0  0  0  0  0
  194.6970  174.3960  142.4540 C   0  0  0  0  0  2  0  0  0  0  0  0
  194.4540  174.2050  143.9440 C   0  0  1  0  0  3  0  0  0  0  0  0
  196.6980  170.0280  146.4260 C   0  0  0  0  0  1  0  0  0  0  0  0
  196.6880  172.9430  144.2030 C   0  0  0  0  0  3  0  0  0  0  0  0
  196.3560  171.2260  145.6160 C   0  0  0  0  0  0  0  0  0  0  0  0
  197.2470  171.8800  144.8420 N   0  0  0  0  0  0  0  0  0  0  0  0
  194.8310  171.9280  145.5480 S   0  0  0  0  0  0  0  0  0  0  0  0
  195.3350  173.1220  144.4790 C   0  0  0  0  0  0  0  0  0  0  0  0
  194.7190  175.7620  144.8570 P   0  0  1  0  0  0  0  0  0  0  0  0
  195.1880  175.4570  146.2610 O   0  0  0  0  0  1  0  0  0  0  0  0
  195.8940  176.6830  144.0600 O   0  0  0  0  0  0  0  0  0  0  0  0
  193.2140  176.6600  144.9210 N   0  0  0  0  0  2  0  0  0  0  0  0
  192.5830  176.3570  146.1920 C   0  0  0  0  0  1  0  0  0  0  0  0
  192.3620  174.5300  141.5490 C   0  0  0  0  0  2  0  0  0  0  0  0
  186.6200  175.5590  142.7270 C   0  0  0  0  0  3  0  0  0  0  0  0
  188.4980  172.9900  140.0480 C   0  0  0  0  0  1  0  0  0  0  0  0
  190.2640  173.1570  141.8190 C   0  0  0  0  0  2  0  0  0  0  0  0
  187.5660  174.6990  142.3230 C   0  0  0  0  0  3  0  0  0  0  0  0
  188.6980  175.1140  141.4210 C   0  0  1  0  0  3  0  0  0  0  0  0
  191.2650  174.0790  142.5180 C   0  0  2  0  0  3  0  0  0  0  0  0
  186.5050  177.0130  142.2980 C   0  0  2  0  0  3  0  0  0  0  0  0
  189.6920  176.0440  142.1540 C   0  0  1  0  0  3  0  0  0  0  0  0
  189.0100  177.2090  142.8790 C   0  0  0  0  0  2  0  0  0  0  0  0
  189.4370  173.9260  140.7880 C   0  0  2  0  0  3  0  0  0  0  0  0
  187.8380  177.7650  142.0760 C   0  0  0  0  0  2  0  0  0  0  0  0
  190.5470  175.2680  143.1620 C   0  0  0  0  0  2  0  0  0  0  0  0
  185.5860  177.7870  143.2510 C   0  0  2  0  0  3  0  0  0  0  0  0
  186.0310  178.7210  145.4340 C   0  0  2  0  0  3  0  0  0  0  0  0
  185.6670  179.8080  144.5370 N   0  0  0  0  0  2  0  0  0  0  0  0
  185.8580  179.2790  143.1970 C   0  0  0  0  0  2  0  0  0  0  0  0
  185.8330  177.4100  144.6970 C   0  0  0  0  0  2  0  0  0  0  0  0
  185.1910  178.7650  146.6650 C   0  0  0  0  0  0  0  0  0  0  0  0
  184.0930  178.1520  146.6930 O   0  0  0  0  0  0  0  0  0  0  0  0
  185.6160  179.4700  147.7840 O   0  0  0  0  0  1  0  0  0  0  0  0
  1 30  1  6  0  0  0
  1 17  1  0  0  0  0
  2  3  1  0  0  0  0
  3  1  1  1  0  0  0
  4  9  1  0  0  0  0
  6  7  2  0  0  0  0
  7 11  1  0  0  0  0
  8  3  1  0  0  0  0
  8  5  2  0  0  0  0
  9  7  1  0  0  0  0
  9  8  1  0  0  0  0
 10  4  2  0  0  0  0
 10  2  1  0  0  0  0
 11 13  1  0  0  0  0
 12 13  2  0  0  0  0
 13 14  1  0  0  0  0
 14 16  1  0  0  0  0
 16 15  2  0  0  0  0
 18 17  1  6  0  0  0
 18 24  1  0  0  0  0
 18 25  1  0  0  0  0
 20 24  2  0  0  0  0
 20 22  1  0  0  0  0
 21 19  1  0  0  0  0
 22 21  2  0  0  0  0
 23 21  1  0  0  0  0
 24 23  1  0  0  0  0
 25 27  2  6  0  0  0
 25 28  1  0  0  0  0
 25 26  1  0  0  0  0
 28 29  1  0  0  0  0
 33 36  1  0  0  0  0
 34 31  2  0  0  0  0
 35 38  1  0  0  0  0
 35 34  1  1  0  0  0
 36 30  1  6  0  0  0
 36 42  1  0  0  0  0
 37 41  1  1  0  0  0
 37 31  1  0  0  0  0
 37 43  1  0  0  0  0
 38 39  1  1  0  0  0
 38 42  1  0  0  0  0
 40 32  1  1  0  0  0
 40 35  1  0  0  0  0
 40 33  1  0  0  0  0
 41 39  1  0  0  0  0
 43 46  1  1  0  0  0
 43 47  1  0  0  0  0
 44 48  1  1  0  0  0
 45 44  1  0  0  0  0
 46 45  1  0  0  0  0
 47 44  1  0  0  0  0
 48 49  2  0  0  0  0
 48 50  1  0  0  0  0
M  END
>  <MODEL>
5

>  <REMARK>
 VINA RESULT:      -6.5      2.942      5.698
  Name = 
  13 active torsions:
  status: ('A' for Active; 'I' for Inactive)
    1  A    between atoms: C_2  and  C_35
    2  A    between atoms: C_4  and  C_20
    3  A    between atoms: C_5  and  CA_13
    4  A    between atoms: P_8  and  N_9
    5  A    between atoms: P_8  and  C_17
    6  A    between atoms: N_14  and  C_47
    7  A    between atoms: C_17  and  C_28
    8  A    between atoms: C_17  and  C_38
    9  A    between atoms: C_20  and  C_28
   10  A    between atoms: C_20  and  C_37
   11  A    between atoms: C_26  and  C_32
   12  A    between atoms: C_31  and  C_37
   13  A    between atoms: C_32  and  C_47
                            x       y       z     vdW  Elec       q    Type
                         _______ _______ _______ _____ _____    ______ ____

>  <TORSDO>
F 13

$$$$
=
 OpenBabel11062420523D

 50 54  0  0  1  0  0  0  0  0999 V2000
  193.8160  173.7890  141.7100 C   0  0  1  0  0  3  0  0  0  0  0  0
  194.5360  175.5240  140.1610 O   0  0  0  0  0  0  0  0  0  0  0  0
  195.0050  174.5180  141.0670 C   0  0  2  0  0  3  0  0  0  0  0  0
  194.8940  174.2270  138.2020 C   0  0  0  0  0  3  0  0  0  0  0  0
  196.8390  172.9870  140.9860 O   0  0  0  0  0  0  0  0  0  0  0  0
  196.4950  172.2810  136.9950 O   0  0  0  0  0  0  0  0  0  0  0  0
  196.3440  172.2240  138.2470 C   0  0  0  0  0  0  0  0  0  0  0  0
  195.9110  173.5550  140.3510 C   0  0  0  0  0  0  0  0  0  0  0  0
  195.7110  173.3120  138.9460 N   0  0  0  0  0  0  0  0  0  0  0  0
  194.3510  175.2910  138.7920 C   0  0  0  0  0  3  0  0  0  0  0  0
  196.7960  170.9920  138.9700 C   0  0  0  0  0  2  0  0  0  0  0  0
  196.1040  168.7440  138.3320 C   0  0  0  0  0  2  0  0  0  0  0  0
  195.7720  169.9140  138.8680 C   0  0  0  0  0  0  0  0  0  0  0  0
  194.4740  170.1300  139.4360 N   0  0  0  0  0  2  0  0  0  0  0  0
  193.0240  170.3350  141.2790 N   0  0  0  0  0  2  0  0  0  0  0  0
  194.2220  170.1360  140.8400 C   0  0  0  0  0  3  0  0  0  0  0  0
  194.0860  173.4150  143.1640 C   0  0  0  0  0  2  0  0  0  0  0  0
  194.8660  174.5120  143.8720 C   0  0  1  0  0  3  0  0  0  0  0  0
  191.5420  175.6460  147.9110 C   0  0  0  0  0  1  0  0  0  0  0  0
  193.9780  176.4700  145.2970 C   0  0  0  0  0  3  0  0  0  0  0  0
  192.5210  175.6340  146.7920 C   0  0  0  0  0  0  0  0  0  0  0  0
  193.1280  176.7450  146.3230 N   0  0  0  0  0  0  0  0  0  0  0  0
  193.0060  174.2560  145.9640 S   0  0  0  0  0  0  0  0  0  0  0  0
  194.0400  175.1200  144.9600 C   0  0  0  0  0  0  0  0  0  0  0  0
  196.4390  173.8710  144.5390 P   0  0  1  0  0  0  0  0  0  0  0  0
  197.6010  174.5660  143.8650 O   0  0  0  0  0  0  0  0  0  0  0  0
  196.4990  174.1630  146.2050 O   0  0  0  0  0  1  0  0  0  0  0  0
  196.5330  172.1450  144.2430 N   0  0  0  0  0  2  0  0  0  0  0  0
  197.1870  171.5430  145.3910 C   0  0  0  0  0  1  0  0  0  0  0  0
  192.5090  174.5830  141.6030 C   0  0  0  0  0  2  0  0  0  0  0  0
  186.7280  175.3880  142.7630 C   0  0  0  0  0  3  0  0  0  0  0  0
  188.7170  172.7990  140.1860 C   0  0  0  0  0  1  0  0  0  0  0  0
  190.4790  173.1250  141.9400 C   0  0  0  0  0  2  0  0  0  0  0  0
  187.7120  174.5570  142.3910 C   0  0  0  0  0  3  0  0  0  0  0  0
  188.8200  174.9870  141.4670 C   0  0  1  0  0  3  0  0  0  0  0  0
  191.4360  174.1220  142.5950 C   0  0  2  0  0  3  0  0  0  0  0  0
  186.5430  176.8160  142.2740 C   0  0  2  0  0  3  0  0  0  0  0  0
  189.7710  175.9930  142.1560 C   0  0  1  0  0  3  0  0  0  0  0  0
  189.0370  177.1540  142.8340 C   0  0  0  0  0  2  0  0  0  0  0  0
  189.6140  173.8090  140.8820 C   0  0  2  0  0  3  0  0  0  0  0  0
  187.8380  177.6200  142.0140 C   0  0  0  0  0  2  0  0  0  0  0  0
  190.6640  175.3020  143.1910 C   0  0  0  0  0  2  0  0  0  0  0  0
  185.5900  177.5850  143.1970 C   0  0  2  0  0  3  0  0  0  0  0  0
  186.0420  178.8270  145.2190 C   0  0  2  0  0  3  0  0  0  0  0  0
  185.4880  179.7440  144.2340 N   0  0  0  0  0  2  0  0  0  0  0  0
  185.6650  179.0810  142.9530 C   0  0  0  0  0  2  0  0  0  0  0  0
  185.9690  177.4220  144.6540 C   0  0  0  0  0  2  0  0  0  0  0  0
  185.2770  178.9220  146.4970 C   0  0  0  0  0  0  0  0  0  0  0  0
  184.0740  178.5580  146.5320 O   0  0  0  0  0  0  0  0  0  0  0  0
  185.8880  179.3990  147.6500 O   0  0  0  0  0  1  0  0  0  0  0  0
  1 30  1  1  0  0  0
  1 17  1  0  0  0  0
  2  3  1  0  0  0  0
  3  1  1  6  0  0  0
  4 10  2  0  0  0  0
  4  9  1  0  0  0  0
  6  7  2  0  0  0  0
  7  9  1  0  0  0  0
  7 11  1  0  0  0  0
  8  5  2  0  0  0  0
  8  3  1  0  0  0  0
  9  8  1  0  0  0  0
 10  2  1  0  0  0  0
 12 13  2  0  0  0  0
 13 11  1  0  0  0  0
 13 14  1  0  0  0  0
 14 16  1  0  0  0  0
 16 15  2  0  0  0  0
 18 17  1  1  0  0  0
 18 25  1  0  0  0  0
 18 24  1  0  0  0  0
 20 22  1  0  0  0  0
 21 19  1  0  0  0  0
 22 21  2  0  0  0  0
 23 21  1  0  0  0  0
 24 20  2  0  0  0  0
 24 23  1  0  0  0  0
 25 26  2  6  0  0  0
 25 27  1  0  0  0  0
 28 25  1  0  0  0  0
 28 29  1  0  0  0  0
 33 36  1  0  0  0  0
 34 31  2  0  0  0  0
 35 38  1  0  0  0  0
 35 34  1  1  0  0  0
 36 30  1  6  0  0  0
 36 42  1  0  0  0  0
 37 41  1  1  0  0  0
 37 31  1  0  0  0  0
 37 43  1  0  0  0  0
 38 39  1  1  0  0  0
 38 42  1  0  0  0  0
 40 32  1  1  0  0  0
 40 35  1  0  0  0  0
 40 33  1  0  0  0  0
 41 39  1  0  0  0  0
 43 46  1  6  0  0  0
 43 47  1  0  0  0  0
 44 48  1  1  0  0  0
 45 44  1  0  0  0  0
 46 45  1  0  0  0  0
 47 44  1  0  0  0  0
 48 49  2  0  0  0  0
 48 50  1  0  0  0  0
M  END
>  <MODEL>
6

>  <REMARK>
 VINA RESULT:      -6.5      2.656      4.438
  Name = 
  13 active torsions:
  status: ('A' for Active; 'I' for Inactive)
    1  A    between atoms: C_2  and  C_35
    2  A    between atoms: C_4  and  C_20
    3  A    between atoms: C_5  and  CA_13
    4  A    between atoms: P_8  and  N_9
    5  A    between atoms: P_8  and  C_17
    6  A    between atoms: N_14  and  C_47
    7  A    between atoms: C_17  and  C_28
    8  A    between atoms: C_17  and  C_38
    9  A    between atoms: C_20  and  C_28
   10  A    between atoms: C_20  and  C_37
   11  A    between atoms: C_26  and  C_32
   12  A    between atoms: C_31  and  C_37
   13  A    between atoms: C_32  and  C_47
                            x       y       z     vdW  Elec       q    Type
                         _______ _______ _______ _____ _____    ______ ____

>  <TORSDO>
F 13

$$$$
=
 OpenBabel11062420523D

 50 54  0  0  1  0  0  0  0  0999 V2000
  193.1460  171.9300  144.6760 C   0  0  1  0  0  3  0  0  0  0  0  0
  195.1630  170.6640  145.1830 O   0  0  0  0  0  0  0  0  0  0  0  0
  193.8280  170.5540  144.6750 C   0  0  2  0  0  3  0  0  0  0  0  0
  196.2050  170.6450  143.0480 C   0  0  0  0  0  3  0  0  0  0  0  0
  192.8650  169.2680  142.9050 O   0  0  0  0  0  0  0  0  0  0  0  0
  196.0710  169.6660  140.4340 O   0  0  0  0  0  0  0  0  0  0  0  0
  194.9840  169.8720  141.0400 C   0  0  0  0  0  0  0  0  0  0  0  0
  193.8450  169.9570  143.2950 C   0  0  0  0  0  0  0  0  0  0  0  0
  194.9910  170.1700  142.4480 N   0  0  0  0  0  0  0  0  0  0  0  0
  196.2790  170.8620  144.3600 C   0  0  0  0  0  3  0  0  0  0  0  0
  193.7070  169.8400  140.2570 C   0  0  0  0  0  2  0  0  0  0  0  0
  192.8140  171.1480  138.4050 C   0  0  0  0  0  2  0  0  0  0  0  0
  193.4890  171.1340  139.5500 C   0  0  0  0  0  0  0  0  0  0  0  0
  193.9320  172.3480  140.1670 N   0  0  0  0  0  2  0  0  0  0  0  0
  194.3460  174.6660  140.1250 N   0  0  0  0  0  2  0  0  0  0  0  0
  193.9270  173.6130  139.5060 C   0  0  0  0  0  3  0  0  0  0  0  0
  194.0860  173.0390  145.1430 C   0  0  0  0  0  2  0  0  0  0  0  0
  194.2690  174.0890  144.0570 C   0  0  1  0  0  3  0  0  0  0  0  0
  191.1910  178.4630  143.8850 C   0  0  0  0  0  1  0  0  0  0  0  0
  192.9020  175.6830  145.5530 C   0  0  0  0  0  3  0  0  0  0  0  0
  191.9880  177.2590  144.2350 C   0  0  0  0  0  0  0  0  0  0  0  0
  192.1230  176.7970  145.4960 N   0  0  0  0  0  0  0  0  0  0  0  0
  192.8230  176.3120  143.1270 S   0  0  0  0  0  0  0  0  0  0  0  0
  193.3820  175.2640  144.3140 C   0  0  0  0  0  0  0  0  0  0  0  0
  196.0130  174.6120  143.9390 P   0  0  1  0  0  0  0  0  0  0  0  0
  196.7800  174.1060  145.1410 O   0  0  0  0  0  1  0  0  0  0  0  0
  196.6940  173.9720  142.5280 O   0  0  0  0  0  0  0  0  0  0  0  0
  196.0910  176.3630  143.8850 N   0  0  0  0  0  2  0  0  0  0  0  0
  196.6060  176.7340  142.5800 C   0  0  0  0  0  1  0  0  0  0  0  0
  192.5390  172.2910  143.3160 C   0  0  0  0  0  2  0  0  0  0  0  0
  187.1790  174.7050  142.3880 C   0  0  0  0  0  3  0  0  0  0  0  0
  190.1670  173.4660  139.7730 C   0  0  0  0  0  1  0  0  0  0  0  0
  190.6190  171.9500  141.7180 C   0  0  0  0  0  2  0  0  0  0  0  0
  188.1600  173.9020  141.9510 C   0  0  0  0  0  3  0  0  0  0  0  0
  189.6160  174.2460  142.1230 C   0  0  1  0  0  3  0  0  0  0  0  0
  191.0720  171.8720  143.1760 C   0  0  2  0  0  3  0  0  0  0  0  0
  187.3720  176.0670  143.0360 C   0  0  2  0  0  3  0  0  0  0  0  0
  190.0450  174.1580  143.6060 C   0  0  1  0  0  3  0  0  0  0  0  0
  189.1080  174.9140  144.5540 C   0  0  0  0  0  2  0  0  0  0  0  0
  190.5470  173.4010  141.2420 C   0  0  2  0  0  3  0  0  0  0  0  0
  188.6170  176.2210  143.9390 C   0  0  0  0  0  2  0  0  0  0  0  0
  190.1520  172.7030  144.0750 C   0  0  0  0  0  2  0  0  0  0  0  0
  186.0990  176.5030  143.7700 C   0  0  2  0  0  3  0  0  0  0  0  0
  185.6460  178.4940  145.0600 C   0  0  2  0  0  3  0  0  0  0  0  0
  184.7300  178.4630  143.9300 N   0  0  0  0  0  2  0  0  0  0  0  0
  185.3270  177.5410  142.9780 C   0  0  0  0  0  2  0  0  0  0  0  0
  186.4160  177.1880  145.0830 C   0  0  0  0  0  2  0  0  0  0  0  0
  184.8880  178.6810  146.3320 C   0  0  0  0  0  0  0  0  0  0  0  0
  183.6950  178.2910  146.4100 O   0  0  0  0  0  0  0  0  0  0  0  0
  185.4940  179.2730  147.4330 O   0  0  0  0  0  1  0  0  0  0  0  0
  1 30  1  6  0  0  0
  1 17  1  0  0  0  0
  3  1  1  6  0  0  0
  3  2  1  0  0  0  0
  4 10  2  0  0  0  0
  5  8  2  0  0  0  0
  6  7  2  0  0  0  0
  7  9  1  0  0  0  0
  8  3  1  0  0  0  0
  9  4  1  0  0  0  0
  9  8  1  0  0  0  0
 10  2  1  0  0  0  0
 11  7  1  0  0  0  0
 12 13  2  0  0  0  0
 13 14  1  0  0  0  0
 13 11  1  0  0  0  0
 16 15  2  0  0  0  0
 16 14  1  0  0  0  0
 18 24  1  0  0  0  0
 18 17  1  1  0  0  0
 19 21  1  0  0  0  0
 21 22  2  0  0  0  0
 22 20  1  0  0  0  0
 23 21  1  0  0  0  0
 23 24  1  0  0  0  0
 24 20  2  0  0  0  0
 25 27  2  6  0  0  0
 25 18  1  0  0  0  0
 25 26  1  0  0  0  0
 28 25  1  0  0  0  0
 29 28  1  0  0  0  0
 33 36  1  0  0  0  0
 34 31  2  0  0  0  0
 35 34  1  1  0  0  0
 35 38  1  0  0  0  0
 36 30  1  6  0  0  0
 36 42  1  0  0  0  0
 37 31  1  1  0  0  0
 37 43  1  0  0  0  0
 37 41  1  0  0  0  0
 38 42  1  1  0  0  0
 38 39  1  0  0  0  0
 40 32  1  6  0  0  0
 40 33  1  0  0  0  0
 40 35  1  0  0  0  0
 41 39  1  0  0  0  0
 43 46  1  6  0  0  0
 43 47  1  0  0  0  0
 44 47  1  0  0  0  0
 44 48  1  1  0  0  0
 45 44  1  0  0  0  0
 46 45  1  0  0  0  0
 48 49  2  0  0  0  0
 48 50  1  0  0  0  0
M  END
>  <MODEL>
7

>  <REMARK>
 VINA RESULT:      -6.5      2.460      4.676
  Name = 
  13 active torsions:
  status: ('A' for Active; 'I' for Inactive)
    1  A    between atoms: C_2  and  C_35
    2  A    between atoms: C_4  and  C_20
    3  A    between atoms: C_5  and  CA_13
    4  A    between atoms: P_8  and  N_9
    5  A    between atoms: P_8  and  C_17
    6  A    between atoms: N_14  and  C_47
    7  A    between atoms: C_17  and  C_28
    8  A    between atoms: C_17  and  C_38
    9  A    between atoms: C_20  and  C_28
   10  A    between atoms: C_20  and  C_37
   11  A    between atoms: C_26  and  C_32
   12  A    between atoms: C_31  and  C_37
   13  A    between atoms: C_32  and  C_47
                            x       y       z     vdW  Elec       q    Type
                         _______ _______ _______ _____ _____    ______ ____

>  <TORSDO>
F 13

$$$$
=
 OpenBabel11062420523D

 50 54  0  0  1  0  0  0  0  0999 V2000
  193.8880  172.7720  142.0650 C   0  0  1  0  0  3  0  0  0  0  0  0
  193.2500  170.5400  142.7990 O   0  0  0  0  0  0  0  0  0  0  0  0
  194.3070  171.3000  142.2000 C   0  0  2  0  0  3  0  0  0  0  0  0
  194.2150  170.5110  144.9710 C   0  0  0  0  0  3  0  0  0  0  0  0
  196.6850  171.2400  142.4330 O   0  0  0  0  0  0  0  0  0  0  0  0
  196.6000  170.4680  146.4260 O   0  0  0  0  0  0  0  0  0  0  0  0
  196.6020  171.0630  145.3130 C   0  0  0  0  0  0  0  0  0  0  0  0
  195.5670  171.1660  143.0090 C   0  0  0  0  0  0  0  0  0  0  0  0
  195.4730  170.9380  144.4280 N   0  0  0  0  0  0  0  0  0  0  0  0
  193.1630  170.3090  144.1780 C   0  0  0  0  0  3  0  0  0  0  0  0
  197.7750  171.9250  144.9610 C   0  0  0  0  0  2  0  0  0  0  0  0
  196.9610  173.7840  146.3110 C   0  0  0  0  0  2  0  0  0  0  0  0
  197.4450  173.3660  145.1450 C   0  0  0  0  0  0  0  0  0  0  0  0
  197.7420  174.2890  144.0900 N   0  0  0  0  0  2  0  0  0  0  0  0
  197.0940  175.6740  142.3000 N   0  0  0  0  0  2  0  0  0  0  0  0
  196.7490  174.8510  143.2330 C   0  0  0  0  0  3  0  0  0  0  0  0
  193.8450  173.2290  140.6100 C   0  0  0  0  0  2  0  0  0  0  0  0
  193.4730  172.0760  139.6890 C   0  0  1  0  0  3  0  0  0  0  0  0
  188.5210  173.3050  138.0740 C   0  0  0  0  0  1  0  0  0  0  0  0
  191.0660  171.1540  139.6040 C   0  0  0  0  0  3  0  0  0  0  0  0
  189.7670  172.6990  138.6140 C   0  0  0  0  0  0  0  0  0  0  0  0
  189.8110  171.4800  139.1910 N   0  0  0  0  0  0  0  0  0  0  0  0
  191.2760  173.4360  138.5830 S   0  0  0  0  0  0  0  0  0  0  0  0
  192.0210  172.1350  139.3430 C   0  0  0  0  0  0  0  0  0  0  0  0
  194.4970  172.0880  138.1780 P   0  0  1  0  0  0  0  0  0  0  0  0
  193.7830  171.3440  137.0720 O   0  0  0  0  0  0  0  0  0  0  0  0
  194.7650  173.6880  137.6980 O   0  0  0  0  0  1  0  0  0  0  0  0
  196.0330  171.3110  138.5130 N   0  0  0  0  0  2  0  0  0  0  0  0
  196.9750  172.3530  138.8820 C   0  0  0  0  0  1  0  0  0  0  0  0
  192.5500  173.0710  142.7510 C   0  0  0  0  0  2  0  0  0  0  0  0
  189.7730  177.6440  145.3580 C   0  0  0  0  0  3  0  0  0  0  0  0
  193.8010  176.6680  145.0000 C   0  0  0  0  0  1  0  0  0  0  0  0
  192.8890  175.5630  142.9430 C   0  0  0  0  0  2  0  0  0  0  0  0
  190.8630  177.1780  144.7310 C   0  0  0  0  0  3  0  0  0  0  0  0
  191.4160  175.8030  144.9960 C   0  0  1  0  0  3  0  0  0  0  0  0
  191.9860  174.4530  142.4040 C   0  0  2  0  0  3  0  0  0  0  0  0
  188.9970  176.9150  146.4430 C   0  0  2  0  0  3  0  0  0  0  0  0
  190.4820  174.7020  144.4400 C   0  0  1  0  0  3  0  0  0  0  0  0
  189.0200  174.8790  144.8600 C   0  0  0  0  0  2  0  0  0  0  0  0
  192.8460  175.6120  144.4700 C   0  0  2  0  0  3  0  0  0  0  0  0
  188.9010  175.3790  146.2970 C   0  0  0  0  0  2  0  0  0  0  0  0
  190.5510  174.6270  142.9120 C   0  0  0  0  0  2  0  0  0  0  0  0
  187.6090  177.5400  146.6280 C   0  0  2  0  0  3  0  0  0  0  0  0
  185.5950  177.2860  145.3190 C   0  0  2  0  0  3  0  0  0  0  0  0
  185.3270  176.8070  146.6670 N   0  0  0  0  0  2  0  0  0  0  0  0
  186.6340  176.5580  147.2510 C   0  0  0  0  0  2  0  0  0  0  0  0
  186.9780  177.9070  145.3010 C   0  0  0  0  0  2  0  0  0  0  0  0
  184.5640  178.2830  144.9120 C   0  0  0  0  0  0  0  0  0  0  0  0
  184.0760  179.0620  145.7720 O   0  0  0  0  0  1  0  0  0  0  0  0
  184.1450  178.3660  143.5900 O   0  0  0  0  0  0  0  0  0  0  0  0
  1 17  1  6  0  0  0
  1 30  1  0  0  0  0
  2 10  1  0  0  0  0
  3  1  1  1  0  0  0
  3  2  1  0  0  0  0
  3  8  1  0  0  0  0
  5  8  2  0  0  0  0
  7  6  2  0  0  0  0
  8  9  1  0  0  0  0
  9  4  1  0  0  0  0
  9  7  1  0  0  0  0
 10  4  2  0  0  0  0
 11 13  1  0  0  0  0
 11  7  1  0  0  0  0
 13 12  2  0  0  0  0
 14 13  1  0  0  0  0
 15 16  2  0  0  0  0
 16 14  1  0  0  0  0
 18 17  1  1  0  0  0
 19 21  1  0  0  0  0
 21 22  2  0  0  0  0
 22 20  1  0  0  0  0
 23 21  1  0  0  0  0
 23 24  1  0  0  0  0
 24 20  2  0  0  0  0
 24 18  1  0  0  0  0
 25 26  2  6  0  0  0
 25 28  1  0  0  0  0
 25 18  1  0  0  0  0
 27 25  1  0  0  0  0
 28 29  1  0  0  0  0
 33 40  1  0  0  0  0
 34 31  2  0  0  0  0
 35 34  1  6  0  0  0
 36 30  1  1  0  0  0
 36 42  1  0  0  0  0
 36 33  1  0  0  0  0
 37 31  1  6  0  0  0
 37 43  1  0  0  0  0
 38 42  1  6  0  0  0
 38 39  1  0  0  0  0
 38 35  1  0  0  0  0
 39 41  1  0  0  0  0
 40 35  1  0  0  0  0
 40 32  1  6  0  0  0
 41 37  1  0  0  0  0
 43 47  1  6  0  0  0
 43 46  1  0  0  0  0
 44 48  1  1  0  0  0
 44 45  1  0  0  0  0
 45 46  1  0  0  0  0
 47 44  1  0  0  0  0
 48 49  1  0  0  0  0
 50 48  2  0  0  0  0
M  END
>  <MODEL>
8

>  <REMARK>
 VINA RESULT:      -6.4      2.549      4.827
  Name = 
  13 active torsions:
  status: ('A' for Active; 'I' for Inactive)
    1  A    between atoms: C_2  and  C_35
    2  A    between atoms: C_4  and  C_20
    3  A    between atoms: C_5  and  CA_13
    4  A    between atoms: P_8  and  N_9
    5  A    between atoms: P_8  and  C_17
    6  A    between atoms: N_14  and  C_47
    7  A    between atoms: C_17  and  C_28
    8  A    between atoms: C_17  and  C_38
    9  A    between atoms: C_20  and  C_28
   10  A    between atoms: C_20  and  C_37
   11  A    between atoms: C_26  and  C_32
   12  A    between atoms: C_31  and  C_37
   13  A    between atoms: C_32  and  C_47
                            x       y       z     vdW  Elec       q    Type
                         _______ _______ _______ _____ _____    ______ ____

>  <TORSDO>
F 13

$$$$
=
 OpenBabel11062420523D

 50 54  0  0  1  0  0  0  0  0999 V2000
  193.7200  172.1170  142.2790 C   0  0  1  0  0  3  0  0  0  0  0  0
  194.4790  170.8480  144.2130 O   0  0  0  0  0  0  0  0  0  0  0  0
  194.8610  171.3050  142.9100 C   0  0  2  0  0  3  0  0  0  0  0  0
  195.6750  172.5310  145.3880 C   0  0  0  0  0  3  0  0  0  0  0  0
  196.9200  172.1300  142.0170 O   0  0  0  0  0  0  0  0  0  0  0  0
  197.9410  174.1650  145.3880 O   0  0  0  0  0  0  0  0  0  0  0  0
  197.4400  173.8560  144.2720 C   0  0  0  0  0  0  0  0  0  0  0  0
  196.1240  172.1170  142.9940 C   0  0  0  0  0  0  0  0  0  0  0  0
  196.4100  172.8530  144.1990 N   0  0  0  0  0  0  0  0  0  0  0  0
  194.7650  171.5580  145.3850 C   0  0  0  0  0  3  0  0  0  0  0  0
  197.9100  174.5800  143.0470 C   0  0  0  0  0  2  0  0  0  0  0  0
  196.8010  176.7280  143.3600 C   0  0  0  0  0  2  0  0  0  0  0  0
  196.9220  175.6190  142.6380 C   0  0  0  0  0  0  0  0  0  0  0  0
  196.1890  175.4410  141.4200 N   0  0  0  0  0  2  0  0  0  0  0  0
  196.0690  175.2920  139.0730 N   0  0  0  0  0  2  0  0  0  0  0  0
  196.7960  175.4550  140.1280 C   0  0  0  0  0  3  0  0  0  0  0  0
  192.8630  171.2730  141.3390 C   0  0  0  0  0  2  0  0  0  0  0  0
  192.2270  172.1380  140.2610 C   0  0  1  0  0  3  0  0  0  0  0  0
  193.9770  171.9130  135.2080 C   0  0  0  0  0  1  0  0  0  0  0  0
  193.1840  170.5130  138.5030 C   0  0  0  0  0  3  0  0  0  0  0  0
  193.5600  171.6750  136.6150 C   0  0  0  0  0  0  0  0  0  0  0  0
  193.6240  170.4680  137.2160 N   0  0  0  0  0  0  0  0  0  0  0  0
  192.9570  172.8580  137.6440 S   0  0  0  0  0  0  0  0  0  0  0  0
  192.7710  171.7770  138.9170 C   0  0  0  0  0  0  0  0  0  0  0  0
  190.4090  171.9800  140.2830 P   0  0  1  0  0  0  0  0  0  0  0  0
  189.9650  171.0340  139.1900 O   0  0  0  0  0  0  0  0  0  0  0  0
  189.9190  171.3720  141.7850 O   0  0  0  0  0  1  0  0  0  0  0  0
  189.6870  173.5570  140.0260 N   0  0  0  0  0  2  0  0  0  0  0  0
  189.4620  173.7030  138.5990 C   0  0  0  0  0  1  0  0  0  0  0  0
  192.8360  172.8050  143.3250 C   0  0  0  0  0  2  0  0  0  0  0  0
  190.0340  177.5340  145.6040 C   0  0  0  0  0  3  0  0  0  0  0  0
  193.9920  176.2740  145.8130 C   0  0  0  0  0  1  0  0  0  0  0  0
  193.3170  175.2630  143.6210 C   0  0  0  0  0  2  0  0  0  0  0  0
  191.1680  176.9990  145.1320 C   0  0  0  0  0  3  0  0  0  0  0  0
  191.5790  175.5840  145.4430 C   0  0  1  0  0  3  0  0  0  0  0  0
  192.4260  174.2280  142.9310 C   0  0  2  0  0  3  0  0  0  0  0  0
  189.0570  176.8500  146.5470 C   0  0  2  0  0  3  0  0  0  0  0  0
  190.6620  174.5610  144.7320 C   0  0  1  0  0  3  0  0  0  0  0  0
  189.1700  174.8380  144.9380 C   0  0  0  0  0  2  0  0  0  0  0  0
  193.0540  175.2960  145.1260 C   0  0  2  0  0  3  0  0  0  0  0  0
  188.8770  175.3270  146.3540 C   0  0  0  0  0  2  0  0  0  0  0  0
  190.9490  174.5000  143.2280 C   0  0  0  0  0  2  0  0  0  0  0  0
  187.7040  177.5720  146.5430 C   0  0  2  0  0  3  0  0  0  0  0  0
  185.7540  177.2250  145.1610 C   0  0  2  0  0  3  0  0  0  0  0  0
  185.3820  176.9810  146.5460 N   0  0  0  0  0  2  0  0  0  0  0  0
  186.6350  176.7560  147.2460 C   0  0  0  0  0  2  0  0  0  0  0  0
  187.1730  177.7590  145.1370 C   0  0  0  0  0  2  0  0  0  0  0  0
  184.8130  178.2010  144.5390 C   0  0  0  0  0  0  0  0  0  0  0  0
  184.7090  178.2550  143.2860 O   0  0  0  0  0  0  0  0  0  0  0  0
  184.0440  179.0430  145.3320 O   0  0  0  0  0  1  0  0  0  0  0  0
  1 17  1  1  0  0  0
  1 30  1  0  0  0  0
  2 10  1  0  0  0  0
  3  1  1  1  0  0  0
  3  8  1  0  0  0  0
  3  2  1  0  0  0  0
  5  8  2  0  0  0  0
  7  6  2  0  0  0  0
  8  9  1  0  0  0  0
  9  7  1  0  0  0  0
  9  4  1  0  0  0  0
 10  4  2  0  0  0  0
 11  7  1  0  0  0  0
 13 11  1  0  0  0  0
 13 12  2  0  0  0  0
 14 13  1  0  0  0  0
 15 16  2  0  0  0  0
 16 14  1  0  0  0  0
 18 25  1  0  0  0  0
 18 17  1  1  0  0  0
 19 21  1  0  0  0  0
 20 24  2  0  0  0  0
 21 22  2  0  0  0  0
 21 23  1  0  0  0  0
 22 20  1  0  0  0  0
 23 24  1  0  0  0  0
 24 18  1  0  0  0  0
 25 26  2  6  0  0  0
 25 27  1  0  0  0  0
 28 25  1  0  0  0  0
 29 28  1  0  0  0  0
 33 40  1  0  0  0  0
 34 31  2  0  0  0  0
 35 34  1  6  0  0  0
 36 42  1  0  0  0  0
 36 30  1  1  0  0  0
 36 33  1  0  0  0  0
 37 31  1  6  0  0  0
 38 42  1  6  0  0  0
 38 39  1  0  0  0  0
 38 35  1  0  0  0  0
 39 41  1  0  0  0  0
 40 35  1  0  0  0  0
 40 32  1  1  0  0  0
 41 37  1  0  0  0  0
 43 47  1  6  0  0  0
 43 37  1  0  0  0  0
 43 46  1  0  0  0  0
 44 48  1  1  0  0  0
 44 45  1  0  0  0  0
 45 46  1  0  0  0  0
 47 44  1  0  0  0  0
 48 50  1  0  0  0  0
 49 48  2  0  0  0  0
M  END
>  <MODEL>
9

>  <REMARK>
 VINA RESULT:      -6.4      2.391      4.590
  Name = 
  13 active torsions:
  status: ('A' for Active; 'I' for Inactive)
    1  A    between atoms: C_2  and  C_35
    2  A    between atoms: C_4  and  C_20
    3  A    between atoms: C_5  and  CA_13
    4  A    between atoms: P_8  and  N_9
    5  A    between atoms: P_8  and  C_17
    6  A    between atoms: N_14  and  C_47
    7  A    between atoms: C_17  and  C_28
    8  A    between atoms: C_17  and  C_38
    9  A    between atoms: C_20  and  C_28
   10  A    between atoms: C_20  and  C_37
   11  A    between atoms: C_26  and  C_32
   12  A    between atoms: C_31  and  C_37
   13  A    between atoms: C_32  and  C_47
                            x       y       z     vdW  Elec       q    Type
                         _______ _______ _______ _____ _____    ______ ____

>  <TORSDO>
F 13

$$$$
