=
 OpenBabel11062421273D

 31 36  0  0  1  0  0  0  0  0999 V2000
  184.9310  178.2150  147.4480 N   0  0  0  0  0  0  0  0  0  0  0  0
  186.0160  177.5610  147.9200 C   0  0  0  0  0  3  0  0  0  0  0  0
  186.2580  177.8560  145.7520 C   0  0  0  0  0  0  0  0  0  0  0  0
  184.1640  179.0630  145.3440 N   0  0  0  0  0  1  0  0  0  0  0  0
  186.8820  177.3210  146.8590 C   0  0  0  0  0  0  0  0  0  0  0  0
  185.0880  178.3850  146.1470 N   0  0  0  0  0  0  0  0  0  0  0  0
  188.2450  175.3920  147.0800 O   0  0  0  0  0  0  0  0  0  0  0  0
  188.1860  176.6410  146.9240 C   0  0  0  0  0  0  0  0  0  0  0  0
  189.4540  177.4210  146.7860 C   0  0  0  0  0  2  0  0  0  0  0  0
  191.6920  176.3490  147.0230 C   0  0  0  0  0  2  0  0  0  0  0  0
  192.8230  175.5800  144.9730 N   0  0  2  0  0  0  0  0  0  0  0  0
  192.0620  176.4750  144.0760 C   0  0  2  0  0  3  0  0  0  0  0  0
  190.5210  176.6050  146.0710 C   0  0  2  0  0  3  0  0  0  0  0  0
  190.9980  177.3130  144.8040 C   0  0  0  0  0  2  0  0  0  0  0  0
  191.3730  175.6580  142.9960 C   0  0  0  0  0  1  0  0  0  0  0  0
  193.0230  176.2230  146.2750 C   0  0  0  0  0  2  0  0  0  0  0  0
  194.1500  175.3960  144.3910 C   0  0  1  0  0  3  0  0  0  0  0  0
  196.3950  174.7930  145.0510 O   0  0  0  0  0  1  0  0  0  0  0  0
  194.6590  173.1650  145.4370 C   0  0  0  0  0  2  0  0  0  0  0  0
  195.0440  174.6240  145.3470 C   0  0  1  0  0  0  0  0  0  0  0  0
  194.4180  173.9210  144.1500 C   0  0  2  0  0  3  0  0  0  0  0  0
  186.7830  177.8640  144.4200 N   0  0  0  0  0  2  0  0  0  0  0  0
  186.1900  177.5920  142.1060 C   0  0  0  0  0  0  0  0  0  0  0  0
  187.9270  176.2140  141.6690 N   0  0  0  0  0  0  0  0  0  0  0  0
  186.5220  177.2170  139.8560 N   0  0  0  0  0  0  0  0  0  0  0  0
  185.2070  177.8390  139.7760 C   0  0  0  0  0  3  0  0  0  0  0  0
  187.6530  175.9990  143.0820 C   0  0  0  0  0  2  0  0  0  0  0  0
  186.9910  177.1550  141.1890 C   0  0  0  0  0  0  0  0  0  0  0  0
  188.4410  175.2400  140.8820 O   0  0  0  0  0  1  0  0  0  0  0  0
  184.6340  178.2020  141.4890 S   0  0  0  0  0  0  0  0  0  0  0  0
  186.4350  176.8900  143.3970 C   0  0  1  0  0  3  0  0  0  0  0  0
  1  2  2  0  0  0  0
  3  6  1  0  0  0  0
  3  5  2  0  0  0  0
  4  6  1  0  0  0  0
  5  8  1  0  0  0  0
  5  2  1  0  0  0  0
  6  1  1  0  0  0  0
  8  7  2  0  0  0  0
  9  8  1  0  0  0  0
 11 16  1  1  0  0  0
 12 15  1  6  0  0  0
 12 14  1  0  0  0  0
 12 11  1  0  0  0  0
 13  9  1  1  0  0  0
 13 10  1  0  0  0  0
 14 13  1  0  0  0  0
 16 10  1  0  0  0  0
 17 11  1  1  0  0  0
 17 20  1  0  0  0  0
 20 18  1  6  0  0  0
 20 19  1  0  0  0  0
 21 17  1  0  0  0  0
 21 20  1  0  0  0  0
 21 19  1  1  0  0  0
 22  3  1  0  0  0  0
 23 31  1  0  0  0  0
 24 27  1  0  0  0  0
 25 28  1  0  0  0  0
 26 25  2  0  0  0  0
 26 30  1  0  0  0  0
 27 31  1  0  0  0  0
 28 24  1  0  0  0  0
 28 23  2  0  0  0  0
 29 24  1  0  0  0  0
 30 23  1  0  0  0  0
 31 22  1  1  0  0  0
M  END
>  <MODEL>
1

>  <REMARK>
 VINA RESULT:      -7.6      0.000      0.000
  Name = 
  6 active torsions:
  status: ('A' for Active; 'I' for Inactive)
    1  A    between atoms: C_1  and  N_7
    2  A    between atoms: C_12  and  C_13
    3  A    between atoms: C_12  and  C_31
    4  A    between atoms: C_17  and  N_22
    5  A    between atoms: N_22  and  C_30
    6  A    between atoms: C_25  and  C_31
                            x       y       z     vdW  Elec       q    Type
                         _______ _______ _______ _____ _____    ______ ____

>  <TORSDO>
F 6

$$$$
=
 OpenBabel11062421273D

 31 36  0  0  1  0  0  0  0  0999 V2000
  184.9900  178.3550  147.6210 N   0  0  0  0  0  0  0  0  0  0  0  0
  186.1690  177.8470  148.0460 C   0  0  0  0  0  3  0  0  0  0  0  0
  186.2390  178.0570  145.8560 C   0  0  0  0  0  0  0  0  0  0  0  0
  184.0020  179.0070  145.5400 N   0  0  0  0  0  1  0  0  0  0  0  0
  186.9880  177.6500  146.9410 C   0  0  0  0  0  0  0  0  0  0  0  0
  185.0440  178.4750  146.3060 N   0  0  0  0  0  0  0  0  0  0  0  0
  189.3320  177.8720  147.2250 O   0  0  0  0  0  0  0  0  0  0  0  0
  188.3620  177.1200  146.9460 C   0  0  0  0  0  0  0  0  0  0  0  0
  188.6180  175.6790  146.6390 C   0  0  0  0  0  2  0  0  0  0  0  0
  189.9710  174.3800  144.9980 C   0  0  0  0  0  2  0  0  0  0  0  0
  192.4250  174.5440  145.1450 N   0  0  2  0  0  0  0  0  0  0  0  0
  192.4300  174.9750  146.5590 C   0  0  2  0  0  3  0  0  0  0  0  0
  190.0090  175.4850  146.0560 C   0  0  2  0  0  3  0  0  0  0  0  0
  191.0220  175.1520  147.1510 C   0  0  0  0  0  2  0  0  0  0  0  0
  193.1760  176.2930  146.6930 C   0  0  0  0  0  1  0  0  0  0  0  0
  191.3040  173.6320  144.9010 C   0  0  0  0  0  2  0  0  0  0  0  0
  193.6460  173.7740  144.9150 C   0  0  1  0  0  3  0  0  0  0  0  0
  194.6650  172.3790  143.2250 O   0  0  0  0  0  1  0  0  0  0  0  0
  194.1600  174.6570  142.6160 C   0  0  0  0  0  2  0  0  0  0  0  0
  193.7910  173.4430  143.4390 C   0  0  1  0  0  0  0  0  0  0  0  0
  194.6130  174.5680  144.0550 C   0  0  2  0  0  3  0  0  0  0  0  0
  186.6760  178.0560  144.4920 N   0  0  0  0  0  2  0  0  0  0  0  0
  185.6690  177.8270  142.3210 C   0  0  0  0  0  0  0  0  0  0  0  0
  187.4150  176.6720  141.4700 N   0  0  0  0  0  0  0  0  0  0  0  0
  185.5880  177.5950  140.0300 N   0  0  0  0  0  0  0  0  0  0  0  0
  184.2280  178.0710  140.2430 C   0  0  0  0  0  3  0  0  0  0  0  0
  187.4470  176.3630  142.8920 C   0  0  0  0  0  2  0  0  0  0  0  0
  186.3140  177.5240  141.2410 C   0  0  0  0  0  0  0  0  0  0  0  0
  187.8580  175.7980  140.5360 O   0  0  0  0  0  1  0  0  0  0  0  0
  183.9700  178.2890  142.0550 S   0  0  0  0  0  0  0  0  0  0  0  0
  186.2320  177.0980  143.4920 C   0  0  1  0  0  3  0  0  0  0  0  0
  1  2  2  0  0  0  0
  3  6  1  0  0  0  0
  3  5  2  0  0  0  0
  4  6  1  0  0  0  0
  5  8  1  0  0  0  0
  5  2  1  0  0  0  0
  6  1  1  0  0  0  0
  8  7  2  0  0  0  0
  9  8  1  0  0  0  0
 10 13  1  0  0  0  0
 11 16  1  1  0  0  0
 11 12  1  0  0  0  0
 12 15  1  6  0  0  0
 12 14  1  0  0  0  0
 13  9  1  1  0  0  0
 13 14  1  0  0  0  0
 16 10  1  0  0  0  0
 17 11  1  6  0  0  0
 19 20  1  0  0  0  0
 20 18  1  6  0  0  0
 20 21  1  0  0  0  0
 20 17  1  0  0  0  0
 21 19  1  6  0  0  0
 21 17  1  0  0  0  0
 22  3  1  0  0  0  0
 23 31  1  0  0  0  0
 24 27  1  0  0  0  0
 25 26  2  0  0  0  0
 25 28  1  0  0  0  0
 26 30  1  0  0  0  0
 27 31  1  0  0  0  0
 28 24  1  0  0  0  0
 28 23  2  0  0  0  0
 29 24  1  0  0  0  0
 30 23  1  0  0  0  0
 31 22  1  1  0  0  0
M  END
>  <MODEL>
2

>  <REMARK>
 VINA RESULT:      -7.3      1.376      1.898
  Name = 
  6 active torsions:
  status: ('A' for Active; 'I' for Inactive)
    1  A    between atoms: C_1  and  N_7
    2  A    between atoms: C_12  and  C_13
    3  A    between atoms: C_12  and  C_31
    4  A    between atoms: C_17  and  N_22
    5  A    between atoms: N_22  and  C_30
    6  A    between atoms: C_25  and  C_31
                            x       y       z     vdW  Elec       q    Type
                         _______ _______ _______ _____ _____    ______ ____

>  <TORSDO>
F 6

$$$$
=
 OpenBabel11062421273D

 31 36  0  0  1  0  0  0  0  0999 V2000
  186.0670  177.4370  146.1390 N   0  0  0  0  0  0  0  0  0  0  0  0
  186.9130  176.6760  146.8690 C   0  0  0  0  0  3  0  0  0  0  0  0
  188.0160  177.5120  145.1580 C   0  0  0  0  0  0  0  0  0  0  0  0
  186.1770  178.7990  144.1720 N   0  0  0  0  0  1  0  0  0  0  0  0
  188.1660  176.7080  146.2680 C   0  0  0  0  0  0  0  0  0  0  0  0
  186.7400  177.9320  145.1150 N   0  0  0  0  0  0  0  0  0  0  0  0
  189.3500  174.8030  147.0410 O   0  0  0  0  0  0  0  0  0  0  0  0
  189.3840  176.0240  146.7340 C   0  0  0  0  0  0  0  0  0  0  0  0
  190.6790  176.7660  146.8290 C   0  0  0  0  0  2  0  0  0  0  0  0
  192.8200  175.4950  146.9470 C   0  0  0  0  0  2  0  0  0  0  0  0
  194.0960  175.1950  144.8610 N   0  0  2  0  0  0  0  0  0  0  0  0
  193.4760  176.3490  144.1760 C   0  0  2  0  0  3  0  0  0  0  0  0
  191.7610  176.0800  146.0090 C   0  0  2  0  0  3  0  0  0  0  0  0
  192.3960  177.0520  145.0160 C   0  0  0  0  0  2  0  0  0  0  0  0
  192.8490  175.8960  142.8680 C   0  0  0  0  0  1  0  0  0  0  0  0
  194.2060  175.4610  146.2980 C   0  0  0  0  0  2  0  0  0  0  0  0
  195.4600  175.0620  144.3560 C   0  0  1  0  0  3  0  0  0  0  0  0
  197.6360  174.2960  145.0740 O   0  0  0  0  0  1  0  0  0  0  0  0
  195.8440  172.6810  145.0710 C   0  0  0  0  0  2  0  0  0  0  0  0
  196.2630  174.1240  145.2400 C   0  0  1  0  0  0  0  0  0  0  0  0
  195.7180  173.6360  143.9050 C   0  0  2  0  0  3  0  0  0  0  0  0
  189.0520  177.8560  144.2300 N   0  0  0  0  0  2  0  0  0  0  0  0
  188.7010  175.8160  143.0080 C   0  0  0  0  0  0  0  0  0  0  0  0
  187.5100  176.8260  141.3740 N   0  0  0  0  0  0  0  0  0  0  0  0
  187.6250  174.3360  141.6060 N   0  0  0  0  0  0  0  0  0  0  0  0
  188.4990  173.3880  142.2850 C   0  0  0  0  0  3  0  0  0  0  0  0
  188.3930  177.8730  141.8660 C   0  0  0  0  0  2  0  0  0  0  0  0
  187.7930  175.6500  142.1020 C   0  0  0  0  0  0  0  0  0  0  0  0
  187.0800  176.7950  140.0920 O   0  0  0  0  0  1  0  0  0  0  0  0
  189.5640  174.3250  143.4610 S   0  0  0  0  0  0  0  0  0  0  0  0
  189.2560  177.1970  142.9500 C   0  0  1  0  0  3  0  0  0  0  0  0
  1  2  2  0  0  0  0
  3  5  2  0  0  0  0
  4  6  1  0  0  0  0
  5  8  1  0  0  0  0
  5  2  1  0  0  0  0
  6  3  1  0  0  0  0
  6  1  1  0  0  0  0
  8  9  1  0  0  0  0
  8  7  2  0  0  0  0
 11 16  1  1  0  0  0
 12 15  1  6  0  0  0
 12 11  1  0  0  0  0
 12 14  1  0  0  0  0
 13  9  1  1  0  0  0
 13 10  1  0  0  0  0
 14 13  1  0  0  0  0
 16 10  1  0  0  0  0
 17 11  1  1  0  0  0
 17 20  1  0  0  0  0
 19 20  1  0  0  0  0
 20 18  1  1  0  0  0
 21 17  1  0  0  0  0
 21 19  1  1  0  0  0
 21 20  1  0  0  0  0
 22  3  1  0  0  0  0
 23 30  1  0  0  0  0
 24 27  1  0  0  0  0
 24 28  1  0  0  0  0
 25 28  1  0  0  0  0
 25 26  2  0  0  0  0
 26 30  1  0  0  0  0
 27 31  1  0  0  0  0
 28 23  2  0  0  0  0
 29 24  1  0  0  0  0
 31 23  1  0  0  0  0
 31 22  1  1  0  0  0
M  END
>  <MODEL>
3

>  <REMARK>
 VINA RESULT:      -7.0      1.973      2.418
  Name = 
  6 active torsions:
  status: ('A' for Active; 'I' for Inactive)
    1  A    between atoms: C_1  and  N_7
    2  A    between atoms: C_12  and  C_13
    3  A    between atoms: C_12  and  C_31
    4  A    between atoms: C_17  and  N_22
    5  A    between atoms: N_22  and  C_30
    6  A    between atoms: C_25  and  C_31
                            x       y       z     vdW  Elec       q    Type
                         _______ _______ _______ _____ _____    ______ ____

>  <TORSDO>
F 6

$$$$
=
 OpenBabel11062421273D

 31 36  0  0  1  0  0  0  0  0999 V2000
  184.8100  179.5370  143.6940 N   0  0  0  0  0  0  0  0  0  0  0  0
  185.7390  178.9670  142.8950 C   0  0  0  0  0  3  0  0  0  0  0  0
  185.4260  177.6720  144.6470 C   0  0  0  0  0  0  0  0  0  0  0  0
  183.7070  179.0220  145.7560 N   0  0  0  0  0  1  0  0  0  0  0  0
  186.1480  177.7730  143.4770 C   0  0  0  0  0  0  0  0  0  0  0  0
  184.6310  178.7520  144.7420 N   0  0  0  0  0  0  0  0  0  0  0  0
  186.8930  175.5930  142.9080 O   0  0  0  0  0  0  0  0  0  0  0  0
  187.1420  176.8270  142.9410 C   0  0  0  0  0  0  0  0  0  0  0  0
  188.4500  177.3230  142.4130 C   0  0  0  0  0  2  0  0  0  0  0  0
  190.6630  177.7640  143.4730 C   0  0  0  0  0  2  0  0  0  0  0  0
  192.0560  175.8250  144.0770 N   0  0  2  0  0  0  0  0  0  0  0  0
  191.3960  174.9040  143.1270 C   0  0  2  0  0  3  0  0  0  0  0  0
  189.6150  176.6930  143.1620 C   0  0  2  0  0  3  0  0  0  0  0  0
  190.2310  175.5500  142.3570 C   0  0  0  0  0  2  0  0  0  0  0  0
  190.8650  173.6900  143.8700 C   0  0  0  0  0  1  0  0  0  0  0  0
  192.0780  177.1840  143.5280 C   0  0  0  0  0  2  0  0  0  0  0  0
  193.4500  175.4030  144.2020 C   0  0  1  0  0  3  0  0  0  0  0  0
  195.6070  176.2970  144.8230 O   0  0  0  0  0  1  0  0  0  0  0  0
  193.8700  176.3440  146.4970 C   0  0  0  0  0  2  0  0  0  0  0  0
  194.2330  176.4070  145.0300 C   0  0  1  0  0  0  0  0  0  0  0  0
  193.7770  175.0940  145.6520 C   0  0  2  0  0  3  0  0  0  0  0  0
  185.4970  176.5890  145.5820 N   0  0  0  0  0  2  0  0  0  0  0  0
  187.6930  176.7860  146.5390 C   0  0  0  0  0  0  0  0  0  0  0  0
  187.1680  178.6320  147.7330 N   0  0  0  0  0  0  0  0  0  0  0  0
  189.5270  177.8430  147.4520 N   0  0  0  0  0  0  0  0  0  0  0  0
  190.1730  176.5990  147.0580 C   0  0  0  0  0  3  0  0  0  0  0  0
  185.9020  177.9260  147.5990 C   0  0  0  0  0  2  0  0  0  0  0  0
  188.1600  177.8600  147.0910 C   0  0  0  0  0  0  0  0  0  0  0  0
  187.4420  179.4140  148.8030 O   0  0  0  0  0  1  0  0  0  0  0  0
  188.8950  175.4880  146.3330 S   0  0  0  0  0  0  0  0  0  0  0  0
  186.2410  176.6330  146.8310 C   0  0  1  0  0  3  0  0  0  0  0  0
  1  6  1  0  0  0  0
  2  5  1  0  0  0  0
  2  1  2  0  0  0  0
  3  6  1  0  0  0  0
  3 22  1  0  0  0  0
  5  3  2  0  0  0  0
  6  4  1  0  0  0  0
  7  8  2  0  0  0  0
  8  5  1  0  0  0  0
  9  8  1  0  0  0  0
 10 16  1  0  0  0  0
 11 16  1  6  0  0  0
 12 15  1  1  0  0  0
 12 11  1  0  0  0  0
 13  9  1  6  0  0  0
 13 10  1  0  0  0  0
 14 12  1  0  0  0  0
 14 13  1  0  0  0  0
 17 11  1  1  0  0  0
 17 20  1  0  0  0  0
 17 21  1  0  0  0  0
 20 18  1  6  0  0  0
 20 21  1  0  0  0  0
 20 19  1  0  0  0  0
 21 19  1  1  0  0  0
 23 31  1  0  0  0  0
 23 28  2  0  0  0  0
 24 29  1  0  0  0  0
 26 25  2  0  0  0  0
 27 24  1  0  0  0  0
 28 25  1  0  0  0  0
 28 24  1  0  0  0  0
 30 23  1  0  0  0  0
 30 26  1  0  0  0  0
 31 22  1  6  0  0  0
 31 27  1  0  0  0  0
M  END
>  <MODEL>
4

>  <REMARK>
 VINA RESULT:      -6.9      2.387      4.459
  Name = 
  6 active torsions:
  status: ('A' for Active; 'I' for Inactive)
    1  A    between atoms: C_1  and  N_7
    2  A    between atoms: C_12  and  C_13
    3  A    between atoms: C_12  and  C_31
    4  A    between atoms: C_17  and  N_22
    5  A    between atoms: N_22  and  C_30
    6  A    between atoms: C_25  and  C_31
                            x       y       z     vdW  Elec       q    Type
                         _______ _______ _______ _____ _____    ______ ____

>  <TORSDO>
F 6

$$$$
=
 OpenBabel11062421273D

 31 36  0  0  1  0  0  0  0  0999 V2000
  195.4640  174.8950  146.0730 N   0  0  0  0  0  0  0  0  0  0  0  0
  194.6610  175.9830  146.0370 C   0  0  0  0  0  3  0  0  0  0  0  0
  193.5010  174.2280  145.3910 C   0  0  0  0  0  0  0  0  0  0  0  0
  195.2690  172.5490  145.6370 N   0  0  0  0  0  1  0  0  0  0  0  0
  193.4000  175.5860  145.6080 C   0  0  0  0  0  0  0  0  0  0  0  0
  194.7560  173.8500  145.6820 N   0  0  0  0  0  0  0  0  0  0  0  0
  192.1340  177.2140  144.4350 O   0  0  0  0  0  0  0  0  0  0  0  0
  192.2190  176.4470  145.4300 C   0  0  0  0  0  0  0  0  0  0  0  0
  191.0980  176.4070  146.4190 C   0  0  0  0  0  2  0  0  0  0  0  0
  188.9560  177.6000  146.8650 C   0  0  0  0  0  2  0  0  0  0  0  0
  187.2030  177.5040  145.1360 N   0  0  2  0  0  0  0  0  0  0  0  0
  187.7280  176.2750  144.5040 C   0  0  2  0  0  3  0  0  0  0  0  0
  189.8030  176.9070  145.7960 C   0  0  2  0  0  3  0  0  0  0  0  0
  189.0270  175.7600  145.1490 C   0  0  0  0  0  2  0  0  0  0  0  0
  187.9920  176.5260  143.0290 C   0  0  0  0  0  1  0  0  0  0  0  0
  187.4570  177.4760  146.5800 C   0  0  0  0  0  2  0  0  0  0  0  0
  185.7510  177.5000  144.9680 C   0  0  1  0  0  3  0  0  0  0  0  0
  183.8060  178.7680  145.6360 O   0  0  0  0  0  1  0  0  0  0  0  0
  185.4880  179.9250  144.3520 C   0  0  0  0  0  2  0  0  0  0  0  0
  185.1710  178.8460  145.3640 C   0  0  1  0  0  0  0  0  0  0  0  0
  185.3450  178.4920  143.8930 C   0  0  2  0  0  3  0  0  0  0  0  0
  192.4390  173.3710  144.9540 N   0  0  0  0  0  2  0  0  0  0  0  0
  190.9410  173.3550  143.0730 C   0  0  0  0  0  0  0  0  0  0  0  0
  192.4280  174.3480  141.6920 N   0  0  0  0  0  0  0  0  0  0  0  0
  190.0150  174.0690  141.0870 N   0  0  0  0  0  0  0  0  0  0  0  0
  188.9110  173.2400  141.5500 C   0  0  0  0  0  3  0  0  0  0  0  0
  193.2590  173.6440  142.6570 C   0  0  0  0  0  2  0  0  0  0  0  0
  191.0800  174.0900  142.0180 C   0  0  0  0  0  0  0  0  0  0  0  0
  192.8350  174.5640  140.4190 O   0  0  0  0  0  1  0  0  0  0  0  0
  189.4050  172.4570  143.1430 S   0  0  0  0  0  0  0  0  0  0  0  0
  192.2680  172.9120  143.5840 C   0  0  1  0  0  3  0  0  0  0  0  0
  2  1  2  0  0  0  0
  3  5  2  0  0  0  0
  3  6  1  0  0  0  0
  4  6  1  0  0  0  0
  5  2  1  0  0  0  0
  6  1  1  0  0  0  0
  7  8  2  0  0  0  0
  8  5  1  0  0  0  0
  8  9  1  0  0  0  0
 11 16  1  1  0  0  0
 12 15  1  6  0  0  0
 12 11  1  0  0  0  0
 12 14  1  0  0  0  0
 13  9  1  1  0  0  0
 13 10  1  0  0  0  0
 14 13  1  0  0  0  0
 16 10  1  0  0  0  0
 17 11  1  1  0  0  0
 17 20  1  0  0  0  0
 19 20  1  0  0  0  0
 20 18  1  1  0  0  0
 21 19  1  1  0  0  0
 21 17  1  0  0  0  0
 21 20  1  0  0  0  0
 22  3  1  0  0  0  0
 23 30  1  0  0  0  0
 23 31  1  0  0  0  0
 24 28  1  0  0  0  0
 24 27  1  0  0  0  0
 25 26  2  0  0  0  0
 25 28  1  0  0  0  0
 26 30  1  0  0  0  0
 27 31  1  0  0  0  0
 28 23  2  0  0  0  0
 29 24  1  0  0  0  0
 31 22  1  1  0  0  0
M  END
>  <MODEL>
5

>  <REMARK>
 VINA RESULT:      -6.9      2.868      7.474
  Name = 
  6 active torsions:
  status: ('A' for Active; 'I' for Inactive)
    1  A    between atoms: C_1  and  N_7
    2  A    between atoms: C_12  and  C_13
    3  A    between atoms: C_12  and  C_31
    4  A    between atoms: C_17  and  N_22
    5  A    between atoms: N_22  and  C_30
    6  A    between atoms: C_25  and  C_31
                            x       y       z     vdW  Elec       q    Type
                         _______ _______ _______ _____ _____    ______ ____

>  <TORSDO>
F 6

$$$$
=
 OpenBabel11062421273D

 31 36  0  0  1  0  0  0  0  0999 V2000
  185.9930  178.4650  141.7010 N   0  0  0  0  0  0  0  0  0  0  0  0
  186.3210  178.4720  143.0130 C   0  0  0  0  0  3  0  0  0  0  0  0
  187.5920  177.0050  141.9760 C   0  0  0  0  0  0  0  0  0  0  0  0
  186.7130  177.3430  139.7120 N   0  0  0  0  0  1  0  0  0  0  0  0
  187.3420  177.5510  143.2170 C   0  0  0  0  0  0  0  0  0  0  0  0
  186.7610  177.5800  141.0900 N   0  0  0  0  0  0  0  0  0  0  0  0
  187.4980  176.4050  145.2880 O   0  0  0  0  0  0  0  0  0  0  0  0
  188.0060  177.2400  144.4940 C   0  0  0  0  0  0  0  0  0  0  0  0
  189.2990  177.8980  144.8550 C   0  0  0  0  0  2  0  0  0  0  0  0
  191.1540  176.6860  145.9970 C   0  0  0  0  0  2  0  0  0  0  0  0
  192.8980  175.6630  144.5900 N   0  0  2  0  0  0  0  0  0  0  0  0
  192.6350  176.5330  143.4240 C   0  0  2  0  0  3  0  0  0  0  0  0
  190.4690  176.9470  144.6530 C   0  0  2  0  0  3  0  0  0  0  0  0
  191.4640  177.5070  143.6380 C   0  0  0  0  0  2  0  0  0  0  0  0
  192.3330  175.6810  142.2030 C   0  0  0  0  0  1  0  0  0  0  0  0
  192.6490  176.3980  145.8330 C   0  0  0  0  0  2  0  0  0  0  0  0
  194.3210  175.3310  144.5800 C   0  0  1  0  0  3  0  0  0  0  0  0
  196.0070  174.3620  146.0140 O   0  0  0  0  0  1  0  0  0  0  0  0
  194.1140  172.9790  145.4470 C   0  0  0  0  0  2  0  0  0  0  0  0
  194.6470  174.3690  145.7090 C   0  0  1  0  0  0  0  0  0  0  0  0
  194.5150  173.8550  144.2820 C   0  0  2  0  0  3  0  0  0  0  0  0
  188.5850  176.0140  141.6840 N   0  0  0  0  0  2  0  0  0  0  0  0
  189.0520  173.9990  140.4580 C   0  0  0  0  0  0  0  0  0  0  0  0
  189.9000  172.9260  142.2570 N   0  0  0  0  0  0  0  0  0  0  0  0
  190.1400  172.0370  139.9290 N   0  0  0  0  0  0  0  0  0  0  0  0
  189.4830  172.2670  138.6500 C   0  0  0  0  0  3  0  0  0  0  0  0
  188.9520  173.8730  142.8260 C   0  0  0  0  0  2  0  0  0  0  0  0
  189.8620  173.0700  140.8540 C   0  0  0  0  0  0  0  0  0  0  0  0
  190.1760  171.7430  142.8540 O   0  0  0  0  0  1  0  0  0  0  0  0
  188.4510  173.7870  138.7950 S   0  0  0  0  0  0  0  0  0  0  0  0
  188.3190  174.5850  141.6140 C   0  0  1  0  0  3  0  0  0  0  0  0
  1  2  2  0  0  0  0
  2  5  1  0  0  0  0
  3  5  2  0  0  0  0
  4  6  1  0  0  0  0
  5  8  1  0  0  0  0
  6  1  1  0  0  0  0
  6  3  1  0  0  0  0
  8  9  1  0  0  0  0
  8  7  2  0  0  0  0
 11 16  1  1  0  0  0
 12 15  1  6  0  0  0
 12 14  1  0  0  0  0
 12 11  1  0  0  0  0
 13  9  1  1  0  0  0
 13 10  1  0  0  0  0
 14 13  1  0  0  0  0
 16 10  1  0  0  0  0
 17 11  1  1  0  0  0
 17 20  1  0  0  0  0
 19 20  1  0  0  0  0
 20 18  1  1  0  0  0
 21 17  1  0  0  0  0
 21 19  1  1  0  0  0
 21 20  1  0  0  0  0
 22  3  1  0  0  0  0
 23 28  2  0  0  0  0
 23 31  1  0  0  0  0
 24 27  1  0  0  0  0
 24 29  1  0  0  0  0
 25 28  1  0  0  0  0
 26 30  1  0  0  0  0
 26 25  2  0  0  0  0
 28 24  1  0  0  0  0
 30 23  1  0  0  0  0
 31 22  1  1  0  0  0
 31 27  1  0  0  0  0
M  END
>  <MODEL>
6

>  <REMARK>
 VINA RESULT:      -6.8      2.593      3.734
  Name = 
  6 active torsions:
  status: ('A' for Active; 'I' for Inactive)
    1  A    between atoms: C_1  and  N_7
    2  A    between atoms: C_12  and  C_13
    3  A    between atoms: C_12  and  C_31
    4  A    between atoms: C_17  and  N_22
    5  A    between atoms: N_22  and  C_30
    6  A    between atoms: C_25  and  C_31
                            x       y       z     vdW  Elec       q    Type
                         _______ _______ _______ _____ _____    ______ ____

>  <TORSDO>
F 6

$$$$
=
 OpenBabel11062421273D

 31 36  0  0  1  0  0  0  0  0999 V2000
  189.5360  173.1180  143.4130 N   0  0  0  0  0  0  0  0  0  0  0  0
  189.8850  173.5620  144.6420 C   0  0  0  0  0  3  0  0  0  0  0  0
  188.7150  175.1290  143.6320 C   0  0  0  0  0  0  0  0  0  0  0  0
  188.2810  173.9270  141.5410 N   0  0  0  0  0  1  0  0  0  0  0  0
  189.3720  174.8420  144.8100 C   0  0  0  0  0  0  0  0  0  0  0  0
  188.8350  174.0680  142.8180 N   0  0  0  0  0  0  0  0  0  0  0  0
  188.6450  175.6540  146.9180 O   0  0  0  0  0  0  0  0  0  0  0  0
  189.5090  175.6960  146.0030 C   0  0  0  0  0  0  0  0  0  0  0  0
  190.6850  176.6080  146.1490 C   0  0  0  0  0  2  0  0  0  0  0  0
  192.8360  175.4380  146.6150 C   0  0  0  0  0  2  0  0  0  0  0  0
  194.4710  175.2600  144.7810 N   0  0  2  0  0  0  0  0  0  0  0  0
  193.9210  176.4030  144.0210 C   0  0  2  0  0  3  0  0  0  0  0  0
  191.9280  175.9990  145.5180 C   0  0  2  0  0  3  0  0  0  0  0  0
  192.6750  177.0290  144.6720 C   0  0  0  0  0  2  0  0  0  0  0  0
  193.5560  175.9590  142.6150 C   0  0  0  0  0  1  0  0  0  0  0  0
  194.3140  175.4890  146.2200 C   0  0  0  0  0  2  0  0  0  0  0  0
  195.9080  175.2080  144.5210 C   0  0  1  0  0  3  0  0  0  0  0  0
  197.9100  174.1670  145.3840 O   0  0  0  0  0  1  0  0  0  0  0  0
  196.1620  172.7060  144.5910 C   0  0  0  0  0  2  0  0  0  0  0  0
  196.5320  174.0230  145.2370 C   0  0  1  0  0  0  0  0  0  0  0  0
  196.2560  173.9530  143.7410 C   0  0  2  0  0  3  0  0  0  0  0  0
  188.0080  176.3420  143.3440 N   0  0  0  0  0  2  0  0  0  0  0  0
  186.0750  177.4930  144.1920 C   0  0  0  0  0  0  0  0  0  0  0  0
  185.4370  178.2290  142.1530 N   0  0  0  0  0  0  0  0  0  0  0  0
  184.4210  179.0960  144.2700 N   0  0  0  0  0  0  0  0  0  0  0  0
  184.3490  178.6490  145.6550 C   0  0  0  0  0  3  0  0  0  0  0  0
  186.1560  176.9950  141.8730 C   0  0  0  0  0  2  0  0  0  0  0  0
  185.4310  178.4150  143.5520 C   0  0  0  0  0  0  0  0  0  0  0  0
  184.4290  178.6660  141.3620 O   0  0  0  0  0  1  0  0  0  0  0  0
  185.5560  177.2750  145.8810 S   0  0  0  0  0  0  0  0  0  0  0  0
  186.5600  176.4420  143.2540 C   0  0  1  0  0  3  0  0  0  0  0  0
  1  2  2  0  0  0  0
  2  5  1  0  0  0  0
  3  5  2  0  0  0  0
  4  6  1  0  0  0  0
  5  8  1  0  0  0  0
  6  1  1  0  0  0  0
  6  3  1  0  0  0  0
  8  9  1  0  0  0  0
  8  7  2  0  0  0  0
 11 16  1  1  0  0  0
 12 15  1  6  0  0  0
 12 14  1  0  0  0  0
 12 11  1  0  0  0  0
 13  9  1  1  0  0  0
 13 10  1  0  0  0  0
 14 13  1  0  0  0  0
 16 10  1  0  0  0  0
 17 11  1  1  0  0  0
 17 20  1  0  0  0  0
 19 20  1  0  0  0  0
 20 18  1  1  0  0  0
 21 17  1  0  0  0  0
 21 19  1  1  0  0  0
 21 20  1  0  0  0  0
 22  3  1  0  0  0  0
 23 30  1  0  0  0  0
 24 28  1  0  0  0  0
 25 26  2  0  0  0  0
 26 30  1  0  0  0  0
 27 24  1  0  0  0  0
 27 31  1  0  0  0  0
 28 23  2  0  0  0  0
 28 25  1  0  0  0  0
 29 24  1  0  0  0  0
 31 22  1  6  0  0  0
 31 23  1  0  0  0  0
M  END
>  <MODEL>
7

>  <REMARK>
 VINA RESULT:      -6.8      2.155      3.729
  Name = 
  6 active torsions:
  status: ('A' for Active; 'I' for Inactive)
    1  A    between atoms: C_1  and  N_7
    2  A    between atoms: C_12  and  C_13
    3  A    between atoms: C_12  and  C_31
    4  A    between atoms: C_17  and  N_22
    5  A    between atoms: N_22  and  C_30
    6  A    between atoms: C_25  and  C_31
                            x       y       z     vdW  Elec       q    Type
                         _______ _______ _______ _____ _____    ______ ____

>  <TORSDO>
F 6

$$$$
=
 OpenBabel11062421273D

 31 36  0  0  1  0  0  0  0  0999 V2000
  193.1590  173.5410  140.1070 N   0  0  0  0  0  0  0  0  0  0  0  0
  191.8960  173.1530  140.3950 C   0  0  0  0  0  3  0  0  0  0  0  0
  192.4400  174.8240  141.7200 C   0  0  0  0  0  0  0  0  0  0  0  0
  194.7000  175.2140  140.8550 N   0  0  0  0  0  1  0  0  0  0  0  0
  191.4110  173.9570  141.4190 C   0  0  0  0  0  0  0  0  0  0  0  0
  193.4730  174.5440  140.9090 N   0  0  0  0  0  0  0  0  0  0  0  0
  189.8520  173.0710  142.9730 O   0  0  0  0  0  0  0  0  0  0  0  0
  190.0770  173.8850  142.0390 C   0  0  0  0  0  0  0  0  0  0  0  0
  188.9790  174.7890  141.5780 C   0  0  0  0  0  2  0  0  0  0  0  0
  186.8520  175.6250  142.5730 C   0  0  0  0  0  2  0  0  0  0  0  0
  187.0050  177.2500  144.4180 N   0  0  2  0  0  0  0  0  0  0  0  0
  188.3680  177.7010  144.0660 C   0  0  2  0  0  3  0  0  0  0  0  0
  188.3700  175.5470  142.7480 C   0  0  2  0  0  3  0  0  0  0  0  0
  188.9730  176.9460  142.8700 C   0  0  0  0  0  2  0  0  0  0  0  0
  189.2930  177.5280  145.2590 C   0  0  0  0  0  1  0  0  0  0  0  0
  186.2640  176.8890  143.2060 C   0  0  0  0  0  2  0  0  0  0  0  0
  186.3040  178.3870  145.0110 C   0  0  1  0  0  3  0  0  0  0  0  0
  184.0760  179.0520  145.6690 O   0  0  0  0  0  1  0  0  0  0  0  0
  185.0070  177.1040  146.7430 C   0  0  0  0  0  2  0  0  0  0  0  0
  184.9310  177.9640  145.5020 C   0  0  1  0  0  0  0  0  0  0  0  0
  186.0720  178.1470  146.4930 C   0  0  2  0  0  3  0  0  0  0  0  0
  192.3980  175.8590  142.7100 N   0  0  0  0  0  2  0  0  0  0  0  0
  193.9380  174.9370  144.3090 C   0  0  0  0  0  0  0  0  0  0  0  0
  194.2210  176.9020  145.3900 N   0  0  0  0  0  0  0  0  0  0  0  0
  195.6920  174.9190  145.8040 N   0  0  0  0  0  0  0  0  0  0  0  0
  195.6090  173.4860  145.5570 C   0  0  0  0  0  3  0  0  0  0  0  0
  192.8810  176.9970  144.8290 C   0  0  0  0  0  2  0  0  0  0  0  0
  194.7430  175.6380  145.0410 C   0  0  0  0  0  0  0  0  0  0  0  0
  194.5650  177.5330  146.5360 O   0  0  0  0  0  1  0  0  0  0  0  0
  194.2020  173.1790  144.4070 S   0  0  0  0  0  0  0  0  0  0  0  0
  192.6410  175.6460  144.1280 C   0  0  1  0  0  3  0  0  0  0  0  0
  1  2  2  0  0  0  0
  1  6  1  0  0  0  0
  2  5  1  0  0  0  0
  3 22  1  0  0  0  0
  4  6  1  0  0  0  0
  5  3  2  0  0  0  0
  5  8  1  0  0  0  0
  6  3  1  0  0  0  0
  8  7  2  0  0  0  0
  9  8  1  0  0  0  0
 10 13  1  0  0  0  0
 10 16  1  0  0  0  0
 11 16  1  6  0  0  0
 12 11  1  0  0  0  0
 12 15  1  1  0  0  0
 13  9  1  6  0  0  0
 13 14  1  0  0  0  0
 14 12  1  0  0  0  0
 17 11  1  6  0  0  0
 17 20  1  0  0  0  0
 17 21  1  0  0  0  0
 20 18  1  1  0  0  0
 20 21  1  0  0  0  0
 20 19  1  0  0  0  0
 21 19  1  6  0  0  0
 23 30  1  0  0  0  0
 23 28  2  0  0  0  0
 24 29  1  0  0  0  0
 26 25  2  0  0  0  0
 27 24  1  0  0  0  0
 28 24  1  0  0  0  0
 28 25  1  0  0  0  0
 30 26  1  0  0  0  0
 31 22  1  6  0  0  0
 31 23  1  0  0  0  0
 31 27  1  0  0  0  0
M  END
>  <MODEL>
8

>  <REMARK>
 VINA RESULT:      -6.7      3.229      8.572
  Name = 
  6 active torsions:
  status: ('A' for Active; 'I' for Inactive)
    1  A    between atoms: C_1  and  N_7
    2  A    between atoms: C_12  and  C_13
    3  A    between atoms: C_12  and  C_31
    4  A    between atoms: C_17  and  N_22
    5  A    between atoms: N_22  and  C_30
    6  A    between atoms: C_25  and  C_31
                            x       y       z     vdW  Elec       q    Type
                         _______ _______ _______ _____ _____    ______ ____

>  <TORSDO>
F 6

$$$$
=
 OpenBabel11062421273D

 31 36  0  0  1  0  0  0  0  0999 V2000
  194.4950  176.7390  146.3030 N   0  0  0  0  0  0  0  0  0  0  0  0
  193.4230  176.6620  147.1240 C   0  0  0  0  0  3  0  0  0  0  0  0
  192.7770  176.1880  145.0740 C   0  0  0  0  0  0  0  0  0  0  0  0
  194.9590  176.4030  143.9780 N   0  0  0  0  0  1  0  0  0  0  0  0
  192.3120  176.3100  146.3670 C   0  0  0  0  0  0  0  0  0  0  0  0
  194.0940  176.4530  145.0760 N   0  0  0  0  0  0  0  0  0  0  0  0
  190.5680  174.9780  147.2680 O   0  0  0  0  0  0  0  0  0  0  0  0
  190.9390  176.1100  146.8590 C   0  0  0  0  0  0  0  0  0  0  0  0
  189.9750  177.2520  146.8960 C   0  0  0  0  0  2  0  0  0  0  0  0
  189.0110  177.1770  144.5980 C   0  0  0  0  0  2  0  0  0  0  0  0
  186.5690  176.9370  144.3820 N   0  0  2  0  0  0  0  0  0  0  0  0
  186.2790  177.4500  145.7380 C   0  0  2  0  0  3  0  0  0  0  0  0
  188.7280  176.9400  146.0840 C   0  0  2  0  0  3  0  0  0  0  0  0
  187.5430  177.7840  146.5500 C   0  0  0  0  0  2  0  0  0  0  0  0
  185.4660  176.4280  146.5140 C   0  0  0  0  0  1  0  0  0  0  0  0
  187.7550  177.6020  143.8340 C   0  0  0  0  0  2  0  0  0  0  0  0
  185.4480  177.3070  143.5210 C   0  0  1  0  0  3  0  0  0  0  0  0
  183.4530  178.6690  143.5610 O   0  0  0  0  0  1  0  0  0  0  0  0
  185.5620  179.7930  143.8880 C   0  0  0  0  0  2  0  0  0  0  0  0
  184.7430  178.5350  144.0710 C   0  0  1  0  0  0  0  0  0  0  0  0
  185.6960  178.6650  142.8900 C   0  0  2  0  0  3  0  0  0  0  0  0
  191.9900  175.8190  143.9350 N   0  0  0  0  0  2  0  0  0  0  0  0
  190.7080  173.8780  143.3290 C   0  0  0  0  0  0  0  0  0  0  0  0
  191.1520  174.0920  141.1230 N   0  0  0  0  0  0  0  0  0  0  0  0
  189.4070  172.5210  141.9940 N   0  0  0  0  0  0  0  0  0  0  0  0
  189.0960  171.9140  143.2800 C   0  0  0  0  0  3  0  0  0  0  0  0
  192.3030  174.6980  141.7750 C   0  0  0  0  0  2  0  0  0  0  0  0
  190.2850  173.6220  142.1330 C   0  0  0  0  0  0  0  0  0  0  0  0
  191.2470  173.4890  139.9150 O   0  0  0  0  0  1  0  0  0  0  0  0
  190.0770  172.7770  144.5790 S   0  0  0  0  0  0  0  0  0  0  0  0
  192.0510  174.5190  143.2860 C   0  0  1  0  0  3  0  0  0  0  0  0
  1  2  2  0  0  0  0
  3  6  1  0  0  0  0
  3  5  2  0  0  0  0
  4  6  1  0  0  0  0
  5  8  1  0  0  0  0
  5  2  1  0  0  0  0
  6  1  1  0  0  0  0
  8  9  1  0  0  0  0
  8  7  2  0  0  0  0
 10 13  1  0  0  0  0
 11 16  1  6  0  0  0
 11 12  1  0  0  0  0
 12 15  1  1  0  0  0
 12 14  1  0  0  0  0
 13 14  1  0  0  0  0
 13  9  1  1  0  0  0
 16 10  1  0  0  0  0
 17 20  1  0  0  0  0
 17 11  1  1  0  0  0
 19 20  1  0  0  0  0
 20 18  1  6  0  0  0
 21 17  1  0  0  0  0
 21 19  1  1  0  0  0
 21 20  1  0  0  0  0
 22  3  1  0  0  0  0
 23 30  1  0  0  0  0
 24 27  1  0  0  0  0
 24 28  1  0  0  0  0
 25 28  1  0  0  0  0
 25 26  2  0  0  0  0
 26 30  1  0  0  0  0
 27 31  1  0  0  0  0
 28 23  2  0  0  0  0
 29 24  1  0  0  0  0
 31 23  1  0  0  0  0
 31 22  1  1  0  0  0
M  END
>  <MODEL>
9

>  <REMARK>
 VINA RESULT:      -6.7      2.895      7.209
  Name = 
  6 active torsions:
  status: ('A' for Active; 'I' for Inactive)
    1  A    between atoms: C_1  and  N_7
    2  A    between atoms: C_12  and  C_13
    3  A    between atoms: C_12  and  C_31
    4  A    between atoms: C_17  and  N_22
    5  A    between atoms: N_22  and  C_30
    6  A    between atoms: C_25  and  C_31
                            x       y       z     vdW  Elec       q    Type
                         _______ _______ _______ _____ _____    ______ ____

>  <TORSDO>
F 6

$$$$
