=
 OpenBabel11062419573D

 28 31  0  0  1  0  0  0  0  0999 V2000
  187.1800  177.5310  144.1460 C   0  0  0  0  0  0  0  0  0  0  0  0
  184.5920  178.4010  147.3160 C   0  0  0  0  0  3  0  0  0  0  0  0
  186.6780  177.5070  142.7200 C   0  0  2  0  0  3  0  0  0  0  0  0
  184.4970  178.3440  143.6020 C   0  0  0  0  0  3  0  0  0  0  0  0
  185.2780  178.0650  142.5560 C   0  0  0  0  0  0  0  0  0  0  0  0
  185.9170  178.0530  147.5970 C   0  0  0  0  0  3  0  0  0  0  0  0
  184.7370  178.2820  141.1860 C   0  0  0  0  0  1  0  0  0  0  0  0
  184.1600  178.4700  146.0270 N   0  0  0  0  0  0  0  0  0  0  0  0
  186.3150  177.8250  145.2160 C   0  0  0  0  0  0  0  0  0  0  0  0
  186.7870  177.7710  146.5430 C   0  0  0  0  0  0  0  0  0  0  0  0
  188.9950  177.1720  145.7370 C   0  0  0  0  0  0  0  0  0  0  0  0
  188.1210  177.4460  146.7950 C   0  0  0  0  0  3  0  0  0  0  0  0
  186.7290  176.0860  142.1790 C   0  0  0  0  0  1  0  0  0  0  0  0
  184.9840  178.1950  144.9800 C   0  0  0  0  0  0  0  0  0  0  0  0
  188.5170  177.2130  144.4180 C   0  0  0  0  0  3  0  0  0  0  0  0
  190.3590  176.8500  146.0390 N   0  0  0  0  0  2  0  0  0  0  0  0
  190.9620  175.5470  146.0050 C   0  0  0  0  0  0  0  0  0  0  0  0
  190.2860  174.5240  145.7210 O   0  0  0  0  0  0  0  0  0  0  0  0
  192.4200  175.3920  146.3180 C   0  0  2  0  0  3  0  0  0  0  0  0
  192.8450  176.5810  147.1650 C   0  0  0  0  0  1  0  0  0  0  0  0
  193.5360  174.5190  142.2530 C   0  0  1  0  0  3  0  0  0  0  0  0
  192.7780  176.1630  143.9360 C   0  0  0  0  0  2  0  0  0  0  0  0
  193.3370  173.7920  144.5140 C   0  0  1  0  0  3  0  0  0  0  0  0
  193.5750  175.9850  142.6530 C   0  0  0  0  0  2  0  0  0  0  0  0
  193.3010  175.2450  145.0530 C   0  0  2  0  0  3  0  0  0  0  0  0
  194.2990  174.3300  140.9590 C   0  0  0  0  0  1  0  0  0  0  0  0
  194.1520  173.7140  143.3010 N   0  0  0  0  0  2  0  0  0  0  0  0
  193.9100  172.8110  145.5220 C   0  0  0  0  0  1  0  0  0  0  0  0
  1 15  2  0  0  0  0
  1  9  1  0  0  0  0
  2  6  1  0  0  0  0
  3 13  1  1  0  0  0
  3  1  1  0  0  0  0
  4 14  1  0  0  0  0
  5  3  1  0  0  0  0
  5  4  2  0  0  0  0
  7  5  1  0  0  0  0
  8  2  2  0  0  0  0
  9 10  1  0  0  0  0
 10 12  1  0  0  0  0
 10  6  2  0  0  0  0
 11 16  1  0  0  0  0
 11 12  2  0  0  0  0
 14  9  2  0  0  0  0
 14  8  1  0  0  0  0
 15 11  1  0  0  0  0
 17 16  1  0  0  0  0
 17 19  1  0  0  0  0
 18 17  2  0  0  0  0
 19 20  1  6  0  0  0
 21 26  1  6  0  0  0
 21 24  1  0  0  0  0
 21 27  1  0  0  0  0
 22 25  1  0  0  0  0
 23 25  1  0  0  0  0
 23 28  1  1  0  0  0
 24 22  1  0  0  0  0
 25 19  1  1  0  0  0
 27 23  1  0  0  0  0
M  END
>  <MODEL>
1

>  <REMARK>
 VINA RESULT:      -8.2      0.000      0.000
  Name = 
  3 active torsions:
  status: ('A' for Active; 'I' for Inactive)
    1  A    between atoms: N_5  and  C_20
    2  A    between atoms: C_13  and  C_26
    3  A    between atoms: C_17  and  C_26
                            x       y       z     vdW  Elec       q    Type
                         _______ _______ _______ _____ _____    ______ ____

>  <TORSDO>
F 3

$$$$
=
 OpenBabel11062419573D

 28 31  0  0  1  0  0  0  0  0999 V2000
  187.3650  177.4630  144.1410 C   0  0  0  0  0  0  0  0  0  0  0  0
  184.5230  178.3010  147.0940 C   0  0  0  0  0  3  0  0  0  0  0  0
  186.9760  177.4210  142.6810 C   0  0  2  0  0  3  0  0  0  0  0  0
  184.7170  178.2210  143.3850 C   0  0  0  0  0  3  0  0  0  0  0  0
  185.5830  177.9510  142.4040 C   0  0  0  0  0  0  0  0  0  0  0  0
  185.8290  177.9810  147.4800 C   0  0  0  0  0  3  0  0  0  0  0  0
  185.1460  178.1500  140.9950 C   0  0  0  0  0  1  0  0  0  0  0  0
  184.1910  178.3540  145.7750 N   0  0  0  0  0  0  0  0  0  0  0  0
  186.4150  177.7470  145.1380 C   0  0  0  0  0  0  0  0  0  0  0  0
  186.7820  177.7090  146.4990 C   0  0  0  0  0  0  0  0  0  0  0  0
  189.0570  177.1480  145.8710 C   0  0  0  0  0  0  0  0  0  0  0  0
  188.1000  177.4110  146.8550 C   0  0  0  0  0  3  0  0  0  0  0  0
  187.0950  175.9980  142.1550 C   0  0  0  0  0  1  0  0  0  0  0  0
  185.0990  178.0890  144.7970 C   0  0  0  0  0  0  0  0  0  0  0  0
  188.6830  177.1730  144.5180 C   0  0  0  0  0  3  0  0  0  0  0  0
  190.4000  176.8540  146.2790 N   0  0  0  0  0  2  0  0  0  0  0  0
  191.1010  175.6150  146.0980 C   0  0  0  0  0  0  0  0  0  0  0  0
  190.5420  174.6220  145.5620 O   0  0  0  0  0  0  0  0  0  0  0  0
  192.5230  175.4870  146.5580 C   0  0  2  0  0  3  0  0  0  0  0  0
  192.8910  176.7670  147.2930 C   0  0  0  0  0  1  0  0  0  0  0  0
  196.0140  175.7630  144.0550 C   0  0  1  0  0  3  0  0  0  0  0  0
  194.8590  174.7160  145.9740 C   0  0  0  0  0  2  0  0  0  0  0  0
  193.7650  176.4160  144.4970 C   0  0  1  0  0  3  0  0  0  0  0  0
  195.8780  174.4850  144.8680 C   0  0  0  0  0  2  0  0  0  0  0  0
  193.5100  175.1850  145.4040 C   0  0  2  0  0  3  0  0  0  0  0  0
  197.0490  175.5600  142.9690 C   0  0  0  0  0  1  0  0  0  0  0  0
  194.7290  176.0890  143.4470 N   0  0  0  0  0  2  0  0  0  0  0  0
  192.4980  176.9160  143.8240 C   0  0  0  0  0  1  0  0  0  0  0  0
  1 15  2  0  0  0  0
  1  9  1  0  0  0  0
  2  6  1  0  0  0  0
  3 13  1  1  0  0  0
  3  1  1  0  0  0  0
  4 14  1  0  0  0  0
  5  3  1  0  0  0  0
  5  4  2  0  0  0  0
  7  5  1  0  0  0  0
  8  2  2  0  0  0  0
  9 10  1  0  0  0  0
 10 12  1  0  0  0  0
 10  6  2  0  0  0  0
 11 16  1  0  0  0  0
 11 12  2  0  0  0  0
 14  9  2  0  0  0  0
 14  8  1  0  0  0  0
 15 11  1  0  0  0  0
 17 16  1  0  0  0  0
 17 19  1  0  0  0  0
 18 17  2  0  0  0  0
 19 20  1  6  0  0  0
 21 26  1  6  0  0  0
 21 24  1  0  0  0  0
 23 28  1  6  0  0  0
 23 25  1  0  0  0  0
 24 22  1  0  0  0  0
 25 22  1  0  0  0  0
 25 19  1  1  0  0  0
 27 21  1  0  0  0  0
 27 23  1  0  0  0  0
M  END
>  <MODEL>
2

>  <REMARK>
 VINA RESULT:      -8.1      1.209      1.726
  Name = 
  3 active torsions:
  status: ('A' for Active; 'I' for Inactive)
    1  A    between atoms: N_5  and  C_20
    2  A    between atoms: C_13  and  C_26
    3  A    between atoms: C_17  and  C_26
                            x       y       z     vdW  Elec       q    Type
                         _______ _______ _______ _____ _____    ______ ____

>  <TORSDO>
F 3

$$$$
=
 OpenBabel11062419573D

 28 31  0  0  1  0  0  0  0  0999 V2000
  187.7740  177.5320  145.6630 C   0  0  0  0  0  0  0  0  0  0  0  0
  187.1300  178.2910  141.6000 C   0  0  0  0  0  3  0  0  0  0  0  0
  186.6470  177.6640  146.6640 C   0  0  0  0  0  0  0  0  0  0  0  0
  185.1280  178.0500  144.7210 C   0  0  0  0  0  3  0  0  0  0  0  0
  185.2820  177.8270  146.0290 C   0  0  0  0  0  0  0  0  0  0  0  0
  188.4230  177.9890  142.0380 C   0  0  0  0  0  3  0  0  0  0  0  0
  184.0670  177.7710  146.8880 C   0  0  0  0  0  1  0  0  0  0  0  0
  186.0950  178.3200  142.4850 N   0  0  0  0  0  0  0  0  0  0  0  0
  187.5630  177.7840  144.2960 C   0  0  1  0  0  3  0  0  0  0  0  0
  188.6420  177.7270  143.3910 C   0  0  0  0  0  0  0  0  0  0  0  0
  190.1350  177.1270  145.2050 C   0  0  0  0  0  0  0  0  0  0  0  0
  189.9190  177.3990  143.8510 C   0  0  0  0  0  3  0  0  0  0  0  0
  186.9200  178.8330  147.5980 C   0  0  0  0  0  1  0  0  0  0  0  0
  186.2800  178.0730  143.8100 C   0  0  0  0  0  0  0  0  0  0  0  0
  189.0610  177.1980  146.1050 C   0  0  0  0  0  3  0  0  0  0  0  0
  191.4610  176.7860  145.6350 N   0  0  0  0  0  2  0  0  0  0  0  0
  192.0560  175.4800  145.6290 C   0  0  0  0  0  0  0  0  0  0  0  0
  191.4060  174.4690  145.2530 O   0  0  0  0  0  0  0  0  0  0  0  0
  193.4740  175.3040  146.0840 C   0  0  2  0  0  3  0  0  0  0  0  0
  193.8620  176.5360  146.8880 C   0  0  0  0  0  1  0  0  0  0  0  0
  194.8960  174.3240  142.1420 C   0  0  1  0  0  3  0  0  0  0  0  0
  194.1950  176.0410  143.7750 C   0  0  0  0  0  2  0  0  0  0  0  0
  194.3520  173.6090  144.3500 C   0  0  1  0  0  3  0  0  0  0  0  0
  195.0960  175.7660  142.5800 C   0  0  0  0  0  2  0  0  0  0  0  0
  194.4590  175.0480  144.9180 C   0  0  2  0  0  3  0  0  0  0  0  0
  195.7630  174.0430  140.9330 C   0  0  0  0  0  1  0  0  0  0  0  0
  195.2760  173.4300  143.2300 N   0  0  0  0  0  2  0  0  0  0  0  0
  194.6690  172.5480  145.3880 C   0  0  0  0  0  1  0  0  0  0  0  0
  1 15  1  0  0  0  0
  1  3  2  0  0  0  0
  2  6  2  0  0  0  0
  2  8  1  0  0  0  0
  3 13  1  0  0  0  0
  4  5  2  0  0  0  0
  5  3  1  0  0  0  0
  5  7  1  0  0  0  0
  6 10  1  0  0  0  0
  8 14  2  0  0  0  0
  9 10  1  6  0  0  0
  9  1  1  0  0  0  0
 10 12  2  0  0  0  0
 11 16  1  0  0  0  0
 11 15  2  0  0  0  0
 12 11  1  0  0  0  0
 14  9  1  0  0  0  0
 14  4  1  0  0  0  0
 17 16  1  0  0  0  0
 17 19  1  0  0  0  0
 18 17  2  0  0  0  0
 19 20  1  6  0  0  0
 21 26  1  6  0  0  0
 21 24  1  0  0  0  0
 21 27  1  0  0  0  0
 22 25  1  0  0  0  0
 23 25  1  0  0  0  0
 23 28  1  1  0  0  0
 24 22  1  0  0  0  0
 25 19  1  1  0  0  0
 27 23  1  0  0  0  0
M  END
>  <MODEL>
3

>  <REMARK>
 VINA RESULT:      -7.8      1.443      2.987
  Name = 
  3 active torsions:
  status: ('A' for Active; 'I' for Inactive)
    1  A    between atoms: N_5  and  C_20
    2  A    between atoms: C_13  and  C_26
    3  A    between atoms: C_17  and  C_26
                            x       y       z     vdW  Elec       q    Type
                         _______ _______ _______ _____ _____    ______ ____

>  <TORSDO>
F 3

$$$$
=
 OpenBabel11062419573D

 28 31  0  0  1  0  0  0  0  0999 V2000
  186.9160  176.8140  144.1000 C   0  0  0  0  0  0  0  0  0  0  0  0
  185.0700  178.1630  140.5970 C   0  0  0  0  0  3  0  0  0  0  0  0
  186.3510  177.1670  145.4590 C   0  0  0  0  0  0  0  0  0  0  0  0
  184.4200  178.1950  144.2550 C   0  0  0  0  0  3  0  0  0  0  0  0
  184.9750  177.7970  145.4030 C   0  0  0  0  0  0  0  0  0  0  0  0
  186.2660  177.4450  140.5010 C   0  0  0  0  0  3  0  0  0  0  0  0
  184.2210  178.0130  146.6690 C   0  0  0  0  0  1  0  0  0  0  0  0
  184.5100  178.4040  141.8150 N   0  0  0  0  0  0  0  0  0  0  0  0
  186.2980  177.2630  142.9190 C   0  0  1  0  0  3  0  0  0  0  0  0
  186.8810  176.9850  141.6660 C   0  0  0  0  0  0  0  0  0  0  0  0
  188.6730  175.7750  142.7650 C   0  0  0  0  0  0  0  0  0  0  0  0
  188.0620  176.2430  141.5970 C   0  0  0  0  0  3  0  0  0  0  0  0
  187.3100  178.0940  146.1910 C   0  0  0  0  0  1  0  0  0  0  0  0
  185.0900  177.9720  142.9670 C   0  0  0  0  0  0  0  0  0  0  0  0
  188.0970  176.0660  144.0110 C   0  0  0  0  0  3  0  0  0  0  0  0
  189.8810  175.0110  142.6500 N   0  0  0  0  0  2  0  0  0  0  0  0
  190.0180  173.5910  142.8100 C   0  0  0  0  0  0  0  0  0  0  0  0
  189.0300  172.8720  143.1130 O   0  0  0  0  0  0  0  0  0  0  0  0
  191.3570  172.9440  142.6210 C   0  0  2  0  0  3  0  0  0  0  0  0
  191.1720  171.4400  142.7490 C   0  0  0  0  0  1  0  0  0  0  0  0
  193.3740  175.5810  145.3600 C   0  0  1  0  0  3  0  0  0  0  0  0
  191.8140  173.7010  144.9900 C   0  0  0  0  0  2  0  0  0  0  0  0
  193.0690  174.8060  143.1270 C   0  0  1  0  0  3  0  0  0  0  0  0
  192.8260  174.2950  145.9580 C   0  0  0  0  0  2  0  0  0  0  0  0
  192.4320  173.4740  143.6010 C   0  0  2  0  0  3  0  0  0  0  0  0
  194.3600  176.2030  146.3260 C   0  0  0  0  0  1  0  0  0  0  0  0
  194.0500  175.2810  144.1030 N   0  0  0  0  0  2  0  0  0  0  0  0
  193.7740  174.6710  141.7890 C   0  0  0  0  0  1  0  0  0  0  0  0
  1  3  2  0  0  0  0
  2  8  1  0  0  0  0
  3 13  1  0  0  0  0
  4  5  2  0  0  0  0
  5  3  1  0  0  0  0
  5  7  1  0  0  0  0
  6  2  2  0  0  0  0
  6 10  1  0  0  0  0
  8 14  2  0  0  0  0
  9 10  1  6  0  0  0
  9 14  1  0  0  0  0
  9  1  1  0  0  0  0
 11 15  2  0  0  0  0
 12 10  2  0  0  0  0
 12 11  1  0  0  0  0
 14  4  1  0  0  0  0
 15  1  1  0  0  0  0
 16 11  1  0  0  0  0
 16 17  1  0  0  0  0
 17 18  2  0  0  0  0
 19 20  1  1  0  0  0
 19 17  1  0  0  0  0
 21 24  1  0  0  0  0
 21 26  1  1  0  0  0
 22 24  1  0  0  0  0
 23 28  1  6  0  0  0
 23 25  1  0  0  0  0
 23 27  1  0  0  0  0
 25 19  1  6  0  0  0
 25 22  1  0  0  0  0
 27 21  1  0  0  0  0
M  END
>  <MODEL>
4

>  <REMARK>
 VINA RESULT:      -7.6      1.969      4.066
  Name = 
  3 active torsions:
  status: ('A' for Active; 'I' for Inactive)
    1  A    between atoms: N_5  and  C_20
    2  A    between atoms: C_13  and  C_26
    3  A    between atoms: C_17  and  C_26
                            x       y       z     vdW  Elec       q    Type
                         _______ _______ _______ _____ _____    ______ ____

>  <TORSDO>
F 3

$$$$
=
 OpenBabel11062419573D

 28 31  0  0  1  0  0  0  0  0999 V2000
  187.7130  177.2690  144.1930 C   0  0  0  0  0  0  0  0  0  0  0  0
  185.4940  178.8690  147.3580 C   0  0  0  0  0  3  0  0  0  0  0  0
  187.1570  177.2530  142.7870 C   0  0  2  0  0  3  0  0  0  0  0  0
  185.2330  178.5820  143.6630 C   0  0  0  0  0  3  0  0  0  0  0  0
  185.8960  178.0760  142.6190 C   0  0  0  0  0  0  0  0  0  0  0  0
  186.7300  178.2740  147.6280 C   0  0  0  0  0  3  0  0  0  0  0  0
  185.3530  178.3090  141.2520 C   0  0  0  0  0  1  0  0  0  0  0  0
  185.0310  178.9390  146.0790 N   0  0  0  0  0  0  0  0  0  0  0  0
  186.9730  177.8080  145.2610 C   0  0  0  0  0  0  0  0  0  0  0  0
  187.4780  177.7460  146.5750 C   0  0  0  0  0  0  0  0  0  0  0  0
  189.4810  176.6490  145.7560 C   0  0  0  0  0  0  0  0  0  0  0  0
  188.7280  177.1690  146.8140 C   0  0  0  0  0  3  0  0  0  0  0  0
  186.8930  175.8190  142.3530 C   0  0  0  0  0  1  0  0  0  0  0  0
  185.7370  178.4280  145.0340 C   0  0  0  0  0  0  0  0  0  0  0  0
  188.9670  176.7000  144.4510 C   0  0  0  0  0  3  0  0  0  0  0  0
  190.7620  176.0720  146.0440 N   0  0  0  0  0  2  0  0  0  0  0  0
  192.0290  176.4870  145.5130 C   0  0  0  0  0  0  0  0  0  0  0  0
  192.1100  177.4280  144.6800 O   0  0  0  0  0  0  0  0  0  0  0  0
  193.2840  175.7910  145.9480 C   0  0  2  0  0  3  0  0  0  0  0  0
  194.1910  176.8250  146.5970 C   0  0  0  0  0  1  0  0  0  0  0  0
  194.2760  174.5520  141.9470 C   0  0  1  0  0  3  0  0  0  0  0  0
  194.6900  176.0570  143.8630 C   0  0  0  0  0  2  0  0  0  0  0  0
  193.0260  174.1870  143.9440 C   0  0  1  0  0  3  0  0  0  0  0  0
  195.3360  175.3640  142.6730 C   0  0  0  0  0  2  0  0  0  0  0  0
  193.9980  175.0470  144.7930 C   0  0  2  0  0  3  0  0  0  0  0  0
  194.8960  173.8800  140.7400 C   0  0  0  0  0  1  0  0  0  0  0  0
  193.7430  173.5360  142.8470 N   0  0  0  0  0  2  0  0  0  0  0  0
  192.3420  173.1050  144.7600 C   0  0  0  0  0  1  0  0  0  0  0  0
  1 15  2  0  0  0  0
  1  9  1  0  0  0  0
  2  6  1  0  0  0  0
  3 13  1  1  0  0  0
  3  1  1  0  0  0  0
  4 14  1  0  0  0  0
  5  3  1  0  0  0  0
  5  4  2  0  0  0  0
  7  5  1  0  0  0  0
  8  2  2  0  0  0  0
  9 10  1  0  0  0  0
 10 12  1  0  0  0  0
 10  6  2  0  0  0  0
 11 16  1  0  0  0  0
 11 12  2  0  0  0  0
 14  9  2  0  0  0  0
 14  8  1  0  0  0  0
 15 11  1  0  0  0  0
 17 19  1  0  0  0  0
 17 16  1  0  0  0  0
 18 17  2  0  0  0  0
 19 20  1  6  0  0  0
 21 26  1  6  0  0  0
 21 24  1  0  0  0  0
 21 27  1  0  0  0  0
 22 25  1  0  0  0  0
 23 28  1  1  0  0  0
 23 25  1  0  0  0  0
 24 22  1  0  0  0  0
 25 19  1  1  0  0  0
 27 23  1  0  0  0  0
M  END
>  <MODEL>
5

>  <REMARK>
 VINA RESULT:      -7.6      1.177      1.196
  Name = 
  3 active torsions:
  status: ('A' for Active; 'I' for Inactive)
    1  A    between atoms: N_5  and  C_20
    2  A    between atoms: C_13  and  C_26
    3  A    between atoms: C_17  and  C_26
                            x       y       z     vdW  Elec       q    Type
                         _______ _______ _______ _____ _____    ______ ____

>  <TORSDO>
F 3

$$$$
=
 OpenBabel11062419573D

 28 31  0  0  1  0  0  0  0  0999 V2000
  191.5390  173.5710  145.0400 C   0  0  0  0  0  0  0  0  0  0  0  0
  194.9270  175.6590  146.3260 C   0  0  0  0  0  3  0  0  0  0  0  0
  191.6720  172.2620  144.2930 C   0  0  2  0  0  3  0  0  0  0  0  0
  194.1250  172.3960  144.7420 C   0  0  0  0  0  3  0  0  0  0  0  0
  193.0770  171.6940  144.3020 C   0  0  0  0  0  0  0  0  0  0  0  0
  193.6650  176.2250  146.5260 C   0  0  0  0  0  3  0  0  0  0  0  0
  193.3110  170.3210  143.7760 C   0  0  0  0  0  1  0  0  0  0  0  0
  195.0460  174.4370  145.7370 N   0  0  0  0  0  0  0  0  0  0  0  0
  192.6750  174.2760  145.4770 C   0  0  0  0  0  0  0  0  0  0  0  0
  192.5310  175.5290  146.1060 C   0  0  0  0  0  0  0  0  0  0  0  0
  190.1200  175.3580  145.9030 C   0  0  0  0  0  0  0  0  0  0  0  0
  191.2560  176.0610  146.3150 C   0  0  0  0  0  3  0  0  0  0  0  0
  191.2000  172.4370  142.8580 C   0  0  0  0  0  1  0  0  0  0  0  0
  193.9580  173.7380  145.3130 C   0  0  0  0  0  0  0  0  0  0  0  0
  190.2680  174.1170  145.2640 C   0  0  0  0  0  3  0  0  0  0  0  0
  188.8290  175.9360  146.1440 N   0  0  0  0  0  2  0  0  0  0  0  0
  188.3380  177.1840  145.6320 C   0  0  0  0  0  0  0  0  0  0  0  0
  189.0620  177.9240  144.9160 O   0  0  0  0  0  0  0  0  0  0  0  0
  186.9430  177.6250  145.9570 C   0  0  2  0  0  3  0  0  0  0  0  0
  186.5010  176.8910  147.2130 C   0  0  0  0  0  1  0  0  0  0  0  0
  184.8090  178.3430  142.2880 C   0  0  1  0  0  3  0  0  0  0  0  0
  186.7140  177.2920  143.4600 C   0  0  0  0  0  2  0  0  0  0  0  0
  184.9210  178.5640  144.6580 C   0  0  1  0  0  3  0  0  0  0  0  0
  185.7620  177.1580  142.2820 C   0  0  0  0  0  2  0  0  0  0  0  0
  185.9500  177.4110  144.7890 C   0  0  2  0  0  3  0  0  0  0  0  0
  183.8750  178.2410  141.1010 C   0  0  0  0  0  1  0  0  0  0  0  0
  184.0310  178.3310  143.5210 N   0  0  0  0  0  2  0  0  0  0  0  0
  184.0590  178.7190  145.8990 C   0  0  0  0  0  1  0  0  0  0  0  0
  1 15  2  0  0  0  0
  1  9  1  0  0  0  0
  2  6  1  0  0  0  0
  3 13  1  6  0  0  0
  3  5  1  0  0  0  0
  3  1  1  0  0  0  0
  4 14  1  0  0  0  0
  5  4  2  0  0  0  0
  7  5  1  0  0  0  0
  8  2  2  0  0  0  0
  9 10  1  0  0  0  0
 10 12  1  0  0  0  0
 10  6  2  0  0  0  0
 11 16  1  0  0  0  0
 11 12  2  0  0  0  0
 14  9  2  0  0  0  0
 14  8  1  0  0  0  0
 15 11  1  0  0  0  0
 17 19  1  0  0  0  0
 17 16  1  0  0  0  0
 18 17  2  0  0  0  0
 19 20  1  1  0  0  0
 21 26  1  6  0  0  0
 21 27  1  0  0  0  0
 22 25  1  0  0  0  0
 23 25  1  0  0  0  0
 23 28  1  1  0  0  0
 24 21  1  0  0  0  0
 24 22  1  0  0  0  0
 25 19  1  1  0  0  0
 27 23  1  0  0  0  0
M  END
>  <MODEL>
6

>  <REMARK>
 VINA RESULT:      -7.5      1.833      8.159
  Name = 
  3 active torsions:
  status: ('A' for Active; 'I' for Inactive)
    1  A    between atoms: N_5  and  C_20
    2  A    between atoms: C_13  and  C_26
    3  A    between atoms: C_17  and  C_26
                            x       y       z     vdW  Elec       q    Type
                         _______ _______ _______ _____ _____    ______ ____

>  <TORSDO>
F 3

$$$$
=
 OpenBabel11062419573D

 28 31  0  0  1  0  0  0  0  0999 V2000
  186.8670  176.6610  143.7920 C   0  0  0  0  0  0  0  0  0  0  0  0
  184.8860  178.3380  140.5110 C   0  0  0  0  0  3  0  0  0  0  0  0
  186.4110  176.9520  145.2040 C   0  0  0  0  0  0  0  0  0  0  0  0
  184.4700  178.1600  144.1990 C   0  0  0  0  0  3  0  0  0  0  0  0
  185.0720  177.6580  145.2800 C   0  0  0  0  0  0  0  0  0  0  0  0
  186.0290  177.5650  140.2900 C   0  0  0  0  0  3  0  0  0  0  0  0
  184.4130  177.8290  146.6050 C   0  0  0  0  0  1  0  0  0  0  0  0
  184.4180  178.5270  141.7760 N   0  0  0  0  0  0  0  0  0  0  0  0
  186.2030  177.2200  142.6840 C   0  0  1  0  0  3  0  0  0  0  0  0
  186.6890  176.9960  141.3800 C   0  0  0  0  0  0  0  0  0  0  0  0
  188.4730  175.6210  142.2790 C   0  0  0  0  0  0  0  0  0  0  0  0
  187.8180  176.1980  141.1860 C   0  0  0  0  0  3  0  0  0  0  0  0
  187.4650  177.7750  145.9280 C   0  0  0  0  0  1  0  0  0  0  0  0
  185.0440  177.9880  142.8580 C   0  0  0  0  0  0  0  0  0  0  0  0
  187.9950  175.8590  143.5770 C   0  0  0  0  0  3  0  0  0  0  0  0
  189.6260  174.8020  142.0350 N   0  0  0  0  0  2  0  0  0  0  0  0
  189.6490  173.3740  141.8890 C   0  0  0  0  0  0  0  0  0  0  0  0
  188.5980  172.6910  142.0040 O   0  0  0  0  0  0  0  0  0  0  0  0
  190.9440  172.6750  141.6030 C   0  0  2  0  0  3  0  0  0  0  0  0
  192.0770  173.6120  141.9930 C   0  0  0  0  0  1  0  0  0  0  0  0
  189.7850  171.4370  137.6470 C   0  0  1  0  0  3  0  0  0  0  0  0
  190.4470  173.2500  139.1910 C   0  0  0  0  0  2  0  0  0  0  0  0
  190.3760  170.8430  139.8780 C   0  0  1  0  0  3  0  0  0  0  0  0
  190.4850  172.7840  137.7430 C   0  0  0  0  0  2  0  0  0  0  0  0
  191.0700  172.2070  140.1330 C   0  0  2  0  0  3  0  0  0  0  0  0
  189.7850  170.9740  136.2060 C   0  0  0  0  0  1  0  0  0  0  0  0
  190.4930  170.4640  138.4700 N   0  0  0  0  0  2  0  0  0  0  0  0
  190.9710  169.7230  140.7120 C   0  0  0  0  0  1  0  0  0  0  0  0
  1  3  2  0  0  0  0
  2  8  1  0  0  0  0
  3  5  1  0  0  0  0
  3 13  1  0  0  0  0
  4  5  2  0  0  0  0
  5  7  1  0  0  0  0
  6  2  2  0  0  0  0
  6 10  1  0  0  0  0
  8 14  2  0  0  0  0
  9 10  1  6  0  0  0
  9 14  1  0  0  0  0
  9  1  1  0  0  0  0
 11 15  2  0  0  0  0
 12 10  2  0  0  0  0
 12 11  1  0  0  0  0
 14  4  1  0  0  0  0
 15  1  1  0  0  0  0
 16 11  1  0  0  0  0
 17 18  2  0  0  0  0
 17 16  1  0  0  0  0
 19 17  1  0  0  0  0
 19 20  1  6  0  0  0
 21 26  1  6  0  0  0
 21 24  1  0  0  0  0
 21 27  1  0  0  0  0
 22 25  1  0  0  0  0
 23 25  1  0  0  0  0
 23 28  1  1  0  0  0
 24 22  1  0  0  0  0
 25 19  1  1  0  0  0
 27 23  1  0  0  0  0
M  END
>  <MODEL>
7

>  <REMARK>
 VINA RESULT:      -7.4      3.637      5.167
  Name = 
  3 active torsions:
  status: ('A' for Active; 'I' for Inactive)
    1  A    between atoms: N_5  and  C_20
    2  A    between atoms: C_13  and  C_26
    3  A    between atoms: C_17  and  C_26
                            x       y       z     vdW  Elec       q    Type
                         _______ _______ _______ _____ _____    ______ ____

>  <TORSDO>
F 3

$$$$
=
 OpenBabel11062419573D

 28 31  0  0  1  0  0  0  0  0999 V2000
  186.8850  176.7480  144.0110 C   0  0  0  0  0  0  0  0  0  0  0  0
  185.0700  178.2310  140.5470 C   0  0  0  0  0  3  0  0  0  0  0  0
  186.3470  177.1020  145.3800 C   0  0  0  0  0  0  0  0  0  0  0  0
  184.4520  178.2310  144.2100 C   0  0  0  0  0  3  0  0  0  0  0  0
  184.9990  177.7920  145.3470 C   0  0  0  0  0  0  0  0  0  0  0  0
  186.2330  177.4640  140.4280 C   0  0  0  0  0  3  0  0  0  0  0  0
  184.2650  178.0190  146.6230 C   0  0  0  0  0  1  0  0  0  0  0  0
  184.5310  178.4760  141.7730 N   0  0  0  0  0  0  0  0  0  0  0  0
  186.2770  177.2420  142.8430 C   0  0  1  0  0  3  0  0  0  0  0  0
  186.8370  176.9600  141.5800 C   0  0  0  0  0  0  0  0  0  0  0  0
  188.5850  175.6560  142.6440 C   0  0  0  0  0  0  0  0  0  0  0  0
  187.9850  176.1690  141.4890 C   0  0  0  0  0  3  0  0  0  0  0  0
  187.3510  177.9760  146.1180 C   0  0  0  0  0  1  0  0  0  0  0  0
  185.1010  178.0010  142.9130 C   0  0  0  0  0  0  0  0  0  0  0  0
  188.0320  175.9520  143.9000 C   0  0  0  0  0  3  0  0  0  0  0  0
  189.7580  174.8430  142.5060 N   0  0  0  0  0  2  0  0  0  0  0  0
  191.1220  175.2840  142.5800 C   0  0  0  0  0  0  0  0  0  0  0  0
  191.4060  176.4980  142.7500 O   0  0  0  0  0  0  0  0  0  0  0  0
  192.2360  174.2890  142.4460 C   0  0  2  0  0  3  0  0  0  0  0  0
  191.6500  172.9010  142.6590 C   0  0  0  0  0  1  0  0  0  0  0  0
  195.5780  173.5450  145.0540 C   0  0  1  0  0  3  0  0  0  0  0  0
  194.7310  174.0560  142.7900 C   0  0  0  0  0  2  0  0  0  0  0  0
  193.2340  173.8900  144.7910 C   0  0  1  0  0  3  0  0  0  0  0  0
  195.9010  174.2430  143.7430 C   0  0  0  0  0  2  0  0  0  0  0  0
  193.4180  174.5650  143.4070 C   0  0  2  0  0  3  0  0  0  0  0  0
  196.7470  173.6940  146.0040 C   0  0  0  0  0  1  0  0  0  0  0  0
  194.3920  174.1520  145.6460 N   0  0  0  0  0  2  0  0  0  0  0  0
  191.9970  174.3820  145.5190 C   0  0  0  0  0  1  0  0  0  0  0  0
  1  3  2  0  0  0  0
  2  8  1  0  0  0  0
  3 13  1  0  0  0  0
  4  5  2  0  0  0  0
  5  3  1  0  0  0  0
  5  7  1  0  0  0  0
  6  2  2  0  0  0  0
  6 10  1  0  0  0  0
  8 14  2  0  0  0  0
  9 10  1  6  0  0  0
  9 14  1  0  0  0  0
  9  1  1  0  0  0  0
 11 15  2  0  0  0  0
 12 10  2  0  0  0  0
 12 11  1  0  0  0  0
 14  4  1  0  0  0  0
 15  1  1  0  0  0  0
 16 17  1  0  0  0  0
 16 11  1  0  0  0  0
 17 18  2  0  0  0  0
 19 17  1  0  0  0  0
 19 20  1  1  0  0  0
 21 27  1  0  0  0  0
 21 26  1  1  0  0  0
 22 25  1  0  0  0  0
 22 24  1  0  0  0  0
 23 28  1  1  0  0  0
 23 27  1  0  0  0  0
 24 21  1  0  0  0  0
 25 19  1  6  0  0  0
 25 23  1  0  0  0  0
M  END
>  <MODEL>
8

>  <REMARK>
 VINA RESULT:      -7.3      1.984      3.940
  Name = 
  3 active torsions:
  status: ('A' for Active; 'I' for Inactive)
    1  A    between atoms: N_5  and  C_20
    2  A    between atoms: C_13  and  C_26
    3  A    between atoms: C_17  and  C_26
                            x       y       z     vdW  Elec       q    Type
                         _______ _______ _______ _____ _____    ______ ____

>  <TORSDO>
F 3

$$$$
=
 OpenBabel11062419573D

 28 31  0  0  1  0  0  0  0  0999 V2000
  187.3850  176.4780  144.4870 C   0  0  0  0  0  0  0  0  0  0  0  0
  184.5050  178.2710  142.0400 C   0  0  0  0  0  3  0  0  0  0  0  0
  187.3480  176.6600  145.9880 C   0  0  0  0  0  0  0  0  0  0  0  0
  185.1730  177.8440  145.6690 C   0  0  0  0  0  3  0  0  0  0  0  0
  186.0720  177.3010  146.4940 C   0  0  0  0  0  0  0  0  0  0  0  0
  185.5550  177.5630  141.4460 C   0  0  0  0  0  3  0  0  0  0  0  0
  185.8180  177.3600  147.9610 C   0  0  0  0  0  1  0  0  0  0  0  0
  184.4170  178.3590  143.3960 N   0  0  0  0  0  0  0  0  0  0  0  0
  186.4180  177.0760  143.6590 C   0  0  1  0  0  3  0  0  0  0  0  0
  186.5130  176.9560  142.2580 C   0  0  0  0  0  0  0  0  0  0  0  0
  188.5130  175.6050  142.5070 C   0  0  0  0  0  0  0  0  0  0  0  0
  187.5580  176.2210  141.6920 C   0  0  0  0  0  3  0  0  0  0  0  0
  188.5470  177.4810  146.4390 C   0  0  0  0  0  1  0  0  0  0  0  0
  185.3400  177.7810  144.2120 C   0  0  0  0  0  0  0  0  0  0  0  0
  188.4220  175.7400  143.9020 C   0  0  0  0  0  3  0  0  0  0  0  0
  189.5650  174.8540  141.8860 N   0  0  0  0  0  2  0  0  0  0  0  0
  189.5100  173.4800  141.4730 C   0  0  0  0  0  0  0  0  0  0  0  0
  188.4810  172.7820  141.6660 O   0  0  0  0  0  0  0  0  0  0  0  0
  190.6980  172.8550  140.8040 C   0  0  2  0  0  3  0  0  0  0  0  0
  190.2040  171.6720  139.9850 C   0  0  0  0  0  1  0  0  0  0  0  0
  192.9960  172.6610  144.4390 C   0  0  1  0  0  3  0  0  0  0  0  0
  191.1860  171.7480  143.0250 C   0  0  0  0  0  2  0  0  0  0  0  0
  192.6510  173.6430  142.2940 C   0  0  1  0  0  3  0  0  0  0  0  0
  192.2430  171.3950  144.0600 C   0  0  0  0  0  2  0  0  0  0  0  0
  191.8080  172.4390  141.8000 C   0  0  2  0  0  3  0  0  0  0  0  0
  194.0320  172.3330  145.4930 C   0  0  0  0  0  1  0  0  0  0  0  0
  193.6590  173.2010  143.2580 N   0  0  0  0  0  2  0  0  0  0  0  0
  193.3700  174.3530  141.1620 C   0  0  0  0  0  1  0  0  0  0  0  0
  1  3  2  0  0  0  0
  2  8  1  0  0  0  0
  3 13  1  0  0  0  0
  3  5  1  0  0  0  0
  4  5  2  0  0  0  0
  5  7  1  0  0  0  0
  6  2  2  0  0  0  0
  6 10  1  0  0  0  0
  8 14  2  0  0  0  0
  9 10  1  1  0  0  0
  9 14  1  0  0  0  0
  9  1  1  0  0  0  0
 11 15  2  0  0  0  0
 12 10  2  0  0  0  0
 12 11  1  0  0  0  0
 14  4  1  0  0  0  0
 15  1  1  0  0  0  0
 16 11  1  0  0  0  0
 17 18  2  0  0  0  0
 17 16  1  0  0  0  0
 19 20  1  1  0  0  0
 19 17  1  0  0  0  0
 21 26  1  1  0  0  0
 22 24  1  0  0  0  0
 23 28  1  6  0  0  0
 23 27  1  0  0  0  0
 24 21  1  0  0  0  0
 25 19  1  6  0  0  0
 25 23  1  0  0  0  0
 25 22  1  0  0  0  0
 27 21  1  0  0  0  0
M  END
>  <MODEL>
9

>  <REMARK>
 VINA RESULT:      -7.2      2.321      4.506
  Name = 
  3 active torsions:
  status: ('A' for Active; 'I' for Inactive)
    1  A    between atoms: N_5  and  C_20
    2  A    between atoms: C_13  and  C_26
    3  A    between atoms: C_17  and  C_26
                            x       y       z     vdW  Elec       q    Type
                         _______ _______ _______ _____ _____    ______ ____

>  <TORSDO>
F 3

$$$$
