=
 OpenBabel11062420263D

 49 56  0  0  1  0  0  0  0  0999 V2000
  195.7400  176.6020  144.2550 O   0  0  0  0  0  0  0  0  0  0  0  0
  196.3470  173.4140  145.0490 C   0  0  0  0  0  3  0  0  0  0  0  0
  196.2310  173.6340  139.6970 O   0  0  0  0  0  0  0  0  0  0  0  0
  196.1830  174.5660  140.7160 C   0  0  0  0  0  0  0  0  0  0  0  0
  196.4730  172.0900  144.9160 C   0  0  0  0  0  0  0  0  0  0  0  0
  195.6550  174.6830  143.0480 C   0  0  0  0  0  0  0  0  0  0  0  0
  196.3480  176.6880  141.8480 C   0  0  0  0  0  3  0  0  0  0  0  0
  194.1620  171.1470  144.9300 C   0  0  1  0  0  3  0  0  0  0  0  0
  195.7810  173.9550  141.8670 C   0  0  0  0  0  0  0  0  0  0  0  0
  193.1260  170.4580  144.0640 C   0  0  0  0  0  1  0  0  0  0  0  0
  195.4720  171.2820  144.1590 C   0  0  0  0  0  2  0  0  0  0  0  0
  193.8020  173.6970  144.5650 C   0  0  2  0  0  3  0  0  0  0  0  0
  195.2560  174.2680  144.4370 C   0  0  1  0  0  0  0  0  0  0  0  0
  195.2850  175.6210  145.1880 C   0  0  0  0  0  2  0  0  0  0  0  0
  195.5430  172.6170  141.6210 O   0  0  0  0  0  0  0  0  0  0  0  0
  193.6210  172.4730  145.4880 C   0  0  0  0  0  2  0  0  0  0  0  0
  196.4790  175.9360  140.6600 C   0  0  0  0  0  3  0  0  0  0  0  0
  195.8120  172.3650  140.2320 C   0  0  1  0  0  0  0  0  0  0  0  0
  194.6360  171.9560  139.5980 O   0  0  0  0  0  1  0  0  0  0  0  0
  195.9330  176.0290  143.0210 C   0  0  0  0  0  0  0  0  0  0  0  0
  197.5390  171.4460  145.5310 O   0  0  0  0  0  1  0  0  0  0  0  0
  192.6500  175.1360  142.7970 C   0  0  0  0  0  2  0  0  0  0  0  0
  191.5400  174.4440  143.5440 C   0  0  1  0  0  0  0  0  0  0  0  0
  191.6640  173.0460  143.5380 O   0  0  0  0  0  0  0  0  0  0  0  0
  192.8740  173.7340  143.3200 C   0  0  2  0  0  0  0  0  0  0  0  0
  191.3530  174.9760  144.9660 C   0  0  0  0  0  2  0  0  0  0  0  0
  190.0140  175.3180  145.1830 O   0  0  0  0  0  0  0  0  0  0  0  0
  189.7760  176.4240  144.3610 C   0  0  1  0  0  3  0  0  0  0  0  0
  185.9590  176.4960  145.3060 C   0  0  2  0  0  3  0  0  0  0  0  0
  188.1780  174.7000  142.8010 O   0  0  0  0  0  0  0  0  0  0  0  0
  187.4840  176.4600  145.5100 C   0  0  2  0  0  3  0  0  0  0  0  0
  184.7600  177.6590  142.0650 O   0  0  0  0  0  0  0  0  0  0  0  0
  187.6590  175.8080  143.1030 C   0  0  0  0  0  0  0  0  0  0  0  0
  186.5070  176.2210  142.4240 O   0  0  0  0  0  0  0  0  0  0  0  0
  185.5730  177.1630  142.8900 C   0  0  0  0  0  0  0  0  0  0  0  0
  187.8580  177.4260  146.4470 O   0  0  0  0  0  1  0  0  0  0  0  0
  185.4570  177.5780  144.3360 C   0  0  2  0  0  3  0  0  0  0  0  0
  185.2900  176.5790  146.5280 O   0  0  0  0  0  1  0  0  0  0  0  0
  188.2590  176.6570  144.1970 C   0  0  2  0  0  3  0  0  0  0  0  0
  186.0540  178.9670  144.5750 C   0  0  0  0  0  3  0  0  0  0  0  0
  185.3750  179.6240  145.7630 C   0  0  0  0  0  2  0  0  0  0  0  0
  184.9840  180.0210  144.3560 C   0  0  0  0  0  2  0  0  0  0  0  0
  190.4480  177.6430  144.9890 C   0  0  0  0  0  2  0  0  0  0  0  0
  190.5990  178.0490  142.6970 C   0  0  0  0  0  1  0  0  0  0  0  0
  191.1940  178.3760  143.9810 N   0  0  0  0  0  2  0  0  0  0  0  0
  196.3280  170.0400  139.9420 O   0  0  0  0  0  1  0  0  0  0  0  0
  196.9130  171.3000  140.0730 C   0  0  0  0  0  0  0  0  0  0  0  0
  197.8340  171.2850  141.2820 C   0  0  0  0  0  1  0  0  0  0  0  0
  197.7500  171.5810  138.8380 C   0  0  0  0  0  1  0  0  0  0  0  0
  1 14  1  0  0  0  0
  3 18  1  0  0  0  0
  3  4  1  0  0  0  0
  4  9  1  0  0  0  0
  5  2  2  0  0  0  0
  5 21  1  0  0  0  0
  6 13  1  0  0  0  0
  7 20  2  0  0  0  0
  8 10  1  6  0  0  0
  8 16  1  0  0  0  0
  9  6  2  0  0  0  0
 11  5  1  0  0  0  0
 11  8  1  0  0  0  0
 12 16  1  6  0  0  0
 13 12  1  0  0  0  0
 13  2  1  1  0  0  0
 13 14  1  0  0  0  0
 15  9  1  0  0  0  0
 17  4  2  0  0  0  0
 17  7  1  0  0  0  0
 18 19  1  6  0  0  0
 18 15  1  0  0  0  0
 20  6  1  0  0  0  0
 20  1  1  0  0  0  0
 22 23  1  0  0  0  0
 23 26  1  1  0  0  0
 24 23  1  0  0  0  0
 25 22  1  6  0  0  0
 25 24  1  0  0  0  0
 25 23  1  0  0  0  0
 25 12  1  0  0  0  0
 26 27  1  0  0  0  0
 28 43  1  1  0  0  0
 28 27  1  0  0  0  0
 29 31  1  0  0  0  0
 29 38  1  1  0  0  0
 30 33  2  0  0  0  0
 31 36  1  1  0  0  0
 32 35  2  0  0  0  0
 33 39  1  0  0  0  0
 34 35  1  0  0  0  0
 34 33  1  0  0  0  0
 35 37  1  0  0  0  0
 37 40  1  6  0  0  0
 37 29  1  0  0  0  0
 39 28  1  1  0  0  0
 39 31  1  0  0  0  0
 40 41  1  0  0  0  0
 42 40  1  0  0  0  0
 42 41  1  0  0  0  0
 44 45  1  0  0  0  0
 45 43  1  0  0  0  0
 46 47  1  0  0  0  0
 47 18  1  0  0  0  0
 47 48  1  0  0  0  0
 49 47  1  0  0  0  0
M  END
>  <MODEL>
1

>  <REMARK>
 VINA RESULT:      -7.7      0.000      0.000
  Name = 
  9 active torsions:
  status: ('A' for Active; 'I' for Inactive)
    1  A    between atoms: C_3  and  C_8
    2  A    between atoms: C_3  and  N_44
    3  A    between atoms: C_8  and  O_43
    4  A    between atoms: C_8  and  C_47
    5  A    between atoms: C_13  and  C_42
    6  A    between atoms: C_15  and  C_37
    7  A    between atoms: C_16  and  C_48
    8  A    between atoms: C_25  and  C_40
    9  A    between atoms: O_43  and  C_48
                            x       y       z     vdW  Elec       q    Type
                         _______ _______ _______ _____ _____    ______ ____

>  <TORSDO>
F 9

$$$$
=
 OpenBabel11062420263D

 49 56  0  0  1  0  0  0  0  0999 V2000
  196.2040  175.2490  145.0020 O   0  0  0  0  0  0  0  0  0  0  0  0
  194.9800  172.2650  144.1310 C   0  0  0  0  0  3  0  0  0  0  0  0
  196.9890  174.4300  139.6600 O   0  0  0  0  0  0  0  0  0  0  0  0
  196.9840  174.7750  140.9980 C   0  0  0  0  0  0  0  0  0  0  0  0
  194.5440  171.2650  143.3590 C   0  0  0  0  0  0  0  0  0  0  0  0
  195.7320  174.3200  142.9880 C   0  0  0  0  0  0  0  0  0  0  0  0
  197.6380  175.8370  143.0610 C   0  0  0  0  0  3  0  0  0  0  0  0
  192.2380  171.8830  142.6260 C   0  0  1  0  0  3  0  0  0  0  0  0
  195.9530  174.1380  141.6240 C   0  0  0  0  0  0  0  0  0  0  0  0
  191.4130  172.2790  141.4180 C   0  0  0  0  0  1  0  0  0  0  0  0
  193.6530  171.5140  142.1880 C   0  0  0  0  0  2  0  0  0  0  0  0
  193.2180  174.1000  143.5680 C   0  0  2  0  0  3  0  0  0  0  0  0
  194.7020  173.7390  143.9160 C   0  0  1  0  0  0  0  0  0  0  0  0
  195.0480  174.4480  145.2480 C   0  0  0  0  0  2  0  0  0  0  0  0
  195.2560  173.3760  140.7070 O   0  0  0  0  0  0  0  0  0  0  0  0
  192.1800  172.9680  143.7140 C   0  0  0  0  0  2  0  0  0  0  0  0
  197.8550  175.6370  141.6800 C   0  0  0  0  0  3  0  0  0  0  0  0
  195.8830  173.5390  139.4240 C   0  0  1  0  0  0  0  0  0  0  0  0
  194.9810  174.1380  138.5400 O   0  0  0  0  0  1  0  0  0  0  0  0
  196.5680  175.1630  143.6800 C   0  0  0  0  0  0  0  0  0  0  0  0
  194.8930  169.9590  143.6800 O   0  0  0  0  0  1  0  0  0  0  0  0
  193.7070  176.4050  142.5820 C   0  0  0  0  0  2  0  0  0  0  0  0
  192.2240  176.3830  142.8480 C   0  0  1  0  0  0  0  0  0  0  0  0
  191.5690  175.3180  142.2100 O   0  0  0  0  0  0  0  0  0  0  0  0
  192.9460  175.1080  142.4170 C   0  0  2  0  0  0  0  0  0  0  0  0
  191.8820  176.4280  144.3380 C   0  0  0  0  0  2  0  0  0  0  0  0
  190.9680  177.4560  144.5940 O   0  0  0  0  0  0  0  0  0  0  0  0
  190.1290  176.9650  145.5990 C   0  0  1  0  0  3  0  0  0  0  0  0
  186.2180  176.5950  145.7850 C   0  0  2  0  0  3  0  0  0  0  0  0
  189.1030  174.8560  144.0320 O   0  0  0  0  0  0  0  0  0  0  0  0
  187.6610  176.8050  146.2770 C   0  0  2  0  0  3  0  0  0  0  0  0
  185.5860  177.1800  142.2430 O   0  0  0  0  0  0  0  0  0  0  0  0
  188.4050  175.9050  144.0660 C   0  0  0  0  0  0  0  0  0  0  0  0
  187.3780  176.0630  143.1300 O   0  0  0  0  0  0  0  0  0  0  0  0
  186.2630  176.9090  143.2690 C   0  0  0  0  0  0  0  0  0  0  0  0
  187.7170  177.9190  147.1180 O   0  0  0  0  0  1  0  0  0  0  0  0
  185.8030  177.4710  144.5920 C   0  0  2  0  0  3  0  0  0  0  0  0
  185.3060  176.7250  146.8340 O   0  0  0  0  0  1  0  0  0  0  0  0
  188.6620  176.9550  145.1190 C   0  0  2  0  0  3  0  0  0  0  0  0
  186.1690  178.9500  144.7350 C   0  0  0  0  0  3  0  0  0  0  0  0
  185.1820  179.6400  145.6590 C   0  0  0  0  0  2  0  0  0  0  0  0
  185.0550  179.8040  144.1590 C   0  0  0  0  0  2  0  0  0  0  0  0
  190.5900  175.5550  145.9650 C   0  0  0  0  0  2  0  0  0  0  0  0
  191.1640  176.6290  147.9550 C   0  0  0  0  0  1  0  0  0  0  0  0
  190.6180  175.3990  147.4090 N   0  0  0  0  0  2  0  0  0  0  0  0
  197.5140  172.3700  138.1100 O   0  0  0  0  0  1  0  0  0  0  0  0
  196.3630  172.1830  138.8750 C   0  0  0  0  0  0  0  0  0  0  0  0
  195.2970  171.5420  138.0010 C   0  0  0  0  0  1  0  0  0  0  0  0
  196.6820  171.2310  140.0140 C   0  0  0  0  0  1  0  0  0  0  0  0
  1 14  1  0  0  0  0
  3  4  1  0  0  0  0
  4  9  2  0  0  0  0
  4 17  1  0  0  0  0
  5 21  1  0  0  0  0
  5  2  2  0  0  0  0
  6 20  2  0  0  0  0
  6 13  1  0  0  0  0
  7 20  1  0  0  0  0
  8 10  1  6  0  0  0
  8 16  1  0  0  0  0
  9  6  1  0  0  0  0
 11  8  1  0  0  0  0
 11  5  1  0  0  0  0
 12 16  1  6  0  0  0
 12 13  1  0  0  0  0
 13  2  1  1  0  0  0
 13 14  1  0  0  0  0
 15  9  1  0  0  0  0
 17  7  2  0  0  0  0
 18 19  1  6  0  0  0
 18  3  1  0  0  0  0
 18 15  1  0  0  0  0
 20  1  1  0  0  0  0
 22 23  1  0  0  0  0
 23 26  1  1  0  0  0
 24 25  1  0  0  0  0
 24 23  1  0  0  0  0
 25 22  1  6  0  0  0
 25 23  1  0  0  0  0
 25 12  1  0  0  0  0
 26 27  1  0  0  0  0
 27 28  1  0  0  0  0
 28 43  1  6  0  0  0
 29 31  1  0  0  0  0
 29 38  1  1  0  0  0
 30 33  2  0  0  0  0
 31 36  1  1  0  0  0
 32 35  2  0  0  0  0
 33 39  1  0  0  0  0
 34 35  1  0  0  0  0
 34 33  1  0  0  0  0
 35 37  1  0  0  0  0
 37 40  1  1  0  0  0
 37 29  1  0  0  0  0
 39 28  1  1  0  0  0
 39 31  1  0  0  0  0
 40 41  1  0  0  0  0
 42 40  1  0  0  0  0
 42 41  1  0  0  0  0
 43 45  1  0  0  0  0
 45 44  1  0  0  0  0
 46 47  1  0  0  0  0
 47 18  1  0  0  0  0
 47 49  1  0  0  0  0
 48 47  1  0  0  0  0
M  END
>  <MODEL>
2

>  <REMARK>
 VINA RESULT:      -7.4      1.636      2.082
  Name = 
  9 active torsions:
  status: ('A' for Active; 'I' for Inactive)
    1  A    between atoms: C_3  and  C_8
    2  A    between atoms: C_3  and  N_44
    3  A    between atoms: C_8  and  O_43
    4  A    between atoms: C_8  and  C_47
    5  A    between atoms: C_13  and  C_42
    6  A    between atoms: C_15  and  C_37
    7  A    between atoms: C_16  and  C_48
    8  A    between atoms: C_25  and  C_40
    9  A    between atoms: O_43  and  C_48
                            x       y       z     vdW  Elec       q    Type
                         _______ _______ _______ _____ _____    ______ ____

>  <TORSDO>
F 9

$$$$
=
 OpenBabel11062420263D

 49 56  0  0  1  0  0  0  0  0999 V2000
  192.0580  171.2250  141.0400 O   0  0  0  0  0  0  0  0  0  0  0  0
  195.0220  172.6740  141.5630 C   0  0  0  0  0  3  0  0  0  0  0  0
  194.8520  168.3940  144.7810 O   0  0  0  0  0  0  0  0  0  0  0  0
  194.0410  168.9020  143.7850 C   0  0  0  0  0  0  0  0  0  0  0  0
  196.1890  172.9690  142.1440 C   0  0  0  0  0  0  0  0  0  0  0  0
  193.6120  170.9790  142.6720 C   0  0  0  0  0  0  0  0  0  0  0  0
  192.3630  168.9790  142.0550 C   0  0  0  0  0  3  0  0  0  0  0  0
  195.6670  174.4520  144.0830 C   0  0  1  0  0  3  0  0  0  0  0  0
  194.3030  170.2310  143.6250 C   0  0  0  0  0  0  0  0  0  0  0  0
  195.6660  174.5150  145.5980 C   0  0  0  0  0  1  0  0  0  0  0  0
  196.3040  173.1440  143.6210 C   0  0  0  0  0  2  0  0  0  0  0  0
  193.3630  173.4460  143.4180 C   0  0  2  0  0  3  0  0  0  0  0  0
  193.7110  172.4260  142.2800 C   0  0  1  0  0  0  0  0  0  0  0  0
  192.5980  172.5360  141.2090 C   0  0  0  0  0  2  0  0  0  0  0  0
  195.2780  170.6210  144.5210 O   0  0  0  0  0  0  0  0  0  0  0  0
  194.2580  174.6990  143.5190 C   0  0  0  0  0  2  0  0  0  0  0  0
  193.0760  168.2320  143.0180 C   0  0  0  0  0  3  0  0  0  0  0  0
  195.6580  169.4710  145.2950 C   0  0  1  0  0  0  0  0  0  0  0  0
  195.3430  169.6910  146.6380 O   0  0  0  0  0  1  0  0  0  0  0  0
  192.6580  170.3480  141.9120 C   0  0  0  0  0  0  0  0  0  0  0  0
  197.3130  173.1590  141.3490 O   0  0  0  0  0  1  0  0  0  0  0  0
  191.5350  172.1280  144.6200 C   0  0  0  0  0  2  0  0  0  0  0  0
  191.5010  173.5090  145.2200 C   0  0  1  0  0  0  0  0  0  0  0  0
  192.7380  173.9070  145.7520 O   0  0  0  0  0  0  0  0  0  0  0  0
  192.8270  172.9000  144.7700 C   0  0  2  0  0  0  0  0  0  0  0  0
  190.9480  174.5650  144.2610 C   0  0  0  0  0  2  0  0  0  0  0  0
  189.9350  175.3020  144.8840 O   0  0  0  0  0  0  0  0  0  0  0  0
  189.7100  176.4020  144.0510 C   0  0  1  0  0  3  0  0  0  0  0  0
  185.9060  176.4890  145.0460 C   0  0  2  0  0  3  0  0  0  0  0  0
  188.0560  174.8380  142.3860 O   0  0  0  0  0  0  0  0  0  0  0  0
  187.4320  176.4040  145.2280 C   0  0  2  0  0  3  0  0  0  0  0  0
  184.7010  177.9200  141.9160 O   0  0  0  0  0  0  0  0  0  0  0  0
  187.5660  175.9320  142.7760 C   0  0  0  0  0  0  0  0  0  0  0  0
  186.4170  176.4200  142.1450 O   0  0  0  0  0  0  0  0  0  0  0  0
  185.5100  177.3450  142.6920 C   0  0  0  0  0  0  0  0  0  0  0  0
  187.8380  177.2870  146.2300 O   0  0  0  0  0  1  0  0  0  0  0  0
  185.4200  177.6520  144.1660 C   0  0  2  0  0  3  0  0  0  0  0  0
  185.2510  176.4940  146.2790 O   0  0  0  0  0  1  0  0  0  0  0  0
  188.1970  176.6810  143.9240 C   0  0  2  0  0  3  0  0  0  0  0  0
  186.0510  179.0060  144.5020 C   0  0  0  0  0  3  0  0  0  0  0  0
  185.3820  179.5980  145.7280 C   0  0  0  0  0  2  0  0  0  0  0  0
  185.0110  180.1000  144.3490 C   0  0  0  0  0  2  0  0  0  0  0  0
  190.4370  177.6090  144.6420 C   0  0  0  0  0  2  0  0  0  0  0  0
  191.8930  177.5800  142.8190 C   0  0  0  0  0  1  0  0  0  0  0  0
  190.9890  178.4290  143.5760 N   0  0  0  0  0  2  0  0  0  0  0  0
  197.3580  168.3800  144.0020 O   0  0  0  0  0  1  0  0  0  0  0  0
  197.1600  169.1750  145.1310 C   0  0  0  0  0  0  0  0  0  0  0  0
  197.7050  168.4410  146.3450 C   0  0  0  0  0  1  0  0  0  0  0  0
  197.9400  170.4670  144.9620 C   0  0  0  0  0  1  0  0  0  0  0  0
  1 14  1  0  0  0  0
  1 20  1  0  0  0  0
  2  5  2  0  0  0  0
  2 13  1  0  0  0  0
  3 18  1  0  0  0  0
  4  3  1  0  0  0  0
  5 11  1  0  0  0  0
  6  9  2  0  0  0  0
  7 17  1  0  0  0  0
  8 10  1  1  0  0  0
  9  4  1  0  0  0  0
  9 15  1  0  0  0  0
 11  8  1  0  0  0  0
 12 16  1  1  0  0  0
 12 25  1  0  0  0  0
 13 14  1  6  0  0  0
 13  6  1  0  0  0  0
 13 12  1  0  0  0  0
 15 18  1  0  0  0  0
 16  8  1  0  0  0  0
 17  4  2  0  0  0  0
 18 19  1  1  0  0  0
 20  7  2  0  0  0  0
 20  6  1  0  0  0  0
 21  5  1  0  0  0  0
 22 23  1  0  0  0  0
 23 26  1  6  0  0  0
 23 24  1  0  0  0  0
 25 22  1  1  0  0  0
 25 23  1  0  0  0  0
 25 24  1  0  0  0  0
 26 27  1  0  0  0  0
 28 43  1  1  0  0  0
 28 27  1  0  0  0  0
 29 31  1  0  0  0  0
 29 38  1  1  0  0  0
 30 33  2  0  0  0  0
 31 36  1  1  0  0  0
 32 35  2  0  0  0  0
 33 39  1  0  0  0  0
 34 35  1  0  0  0  0
 34 33  1  0  0  0  0
 35 37  1  0  0  0  0
 37 40  1  6  0  0  0
 37 29  1  0  0  0  0
 39 28  1  1  0  0  0
 39 31  1  0  0  0  0
 40 41  1  0  0  0  0
 42 40  1  0  0  0  0
 42 41  1  0  0  0  0
 44 45  1  0  0  0  0
 45 43  1  0  0  0  0
 46 47  1  0  0  0  0
 47 18  1  0  0  0  0
 47 48  1  0  0  0  0
 49 47  1  0  0  0  0
M  END
>  <MODEL>
3

>  <REMARK>
 VINA RESULT:      -7.4      1.787      4.000
  Name = 
  9 active torsions:
  status: ('A' for Active; 'I' for Inactive)
    1  A    between atoms: C_3  and  C_8
    2  A    between atoms: C_3  and  N_44
    3  A    between atoms: C_8  and  O_43
    4  A    between atoms: C_8  and  C_47
    5  A    between atoms: C_13  and  C_42
    6  A    between atoms: C_15  and  C_37
    7  A    between atoms: C_16  and  C_48
    8  A    between atoms: C_25  and  C_40
    9  A    between atoms: O_43  and  C_48
                            x       y       z     vdW  Elec       q    Type
                         _______ _______ _______ _____ _____    ______ ____

>  <TORSDO>
F 9

$$$$
=
 OpenBabel11062420263D

 49 56  0  0  1  0  0  0  0  0999 V2000
  192.2390  171.8590  140.6890 O   0  0  0  0  0  0  0  0  0  0  0  0
  194.9140  173.5420  141.7720 C   0  0  0  0  0  3  0  0  0  0  0  0
  194.8570  168.9120  144.4680 O   0  0  0  0  0  0  0  0  0  0  0  0
  194.1230  169.4470  143.4270 C   0  0  0  0  0  0  0  0  0  0  0  0
  195.9530  173.8870  142.5380 C   0  0  0  0  0  0  0  0  0  0  0  0
  193.5910  171.5850  142.4880 C   0  0  0  0  0  0  0  0  0  0  0  0
  192.6830  169.5520  141.4960 C   0  0  0  0  0  3  0  0  0  0  0  0
  195.0110  175.0620  144.5300 C   0  0  1  0  0  3  0  0  0  0  0  0
  194.2400  170.8050  143.4450 C   0  0  0  0  0  0  0  0  0  0  0  0
  194.8100  174.9430  146.0270 C   0  0  0  0  0  1  0  0  0  0  0  0
  195.8560  173.8950  144.0280 C   0  0  0  0  0  2  0  0  0  0  0  0
  192.9510  173.9040  143.4460 C   0  0  2  0  0  3  0  0  0  0  0  0
  193.5630  173.0710  142.2680 C   0  0  1  0  0  0  0  0  0  0  0  0
  192.5900  173.1900  141.0680 C   0  0  0  0  0  2  0  0  0  0  0  0
  195.0390  171.1870  144.5050 O   0  0  0  0  0  0  0  0  0  0  0  0
  193.6670  175.2240  143.8020 C   0  0  0  0  0  2  0  0  0  0  0  0
  193.3530  168.7750  142.4660 C   0  0  0  0  0  3  0  0  0  0  0  0
  195.4540  169.9990  145.2000 C   0  0  1  0  0  0  0  0  0  0  0  0
  194.9450  170.0210  146.5010 O   0  0  0  0  0  1  0  0  0  0  0  0
  192.8250  170.9520  141.5390 C   0  0  0  0  0  0  0  0  0  0  0  0
  197.1370  174.2890  141.9340 O   0  0  0  0  0  1  0  0  0  0  0  0
  191.2390  172.1740  144.2200 C   0  0  0  0  0  2  0  0  0  0  0  0
  190.8440  173.4640  144.8900 C   0  0  1  0  0  0  0  0  0  0  0  0
  191.8790  174.0230  145.6560 O   0  0  0  0  0  0  0  0  0  0  0  0
  192.3180  173.1460  144.6450 C   0  0  2  0  0  0  0  0  0  0  0  0
  190.2620  174.4910  143.9160 C   0  0  0  0  0  2  0  0  0  0  0  0
  189.1490  175.1200  144.4850 O   0  0  0  0  0  0  0  0  0  0  0  0
  189.2410  176.4590  144.0960 C   0  0  1  0  0  3  0  0  0  0  0  0
  185.5980  177.0380  145.4600 C   0  0  2  0  0  3  0  0  0  0  0  0
  187.3490  177.0570  142.0910 O   0  0  0  0  0  0  0  0  0  0  0  0
  186.9810  176.3800  145.3040 C   0  0  2  0  0  3  0  0  0  0  0  0
  185.2770  180.4840  144.3130 O   0  0  0  0  0  0  0  0  0  0  0  0
  187.2110  177.6780  143.1790 C   0  0  0  0  0  0  0  0  0  0  0  0
  186.3640  178.7900  143.2190 O   0  0  0  0  0  0  0  0  0  0  0  0
  185.7630  179.3230  144.3730 C   0  0  0  0  0  0  0  0  0  0  0  0
  187.5470  176.1660  146.5620 O   0  0  0  0  0  1  0  0  0  0  0  0
  185.6220  178.5610  145.6680 C   0  0  2  0  0  3  0  0  0  0  0  0
  184.8550  176.4140  146.4650 O   0  0  0  0  0  1  0  0  0  0  0  0
  187.9290  177.2060  144.4190 C   0  0  2  0  0  3  0  0  0  0  0  0
  186.6270  179.0410  146.7180 C   0  0  0  0  0  3  0  0  0  0  0  0
  186.2090  178.5560  148.0930 C   0  0  0  0  0  2  0  0  0  0  0  0
  185.9370  179.9870  147.6830 C   0  0  0  0  0  2  0  0  0  0  0  0
  190.4220  177.0940  144.8290 C   0  0  0  0  0  2  0  0  0  0  0  0
  191.1450  177.9010  142.7630 C   0  0  0  0  0  1  0  0  0  0  0  0
  190.8560  178.2920  144.1310 N   0  0  0  0  0  2  0  0  0  0  0  0
  197.5510  171.1590  145.1280 O   0  0  0  0  0  1  0  0  0  0  0  0
  196.9890  169.8860  145.2180 C   0  0  0  0  0  0  0  0  0  0  0  0
  197.4870  169.0490  144.0520 C   0  0  0  0  0  1  0  0  0  0  0  0
  197.4580  169.2350  146.5080 C   0  0  0  0  0  1  0  0  0  0  0  0
  1 14  1  0  0  0  0
  1 20  1  0  0  0  0
  2 13  1  0  0  0  0
  2  5  2  0  0  0  0
  3 18  1  0  0  0  0
  4  9  1  0  0  0  0
  4  3  1  0  0  0  0
  5 11  1  0  0  0  0
  6  9  2  0  0  0  0
  7 20  2  0  0  0  0
  7 17  1  0  0  0  0
  8 10  1  1  0  0  0
  9 15  1  0  0  0  0
 11  8  1  0  0  0  0
 12 16  1  1  0  0  0
 12 25  1  0  0  0  0
 13 14  1  6  0  0  0
 13  6  1  0  0  0  0
 13 12  1  0  0  0  0
 15 18  1  0  0  0  0
 16  8  1  0  0  0  0
 17  4  2  0  0  0  0
 18 47  1  0  0  0  0
 18 19  1  1  0  0  0
 20  6  1  0  0  0  0
 21  5  1  0  0  0  0
 22 23  1  0  0  0  0
 23 26  1  6  0  0  0
 23 24  1  0  0  0  0
 25 22  1  1  0  0  0
 25 23  1  0  0  0  0
 25 24  1  0  0  0  0
 26 27  1  0  0  0  0
 28 27  1  0  0  0  0
 28 43  1  1  0  0  0
 29 37  1  0  0  0  0
 29 38  1  1  0  0  0
 30 33  2  0  0  0  0
 31 29  1  0  0  0  0
 31 36  1  1  0  0  0
 32 35  2  0  0  0  0
 33 34  1  0  0  0  0
 33 39  1  0  0  0  0
 34 35  1  0  0  0  0
 35 37  1  0  0  0  0
 37 40  1  1  0  0  0
 39 28  1  6  0  0  0
 39 31  1  0  0  0  0
 40 42  1  0  0  0  0
 40 41  1  0  0  0  0
 42 41  1  0  0  0  0
 44 45  1  0  0  0  0
 45 43  1  0  0  0  0
 46 47  1  0  0  0  0
 47 49  1  0  0  0  0
 48 47  1  0  0  0  0
M  END
>  <MODEL>
4

>  <REMARK>
 VINA RESULT:      -7.2      1.940      4.033
  Name = 
  9 active torsions:
  status: ('A' for Active; 'I' for Inactive)
    1  A    between atoms: C_3  and  C_8
    2  A    between atoms: C_3  and  N_44
    3  A    between atoms: C_8  and  O_43
    4  A    between atoms: C_8  and  C_47
    5  A    between atoms: C_13  and  C_42
    6  A    between atoms: C_15  and  C_37
    7  A    between atoms: C_16  and  C_48
    8  A    between atoms: C_25  and  C_40
    9  A    between atoms: O_43  and  C_48
                            x       y       z     vdW  Elec       q    Type
                         _______ _______ _______ _____ _____    ______ ____

>  <TORSDO>
F 9

$$$$
=
 OpenBabel11062420263D

 49 56  0  0  1  0  0  0  0  0999 V2000
  192.5420  176.6560  145.2650 O   0  0  0  0  0  0  0  0  0  0  0  0
  190.3520  177.5490  142.9060 C   0  0  0  0  0  3  0  0  0  0  0  0
  187.6390  177.4710  147.5270 O   0  0  0  0  0  0  0  0  0  0  0  0
  188.9650  177.3260  147.1680 C   0  0  0  0  0  0  0  0  0  0  0  0
  189.1820  177.8000  142.3120 C   0  0  0  0  0  0  0  0  0  0  0  0
  190.2770  176.7630  145.2460 C   0  0  0  0  0  0  0  0  0  0  0  0
  191.3680  177.2790  147.3630 C   0  0  0  0  0  3  0  0  0  0  0  0
  188.2040  175.5860  141.6970 C   0  0  1  0  0  3  0  0  0  0  0  0
  189.0400  176.9700  145.8540 C   0  0  0  0  0  0  0  0  0  0  0  0
  187.0720  174.6290  142.0130 C   0  0  0  0  0  1  0  0  0  0  0  0
  188.0120  176.8860  142.4730 C   0  0  0  0  0  2  0  0  0  0  0  0
  190.1120  174.9940  143.3610 C   0  0  2  0  0  3  0  0  0  0  0  0
  190.6440  176.3890  143.8370 C   0  0  1  0  0  0  0  0  0  0  0  0
  192.1860  176.2840  143.9340 C   0  0  0  0  0  2  0  0  0  0  0  0
  187.7670  176.8610  145.3310 O   0  0  0  0  0  0  0  0  0  0  0  0
  189.5710  174.9180  141.9190 C   0  0  0  0  0  2  0  0  0  0  0  0
  190.1080  177.4930  147.9640 C   0  0  0  0  0  3  0  0  0  0  0  0
  186.8290  177.1670  146.3760 C   0  0  1  0  0  0  0  0  0  0  0  0
  186.0450  176.0410  146.6410 O   0  0  0  0  0  1  0  0  0  0  0  0
  191.4130  176.9140  146.0040 C   0  0  0  0  0  0  0  0  0  0  0  0
  189.0630  178.9140  141.4910 O   0  0  0  0  0  1  0  0  0  0  0  0
  190.2160  173.8430  145.6390 C   0  0  0  0  0  2  0  0  0  0  0  0
  190.0750  172.7340  144.6290 C   0  0  1  0  0  0  0  0  0  0  0  0
  188.9430  172.8780  143.8120 O   0  0  0  0  0  0  0  0  0  0  0  0
  189.3930  174.0800  144.3920 C   0  0  2  0  0  0  0  0  0  0  0  0
  191.3370  172.5220  143.7910 C   0  0  0  0  0  2  0  0  0  0  0  0
  192.0950  171.4700  144.3160 O   0  0  0  0  0  0  0  0  0  0  0  0
  193.1140  171.2470  143.3850 C   0  0  1  0  0  3  0  0  0  0  0  0
  196.5350  173.1020  142.8190 C   0  0  2  0  0  3  0  0  0  0  0  0
  194.5260  171.7950  145.7640 O   0  0  0  0  0  0  0  0  0  0  0  0
  195.4050  172.0820  142.5920 C   0  0  2  0  0  3  0  0  0  0  0  0
  195.6910  176.0980  144.7170 O   0  0  0  0  0  0  0  0  0  0  0  0
  194.5820  172.6860  144.8750 C   0  0  0  0  0  0  0  0  0  0  0  0
  195.0570  173.9550  145.2200 O   0  0  0  0  0  0  0  0  0  0  0  0
  195.5850  174.9050  144.3270 C   0  0  0  0  0  0  0  0  0  0  0  0
  195.0590  172.0540  141.2390 O   0  0  0  0  0  1  0  0  0  0  0  0
  196.0770  174.5640  142.9420 C   0  0  2  0  0  3  0  0  0  0  0  0
  197.5290  172.9760  141.8460 O   0  0  0  0  0  1  0  0  0  0  0  0
  194.1680  172.3720  143.4580 C   0  0  2  0  0  3  0  0  0  0  0  0
  195.0870  175.0110  141.8640 C   0  0  0  0  0  3  0  0  0  0  0  0
  195.8220  175.2700  140.5620 C   0  0  0  0  0  2  0  0  0  0  0  0
  195.4080  176.4320  141.4400 C   0  0  0  0  0  2  0  0  0  0  0  0
  193.7490  169.8890  143.6820 C   0  0  0  0  0  2  0  0  0  0  0  0
  193.5910  168.2720  145.3560 C   0  0  0  0  0  1  0  0  0  0  0  0
  192.8120  169.0490  144.4080 N   0  0  0  0  0  2  0  0  0  0  0  0
  186.4300  178.9360  144.8060 O   0  0  0  0  0  1  0  0  0  0  0  0
  185.9440  178.3640  145.9820 C   0  0  0  0  0  0  0  0  0  0  0  0
  185.9400  179.4210  147.0740 C   0  0  0  0  0  1  0  0  0  0  0  0
  184.5130  177.9120  145.7490 C   0  0  0  0  0  1  0  0  0  0  0  0
  1 20  1  0  0  0  0
  4  3  1  0  0  0  0
  4 17  1  0  0  0  0
  5 11  1  0  0  0  0
  5  2  2  0  0  0  0
  6  9  1  0  0  0  0
  6 20  2  0  0  0  0
  7 17  2  0  0  0  0
  8 16  1  0  0  0  0
  8 10  1  1  0  0  0
  8 11  1  0  0  0  0
  9  4  2  0  0  0  0
 12 16  1  6  0  0  0
 12 13  1  0  0  0  0
 12 25  1  0  0  0  0
 13  2  1  6  0  0  0
 13 14  1  0  0  0  0
 13  6  1  0  0  0  0
 14  1  1  0  0  0  0
 15  9  1  0  0  0  0
 15 18  1  0  0  0  0
 18 19  1  1  0  0  0
 18  3  1  0  0  0  0
 20  7  1  0  0  0  0
 21  5  1  0  0  0  0
 23 26  1  6  0  0  0
 23 22  1  0  0  0  0
 24 25  1  0  0  0  0
 24 23  1  0  0  0  0
 25 23  1  0  0  0  0
 25 22  1  1  0  0  0
 26 27  1  0  0  0  0
 28 43  1  1  0  0  0
 28 27  1  0  0  0  0
 29 38  1  6  0  0  0
 29 37  1  0  0  0  0
 31 36  1  6  0  0  0
 31 29  1  0  0  0  0
 31 39  1  0  0  0  0
 33 34  1  0  0  0  0
 33 30  2  0  0  0  0
 35 32  2  0  0  0  0
 35 34  1  0  0  0  0
 37 40  1  6  0  0  0
 37 35  1  0  0  0  0
 39 28  1  1  0  0  0
 39 33  1  0  0  0  0
 41 42  1  0  0  0  0
 41 40  1  0  0  0  0
 42 40  1  0  0  0  0
 43 45  1  0  0  0  0
 45 44  1  0  0  0  0
 46 47  1  0  0  0  0
 47 18  1  0  0  0  0
 47 48  1  0  0  0  0
 49 47  1  0  0  0  0
M  END
>  <MODEL>
5

>  <REMARK>
 VINA RESULT:      -7.1      2.334      9.410
  Name = 
  9 active torsions:
  status: ('A' for Active; 'I' for Inactive)
    1  A    between atoms: C_3  and  C_8
    2  A    between atoms: C_3  and  N_44
    3  A    between atoms: C_8  and  O_43
    4  A    between atoms: C_8  and  C_47
    5  A    between atoms: C_13  and  C_42
    6  A    between atoms: C_15  and  C_37
    7  A    between atoms: C_16  and  C_48
    8  A    between atoms: C_25  and  C_40
    9  A    between atoms: O_43  and  C_48
                            x       y       z     vdW  Elec       q    Type
                         _______ _______ _______ _____ _____    ______ ____

>  <TORSDO>
F 9

$$$$
=
 OpenBabel11062420263D

 49 56  0  0  1  0  0  0  0  0999 V2000
  194.1500  176.4710  144.0830 O   0  0  0  0  0  0  0  0  0  0  0  0
  191.2270  177.0990  142.5900 C   0  0  0  0  0  3  0  0  0  0  0  0
  190.1310  176.3280  147.7780 O   0  0  0  0  0  0  0  0  0  0  0  0
  191.2860  176.4280  147.0270 C   0  0  0  0  0  0  0  0  0  0  0  0
  189.9070  177.1790  142.4020 C   0  0  0  0  0  0  0  0  0  0  0  0
  192.0010  176.1950  144.7530 C   0  0  0  0  0  0  0  0  0  0  0  0
  193.6090  176.7790  146.4880 C   0  0  0  0  0  3  0  0  0  0  0  0
  189.1190  174.8650  141.8890 C   0  0  1  0  0  3  0  0  0  0  0  0
  190.9980  176.1580  145.7210 C   0  0  0  0  0  0  0  0  0  0  0  0
  188.2940  173.7160  142.4300 C   0  0  0  0  0  1  0  0  0  0  0  0
  188.9920  176.0730  142.8120 C   0  0  0  0  0  2  0  0  0  0  0  0
  191.5160  174.5210  142.8370 C   0  0  2  0  0  3  0  0  0  0  0  0
  191.9610  175.9610  143.2690 C   0  0  1  0  0  0  0  0  0  0  0  0
  193.4540  176.1130  142.8890 C   0  0  0  0  0  2  0  0  0  0  0  0
  189.6550  175.8610  145.5950 O   0  0  0  0  0  0  0  0  0  0  0  0
  190.5690  174.4280  141.6220 C   0  0  0  0  0  2  0  0  0  0  0  0
  192.5820  176.7460  147.4570 C   0  0  0  0  0  3  0  0  0  0  0  0
  189.0560  175.9500  146.8980 C   0  0  1  0  0  0  0  0  0  0  0  0
  188.5660  174.6960  147.2710 O   0  0  0  0  0  1  0  0  0  0  0  0
  193.2820  176.4970  145.1480 C   0  0  0  0  0  0  0  0  0  0  0  0
  189.3780  178.2970  141.7700 O   0  0  0  0  0  1  0  0  0  0  0  0
  192.4900  173.2900  144.8510 C   0  0  0  0  0  2  0  0  0  0  0  0
  192.2050  172.2260  143.8240 C   0  0  1  0  0  0  0  0  0  0  0  0
  190.8670  172.2170  143.4010 O   0  0  0  0  0  0  0  0  0  0  0  0
  191.2950  173.4480  143.9370 C   0  0  2  0  0  0  0  0  0  0  0  0
  193.1610  172.2740  142.6300 C   0  0  0  0  0  2  0  0  0  0  0  0
  192.7460  171.3760  141.6410 O   0  0  0  0  0  0  0  0  0  0  0  0
  193.4350  171.7530  140.4850 C   0  0  1  0  0  3  0  0  0  0  0  0
  190.5180  170.7890  138.0280 C   0  0  2  0  0  3  0  0  0  0  0  0
  194.2800  171.2760  137.8360 O   0  0  0  0  0  0  0  0  0  0  0  0
  191.3640  170.7950  139.3140 C   0  0  2  0  0  3  0  0  0  0  0  0
  190.9320  173.6250  135.7750 O   0  0  0  0  0  0  0  0  0  0  0  0
  193.1730  171.8670  137.9620 C   0  0  0  0  0  0  0  0  0  0  0  0
  192.6110  172.4920  136.8440 O   0  0  0  0  0  0  0  0  0  0  0  0
  191.2510  172.8070  136.6780 C   0  0  0  0  0  0  0  0  0  0  0  0
  190.5340  170.9660  140.4250 O   0  0  0  0  0  1  0  0  0  0  0  0
  190.1440  172.1800  137.4890 C   0  0  2  0  0  3  0  0  0  0  0  0
  189.3800  169.9950  138.1790 O   0  0  0  0  0  1  0  0  0  0  0  0
  192.4620  171.8720  139.2920 C   0  0  2  0  0  3  0  0  0  0  0  0
  189.6030  173.1440  138.5470 C   0  0  0  0  0  3  0  0  0  0  0  0
  188.1920  172.7450  138.9380 C   0  0  0  0  0  2  0  0  0  0  0  0
  188.4140  173.8990  137.9830 C   0  0  0  0  0  2  0  0  0  0  0  0
  194.1310  173.0850  140.7520 C   0  0  0  0  0  2  0  0  0  0  0  0
  195.9590  174.1090  139.7240 C   0  0  0  0  0  1  0  0  0  0  0  0
  195.5590  172.9580  140.5150 N   0  0  0  0  0  2  0  0  0  0  0  0
  188.3190  178.0960  147.6750 O   0  0  0  0  0  1  0  0  0  0  0  0
  187.9280  176.9980  146.9090 C   0  0  0  0  0  0  0  0  0  0  0  0
  186.6530  176.4200  147.5010 C   0  0  0  0  0  1  0  0  0  0  0  0
  187.6280  177.4700  145.4970 C   0  0  0  0  0  1  0  0  0  0  0  0
  1 20  1  0  0  0  0
  4 17  1  0  0  0  0
  4  3  1  0  0  0  0
  5  2  2  0  0  0  0
  5 11  1  0  0  0  0
  6 20  2  0  0  0  0
  6  9  1  0  0  0  0
  7 17  2  0  0  0  0
  8 10  1  1  0  0  0
  8 11  1  0  0  0  0
  9  4  2  0  0  0  0
 12 16  1  1  0  0  0
 12 13  1  0  0  0  0
 12 25  1  0  0  0  0
 13  2  1  6  0  0  0
 13  6  1  0  0  0  0
 14 13  1  0  0  0  0
 14  1  1  0  0  0  0
 15  9  1  0  0  0  0
 15 18  1  0  0  0  0
 16  8  1  0  0  0  0
 18 47  1  0  0  0  0
 18 19  1  1  0  0  0
 18  3  1  0  0  0  0
 20  7  1  0  0  0  0
 21  5  1  0  0  0  0
 23 26  1  6  0  0  0
 23 25  1  0  0  0  0
 23 22  1  0  0  0  0
 24 23  1  0  0  0  0
 24 25  1  0  0  0  0
 25 22  1  1  0  0  0
 27 26  1  0  0  0  0
 28 43  1  1  0  0  0
 28 27  1  0  0  0  0
 29 38  1  1  0  0  0
 29 31  1  0  0  0  0
 30 33  2  0  0  0  0
 31 36  1  1  0  0  0
 32 35  2  0  0  0  0
 33 39  1  0  0  0  0
 34 33  1  0  0  0  0
 35 34  1  0  0  0  0
 35 37  1  0  0  0  0
 37 29  1  0  0  0  0
 37 40  1  1  0  0  0
 39 31  1  0  0  0  0
 39 28  1  1  0  0  0
 40 41  1  0  0  0  0
 42 40  1  0  0  0  0
 42 41  1  0  0  0  0
 44 45  1  0  0  0  0
 45 43  1  0  0  0  0
 47 48  1  0  0  0  0
 47 46  1  0  0  0  0
 49 47  1  0  0  0  0
M  END
>  <MODEL>
6

>  <REMARK>
 VINA RESULT:      -6.9      3.286      8.248
  Name = 
  9 active torsions:
  status: ('A' for Active; 'I' for Inactive)
    1  A    between atoms: C_3  and  C_8
    2  A    between atoms: C_3  and  N_44
    3  A    between atoms: C_8  and  O_43
    4  A    between atoms: C_8  and  C_47
    5  A    between atoms: C_13  and  C_42
    6  A    between atoms: C_15  and  C_37
    7  A    between atoms: C_16  and  C_48
    8  A    between atoms: C_25  and  C_40
    9  A    between atoms: O_43  and  C_48
                            x       y       z     vdW  Elec       q    Type
                         _______ _______ _______ _____ _____    ______ ____

>  <TORSDO>
F 9

$$$$
=
 OpenBabel11062420263D

 49 56  0  0  1  0  0  0  0  0999 V2000
  194.3740  175.3660  145.4220 O   0  0  0  0  0  0  0  0  0  0  0  0
  194.3150  172.0260  145.3990 C   0  0  0  0  0  3  0  0  0  0  0  0
  196.8200  173.5160  140.9030 O   0  0  0  0  0  0  0  0  0  0  0  0
  196.3450  174.1730  142.0220 C   0  0  0  0  0  0  0  0  0  0  0  0
  194.4050  170.7730  144.9430 C   0  0  0  0  0  0  0  0  0  0  0  0
  194.7610  173.8420  143.7880 C   0  0  0  0  0  0  0  0  0  0  0  0
  196.0760  175.8920  143.6900 C   0  0  0  0  0  3  0  0  0  0  0  0
  192.3210  170.3360  143.6400 C   0  0  1  0  0  3  0  0  0  0  0  0
  195.3970  173.4020  142.6280 C   0  0  0  0  0  0  0  0  0  0  0  0
  191.7920  170.0910  142.2410 C   0  0  0  0  0  1  0  0  0  0  0  0
  193.8460  170.3830  143.6160 C   0  0  0  0  0  2  0  0  0  0  0  0
  192.3470  172.9180  143.9430 C   0  0  2  0  0  3  0  0  0  0  0  0
  193.7140  173.2010  144.6550 C   0  0  1  0  0  0  0  0  0  0  0  0
  193.4630  174.3060  145.7100 C   0  0  0  0  0  2  0  0  0  0  0  0
  195.2230  172.2340  141.9110 O   0  0  0  0  0  0  0  0  0  0  0  0
  191.6640  171.5740  144.2710 C   0  0  0  0  0  2  0  0  0  0  0  0
  196.7180  175.4300  142.5210 C   0  0  0  0  0  3  0  0  0  0  0  0
  196.1150  172.2670  140.7840 C   0  0  1  0  0  0  0  0  0  0  0  0
  195.3690  172.2620  139.6030 O   0  0  0  0  0  1  0  0  0  0  0  0
  195.1030  175.0730  144.2950 C   0  0  0  0  0  0  0  0  0  0  0  0
  194.9960  169.8020  145.7420 O   0  0  0  0  0  1  0  0  0  0  0  0
  192.4000  174.9160  142.3520 C   0  0  0  0  0  2  0  0  0  0  0  0
  190.9820  174.4100  142.3220 C   0  0  1  0  0  0  0  0  0  0  0  0
  190.8910  173.0550  141.9650 O   0  0  0  0  0  0  0  0  0  0  0  0
  192.1430  173.4320  142.4910 C   0  0  2  0  0  0  0  0  0  0  0  0
  190.2160  174.6930  143.6160 C   0  0  0  0  0  2  0  0  0  0  0  0
  189.0030  175.3300  143.3320 O   0  0  0  0  0  0  0  0  0  0  0  0
  189.2160  176.6800  143.6250 C   0  0  1  0  0  3  0  0  0  0  0  0
  185.6090  177.0160  145.1550 C   0  0  2  0  0  3  0  0  0  0  0  0
  187.2360  177.3890  141.7440 O   0  0  0  0  0  0  0  0  0  0  0  0
  187.0030  176.4210  144.8950 C   0  0  2  0  0  3  0  0  0  0  0  0
  185.1440  180.5370  144.3300 O   0  0  0  0  0  0  0  0  0  0  0  0
  187.1190  177.9060  142.8880 C   0  0  0  0  0  0  0  0  0  0  0  0
  186.2410  178.9820  143.0540 O   0  0  0  0  0  0  0  0  0  0  0  0
  185.6660  179.3920  144.2700 C   0  0  0  0  0  0  0  0  0  0  0  0
  187.6210  176.1160  146.1100 O   0  0  0  0  0  1  0  0  0  0  0  0
  185.5950  178.5160  145.4960 C   0  0  2  0  0  3  0  0  0  0  0  0
  184.9210  176.2830  146.1240 O   0  0  0  0  0  1  0  0  0  0  0  0
  187.8950  177.3520  144.0570 C   0  0  2  0  0  3  0  0  0  0  0  0
  186.6220  178.9340  146.5510 C   0  0  0  0  0  3  0  0  0  0  0  0
  186.2540  178.3370  147.8960 C   0  0  0  0  0  2  0  0  0  0  0  0
  185.9440  179.7900  147.6050 C   0  0  0  0  0  2  0  0  0  0  0  0
  190.2600  176.7730  144.7360 C   0  0  0  0  0  2  0  0  0  0  0  0
  192.2620  177.7750  144.0770 C   0  0  0  0  0  1  0  0  0  0  0  0
  190.9580  178.0450  144.6580 N   0  0  0  0  0  2  0  0  0  0  0  0
  197.9410  171.1320  139.7210 O   0  0  0  0  0  1  0  0  0  0  0  0
  197.0830  171.0710  140.8200 C   0  0  0  0  0  0  0  0  0  0  0  0
  196.3240  169.7550  140.7730 C   0  0  0  0  0  1  0  0  0  0  0  0
  197.9140  171.0980  142.0910 C   0  0  0  0  0  1  0  0  0  0  0  0
  1 14  1  0  0  0  0
  3  4  1  0  0  0  0
  4 17  2  0  0  0  0
  4  9  1  0  0  0  0
  5  2  2  0  0  0  0
  5 21  1  0  0  0  0
  6 20  1  0  0  0  0
  6 13  1  0  0  0  0
  7 20  2  0  0  0  0
  8 10  1  6  0  0  0
  8 16  1  0  0  0  0
  9  6  2  0  0  0  0
 11  8  1  0  0  0  0
 11  5  1  0  0  0  0
 12 16  1  6  0  0  0
 12 13  1  0  0  0  0
 13  2  1  1  0  0  0
 13 14  1  0  0  0  0
 15  9  1  0  0  0  0
 17  7  1  0  0  0  0
 18 19  1  6  0  0  0
 18 47  1  0  0  0  0
 18  3  1  0  0  0  0
 18 15  1  0  0  0  0
 20  1  1  0  0  0  0
 23 22  1  0  0  0  0
 23 25  1  0  0  0  0
 23 26  1  1  0  0  0
 24 23  1  0  0  0  0
 24 25  1  0  0  0  0
 25 22  1  6  0  0  0
 25 12  1  0  0  0  0
 27 26  1  0  0  0  0
 27 28  1  0  0  0  0
 28 43  1  1  0  0  0
 29 37  1  0  0  0  0
 29 38  1  1  0  0  0
 30 33  2  0  0  0  0
 31 29  1  0  0  0  0
 31 36  1  1  0  0  0
 33 34  1  0  0  0  0
 33 39  1  0  0  0  0
 34 35  1  0  0  0  0
 35 32  2  0  0  0  0
 35 37  1  0  0  0  0
 37 40  1  1  0  0  0
 39 28  1  6  0  0  0
 39 31  1  0  0  0  0
 40 42  1  0  0  0  0
 40 41  1  0  0  0  0
 42 41  1  0  0  0  0
 44 45  1  0  0  0  0
 45 43  1  0  0  0  0
 46 47  1  0  0  0  0
 47 49  1  0  0  0  0
 48 47  1  0  0  0  0
M  END
>  <MODEL>
7

>  <REMARK>
 VINA RESULT:      -6.7      1.452      1.975
  Name = 
  9 active torsions:
  status: ('A' for Active; 'I' for Inactive)
    1  A    between atoms: C_3  and  C_8
    2  A    between atoms: C_3  and  N_44
    3  A    between atoms: C_8  and  O_43
    4  A    between atoms: C_8  and  C_47
    5  A    between atoms: C_13  and  C_42
    6  A    between atoms: C_15  and  C_37
    7  A    between atoms: C_16  and  C_48
    8  A    between atoms: C_25  and  C_40
    9  A    between atoms: O_43  and  C_48
                            x       y       z     vdW  Elec       q    Type
                         _______ _______ _______ _____ _____    ______ ____

>  <TORSDO>
F 9

$$$$
=
 OpenBabel11062420263D

 49 56  0  0  1  0  0  0  0  0999 V2000
  193.1160  172.0890  140.0670 O   0  0  0  0  0  0  0  0  0  0  0  0
  194.7190  174.0440  142.2510 C   0  0  0  0  0  3  0  0  0  0  0  0
  195.1990  169.0330  144.0850 O   0  0  0  0  0  0  0  0  0  0  0  0
  194.6960  169.6100  142.9360 C   0  0  0  0  0  0  0  0  0  0  0  0
  195.3270  174.4330  143.3760 C   0  0  0  0  0  0  0  0  0  0  0  0
  193.8740  171.7260  142.1740 C   0  0  0  0  0  0  0  0  0  0  0  0
  193.9480  169.8230  140.6540 C   0  0  0  0  0  3  0  0  0  0  0  0
  193.5230  174.8740  145.0450 C   0  0  1  0  0  3  0  0  0  0  0  0
  194.3990  170.9180  143.1810 C   0  0  0  0  0  0  0  0  0  0  0  0
  192.9180  174.3730  146.3410 C   0  0  0  0  0  1  0  0  0  0  0  0
  194.7830  174.0770  144.7200 C   0  0  0  0  0  2  0  0  0  0  0  0
  192.3230  173.5560  143.1510 C   0  0  2  0  0  3  0  0  0  0  0  0
  193.4800  173.1770  142.1640 C   0  0  1  0  0  0  0  0  0  0  0  0
  192.9300  173.3410  140.7260 C   0  0  0  0  0  2  0  0  0  0  0  0
  194.6880  171.2190  144.4980 O   0  0  0  0  0  0  0  0  0  0  0  0
  192.4780  174.8870  143.9160 C   0  0  0  0  0  2  0  0  0  0  0  0
  194.4860  169.0180  141.6820 C   0  0  0  0  0  3  0  0  0  0  0  0
  195.2000  170.0300  145.1240 C   0  0  1  0  0  0  0  0  0  0  0  0
  194.3360  169.6380  146.1490 O   0  0  0  0  0  1  0  0  0  0  0  0
  193.6530  171.1700  140.9370 C   0  0  0  0  0  0  0  0  0  0  0  0
  196.4670  175.2220  143.2930 O   0  0  0  0  0  1  0  0  0  0  0  0
  191.0540  171.3430  143.0210 C   0  0  0  0  0  2  0  0  0  0  0  0
  190.1050  172.3190  143.6670 C   0  0  1  0  0  0  0  0  0  0  0  0
  190.6350  172.9170  144.8210 O   0  0  0  0  0  0  0  0  0  0  0  0
  191.6060  172.4190  143.9300 C   0  0  2  0  0  0  0  0  0  0  0  0
  189.5750  173.3730  142.6930 C   0  0  0  0  0  2  0  0  0  0  0  0
  188.1830  173.4690  142.7930 O   0  0  0  0  0  0  0  0  0  0  0  0
  187.8500  174.6850  142.1890 C   0  0  1  0  0  3  0  0  0  0  0  0
  187.0470  178.1580  143.8500 C   0  0  2  0  0  3  0  0  0  0  0  0
  190.0710  176.4170  142.3530 O   0  0  0  0  0  0  0  0  0  0  0  0
  186.8610  176.9260  142.9480 C   0  0  2  0  0  3  0  0  0  0  0  0
  189.3490  177.8090  146.6560 O   0  0  0  0  0  0  0  0  0  0  0  0
  189.2820  176.4400  143.3360 C   0  0  0  0  0  0  0  0  0  0  0  0
  189.6970  177.0600  144.5190 O   0  0  0  0  0  0  0  0  0  0  0  0
  188.8510  177.5550  145.5270 C   0  0  0  0  0  0  0  0  0  0  0  0
  185.5690  176.4180  143.1020 O   0  0  0  0  0  1  0  0  0  0  0  0
  187.3850  177.8450  145.3170 C   0  0  2  0  0  3  0  0  0  0  0  0
  185.9450  179.0120  143.7690 O   0  0  0  0  0  1  0  0  0  0  0  0
  187.9060  175.8320  143.2210 C   0  0  2  0  0  3  0  0  0  0  0  0
  186.4990  176.7730  145.9560 C   0  0  0  0  0  3  0  0  0  0  0  0
  185.1740  177.3800  146.3760 C   0  0  0  0  0  2  0  0  0  0  0  0
  186.2490  177.1250  147.4110 C   0  0  0  0  0  2  0  0  0  0  0  0
  188.8290  174.9380  141.0440 C   0  0  0  0  0  2  0  0  0  0  0  0
  189.1080  173.7940  139.0300 C   0  0  0  0  0  1  0  0  0  0  0  0
  188.1930  174.6440  139.7710 N   0  0  0  0  0  2  0  0  0  0  0  0
  197.5580  169.9080  144.7050 O   0  0  0  0  0  1  0  0  0  0  0  0
  196.6190  170.2700  145.6710 C   0  0  0  0  0  0  0  0  0  0  0  0
  196.8650  169.4460  146.9240 C   0  0  0  0  0  1  0  0  0  0  0  0
  196.8140  171.7360  146.0170 C   0  0  0  0  0  1  0  0  0  0  0  0
  1 14  1  0  0  0  0
  1 20  1  0  0  0  0
  2  5  2  0  0  0  0
  3 18  1  0  0  0  0
  4  9  1  0  0  0  0
  4  3  1  0  0  0  0
  5 11  1  0  0  0  0
  6  9  2  0  0  0  0
  7 20  2  0  0  0  0
  7 17  1  0  0  0  0
  8 10  1  1  0  0  0
  9 15  1  0  0  0  0
 11  8  1  0  0  0  0
 12 16  1  1  0  0  0
 12 25  1  0  0  0  0
 13 14  1  6  0  0  0
 13  6  1  0  0  0  0
 13  2  1  0  0  0  0
 13 12  1  0  0  0  0
 15 18  1  0  0  0  0
 16  8  1  0  0  0  0
 17  4  2  0  0  0  0
 18 47  1  0  0  0  0
 18 19  1  1  0  0  0
 20  6  1  0  0  0  0
 21  5  1  0  0  0  0
 22 23  1  0  0  0  0
 23 26  1  6  0  0  0
 23 25  1  0  0  0  0
 23 24  1  0  0  0  0
 25 22  1  1  0  0  0
 25 24  1  0  0  0  0
 26 27  1  0  0  0  0
 28 43  1  6  0  0  0
 28 27  1  0  0  0  0
 29 38  1  1  0  0  0
 29 37  1  0  0  0  0
 30 33  2  0  0  0  0
 31 36  1  1  0  0  0
 31 39  1  0  0  0  0
 31 29  1  0  0  0  0
 33 34  1  0  0  0  0
 34 35  1  0  0  0  0
 35 32  2  0  0  0  0
 37 35  1  0  0  0  0
 37 40  1  6  0  0  0
 39 28  1  6  0  0  0
 39 33  1  0  0  0  0
 40 41  1  0  0  0  0
 40 42  1  0  0  0  0
 41 42  1  0  0  0  0
 44 45  1  0  0  0  0
 45 43  1  0  0  0  0
 46 47  1  0  0  0  0
 47 49  1  0  0  0  0
 47 48  1  0  0  0  0
M  END
>  <MODEL>
8

>  <REMARK>
 VINA RESULT:      -6.7      2.297      4.492
  Name = 
  9 active torsions:
  status: ('A' for Active; 'I' for Inactive)
    1  A    between atoms: C_3  and  C_8
    2  A    between atoms: C_3  and  N_44
    3  A    between atoms: C_8  and  O_43
    4  A    between atoms: C_8  and  C_47
    5  A    between atoms: C_13  and  C_42
    6  A    between atoms: C_15  and  C_37
    7  A    between atoms: C_16  and  C_48
    8  A    between atoms: C_25  and  C_40
    9  A    between atoms: O_43  and  C_48
                            x       y       z     vdW  Elec       q    Type
                         _______ _______ _______ _____ _____    ______ ____

>  <TORSDO>
F 9

$$$$
=
 OpenBabel11062420263D

 49 56  0  0  1  0  0  0  0  0999 V2000
  190.2690  171.9890  138.3930 O   0  0  0  0  0  0  0  0  0  0  0  0
  192.9480  173.3110  139.8890 C   0  0  0  0  0  3  0  0  0  0  0  0
  192.3910  168.3710  141.8890 O   0  0  0  0  0  0  0  0  0  0  0  0
  191.7770  169.0950  140.8860 C   0  0  0  0  0  0  0  0  0  0  0  0
  193.9420  173.4720  140.7680 C   0  0  0  0  0  0  0  0  0  0  0  0
  191.4540  171.3740  140.2260 C   0  0  0  0  0  0  0  0  0  0  0  0
  190.5050  169.5680  138.8930 C   0  0  0  0  0  3  0  0  0  0  0  0
  192.9180  174.4270  142.8350 C   0  0  1  0  0  3  0  0  0  0  0  0
  191.9760  170.4260  141.1050 C   0  0  0  0  0  0  0  0  0  0  0  0
  192.5910  174.1190  144.2820 C   0  0  0  0  0  1  0  0  0  0  0  0
  193.7270  173.2820  142.2330 C   0  0  0  0  0  2  0  0  0  0  0  0
  190.8830  173.5810  141.4550 C   0  0  2  0  0  3  0  0  0  0  0  0
  191.5350  172.8750  140.2170 C   0  0  1  0  0  0  0  0  0  0  0  0
  190.6700  173.2260  138.9810 C   0  0  0  0  0  2  0  0  0  0  0  0
  192.7090  170.6000  142.2620 O   0  0  0  0  0  0  0  0  0  0  0  0
  191.6490  174.7840  142.0450 C   0  0  0  0  0  2  0  0  0  0  0  0
  191.0460  168.6180  139.7880 C   0  0  0  0  0  3  0  0  0  0  0  0
  192.9940  169.3020  142.8080 C   0  0  1  0  0  0  0  0  0  0  0  0
  192.3860  169.1820  144.0610 O   0  0  0  0  0  1  0  0  0  0  0  0
  190.7280  170.9350  139.1450 C   0  0  0  0  0  0  0  0  0  0  0  0
  195.1930  173.8660  140.3110 O   0  0  0  0  0  1  0  0  0  0  0  0
  188.9920  171.9120  141.8590 C   0  0  0  0  0  2  0  0  0  0  0  0
  188.6540  173.1200  142.6940 C   0  0  1  0  0  0  0  0  0  0  0  0
  189.6730  173.4660  143.5940 O   0  0  0  0  0  0  0  0  0  0  0  0
  190.1110  172.7130  142.4870 C   0  0  2  0  0  0  0  0  0  0  0  0
  188.2220  174.3250  141.8570 C   0  0  0  0  0  2  0  0  0  0  0  0
  187.0270  174.8560  142.3520 O   0  0  0  0  0  0  0  0  0  0  0  0
  187.2130  176.2410  142.3650 C   0  0  1  0  0  3  0  0  0  0  0  0
  188.4060  177.7210  145.8080 C   0  0  2  0  0  3  0  0  0  0  0  0
  188.9230  178.4720  142.1210 O   0  0  0  0  0  0  0  0  0  0  0  0
  187.4470  177.1340  144.7580 C   0  0  2  0  0  3  0  0  0  0  0  0
  191.9700  177.1590  145.2780 O   0  0  0  0  0  0  0  0  0  0  0  0
  189.1970  177.6690  143.0530 C   0  0  0  0  0  0  0  0  0  0  0  0
  190.4440  177.7620  143.6800 O   0  0  0  0  0  0  0  0  0  0  0  0
  190.7560  177.2780  144.9630 C   0  0  0  0  0  0  0  0  0  0  0  0
  186.7050  176.0960  145.3240 O   0  0  0  0  0  1  0  0  0  0  0  0
  189.7160  176.9400  146.0020 C   0  0  2  0  0  3  0  0  0  0  0  0
  187.7590  177.9120  147.0300 O   0  0  0  0  0  1  0  0  0  0  0  0
  188.1810  176.6450  143.4980 C   0  0  2  0  0  3  0  0  0  0  0  0
  189.5340  175.4270  146.1490 C   0  0  0  0  0  3  0  0  0  0  0  0
  188.9430  175.1070  147.5090 C   0  0  0  0  0  2  0  0  0  0  0  0
  190.4250  174.9170  147.2670 C   0  0  0  0  0  2  0  0  0  0  0  0
  187.7620  176.6660  141.0050 C   0  0  0  0  0  2  0  0  0  0  0  0
  185.7030  177.7610  141.0640 C   0  0  0  0  0  1  0  0  0  0  0  0
  186.6880  177.1770  140.1700 N   0  0  0  0  0  2  0  0  0  0  0  0
  195.1540  170.3030  143.0900 O   0  0  0  0  0  1  0  0  0  0  0  0
  194.5130  169.0770  142.9190 C   0  0  0  0  0  0  0  0  0  0  0  0
  195.0570  168.4130  141.6640 C   0  0  0  0  0  1  0  0  0  0  0  0
  194.8330  168.1870  144.1070 C   0  0  0  0  0  1  0  0  0  0  0  0
  1 14  1  0  0  0  0
  1 20  1  0  0  0  0
  2 13  1  0  0  0  0
  2  5  2  0  0  0  0
  3 18  1  0  0  0  0
  4  9  1  0  0  0  0
  4  3  1  0  0  0  0
  5 11  1  0  0  0  0
  6  9  2  0  0  0  0
  7 20  2  0  0  0  0
  7 17  1  0  0  0  0
  8 10  1  1  0  0  0
  9 15  1  0  0  0  0
 11  8  1  0  0  0  0
 12 16  1  1  0  0  0
 12 25  1  0  0  0  0
 13 14  1  6  0  0  0
 13  6  1  0  0  0  0
 13 12  1  0  0  0  0
 15 18  1  0  0  0  0
 16  8  1  0  0  0  0
 17  4  2  0  0  0  0
 18 47  1  0  0  0  0
 18 19  1  1  0  0  0
 20  6  1  0  0  0  0
 21  5  1  0  0  0  0
 22 23  1  0  0  0  0
 23 26  1  6  0  0  0
 23 24  1  0  0  0  0
 25 22  1  1  0  0  0
 25 23  1  0  0  0  0
 25 24  1  0  0  0  0
 26 27  1  0  0  0  0
 27 28  1  0  0  0  0
 28 43  1  6  0  0  0
 29 37  1  0  0  0  0
 29 38  1  1  0  0  0
 30 33  2  0  0  0  0
 31 36  1  1  0  0  0
 31 29  1  0  0  0  0
 33 39  1  0  0  0  0
 33 34  1  0  0  0  0
 34 35  1  0  0  0  0
 35 32  2  0  0  0  0
 35 37  1  0  0  0  0
 37 40  1  6  0  0  0
 39 28  1  6  0  0  0
 39 31  1  0  0  0  0
 40 42  1  0  0  0  0
 40 41  1  0  0  0  0
 42 41  1  0  0  0  0
 45 43  1  0  0  0  0
 45 44  1  0  0  0  0
 47 46  1  0  0  0  0
 47 49  1  0  0  0  0
 48 47  1  0  0  0  0
M  END
>  <MODEL>
9

>  <REMARK>
 VINA RESULT:      -6.6      2.996      5.393
  Name = 
  9 active torsions:
  status: ('A' for Active; 'I' for Inactive)
    1  A    between atoms: C_3  and  C_8
    2  A    between atoms: C_3  and  N_44
    3  A    between atoms: C_8  and  O_43
    4  A    between atoms: C_8  and  C_47
    5  A    between atoms: C_13  and  C_42
    6  A    between atoms: C_15  and  C_37
    7  A    between atoms: C_16  and  C_48
    8  A    between atoms: C_25  and  C_40
    9  A    between atoms: O_43  and  C_48
                            x       y       z     vdW  Elec       q    Type
                         _______ _______ _______ _____ _____    ______ ____

>  <TORSDO>
F 9

$$$$
