=
 OpenBabel11062418463D

 43 48  0  0  1  0  0  0  0  0999 V2000
  188.9300  173.3970  140.0330 C   0  0  0  0  0  0  0  0  0  0  0  0
  190.7150  171.7500  139.4540 C   0  0  0  0  0  3  0  0  0  0  0  0
  188.8210  171.9410  143.3670 F   0  0  0  0  0  0  0  0  0  0  0  0
  188.0830  174.2010  139.4820 N   0  0  0  0  0  2  0  0  0  0  0  0
  191.5600  171.3550  143.0680 N   0  0  0  0  0  2  0  0  0  0  0  0
  191.2720  171.4910  140.7560 N   0  0  0  0  0  0  0  0  0  0  0  0
  189.0550  173.4250  141.5200 C   0  0  1  0  0  3  0  0  0  0  0  0
  189.7260  172.5570  139.1820 N   0  0  0  0  0  0  0  0  0  0  0  0
  189.2930  172.0330  142.0710 C   0  0  1  0  0  3  0  0  0  0  0  0
  190.7340  171.6260  141.9280 C   0  0  0  0  0  0  0  0  0  0  0  0
  190.0520  174.3230  141.9240 O   0  0  0  0  0  0  0  0  0  0  0  0
  189.6790  177.5630  143.1880 C   0  0  1  0  0  3  0  0  0  0  0  0
  188.3230  175.6640  142.8710 C   0  0  0  0  0  2  0  0  0  0  0  0
  190.4480  176.6320  142.2770 C   0  0  0  0  0  2  0  0  0  0  0  0
  188.5610  176.8100  143.7520 N   0  0  0  0  0  0  0  0  0  0  0  0
  189.4520  175.5820  141.8650 C   0  0  1  0  0  3  0  0  0  0  0  0
  189.8820  178.2500  145.4780 F   0  0  0  0  0  0  0  0  0  0  0  0
  190.5850  178.1210  144.2910 C   0  0  0  0  0  0  0  0  0  0  0  0
  191.0670  179.3590  143.9130 F   0  0  0  0  0  0  0  0  0  0  0  0
  191.6590  177.2700  144.4860 F   0  0  0  0  0  0  0  0  0  0  0  0
  186.6000  177.7780  142.5120 C   0  0  0  0  0  1  0  0  0  0  0  0
  187.3730  177.6840  143.8290 C   0  0  1  0  0  3  0  0  0  0  0  0
  186.4120  177.3090  144.9690 C   0  0  2  0  0  3  0  0  0  0  0  0
  185.6170  178.4680  145.4530 C   0  0  0  0  0  0  0  0  0  0  0  0
  185.8050  179.6920  144.8010 O   0  0  0  0  0  1  0  0  0  0  0  0
  186.7920  177.9680  146.3290 C   0  0  0  0  0  0  0  0  0  0  0  0
  186.1010  177.8750  147.7040 C   0  0  0  0  0  2  0  0  0  0  0  0
  186.7070  176.6610  147.1380 C   0  0  0  0  0  2  0  0  0  0  0  0
  184.2910  178.1270  145.7640 O   0  0  0  0  0  1  0  0  0  0  0  0
  191.2970  171.8130  144.4210 C   0  0  0  0  0  2  0  0  0  0  0  0
  192.3330  172.7690  144.8200 N   0  0  0  0  0  0  0  0  0  0  0  0
  191.7120  174.0580  145.1810 C   0  0  1  0  0  3  0  0  0  0  0  0
  190.2400  173.9520  145.5650 C   0  0  0  0  0  2  0  0  0  0  0  0
  191.0960  175.2400  147.4240 C   0  0  2  0  0  3  0  0  0  0  0  0
  189.9410  175.1360  146.4520 C   0  0  0  0  0  2  0  0  0  0  0  0
  191.1540  176.6310  148.0230 C   0  0  0  0  0  1  0  0  0  0  0  0
  192.6340  174.8940  146.5200 S   0  0  0  0  0  0  0  0  0  0  0  0
  195.4760  174.1410  142.2590 C   0  0  0  0  0  2  0  0  0  0  0  0
  193.9860  174.3600  141.9310 C   0  0  0  0  0  2  0  0  0  0  0  0
  195.7050  173.7970  143.7300 C   0  0  0  0  0  2  0  0  0  0  0  0
  193.2830  172.9480  143.7110 C   0  0  1  0  0  3  0  0  0  0  0  0
  193.1470  174.2910  143.1290 N   0  0  0  0  0  2  0  0  0  0  0  0
  194.7340  172.7100  144.1960 C   0  0  0  0  0  2  0  0  0  0  0  0
  1  7  1  0  0  0  0
  2  6  1  0  0  0  0
  4  1  2  0  0  0  0
  5 30  1  0  0  0  0
  6 10  2  0  0  0  0
  7 11  1  6  0  0  0
  7  9  1  0  0  0  0
  8  2  2  0  0  0  0
  8  1  1  0  0  0  0
  9  3  1  1  0  0  0
 10  9  1  0  0  0  0
 10  5  1  0  0  0  0
 12 15  1  0  0  0  0
 12 18  1  1  0  0  0
 13 15  1  0  0  0  0
 14 12  1  0  0  0  0
 15 22  1  0  0  0  0
 16 11  1  1  0  0  0
 16 14  1  0  0  0  0
 16 13  1  0  0  0  0
 18 20  1  0  0  0  0
 18 17  1  0  0  0  0
 19 18  1  0  0  0  0
 22 21  1  6  0  0  0
 23 22  1  6  0  0  0
 23 24  1  0  0  0  0
 23 26  1  0  0  0  0
 24 29  1  0  0  0  0
 24 26  1  0  0  0  0
 25 24  1  0  0  0  0
 26 28  1  0  0  0  0
 26 27  1  0  0  0  0
 28 27  1  0  0  0  0
 30 31  1  0  0  0  0
 32 31  1  1  0  0  0
 32 33  1  0  0  0  0
 32 37  1  0  0  0  0
 33 35  1  0  0  0  0
 34 36  1  6  0  0  0
 35 34  1  0  0  0  0
 37 34  1  0  0  0  0
 38 40  1  0  0  0  0
 39 38  1  0  0  0  0
 39 42  1  0  0  0  0
 40 43  1  0  0  0  0
 41 43  1  0  0  0  0
 41 31  1  1  0  0  0
 42 41  1  0  0  0  0
M  END
>  <MODEL>
1

>  <REMARK>
 VINA RESULT:      -7.8      0.000      0.000
  Name = 
  9 active torsions:
  status: ('A' for Active; 'I' for Inactive)
    1  A    between atoms: C_1  and  C_40
    2  A    between atoms: C_2  and  C_15
    3  A    between atoms: C_8  and  N_27
    4  A    between atoms: O_16  and  C_31
    5  A    between atoms: O_16  and  C_43
    6  A    between atoms: N_20  and  C_38
    7  A    between atoms: C_25  and  N_27
    8  A    between atoms: N_27  and  C_38
    9  A    between atoms: N_37  and  C_40
                            x       y       z     vdW  Elec       q    Type
                         _______ _______ _______ _____ _____    ______ ____

>  <TORSDO>
F 9

$$$$
=
 OpenBabel11062418463D

 43 48  0  0  1  0  0  0  0  0999 V2000
  188.8510  173.1270  140.3130 C   0  0  0  0  0  0  0  0  0  0  0  0
  190.5650  171.4430  139.6330 C   0  0  0  0  0  3  0  0  0  0  0  0
  189.2190  171.9570  143.7390 F   0  0  0  0  0  0  0  0  0  0  0  0
  187.9250  173.8790  139.8180 N   0  0  0  0  0  2  0  0  0  0  0  0
  191.9000  171.3560  143.1170 N   0  0  0  0  0  2  0  0  0  0  0  0
  191.2970  171.2960  140.8630 N   0  0  0  0  0  0  0  0  0  0  0  0
  189.1770  173.2810  141.7610 C   0  0  1  0  0  3  0  0  0  0  0  0
  189.5360  172.2210  139.4330 N   0  0  0  0  0  0  0  0  0  0  0  0
  189.5080  171.9410  142.3870 C   0  0  1  0  0  3  0  0  0  0  0  0
  190.9230  171.5280  142.0820 C   0  0  0  0  0  0  0  0  0  0  0  0
  190.2070  174.2130  141.9490 O   0  0  0  0  0  0  0  0  0  0  0  0
  189.7740  177.4720  143.1430 C   0  0  1  0  0  3  0  0  0  0  0  0
  188.4500  175.5450  142.8570 C   0  0  0  0  0  2  0  0  0  0  0  0
  190.5640  176.5350  142.2560 C   0  0  0  0  0  2  0  0  0  0  0  0
  188.6640  176.7130  143.7150 N   0  0  0  0  0  0  0  0  0  0  0  0
  189.5880  175.4610  141.8590 C   0  0  1  0  0  3  0  0  0  0  0  0
  190.0250  178.0060  145.4690 F   0  0  0  0  0  0  0  0  0  0  0  0
  190.6640  178.0660  144.2410 C   0  0  0  0  0  0  0  0  0  0  0  0
  190.9500  179.3850  143.9420 F   0  0  0  0  0  0  0  0  0  0  0  0
  191.8530  177.3620  144.3090 F   0  0  0  0  0  0  0  0  0  0  0  0
  186.6920  177.6170  142.4460 C   0  0  0  0  0  1  0  0  0  0  0  0
  187.4620  177.5690  143.7670 C   0  0  1  0  0  3  0  0  0  0  0  0
  186.5030  177.2060  144.9130 C   0  0  2  0  0  3  0  0  0  0  0  0
  185.6890  178.3640  145.3670 C   0  0  0  0  0  0  0  0  0  0  0  0
  185.8610  179.5750  144.6850 O   0  0  0  0  0  1  0  0  0  0  0  0
  186.8690  177.9050  146.2580 C   0  0  0  0  0  0  0  0  0  0  0  0
  186.1750  177.8350  147.6320 C   0  0  0  0  0  2  0  0  0  0  0  0
  186.8020  176.6160  147.0980 C   0  0  0  0  0  2  0  0  0  0  0  0
  184.3680  178.0100  145.6820 O   0  0  0  0  0  1  0  0  0  0  0  0
  191.8180  171.9260  144.4510 C   0  0  0  0  0  2  0  0  0  0  0  0
  192.4670  173.2400  144.4580 N   0  0  0  0  0  0  0  0  0  0  0  0
  193.7830  173.1430  145.1180 C   0  0  1  0  0  3  0  0  0  0  0  0
  194.1230  171.7450  145.6250 C   0  0  0  0  0  2  0  0  0  0  0  0
  196.1400  172.2800  144.4050 C   0  0  2  0  0  3  0  0  0  0  0  0
  195.6280  171.6650  145.6890 C   0  0  0  0  0  2  0  0  0  0  0  0
  197.5910  172.6910  144.5620 C   0  0  0  0  0  1  0  0  0  0  0  0
  195.1240  173.7390  144.0280 S   0  0  0  0  0  0  0  0  0  0  0  0
  190.2290  175.3860  147.4090 C   0  0  0  0  0  2  0  0  0  0  0  0
  189.5540  174.5320  146.3160 C   0  0  0  0  0  2  0  0  0  0  0  0
  191.7070  175.0430  147.5860 C   0  0  0  0  0  2  0  0  0  0  0  0
  191.6080  174.2030  145.1630 C   0  0  1  0  0  3  0  0  0  0  0  0
  190.4630  173.5180  145.7770 N   0  0  0  0  0  2  0  0  0  0  0  0
  192.4200  174.9720  146.2340 C   0  0  0  0  0  2  0  0  0  0  0  0
  1  7  1  0  0  0  0
  2  6  1  0  0  0  0
  4  1  2  0  0  0  0
  5 30  1  0  0  0  0
  6 10  2  0  0  0  0
  7 11  1  6  0  0  0
  7  9  1  0  0  0  0
  8  2  2  0  0  0  0
  8  1  1  0  0  0  0
  9  3  1  1  0  0  0
 10  9  1  0  0  0  0
 10  5  1  0  0  0  0
 12 15  1  0  0  0  0
 12 18  1  1  0  0  0
 13 15  1  0  0  0  0
 14 12  1  0  0  0  0
 15 22  1  0  0  0  0
 16 11  1  1  0  0  0
 16 14  1  0  0  0  0
 16 13  1  0  0  0  0
 18 20  1  0  0  0  0
 18 17  1  0  0  0  0
 19 18  1  0  0  0  0
 22 21  1  6  0  0  0
 23 22  1  6  0  0  0
 23 24  1  0  0  0  0
 23 26  1  0  0  0  0
 24 29  1  0  0  0  0
 24 26  1  0  0  0  0
 25 24  1  0  0  0  0
 26 28  1  0  0  0  0
 26 27  1  0  0  0  0
 28 27  1  0  0  0  0
 30 31  1  0  0  0  0
 32 31  1  6  0  0  0
 32 33  1  0  0  0  0
 33 35  1  0  0  0  0
 34 36  1  1  0  0  0
 34 35  1  0  0  0  0
 37 34  1  0  0  0  0
 37 32  1  0  0  0  0
 38 40  1  0  0  0  0
 39 38  1  0  0  0  0
 41 31  1  1  0  0  0
 41 42  1  0  0  0  0
 41 43  1  0  0  0  0
 42 39  1  0  0  0  0
 43 40  1  0  0  0  0
M  END
>  <MODEL>
2

>  <REMARK>
 VINA RESULT:      -7.4      1.103      2.900
  Name = 
  9 active torsions:
  status: ('A' for Active; 'I' for Inactive)
    1  A    between atoms: C_1  and  C_40
    2  A    between atoms: C_2  and  C_15
    3  A    between atoms: C_8  and  N_27
    4  A    between atoms: O_16  and  C_31
    5  A    between atoms: O_16  and  C_43
    6  A    between atoms: N_20  and  C_38
    7  A    between atoms: C_25  and  N_27
    8  A    between atoms: N_27  and  C_38
    9  A    between atoms: N_37  and  C_40
                            x       y       z     vdW  Elec       q    Type
                         _______ _______ _______ _____ _____    ______ ____

>  <TORSDO>
F 9

$$$$
=
 OpenBabel11062418463D

 43 48  0  0  1  0  0  0  0  0999 V2000
  196.8700  175.8680  142.6490 C   0  0  0  0  0  0  0  0  0  0  0  0
  197.6910  173.5560  142.1860 C   0  0  0  0  0  3  0  0  0  0  0  0
  194.2010  175.2830  140.2460 F   0  0  0  0  0  0  0  0  0  0  0  0
  197.2500  176.9880  143.1680 N   0  0  0  0  0  2  0  0  0  0  0  0
  194.3020  172.5650  140.9780 N   0  0  0  0  0  2  0  0  0  0  0  0
  196.4740  172.9210  141.7560 N   0  0  0  0  0  0  0  0  0  0  0  0
  195.4450  175.7440  142.2220 C   0  0  1  0  0  3  0  0  0  0  0  0
  197.8270  174.8010  142.5530 N   0  0  0  0  0  0  0  0  0  0  0  0
  195.3290  174.9190  140.9550 C   0  0  1  0  0  3  0  0  0  0  0  0
  195.4000  173.4460  141.2530 C   0  0  0  0  0  0  0  0  0  0  0  0
  194.6540  175.2260  143.2560 O   0  0  0  0  0  0  0  0  0  0  0  0
  192.3010  176.5550  145.4780 C   0  0  1  0  0  3  0  0  0  0  0  0
  192.5350  176.3150  143.1470 C   0  0  0  0  0  2  0  0  0  0  0  0
  193.7450  176.1770  145.2260 C   0  0  0  0  0  2  0  0  0  0  0  0
  191.5600  176.3270  144.2390 N   0  0  0  0  0  0  0  0  0  0  0  0
  193.9290  176.3170  143.7400 C   0  0  1  0  0  3  0  0  0  0  0  0
  192.4970  174.6220  146.8870 F   0  0  0  0  0  0  0  0  0  0  0  0
  191.7150  175.7380  146.6340 C   0  0  0  0  0  0  0  0  0  0  0  0
  190.4350  175.3300  146.3110 F   0  0  0  0  0  0  0  0  0  0  0  0
  191.6540  176.5210  147.7740 F   0  0  0  0  0  0  0  0  0  0  0  0
  191.1930  178.7840  143.8620 C   0  0  0  0  0  1  0  0  0  0  0  0
  190.5650  177.4030  144.0600 C   0  0  1  0  0  3  0  0  0  0  0  0
  189.5600  177.1230  142.9310 C   0  0  2  0  0  3  0  0  0  0  0  0
  188.1560  177.4120  143.3290 C   0  0  0  0  0  0  0  0  0  0  0  0
  187.9480  177.9260  144.6140 O   0  0  0  0  0  1  0  0  0  0  0  0
  188.6050  175.9310  143.2460 C   0  0  0  0  0  0  0  0  0  0  0  0
  187.4560  175.3340  142.4110 C   0  0  0  0  0  2  0  0  0  0  0  0
  188.8300  175.2230  141.8980 C   0  0  0  0  0  2  0  0  0  0  0  0
  187.4070  177.9960  142.2960 O   0  0  0  0  0  1  0  0  0  0  0  0
  192.9200  172.9790  140.8010 C   0  0  0  0  0  2  0  0  0  0  0  0
  192.0460  171.8080  140.9100 N   0  0  0  0  0  0  0  0  0  0  0  0
  190.9020  171.9510  139.9880 C   0  0  1  0  0  3  0  0  0  0  0  0
  190.7760  173.3370  139.3650 C   0  0  0  0  0  2  0  0  0  0  0  0
  190.6170  171.9440  137.3950 C   0  0  2  0  0  3  0  0  0  0  0  0
  190.0200  173.1600  138.0710 C   0  0  0  0  0  2  0  0  0  0  0  0
  189.6530  171.3910  136.3640 C   0  0  0  0  0  1  0  0  0  0  0  0
  190.9450  170.6890  138.6670 S   0  0  0  0  0  0  0  0  0  0  0  0
  189.9320  172.2360  144.6070 C   0  0  0  0  0  2  0  0  0  0  0  0
  191.3750  172.7470  144.4140 C   0  0  0  0  0  2  0  0  0  0  0  0
  189.2230  171.9770  143.2800 C   0  0  0  0  0  2  0  0  0  0  0  0
  191.5760  171.6800  142.2980 C   0  0  1  0  0  3  0  0  0  0  0  0
  191.6910  172.9650  143.0010 N   0  0  0  0  0  2  0  0  0  0  0  0
  190.1130  171.1730  142.3300 C   0  0  0  0  0  2  0  0  0  0  0  0
  1  4  2  0  0  0  0
  2  8  2  0  0  0  0
  5 10  1  0  0  0  0
  6  2  1  0  0  0  0
  7  1  1  0  0  0  0
  7 11  1  1  0  0  0
  8  1  1  0  0  0  0
  9  3  1  1  0  0  0
  9 10  1  0  0  0  0
  9  7  1  0  0  0  0
 10  6  2  0  0  0  0
 12 18  1  1  0  0  0
 13 16  1  0  0  0  0
 13 15  1  0  0  0  0
 14 12  1  0  0  0  0
 15 12  1  0  0  0  0
 16 11  1  6  0  0  0
 16 14  1  0  0  0  0
 18 17  1  0  0  0  0
 18 20  1  0  0  0  0
 19 18  1  0  0  0  0
 22 21  1  6  0  0  0
 22 15  1  0  0  0  0
 23 26  1  0  0  0  0
 23 24  1  0  0  0  0
 23 22  1  1  0  0  0
 24 25  1  0  0  0  0
 26 24  1  0  0  0  0
 27 26  1  0  0  0  0
 28 27  1  0  0  0  0
 28 26  1  0  0  0  0
 29 24  1  0  0  0  0
 30 31  1  0  0  0  0
 30  5  1  0  0  0  0
 32 31  1  6  0  0  0
 33 32  1  0  0  0  0
 34 36  1  6  0  0  0
 34 35  1  0  0  0  0
 34 37  1  0  0  0  0
 35 33  1  0  0  0  0
 37 32  1  0  0  0  0
 39 38  1  0  0  0  0
 40 38  1  0  0  0  0
 41 31  1  6  0  0  0
 41 43  1  0  0  0  0
 41 42  1  0  0  0  0
 42 39  1  0  0  0  0
 43 40  1  0  0  0  0
M  END
>  <MODEL>
3

>  <REMARK>
 VINA RESULT:      -6.9      2.925      6.033
  Name = 
  9 active torsions:
  status: ('A' for Active; 'I' for Inactive)
    1  A    between atoms: C_1  and  C_40
    2  A    between atoms: C_2  and  C_15
    3  A    between atoms: C_8  and  N_27
    4  A    between atoms: O_16  and  C_31
    5  A    between atoms: O_16  and  C_43
    6  A    between atoms: N_20  and  C_38
    7  A    between atoms: C_25  and  N_27
    8  A    between atoms: N_27  and  C_38
    9  A    between atoms: N_37  and  C_40
                            x       y       z     vdW  Elec       q    Type
                         _______ _______ _______ _____ _____    ______ ____

>  <TORSDO>
F 9

$$$$
=
 OpenBabel11062418463D

 43 48  0  0  1  0  0  0  0  0999 V2000
  189.8200  173.1150  139.7290 C   0  0  0  0  0  0  0  0  0  0  0  0
  191.9640  173.7840  138.6390 C   0  0  0  0  0  3  0  0  0  0  0  0
  191.7520  172.0390  142.6200 F   0  0  0  0  0  0  0  0  0  0  0  0
  188.5840  172.8620  139.4520 N   0  0  0  0  0  2  0  0  0  0  0  0
  193.6070  174.0590  141.9790 N   0  0  0  0  0  2  0  0  0  0  0  0
  192.7840  174.0340  139.7950 N   0  0  0  0  0  0  0  0  0  0  0  0
  190.2220  173.1420  141.1660 C   0  0  1  0  0  3  0  0  0  0  0  0
  190.7190  173.3950  138.6440 N   0  0  0  0  0  0  0  0  0  0  0  0
  191.6130  172.5680  141.3500 C   0  0  1  0  0  3  0  0  0  0  0  0
  192.6730  173.5780  141.0030 C   0  0  0  0  0  0  0  0  0  0  0  0
  190.1180  174.4360  141.6930 O   0  0  0  0  0  0  0  0  0  0  0  0
  187.1490  175.7630  142.9810 C   0  0  1  0  0  3  0  0  0  0  0  0
  189.3230  175.3090  143.7650 C   0  0  0  0  0  2  0  0  0  0  0  0
  187.8040  174.8760  141.9450 C   0  0  0  0  0  2  0  0  0  0  0  0
  188.1940  176.2350  143.8880 N   0  0  0  0  0  0  0  0  0  0  0  0
  189.0610  174.3740  142.6030 C   0  0  1  0  0  3  0  0  0  0  0  0
  185.1340  177.0550  142.8170 F   0  0  0  0  0  0  0  0  0  0  0  0
  186.4210  176.9350  142.3160 C   0  0  0  0  0  0  0  0  0  0  0  0
  186.3590  176.7290  140.9510 F   0  0  0  0  0  0  0  0  0  0  0  0
  187.1140  178.1100  142.5530 F   0  0  0  0  0  0  0  0  0  0  0  0
  188.5900  175.5810  146.2820 C   0  0  0  0  0  1  0  0  0  0  0  0
  187.6690  176.2610  145.2670 C   0  0  1  0  0  3  0  0  0  0  0  0
  187.3110  177.6740  145.7570 C   0  0  2  0  0  3  0  0  0  0  0  0
  186.5830  177.6640  147.0530 C   0  0  0  0  0  0  0  0  0  0  0  0
  186.3700  176.4200  147.6590 O   0  0  0  0  0  1  0  0  0  0  0  0
  185.7760  177.9470  145.7620 C   0  0  0  0  0  0  0  0  0  0  0  0
  184.9940  179.2050  146.1870 C   0  0  0  0  0  2  0  0  0  0  0  0
  185.8780  179.2890  145.0160 C   0  0  0  0  0  2  0  0  0  0  0  0
  186.9720  178.7100  147.9040 O   0  0  0  0  0  1  0  0  0  0  0  0
  193.4220  173.9960  143.4190 C   0  0  0  0  0  2  0  0  0  0  0  0
  194.6540  174.4260  144.0860 N   0  0  0  0  0  0  0  0  0  0  0  0
  195.5540  173.2710  144.2650 C   0  0  1  0  0  3  0  0  0  0  0  0
  196.4920  173.3940  145.4620 C   0  0  0  0  0  2  0  0  0  0  0  0
  195.5810  171.1840  145.8310 C   0  0  2  0  0  3  0  0  0  0  0  0
  196.8640  171.9870  145.8620 C   0  0  0  0  0  2  0  0  0  0  0  0
  195.8920  169.7030  145.7380 C   0  0  0  0  0  1  0  0  0  0  0  0
  194.6190  171.7040  144.3800 S   0  0  0  0  0  0  0  0  0  0  0  0
  192.8600  176.6780  147.2530 C   0  0  0  0  0  2  0  0  0  0  0  0
  194.2460  177.0240  146.6730 C   0  0  0  0  0  2  0  0  0  0  0  0
  192.0510  175.7720  146.3280 C   0  0  0  0  0  2  0  0  0  0  0  0
  194.3190  175.0250  145.3870 C   0  0  1  0  0  3  0  0  0  0  0  0
  194.4200  176.4890  145.3210 N   0  0  0  0  0  2  0  0  0  0  0  0
  192.8980  174.5980  145.8300 C   0  0  0  0  0  2  0  0  0  0  0  0
  1  7  1  0  0  0  0
  2  8  2  0  0  0  0
  2  6  1  0  0  0  0
  4  1  2  0  0  0  0
  5 30  1  0  0  0  0
  6 10  2  0  0  0  0
  7  9  1  0  0  0  0
  7 11  1  6  0  0  0
  8  1  1  0  0  0  0
  9  3  1  1  0  0  0
 10  9  1  0  0  0  0
 10  5  1  0  0  0  0
 12 18  1  6  0  0  0
 12 15  1  0  0  0  0
 13 15  1  0  0  0  0
 14 16  1  0  0  0  0
 14 12  1  0  0  0  0
 15 22  1  0  0  0  0
 16 11  1  6  0  0  0
 16 13  1  0  0  0  0
 18 20  1  0  0  0  0
 18 17  1  0  0  0  0
 19 18  1  0  0  0  0
 22 21  1  1  0  0  0
 23 22  1  6  0  0  0
 23 26  1  0  0  0  0
 23 24  1  0  0  0  0
 24 25  1  0  0  0  0
 24 29  1  0  0  0  0
 26 27  1  0  0  0  0
 26 24  1  0  0  0  0
 28 26  1  0  0  0  0
 28 27  1  0  0  0  0
 30 31  1  0  0  0  0
 32 31  1  1  0  0  0
 32 37  1  0  0  0  0
 32 33  1  0  0  0  0
 33 35  1  0  0  0  0
 34 36  1  6  0  0  0
 34 35  1  0  0  0  0
 37 34  1  0  0  0  0
 39 38  1  0  0  0  0
 40 38  1  0  0  0  0
 41 31  1  6  0  0  0
 41 43  1  0  0  0  0
 42 41  1  0  0  0  0
 42 39  1  0  0  0  0
 43 40  1  0  0  0  0
M  END
>  <MODEL>
4

>  <REMARK>
 VINA RESULT:      -6.9      2.416      3.948
  Name = 
  9 active torsions:
  status: ('A' for Active; 'I' for Inactive)
    1  A    between atoms: C_1  and  C_40
    2  A    between atoms: C_2  and  C_15
    3  A    between atoms: C_8  and  N_27
    4  A    between atoms: O_16  and  C_31
    5  A    between atoms: O_16  and  C_43
    6  A    between atoms: N_20  and  C_38
    7  A    between atoms: C_25  and  N_27
    8  A    between atoms: N_27  and  C_38
    9  A    between atoms: N_37  and  C_40
                            x       y       z     vdW  Elec       q    Type
                         _______ _______ _______ _____ _____    ______ ____

>  <TORSDO>
F 9

$$$$
=
 OpenBabel11062418463D

 43 48  0  0  1  0  0  0  0  0999 V2000
  189.4180  172.4310  140.7550 C   0  0  0  0  0  0  0  0  0  0  0  0
  191.2610  171.2300  139.5740 C   0  0  0  0  0  3  0  0  0  0  0  0
  191.0800  171.6590  143.9000 F   0  0  0  0  0  0  0  0  0  0  0  0
  188.2160  172.8650  140.5700 N   0  0  0  0  0  2  0  0  0  0  0  0
  193.5190  171.7660  142.4960 N   0  0  0  0  0  2  0  0  0  0  0  0
  192.3300  171.3790  140.5260 N   0  0  0  0  0  0  0  0  0  0  0  0
  190.0940  172.7740  142.0410 C   0  0  1  0  0  3  0  0  0  0  0  0
  190.0430  171.6830  139.7000 N   0  0  0  0  0  0  0  0  0  0  0  0
  190.9560  171.6230  142.5230 C   0  0  1  0  0  3  0  0  0  0  0  0
  192.2760  171.5890  141.8040 C   0  0  0  0  0  0  0  0  0  0  0  0
  190.8280  173.9610  141.9220 O   0  0  0  0  0  0  0  0  0  0  0  0
  190.0590  176.6490  144.0250 C   0  0  1  0  0  3  0  0  0  0  0  0
  189.1670  174.5230  143.5380 C   0  0  0  0  0  2  0  0  0  0  0  0
  190.7390  176.1760  142.7590 C   0  0  0  0  0  2  0  0  0  0  0  0
  189.3610  175.5040  144.6090 N   0  0  0  0  0  0  0  0  0  0  0  0
  189.9510  174.9710  142.3210 C   0  0  1  0  0  3  0  0  0  0  0  0
  191.6830  176.2300  145.7410 F   0  0  0  0  0  0  0  0  0  0  0  0
  191.0780  177.2370  145.0070 C   0  0  0  0  0  0  0  0  0  0  0  0
  190.4400  178.1070  145.8710 F   0  0  0  0  0  0  0  0  0  0  0  0
  192.0450  177.9390  144.3090 F   0  0  0  0  0  0  0  0  0  0  0  0
  188.0700  176.0560  146.6930 C   0  0  0  0  0  1  0  0  0  0  0  0
  188.0700  175.9520  145.1670 C   0  0  1  0  0  3  0  0  0  0  0  0
  187.5660  177.2710  144.5570 C   0  0  2  0  0  3  0  0  0  0  0  0
  186.1460  177.5540  144.8960 C   0  0  0  0  0  0  0  0  0  0  0  0
  185.4930  176.6410  145.7320 O   0  0  0  0  0  1  0  0  0  0  0  0
  186.4740  177.0600  143.4640 C   0  0  0  0  0  0  0  0  0  0  0  0
  185.7000  178.0930  142.6240 C   0  0  0  0  0  2  0  0  0  0  0  0
  187.1510  177.9700  142.4240 C   0  0  0  0  0  2  0  0  0  0  0  0
  185.9080  178.9120  145.1520 O   0  0  0  0  0  1  0  0  0  0  0  0
  193.6710  172.3880  143.8000 C   0  0  0  0  0  2  0  0  0  0  0  0
  195.0970  172.5690  144.0890 N   0  0  0  0  0  0  0  0  0  0  0  0
  195.4560  171.8240  145.3110 C   0  0  1  0  0  3  0  0  0  0  0  0
  194.4410  170.7590  145.7110 C   0  0  0  0  0  2  0  0  0  0  0  0
  196.4920  169.4810  145.8010 C   0  0  2  0  0  3  0  0  0  0  0  0
  195.1920  169.7370  146.5310 C   0  0  0  0  0  2  0  0  0  0  0  0
  197.5100  168.8670  146.7420 C   0  0  0  0  0  1  0  0  0  0  0  0
  197.1140  171.0670  145.1710 S   0  0  0  0  0  0  0  0  0  0  0  0
  194.9470  176.7080  145.1670 C   0  0  0  0  0  2  0  0  0  0  0  0
  194.7020  176.2180  143.7250 C   0  0  0  0  0  2  0  0  0  0  0  0
  194.8140  175.5860  146.1940 C   0  0  0  0  0  2  0  0  0  0  0  0
  195.3820  174.0020  144.2560 C   0  0  1  0  0  3  0  0  0  0  0  0
  194.2950  174.8120  143.6880 N   0  0  0  0  0  2  0  0  0  0  0  0
  195.5900  174.3430  145.7520 C   0  0  0  0  0  2  0  0  0  0  0  0
  1  7  1  0  0  0  0
  2  8  2  0  0  0  0
  2  6  1  0  0  0  0
  4  1  2  0  0  0  0
  5 30  1  0  0  0  0
  6 10  2  0  0  0  0
  7 11  1  6  0  0  0
  7  9  1  0  0  0  0
  8  1  1  0  0  0  0
  9  3  1  1  0  0  0
 10  5  1  0  0  0  0
 10  9  1  0  0  0  0
 12 15  1  0  0  0  0
 12 18  1  1  0  0  0
 13 15  1  0  0  0  0
 14 12  1  0  0  0  0
 15 22  1  0  0  0  0
 16 11  1  1  0  0  0
 16 14  1  0  0  0  0
 16 13  1  0  0  0  0
 18 17  1  0  0  0  0
 18 19  1  0  0  0  0
 20 18  1  0  0  0  0
 22 21  1  1  0  0  0
 23 24  1  0  0  0  0
 23 22  1  1  0  0  0
 24 29  1  0  0  0  0
 24 25  1  0  0  0  0
 26 23  1  0  0  0  0
 26 24  1  0  0  0  0
 27 26  1  0  0  0  0
 28 27  1  0  0  0  0
 28 26  1  0  0  0  0
 30 31  1  0  0  0  0
 32 31  1  6  0  0  0
 32 33  1  0  0  0  0
 33 35  1  0  0  0  0
 34 35  1  0  0  0  0
 34 36  1  1  0  0  0
 37 32  1  0  0  0  0
 37 34  1  0  0  0  0
 38 40  1  0  0  0  0
 39 38  1  0  0  0  0
 41 31  1  1  0  0  0
 41 43  1  0  0  0  0
 42 39  1  0  0  0  0
 42 41  1  0  0  0  0
 43 40  1  0  0  0  0
M  END
>  <MODEL>
5

>  <REMARK>
 VINA RESULT:      -6.8      2.149      3.482
  Name = 
  9 active torsions:
  status: ('A' for Active; 'I' for Inactive)
    1  A    between atoms: C_1  and  C_40
    2  A    between atoms: C_2  and  C_15
    3  A    between atoms: C_8  and  N_27
    4  A    between atoms: O_16  and  C_31
    5  A    between atoms: O_16  and  C_43
    6  A    between atoms: N_20  and  C_38
    7  A    between atoms: C_25  and  N_27
    8  A    between atoms: N_27  and  C_38
    9  A    between atoms: N_37  and  C_40
                            x       y       z     vdW  Elec       q    Type
                         _______ _______ _______ _____ _____    ______ ____

>  <TORSDO>
F 9

$$$$
=
 OpenBabel11062418463D

 43 48  0  0  1  0  0  0  0  0999 V2000
  194.8170  176.0940  144.7170 C   0  0  0  0  0  0  0  0  0  0  0  0
  195.6070  173.7450  144.4100 C   0  0  0  0  0  3  0  0  0  0  0  0
  193.8180  176.0990  141.2180 F   0  0  0  0  0  0  0  0  0  0  0  0
  194.9330  177.1000  145.5190 N   0  0  0  0  0  2  0  0  0  0  0  0
  193.3340  173.3370  141.4780 N   0  0  0  0  0  2  0  0  0  0  0  0
  194.7700  173.3230  143.3180 N   0  0  0  0  0  0  0  0  0  0  0  0
  193.8380  176.2030  143.5960 C   0  0  1  0  0  3  0  0  0  0  0  0
  195.6050  174.9210  144.9760 N   0  0  0  0  0  0  0  0  0  0  0  0
  194.3650  175.5220  142.3480 C   0  0  1  0  0  3  0  0  0  0  0  0
  194.1690  174.0320  142.4140 C   0  0  0  0  0  0  0  0  0  0  0  0
  192.5840  175.7040  143.9730 O   0  0  0  0  0  0  0  0  0  0  0  0
  189.9420  177.4310  145.4810 C   0  0  1  0  0  3  0  0  0  0  0  0
  190.4300  176.5230  143.3630 C   0  0  0  0  0  2  0  0  0  0  0  0
  191.4230  177.1210  145.4750 C   0  0  0  0  0  2  0  0  0  0  0  0
  189.3470  176.7780  144.3160 N   0  0  0  0  0  0  0  0  0  0  0  0
  191.7520  176.8230  144.0380 C   0  0  1  0  0  3  0  0  0  0  0  0
  188.4220  177.9160  147.2730 F   0  0  0  0  0  0  0  0  0  0  0  0
  189.2870  176.9520  146.7800 C   0  0  0  0  0  0  0  0  0  0  0  0
  190.2640  176.6940  147.7240 F   0  0  0  0  0  0  0  0  0  0  0  0
  188.5830  175.7830  146.5440 F   0  0  0  0  0  0  0  0  0  0  0  0
  188.5040  177.9120  142.2370 C   0  0  0  0  0  1  0  0  0  0  0  0
  188.3160  177.6610  143.7350 C   0  0  1  0  0  3  0  0  0  0  0  0
  186.8800  177.1830  144.0040 C   0  0  2  0  0  3  0  0  0  0  0  0
  185.8570  178.1800  143.5920 C   0  0  0  0  0  0  0  0  0  0  0  0
  186.3160  179.3580  142.9920 O   0  0  0  0  0  1  0  0  0  0  0  0
  186.1550  178.0170  145.1040 C   0  0  0  0  0  0  0  0  0  0  0  0
  184.7250  177.8910  145.6620 C   0  0  0  0  0  2  0  0  0  0  0  0
  185.6730  176.7930  145.9020 C   0  0  0  0  0  2  0  0  0  0  0  0
  184.7230  177.5890  143.0140 O   0  0  0  0  0  1  0  0  0  0  0  0
  192.2920  173.9470  140.6700 C   0  0  0  0  0  2  0  0  0  0  0  0
  191.5060  172.8970  140.0170 N   0  0  0  0  0  0  0  0  0  0  0  0
  191.3950  173.1800  138.5730 C   0  0  1  0  0  3  0  0  0  0  0  0
  192.4490  174.1490  138.0470 C   0  0  0  0  0  2  0  0  0  0  0  0
  192.6440  172.3570  136.4360 C   0  0  2  0  0  3  0  0  0  0  0  0
  192.5980  173.8630  136.5730 C   0  0  0  0  0  2  0  0  0  0  0  0
  192.3090  171.9490  135.0150 C   0  0  0  0  0  1  0  0  0  0  0  0
  191.4310  171.6430  137.5850 S   0  0  0  0  0  0  0  0  0  0  0  0
  187.8350  173.8220  142.0140 C   0  0  0  0  0  2  0  0  0  0  0  0
  188.9320  172.9530  142.6600 C   0  0  0  0  0  2  0  0  0  0  0  0
  188.3570  174.6390  140.8340 C   0  0  0  0  0  2  0  0  0  0  0  0
  190.1720  172.8340  140.6330 C   0  0  1  0  0  3  0  0  0  0  0  0
  190.2450  173.1940  142.0560 N   0  0  0  0  0  2  0  0  0  0  0  0
  189.1860  173.7670  139.8880 C   0  0  0  0  0  2  0  0  0  0  0  0
  1  8  1  0  0  0  0
  1  4  2  0  0  0  0
  2  8  2  0  0  0  0
  5 10  1  0  0  0  0
  6  2  1  0  0  0  0
  7 11  1  1  0  0  0
  7  1  1  0  0  0  0
  9  3  1  6  0  0  0
  9 10  1  0  0  0  0
  9  7  1  0  0  0  0
 10  6  2  0  0  0  0
 12 18  1  1  0  0  0
 13 16  1  0  0  0  0
 13 15  1  0  0  0  0
 14 12  1  0  0  0  0
 15 12  1  0  0  0  0
 16 11  1  1  0  0  0
 16 14  1  0  0  0  0
 18 17  1  0  0  0  0
 18 19  1  0  0  0  0
 20 18  1  0  0  0  0
 22 21  1  6  0  0  0
 22 15  1  0  0  0  0
 23 22  1  6  0  0  0
 23 26  1  0  0  0  0
 24 23  1  0  0  0  0
 24 26  1  0  0  0  0
 25 24  1  0  0  0  0
 26 27  1  0  0  0  0
 26 28  1  0  0  0  0
 27 28  1  0  0  0  0
 29 24  1  0  0  0  0
 30  5  1  0  0  0  0
 31 30  1  0  0  0  0
 32 31  1  1  0  0  0
 33 32  1  0  0  0  0
 34 36  1  6  0  0  0
 34 35  1  0  0  0  0
 34 37  1  0  0  0  0
 35 33  1  0  0  0  0
 37 32  1  0  0  0  0
 38 39  1  0  0  0  0
 40 38  1  0  0  0  0
 41 31  1  6  0  0  0
 41 42  1  0  0  0  0
 42 39  1  0  0  0  0
 43 41  1  0  0  0  0
 43 40  1  0  0  0  0
M  END
>  <MODEL>
6

>  <REMARK>
 VINA RESULT:      -6.8      2.706      5.875
  Name = 
  9 active torsions:
  status: ('A' for Active; 'I' for Inactive)
    1  A    between atoms: C_1  and  C_40
    2  A    between atoms: C_2  and  C_15
    3  A    between atoms: C_8  and  N_27
    4  A    between atoms: O_16  and  C_31
    5  A    between atoms: O_16  and  C_43
    6  A    between atoms: N_20  and  C_38
    7  A    between atoms: C_25  and  N_27
    8  A    between atoms: N_27  and  C_38
    9  A    between atoms: N_37  and  C_40
                            x       y       z     vdW  Elec       q    Type
                         _______ _______ _______ _____ _____    ______ ____

>  <TORSDO>
F 9

$$$$
=
 OpenBabel11062418463D

 43 48  0  0  1  0  0  0  0  0999 V2000
  197.2490  175.1450  141.9320 C   0  0  0  0  0  0  0  0  0  0  0  0
  197.4410  172.9210  140.8130 C   0  0  0  0  0  3  0  0  0  0  0  0
  194.5540  175.9500  139.6210 F   0  0  0  0  0  0  0  0  0  0  0  0
  197.9020  175.9430  142.7100 N   0  0  0  0  0  2  0  0  0  0  0  0
  193.9280  173.2040  139.5850 N   0  0  0  0  0  2  0  0  0  0  0  0
  196.1060  172.7640  140.3010 N   0  0  0  0  0  0  0  0  0  0  0  0
  195.8470  175.5130  141.5720 C   0  0  1  0  0  3  0  0  0  0  0  0
  197.8930  173.9380  141.4950 N   0  0  0  0  0  0  0  0  0  0  0  0
  195.5370  175.1280  140.1390 C   0  0  1  0  0  3  0  0  0  0  0  0
  195.2150  173.6630  140.0230 C   0  0  0  0  0  0  0  0  0  0  0  0
  194.9330  174.9500  142.4720 O   0  0  0  0  0  0  0  0  0  0  0  0
  193.3590  176.5870  145.1330 C   0  0  1  0  0  3  0  0  0  0  0  0
  192.7320  175.6490  143.0660 C   0  0  0  0  0  2  0  0  0  0  0  0
  194.6390  176.3490  144.3620 C   0  0  0  0  0  2  0  0  0  0  0  0
  192.2850  175.8760  144.4420 N   0  0  0  0  0  0  0  0  0  0  0  0
  194.1940  176.0300  142.9610 C   0  0  1  0  0  3  0  0  0  0  0  0
  193.1330  174.7790  146.6940 F   0  0  0  0  0  0  0  0  0  0  0  0
  193.4970  176.1110  146.5830 C   0  0  0  0  0  0  0  0  0  0  0  0
  192.6820  176.8730  147.4000 F   0  0  0  0  0  0  0  0  0  0  0  0
  194.8070  176.2640  147.0020 F   0  0  0  0  0  0  0  0  0  0  0  0
  190.7440  177.3860  143.1520 C   0  0  0  0  0  1  0  0  0  0  0  0
  191.0550  176.6930  144.4800 C   0  0  1  0  0  3  0  0  0  0  0  0
  189.8200  175.9150  144.9610 C   0  0  2  0  0  3  0  0  0  0  0  0
  189.1130  176.5950  146.0780 C   0  0  0  0  0  0  0  0  0  0  0  0
  189.6180  177.8320  146.4970 O   0  0  0  0  0  1  0  0  0  0  0  0
  189.9780  175.3530  146.4070 C   0  0  0  0  0  0  0  0  0  0  0  0
  188.9910  174.5420  147.2690 C   0  0  0  0  0  2  0  0  0  0  0  0
  189.5260  173.9270  146.0440 C   0  0  0  0  0  2  0  0  0  0  0  0
  187.7170  176.4960  145.9800 O   0  0  0  0  0  1  0  0  0  0  0  0
  192.7060  173.9900  139.6080 C   0  0  0  0  0  2  0  0  0  0  0  0
  191.5580  173.0970  139.7850 N   0  0  0  0  0  0  0  0  0  0  0  0
  190.8840  172.8870  138.4890 C   0  0  1  0  0  3  0  0  0  0  0  0
  191.3980  173.7850  137.3690 C   0  0  0  0  0  2  0  0  0  0  0  0
  191.4830  171.6240  136.2860 C   0  0  2  0  0  3  0  0  0  0  0  0
  191.0960  173.0720  136.0740 C   0  0  0  0  0  2  0  0  0  0  0  0
  190.7940  170.7410  135.2650 C   0  0  0  0  0  1  0  0  0  0  0  0
  190.9750  171.1390  137.9630 S   0  0  0  0  0  0  0  0  0  0  0  0
  188.2580  173.8600  142.4010 C   0  0  0  0  0  2  0  0  0  0  0  0
  188.4800  174.6510  141.0960 C   0  0  0  0  0  2  0  0  0  0  0  0
  189.0450  172.5520  142.4310 C   0  0  0  0  0  2  0  0  0  0  0  0
  190.6280  173.6870  140.7600 C   0  0  1  0  0  3  0  0  0  0  0  0
  189.3130  173.9110  140.1450 N   0  0  0  0  0  2  0  0  0  0  0  0
  190.4980  172.7770  142.0050 C   0  0  0  0  0  2  0  0  0  0  0  0
  1  4  2  0  0  0  0
  2  8  2  0  0  0  0
  5 30  1  0  0  0  0
  5 10  1  0  0  0  0
  6  2  1  0  0  0  0
  7  1  1  0  0  0  0
  7 11  1  1  0  0  0
  8  1  1  0  0  0  0
  9  3  1  1  0  0  0
  9  7  1  0  0  0  0
 10  9  1  0  0  0  0
 10  6  2  0  0  0  0
 12 18  1  1  0  0  0
 13 15  1  0  0  0  0
 14 12  1  0  0  0  0
 15 22  1  0  0  0  0
 15 12  1  0  0  0  0
 16 11  1  1  0  0  0
 16 13  1  0  0  0  0
 16 14  1  0  0  0  0
 18 17  1  0  0  0  0
 18 20  1  0  0  0  0
 18 19  1  0  0  0  0
 22 21  1  6  0  0  0
 23 22  1  1  0  0  0
 23 24  1  0  0  0  0
 23 26  1  0  0  0  0
 24 26  1  0  0  0  0
 24 25  1  0  0  0  0
 26 27  1  0  0  0  0
 28 26  1  0  0  0  0
 28 27  1  0  0  0  0
 29 24  1  0  0  0  0
 30 31  1  0  0  0  0
 32 31  1  1  0  0  0
 33 32  1  0  0  0  0
 34 36  1  6  0  0  0
 34 37  1  0  0  0  0
 35 34  1  0  0  0  0
 35 33  1  0  0  0  0
 37 32  1  0  0  0  0
 38 40  1  0  0  0  0
 39 38  1  0  0  0  0
 41 31  1  6  0  0  0
 41 43  1  0  0  0  0
 42 41  1  0  0  0  0
 42 39  1  0  0  0  0
 43 40  1  0  0  0  0
M  END
>  <MODEL>
7

>  <REMARK>
 VINA RESULT:      -6.7      3.253      6.480
  Name = 
  9 active torsions:
  status: ('A' for Active; 'I' for Inactive)
    1  A    between atoms: C_1  and  C_40
    2  A    between atoms: C_2  and  C_15
    3  A    between atoms: C_8  and  N_27
    4  A    between atoms: O_16  and  C_31
    5  A    between atoms: O_16  and  C_43
    6  A    between atoms: N_20  and  C_38
    7  A    between atoms: C_25  and  N_27
    8  A    between atoms: N_27  and  C_38
    9  A    between atoms: N_37  and  C_40
                            x       y       z     vdW  Elec       q    Type
                         _______ _______ _______ _____ _____    ______ ____

>  <TORSDO>
F 9

$$$$
=
 OpenBabel11062418463D

 43 48  0  0  1  0  0  0  0  0999 V2000
  189.4710  172.4600  139.2830 C   0  0  0  0  0  0  0  0  0  0  0  0
  191.6580  172.4780  138.0780 C   0  0  0  0  0  3  0  0  0  0  0  0
  191.3000  171.8430  142.3680 F   0  0  0  0  0  0  0  0  0  0  0  0
  188.2020  172.3490  139.0680 N   0  0  0  0  0  2  0  0  0  0  0  0
  193.4310  173.3110  141.2550 N   0  0  0  0  0  2  0  0  0  0  0  0
  192.5440  172.8740  139.1410 N   0  0  0  0  0  0  0  0  0  0  0  0
  189.9190  172.7800  140.6700 C   0  0  1  0  0  3  0  0  0  0  0  0
  190.3670  172.3100  138.1700 N   0  0  0  0  0  0  0  0  0  0  0  0
  191.2060  172.0520  141.0050 C   0  0  1  0  0  3  0  0  0  0  0  0
  192.4010  172.7590  140.4240 C   0  0  0  0  0  0  0  0  0  0  0  0
  190.0390  174.1640  140.8540 O   0  0  0  0  0  0  0  0  0  0  0  0
  187.8360  176.5700  142.1160 C   0  0  1  0  0  3  0  0  0  0  0  0
  189.5210  175.1560  142.9590 C   0  0  0  0  0  2  0  0  0  0  0  0
  188.1320  175.5570  141.0320 C   0  0  0  0  0  2  0  0  0  0  0  0
  188.8980  176.4720  143.1160 N   0  0  0  0  0  0  0  0  0  0  0  0
  188.9830  174.5110  141.6980 C   0  0  1  0  0  3  0  0  0  0  0  0
  186.7930  178.7290  142.2070 F   0  0  0  0  0  0  0  0  0  0  0  0
  187.7490  177.9850  141.5350 C   0  0  0  0  0  0  0  0  0  0  0  0
  187.4130  177.9170  140.1960 F   0  0  0  0  0  0  0  0  0  0  0  0
  188.9790  178.6110  141.6490 F   0  0  0  0  0  0  0  0  0  0  0  0
  186.7870  176.5960  144.4750 C   0  0  0  0  0  1  0  0  0  0  0  0
  188.3160  176.6340  144.4640 C   0  0  1  0  0  3  0  0  0  0  0  0
  188.8670  175.6310  145.4910 C   0  0  2  0  0  3  0  0  0  0  0  0
  188.5620  176.0200  146.8930 C   0  0  0  0  0  0  0  0  0  0  0  0
  187.8010  177.1790  147.0850 O   0  0  0  0  0  1  0  0  0  0  0  0
  190.0070  176.2250  146.3730 C   0  0  0  0  0  0  0  0  0  0  0  0
  190.8140  175.5810  147.5170 C   0  0  0  0  0  2  0  0  0  0  0  0
  190.9700  175.0440  146.1570 C   0  0  0  0  0  2  0  0  0  0  0  0
  188.2380  174.9220  147.7040 O   0  0  0  0  0  1  0  0  0  0  0  0
  193.2860  173.6400  142.6620 C   0  0  0  0  0  2  0  0  0  0  0  0
  194.6120  173.8110  143.2610 N   0  0  0  0  0  0  0  0  0  0  0  0
  194.8680  172.7250  144.2270 C   0  0  1  0  0  3  0  0  0  0  0  0
  193.6170  171.9620  144.6500 C   0  0  0  0  0  2  0  0  0  0  0  0
  195.0830  170.1300  144.0640 C   0  0  2  0  0  3  0  0  0  0  0  0
  194.0770  170.5950  145.0950 C   0  0  0  0  0  2  0  0  0  0  0  0
  195.9500  169.0280  144.6370 C   0  0  0  0  0  1  0  0  0  0  0  0
  196.1170  171.5490  143.5960 S   0  0  0  0  0  0  0  0  0  0  0  0
  194.1370  177.0940  145.9660 C   0  0  0  0  0  2  0  0  0  0  0  0
  193.4730  177.0640  144.5740 C   0  0  0  0  0  2  0  0  0  0  0  0
  194.5900  175.7100  146.4250 C   0  0  0  0  0  2  0  0  0  0  0  0
  194.6800  175.1200  143.9280 C   0  0  1  0  0  3  0  0  0  0  0  0
  193.3370  175.6990  144.0640 N   0  0  0  0  0  2  0  0  0  0  0  0
  195.3570  174.9870  145.3140 C   0  0  0  0  0  2  0  0  0  0  0  0
  1  7  1  0  0  0  0
  2  8  2  0  0  0  0
  2  6  1  0  0  0  0
  4  1  2  0  0  0  0
  5 30  1  0  0  0  0
  6 10  2  0  0  0  0
  7 11  1  6  0  0  0
  7  9  1  0  0  0  0
  8  1  1  0  0  0  0
  9  3  1  1  0  0  0
 10  9  1  0  0  0  0
 10  5  1  0  0  0  0
 12 18  1  6  0  0  0
 12 15  1  0  0  0  0
 13 15  1  0  0  0  0
 14 16  1  0  0  0  0
 14 12  1  0  0  0  0
 15 22  1  0  0  0  0
 16 11  1  6  0  0  0
 16 13  1  0  0  0  0
 18 20  1  0  0  0  0
 18 17  1  0  0  0  0
 19 18  1  0  0  0  0
 22 21  1  6  0  0  0
 23 22  1  6  0  0  0
 23 26  1  0  0  0  0
 23 24  1  0  0  0  0
 24 25  1  0  0  0  0
 24 29  1  0  0  0  0
 26 24  1  0  0  0  0
 26 27  1  0  0  0  0
 28 26  1  0  0  0  0
 28 27  1  0  0  0  0
 30 31  1  0  0  0  0
 32 31  1  6  0  0  0
 32 33  1  0  0  0  0
 33 35  1  0  0  0  0
 34 36  1  1  0  0  0
 34 35  1  0  0  0  0
 37 34  1  0  0  0  0
 37 32  1  0  0  0  0
 38 40  1  0  0  0  0
 39 38  1  0  0  0  0
 41 31  1  1  0  0  0
 41 42  1  0  0  0  0
 41 43  1  0  0  0  0
 42 39  1  0  0  0  0
 43 40  1  0  0  0  0
M  END
>  <MODEL>
8

>  <REMARK>
 VINA RESULT:      -6.7      2.511      3.802
  Name = 
  9 active torsions:
  status: ('A' for Active; 'I' for Inactive)
    1  A    between atoms: C_1  and  C_40
    2  A    between atoms: C_2  and  C_15
    3  A    between atoms: C_8  and  N_27
    4  A    between atoms: O_16  and  C_31
    5  A    between atoms: O_16  and  C_43
    6  A    between atoms: N_20  and  C_38
    7  A    between atoms: C_25  and  N_27
    8  A    between atoms: N_27  and  C_38
    9  A    between atoms: N_37  and  C_40
                            x       y       z     vdW  Elec       q    Type
                         _______ _______ _______ _____ _____    ______ ____

>  <TORSDO>
F 9

$$$$
=
 OpenBabel11062418463D

 43 48  0  0  1  0  0  0  0  0999 V2000
  194.5890  174.3960  144.7250 C   0  0  0  0  0  0  0  0  0  0  0  0
  194.6910  171.9090  144.9150 C   0  0  0  0  0  3  0  0  0  0  0  0
  192.6390  173.9740  141.6810 F   0  0  0  0  0  0  0  0  0  0  0  0
  195.1630  175.4660  145.1670 N   0  0  0  0  0  2  0  0  0  0  0  0
  191.6300  171.5960  142.8020 N   0  0  0  0  0  2  0  0  0  0  0  0
  193.4980  171.5380  144.2010 N   0  0  0  0  0  0  0  0  0  0  0  0
  193.3770  174.5570  143.8680 C   0  0  1  0  0  3  0  0  0  0  0  0
  195.1260  173.1230  145.1160 N   0  0  0  0  0  0  0  0  0  0  0  0
  193.3440  173.5070  142.7750 C   0  0  1  0  0  3  0  0  0  0  0  0
  192.8390  172.1900  143.2950 C   0  0  0  0  0  0  0  0  0  0  0  0
  192.2090  174.5410  144.6420 O   0  0  0  0  0  0  0  0  0  0  0  0
  190.0640  177.1020  145.6790 C   0  0  1  0  0  3  0  0  0  0  0  0
  190.2000  175.5790  143.8870 C   0  0  0  0  0  2  0  0  0  0  0  0
  191.4560  176.5120  145.7190 C   0  0  0  0  0  2  0  0  0  0  0  0
  189.2650  176.2920  144.7600 N   0  0  0  0  0  0  0  0  0  0  0  0
  191.6060  175.7790  144.4140 C   0  0  1  0  0  3  0  0  0  0  0  0
  188.6090  176.0370  147.2630 F   0  0  0  0  0  0  0  0  0  0  0  0
  189.4400  177.1310  147.0780 C   0  0  0  0  0  0  0  0  0  0  0  0
  188.7050  178.2910  147.2340 F   0  0  0  0  0  0  0  0  0  0  0  0
  190.4410  177.1110  148.0340 F   0  0  0  0  0  0  0  0  0  0  0  0
  188.6490  177.1510  142.4800 C   0  0  0  0  0  1  0  0  0  0  0  0
  188.3710  177.1740  143.9840 C   0  0  1  0  0  3  0  0  0  0  0  0
  186.8780  176.9070  144.2390 C   0  0  2  0  0  3  0  0  0  0  0  0
  186.0070  178.0070  143.7460 C   0  0  0  0  0  0  0  0  0  0  0  0
  186.6320  179.0770  143.0960 O   0  0  0  0  0  1  0  0  0  0  0  0
  186.2500  177.8930  145.2720 C   0  0  0  0  0  0  0  0  0  0  0  0
  184.8050  177.9900  145.7970 C   0  0  0  0  0  2  0  0  0  0  0  0
  185.5910  176.7910  146.1210 C   0  0  0  0  0  2  0  0  0  0  0  0
  184.8150  177.5400  143.1700 O   0  0  0  0  0  1  0  0  0  0  0  0
  190.5680  172.3060  142.1120 C   0  0  0  0  0  2  0  0  0  0  0  0
  190.2420  171.6040  140.8680 N   0  0  0  0  0  0  0  0  0  0  0  0
  191.3960  170.7930  140.4350 C   0  0  1  0  0  3  0  0  0  0  0  0
  191.0260  169.3970  139.9460 C   0  0  0  0  0  2  0  0  0  0  0  0
  192.4310  170.1500  138.1280 C   0  0  2  0  0  3  0  0  0  0  0  0
  192.1300  168.9610  139.0150 C   0  0  0  0  0  2  0  0  0  0  0  0
  193.8050  170.0060  137.5050 C   0  0  0  0  0  1  0  0  0  0  0  0
  192.3730  171.6520  139.1500 S   0  0  0  0  0  0  0  0  0  0  0  0
  188.1910  174.4270  138.3890 C   0  0  0  0  0  2  0  0  0  0  0  0
  188.5760  173.0170  137.8960 C   0  0  0  0  0  2  0  0  0  0  0  0
  188.2210  174.5400  139.9120 C   0  0  0  0  0  2  0  0  0  0  0  0
  189.8860  172.5870  139.8340 C   0  0  1  0  0  3  0  0  0  0  0  0
  188.7780  172.0860  139.0080 N   0  0  0  0  0  2  0  0  0  0  0  0
  189.5110  173.9430  140.4800 C   0  0  0  0  0  2  0  0  0  0  0  0
  1  8  1  0  0  0  0
  1  4  2  0  0  0  0
  2  8  2  0  0  0  0
  5 10  1  0  0  0  0
  6  2  1  0  0  0  0
  7 11  1  1  0  0  0
  7  1  1  0  0  0  0
  9  3  1  6  0  0  0
  9 10  1  0  0  0  0
  9  7  1  0  0  0  0
 10  6  2  0  0  0  0
 12 14  1  0  0  0  0
 12 18  1  1  0  0  0
 13 16  1  0  0  0  0
 13 15  1  0  0  0  0
 15 12  1  0  0  0  0
 16 11  1  1  0  0  0
 16 14  1  0  0  0  0
 18 19  1  0  0  0  0
 18 17  1  0  0  0  0
 18 20  1  0  0  0  0
 22 21  1  6  0  0  0
 22 15  1  0  0  0  0
 23 22  1  6  0  0  0
 23 26  1  0  0  0  0
 24 23  1  0  0  0  0
 24 26  1  0  0  0  0
 25 24  1  0  0  0  0
 26 27  1  0  0  0  0
 26 28  1  0  0  0  0
 27 28  1  0  0  0  0
 29 24  1  0  0  0  0
 30  5  1  0  0  0  0
 31 30  1  0  0  0  0
 32 31  1  6  0  0  0
 33 32  1  0  0  0  0
 34 36  1  1  0  0  0
 34 35  1  0  0  0  0
 34 37  1  0  0  0  0
 35 33  1  0  0  0  0
 37 32  1  0  0  0  0
 38 40  1  0  0  0  0
 39 38  1  0  0  0  0
 39 42  1  0  0  0  0
 40 43  1  0  0  0  0
 41 43  1  0  0  0  0
 41 31  1  1  0  0  0
 42 41  1  0  0  0  0
M  END
>  <MODEL>
9

>  <REMARK>
 VINA RESULT:      -6.7      2.403      5.539
  Name = 
  9 active torsions:
  status: ('A' for Active; 'I' for Inactive)
    1  A    between atoms: C_1  and  C_40
    2  A    between atoms: C_2  and  C_15
    3  A    between atoms: C_8  and  N_27
    4  A    between atoms: O_16  and  C_31
    5  A    between atoms: O_16  and  C_43
    6  A    between atoms: N_20  and  C_38
    7  A    between atoms: C_25  and  N_27
    8  A    between atoms: N_27  and  C_38
    9  A    between atoms: N_37  and  C_40
                            x       y       z     vdW  Elec       q    Type
                         _______ _______ _______ _____ _____    ______ ____

>  <TORSDO>
F 9

$$$$
