=
 OpenBabel11062419123D

 54 58  0  0  1  0  0  0  0  0999 V2000
  188.6160  176.5680  144.6270 C   0  0  2  0  0  0  0  0  0  0  0  0
  192.2900  173.6950  141.4090 C   0  0  1  0  0  3  0  0  0  0  0  0
  194.8910  172.6620  137.8710 C   0  0  0  0  0  0  0  0  0  0  0  0
  191.1580  176.6230  144.6100 O   0  0  0  0  0  0  0  0  0  0  0  0
  188.6050  177.8080  143.7500 C   0  0  0  0  0  1  0  0  0  0  0  0
  195.1250  173.4410  139.1400 C   0  0  0  0  0  2  0  0  0  0  0  0
  192.7830  173.3340  140.0070 C   0  0  0  0  0  2  0  0  0  0  0  0
  194.0280  173.0690  136.9870 N   0  0  0  0  0  0  0  0  0  0  0  0
  189.2270  175.2730  144.0760 C   0  0  1  0  0  0  0  0  0  0  0  0
  190.8140  173.3080  141.4590 C   0  0  0  0  0  2  0  0  0  0  0  0
  192.1720  175.6360  144.7860 C   0  0  1  0  0  3  0  0  0  0  0  0
  189.9970  174.2990  140.7600 N   0  0  0  0  0  2  0  0  0  0  0  0
  195.9730  168.2770  140.4870 C   0  0  0  0  0  3  0  0  0  0  0  0
  189.3610  173.8410  144.6230 C   0  0  0  0  0  2  0  0  0  0  0  0
  195.5780  171.4290  137.6410 N   0  0  0  0  0  2  0  0  0  0  0  0
  193.0400  172.9320  142.5510 C   0  0  2  0  0  3  0  0  0  0  0  0
  196.2390  168.4930  142.8070 O   0  0  0  0  0  1  0  0  0  0  0  0
  187.9400  173.9450  142.0420 C   0  0  0  0  0  1  0  0  0  0  0  0
  187.4910  176.3520  145.4240 O   0  0  0  0  0  1  0  0  0  0  0  0
  193.0620  173.5550  143.8340 O   0  0  0  0  0  0  0  0  0  0  0  0
  189.8100  175.4560  142.7950 O   0  0  0  0  0  0  0  0  0  0  0  0
  197.4340  171.7400  139.0340 O   0  0  0  0  0  0  0  0  0  0  0  0
  190.8320  173.4240  144.8790 C   0  0  2  0  0  3  0  0  0  0  0  0
  196.6780  170.9420  138.4210 C   0  0  0  0  0  0  0  0  0  0  0  0
  195.9880  169.0610  141.5630 C   0  0  0  0  0  0  0  0  0  0  0  0
  194.4620  172.5080  142.1570 C   0  0  2  0  0  3  0  0  0  0  0  0
  191.8750  174.2680  144.0860 C   0  0  1  0  0  3  0  0  0  0  0  0
  197.2630  168.9110  137.1440 C   0  0  0  0  0  1  0  0  0  0  0  0
  193.4910  176.2250  144.3160 C   0  0  0  0  0  1  0  0  0  0  0  0
  190.9610  171.9270  144.6550 C   0  0  0  0  0  1  0  0  0  0  0  0
  195.7220  168.7590  139.0890 C   0  0  0  0  0  2  0  0  0  0  0  0
  195.7840  170.5350  141.4580 C   0  0  0  0  0  2  0  0  0  0  0  0
  194.7020  171.0250  142.4060 C   0  0  0  0  0  2  0  0  0  0  0  0
  193.1390  174.2260  137.1350 C   0  0  0  0  0  2  0  0  0  0  0  0
  193.4750  175.0980  138.3510 C   0  0  0  0  0  2  0  0  0  0  0  0
  189.9620  176.1260  145.1640 C   0  0  2  0  0  0  0  0  0  0  0  0
  193.9050  174.2540  139.5430 C   0  0  2  0  0  3  0  0  0  0  0  0
  189.0620  174.9400  141.6940 C   0  0  1  0  0  0  0  0  0  0  0  0
  196.9390  169.4740  138.5150 C   0  0  2  0  0  3  0  0  0  0  0  0
  195.3780  174.7440  142.2780 O   0  0  0  0  0  1  0  0  0  0  0  0
  195.5620  173.4270  142.7080 C   0  0  1  0  0  3  0  0  0  0  0  0
  195.5820  173.3800  144.1290 O   0  0  0  0  0  0  0  0  0  0  0  0
  196.7700  173.2940  144.8620 C   0  0  0  0  0  0  0  0  0  0  0  0
  197.7110  174.0900  144.6050 O   0  0  0  0  0  0  0  0  0  0  0  0
  196.9290  172.3150  145.9800 C   0  0  0  0  0  2  0  0  0  0  0  0
  196.9680  170.9070  145.4230 C   0  0  0  0  0  1  0  0  0  0  0  0
  190.0000  175.8350  146.6950 C   0  0  2  0  0  3  0  0  0  0  0  0
  188.8330  175.2420  147.1840 O   0  0  0  0  0  1  0  0  0  0  0  0
  190.3060  177.1070  147.4670 C   0  0  0  0  0  2  0  0  0  0  0  0
  191.5430  176.9170  148.3230 C   0  0  0  0  0  1  0  0  0  0  0  0
  188.4280  176.1280  140.9750 C   0  0  0  0  0  2  0  0  0  0  0  0
  187.0500  176.1830  141.2100 O   0  0  0  0  0  0  0  0  0  0  0  0
  185.9940  178.2490  141.2960 N   0  0  0  0  0  1  0  0  0  0  0  0
  186.6020  177.2530  140.4350 C   0  0  0  0  0  2  0  0  0  0  0  0
  1  5  1  6  0  0  0
  1 36  1  0  0  0  0
  1 19  1  0  0  0  0
  2  7  1  6  0  0  0
  2 10  1  0  0  0  0
  2 16  1  0  0  0  0
  3  6  1  0  0  0  0
  4 11  1  0  0  0  0
  4 36  1  0  0  0  0
  6 37  1  0  0  0  0
  8 34  1  0  0  0  0
  8  3  2  0  0  0  0
  9 14  1  1  0  0  0
  9  1  1  0  0  0  0
  9 36  1  0  0  0  0
 11 29  1  6  0  0  0
 12 10  1  0  0  0  0
 12 38  1  0  0  0  0
 13 25  2  0  0  0  0
 14 23  1  0  0  0  0
 15  3  1  0  0  0  0
 15 24  1  0  0  0  0
 16 20  1  1  0  0  0
 21  9  1  0  0  0  0
 23 30  1  6  0  0  0
 24 39  1  0  0  0  0
 24 22  2  0  0  0  0
 25 17  1  0  0  0  0
 26 33  1  0  0  0  0
 26 16  1  0  0  0  0
 26 41  1  1  0  0  0
 27 20  1  1  0  0  0
 27 11  1  0  0  0  0
 27 23  1  0  0  0  0
 31 13  1  0  0  0  0
 32 25  1  0  0  0  0
 32 33  1  0  0  0  0
 34 35  1  0  0  0  0
 36 47  1  1  0  0  0
 37 35  1  6  0  0  0
 37  7  1  0  0  0  0
 38 18  1  1  0  0  0
 38 21  1  0  0  0  0
 39 28  1  6  0  0  0
 39 31  1  0  0  0  0
 41 40  1  1  0  0  0
 41 42  1  0  0  0  0
 42 43  1  0  0  0  0
 43 45  1  0  0  0  0
 44 43  2  0  0  0  0
 46 45  1  0  0  0  0
 47 48  1  1  0  0  0
 47 49  1  0  0  0  0
 49 50  1  0  0  0  0
 51 52  1  0  0  0  0
 51 38  1  0  0  0  0
 54 52  1  0  0  0  0
 54 53  1  0  0  0  0
M  END
>  <MODEL>
1

>  <REMARK>
 VINA RESULT:      -6.2      0.000      0.000
  Name = 
  9 active torsions:
  status: ('A' for Active; 'I' for Inactive)
    1  A    between atoms: C_3  and  O_29
    2  A    between atoms: C_3  and  C_51
    3  A    between atoms: O_6  and  C_15
    4  A    between atoms: O_6  and  C_54
    5  A    between atoms: C_8  and  C_23
    6  A    between atoms: C_15  and  C_17
    7  A    between atoms: C_23  and  C_49
    8  A    between atoms: O_29  and  C_45
    9  A    between atoms: C_37  and  C_54
                            x       y       z     vdW  Elec       q    Type
                         _______ _______ _______ _____ _____    ______ ____

>  <TORSDO>
F 9

$$$$
=
 OpenBabel11062419123D

 54 58  0  0  1  0  0  0  0  0999 V2000
  189.8930  176.0750  144.6900 C   0  0  2  0  0  0  0  0  0  0  0  0
  192.3550  173.4080  140.3370 C   0  0  1  0  0  3  0  0  0  0  0  0
  193.6110  172.5240  136.0960 C   0  0  0  0  0  0  0  0  0  0  0  0
  192.2650  176.2630  143.7930 O   0  0  0  0  0  0  0  0  0  0  0  0
  189.5180  177.3150  143.8970 C   0  0  0  0  0  1  0  0  0  0  0  0
  194.2330  173.3100  137.2220 C   0  0  0  0  0  2  0  0  0  0  0  0
  192.3460  173.0780  138.8450 C   0  0  0  0  0  2  0  0  0  0  0  0
  192.4760  172.8870  135.5750 N   0  0  0  0  0  0  0  0  0  0  0  0
  190.3370  174.8150  143.9340 C   0  0  1  0  0  0  0  0  0  0  0  0
  191.0080  172.9440  140.8880 C   0  0  0  0  0  2  0  0  0  0  0  0
  193.3230  175.3300  143.5860 C   0  0  1  0  0  3  0  0  0  0  0  0
  189.9520  173.8930  140.5370 N   0  0  0  0  0  2  0  0  0  0  0  0
  195.7450  168.1940  138.0820 C   0  0  0  0  0  3  0  0  0  0  0  0
  190.7210  173.3910  144.3700 C   0  0  0  0  0  2  0  0  0  0  0  0
  194.2350  171.3290  135.6170 N   0  0  0  0  0  2  0  0  0  0  0  0
  193.4910  172.6830  141.1330 C   0  0  2  0  0  3  0  0  0  0  0  0
  196.7890  168.4180  140.1710 O   0  0  0  0  0  1  0  0  0  0  0  0
  188.4890  173.4270  142.4450 C   0  0  0  0  0  1  0  0  0  0  0  0
  189.1270  175.7980  145.8220 O   0  0  0  0  0  1  0  0  0  0  0  0
  193.9260  173.3020  142.3410 O   0  0  0  0  0  0  0  0  0  0  0  0
  190.4280  175.0330  142.5340 O   0  0  0  0  0  0  0  0  0  0  0  0
  196.4410  171.7330  136.2860 O   0  0  0  0  0  0  0  0  0  0  0  0
  192.2070  173.0510  144.0910 C   0  0  2  0  0  3  0  0  0  0  0  0
  195.5590  170.8980  135.9570 C   0  0  0  0  0  0  0  0  0  0  0  0
  196.0960  168.9750  139.1030 C   0  0  0  0  0  0  0  0  0  0  0  0
  194.7060  172.3350  140.2610 C   0  0  2  0  0  3  0  0  0  0  0  0
  192.8680  173.9510  143.0040 C   0  0  1  0  0  3  0  0  0  0  0  0
  195.7610  168.9050  134.5140 C   0  0  0  0  0  1  0  0  0  0  0  0
  194.3670  175.9890  142.7000 C   0  0  0  0  0  1  0  0  0  0  0  0
  192.3230  171.5630  143.8050 C   0  0  0  0  0  1  0  0  0  0  0  0
  195.0010  168.6660  136.8690 C   0  0  0  0  0  2  0  0  0  0  0  0
  195.7960  170.4370  139.1060 C   0  0  0  0  0  2  0  0  0  0  0  0
  195.0890  170.8660  140.3800 C   0  0  0  0  0  2  0  0  0  0  0  0
  191.6390  173.9960  136.0470 C   0  0  0  0  0  2  0  0  0  0  0  0
  192.3340  174.8800  137.0880 C   0  0  0  0  0  2  0  0  0  0  0  0
  191.3610  175.7030  144.7170 C   0  0  2  0  0  0  0  0  0  0  0  0
  193.1910  174.0570  138.0400 C   0  0  2  0  0  3  0  0  0  0  0  0
  189.3710  174.4810  141.7500 C   0  0  1  0  0  0  0  0  0  0  0  0
  195.9070  169.4460  135.9230 C   0  0  2  0  0  3  0  0  0  0  0  0
  196.9320  172.7180  141.1270 O   0  0  0  0  0  1  0  0  0  0  0  0
  195.8830  173.3090  140.4160 C   0  0  1  0  0  3  0  0  0  0  0  0
  196.3420  173.7380  139.1410 O   0  0  0  0  0  0  0  0  0  0  0  0
  197.1120  174.8930  138.9690 C   0  0  0  0  0  0  0  0  0  0  0  0
  197.1510  175.7510  139.8890 O   0  0  0  0  0  0  0  0  0  0  0  0
  197.9330  175.1070  137.7390 C   0  0  0  0  0  2  0  0  0  0  0  0
  197.0460  175.5980  136.6130 C   0  0  0  0  0  1  0  0  0  0  0  0
  191.9430  175.4100  146.1340 C   0  0  2  0  0  3  0  0  0  0  0  0
  191.0190  174.8420  147.0150 O   0  0  0  0  0  1  0  0  0  0  0  0
  192.5330  176.6740  146.7340 C   0  0  0  0  0  2  0  0  0  0  0  0
  194.0380  176.5430  146.8610 C   0  0  0  0  0  1  0  0  0  0  0  0
  188.4690  175.6360  141.3210 C   0  0  0  0  0  2  0  0  0  0  0  0
  187.2260  175.5710  141.9600 O   0  0  0  0  0  0  0  0  0  0  0  0
  186.7450  177.2390  140.4170 N   0  0  0  0  0  1  0  0  0  0  0  0
  186.6860  176.8490  141.8130 C   0  0  0  0  0  2  0  0  0  0  0  0
  1  5  1  6  0  0  0
  1 36  1  0  0  0  0
  1 19  1  0  0  0  0
  2  7  1  6  0  0  0
  2 10  1  0  0  0  0
  2 16  1  0  0  0  0
  3  6  1  0  0  0  0
  4 36  1  0  0  0  0
  6 37  1  0  0  0  0
  8 34  1  0  0  0  0
  8  3  2  0  0  0  0
  9 14  1  1  0  0  0
  9  1  1  0  0  0  0
  9 36  1  0  0  0  0
 11 29  1  6  0  0  0
 11  4  1  0  0  0  0
 12 10  1  0  0  0  0
 12 38  1  0  0  0  0
 13 25  2  0  0  0  0
 15 24  1  0  0  0  0
 15  3  1  0  0  0  0
 16 20  1  1  0  0  0
 21  9  1  0  0  0  0
 23 30  1  6  0  0  0
 23 14  1  0  0  0  0
 24 22  2  0  0  0  0
 25 32  1  0  0  0  0
 25 17  1  0  0  0  0
 26 33  1  0  0  0  0
 26 41  1  1  0  0  0
 26 16  1  0  0  0  0
 27 20  1  1  0  0  0
 27 11  1  0  0  0  0
 27 23  1  0  0  0  0
 31 13  1  0  0  0  0
 32 33  1  0  0  0  0
 34 35  1  0  0  0  0
 36 47  1  1  0  0  0
 37 35  1  6  0  0  0
 37  7  1  0  0  0  0
 38 18  1  1  0  0  0
 38 21  1  0  0  0  0
 39 28  1  6  0  0  0
 39 24  1  0  0  0  0
 39 31  1  0  0  0  0
 41 40  1  6  0  0  0
 42 41  1  0  0  0  0
 43 42  1  0  0  0  0
 43 44  2  0  0  0  0
 45 43  1  0  0  0  0
 46 45  1  0  0  0  0
 47 49  1  0  0  0  0
 47 48  1  1  0  0  0
 49 50  1  0  0  0  0
 51 38  1  0  0  0  0
 51 52  1  0  0  0  0
 53 54  1  0  0  0  0
 54 52  1  0  0  0  0
M  END
>  <MODEL>
2

>  <REMARK>
 VINA RESULT:      -6.1      1.926      2.872
  Name = 
  9 active torsions:
  status: ('A' for Active; 'I' for Inactive)
    1  A    between atoms: C_3  and  O_29
    2  A    between atoms: C_3  and  C_51
    3  A    between atoms: O_6  and  C_15
    4  A    between atoms: O_6  and  C_54
    5  A    between atoms: C_8  and  C_23
    6  A    between atoms: C_15  and  C_17
    7  A    between atoms: C_23  and  C_49
    8  A    between atoms: O_29  and  C_45
    9  A    between atoms: C_37  and  C_54
                            x       y       z     vdW  Elec       q    Type
                         _______ _______ _______ _____ _____    ______ ____

>  <TORSDO>
F 9

$$$$
=
 OpenBabel11062419123D

 54 58  0  0  1  0  0  0  0  0999 V2000
  190.1600  176.8770  146.8820 C   0  0  2  0  0  0  0  0  0  0  0  0
  192.2270  174.5660  142.1370 C   0  0  1  0  0  3  0  0  0  0  0  0
  195.1000  172.4440  139.3830 C   0  0  0  0  0  0  0  0  0  0  0  0
  189.8210  174.5470  145.9210 O   0  0  0  0  0  0  0  0  0  0  0  0
  191.2450  176.3220  147.7890 C   0  0  0  0  0  1  0  0  0  0  0  0
  193.9780  171.9770  140.2730 C   0  0  0  0  0  2  0  0  0  0  0  0
  193.4520  174.1930  141.3020 C   0  0  0  0  0  2  0  0  0  0  0  0
  196.1590  173.0100  139.8840 N   0  0  0  0  0  0  0  0  0  0  0  0
  190.3670  176.8330  145.3610 C   0  0  1  0  0  0  0  0  0  0  0  0
  192.3190  176.0690  142.3890 C   0  0  0  0  0  2  0  0  0  0  0  0
  189.3220  174.0480  144.6820 C   0  0  1  0  0  3  0  0  0  0  0  0
  193.2990  176.3600  143.4340 N   0  0  0  0  0  2  0  0  0  0  0  0
  191.5880  173.4340  135.6510 C   0  0  0  0  0  3  0  0  0  0  0  0
  189.5510  177.3380  144.1600 C   0  0  0  0  0  2  0  0  0  0  0  0
  194.9960  172.3220  137.9620 N   0  0  0  0  0  2  0  0  0  0  0  0
  190.8670  174.2660  141.4230 C   0  0  2  0  0  3  0  0  0  0  0  0
  189.3340  173.2300  136.2680 O   0  0  0  0  0  1  0  0  0  0  0  0
  192.2840  178.4430  144.2240 C   0  0  0  0  0  1  0  0  0  0  0  0
  189.5080  178.0310  147.3150 O   0  0  0  0  0  1  0  0  0  0  0  0
  189.7320  174.0570  142.2620 O   0  0  0  0  0  0  0  0  0  0  0  0
  191.5630  176.1570  145.0020 O   0  0  0  0  0  0  0  0  0  0  0  0
  193.4330  170.5850  137.8230 O   0  0  0  0  0  0  0  0  0  0  0  0
  189.0130  176.1920  143.2660 C   0  0  2  0  0  3  0  0  0  0  0  0
  193.9890  171.5700  137.2710 C   0  0  0  0  0  0  0  0  0  0  0  0
  190.6850  173.1520  136.5880 C   0  0  0  0  0  0  0  0  0  0  0  0
  190.9670  173.1320  140.3940 C   0  0  2  0  0  3  0  0  0  0  0  0
  189.7910  174.8500  143.4230 C   0  0  1  0  0  3  0  0  0  0  0  0
  194.7700  171.8170  134.9420 C   0  0  0  0  0  1  0  0  0  0  0  0
  189.6980  172.5810  144.5780 C   0  0  0  0  0  1  0  0  0  0  0  0
  188.9350  176.6870  141.8310 C   0  0  0  0  0  1  0  0  0  0  0  0
  193.0720  173.3850  135.8590 C   0  0  0  0  0  2  0  0  0  0  0  0
  191.0910  172.7170  137.9570 C   0  0  0  0  0  2  0  0  0  0  0  0
  190.4150  173.5460  139.0360 C   0  0  0  0  0  2  0  0  0  0  0  0
  196.3580  173.3410  141.2990 C   0  0  0  0  0  2  0  0  0  0  0  0
  195.2890  172.7390  142.2190 C   0  0  0  0  0  2  0  0  0  0  0  0
  189.3630  175.8700  146.0790 C   0  0  2  0  0  0  0  0  0  0  0  0
  193.9120  172.7660  141.5710 C   0  0  2  0  0  3  0  0  0  0  0  0
  192.6450  176.9910  144.5870 C   0  0  1  0  0  0  0  0  0  0  0  0
  193.5880  171.9510  135.8840 C   0  0  2  0  0  3  0  0  0  0  0  0
  189.0800  171.6370  140.6310 O   0  0  0  0  0  1  0  0  0  0  0  0
  190.4430  171.7810  140.9030 C   0  0  1  0  0  3  0  0  0  0  0  0
  191.1710  170.7120  140.3110 O   0  0  0  0  0  0  0  0  0  0  0  0
  190.8160  169.3720  140.4880 C   0  0  0  0  0  0  0  0  0  0  0  0
  190.6660  168.9230  141.6540 O   0  0  0  0  0  0  0  0  0  0  0  0
  190.5560  168.4730  139.3230 C   0  0  0  0  0  2  0  0  0  0  0  0
  190.0670  169.2920  138.1460 C   0  0  0  0  0  1  0  0  0  0  0  0
  187.8150  176.0400  146.1550 C   0  0  2  0  0  3  0  0  0  0  0  0
  187.3470  177.2060  145.5430 O   0  0  0  0  0  1  0  0  0  0  0  0
  187.3470  175.9800  147.5980 C   0  0  0  0  0  2  0  0  0  0  0  0
  186.2180  176.9660  147.8270 C   0  0  0  0  0  1  0  0  0  0  0  0
  193.6560  177.0320  145.7300 C   0  0  0  0  0  2  0  0  0  0  0  0
  194.8660  176.4390  145.3560 O   0  0  0  0  0  0  0  0  0  0  0  0
  196.0670  174.4790  145.6890 N   0  0  0  0  0  1  0  0  0  0  0  0
  194.9580  175.2930  146.1480 C   0  0  0  0  0  2  0  0  0  0  0  0
  1 19  1  0  0  0  0
  1  5  1  1  0  0  0
  2  7  1  6  0  0  0
  2 10  1  0  0  0  0
  3  8  2  0  0  0  0
  3  6  1  0  0  0  0
  4 36  1  0  0  0  0
  7 37  1  0  0  0  0
  8 34  1  0  0  0  0
  9 14  1  6  0  0  0
  9 36  1  0  0  0  0
  9  1  1  0  0  0  0
 10 12  1  0  0  0  0
 11 29  1  6  0  0  0
 11  4  1  0  0  0  0
 12 38  1  0  0  0  0
 13 31  1  0  0  0  0
 13 25  2  0  0  0  0
 15  3  1  0  0  0  0
 16  2  1  0  0  0  0
 16 20  1  1  0  0  0
 17 25  1  0  0  0  0
 21  9  1  0  0  0  0
 23 30  1  6  0  0  0
 23 27  1  0  0  0  0
 23 14  1  0  0  0  0
 24 22  2  0  0  0  0
 24 15  1  0  0  0  0
 25 32  1  0  0  0  0
 26 41  1  1  0  0  0
 26 16  1  0  0  0  0
 27 20  1  6  0  0  0
 27 11  1  0  0  0  0
 31 39  1  0  0  0  0
 32 33  1  0  0  0  0
 33 26  1  0  0  0  0
 34 35  1  0  0  0  0
 36 47  1  6  0  0  0
 36  1  1  0  0  0  0
 37  6  1  6  0  0  0
 37 35  1  0  0  0  0
 38 18  1  6  0  0  0
 38 21  1  0  0  0  0
 38 51  1  0  0  0  0
 39 28  1  6  0  0  0
 39 24  1  0  0  0  0
 41 40  1  6  0  0  0
 42 43  1  0  0  0  0
 42 41  1  0  0  0  0
 43 44  2  0  0  0  0
 45 43  1  0  0  0  0
 46 45  1  0  0  0  0
 47 48  1  1  0  0  0
 47 49  1  0  0  0  0
 49 50  1  0  0  0  0
 52 51  1  0  0  0  0
 52 54  1  0  0  0  0
 53 54  1  0  0  0  0
M  END
>  <MODEL>
3

>  <REMARK>
 VINA RESULT:      -6.0      2.865      5.673
  Name = 
  9 active torsions:
  status: ('A' for Active; 'I' for Inactive)
    1  A    between atoms: C_3  and  O_29
    2  A    between atoms: C_3  and  C_51
    3  A    between atoms: O_6  and  C_15
    4  A    between atoms: O_6  and  C_54
    5  A    between atoms: C_8  and  C_23
    6  A    between atoms: C_15  and  C_17
    7  A    between atoms: C_23  and  C_49
    8  A    between atoms: O_29  and  C_45
    9  A    between atoms: C_37  and  C_54
                            x       y       z     vdW  Elec       q    Type
                         _______ _______ _______ _____ _____    ______ ____

>  <TORSDO>
F 9

$$$$
=
 OpenBabel11062419123D

 54 58  0  0  1  0  0  0  0  0999 V2000
  188.9680  176.3810  144.9040 C   0  0  2  0  0  0  0  0  0  0  0  0
  192.1420  173.6420  141.0900 C   0  0  1  0  0  3  0  0  0  0  0  0
  194.2990  172.8020  137.2180 C   0  0  0  0  0  0  0  0  0  0  0  0
  191.4940  176.3430  144.6100 O   0  0  0  0  0  0  0  0  0  0  0  0
  188.9190  177.6870  144.1290 C   0  0  0  0  0  1  0  0  0  0  0  0
  194.7020  173.4670  138.5090 C   0  0  0  0  0  2  0  0  0  0  0  0
  192.4640  173.3770  139.6190 C   0  0  0  0  0  2  0  0  0  0  0  0
  193.3640  173.3100  136.4680 N   0  0  0  0  0  0  0  0  0  0  0  0
  189.4580  175.1120  144.1920 C   0  0  1  0  0  0  0  0  0  0  0  0
  190.6640  173.3070  141.2730 C   0  0  0  0  0  2  0  0  0  0  0  0
  192.4750  175.3080  144.5970 C   0  0  1  0  0  3  0  0  0  0  0  0
  189.8220  174.3810  140.7470 N   0  0  0  0  0  2  0  0  0  0  0  0
  195.4550  168.1840  139.3580 C   0  0  0  0  0  3  0  0  0  0  0  0
  189.5840  173.6380  144.6100 C   0  0  0  0  0  2  0  0  0  0  0  0
  194.9000  171.5670  136.8210 N   0  0  0  0  0  2  0  0  0  0  0  0
  192.9750  172.7630  142.0810 C   0  0  2  0  0  3  0  0  0  0  0  0
  195.9770  168.2030  141.6450 O   0  0  0  0  0  1  0  0  0  0  0  0
  187.9010  174.0000  142.2170 C   0  0  0  0  0  1  0  0  0  0  0  0
  187.9270  176.1430  145.8000 O   0  0  0  0  0  1  0  0  0  0  0  0
  193.1620  173.2790  143.3970 O   0  0  0  0  0  0  0  0  0  0  0  0
  189.9070  175.3770  142.8710 O   0  0  0  0  0  0  0  0  0  0  0  0
  196.9070  171.6960  138.0200 O   0  0  0  0  0  0  0  0  0  0  0  0
  191.0530  173.1470  144.6690 C   0  0  2  0  0  3  0  0  0  0  0  0
  196.0540  170.9780  137.4350 C   0  0  0  0  0  0  0  0  0  0  0  0
  195.6210  168.8780  140.4830 C   0  0  0  0  0  0  0  0  0  0  0  0
  194.3250  172.3200  141.5020 C   0  0  2  0  0  3  0  0  0  0  0  0
  192.0430  174.0130  143.8320 C   0  0  1  0  0  3  0  0  0  0  0  0
  196.4050  169.0370  135.9510 C   0  0  0  0  0  1  0  0  0  0  0  0
  193.7610  175.8840  144.0300 C   0  0  0  0  0  1  0  0  0  0  0  0
  191.0890  171.6690  144.3200 C   0  0  0  0  0  1  0  0  0  0  0  0
  195.0770  168.7850  138.0370 C   0  0  0  0  0  2  0  0  0  0  0  0
  195.4730  170.3620  140.5130 C   0  0  0  0  0  2  0  0  0  0  0  0
  194.5230  170.8130  141.6090 C   0  0  0  0  0  2  0  0  0  0  0  0
  192.5500  174.4840  136.8010 C   0  0  0  0  0  2  0  0  0  0  0  0
  193.0540  175.2420  138.0350 C   0  0  0  0  0  2  0  0  0  0  0  0
  190.3420  175.8480  145.2530 C   0  0  2  0  0  0  0  0  0  0  0  0
  193.5700  174.2900  139.1050 C   0  0  2  0  0  3  0  0  0  0  0  0
  189.0230  174.9790  141.8230 C   0  0  1  0  0  0  0  0  0  0  0  0
  196.2570  169.4990  137.3880 C   0  0  2  0  0  3  0  0  0  0  0  0
  196.2760  172.4350  142.9280 O   0  0  0  0  0  1  0  0  0  0  0  0
  195.5190  173.1500  141.9960 C   0  0  1  0  0  3  0  0  0  0  0  0
  196.3390  173.5400  140.9020 O   0  0  0  0  0  0  0  0  0  0  0  0
  197.0460  174.7460  140.8850 C   0  0  0  0  0  0  0  0  0  0  0  0
  197.9380  174.9250  140.0150 O   0  0  0  0  0  0  0  0  0  0  0  0
  196.7300  175.8500  141.8420 C   0  0  0  0  0  2  0  0  0  0  0  0
  195.6140  176.7070  141.2810 C   0  0  0  0  0  1  0  0  0  0  0  0
  190.5310  175.4340  146.7440 C   0  0  2  0  0  3  0  0  0  0  0  0
  189.3300  175.2340  147.4290 O   0  0  0  0  0  1  0  0  0  0  0  0
  191.3870  176.4560  147.4720 C   0  0  0  0  0  2  0  0  0  0  0  0
  190.5270  177.5980  147.9770 C   0  0  0  0  0  1  0  0  0  0  0  0
  188.3700  176.2430  141.2720 C   0  0  0  0  0  2  0  0  0  0  0  0
  186.9770  176.1850  141.3910 O   0  0  0  0  0  0  0  0  0  0  0  0
  185.7670  177.9890  142.2140 N   0  0  0  0  0  1  0  0  0  0  0  0
  186.5430  177.4790  141.1000 C   0  0  0  0  0  2  0  0  0  0  0  0
  1  5  1  6  0  0  0
  1 36  1  0  0  0  0
  1 19  1  0  0  0  0
  2  7  1  6  0  0  0
  2 10  1  0  0  0  0
  2 16  1  0  0  0  0
  3  6  1  0  0  0  0
  4 36  1  0  0  0  0
  6 37  1  0  0  0  0
  8 34  1  0  0  0  0
  8  3  2  0  0  0  0
  9 14  1  1  0  0  0
  9  1  1  0  0  0  0
  9 36  1  0  0  0  0
 11 29  1  6  0  0  0
 11  4  1  0  0  0  0
 12 10  1  0  0  0  0
 12 38  1  0  0  0  0
 13 25  2  0  0  0  0
 14 23  1  0  0  0  0
 15  3  1  0  0  0  0
 15 24  1  0  0  0  0
 16 20  1  1  0  0  0
 21  9  1  0  0  0  0
 23 30  1  6  0  0  0
 24 22  2  0  0  0  0
 25 32  1  0  0  0  0
 25 17  1  0  0  0  0
 26 33  1  0  0  0  0
 26 41  1  1  0  0  0
 26 16  1  0  0  0  0
 27 20  1  1  0  0  0
 27 11  1  0  0  0  0
 27 23  1  0  0  0  0
 31 13  1  0  0  0  0
 32 33  1  0  0  0  0
 34 35  1  0  0  0  0
 36 47  1  1  0  0  0
 37 35  1  6  0  0  0
 37  7  1  0  0  0  0
 38 18  1  1  0  0  0
 38 21  1  0  0  0  0
 39 28  1  6  0  0  0
 39 24  1  0  0  0  0
 39 31  1  0  0  0  0
 41 40  1  1  0  0  0
 42 41  1  0  0  0  0
 43 42  1  0  0  0  0
 43 45  1  0  0  0  0
 44 43  2  0  0  0  0
 46 45  1  0  0  0  0
 47 48  1  1  0  0  0
 47 49  1  0  0  0  0
 49 50  1  0  0  0  0
 51 52  1  0  0  0  0
 51 38  1  0  0  0  0
 54 52  1  0  0  0  0
 54 53  1  0  0  0  0
M  END
>  <MODEL>
4

>  <REMARK>
 VINA RESULT:      -5.9      1.264      1.767
  Name = 
  9 active torsions:
  status: ('A' for Active; 'I' for Inactive)
    1  A    between atoms: C_3  and  O_29
    2  A    between atoms: C_3  and  C_51
    3  A    between atoms: O_6  and  C_15
    4  A    between atoms: O_6  and  C_54
    5  A    between atoms: C_8  and  C_23
    6  A    between atoms: C_15  and  C_17
    7  A    between atoms: C_23  and  C_49
    8  A    between atoms: O_29  and  C_45
    9  A    between atoms: C_37  and  C_54
                            x       y       z     vdW  Elec       q    Type
                         _______ _______ _______ _____ _____    ______ ____

>  <TORSDO>
F 9

$$$$
=
 OpenBabel11062419123D

 54 58  0  0  1  0  0  0  0  0999 V2000
  187.4410  176.3940  142.6870 C   0  0  2  0  0  0  0  0  0  0  0  0
  191.8760  173.2460  141.0940 C   0  0  1  0  0  3  0  0  0  0  0  0
  195.1510  171.5920  138.4690 C   0  0  0  0  0  0  0  0  0  0  0  0
  189.9300  176.7980  143.0160 O   0  0  0  0  0  0  0  0  0  0  0  0
  187.4760  177.3050  141.4720 C   0  0  0  0  0  1  0  0  0  0  0  0
  195.0820  172.7350  139.4490 C   0  0  0  0  0  2  0  0  0  0  0  0
  192.6420  172.5610  139.9620 C   0  0  0  0  0  2  0  0  0  0  0  0
  194.4260  171.5940  137.3880 N   0  0  0  0  0  0  0  0  0  0  0  0
  188.2550  175.0930  142.6640 C   0  0  1  0  0  0  0  0  0  0  0  0
  190.4550  172.6880  141.0520 C   0  0  0  0  0  2  0  0  0  0  0  0
  190.9800  176.0600  143.6360 C   0  0  1  0  0  3  0  0  0  0  0  0
  189.6900  173.3030  139.9680 N   0  0  0  0  0  2  0  0  0  0  0  0
  196.1360  168.3720  142.4570 C   0  0  0  0  0  3  0  0  0  0  0  0
  188.4170  173.9200  143.6460 C   0  0  0  0  0  2  0  0  0  0  0  0
  195.9760  170.4560  138.7400 N   0  0  0  0  0  2  0  0  0  0  0  0
  192.4740  172.9680  142.5130 C   0  0  2  0  0  3  0  0  0  0  0  0
  195.9610  169.2990  144.6050 O   0  0  0  0  0  1  0  0  0  0  0  0
  187.4780  173.0570  140.9880 C   0  0  0  0  0  1  0  0  0  0  0  0
  186.2160  176.2660  143.3410 O   0  0  0  0  0  1  0  0  0  0  0  0
  192.2090  173.9380  143.5240 O   0  0  0  0  0  0  0  0  0  0  0  0
  189.0390  174.9710  141.4860 O   0  0  0  0  0  0  0  0  0  0  0  0
  197.5160  171.4210  140.2140 O   0  0  0  0  0  0  0  0  0  0  0  0
  189.8490  173.8090  144.2270 C   0  0  2  0  0  3  0  0  0  0  0  0
  196.9580  170.3800  139.7820 C   0  0  0  0  0  0  0  0  0  0  0  0
  195.8880  169.4330  143.2230 C   0  0  0  0  0  0  0  0  0  0  0  0
  193.9760  172.6510  142.4790 C   0  0  2  0  0  3  0  0  0  0  0  0
  190.9380  174.5190  143.3670 C   0  0  1  0  0  3  0  0  0  0  0  0
  197.9410  168.1660  139.3050 C   0  0  0  0  0  1  0  0  0  0  0  0
  192.3030  176.6640  143.1990 C   0  0  0  0  0  1  0  0  0  0  0  0
  190.1500  172.3460  144.5060 C   0  0  0  0  0  1  0  0  0  0  0  0
  196.0980  168.3790  140.9580 C   0  0  0  0  0  2  0  0  0  0  0  0
  195.5740  170.7660  142.6320 C   0  0  0  0  0  2  0  0  0  0  0  0
  194.3000  171.3560  143.2130 C   0  0  0  0  0  2  0  0  0  0  0  0
  193.4250  172.6060  137.0370 C   0  0  0  0  0  2  0  0  0  0  0  0
  193.4580  173.8360  137.9520 C   0  0  0  0  0  2  0  0  0  0  0  0
  188.7030  176.3240  143.5210 C   0  0  2  0  0  0  0  0  0  0  0  0
  193.7410  173.4510  139.3970 C   0  0  2  0  0  3  0  0  0  0  0  0
  188.5500  174.0530  140.5090 C   0  0  1  0  0  0  0  0  0  0  0  0
  197.3280  169.0570  140.3680 C   0  0  2  0  0  3  0  0  0  0  0  0
  194.5830  174.9590  142.0830 O   0  0  0  0  0  1  0  0  0  0  0  0
  194.8720  173.8370  142.8650 C   0  0  1  0  0  3  0  0  0  0  0  0
  194.7140  174.1510  144.2420 O   0  0  0  0  0  0  0  0  0  0  0  0
  195.3850  175.2150  144.8520 C   0  0  0  0  0  0  0  0  0  0  0  0
  196.4720  175.6190  144.3640 O   0  0  0  0  0  0  0  0  0  0  0  0
  194.8140  175.9190  146.0410 C   0  0  0  0  0  2  0  0  0  0  0  0
  194.7650  177.4100  145.7750 C   0  0  0  0  0  1  0  0  0  0  0  0
  188.4920  176.5070  145.0550 C   0  0  2  0  0  3  0  0  0  0  0  0
  187.1690  176.7820  145.4120 O   0  0  0  0  0  1  0  0  0  0  0  0
  189.4160  177.5850  145.5910 C   0  0  0  0  0  2  0  0  0  0  0  0
  189.9400  177.1970  146.9600 C   0  0  0  0  0  1  0  0  0  0  0  0
  187.9510  174.8740  139.3700 C   0  0  0  0  0  2  0  0  0  0  0  0
  187.8500  174.1150  138.1990 O   0  0  0  0  0  0  0  0  0  0  0  0
  188.9170  174.6260  136.2010 N   0  0  0  0  0  1  0  0  0  0  0  0
  187.9200  175.0500  137.1650 C   0  0  0  0  0  2  0  0  0  0  0  0
  1  5  1  6  0  0  0
  1 19  1  0  0  0  0
  1 36  1  0  0  0  0
  2  7  1  6  0  0  0
  2 16  1  0  0  0  0
  3 15  1  0  0  0  0
  3  6  1  0  0  0  0
  4 36  1  0  0  0  0
  4 11  1  0  0  0  0
  8  3  2  0  0  0  0
  9  1  1  0  0  0  0
  9 36  1  0  0  0  0
  9 14  1  1  0  0  0
 10  2  1  0  0  0  0
 11 29  1  6  0  0  0
 12 38  1  0  0  0  0
 12 10  1  0  0  0  0
 13 25  2  0  0  0  0
 14 23  1  0  0  0  0
 15 24  1  0  0  0  0
 16 20  1  1  0  0  0
 21  9  1  0  0  0  0
 23 30  1  6  0  0  0
 24 22  2  0  0  0  0
 24 39  1  0  0  0  0
 25 17  1  0  0  0  0
 26 16  1  0  0  0  0
 26 41  1  1  0  0  0
 26 33  1  0  0  0  0
 27 20  1  1  0  0  0
 27 11  1  0  0  0  0
 27 23  1  0  0  0  0
 31 13  1  0  0  0  0
 32 33  1  0  0  0  0
 32 25  1  0  0  0  0
 34  8  1  0  0  0  0
 34 35  1  0  0  0  0
 36 47  1  1  0  0  0
 37 35  1  6  0  0  0
 37  6  1  0  0  0  0
 37  7  1  0  0  0  0
 38 18  1  1  0  0  0
 38 21  1  0  0  0  0
 39 28  1  6  0  0  0
 39 31  1  0  0  0  0
 41 40  1  6  0  0  0
 41 42  1  0  0  0  0
 42 43  1  0  0  0  0
 43 45  1  0  0  0  0
 44 43  2  0  0  0  0
 46 45  1  0  0  0  0
 47 48  1  6  0  0  0
 47 49  1  0  0  0  0
 49 50  1  0  0  0  0
 51 38  1  0  0  0  0
 52 51  1  0  0  0  0
 53 54  1  0  0  0  0
 54 52  1  0  0  0  0
M  END
>  <MODEL>
5

>  <REMARK>
 VINA RESULT:      -5.6      1.726      2.270
  Name = 
  9 active torsions:
  status: ('A' for Active; 'I' for Inactive)
    1  A    between atoms: C_3  and  O_29
    2  A    between atoms: C_3  and  C_51
    3  A    between atoms: O_6  and  C_15
    4  A    between atoms: O_6  and  C_54
    5  A    between atoms: C_8  and  C_23
    6  A    between atoms: C_15  and  C_17
    7  A    between atoms: C_23  and  C_49
    8  A    between atoms: O_29  and  C_45
    9  A    between atoms: C_37  and  C_54
                            x       y       z     vdW  Elec       q    Type
                         _______ _______ _______ _____ _____    ______ ____

>  <TORSDO>
F 9

$$$$
=
 OpenBabel11062419123D

 54 58  0  0  1  0  0  0  0  0999 V2000
  195.0120  170.8580  135.9670 C   0  0  2  0  0  0  0  0  0  0  0  0
  192.3880  173.1680  140.4270 C   0  0  1  0  0  3  0  0  0  0  0  0
  189.0210  174.5970  143.0670 C   0  0  0  0  0  0  0  0  0  0  0  0
  194.3430  169.8130  138.1860 O   0  0  0  0  0  0  0  0  0  0  0  0
  193.7490  170.2900  135.3430 C   0  0  0  0  0  1  0  0  0  0  0  0
  189.7770  173.2980  142.9600 C   0  0  0  0  0  2  0  0  0  0  0  0
  191.1690  173.9100  140.9750 C   0  0  0  0  0  2  0  0  0  0  0  0
  188.2930  175.0300  142.0790 N   0  0  0  0  0  0  0  0  0  0  0  0
  194.8850  171.8960  137.0900 C   0  0  1  0  0  0  0  0  0  0  0  0
  192.9520  174.0370  139.3060 C   0  0  0  0  0  2  0  0  0  0  0  0
  194.6360  170.1090  139.5500 C   0  0  1  0  0  3  0  0  0  0  0  0
  192.1460  173.9030  138.0930 N   0  0  0  0  0  2  0  0  0  0  0  0
  192.7980  176.4190  146.1740 C   0  0  0  0  0  3  0  0  0  0  0  0
  195.9010  172.7210  137.8980 C   0  0  0  0  0  2  0  0  0  0  0  0
  189.1340  175.4060  144.2410 N   0  0  0  0  0  2  0  0  0  0  0  0
  193.5130  172.9420  141.4910 C   0  0  2  0  0  3  0  0  0  0  0  0
  194.6990  175.0630  146.4000 O   0  0  0  0  0  1  0  0  0  0  0  0
  193.9300  174.4050  136.4930 C   0  0  0  0  0  1  0  0  0  0  0  0
  196.0810  171.1060  135.1060 O   0  0  0  0  0  1  0  0  0  0  0  0
  194.3960  171.8440  141.2700 O   0  0  0  0  0  0  0  0  0  0  0  0
  193.5340  172.1160  137.4680 O   0  0  0  0  0  0  0  0  0  0  0  0
  189.7820  173.7750  145.7900 O   0  0  0  0  0  0  0  0  0  0  0  0
  195.9260  172.3480  139.4020 C   0  0  2  0  0  3  0  0  0  0  0  0
  189.7430  174.9920  145.4710 C   0  0  0  0  0  0  0  0  0  0  0  0
  193.4370  175.2920  145.8640 C   0  0  0  0  0  0  0  0  0  0  0  0
  192.9790  172.8950  142.9290 C   0  0  2  0  0  3  0  0  0  0  0  0
  194.6320  171.6350  139.8990 C   0  0  1  0  0  3  0  0  0  0  0  0
  189.2710  176.9600  146.8850 C   0  0  0  0  0  1  0  0  0  0  0  0
  193.6610  169.3370  140.4210 C   0  0  0  0  0  1  0  0  0  0  0  0
  196.2880  173.5850  140.2070 C   0  0  0  0  0  1  0  0  0  0  0  0
  191.4340  176.7880  145.6730 C   0  0  0  0  0  2  0  0  0  0  0  0
  192.8110  174.2560  144.9910 C   0  0  0  0  0  2  0  0  0  0  0  0
  193.7250  173.8580  143.8440 C   0  0  0  0  0  2  0  0  0  0  0  0
  188.1880  174.3990  140.7600 C   0  0  0  0  0  2  0  0  0  0  0  0
  188.8340  173.0100  140.6980 C   0  0  0  0  0  2  0  0  0  0  0  0
  195.3260  170.4240  137.3830 C   0  0  2  0  0  0  0  0  0  0  0  0
  190.1160  172.9520  141.5180 C   0  0  2  0  0  3  0  0  0  0  0  0
  192.9500  173.3330  137.0050 C   0  0  1  0  0  0  0  0  0  0  0  0
  190.3410  176.0060  146.3900 C   0  0  2  0  0  3  0  0  0  0  0  0
  192.1200  170.6570  142.6100 O   0  0  0  0  0  1  0  0  0  0  0  0
  192.8300  171.4750  143.4940 C   0  0  1  0  0  3  0  0  0  0  0  0
  194.1070  170.9100  143.7580 O   0  0  0  0  0  0  0  0  0  0  0  0
  194.3460  170.0700  144.8500 C   0  0  0  0  0  0  0  0  0  0  0  0
  193.5980  169.0750  145.0380 O   0  0  0  0  0  0  0  0  0  0  0  0
  195.5030  170.2950  145.7690 C   0  0  0  0  0  2  0  0  0  0  0  0
  196.0400  171.6980  145.5790 C   0  0  0  0  0  1  0  0  0  0  0  0
  196.7860  169.9260  137.6130 C   0  0  2  0  0  3  0  0  0  0  0  0
  197.7400  170.6110  136.8560 O   0  0  0  0  0  1  0  0  0  0  0  0
  196.8820  168.4330  137.3530 C   0  0  0  0  0  2  0  0  0  0  0  0
  197.7140  168.1670  136.1140 C   0  0  0  0  0  1  0  0  0  0  0  0
  192.0020  172.9800  135.8620 C   0  0  0  0  0  2  0  0  0  0  0  0
  190.6780  172.9090  136.3070 O   0  0  0  0  0  0  0  0  0  0  0  0
  190.3130  170.6480  136.6890 N   0  0  0  0  0  1  0  0  0  0  0  0
  190.1770  171.7360  135.7400 C   0  0  0  0  0  2  0  0  0  0  0  0
  1  5  1  6  0  0  0
  1  9  1  0  0  0  0
  1 36  1  0  0  0  0
  2 10  1  6  0  0  0
  2  7  1  0  0  0  0
  2 16  1  0  0  0  0
  3 15  1  0  0  0  0
  4 11  1  0  0  0  0
  6  3  1  0  0  0  0
  7 37  1  0  0  0  0
  8  3  2  0  0  0  0
  9 36  1  0  0  0  0
  9 21  1  0  0  0  0
  9 14  1  1  0  0  0
 11 27  1  0  0  0  0
 11 29  1  1  0  0  0
 12 10  1  0  0  0  0
 14 23  1  0  0  0  0
 15 24  1  0  0  0  0
 16 20  1  6  0  0  0
 16 26  1  0  0  0  0
 19  1  1  0  0  0  0
 23 27  1  0  0  0  0
 23 30  1  1  0  0  0
 24 22  2  0  0  0  0
 24 39  1  0  0  0  0
 25 13  2  0  0  0  0
 25 17  1  0  0  0  0
 26 41  1  1  0  0  0
 26 33  1  0  0  0  0
 27 20  1  1  0  0  0
 31 13  1  0  0  0  0
 31 39  1  0  0  0  0
 32 25  1  0  0  0  0
 33 32  1  0  0  0  0
 34  8  1  0  0  0  0
 35 34  1  0  0  0  0
 36 47  1  1  0  0  0
 36  4  1  0  0  0  0
 37 35  1  6  0  0  0
 37  6  1  0  0  0  0
 38 18  1  6  0  0  0
 38 21  1  0  0  0  0
 38 12  1  0  0  0  0
 39 28  1  6  0  0  0
 41 40  1  6  0  0  0
 41 42  1  0  0  0  0
 42 43  1  0  0  0  0
 43 44  2  0  0  0  0
 43 45  1  0  0  0  0
 46 45  1  0  0  0  0
 47 48  1  6  0  0  0
 49 47  1  0  0  0  0
 50 49  1  0  0  0  0
 51 52  1  0  0  0  0
 51 38  1  0  0  0  0
 54 52  1  0  0  0  0
 54 53  1  0  0  0  0
M  END
>  <MODEL>
6

>  <REMARK>
 VINA RESULT:      -5.4      2.427      8.572
  Name = 
  9 active torsions:
  status: ('A' for Active; 'I' for Inactive)
    1  A    between atoms: C_3  and  O_29
    2  A    between atoms: C_3  and  C_51
    3  A    between atoms: O_6  and  C_15
    4  A    between atoms: O_6  and  C_54
    5  A    between atoms: C_8  and  C_23
    6  A    between atoms: C_15  and  C_17
    7  A    between atoms: C_23  and  C_49
    8  A    between atoms: O_29  and  C_45
    9  A    between atoms: C_37  and  C_54
                            x       y       z     vdW  Elec       q    Type
                         _______ _______ _______ _____ _____    ______ ____

>  <TORSDO>
F 9

$$$$
=
 OpenBabel11062419123D

 54 58  0  0  1  0  0  0  0  0999 V2000
  192.3180  175.2840  145.4070 C   0  0  2  0  0  0  0  0  0  0  0  0
  194.4170  172.4590  140.9640 C   0  0  1  0  0  3  0  0  0  0  0  0
  195.6260  168.9730  138.3700 C   0  0  0  0  0  0  0  0  0  0  0  0
  191.2040  174.6290  143.2170 O   0  0  0  0  0  0  0  0  0  0  0  0
  191.6960  174.0640  146.0640 C   0  0  0  0  0  1  0  0  0  0  0  0
  194.3700  169.7980  138.4820 C   0  0  0  0  0  2  0  0  0  0  0  0
  195.0850  171.1920  140.4300 C   0  0  0  0  0  2  0  0  0  0  0  0
  196.0360  168.2420  139.3660 N   0  0  0  0  0  0  0  0  0  0  0  0
  193.3310  175.0820  144.2710 C   0  0  1  0  0  0  0  0  0  0  0  0
  195.3320  172.9980  142.0610 C   0  0  0  0  0  2  0  0  0  0  0  0
  191.4930  174.8810  141.8430 C   0  0  1  0  0  3  0  0  0  0  0  0
  195.1760  172.2230  143.2920 N   0  0  0  0  0  2  0  0  0  0  0  0
  197.5920  172.5900  135.1620 C   0  0  0  0  0  3  0  0  0  0  0  0
  194.1940  176.0370  143.4300 C   0  0  0  0  0  2  0  0  0  0  0  0
  196.4200  169.0210  137.1820 N   0  0  0  0  0  2  0  0  0  0  0  0
  194.2320  173.5740  139.8820 C   0  0  2  0  0  3  0  0  0  0  0  0
  196.3330  174.5540  134.9200 O   0  0  0  0  0  1  0  0  0  0  0  0
  195.7950  174.0080  144.8490 C   0  0  0  0  0  1  0  0  0  0  0  0
  192.6350  176.3550  146.2430 O   0  0  0  0  0  1  0  0  0  0  0  0
  193.1860  174.5180  140.1020 O   0  0  0  0  0  0  0  0  0  0  0  0
  193.4730  173.7140  143.9160 O   0  0  0  0  0  0  0  0  0  0  0  0
  194.8010  169.7240  135.6450 O   0  0  0  0  0  0  0  0  0  0  0  0
  193.7980  176.0540  141.9320 C   0  0  2  0  0  3  0  0  0  0  0  0
  196.0190  169.6280  135.9470 C   0  0  0  0  0  0  0  0  0  0  0  0
  196.5050  173.2920  135.4760 C   0  0  0  0  0  0  0  0  0  0  0  0
  194.1350  173.0160  138.4560 C   0  0  2  0  0  3  0  0  0  0  0  0
  193.0110  174.7900  141.4720 C   0  0  1  0  0  3  0  0  0  0  0  0
  197.9370  169.0260  134.5130 C   0  0  0  0  0  1  0  0  0  0  0  0
  190.6580  173.9310  141.0030 C   0  0  0  0  0  1  0  0  0  0  0  0
  195.0390  176.3350  141.1020 C   0  0  0  0  0  1  0  0  0  0  0  0
  197.8970  171.2180  135.6850 C   0  0  0  0  0  2  0  0  0  0  0  0
  195.4520  172.7390  136.3780 C   0  0  0  0  0  2  0  0  0  0  0  0
  195.1200  173.6940  137.5120 C   0  0  0  0  0  2  0  0  0  0  0  0
  195.4210  168.1950  140.6960 C   0  0  0  0  0  2  0  0  0  0  0  0
  194.0690  168.9140  140.7660 C   0  0  0  0  0  2  0  0  0  0  0  0
  191.8780  175.5940  143.9910 C   0  0  2  0  0  0  0  0  0  0  0  0
  194.0650  170.1810  139.9220 C   0  0  2  0  0  3  0  0  0  0  0  0
  194.6660  173.0760  144.3720 C   0  0  1  0  0  0  0  0  0  0  0  0
  197.0480  170.1540  135.0010 C   0  0  2  0  0  3  0  0  0  0  0  0
  192.3920  174.0470  137.1320 O   0  0  0  0  0  1  0  0  0  0  0  0
  192.7000  172.9310  137.9160 C   0  0  1  0  0  3  0  0  0  0  0  0
  192.5250  171.7420  137.1570 O   0  0  0  0  0  0  0  0  0  0  0  0
  191.3110  171.0520  137.1090 C   0  0  0  0  0  0  0  0  0  0  0  0
  190.8550  170.5330  138.1620 O   0  0  0  0  0  0  0  0  0  0  0  0
  190.5130  170.9610  135.8490 C   0  0  0  0  0  2  0  0  0  0  0  0
  191.2140  170.0470  134.8660 C   0  0  0  0  0  1  0  0  0  0  0  0
  191.4540  177.0730  143.7400 C   0  0  2  0  0  3  0  0  0  0  0  0
  192.1900  178.0030  144.4790 O   0  0  0  0  0  1  0  0  0  0  0  0
  189.9690  177.2490  144.0050 C   0  0  0  0  0  2  0  0  0  0  0  0
  189.2730  177.7820  142.7680 C   0  0  0  0  0  1  0  0  0  0  0  0
  194.2820  172.1700  145.5390 C   0  0  0  0  0  2  0  0  0  0  0  0
  194.3670  170.8210  145.1800 O   0  0  0  0  0  0  0  0  0  0  0  0
  196.4380  170.2290  146.0480 N   0  0  0  0  0  1  0  0  0  0  0  0
  195.0040  170.2070  146.2600 C   0  0  0  0  0  2  0  0  0  0  0  0
  1  5  1  1  0  0  0
  1 19  1  0  0  0  0
  2  7  1  6  0  0  0
  2 10  1  0  0  0  0
  3  6  1  0  0  0  0
  3  8  2  0  0  0  0
  4 36  1  0  0  0  0
  8 34  1  0  0  0  0
  9 14  1  6  0  0  0
  9  1  1  0  0  0  0
 10 12  1  0  0  0  0
 11 29  1  6  0  0  0
 11  4  1  0  0  0  0
 12 38  1  0  0  0  0
 13 25  2  0  0  0  0
 13 31  1  0  0  0  0
 15  3  1  0  0  0  0
 16 20  1  1  0  0  0
 16  2  1  0  0  0  0
 17 25  1  0  0  0  0
 21  9  1  0  0  0  0
 21 38  1  0  0  0  0
 22 24  2  0  0  0  0
 23 30  1  6  0  0  0
 23 14  1  0  0  0  0
 24 15  1  0  0  0  0
 25 32  1  0  0  0  0
 26 41  1  6  0  0  0
 26 16  1  0  0  0  0
 27 20  1  6  0  0  0
 27 11  1  0  0  0  0
 27 23  1  0  0  0  0
 32 33  1  0  0  0  0
 33 26  1  0  0  0  0
 34 35  1  0  0  0  0
 36 47  1  6  0  0  0
 36  9  1  0  0  0  0
 36  1  1  0  0  0  0
 37  6  1  6  0  0  0
 37  7  1  0  0  0  0
 37 35  1  0  0  0  0
 38 18  1  1  0  0  0
 38 51  1  0  0  0  0
 39 28  1  1  0  0  0
 39 31  1  0  0  0  0
 39 24  1  0  0  0  0
 41 40  1  6  0  0  0
 42 41  1  0  0  0  0
 43 42  1  0  0  0  0
 43 44  2  0  0  0  0
 45 43  1  0  0  0  0
 46 45  1  0  0  0  0
 47 49  1  0  0  0  0
 47 48  1  1  0  0  0
 50 49  1  0  0  0  0
 52 51  1  0  0  0  0
 52 54  1  0  0  0  0
 53 54  1  0  0  0  0
M  END
>  <MODEL>
7

>  <REMARK>
 VINA RESULT:      -5.3      3.023      6.428
  Name = 
  9 active torsions:
  status: ('A' for Active; 'I' for Inactive)
    1  A    between atoms: C_3  and  O_29
    2  A    between atoms: C_3  and  C_51
    3  A    between atoms: O_6  and  C_15
    4  A    between atoms: O_6  and  C_54
    5  A    between atoms: C_8  and  C_23
    6  A    between atoms: C_15  and  C_17
    7  A    between atoms: C_23  and  C_49
    8  A    between atoms: O_29  and  C_45
    9  A    between atoms: C_37  and  C_54
                            x       y       z     vdW  Elec       q    Type
                         _______ _______ _______ _____ _____    ______ ____

>  <TORSDO>
F 9

$$$$
=
 OpenBabel11062419123D

 54 58  0  0  1  0  0  0  0  0999 V2000
  196.5470  169.5570  142.2240 C   0  0  2  0  0  0  0  0  0  0  0  0
  192.0290  172.9080  141.5320 C   0  0  1  0  0  3  0  0  0  0  0  0
  188.0120  174.3210  140.0440 C   0  0  0  0  0  0  0  0  0  0  0  0
  194.4520  169.7840  143.6480 O   0  0  0  0  0  0  0  0  0  0  0  0
  195.9270  168.3480  141.5430 C   0  0  0  0  0  1  0  0  0  0  0  0
  188.4560  173.5370  141.2530 C   0  0  0  0  0  2  0  0  0  0  0  0
  190.8730  173.3600  140.6410 C   0  0  0  0  0  2  0  0  0  0  0  0
  188.1750  173.8460  138.8440 N   0  0  0  0  0  0  0  0  0  0  0  0
  195.8740  170.9270  142.0640 C   0  0  1  0  0  0  0  0  0  0  0  0
  193.3070  173.1270  140.7250 C   0  0  0  0  0  2  0  0  0  0  0  0
  193.8280  170.8720  144.3260 C   0  0  1  0  0  3  0  0  0  0  0  0
  193.4740  172.0720  139.7260 N   0  0  0  0  0  2  0  0  0  0  0  0
  189.0760  178.7240  142.6380 C   0  0  0  0  0  3  0  0  0  0  0  0
  196.2270  172.3490  142.5330 C   0  0  0  0  0  2  0  0  0  0  0  0
  187.4530  175.6280  140.1940 N   0  0  0  0  0  2  0  0  0  0  0  0
  192.1440  173.7170  142.8670 C   0  0  2  0  0  3  0  0  0  0  0  0
  190.1480  178.4730  144.7090 O   0  0  0  0  0  1  0  0  0  0  0  0
  195.9180  172.1610  139.6070 C   0  0  0  0  0  1  0  0  0  0  0  0
  197.9400  169.6250  142.2360 O   0  0  0  0  0  1  0  0  0  0  0  0
  192.7850  173.0650  143.9620 O   0  0  0  0  0  0  0  0  0  0  0  0
  194.6530  170.8450  141.3440 O   0  0  0  0  0  0  0  0  0  0  0  0
  186.6890  175.4860  142.4020 O   0  0  0  0  0  0  0  0  0  0  0  0
  195.2140  172.9180  143.5580 C   0  0  2  0  0  3  0  0  0  0  0  0
  187.0460  176.2120  141.4390 C   0  0  0  0  0  0  0  0  0  0  0  0
  189.5880  177.9160  143.5650 C   0  0  0  0  0  0  0  0  0  0  0  0
  190.8040  174.3060  143.3290 C   0  0  2  0  0  3  0  0  0  0  0  0
  193.8210  172.2180  143.5270 C   0  0  1  0  0  3  0  0  0  0  0  0
  186.0630  178.3300  140.6350 C   0  0  0  0  0  1  0  0  0  0  0  0
  192.4210  170.4460  144.7070 C   0  0  0  0  0  1  0  0  0  0  0  0
  195.1420  174.4260  143.3870 C   0  0  0  0  0  1  0  0  0  0  0  0
  188.4390  178.2570  141.3630 C   0  0  0  0  0  2  0  0  0  0  0  0
  189.5380  176.4320  143.4200 C   0  0  0  0  0  2  0  0  0  0  0  0
  190.9070  175.7990  143.6100 C   0  0  0  0  0  2  0  0  0  0  0  0
  188.8620  172.5940  138.5100 C   0  0  0  0  0  2  0  0  0  0  0  0
  189.1810  171.7310  139.7360 C   0  0  0  0  0  2  0  0  0  0  0  0
  195.7970  170.1300  143.4090 C   0  0  2  0  0  0  0  0  0  0  0  0
  189.5940  172.5830  140.9280 C   0  0  2  0  0  3  0  0  0  0  0  0
  194.6970  171.3060  139.9930 C   0  0  1  0  0  0  0  0  0  0  0  0
  187.0430  177.6970  141.6050 C   0  0  2  0  0  3  0  0  0  0  0  0
  190.2220  172.1260  144.2010 O   0  0  0  0  0  1  0  0  0  0  0  0
  190.1170  173.4990  144.4410 C   0  0  1  0  0  3  0  0  0  0  0  0
  190.6840  173.8160  145.7050 O   0  0  0  0  0  0  0  0  0  0  0  0
  189.9910  174.5390  146.6800 C   0  0  0  0  0  0  0  0  0  0  0  0
  188.9410  174.0550  147.1770 O   0  0  0  0  0  0  0  0  0  0  0  0
  190.4980  175.8510  147.1860 C   0  0  0  0  0  2  0  0  0  0  0  0
  192.0100  175.8170  147.2660 C   0  0  0  0  0  1  0  0  0  0  0  0
  196.6630  170.3800  144.6810 C   0  0  2  0  0  3  0  0  0  0  0  0
  197.9400  170.8740  144.4040 O   0  0  0  0  0  1  0  0  0  0  0  0
  196.7580  169.1130  145.5120 C   0  0  0  0  0  2  0  0  0  0  0  0
  196.2510  169.3670  146.9190 C   0  0  0  0  0  1  0  0  0  0  0  0
  194.6830  170.0750  139.0900 C   0  0  0  0  0  2  0  0  0  0  0  0
  193.4690  169.9700  138.4010 O   0  0  0  0  0  0  0  0  0  0  0  0
  194.0650  170.8860  136.3530 N   0  0  0  0  0  1  0  0  0  0  0  0
  193.8330  169.6590  137.0900 C   0  0  0  0  0  2  0  0  0  0  0  0
  1  5  1  6  0  0  0
  1 19  1  0  0  0  0
  1 36  1  0  0  0  0
  2  7  1  6  0  0  0
  2 16  1  0  0  0  0
  3 15  1  0  0  0  0
  3  6  1  0  0  0  0
  4 11  1  0  0  0  0
  7 37  1  0  0  0  0
  8  3  2  0  0  0  0
  9  1  1  0  0  0  0
  9 14  1  6  0  0  0
  9 36  1  0  0  0  0
 10  2  1  0  0  0  0
 11 29  1  6  0  0  0
 12 38  1  0  0  0  0
 12 10  1  0  0  0  0
 13 25  2  0  0  0  0
 14 23  1  0  0  0  0
 15 24  1  0  0  0  0
 16 26  1  0  0  0  0
 16 20  1  1  0  0  0
 21  9  1  0  0  0  0
 23 30  1  6  0  0  0
 24 39  1  0  0  0  0
 24 22  2  0  0  0  0
 25 17  1  0  0  0  0
 26 33  1  0  0  0  0
 26 41  1  1  0  0  0
 27 23  1  0  0  0  0
 27 20  1  1  0  0  0
 27 11  1  0  0  0  0
 31 39  1  0  0  0  0
 31 13  1  0  0  0  0
 32 25  1  0  0  0  0
 32 33  1  0  0  0  0
 34  8  1  0  0  0  0
 34 35  1  0  0  0  0
 36  4  1  0  0  0  0
 36 47  1  1  0  0  0
 37 35  1  6  0  0  0
 37  6  1  0  0  0  0
 38 18  1  6  0  0  0
 38 21  1  0  0  0  0
 39 28  1  6  0  0  0
 41 40  1  6  0  0  0
 41 42  1  0  0  0  0
 42 43  1  0  0  0  0
 43 44  2  0  0  0  0
 43 45  1  0  0  0  0
 45 46  1  0  0  0  0
 47 48  1  6  0  0  0
 47 49  1  0  0  0  0
 49 50  1  0  0  0  0
 51 38  1  0  0  0  0
 52 51  1  0  0  0  0
 53 54  1  0  0  0  0
 54 52  1  0  0  0  0
M  END
>  <MODEL>
8

>  <REMARK>
 VINA RESULT:      -5.0      2.019      8.428
  Name = 
  9 active torsions:
  status: ('A' for Active; 'I' for Inactive)
    1  A    between atoms: C_3  and  O_29
    2  A    between atoms: C_3  and  C_51
    3  A    between atoms: O_6  and  C_15
    4  A    between atoms: O_6  and  C_54
    5  A    between atoms: C_8  and  C_23
    6  A    between atoms: C_15  and  C_17
    7  A    between atoms: C_23  and  C_49
    8  A    between atoms: O_29  and  C_45
    9  A    between atoms: C_37  and  C_54
                            x       y       z     vdW  Elec       q    Type
                         _______ _______ _______ _____ _____    ______ ____

>  <TORSDO>
F 9

$$$$
=
 OpenBabel11062419123D

 54 58  0  0  1  0  0  0  0  0999 V2000
  194.0850  170.5410  140.5950 C   0  0  2  0  0  0  0  0  0  0  0  0
  190.3020  173.8640  143.1950 C   0  0  1  0  0  3  0  0  0  0  0  0
  188.1840  176.0370  146.5330 C   0  0  0  0  0  0  0  0  0  0  0  0
  194.0950  173.0600  140.9440 O   0  0  0  0  0  0  0  0  0  0  0  0
  194.9910  170.3910  141.8050 C   0  0  0  0  0  1  0  0  0  0  0  0
  189.3150  176.4050  145.6070 C   0  0  0  0  0  2  0  0  0  0  0  0
  189.5170  174.1900  144.4660 C   0  0  0  0  0  2  0  0  0  0  0  0
  188.3090  175.0620  147.3850 N   0  0  0  0  0  0  0  0  0  0  0  0
  192.6730  171.1120  140.7890 C   0  0  1  0  0  0  0  0  0  0  0  0
  189.9710  172.4150  142.8450 C   0  0  0  0  0  2  0  0  0  0  0  0
  193.1970  174.1120  140.5980 C   0  0  1  0  0  3  0  0  0  0  0  0
  190.7080  171.4940  143.7090 N   0  0  0  0  0  2  0  0  0  0  0  0
  184.8130  177.5410  142.8430 C   0  0  0  0  0  3  0  0  0  0  0  0
  191.4810  171.3480  139.8470 C   0  0  0  0  0  2  0  0  0  0  0  0
  186.9320  176.7220  146.4530 N   0  0  0  0  0  2  0  0  0  0  0  0
  189.9210  174.7670  141.9750 C   0  0  2  0  0  3  0  0  0  0  0  0
  185.7360  178.0830  140.7560 O   0  0  0  0  0  1  0  0  0  0  0  0
  190.7980  169.6190  142.1350 C   0  0  0  0  0  1  0  0  0  0  0  0
  194.1430  169.5280  139.6380 O   0  0  0  0  0  1  0  0  0  0  0  0
  190.9100  174.9300  140.9610 O   0  0  0  0  0  0  0  0  0  0  0  0
  192.4420  171.5290  142.1260 O   0  0  0  0  0  0  0  0  0  0  0  0
  187.6330  178.7260  145.4670 O   0  0  0  0  0  0  0  0  0  0  0  0
  191.1430  172.8490  139.6590 C   0  0  2  0  0  3  0  0  0  0  0  0
  186.6940  177.9210  145.7030 C   0  0  0  0  0  0  0  0  0  0  0  0
  185.8920  177.6680  142.0730 C   0  0  0  0  0  0  0  0  0  0  0  0
  189.3750  176.1400  142.3910 C   0  0  2  0  0  3  0  0  0  0  0  0
  191.6830  173.7660  140.7970 C   0  0  1  0  0  3  0  0  0  0  0  0
  184.3600  178.3950  146.3510 C   0  0  0  0  0  1  0  0  0  0  0  0
  193.5920  175.3480  141.3870 C   0  0  0  0  0  1  0  0  0  0  0  0
  189.6480  172.9870  139.4220 C   0  0  0  0  0  1  0  0  0  0  0  0
  184.8410  177.1090  144.2790 C   0  0  0  0  0  2  0  0  0  0  0  0
  187.2640  177.4150  142.6040 C   0  0  0  0  0  2  0  0  0  0  0  0
  188.0390  176.4460  141.7270 C   0  0  0  0  0  2  0  0  0  0  0  0
  189.4680  174.1690  147.4930 C   0  0  0  0  0  2  0  0  0  0  0  0
  190.6690  174.6300  146.6590 C   0  0  0  0  0  2  0  0  0  0  0  0
  193.8120  171.9530  140.1190 C   0  0  2  0  0  0  0  0  0  0  0  0
  190.2310  175.2230  145.3270 C   0  0  2  0  0  3  0  0  0  0  0  0
  191.6200  170.6650  142.9110 C   0  0  1  0  0  0  0  0  0  0  0  0
  185.3250  178.2280  145.1930 C   0  0  2  0  0  3  0  0  0  0  0  0
  189.8790  178.4720  142.7900 O   0  0  0  0  0  1  0  0  0  0  0  0
  190.4040  177.2760  142.2930 C   0  0  1  0  0  3  0  0  0  0  0  0
  191.5880  176.9350  143.0010 O   0  0  0  0  0  0  0  0  0  0  0  0
  192.1780  177.7910  143.9360 C   0  0  0  0  0  0  0  0  0  0  0  0
  191.9290  179.0240  143.8860 O   0  0  0  0  0  0  0  0  0  0  0  0
  193.0560  177.2690  145.0270 C   0  0  0  0  0  2  0  0  0  0  0  0
  193.6730  175.9540  144.6000 C   0  0  0  0  0  1  0  0  0  0  0  0
  194.0110  172.1850  138.5900 C   0  0  2  0  0  3  0  0  0  0  0  0
  193.6030  171.1080  137.8000 O   0  0  0  0  0  1  0  0  0  0  0  0
  195.4570  172.5370  138.2930 C   0  0  0  0  0  2  0  0  0  0  0  0
  195.5590  173.9640  137.7890 C   0  0  0  0  0  1  0  0  0  0  0  0
  192.5350  169.9180  143.8780 C   0  0  0  0  0  2  0  0  0  0  0  0
  193.2520  170.8090  144.6850 O   0  0  0  0  0  0  0  0  0  0  0  0
  193.9480  168.6190  145.0190 N   0  0  0  0  0  1  0  0  0  0  0  0
  194.1880  170.0120  145.3450 C   0  0  0  0  0  2  0  0  0  0  0  0
  1  9  1  0  0  0  0
  1  5  1  1  0  0  0
  2 10  1  6  0  0  0
  2  7  1  0  0  0  0
  3  8  2  0  0  0  0
  6  3  1  0  0  0  0
  8 34  1  0  0  0  0
  9 14  1  6  0  0  0
  9 21  1  0  0  0  0
 10 12  1  0  0  0  0
 11 27  1  0  0  0  0
 11  4  1  0  0  0  0
 11 29  1  1  0  0  0
 13 31  1  0  0  0  0
 15  3  1  0  0  0  0
 16 20  1  6  0  0  0
 16 26  1  0  0  0  0
 16  2  1  0  0  0  0
 17 25  1  0  0  0  0
 19  1  1  0  0  0  0
 21 38  1  0  0  0  0
 22 24  2  0  0  0  0
 23 30  1  1  0  0  0
 23 14  1  0  0  0  0
 23 27  1  0  0  0  0
 24 15  1  0  0  0  0
 25 32  1  0  0  0  0
 25 13  2  0  0  0  0
 26 41  1  6  0  0  0
 27 20  1  6  0  0  0
 31 39  1  0  0  0  0
 33 26  1  0  0  0  0
 33 32  1  0  0  0  0
 35 34  1  0  0  0  0
 36 47  1  6  0  0  0
 36  1  1  0  0  0  0
 36  9  1  0  0  0  0
 36  4  1  0  0  0  0
 37  7  1  6  0  0  0
 37  6  1  0  0  0  0
 37 35  1  0  0  0  0
 38 18  1  6  0  0  0
 38 12  1  0  0  0  0
 38 51  1  0  0  0  0
 39 24  1  0  0  0  0
 39 28  1  1  0  0  0
 41 40  1  1  0  0  0
 41 42  1  0  0  0  0
 42 43  1  0  0  0  0
 43 45  1  0  0  0  0
 44 43  2  0  0  0  0
 46 45  1  0  0  0  0
 47 48  1  6  0  0  0
 49 47  1  0  0  0  0
 50 49  1  0  0  0  0
 51 52  1  0  0  0  0
 52 54  1  0  0  0  0
 53 54  1  0  0  0  0
M  END
>  <MODEL>
9

>  <REMARK>
 VINA RESULT:      -4.9      2.926      9.415
  Name = 
  9 active torsions:
  status: ('A' for Active; 'I' for Inactive)
    1  A    between atoms: C_3  and  O_29
    2  A    between atoms: C_3  and  C_51
    3  A    between atoms: O_6  and  C_15
    4  A    between atoms: O_6  and  C_54
    5  A    between atoms: C_8  and  C_23
    6  A    between atoms: C_15  and  C_17
    7  A    between atoms: C_23  and  C_49
    8  A    between atoms: O_29  and  C_45
    9  A    between atoms: C_37  and  C_54
                            x       y       z     vdW  Elec       q    Type
                         _______ _______ _______ _____ _____    ______ ____

>  <TORSDO>
F 9

$$$$
