=
 OpenBabel11062419583D

 28 31  0  0  1  0  0  0  0  0999 V2000
  190.3740  177.2430  144.9680 C   0  0  0  0  0  0  0  0  0  0  0  0
  185.6330  177.0260  146.8490 C   0  0  0  0  0  3  0  0  0  0  0  0
  186.6420  177.8520  144.5880 C   0  0  1  0  0  3  0  0  0  0  0  0
  185.2700  179.3900  146.0790 C   0  0  0  0  0  2  0  0  0  0  0  0
  189.2510  176.2670  146.8850 C   0  0  0  0  0  3  0  0  0  0  0  0
  184.2340  178.5600  145.3320 C   0  0  0  0  0  2  0  0  0  0  0  0
  189.1430  177.6820  144.4720 C   0  0  0  0  0  3  0  0  0  0  0  0
  185.5770  177.9640  145.6840 C   0  0  0  0  0  0  0  0  0  0  0  0
  190.4240  176.5310  146.1720 C   0  0  0  0  0  3  0  0  0  0  0  0
  187.9610  177.4240  145.1770 C   0  0  0  0  0  0  0  0  0  0  0  0
  186.7950  176.4590  147.1820 C   0  0  0  0  0  3  0  0  0  0  0  0
  188.0190  176.7140  146.3970 C   0  0  0  0  0  0  0  0  0  0  0  0
  191.5850  177.6030  142.9550 O   0  0  0  0  0  0  0  0  0  0  0  0
  191.5930  177.5390  144.2130 C   0  0  0  0  0  3  0  0  0  0  0  0
  186.2020  176.8420  143.5370 C   0  0  0  0  0  2  0  0  0  0  0  0
  185.7860  177.7030  141.9920 S   0  0  0  0  0  0  0  0  0  0  0  0
  187.4650  177.5040  141.3280 C   0  0  0  0  0  2  0  0  0  0  0  0
  188.9440  175.0790  142.0030 N   0  0  0  0  0  2  0  0  0  0  0  0
  188.3100  174.2450  139.9120 O   0  0  0  0  0  0  0  0  0  0  0  0
  187.5040  176.3560  140.4380 N   0  0  0  0  0  2  0  0  0  0  0  0
  188.2590  175.1860  140.7490 C   0  0  0  0  0  0  0  0  0  0  0  0
  189.7480  173.9280  142.4020 C   0  0  2  0  0  0  0  0  0  0  0  0
  189.2360  172.7810  141.8120 F   0  0  0  0  0  0  0  0  0  0  0  0
  189.7030  173.7690  143.9130 C   0  0  0  0  0  1  0  0  0  0  0  0
  193.2520  173.2730  142.0170 O   0  0  0  0  0  1  0  0  0  0  0  0
  191.4640  173.6010  140.7860 O   0  0  0  0  0  0  0  0  0  0  0  0
  191.1990  174.1800  141.9870 C   0  0  2  0  0  3  0  0  0  0  0  0
  191.9430  172.9460  141.9100 N   0  0  0  0  0  0  0  0  0  0  0  0
  1  9  1  0  0  0  0
  2 11  2  0  0  0  0
  3 15  1  6  0  0  0
  3 10  1  0  0  0  0
  3  8  1  0  0  0  0
  6  8  1  0  0  0  0
  6  4  1  0  0  0  0
  7  1  2  0  0  0  0
  7 10  1  0  0  0  0
  8  4  1  0  0  0  0
  8  2  1  0  0  0  0
  9  5  2  0  0  0  0
 10 12  2  0  0  0  0
 12  5  1  0  0  0  0
 12 11  1  0  0  0  0
 13 14  2  0  0  0  0
 14  1  1  0  0  0  0
 16 15  1  0  0  0  0
 17 16  1  0  0  0  0
 18 22  1  0  0  0  0
 19 21  2  0  0  0  0
 20 21  1  0  0  0  0
 20 17  1  0  0  0  0
 21 18  1  0  0  0  0
 22 24  1  1  0  0  0
 23 22  1  0  0  0  0
 26 28  1  0  0  0  0
 26 27  1  0  0  0  0
 27 22  1  1  0  0  0
 28 27  1  0  0  0  0
 28 25  1  0  0  0  0
M  END
>  <MODEL>
1

>  <REMARK>
 VINA RESULT:      -6.9      0.000      0.000
  Name = 
  7 active torsions:
  status: ('A' for Active; 'I' for Inactive)
    1  A    between atoms: C_1  and  C_25
    2  A    between atoms: C_3  and  C_4
    3  A    between atoms: C_4  and  S_14
    4  A    between atoms: C_5  and  N_13
    5  A    between atoms: C_5  and  C_23
    6  A    between atoms: C_8  and  S_14
    7  A    between atoms: C_8  and  N_20
                            x       y       z     vdW  Elec       q    Type
                         _______ _______ _______ _____ _____    ______ ____

>  <TORSDO>
F 7

$$$$
=
 OpenBabel11062419583D

 28 31  0  0  1  0  0  0  0  0999 V2000
  190.4290  177.4440  144.8590 C   0  0  0  0  0  0  0  0  0  0  0  0
  185.4080  177.6230  145.7630 C   0  0  0  0  0  3  0  0  0  0  0  0
  186.8590  177.7750  143.5990 C   0  0  1  0  0  3  0  0  0  0  0  0
  185.2580  179.6360  144.2660 C   0  0  0  0  0  2  0  0  0  0  0  0
  188.9290  177.0430  146.7240 C   0  0  0  0  0  3  0  0  0  0  0  0
  184.3690  178.5840  143.6150 C   0  0  0  0  0  2  0  0  0  0  0  0
  189.3300  177.6700  144.0260 C   0  0  0  0  0  3  0  0  0  0  0  0
  185.6030  178.1690  144.3820 C   0  0  0  0  0  0  0  0  0  0  0  0
  190.2260  177.1250  146.2070 C   0  0  0  0  0  3  0  0  0  0  0  0
  188.0270  177.5910  144.5320 C   0  0  0  0  0  0  0  0  0  0  0  0
  186.4680  177.2240  146.4680 C   0  0  0  0  0  3  0  0  0  0  0  0
  187.8280  177.2780  145.8970 C   0  0  0  0  0  0  0  0  0  0  0  0
  192.0560  177.0770  143.1660 O   0  0  0  0  0  0  0  0  0  0  0  0
  191.7790  177.5460  144.3020 C   0  0  0  0  0  3  0  0  0  0  0  0
  186.6100  176.4830  142.8330 C   0  0  0  0  0  2  0  0  0  0  0  0
  187.0870  176.6970  141.0930 S   0  0  0  0  0  0  0  0  0  0  0  0
  188.5660  175.6600  141.2810 C   0  0  0  0  0  2  0  0  0  0  0  0
  189.7470  174.0790  143.4330 N   0  0  0  0  0  2  0  0  0  0  0  0
  188.4370  172.2920  142.6850 O   0  0  0  0  0  0  0  0  0  0  0  0
  188.1690  174.2850  141.5300 N   0  0  0  0  0  2  0  0  0  0  0  0
  188.7730  173.4990  142.5550 C   0  0  0  0  0  0  0  0  0  0  0  0
  190.4250  173.3500  144.5010 C   0  0  2  0  0  0  0  0  0  0  0  0
  190.4320  171.9950  144.2030 F   0  0  0  0  0  0  0  0  0  0  0  0
  189.6900  173.5640  145.8140 C   0  0  0  0  0  1  0  0  0  0  0  0
  193.9480  173.3270  145.1690 O   0  0  0  0  0  1  0  0  0  0  0  0
  192.5590  173.7010  143.5090 O   0  0  0  0  0  0  0  0  0  0  0  0
  191.8430  173.9070  144.6450 C   0  0  2  0  0  3  0  0  0  0  0  0
  192.8270  172.8550  144.5740 N   0  0  0  0  0  0  0  0  0  0  0  0
  1  9  1  0  0  0  0
  2 11  2  0  0  0  0
  3 15  1  1  0  0  0
  3  8  1  0  0  0  0
  3 10  1  0  0  0  0
  4  8  1  0  0  0  0
  6  4  1  0  0  0  0
  6  8  1  0  0  0  0
  7 10  1  0  0  0  0
  7  1  2  0  0  0  0
  8  2  1  0  0  0  0
  9  5  2  0  0  0  0
 10 12  2  0  0  0  0
 12 11  1  0  0  0  0
 12  5  1  0  0  0  0
 13 14  2  0  0  0  0
 14  1  1  0  0  0  0
 16 17  1  0  0  0  0
 16 15  1  0  0  0  0
 17 20  1  0  0  0  0
 18 22  1  0  0  0  0
 20 21  1  0  0  0  0
 21 19  2  0  0  0  0
 21 18  1  0  0  0  0
 22 24  1  1  0  0  0
 23 22  1  0  0  0  0
 26 28  1  0  0  0  0
 26 27  1  0  0  0  0
 27 22  1  6  0  0  0
 28 27  1  0  0  0  0
 28 25  1  0  0  0  0
M  END
>  <MODEL>
2

>  <REMARK>
 VINA RESULT:      -6.9      1.646      1.913
  Name = 
  7 active torsions:
  status: ('A' for Active; 'I' for Inactive)
    1  A    between atoms: C_1  and  C_25
    2  A    between atoms: C_3  and  C_4
    3  A    between atoms: C_4  and  S_14
    4  A    between atoms: C_5  and  N_13
    5  A    between atoms: C_5  and  C_23
    6  A    between atoms: C_8  and  S_14
    7  A    between atoms: C_8  and  N_20
                            x       y       z     vdW  Elec       q    Type
                         _______ _______ _______ _____ _____    ______ ____

>  <TORSDO>
F 7

$$$$
=
 OpenBabel11062419583D

 28 31  0  0  1  0  0  0  0  0999 V2000
  190.2740  177.4280  144.7070 C   0  0  0  0  0  0  0  0  0  0  0  0
  185.6820  177.0170  146.8980 C   0  0  0  0  0  3  0  0  0  0  0  0
  186.5070  177.9210  144.5930 C   0  0  1  0  0  3  0  0  0  0  0  0
  185.1930  179.3830  146.2070 C   0  0  0  0  0  2  0  0  0  0  0  0
  189.3150  176.3770  146.6730 C   0  0  0  0  0  3  0  0  0  0  0  0
  184.1340  178.5350  145.5140 C   0  0  0  0  0  2  0  0  0  0  0  0
  188.9990  177.8360  144.3050 C   0  0  0  0  0  3  0  0  0  0  0  0
  185.5170  177.9760  145.7600 C   0  0  0  0  0  0  0  0  0  0  0  0
  190.4290  176.6940  145.8890 C   0  0  0  0  0  3  0  0  0  0  0  0
  187.8770  177.5250  145.0820 C   0  0  0  0  0  0  0  0  0  0  0  0
  186.8810  176.4830  147.1390 C   0  0  0  0  0  3  0  0  0  0  0  0
  188.0400  176.7930  146.2800 C   0  0  0  0  0  0  0  0  0  0  0  0
  192.2990  176.9210  143.5720 O   0  0  0  0  0  0  0  0  0  0  0  0
  191.4290  177.7790  143.8780 C   0  0  0  0  0  3  0  0  0  0  0  0
  186.0290  176.9190  143.5520 C   0  0  0  0  0  2  0  0  0  0  0  0
  185.8600  177.7390  141.9400 S   0  0  0  0  0  0  0  0  0  0  0  0
  187.1800  176.7390  141.1950 C   0  0  0  0  0  2  0  0  0  0  0  0
  188.7740  174.4860  140.2400 N   0  0  0  0  0  2  0  0  0  0  0  0
  188.3160  173.4430  142.2830 O   0  0  0  0  0  0  0  0  0  0  0  0
  187.4350  175.5730  142.0230 N   0  0  0  0  0  2  0  0  0  0  0  0
  188.1800  174.4550  141.5440 C   0  0  0  0  0  0  0  0  0  0  0  0
  189.5420  173.3870  139.6630 C   0  0  2  0  0  0  0  0  0  0  0  0
  188.8750  172.1910  139.8860 F   0  0  0  0  0  0  0  0  0  0  0  0
  190.9120  173.3190  140.3170 C   0  0  0  0  0  1  0  0  0  0  0  0
  189.4720  172.7440  136.1360 O   0  0  0  0  0  1  0  0  0  0  0  0
  188.5790  174.1050  137.6090 O   0  0  0  0  0  0  0  0  0  0  0  0
  189.7330  173.6590  138.1690 C   0  0  2  0  0  3  0  0  0  0  0  0
  188.9140  172.7820  137.3690 N   0  0  0  0  0  0  0  0  0  0  0  0
  1  9  1  0  0  0  0
  2 11  2  0  0  0  0
  3 15  1  6  0  0  0
  3 10  1  0  0  0  0
  3  8  1  0  0  0  0
  6  8  1  0  0  0  0
  6  4  1  0  0  0  0
  7  1  2  0  0  0  0
  7 10  1  0  0  0  0
  8  4  1  0  0  0  0
  8  2  1  0  0  0  0
  9  5  2  0  0  0  0
 10 12  2  0  0  0  0
 12  5  1  0  0  0  0
 12 11  1  0  0  0  0
 13 14  2  0  0  0  0
 14  1  1  0  0  0  0
 16 15  1  0  0  0  0
 17 16  1  0  0  0  0
 17 20  1  0  0  0  0
 18 21  1  0  0  0  0
 21 20  1  0  0  0  0
 21 19  2  0  0  0  0
 22 23  1  0  0  0  0
 22 18  1  0  0  0  0
 22 24  1  1  0  0  0
 25 28  1  0  0  0  0
 26 27  1  0  0  0  0
 27 22  1  1  0  0  0
 28 26  1  0  0  0  0
 28 27  1  0  0  0  0
M  END
>  <MODEL>
3

>  <REMARK>
 VINA RESULT:      -6.7      1.780      2.376
  Name = 
  7 active torsions:
  status: ('A' for Active; 'I' for Inactive)
    1  A    between atoms: C_1  and  C_25
    2  A    between atoms: C_3  and  C_4
    3  A    between atoms: C_4  and  S_14
    4  A    between atoms: C_5  and  N_13
    5  A    between atoms: C_5  and  C_23
    6  A    between atoms: C_8  and  S_14
    7  A    between atoms: C_8  and  N_20
                            x       y       z     vdW  Elec       q    Type
                         _______ _______ _______ _____ _____    ______ ____

>  <TORSDO>
F 7

$$$$
=
 OpenBabel11062419583D

 28 31  0  0  1  0  0  0  0  0999 V2000
  190.1870  177.2540  144.9540 C   0  0  0  0  0  0  0  0  0  0  0  0
  185.2130  177.4080  146.0910 C   0  0  0  0  0  3  0  0  0  0  0  0
  186.5790  177.8320  143.9080 C   0  0  1  0  0  3  0  0  0  0  0  0
  185.0560  179.6130  144.8960 C   0  0  0  0  0  2  0  0  0  0  0  0
  188.7530  176.6260  146.8090 C   0  0  0  0  0  3  0  0  0  0  0  0
  184.1140  178.6820  144.1450 C   0  0  0  0  0  2  0  0  0  0  0  0
  189.0620  177.6160  144.2090 C   0  0  0  0  0  3  0  0  0  0  0  0
  185.3670  178.1380  144.7930 C   0  0  0  0  0  0  0  0  0  0  0  0
  190.0290  176.7540  146.2520 C   0  0  0  0  0  3  0  0  0  0  0  0
  187.7790  177.4940  144.7550 C   0  0  0  0  0  0  0  0  0  0  0  0
  186.2890  176.8930  146.6870 C   0  0  0  0  0  3  0  0  0  0  0  0
  187.6260  176.9980  146.0700 C   0  0  0  0  0  0  0  0  0  0  0  0
  192.5510  177.0130  144.9600 O   0  0  0  0  0  0  0  0  0  0  0  0
  191.5160  177.4050  144.3590 C   0  0  0  0  0  3  0  0  0  0  0  0
  186.2650  176.6650  142.9820 C   0  0  0  0  0  2  0  0  0  0  0  0
  186.6040  177.1370  141.2600 S   0  0  0  0  0  0  0  0  0  0  0  0
  188.0990  176.1090  141.1810 C   0  0  0  0  0  2  0  0  0  0  0  0
  190.1750  174.4590  142.4030 N   0  0  0  0  0  2  0  0  0  0  0  0
  188.5420  172.8060  142.6750 O   0  0  0  0  0  0  0  0  0  0  0  0
  187.8140  174.7910  141.7190 N   0  0  0  0  0  2  0  0  0  0  0  0
  188.8340  173.9670  142.2810 C   0  0  0  0  0  0  0  0  0  0  0  0
  191.2840  173.6860  142.9530 C   0  0  2  0  0  0  0  0  0  0  0  0
  191.2300  172.3880  142.4650 F   0  0  0  0  0  0  0  0  0  0  0  0
  191.1830  173.6500  144.4690 C   0  0  0  0  0  1  0  0  0  0  0  0
  194.6190  174.0110  141.6750 O   0  0  0  0  0  1  0  0  0  0  0  0
  192.5890  174.7390  141.2640 O   0  0  0  0  0  0  0  0  0  0  0  0
  192.5960  174.3790  142.5740 C   0  0  2  0  0  3  0  0  0  0  0  0
  193.3270  173.6140  141.5950 N   0  0  0  0  0  0  0  0  0  0  0  0
  1  9  1  0  0  0  0
  2 11  2  0  0  0  0
  3 15  1  6  0  0  0
  3 10  1  0  0  0  0
  3  8  1  0  0  0  0
  6  8  1  0  0  0  0
  6  4  1  0  0  0  0
  7 10  1  0  0  0  0
  7  1  2  0  0  0  0
  8  4  1  0  0  0  0
  8  2  1  0  0  0  0
  9  5  2  0  0  0  0
 10 12  2  0  0  0  0
 12 11  1  0  0  0  0
 12  5  1  0  0  0  0
 14  1  1  0  0  0  0
 14 13  2  0  0  0  0
 16 15  1  0  0  0  0
 17 16  1  0  0  0  0
 17 20  1  0  0  0  0
 18 22  1  0  0  0  0
 20 21  1  0  0  0  0
 21 18  1  0  0  0  0
 21 19  2  0  0  0  0
 22 24  1  1  0  0  0
 23 22  1  0  0  0  0
 26 28  1  0  0  0  0
 26 27  1  0  0  0  0
 27 22  1  6  0  0  0
 28 25  1  0  0  0  0
 28 27  1  0  0  0  0
M  END
>  <MODEL>
4

>  <REMARK>
 VINA RESULT:      -6.6      1.328      1.424
  Name = 
  7 active torsions:
  status: ('A' for Active; 'I' for Inactive)
    1  A    between atoms: C_1  and  C_25
    2  A    between atoms: C_3  and  C_4
    3  A    between atoms: C_4  and  S_14
    4  A    between atoms: C_5  and  N_13
    5  A    between atoms: C_5  and  C_23
    6  A    between atoms: C_8  and  S_14
    7  A    between atoms: C_8  and  N_20
                            x       y       z     vdW  Elec       q    Type
                         _______ _______ _______ _____ _____    ______ ____

>  <TORSDO>
F 7

$$$$
=
 OpenBabel11062419583D

 28 31  0  0  1  0  0  0  0  0999 V2000
  187.7120  176.1000  141.6880 C   0  0  0  0  0  0  0  0  0  0  0  0
  185.8460  178.9820  145.4640 C   0  0  0  0  0  3  0  0  0  0  0  0
  187.2150  176.7620  145.3970 C   0  0  1  0  0  3  0  0  0  0  0  0
  184.9520  176.9000  146.5490 C   0  0  0  0  0  2  0  0  0  0  0  0
  186.6900  178.2870  141.9340 C   0  0  0  0  0  3  0  0  0  0  0  0
  185.9280  177.4900  147.5570 C   0  0  0  0  0  2  0  0  0  0  0  0
  187.6910  175.9360  143.0750 C   0  0  0  0  0  3  0  0  0  0  0  0
  186.1720  177.6550  146.0750 C   0  0  0  0  0  0  0  0  0  0  0  0
  187.2160  177.2790  141.1200 C   0  0  0  0  0  3  0  0  0  0  0  0
  187.1670  176.9370  143.9010 C   0  0  0  0  0  0  0  0  0  0  0  0
  186.0650  179.1790  144.1630 C   0  0  0  0  0  3  0  0  0  0  0  0
  186.6580  178.1220  143.3210 C   0  0  0  0  0  0  0  0  0  0  0  0
  189.3820  174.5170  141.0920 O   0  0  0  0  0  0  0  0  0  0  0  0
  188.2560  175.0290  140.8500 C   0  0  0  0  0  3  0  0  0  0  0  0
  188.6070  177.1100  145.9060 C   0  0  0  0  0  2  0  0  0  0  0  0
  189.2870  175.7130  146.8470 S   0  0  0  0  0  0  0  0  0  0  0  0
  190.7970  175.6560  145.8410 C   0  0  0  0  0  2  0  0  0  0  0  0
  193.6500  175.1270  145.5070 N   0  0  0  0  0  2  0  0  0  0  0  0
  194.0380  176.9690  146.8970 O   0  0  0  0  0  0  0  0  0  0  0  0
  191.8110  176.5100  146.4350 N   0  0  0  0  0  2  0  0  0  0  0  0
  193.2040  176.2310  146.3060 C   0  0  0  0  0  0  0  0  0  0  0  0
  195.0500  174.7600  145.3270 C   0  0  2  0  0  0  0  0  0  0  0  0
  195.7200  174.8850  146.5360 F   0  0  0  0  0  0  0  0  0  0  0  0
  195.6960  175.6810  144.3060 C   0  0  0  0  0  1  0  0  0  0  0  0
  196.2090  171.3810  145.0100 O   0  0  0  0  0  1  0  0  0  0  0  0
  194.4000  172.4850  145.5850 O   0  0  0  0  0  0  0  0  0  0  0  0
  195.1120  173.3270  144.7910 C   0  0  2  0  0  3  0  0  0  0  0  0
  195.7790  172.4490  145.7210 N   0  0  0  0  0  0  0  0  0  0  0  0
  1  7  1  0  0  0  0
  2  8  1  0  0  0  0
  3 15  1  1  0  0  0
  3  8  1  0  0  0  0
  4  6  1  0  0  0  0
  5 12  2  0  0  0  0
  7 10  2  0  0  0  0
  8  4  1  0  0  0  0
  8  6  1  0  0  0  0
  9  1  2  0  0  0  0
  9  5  1  0  0  0  0
 10  3  1  0  0  0  0
 11  2  2  0  0  0  0
 12 10  1  0  0  0  0
 12 11  1  0  0  0  0
 14 13  2  0  0  0  0
 14  1  1  0  0  0  0
 15 16  1  0  0  0  0
 17 20  1  0  0  0  0
 17 16  1  0  0  0  0
 18 21  1  0  0  0  0
 21 20  1  0  0  0  0
 21 19  2  0  0  0  0
 22 24  1  6  0  0  0
 22 18  1  0  0  0  0
 22 23  1  0  0  0  0
 25 28  1  0  0  0  0
 26 28  1  0  0  0  0
 27 22  1  1  0  0  0
 27 26  1  0  0  0  0
 27 28  1  0  0  0  0
M  END
>  <MODEL>
5

>  <REMARK>
 VINA RESULT:      -6.6      3.483      5.262
  Name = 
  7 active torsions:
  status: ('A' for Active; 'I' for Inactive)
    1  A    between atoms: C_1  and  C_25
    2  A    between atoms: C_3  and  C_4
    3  A    between atoms: C_4  and  S_14
    4  A    between atoms: C_5  and  N_13
    5  A    between atoms: C_5  and  C_23
    6  A    between atoms: C_8  and  S_14
    7  A    between atoms: C_8  and  N_20
                            x       y       z     vdW  Elec       q    Type
                         _______ _______ _______ _____ _____    ______ ____

>  <TORSDO>
F 7

$$$$
=
 OpenBabel11062419583D

 28 31  0  0  1  0  0  0  0  0999 V2000
  187.8800  175.9900  141.9750 C   0  0  0  0  0  0  0  0  0  0  0  0
  185.6330  179.1930  145.2530 C   0  0  0  0  0  3  0  0  0  0  0  0
  187.0920  177.0490  145.5380 C   0  0  1  0  0  3  0  0  0  0  0  0
  184.7470  177.2080  146.5130 C   0  0  0  0  0  2  0  0  0  0  0  0
  186.7570  178.1400  141.8930 C   0  0  0  0  0  3  0  0  0  0  0  0
  185.6240  177.9570  147.5080 C   0  0  0  0  0  2  0  0  0  0  0  0
  187.7660  175.9850  143.3670 C   0  0  0  0  0  3  0  0  0  0  0  0
  185.9670  177.9620  146.0360 C   0  0  0  0  0  0  0  0  0  0  0  0
  187.3790  177.0720  141.2400 C   0  0  0  0  0  3  0  0  0  0  0  0
  187.1440  177.0490  144.0330 C   0  0  0  0  0  0  0  0  0  0  0  0
  185.9370  179.2500  143.9550 C   0  0  0  0  0  3  0  0  0  0  0  0
  186.6310  178.1330  143.2850 C   0  0  0  0  0  0  0  0  0  0  0  0
  189.7490  174.6120  141.4730 O   0  0  0  0  0  0  0  0  0  0  0  0
  188.5260  174.8580  141.3070 C   0  0  0  0  0  3  0  0  0  0  0  0
  188.4280  177.5190  146.0950 C   0  0  0  0  0  2  0  0  0  0  0  0
  189.2890  176.1300  146.8890 S   0  0  0  0  0  0  0  0  0  0  0  0
  190.9020  176.6380  146.2290 C   0  0  0  0  0  2  0  0  0  0  0  0
  192.6810  176.0350  143.9930 N   0  0  0  0  0  2  0  0  0  0  0  0
  191.4520  177.5850  142.7440 O   0  0  0  0  0  0  0  0  0  0  0  0
  190.7240  177.2450  144.9210 N   0  0  0  0  0  2  0  0  0  0  0  0
  191.6160  176.9810  143.8390 C   0  0  0  0  0  0  0  0  0  0  0  0
  193.6460  175.7100  142.9470 C   0  0  2  0  0  0  0  0  0  0  0  0
  193.7580  176.7820  142.0730 F   0  0  0  0  0  0  0  0  0  0  0  0
  193.1760  174.4890  142.1760 C   0  0  0  0  0  1  0  0  0  0  0  0
  197.1730  175.8810  143.5730 O   0  0  0  0  0  1  0  0  0  0  0  0
  195.2690  176.2640  144.5980 O   0  0  0  0  0  0  0  0  0  0  0  0
  194.9860  175.3770  143.6080 C   0  0  2  0  0  3  0  0  0  0  0  0
  195.9480  176.4310  143.4010 N   0  0  0  0  0  0  0  0  0  0  0  0
  1  7  1  0  0  0  0
  2  8  1  0  0  0  0
  3  8  1  0  0  0  0
  3 15  1  1  0  0  0
  4  6  1  0  0  0  0
  5 12  2  0  0  0  0
  7 10  2  0  0  0  0
  8  4  1  0  0  0  0
  8  6  1  0  0  0  0
  9  5  1  0  0  0  0
  9  1  2  0  0  0  0
 10  3  1  0  0  0  0
 11  2  2  0  0  0  0
 12 11  1  0  0  0  0
 12 10  1  0  0  0  0
 14 13  2  0  0  0  0
 14  1  1  0  0  0  0
 15 16  1  0  0  0  0
 17 16  1  0  0  0  0
 19 21  2  0  0  0  0
 20 17  1  0  0  0  0
 21 18  1  0  0  0  0
 21 20  1  0  0  0  0
 22 24  1  6  0  0  0
 22 18  1  0  0  0  0
 23 22  1  0  0  0  0
 27 22  1  6  0  0  0
 27 26  1  0  0  0  0
 28 25  1  0  0  0  0
 28 27  1  0  0  0  0
 28 26  1  0  0  0  0
M  END
>  <MODEL>
6

>  <REMARK>
 VINA RESULT:      -6.5      2.882      4.463
  Name = 
  7 active torsions:
  status: ('A' for Active; 'I' for Inactive)
    1  A    between atoms: C_1  and  C_25
    2  A    between atoms: C_3  and  C_4
    3  A    between atoms: C_4  and  S_14
    4  A    between atoms: C_5  and  N_13
    5  A    between atoms: C_5  and  C_23
    6  A    between atoms: C_8  and  S_14
    7  A    between atoms: C_8  and  N_20
                            x       y       z     vdW  Elec       q    Type
                         _______ _______ _______ _____ _____    ______ ____

>  <TORSDO>
F 7

$$$$
=
 OpenBabel11062419583D

 28 31  0  0  1  0  0  0  0  0999 V2000
  194.3320  175.9140  144.0810 C   0  0  0  0  0  0  0  0  0  0  0  0
  190.6610  175.5040  147.6040 C   0  0  0  0  0  3  0  0  0  0  0  0
  190.6510  175.7230  145.0040 C   0  0  1  0  0  3  0  0  0  0  0  0
  189.4450  177.3990  146.4890 C   0  0  0  0  0  2  0  0  0  0  0  0
  194.1730  175.4260  146.4530 C   0  0  0  0  0  3  0  0  0  0  0  0
  188.4960  176.2100  146.4090 C   0  0  0  0  0  2  0  0  0  0  0  0
  192.9380  175.9540  143.9970 C   0  0  0  0  0  3  0  0  0  0  0  0
  189.9910  175.9960  146.3590 C   0  0  0  0  0  0  0  0  0  0  0  0
  194.9480  175.6450  145.3100 C   0  0  0  0  0  3  0  0  0  0  0  0
  192.1520  175.7380  145.1350 C   0  0  0  0  0  0  0  0  0  0  0  0
  191.9770  175.2810  147.5990 C   0  0  0  0  0  3  0  0  0  0  0  0
  192.7780  175.4760  146.3750 C   0  0  0  0  0  0  0  0  0  0  0  0
  196.2320  176.7580  142.9300 O   0  0  0  0  0  0  0  0  0  0  0  0
  195.1280  176.1560  142.8750 C   0  0  0  0  0  3  0  0  0  0  0  0
  190.2000  174.3700  144.4690 C   0  0  0  0  0  2  0  0  0  0  0  0
  189.0590  174.6080  143.0750 S   0  0  0  0  0  0  0  0  0  0  0  0
  189.4210  176.3850  142.9680 C   0  0  0  0  0  2  0  0  0  0  0  0
  186.9260  177.6740  143.7650 N   0  0  0  0  0  2  0  0  0  0  0  0
  186.5360  178.0670  141.4930 O   0  0  0  0  0  0  0  0  0  0  0  0
  188.5350  177.0050  141.9990 N   0  0  0  0  0  2  0  0  0  0  0  0
  187.2960  177.6010  142.3830 C   0  0  0  0  0  0  0  0  0  0  0  0
  185.6770  178.2540  144.2490 C   0  0  2  0  0  0  0  0  0  0  0  0
  184.6050  177.6100  143.6480 F   0  0  0  0  0  0  0  0  0  0  0  0
  185.6270  179.7320  143.8980 C   0  0  0  0  0  1  0  0  0  0  0  0
  184.4310  178.6660  147.5860 O   0  0  0  0  0  1  0  0  0  0  0  0
  184.8600  177.0670  146.1430 O   0  0  0  0  0  0  0  0  0  0  0  0
  185.6370  178.1190  145.7730 C   0  0  2  0  0  3  0  0  0  0  0  0
  184.3030  178.3290  146.2820 N   0  0  0  0  0  0  0  0  0  0  0  0
  1  9  1  0  0  0  0
  3 15  1  1  0  0  0
  3 10  1  0  0  0  0
  3  8  1  0  0  0  0
  6  4  1  0  0  0  0
  7  1  2  0  0  0  0
  7 10  1  0  0  0  0
  8  6  1  0  0  0  0
  8  4  1  0  0  0  0
  8  2  1  0  0  0  0
  9  5  2  0  0  0  0
 10 12  2  0  0  0  0
 11  2  2  0  0  0  0
 12  5  1  0  0  0  0
 12 11  1  0  0  0  0
 14 13  2  0  0  0  0
 14  1  1  0  0  0  0
 16 15  1  0  0  0  0
 17 16  1  0  0  0  0
 18 22  1  0  0  0  0
 19 21  2  0  0  0  0
 20 21  1  0  0  0  0
 20 17  1  0  0  0  0
 21 18  1  0  0  0  0
 22 24  1  6  0  0  0
 23 22  1  0  0  0  0
 26 28  1  0  0  0  0
 27 22  1  6  0  0  0
 27 26  1  0  0  0  0
 27 28  1  0  0  0  0
 28 25  1  0  0  0  0
M  END
>  <MODEL>
7

>  <REMARK>
 VINA RESULT:      -6.5      3.806      5.800
  Name = 
  7 active torsions:
  status: ('A' for Active; 'I' for Inactive)
    1  A    between atoms: C_1  and  C_25
    2  A    between atoms: C_3  and  C_4
    3  A    between atoms: C_4  and  S_14
    4  A    between atoms: C_5  and  N_13
    5  A    between atoms: C_5  and  C_23
    6  A    between atoms: C_8  and  S_14
    7  A    between atoms: C_8  and  N_20
                            x       y       z     vdW  Elec       q    Type
                         _______ _______ _______ _____ _____    ______ ____

>  <TORSDO>
F 7

$$$$
=
 OpenBabel11062419583D

 28 31  0  0  1  0  0  0  0  0999 V2000
  190.2160  177.1140  144.8240 C   0  0  0  0  0  0  0  0  0  0  0  0
  185.2380  177.3900  145.9210 C   0  0  0  0  0  3  0  0  0  0  0  0
  186.6430  177.8760  143.7760 C   0  0  1  0  0  3  0  0  0  0  0  0
  185.1740  179.6590  144.8420 C   0  0  0  0  0  2  0  0  0  0  0  0
  188.7400  176.4430  146.6300 C   0  0  0  0  0  3  0  0  0  0  0  0
  184.2080  178.8020  144.0340 C   0  0  0  0  0  2  0  0  0  0  0  0
  189.1130  177.5550  144.0890 C   0  0  0  0  0  3  0  0  0  0  0  0
  185.4320  178.1800  144.6640 C   0  0  0  0  0  0  0  0  0  0  0  0
  190.0260  176.5530  146.0930 C   0  0  0  0  0  3  0  0  0  0  0  0
  187.8200  177.4520  144.6160 C   0  0  0  0  0  0  0  0  0  0  0  0
  186.2890  176.8050  146.5000 C   0  0  0  0  0  3  0  0  0  0  0  0
  187.6350  176.8940  145.9020 C   0  0  0  0  0  0  0  0  0  0  0  0
  191.7330  177.7640  143.1160 O   0  0  0  0  0  0  0  0  0  0  0  0
  191.5560  177.2470  144.2500 C   0  0  0  0  0  3  0  0  0  0  0  0
  186.2980  176.7720  142.7880 C   0  0  0  0  0  2  0  0  0  0  0  0
  186.7000  177.3080  141.0990 S   0  0  0  0  0  0  0  0  0  0  0  0
  187.8360  175.9160  140.8330 C   0  0  0  0  0  2  0  0  0  0  0  0
  190.2330  174.5930  141.8470 N   0  0  0  0  0  2  0  0  0  0  0  0
  188.8520  173.5410  143.4140 O   0  0  0  0  0  0  0  0  0  0  0  0
  187.7940  175.0280  141.9820 N   0  0  0  0  0  2  0  0  0  0  0  0
  188.9580  174.3500  142.4540 C   0  0  0  0  0  0  0  0  0  0  0  0
  191.4720  173.9390  142.2560 C   0  0  2  0  0  0  0  0  0  0  0  0
  191.5750  173.9660  143.6390 F   0  0  0  0  0  0  0  0  0  0  0  0
  192.6610  174.6720  141.6570 C   0  0  0  0  0  1  0  0  0  0  0  0
  192.7840  170.7240  141.3610 O   0  0  0  0  0  1  0  0  0  0  0  0
  191.3110  171.6120  142.7260 O   0  0  0  0  0  0  0  0  0  0  0  0
  191.4670  172.5070  141.7160 C   0  0  2  0  0  3  0  0  0  0  0  0
  192.5920  171.7550  142.2160 N   0  0  0  0  0  0  0  0  0  0  0  0
  1  9  1  0  0  0  0
  2 11  2  0  0  0  0
  3 15  1  6  0  0  0
  3 10  1  0  0  0  0
  3  8  1  0  0  0  0
  6  8  1  0  0  0  0
  6  4  1  0  0  0  0
  7 10  1  0  0  0  0
  7  1  2  0  0  0  0
  8  4  1  0  0  0  0
  8  2  1  0  0  0  0
  9  5  2  0  0  0  0
 10 12  2  0  0  0  0
 12 11  1  0  0  0  0
 12  5  1  0  0  0  0
 13 14  2  0  0  0  0
 14  1  1  0  0  0  0
 16 15  1  0  0  0  0
 17 16  1  0  0  0  0
 17 20  1  0  0  0  0
 18 22  1  0  0  0  0
 18 21  1  0  0  0  0
 20 21  1  0  0  0  0
 21 19  2  0  0  0  0
 22 24  1  6  0  0  0
 22 23  1  0  0  0  0
 25 28  1  0  0  0  0
 27 28  1  0  0  0  0
 27 22  1  1  0  0  0
 27 26  1  0  0  0  0
 28 26  1  0  0  0  0
M  END
>  <MODEL>
8

>  <REMARK>
 VINA RESULT:      -6.5      1.502      1.742
  Name = 
  7 active torsions:
  status: ('A' for Active; 'I' for Inactive)
    1  A    between atoms: C_1  and  C_25
    2  A    between atoms: C_3  and  C_4
    3  A    between atoms: C_4  and  S_14
    4  A    between atoms: C_5  and  N_13
    5  A    between atoms: C_5  and  C_23
    6  A    between atoms: C_8  and  S_14
    7  A    between atoms: C_8  and  N_20
                            x       y       z     vdW  Elec       q    Type
                         _______ _______ _______ _____ _____    ______ ____

>  <TORSDO>
F 7

$$$$
=
 OpenBabel11062419583D

 28 31  0  0  1  0  0  0  0  0999 V2000
  185.5570  178.5560  145.5780 C   0  0  0  0  0  0  0  0  0  0  0  0
  189.3090  177.7170  142.2200 C   0  0  0  0  0  3  0  0  0  0  0  0
  189.0310  177.2450  144.7720 C   0  0  1  0  0  3  0  0  0  0  0  0
  190.9410  178.6680  143.8770 C   0  0  0  0  0  2  0  0  0  0  0  0
  185.8660  178.6660  143.1730 C   0  0  0  0  0  3  0  0  0  0  0  0
  191.3940  177.2330  143.6450 C   0  0  0  0  0  2  0  0  0  0  0  0
  186.8510  178.0490  145.7200 C   0  0  0  0  0  3  0  0  0  0  0  0
  189.9270  177.5880  143.5770 C   0  0  0  0  0  0  0  0  0  0  0  0
  185.0640  178.8580  144.3030 C   0  0  0  0  0  3  0  0  0  0  0  0
  187.6640  177.8520  144.5970 C   0  0  0  0  0  0  0  0  0  0  0  0
  188.0100  178.0080  142.1140 C   0  0  0  0  0  3  0  0  0  0  0  0
  187.1650  178.1690  143.3130 C   0  0  0  0  0  0  0  0  0  0  0  0
  185.2270  178.6640  147.9290 O   0  0  0  0  0  0  0  0  0  0  0  0
  184.7360  178.7610  146.7730 C   0  0  0  0  0  3  0  0  0  0  0  0
  188.9040  175.7340  144.9090 C   0  0  0  0  0  2  0  0  0  0  0  0
  189.0610  175.2580  146.6550 S   0  0  0  0  0  0  0  0  0  0  0  0
  190.7960  174.7630  146.4550 C   0  0  0  0  0  2  0  0  0  0  0  0
  193.6250  174.8580  145.7350 N   0  0  0  0  0  2  0  0  0  0  0  0
  193.7750  176.7920  147.0420 O   0  0  0  0  0  0  0  0  0  0  0  0
  191.6650  175.8400  146.8960 N   0  0  0  0  0  2  0  0  0  0  0  0
  193.0550  175.8670  146.5780 C   0  0  0  0  0  0  0  0  0  0  0  0
  195.0350  174.7980  145.3660 C   0  0  2  0  0  0  0  0  0  0  0  0
  195.8170  174.9170  146.5070 F   0  0  0  0  0  0  0  0  0  0  0  0
  195.3670  175.9390  144.4180 C   0  0  0  0  0  1  0  0  0  0  0  0
  196.8190  171.8540  144.3620 O   0  0  0  0  0  1  0  0  0  0  0  0
  194.9900  172.4200  145.4380 O   0  0  0  0  0  0  0  0  0  0  0  0
  195.2930  173.4760  144.6380 C   0  0  2  0  0  3  0  0  0  0  0  0
  196.3350  172.7180  145.2850 N   0  0  0  0  0  0  0  0  0  0  0  0
  1  7  1  0  0  0  0
  1 14  1  0  0  0  0
  2  8  1  0  0  0  0
  3 15  1  6  0  0  0
  5 12  2  0  0  0  0
  5  9  1  0  0  0  0
  6  4  1  0  0  0  0
  8  6  1  0  0  0  0
  8  4  1  0  0  0  0
  8  3  1  0  0  0  0
  9  1  2  0  0  0  0
 10  3  1  0  0  0  0
 10  7  2  0  0  0  0
 11  2  2  0  0  0  0
 11 12  1  0  0  0  0
 12 10  1  0  0  0  0
 14 13  2  0  0  0  0
 15 16  1  0  0  0  0
 17 16  1  0  0  0  0
 17 20  1  0  0  0  0
 18 21  1  0  0  0  0
 21 20  1  0  0  0  0
 21 19  2  0  0  0  0
 22 24  1  6  0  0  0
 22 18  1  0  0  0  0
 22 23  1  0  0  0  0
 25 28  1  0  0  0  0
 27 28  1  0  0  0  0
 27 22  1  1  0  0  0
 27 26  1  0  0  0  0
 28 26  1  0  0  0  0
M  END
>  <MODEL>
9

>  <REMARK>
 VINA RESULT:      -6.4      3.968      6.012
  Name = 
  7 active torsions:
  status: ('A' for Active; 'I' for Inactive)
    1  A    between atoms: C_1  and  C_25
    2  A    between atoms: C_3  and  C_4
    3  A    between atoms: C_4  and  S_14
    4  A    between atoms: C_5  and  N_13
    5  A    between atoms: C_5  and  C_23
    6  A    between atoms: C_8  and  S_14
    7  A    between atoms: C_8  and  N_20
                            x       y       z     vdW  Elec       q    Type
                         _______ _______ _______ _____ _____    ______ ____

>  <TORSDO>
F 7

$$$$
