=
 OpenBabel11062420163D

 25 27  0  0  1  0  0  0  0  0999 V2000
  188.0740  177.1880  143.0760 C   0  0  2  0  0  3  0  0  0  0  0  0
  188.6580  174.4580  142.5210 C   0  0  0  0  0  0  0  0  0  0  0  0
  187.3330  174.9710  142.3540 N   0  0  0  0  0  2  0  0  0  0  0  0
  186.9280  176.1770  143.0770 C   0  0  0  0  0  2  0  0  0  0  0  0
  189.6620  175.2790  143.2260 C   0  0  0  0  0  0  0  0  0  0  0  0
  188.9550  173.2820  142.0770 N   0  0  0  0  0  2  0  0  0  0  0  0
  189.3620  176.5490  143.5320 C   0  0  0  0  0  3  0  0  0  0  0  0
  191.6450  175.1880  144.5180 N   0  0  0  0  0  0  0  0  0  0  0  0
  190.9210  174.7010  143.5940 N   0  0  0  0  0  0  0  0  0  0  0  0
  194.2250  177.1820  146.9420 O   0  0  0  0  0  0  0  0  0  0  0  0
  193.9560  174.8260  143.7640 C   0  0  0  0  0  2  0  0  0  0  0  0
  194.1910  176.3570  146.0460 C   0  0  0  0  0  0  0  0  0  0  0  0
  193.4120  175.0880  146.2120 C   0  0  0  0  0  2  0  0  0  0  0  0
  192.9140  174.5660  144.8610 C   0  0  1  0  0  3  0  0  0  0  0  0
  194.2220  176.2020  143.6710 O   0  0  0  0  0  0  0  0  0  0  0  0
  194.9940  176.5520  144.7940 C   0  0  0  0  0  2  0  0  0  0  0  0
  187.7370  178.3170  143.9300 N   0  0  0  0  0  2  0  0  0  0  0  0
  184.1280  178.5150  146.1520 C   0  0  0  0  0  3  0  0  0  0  0  0
  186.5050  178.0350  146.0450 C   0  0  0  0  0  0  0  0  0  0  0  0
  185.3090  178.1050  146.7730 C   0  0  0  0  0  3  0  0  0  0  0  0
  184.1350  178.8620  144.8000 C   0  0  0  0  0  3  0  0  0  0  0  0
  185.3250  178.8070  144.0710 C   0  0  0  0  0  3  0  0  0  0  0  0
  186.5200  178.4050  144.6850 C   0  0  0  0  0  0  0  0  0  0  0  0
  187.7500  176.0390  146.8190 C   0  0  0  0  0  1  0  0  0  0  0  0
  187.7450  177.5560  146.7300 C   0  0  0  0  0  2  0  0  0  0  0  0
  1  4  1  0  0  0  0
  1  7  1  0  0  0  0
  1 17  1  1  0  0  0
  2  5  1  0  0  0  0
  3  2  1  0  0  0  0
  3  4  1  0  0  0  0
  5  7  2  0  0  0  0
  5  9  1  0  0  0  0
  6  2  2  0  0  0  0
  9  8  2  0  0  0  0
 11 14  1  0  0  0  0
 12 13  1  0  0  0  0
 12 10  2  0  0  0  0
 14  8  1  6  0  0  0
 14 13  1  0  0  0  0
 15 11  1  0  0  0  0
 15 16  1  0  0  0  0
 16 12  1  0  0  0  0
 17 23  1  0  0  0  0
 18 20  1  0  0  0  0
 19 25  1  0  0  0  0
 19 20  2  0  0  0  0
 21 18  2  0  0  0  0
 22 23  2  0  0  0  0
 22 21  1  0  0  0  0
 23 19  1  0  0  0  0
 25 24  1  0  0  0  0
M  END
>  <MODEL>
1

>  <REMARK>
 VINA RESULT:      -6.9      0.000      0.000
  Name = 
  5 active torsions:
  status: ('A' for Active; 'I' for Inactive)
    1  A    between atoms: N_2  and  C_6
    2  A    between atoms: N_2  and  C_25
    3  A    between atoms: C_5  and  C_10
    4  A    between atoms: N_8  and  C_19
    5  A    between atoms: N_16  and  C_18
                            x       y       z     vdW  Elec       q    Type
                         _______ _______ _______ _____ _____    ______ ____

>  <TORSDO>
F 5

$$$$
=
 OpenBabel11062420163D

 25 27  0  0  1  0  0  0  0  0999 V2000
  185.3590  177.9330  143.0280 C   0  0  2  0  0  3  0  0  0  0  0  0
  183.6370  177.9620  140.7600 C   0  0  0  0  0  0  0  0  0  0  0  0
  185.0490  177.7890  140.6050 N   0  0  0  0  0  2  0  0  0  0  0  0
  185.9540  178.2520  141.6560 C   0  0  0  0  0  2  0  0  0  0  0  0
  183.1060  178.3820  142.0710 C   0  0  0  0  0  0  0  0  0  0  0  0
  182.8490  177.7730  139.7550 N   0  0  0  0  0  2  0  0  0  0  0  0
  183.9340  178.4180  143.1260 C   0  0  0  0  0  2  0  0  0  0  0  0
  181.0060  179.0160  141.1760 N   0  0  0  0  0  2  0  0  0  0  0  0
  181.7320  178.7710  142.1910 N   0  0  0  0  0  0  0  0  0  0  0  0
  178.4600  176.4520  143.0340 O   0  0  0  0  0  0  0  0  0  0  0  0
  178.8070  179.0740  140.0810 C   0  0  0  0  0  2  0  0  0  0  0  0
  178.4910  177.3430  142.2040 C   0  0  0  0  0  0  0  0  0  0  0  0
  179.0140  178.6990  142.5660 C   0  0  0  0  0  2  0  0  0  0  0  0
  179.6140  179.4030  141.3450 C   0  0  1  0  0  3  0  0  0  0  0  0
  178.7910  177.6860  139.8670 O   0  0  0  0  0  0  0  0  0  0  0  0
  177.9280  177.1290  140.8280 C   0  0  0  0  0  2  0  0  0  0  0  0
  186.1740  178.5350  144.0720 N   0  0  0  0  0  2  0  0  0  0  0  0
  188.8130  176.3780  146.5970 C   0  0  0  0  0  3  0  0  0  0  0  0
  186.5740  177.1530  146.0720 C   0  0  0  0  0  0  0  0  0  0  0  0
  187.4520  176.4410  146.9000 C   0  0  0  0  0  3  0  0  0  0  0  0
  189.3060  177.0240  145.4620 C   0  0  0  0  0  3  0  0  0  0  0  0
  188.4350  177.7260  144.6260 C   0  0  0  0  0  3  0  0  0  0  0  0
  187.0640  177.7880  144.9130 C   0  0  0  0  0  0  0  0  0  0  0  0
  184.8780  178.4220  147.3550 C   0  0  0  0  0  1  0  0  0  0  0  0
  185.1280  177.2320  146.4450 C   0  0  0  0  0  2  0  0  0  0  0  0
  1  7  1  0  0  0  0
  1 17  1  1  0  0  0
  2  5  1  0  0  0  0
  3  2  1  0  0  0  0
  3  4  1  0  0  0  0
  4  1  1  0  0  0  0
  5  9  2  0  0  0  0
  5  7  1  0  0  0  0
  6  2  2  0  0  0  0
  8  9  1  0  0  0  0
 11 14  1  0  0  0  0
 12 13  1  0  0  0  0
 12 10  2  0  0  0  0
 14  8  1  6  0  0  0
 14 13  1  0  0  0  0
 15 11  1  0  0  0  0
 15 16  1  0  0  0  0
 16 12  1  0  0  0  0
 17 23  1  0  0  0  0
 18 20  1  0  0  0  0
 19 25  1  0  0  0  0
 19 20  2  0  0  0  0
 21 18  2  0  0  0  0
 22 23  2  0  0  0  0
 22 21  1  0  0  0  0
 23 19  1  0  0  0  0
 25 24  1  0  0  0  0
M  END
>  <MODEL>
2

>  <REMARK>
 VINA RESULT:      -6.9      6.029      9.718
  Name = 
  5 active torsions:
  status: ('A' for Active; 'I' for Inactive)
    1  A    between atoms: N_2  and  C_6
    2  A    between atoms: N_2  and  C_25
    3  A    between atoms: C_5  and  C_10
    4  A    between atoms: N_8  and  C_19
    5  A    between atoms: N_16  and  C_18
                            x       y       z     vdW  Elec       q    Type
                         _______ _______ _______ _____ _____    ______ ____

>  <TORSDO>
F 5

$$$$
=
 OpenBabel11062420163D

 25 27  0  0  1  0  0  0  0  0999 V2000
  188.1300  177.1340  143.2160 C   0  0  2  0  0  3  0  0  0  0  0  0
  188.9240  174.4150  142.9290 C   0  0  0  0  0  0  0  0  0  0  0  0
  187.6590  174.8650  142.4330 N   0  0  0  0  0  2  0  0  0  0  0  0
  187.0530  176.0740  142.9890 C   0  0  0  0  0  2  0  0  0  0  0  0
  189.7030  175.3020  143.8150 C   0  0  0  0  0  0  0  0  0  0  0  0
  189.3590  173.2400  142.6170 N   0  0  0  0  0  2  0  0  0  0  0  0
  189.2940  176.5670  143.9890 C   0  0  0  0  0  3  0  0  0  0  0  0
  191.6450  175.5440  145.1500 N   0  0  0  0  0  0  0  0  0  0  0  0
  190.8580  174.7920  144.4940 N   0  0  0  0  0  0  0  0  0  0  0  0
  194.8820  177.9100  145.8080 O   0  0  0  0  0  0  0  0  0  0  0  0
  193.7100  174.2520  144.8260 C   0  0  0  0  0  2  0  0  0  0  0  0
  194.5610  176.7480  145.6330 C   0  0  0  0  0  0  0  0  0  0  0  0
  193.5800  176.0860  146.5520 C   0  0  0  0  0  2  0  0  0  0  0  0
  192.8030  174.9820  145.8270 C   0  0  1  0  0  3  0  0  0  0  0  0
  194.2240  175.1620  143.8890 O   0  0  0  0  0  0  0  0  0  0  0  0
  195.2010  175.9300  144.5500 C   0  0  0  0  0  2  0  0  0  0  0  0
  187.5600  178.2740  143.9190 N   0  0  0  0  0  2  0  0  0  0  0  0
  184.8340  177.9770  147.1550 C   0  0  0  0  0  3  0  0  0  0  0  0
  185.3140  178.6280  144.8660 C   0  0  0  0  0  0  0  0  0  0  0  0
  184.4190  178.5240  145.9390 C   0  0  0  0  0  3  0  0  0  0  0  0
  186.1460  177.5270  147.3050 C   0  0  0  0  0  3  0  0  0  0  0  0
  187.0410  177.6150  146.2360 C   0  0  0  0  0  3  0  0  0  0  0  0
  186.6340  178.1540  145.0070 C   0  0  0  0  0  0  0  0  0  0  0  0
  184.0590  178.2510  142.7650 C   0  0  0  0  0  1  0  0  0  0  0  0
  184.8490  179.2520  143.5900 C   0  0  0  0  0  2  0  0  0  0  0  0
  1 17  1  1  0  0  0
  1  7  1  0  0  0  0
  2  5  1  0  0  0  0
  3  2  1  0  0  0  0
  3  4  1  0  0  0  0
  4  1  1  0  0  0  0
  5  7  2  0  0  0  0
  5  9  1  0  0  0  0
  6  2  2  0  0  0  0
  9  8  2  0  0  0  0
 11 14  1  0  0  0  0
 12 10  2  0  0  0  0
 12 13  1  0  0  0  0
 14  8  1  6  0  0  0
 14 13  1  0  0  0  0
 15 16  1  0  0  0  0
 15 11  1  0  0  0  0
 16 12  1  0  0  0  0
 17 23  1  0  0  0  0
 18 21  1  0  0  0  0
 19 23  2  0  0  0  0
 19 20  1  0  0  0  0
 20 18  2  0  0  0  0
 22 21  2  0  0  0  0
 23 22  1  0  0  0  0
 24 25  1  0  0  0  0
 25 19  1  0  0  0  0
M  END
>  <MODEL>
3

>  <REMARK>
 VINA RESULT:      -6.8      0.832      1.949
  Name = 
  5 active torsions:
  status: ('A' for Active; 'I' for Inactive)
    1  A    between atoms: N_2  and  C_6
    2  A    between atoms: N_2  and  C_25
    3  A    between atoms: C_5  and  C_10
    4  A    between atoms: N_8  and  C_19
    5  A    between atoms: N_16  and  C_18
                            x       y       z     vdW  Elec       q    Type
                         _______ _______ _______ _____ _____    ______ ____

>  <TORSDO>
F 5

$$$$
=
 OpenBabel11062420163D

 25 27  0  0  1  0  0  0  0  0999 V2000
  188.5180  176.1420  145.6370 C   0  0  2  0  0  3  0  0  0  0  0  0
  191.1880  176.2910  146.6160 C   0  0  0  0  0  0  0  0  0  0  0  0
  190.1780  177.1800  147.1050 N   0  0  0  0  0  2  0  0  0  0  0  0
  188.9890  177.4400  146.2940 C   0  0  0  0  0  2  0  0  0  0  0  0
  190.9050  175.4730  145.4210 C   0  0  0  0  0  0  0  0  0  0  0  0
  192.3350  176.2310  147.2050 N   0  0  0  0  0  2  0  0  0  0  0  0
  189.6560  175.4470  144.9330 C   0  0  0  0  0  3  0  0  0  0  0  0
  192.6730  175.2490  143.8610 N   0  0  0  0  0  0  0  0  0  0  0  0
  191.9660  174.7460  144.7900 N   0  0  0  0  0  0  0  0  0  0  0  0
  196.0250  174.4790  146.0250 O   0  0  0  0  0  0  0  0  0  0  0  0
  194.6560  175.3840  142.4150 C   0  0  0  0  0  2  0  0  0  0  0  0
  195.6320  174.6260  144.8810 C   0  0  0  0  0  0  0  0  0  0  0  0
  194.5510  173.7470  144.3310 C   0  0  0  0  0  2  0  0  0  0  0  0
  193.7440  174.4750  143.2520 C   0  0  1  0  0  3  0  0  0  0  0  0
  195.2920  176.3220  143.2450 O   0  0  0  0  0  0  0  0  0  0  0  0
  196.2780  175.6310  143.9720 C   0  0  0  0  0  2  0  0  0  0  0  0
  187.4380  176.4240  144.7040 N   0  0  0  0  0  2  0  0  0  0  0  0
  184.0650  178.7860  145.7230 C   0  0  0  0  0  3  0  0  0  0  0  0
  185.9100  178.2960  144.2230 C   0  0  0  0  0  0  0  0  0  0  0  0
  184.7930  179.0700  144.5660 C   0  0  0  0  0  3  0  0  0  0  0  0
  184.4460  177.7230  146.5430 C   0  0  0  0  0  3  0  0  0  0  0  0
  185.5510  176.9400  146.2030 C   0  0  0  0  0  3  0  0  0  0  0  0
  186.2850  177.2080  145.0380 C   0  0  0  0  0  0  0  0  0  0  0  0
  185.9190  178.2640  141.7470 C   0  0  0  0  0  1  0  0  0  0  0  0
  186.6900  178.6500  142.9980 C   0  0  0  0  0  2  0  0  0  0  0  0
  1 17  1  6  0  0  0
  1  4  1  0  0  0  0
  2  3  1  0  0  0  0
  2  6  2  0  0  0  0
  4  3  1  0  0  0  0
  5  2  1  0  0  0  0
  7  5  2  0  0  0  0
  7  1  1  0  0  0  0
  8  9  2  0  0  0  0
  9  5  1  0  0  0  0
 11 15  1  0  0  0  0
 11 14  1  0  0  0  0
 12 10  2  0  0  0  0
 13 12  1  0  0  0  0
 14  8  1  1  0  0  0
 14 13  1  0  0  0  0
 15 16  1  0  0  0  0
 16 12  1  0  0  0  0
 17 23  1  0  0  0  0
 18 21  1  0  0  0  0
 19 20  1  0  0  0  0
 19 23  2  0  0  0  0
 20 18  2  0  0  0  0
 22 21  2  0  0  0  0
 23 22  1  0  0  0  0
 24 25  1  0  0  0  0
 25 19  1  0  0  0  0
M  END
>  <MODEL>
4

>  <REMARK>
 VINA RESULT:      -6.7      1.978      3.224
  Name = 
  5 active torsions:
  status: ('A' for Active; 'I' for Inactive)
    1  A    between atoms: N_2  and  C_6
    2  A    between atoms: N_2  and  C_25
    3  A    between atoms: C_5  and  C_10
    4  A    between atoms: N_8  and  C_19
    5  A    between atoms: N_16  and  C_18
                            x       y       z     vdW  Elec       q    Type
                         _______ _______ _______ _____ _____    ______ ____

>  <TORSDO>
F 5

$$$$
=
 OpenBabel11062420163D

 25 27  0  0  1  0  0  0  0  0999 V2000
  190.4970  175.8030  145.5530 C   0  0  2  0  0  3  0  0  0  0  0  0
  187.8900  176.3940  146.5320 C   0  0  0  0  0  0  0  0  0  0  0  0
  188.6140  175.2590  147.0160 N   0  0  0  0  0  2  0  0  0  0  0  0
  189.6850  174.6830  146.2040 C   0  0  0  0  0  2  0  0  0  0  0  0
  188.3890  177.1070  145.3410 C   0  0  0  0  0  0  0  0  0  0  0  0
  186.8040  176.7670  147.1220 N   0  0  0  0  0  2  0  0  0  0  0  0
  189.5960  176.7890  144.8520 C   0  0  0  0  0  3  0  0  0  0  0  0
  187.2570  178.0440  143.4830 N   0  0  0  0  0  0  0  0  0  0  0  0
  187.5710  178.1020  144.7130 N   0  0  0  0  0  0  0  0  0  0  0  0
  183.7800  179.0610  145.3230 O   0  0  0  0  0  0  0  0  0  0  0  0
  185.5130  178.4730  141.8050 C   0  0  0  0  0  2  0  0  0  0  0  0
  184.3100  179.0170  144.2270 C   0  0  0  0  0  0  0  0  0  0  0  0
  185.5830  179.7650  143.9700 C   0  0  0  0  0  2  0  0  0  0  0  0
  186.4190  179.0740  142.8890 C   0  0  1  0  0  3  0  0  0  0  0  0
  184.6250  177.5490  142.3790 O   0  0  0  0  0  0  0  0  0  0  0  0
  183.6590  178.2860  143.0890 C   0  0  0  0  0  2  0  0  0  0  0  0
  191.4580  175.2370  144.6170 N   0  0  0  0  0  2  0  0  0  0  0  0
  195.6660  175.6010  145.0060 C   0  0  0  0  0  3  0  0  0  0  0  0
  193.6720  175.6580  143.6230 C   0  0  0  0  0  0  0  0  0  0  0  0
  195.0620  175.7790  143.7600 C   0  0  0  0  0  3  0  0  0  0  0  0
  194.8860  175.3060  146.1240 C   0  0  0  0  0  3  0  0  0  0  0  0
  193.4990  175.1960  145.9980 C   0  0  0  0  0  3  0  0  0  0  0  0
  192.8780  175.3810  144.7540 C   0  0  0  0  0  0  0  0  0  0  0  0
  192.8860  174.4630  141.6020 C   0  0  0  0  0  1  0  0  0  0  0  0
  193.0600  175.8170  142.2680 C   0  0  0  0  0  2  0  0  0  0  0  0
  1 17  1  6  0  0  0
  1  4  1  0  0  0  0
  2  3  1  0  0  0  0
  2  6  2  0  0  0  0
  4  3  1  0  0  0  0
  5  2  1  0  0  0  0
  7  5  2  0  0  0  0
  7  1  1  0  0  0  0
  8  9  2  0  0  0  0
  9  5  1  0  0  0  0
 11 15  1  0  0  0  0
 11 14  1  0  0  0  0
 12 10  2  0  0  0  0
 13 12  1  0  0  0  0
 14  8  1  1  0  0  0
 14 13  1  0  0  0  0
 15 16  1  0  0  0  0
 16 12  1  0  0  0  0
 17 23  1  0  0  0  0
 18 21  1  0  0  0  0
 19 20  1  0  0  0  0
 19 23  2  0  0  0  0
 20 18  2  0  0  0  0
 22 21  2  0  0  0  0
 23 22  1  0  0  0  0
 24 25  1  0  0  0  0
 25 19  1  0  0  0  0
M  END
>  <MODEL>
5

>  <REMARK>
 VINA RESULT:      -6.7      3.452      7.973
  Name = 
  5 active torsions:
  status: ('A' for Active; 'I' for Inactive)
    1  A    between atoms: N_2  and  C_6
    2  A    between atoms: N_2  and  C_25
    3  A    between atoms: C_5  and  C_10
    4  A    between atoms: N_8  and  C_19
    5  A    between atoms: N_16  and  C_18
                            x       y       z     vdW  Elec       q    Type
                         _______ _______ _______ _____ _____    ______ ____

>  <TORSDO>
F 5

$$$$
=
 OpenBabel11062420163D

 25 27  0  0  1  0  0  0  0  0999 V2000
  189.1130  176.9480  144.4600 C   0  0  2  0  0  3  0  0  0  0  0  0
  191.4660  175.5690  143.6430 C   0  0  0  0  0  0  0  0  0  0  0  0
  191.5530  176.8190  144.3330 N   0  0  0  0  0  2  0  0  0  0  0  0
  190.4150  177.7370  144.3140 C   0  0  0  0  0  2  0  0  0  0  0  0
  190.1570  175.1240  143.1290 C   0  0  0  0  0  0  0  0  0  0  0  0
  192.5280  174.8580  143.4570 N   0  0  0  0  0  2  0  0  0  0  0  0
  189.0570  175.8090  143.4740 C   0  0  0  0  0  3  0  0  0  0  0  0
  189.5280  174.0540  141.1100 N   0  0  0  0  0  0  0  0  0  0  0  0
  190.0840  173.9930  142.2520 N   0  0  0  0  0  0  0  0  0  0  0  0
  191.4650  174.1490  137.5410 O   0  0  0  0  0  0  0  0  0  0  0  0
  188.2020  172.8850  139.4040 C   0  0  0  0  0  2  0  0  0  0  0  0
  190.5170  173.6340  138.1060 C   0  0  0  0  0  0  0  0  0  0  0  0
  190.7220  172.8330  139.3550 C   0  0  0  0  0  2  0  0  0  0  0  0
  189.4820  172.8810  140.2520 C   0  0  1  0  0  3  0  0  0  0  0  0
  188.2020  173.9890  138.5360 O   0  0  0  0  0  0  0  0  0  0  0  0
  189.1370  173.7180  137.5200 C   0  0  0  0  0  2  0  0  0  0  0  0
  187.9750  177.8360  144.2780 N   0  0  0  0  0  2  0  0  0  0  0  0
  184.8320  178.2570  147.0960 C   0  0  0  0  0  3  0  0  0  0  0  0
  185.7220  178.6380  144.8700 C   0  0  0  0  0  0  0  0  0  0  0  0
  184.6870  178.7710  145.8060 C   0  0  0  0  0  3  0  0  0  0  0  0
  186.0100  177.6040  147.4580 C   0  0  0  0  0  3  0  0  0  0  0  0
  187.0420  177.4560  146.5270 C   0  0  0  0  0  3  0  0  0  0  0  0
  186.9050  177.9590  145.2250 C   0  0  0  0  0  0  0  0  0  0  0  0
  184.7410  178.3010  142.6210 C   0  0  0  0  0  1  0  0  0  0  0  0
  185.5500  179.2320  143.5090 C   0  0  0  0  0  2  0  0  0  0  0  0
  1 17  1  6  0  0  0
  2  3  1  0  0  0  0
  4  3  1  0  0  0  0
  4  1  1  0  0  0  0
  5  7  2  0  0  0  0
  5  2  1  0  0  0  0
  6  2  2  0  0  0  0
  7  1  1  0  0  0  0
  8  9  2  0  0  0  0
  9  5  1  0  0  0  0
 10 12  2  0  0  0  0
 11 14  1  0  0  0  0
 12 13  1  0  0  0  0
 13 14  1  0  0  0  0
 14  8  1  6  0  0  0
 15 11  1  0  0  0  0
 16 12  1  0  0  0  0
 16 15  1  0  0  0  0
 17 23  1  0  0  0  0
 18 21  1  0  0  0  0
 19 23  2  0  0  0  0
 19 20  1  0  0  0  0
 20 18  2  0  0  0  0
 22 21  2  0  0  0  0
 23 22  1  0  0  0  0
 24 25  1  0  0  0  0
 25 19  1  0  0  0  0
M  END
>  <MODEL>
6

>  <REMARK>
 VINA RESULT:      -6.6      3.087      5.198
  Name = 
  5 active torsions:
  status: ('A' for Active; 'I' for Inactive)
    1  A    between atoms: N_2  and  C_6
    2  A    between atoms: N_2  and  C_25
    3  A    between atoms: C_5  and  C_10
    4  A    between atoms: N_8  and  C_19
    5  A    between atoms: N_16  and  C_18
                            x       y       z     vdW  Elec       q    Type
                         _______ _______ _______ _____ _____    ______ ____

>  <TORSDO>
F 5

$$$$
=
 OpenBabel11062420163D

 25 27  0  0  1  0  0  0  0  0999 V2000
  188.7970  174.4810  142.9340 C   0  0  2  0  0  3  0  0  0  0  0  0
  187.4270  176.4430  141.3910 C   0  0  0  0  0  0  0  0  0  0  0  0
  188.1730  175.4000  140.7540 N   0  0  0  0  0  2  0  0  0  0  0  0
  189.2380  174.7200  141.4900 C   0  0  0  0  0  2  0  0  0  0  0  0
  187.5820  176.6500  142.8430 C   0  0  0  0  0  0  0  0  0  0  0  0
  186.6510  177.2010  140.6910 N   0  0  0  0  0  2  0  0  0  0  0  0
  188.2730  175.7510  143.5580 C   0  0  0  0  0  3  0  0  0  0  0  0
  185.9210  177.7820  144.0980 N   0  0  0  0  0  0  0  0  0  0  0  0
  187.0200  177.8160  143.4590 N   0  0  0  0  0  0  0  0  0  0  0  0
  186.8400  178.5940  147.9720 O   0  0  0  0  0  0  0  0  0  0  0  0
  183.9700  178.7460  145.2400 C   0  0  0  0  0  2  0  0  0  0  0  0
  185.9790  178.7770  147.1300 C   0  0  0  0  0  0  0  0  0  0  0  0
  186.3130  179.4610  145.8390 C   0  0  0  0  0  2  0  0  0  0  0  0
  185.3910  178.9900  144.7110 C   0  0  1  0  0  3  0  0  0  0  0  0
  183.9970  177.7830  146.2620 O   0  0  0  0  0  0  0  0  0  0  0  0
  184.5510  178.4010  147.3990 C   0  0  0  0  0  2  0  0  0  0  0  0
  189.9100  173.9550  143.7100 N   0  0  0  0  0  2  0  0  0  0  0  0
  192.5550  176.4410  145.9060 C   0  0  0  0  0  3  0  0  0  0  0  0
  190.6550  174.9300  145.8460 C   0  0  0  0  0  0  0  0  0  0  0  0
  191.5340  175.7520  146.5650 C   0  0  0  0  0  3  0  0  0  0  0  0
  192.7060  176.3100  144.5260 C   0  0  0  0  0  3  0  0  0  0  0  0
  191.8410  175.4840  143.8040 C   0  0  0  0  0  3  0  0  0  0  0  0
  190.8180  174.7790  144.4540 C   0  0  0  0  0  0  0  0  0  0  0  0
  188.5910  175.2500  147.1760 C   0  0  0  0  0  1  0  0  0  0  0  0
  189.5500  174.2360  146.5760 C   0  0  0  0  0  2  0  0  0  0  0  0
  1  7  1  0  0  0  0
  1 17  1  1  0  0  0
  2  5  1  0  0  0  0
  3  2  1  0  0  0  0
  3  4  1  0  0  0  0
  4  1  1  0  0  0  0
  5  9  1  0  0  0  0
  5  7  2  0  0  0  0
  6  2  2  0  0  0  0
  9  8  2  0  0  0  0
 11 15  1  0  0  0  0
 12 16  1  0  0  0  0
 12 10  2  0  0  0  0
 13 12  1  0  0  0  0
 14  8  1  1  0  0  0
 14 11  1  0  0  0  0
 14 13  1  0  0  0  0
 15 16  1  0  0  0  0
 17 23  1  0  0  0  0
 18 20  1  0  0  0  0
 19 20  2  0  0  0  0
 19 25  1  0  0  0  0
 21 18  2  0  0  0  0
 22 23  2  0  0  0  0
 22 21  1  0  0  0  0
 23 19  1  0  0  0  0
 25 24  1  0  0  0  0
M  END
>  <MODEL>
7

>  <REMARK>
 VINA RESULT:      -6.5      2.989      6.643
  Name = 
  5 active torsions:
  status: ('A' for Active; 'I' for Inactive)
    1  A    between atoms: N_2  and  C_6
    2  A    between atoms: N_2  and  C_25
    3  A    between atoms: C_5  and  C_10
    4  A    between atoms: N_8  and  C_19
    5  A    between atoms: N_16  and  C_18
                            x       y       z     vdW  Elec       q    Type
                         _______ _______ _______ _____ _____    ______ ____

>  <TORSDO>
F 5

$$$$
=
 OpenBabel11062420163D

 25 27  0  0  1  0  0  0  0  0999 V2000
  188.5330  177.0950  142.0370 C   0  0  2  0  0  3  0  0  0  0  0  0
  189.5270  174.6270  143.0500 C   0  0  0  0  0  0  0  0  0  0  0  0
  188.4180  174.6530  142.1460 N   0  0  0  0  0  2  0  0  0  0  0  0
  187.6170  175.8710  142.0190 C   0  0  0  0  0  2  0  0  0  0  0  0
  189.9880  175.8900  143.6560 C   0  0  0  0  0  0  0  0  0  0  0  0
  190.0950  173.5040  143.3420 N   0  0  0  0  0  2  0  0  0  0  0  0
  189.4780  177.0480  143.2120 C   0  0  0  0  0  3  0  0  0  0  0  0
  192.0480  176.4900  144.6610 N   0  0  0  0  0  0  0  0  0  0  0  0
  190.9460  175.8600  144.7220 N   0  0  0  0  0  0  0  0  0  0  0  0
  196.0250  176.8010  143.8890 O   0  0  0  0  0  0  0  0  0  0  0  0
  193.3100  174.9760  146.1290 C   0  0  0  0  0  2  0  0  0  0  0  0
  195.2350  176.3200  144.6810 C   0  0  0  0  0  0  0  0  0  0  0  0
  194.2690  177.1970  145.4170 C   0  0  0  0  0  2  0  0  0  0  0  0
  192.9890  176.4330  145.7690 C   0  0  1  0  0  3  0  0  0  0  0  0
  193.9560  174.3460  145.0530 O   0  0  0  0  0  0  0  0  0  0  0  0
  195.2670  174.8530  145.0010 C   0  0  0  0  0  2  0  0  0  0  0  0
  187.7330  178.3090  142.0760 N   0  0  0  0  0  2  0  0  0  0  0  0
  183.5010  178.2780  141.7830 C   0  0  0  0  0  3  0  0  0  0  0  0
  185.5120  178.3070  143.1430 C   0  0  0  0  0  0  0  0  0  0  0  0
  184.1140  178.2980  143.0370 C   0  0  0  0  0  3  0  0  0  0  0  0
  184.2800  178.2700  140.6260 C   0  0  0  0  0  3  0  0  0  0  0  0
  185.6730  178.2900  140.7220 C   0  0  0  0  0  3  0  0  0  0  0  0
  186.3020  178.3200  141.9750 C   0  0  0  0  0  0  0  0  0  0  0  0
  185.5770  179.4130  145.3570 C   0  0  0  0  0  1  0  0  0  0  0  0
  186.1380  178.2910  144.5000 C   0  0  0  0  0  2  0  0  0  0  0  0
  1 17  1  1  0  0  0
  1  7  1  0  0  0  0
  2  6  2  0  0  0  0
  2  5  1  0  0  0  0
  3  2  1  0  0  0  0
  4  1  1  0  0  0  0
  4  3  1  0  0  0  0
  5  9  1  0  0  0  0
  7  5  2  0  0  0  0
  8  9  2  0  0  0  0
 10 12  2  0  0  0  0
 12 16  1  0  0  0  0
 12 13  1  0  0  0  0
 13 14  1  0  0  0  0
 14  8  1  6  0  0  0
 14 11  1  0  0  0  0
 15 11  1  0  0  0  0
 16 15  1  0  0  0  0
 18 20  1  0  0  0  0
 19 25  1  0  0  0  0
 20 19  2  0  0  0  0
 21 22  1  0  0  0  0
 21 18  2  0  0  0  0
 22 23  2  0  0  0  0
 23 17  1  0  0  0  0
 23 19  1  0  0  0  0
 25 24  1  0  0  0  0
M  END
>  <MODEL>
8

>  <REMARK>
 VINA RESULT:      -6.4      1.728      2.570
  Name = 
  5 active torsions:
  status: ('A' for Active; 'I' for Inactive)
    1  A    between atoms: N_2  and  C_6
    2  A    between atoms: N_2  and  C_25
    3  A    between atoms: C_5  and  C_10
    4  A    between atoms: N_8  and  C_19
    5  A    between atoms: N_16  and  C_18
                            x       y       z     vdW  Elec       q    Type
                         _______ _______ _______ _____ _____    ______ ____

>  <TORSDO>
F 5

$$$$
=
 OpenBabel11062420163D

 25 27  0  0  1  0  0  0  0  0999 V2000
  189.0240  174.2830  143.1200 C   0  0  2  0  0  3  0  0  0  0  0  0
  187.8110  176.0540  141.2490 C   0  0  0  0  0  0  0  0  0  0  0  0
  188.5650  174.9230  140.8030 N   0  0  0  0  0  2  0  0  0  0  0  0
  189.5620  174.3230  141.6890 C   0  0  0  0  0  2  0  0  0  0  0  0
  187.8800  176.4460  142.6700 C   0  0  0  0  0  0  0  0  0  0  0  0
  187.1030  176.7300  140.4070 N   0  0  0  0  0  2  0  0  0  0  0  0
  188.4980  175.6330  143.5390 C   0  0  0  0  0  3  0  0  0  0  0  0
  186.9240  177.8920  144.2850 N   0  0  0  0  0  0  0  0  0  0  0  0
  187.3130  177.6930  143.0920 N   0  0  0  0  0  0  0  0  0  0  0  0
  184.4400  178.0700  147.4950 O   0  0  0  0  0  0  0  0  0  0  0  0
  185.0980  179.4770  143.8470 C   0  0  0  0  0  2  0  0  0  0  0  0
  184.6810  178.6200  146.4350 C   0  0  0  0  0  0  0  0  0  0  0  0
  186.0420  179.1870  146.1680 C   0  0  0  0  0  2  0  0  0  0  0  0
  186.3590  179.1760  144.6700 C   0  0  1  0  0  3  0  0  0  0  0  0
  184.1030  178.5260  144.1280 O   0  0  0  0  0  0  0  0  0  0  0  0
  183.6020  178.8160  145.4100 C   0  0  0  0  0  2  0  0  0  0  0  0
  190.0700  173.8390  144.0290 N   0  0  0  0  0  2  0  0  0  0  0  0
  190.9960  175.7170  147.7180 C   0  0  0  0  0  3  0  0  0  0  0  0
  191.5290  175.2840  145.3900 C   0  0  0  0  0  0  0  0  0  0  0  0
  191.8270  175.9030  146.6120 C   0  0  0  0  0  3  0  0  0  0  0  0
  189.8600  174.9160  147.6100 C   0  0  0  0  0  3  0  0  0  0  0  0
  189.5490  174.3050  146.3930 C   0  0  0  0  0  3  0  0  0  0  0  0
  190.3700  174.4910  145.2710 C   0  0  0  0  0  0  0  0  0  0  0  0
  193.8120  174.8470  144.5340 C   0  0  0  0  0  1  0  0  0  0  0  0
  192.4590  175.4720  144.2350 C   0  0  0  0  0  2  0  0  0  0  0  0
  1  7  1  0  0  0  0
  1 17  1  1  0  0  0
  2  5  1  0  0  0  0
  3  2  1  0  0  0  0
  3  4  1  0  0  0  0
  4  1  1  0  0  0  0
  5  9  1  0  0  0  0
  5  7  2  0  0  0  0
  6  2  2  0  0  0  0
  9  8  2  0  0  0  0
 11 15  1  0  0  0  0
 11 14  1  0  0  0  0
 12 10  2  0  0  0  0
 13 12  1  0  0  0  0
 14  8  1  6  0  0  0
 14 13  1  0  0  0  0
 15 16  1  0  0  0  0
 16 12  1  0  0  0  0
 17 23  1  0  0  0  0
 19 20  1  0  0  0  0
 20 18  2  0  0  0  0
 21 18  1  0  0  0  0
 22 21  2  0  0  0  0
 23 19  2  0  0  0  0
 23 22  1  0  0  0  0
 25 24  1  0  0  0  0
 25 19  1  0  0  0  0
M  END
>  <MODEL>
9

>  <REMARK>
 VINA RESULT:      -6.4      3.265      6.777
  Name = 
  5 active torsions:
  status: ('A' for Active; 'I' for Inactive)
    1  A    between atoms: N_2  and  C_6
    2  A    between atoms: N_2  and  C_25
    3  A    between atoms: C_5  and  C_10
    4  A    between atoms: N_8  and  C_19
    5  A    between atoms: N_16  and  C_18
                            x       y       z     vdW  Elec       q    Type
                         _______ _______ _______ _____ _____    ______ ____

>  <TORSDO>
F 5

$$$$
