=
 OpenBabel11062422553D

 29 32  0  0  1  0  0  0  0  0999 V2000
  187.7670  176.5310  147.1130 C   0  0  0  0  0  2  0  0  0  0  0  0
  186.7760  177.1420  146.4520 C   0  0  0  0  0  0  0  0  0  0  0  0
  189.2810  176.6720  145.1260 C   0  0  0  0  0  0  0  0  0  0  0  0
  190.6880  176.3730  143.2240 O   0  0  0  0  0  0  0  0  0  0  0  0
  187.0530  177.7150  145.0980 C   0  0  0  0  0  0  0  0  0  0  0  0
  184.3610  177.7000  146.8290 C   0  0  0  0  0  3  0  0  0  0  0  0
  188.3100  177.2800  144.4420 C   0  0  0  0  0  3  0  0  0  0  0  0
  184.2180  178.8310  145.9190 C   0  0  0  0  0  3  0  0  0  0  0  0
  189.1860  176.5370  146.6280 C   0  0  2  0  0  3  0  0  0  0  0  0
  186.2820  178.6010  144.4320 C   0  0  0  0  0  0  0  0  0  0  0  0
  191.0290  174.8800  146.4910 C   0  0  0  0  0  3  0  0  0  0  0  0
  190.5220  176.2240  144.4650 C   0  0  0  0  0  0  0  0  0  0  0  0
  185.4530  176.9880  147.0570 C   0  0  0  0  0  2  0  0  0  0  0  0
  191.6110  175.6040  145.2950 C   0  0  1  0  0  3  0  0  0  0  0  0
  189.9130  175.3080  147.1050 C   0  0  0  0  0  3  0  0  0  0  0  0
  185.0250  179.2010  144.9320 C   0  0  0  0  0  3  0  0  0  0  0  0
  192.5870  176.6850  145.7440 C   0  0  0  0  0  2  0  0  0  0  0  0
  193.8900  176.5600  145.0220 C   0  0  0  0  0  0  0  0  0  0  0  0
  194.8540  177.2940  145.3650 O   0  0  0  0  0  0  0  0  0  0  0  0
  194.1950  176.0220  142.6320 C   0  0  0  0  0  1  0  0  0  0  0  0
  194.0730  175.6320  143.9930 O   0  0  0  0  0  0  0  0  0  0  0  0
  186.7340  179.0250  143.1700 O   0  0  0  0  0  0  0  0  0  0  0  0
  186.0110  178.8200  141.9590 C   0  0  0  0  0  2  0  0  0  0  0  0
  185.8680  177.3320  141.6700 C   0  0  0  0  0  2  0  0  0  0  0  0
  188.2130  177.0300  141.1440 O   0  0  0  0  0  0  0  0  0  0  0  0
  186.8130  177.3760  139.3510 O   0  0  0  0  0  1  0  0  0  0  0  0
  187.8090  175.7100  140.8450 C   0  0  1  0  0  3  0  0  0  0  0  0
  187.5490  174.9630  142.1420 C   0  0  0  0  0  1  0  0  0  0  0  0
  186.9070  176.8750  140.6490 C   0  0  2  0  0  0  0  0  0  0  0  0
  2 13  1  0  0  0  0
  2  1  1  0  0  0  0
  3  9  1  0  0  0  0
  4 12  2  0  0  0  0
  5  2  2  0  0  0  0
  6 13  1  0  0  0  0
  7  5  1  0  0  0  0
  7  3  2  0  0  0  0
  8  6  2  0  0  0  0
  9 15  1  6  0  0  0
  9  1  1  0  0  0  0
 10 16  2  0  0  0  0
 10  5  1  0  0  0  0
 11 15  2  0  0  0  0
 12  3  1  0  0  0  0
 12 14  1  0  0  0  0
 14 17  1  1  0  0  0
 14 11  1  0  0  0  0
 16  8  1  0  0  0  0
 18 19  2  0  0  0  0
 18 17  1  0  0  0  0
 20 21  1  0  0  0  0
 21 18  1  0  0  0  0
 22 10  1  0  0  0  0
 23 22  1  0  0  0  0
 24 23  1  0  0  0  0
 27 25  1  0  0  0  0
 27 28  1  1  0  0  0
 29 26  1  6  0  0  0
 29 27  1  0  0  0  0
 29 25  1  0  0  0  0
 29 24  1  0  0  0  0
M  END
>  <MODEL>
1

>  <REMARK>
 VINA RESULT:      -7.4      0.000      0.000
  Name = 
  7 active torsions:
  status: ('A' for Active; 'I' for Inactive)
    1  A    between atoms: C_1  and  O_7
    2  A    between atoms: C_1  and  C_19
    3  A    between atoms: C_6  and  C_23
    4  A    between atoms: C_6  and  C_27
    5  A    between atoms: O_7  and  C_20
    6  A    between atoms: C_18  and  C_19
    7  A    between atoms: C_23  and  O_24
                            x       y       z     vdW  Elec       q    Type
                         _______ _______ _______ _____ _____    ______ ____

>  <TORSDO>
F 7

$$$$
=
 OpenBabel11062422553D

 29 32  0  0  1  0  0  0  0  0999 V2000
  188.2950  177.3270  146.6090 C   0  0  0  0  0  2  0  0  0  0  0  0
  189.5300  176.8470  146.4230 C   0  0  0  0  0  0  0  0  0  0  0  0
  187.9980  177.7270  144.1580 C   0  0  0  0  0  0  0  0  0  0  0  0
  187.7140  178.5290  141.9300 O   0  0  0  0  0  0  0  0  0  0  0  0
  190.0180  176.6230  145.0270 C   0  0  0  0  0  0  0  0  0  0  0  0
  191.4680  176.1100  147.8320 C   0  0  0  0  0  3  0  0  0  0  0  0
  189.2280  177.2560  143.9420 C   0  0  0  0  0  3  0  0  0  0  0  0
  192.1420  175.2210  146.8920 C   0  0  0  0  0  3  0  0  0  0  0  0
  187.3160  177.4990  145.4860 C   0  0  2  0  0  3  0  0  0  0  0  0
  191.0890  175.8870  144.6610 C   0  0  0  0  0  0  0  0  0  0  0  0
  185.6590  179.2200  144.8140 C   0  0  0  0  0  3  0  0  0  0  0  0
  187.2230  178.3730  143.0800 C   0  0  0  0  0  0  0  0  0  0  0  0
  190.3540  176.7950  147.6310 C   0  0  0  0  0  2  0  0  0  0  0  0
  185.8170  178.8260  143.3600 C   0  0  1  0  0  3  0  0  0  0  0  0
  186.3490  178.6110  145.7940 C   0  0  0  0  0  3  0  0  0  0  0  0
  191.9720  175.1310  145.5780 C   0  0  0  0  0  3  0  0  0  0  0  0
  184.8420  177.7140  142.9970 C   0  0  0  0  0  2  0  0  0  0  0  0
  184.0280  178.0890  141.7990 C   0  0  0  0  0  0  0  0  0  0  0  0
  184.5970  178.1950  140.6810 O   0  0  0  0  0  0  0  0  0  0  0  0
  181.8070  178.2850  140.7420 C   0  0  0  0  0  1  0  0  0  0  0  0
  182.6500  178.3000  141.8850 O   0  0  0  0  0  0  0  0  0  0  0  0
  191.3670  175.7940  143.2870 O   0  0  0  0  0  0  0  0  0  0  0  0
  191.6710  174.5720  142.6210 C   0  0  0  0  0  2  0  0  0  0  0  0
  190.4440  173.6720  142.5700 C   0  0  0  0  0  2  0  0  0  0  0  0
  188.7610  172.7620  141.0860 O   0  0  0  0  0  0  0  0  0  0  0  0
  190.6800  173.5360  140.0800 O   0  0  0  0  0  1  0  0  0  0  0  0
  188.4400  174.1220  140.8800 C   0  0  1  0  0  3  0  0  0  0  0  0
  187.7090  174.6520  142.1010 C   0  0  0  0  0  1  0  0  0  0  0  0
  189.8260  173.6750  141.1740 C   0  0  2  0  0  0  0  0  0  0  0  0
  2  1  1  0  0  0  0
  2 13  1  0  0  0  0
  3  9  1  0  0  0  0
  4 12  2  0  0  0  0
  5  2  2  0  0  0  0
  7  3  2  0  0  0  0
  7  5  1  0  0  0  0
  8  6  2  0  0  0  0
  9 15  1  1  0  0  0
  9  1  1  0  0  0  0
 10  5  1  0  0  0  0
 10 16  2  0  0  0  0
 11 15  2  0  0  0  0
 12 14  1  0  0  0  0
 12  3  1  0  0  0  0
 13  6  1  0  0  0  0
 14 17  1  1  0  0  0
 14 11  1  0  0  0  0
 16  8  1  0  0  0  0
 18 21  1  0  0  0  0
 18 17  1  0  0  0  0
 19 18  2  0  0  0  0
 20 21  1  0  0  0  0
 22 10  1  0  0  0  0
 23 22  1  0  0  0  0
 24 23  1  0  0  0  0
 25 29  1  0  0  0  0
 27 25  1  0  0  0  0
 27 29  1  0  0  0  0
 27 28  1  1  0  0  0
 29 26  1  6  0  0  0
 29 24  1  0  0  0  0
M  END
>  <MODEL>
2

>  <REMARK>
 VINA RESULT:      -7.3      2.183      6.527
  Name = 
  7 active torsions:
  status: ('A' for Active; 'I' for Inactive)
    1  A    between atoms: C_1  and  O_7
    2  A    between atoms: C_1  and  C_19
    3  A    between atoms: C_6  and  C_23
    4  A    between atoms: C_6  and  C_27
    5  A    between atoms: O_7  and  C_20
    6  A    between atoms: C_18  and  C_19
    7  A    between atoms: C_23  and  O_24
                            x       y       z     vdW  Elec       q    Type
                         _______ _______ _______ _____ _____    ______ ____

>  <TORSDO>
F 7

$$$$
=
 OpenBabel11062422553D

 29 32  0  0  1  0  0  0  0  0999 V2000
  188.8240  177.3230  146.8860 C   0  0  0  0  0  2  0  0  0  0  0  0
  187.9620  177.5490  145.8890 C   0  0  0  0  0  0  0  0  0  0  0  0
  190.4820  176.2940  145.3200 C   0  0  0  0  0  0  0  0  0  0  0  0
  191.9770  174.9460  144.0410 O   0  0  0  0  0  0  0  0  0  0  0  0
  188.3980  177.2980  144.4810 C   0  0  0  0  0  0  0  0  0  0  0  0
  185.6070  178.3690  145.6220 C   0  0  0  0  0  3  0  0  0  0  0  0
  189.6400  176.5050  144.3060 C   0  0  0  0  0  3  0  0  0  0  0  0
  185.6620  178.8510  144.2460 C   0  0  0  0  0  3  0  0  0  0  0  0
  190.2660  176.9830  146.6470 C   0  0  2  0  0  3  0  0  0  0  0  0
  187.7860  177.7400  143.3620 C   0  0  0  0  0  0  0  0  0  0  0  0
  191.9080  175.3970  147.6210 C   0  0  0  0  0  3  0  0  0  0  0  0
  191.7070  175.4880  145.1460 C   0  0  0  0  0  0  0  0  0  0  0  0
  186.5890  177.8210  146.3190 C   0  0  0  0  0  2  0  0  0  0  0  0
  192.6540  175.3380  146.3040 C   0  0  1  0  0  3  0  0  0  0  0  0
  190.8080  176.1530  147.7800 C   0  0  0  0  0  3  0  0  0  0  0  0
  186.5750  178.5900  143.3180 C   0  0  0  0  0  3  0  0  0  0  0  0
  193.7140  176.4300  146.2390 C   0  0  0  0  0  2  0  0  0  0  0  0
  194.9670  175.9190  145.6010 C   0  0  0  0  0  0  0  0  0  0  0  0
  195.5380  174.9100  146.0930 O   0  0  0  0  0  0  0  0  0  0  0  0
  195.2300  176.0420  143.1500 C   0  0  0  0  0  1  0  0  0  0  0  0
  195.5070  176.5180  144.4600 O   0  0  0  0  0  0  0  0  0  0  0  0
  188.3720  177.4010  142.1310 O   0  0  0  0  0  0  0  0  0  0  0  0
  187.7490  176.5660  141.1590 C   0  0  0  0  0  2  0  0  0  0  0  0
  187.7040  175.1240  141.6450 C   0  0  0  0  0  2  0  0  0  0  0  0
  190.0260  174.5050  141.3510 O   0  0  0  0  0  0  0  0  0  0  0  0
  188.6790  174.2740  139.5000 O   0  0  0  0  0  1  0  0  0  0  0  0
  189.5300  173.1940  141.5270 C   0  0  1  0  0  3  0  0  0  0  0  0
  189.2000  172.9790  142.9940 C   0  0  0  0  0  1  0  0  0  0  0  0
  188.7190  174.2660  140.8940 C   0  0  2  0  0  0  0  0  0  0  0  0
  2 13  1  0  0  0  0
  2  1  1  0  0  0  0
  3  9  1  0  0  0  0
  4 12  2  0  0  0  0
  5  2  2  0  0  0  0
  6 13  1  0  0  0  0
  7  5  1  0  0  0  0
  7  3  2  0  0  0  0
  8  6  2  0  0  0  0
  9  1  1  1  0  0  0
  9 15  1  0  0  0  0
 10  5  1  0  0  0  0
 11 15  2  0  0  0  0
 12  3  1  0  0  0  0
 12 14  1  0  0  0  0
 14 17  1  1  0  0  0
 14 11  1  0  0  0  0
 16 10  2  0  0  0  0
 16  8  1  0  0  0  0
 18 19  2  0  0  0  0
 18 17  1  0  0  0  0
 20 21  1  0  0  0  0
 21 18  1  0  0  0  0
 22 10  1  0  0  0  0
 23 24  1  0  0  0  0
 23 22  1  0  0  0  0
 25 27  1  0  0  0  0
 27 28  1  1  0  0  0
 29 26  1  6  0  0  0
 29 25  1  0  0  0  0
 29 27  1  0  0  0  0
 29 24  1  0  0  0  0
M  END
>  <MODEL>
3

>  <REMARK>
 VINA RESULT:      -7.2      1.585      2.143
  Name = 
  7 active torsions:
  status: ('A' for Active; 'I' for Inactive)
    1  A    between atoms: C_1  and  O_7
    2  A    between atoms: C_1  and  C_19
    3  A    between atoms: C_6  and  C_23
    4  A    between atoms: C_6  and  C_27
    5  A    between atoms: O_7  and  C_20
    6  A    between atoms: C_18  and  C_19
    7  A    between atoms: C_23  and  O_24
                            x       y       z     vdW  Elec       q    Type
                         _______ _______ _______ _____ _____    ______ ____

>  <TORSDO>
F 7

$$$$
=
 OpenBabel11062422553D

 29 32  0  0  1  0  0  0  0  0999 V2000
  188.6900  177.9100  147.5920 C   0  0  0  0  0  2  0  0  0  0  0  0
  187.4380  177.8200  147.1300 C   0  0  0  0  0  0  0  0  0  0  0  0
  189.4650  176.0840  146.0670 C   0  0  0  0  0  0  0  0  0  0  0  0
  190.2630  174.1170  144.9800 O   0  0  0  0  0  0  0  0  0  0  0  0
  187.1600  176.9370  145.9550 C   0  0  0  0  0  0  0  0  0  0  0  0
  185.1880  178.7900  147.6630 C   0  0  0  0  0  3  0  0  0  0  0  0
  188.2240  175.9700  145.5900 C   0  0  0  0  0  3  0  0  0  0  0  0
  184.5320  178.6340  146.3700 C   0  0  0  0  0  3  0  0  0  0  0  0
  189.8600  177.2910  146.8850 C   0  0  2  0  0  3  0  0  0  0  0  0
  186.0500  176.9530  145.1870 C   0  0  0  0  0  0  0  0  0  0  0  0
  191.8930  176.0390  147.5620 C   0  0  0  0  0  3  0  0  0  0  0  0
  190.5160  175.1080  145.7160 C   0  0  0  0  0  0  0  0  0  0  0  0
  186.4270  178.4480  147.9810 C   0  0  0  0  0  2  0  0  0  0  0  0
  191.9130  175.3200  146.2290 C   0  0  1  0  0  3  0  0  0  0  0  0
  190.9480  176.9450  147.8660 C   0  0  0  0  0  3  0  0  0  0  0  0
  184.9020  177.8740  145.3460 C   0  0  0  0  0  3  0  0  0  0  0  0
  192.7150  176.1130  145.2050 C   0  0  0  0  0  2  0  0  0  0  0  0
  194.1780  175.8280  145.3370 C   0  0  0  0  0  0  0  0  0  0  0  0
  194.9980  176.7800  145.2630 O   0  0  0  0  0  0  0  0  0  0  0  0
  196.0350  174.2570  145.7540 C   0  0  0  0  0  1  0  0  0  0  0  0
  194.6550  174.5340  145.5660 O   0  0  0  0  0  0  0  0  0  0  0  0
  185.9950  176.0440  144.1170 O   0  0  0  0  0  0  0  0  0  0  0  0
  185.8900  176.4330  142.7510 C   0  0  0  0  0  2  0  0  0  0  0  0
  187.2200  176.2350  142.0360 C   0  0  0  0  0  2  0  0  0  0  0  0
  187.5910  178.6230  142.1700 O   0  0  0  0  0  0  0  0  0  0  0  0
  187.0390  177.8040  140.0930 O   0  0  0  0  0  1  0  0  0  0  0  0
  188.8630  178.2910  141.6530 C   0  0  1  0  0  3  0  0  0  0  0  0
  189.6960  177.6540  142.7520 C   0  0  0  0  0  1  0  0  0  0  0  0
  187.6450  177.5110  141.3140 C   0  0  2  0  0  0  0  0  0  0  0  0
  2  1  1  0  0  0  0
  2 13  1  0  0  0  0
  3  9  1  0  0  0  0
  4 12  2  0  0  0  0
  5  2  2  0  0  0  0
  6 13  1  0  0  0  0
  7  5  1  0  0  0  0
  7  3  2  0  0  0  0
  8  6  2  0  0  0  0
  9  1  1  1  0  0  0
  9 15  1  0  0  0  0
 10 16  2  0  0  0  0
 10  5  1  0  0  0  0
 11 15  2  0  0  0  0
 12  3  1  0  0  0  0
 12 14  1  0  0  0  0
 14 17  1  6  0  0  0
 14 11  1  0  0  0  0
 16  8  1  0  0  0  0
 17 18  1  0  0  0  0
 18 21  1  0  0  0  0
 19 18  2  0  0  0  0
 21 20  1  0  0  0  0
 22 10  1  0  0  0  0
 23 22  1  0  0  0  0
 24 23  1  0  0  0  0
 27 25  1  0  0  0  0
 27 28  1  1  0  0  0
 29 26  1  6  0  0  0
 29 27  1  0  0  0  0
 29 24  1  0  0  0  0
 29 25  1  0  0  0  0
M  END
>  <MODEL>
4

>  <REMARK>
 VINA RESULT:      -7.1      1.685      1.961
  Name = 
  7 active torsions:
  status: ('A' for Active; 'I' for Inactive)
    1  A    between atoms: C_1  and  O_7
    2  A    between atoms: C_1  and  C_19
    3  A    between atoms: C_6  and  C_23
    4  A    between atoms: C_6  and  C_27
    5  A    between atoms: O_7  and  C_20
    6  A    between atoms: C_18  and  C_19
    7  A    between atoms: C_23  and  O_24
                            x       y       z     vdW  Elec       q    Type
                         _______ _______ _______ _____ _____    ______ ____

>  <TORSDO>
F 7

$$$$
=
 OpenBabel11062422553D

 29 32  0  0  1  0  0  0  0  0999 V2000
  188.1780  177.5130  146.3640 C   0  0  0  0  0  2  0  0  0  0  0  0
  189.3800  176.9330  146.2840 C   0  0  0  0  0  0  0  0  0  0  0  0
  187.9920  177.6420  143.8720 C   0  0  0  0  0  0  0  0  0  0  0  0
  187.8400  178.1950  141.5570 O   0  0  0  0  0  0  0  0  0  0  0  0
  189.8970  176.5150  144.9450 C   0  0  0  0  0  0  0  0  0  0  0  0
  191.2130  176.2370  147.8480 C   0  0  0  0  0  3  0  0  0  0  0  0
  189.1910  177.0680  143.7630 C   0  0  0  0  0  3  0  0  0  0  0  0
  191.8520  175.2020  147.0450 C   0  0  0  0  0  3  0  0  0  0  0  0
  187.2510  177.6180  145.1880 C   0  0  2  0  0  3  0  0  0  0  0  0
  190.9250  175.6700  144.7110 C   0  0  0  0  0  0  0  0  0  0  0  0
  185.7440  179.3550  144.2560 C   0  0  0  0  0  3  0  0  0  0  0  0
  187.3010  178.2080  142.6960 C   0  0  0  0  0  0  0  0  0  0  0  0
  190.1580  176.9680  147.5240 C   0  0  0  0  0  2  0  0  0  0  0  0
  185.9230  178.7840  142.8640 C   0  0  1  0  0  3  0  0  0  0  0  0
  186.3560  178.8200  145.3260 C   0  0  0  0  0  3  0  0  0  0  0  0
  191.7200  174.9690  145.7440 C   0  0  0  0  0  3  0  0  0  0  0  0
  184.8830  177.7050  142.5910 C   0  0  0  0  0  2  0  0  0  0  0  0
  183.8810  178.1730  141.5840 C   0  0  0  0  0  0  0  0  0  0  0  0
  184.2620  178.4190  140.4090 O   0  0  0  0  0  0  0  0  0  0  0  0
  181.5090  178.3260  140.9190 C   0  0  0  0  0  1  0  0  0  0  0  0
  182.5300  178.3210  141.9070 O   0  0  0  0  0  0  0  0  0  0  0  0
  191.2410  175.3980  143.3690 O   0  0  0  0  0  0  0  0  0  0  0  0
  192.5300  174.9800  142.9270 C   0  0  0  0  0  2  0  0  0  0  0  0
  193.3730  176.1830  142.5270 C   0  0  0  0  0  2  0  0  0  0  0  0
  195.4180  175.0830  143.2100 O   0  0  0  0  0  0  0  0  0  0  0  0
  194.5400  176.5970  144.7030 O   0  0  0  0  0  1  0  0  0  0  0  0
  196.0190  176.2860  142.7750 C   0  0  1  0  0  3  0  0  0  0  0  0
  196.0230  176.3200  141.2570 C   0  0  0  0  0  1  0  0  0  0  0  0
  194.6520  176.2520  143.3570 C   0  0  2  0  0  0  0  0  0  0  0  0
  2  1  1  0  0  0  0
  2 13  1  0  0  0  0
  3  9  1  0  0  0  0
  4 12  2  0  0  0  0
  5  2  2  0  0  0  0
  7  3  2  0  0  0  0
  7  5  1  0  0  0  0
  8  6  2  0  0  0  0
  9 15  1  1  0  0  0
  9  1  1  0  0  0  0
 10  5  1  0  0  0  0
 10 16  2  0  0  0  0
 11 15  2  0  0  0  0
 12 14  1  0  0  0  0
 12  3  1  0  0  0  0
 13  6  1  0  0  0  0
 14 17  1  1  0  0  0
 14 11  1  0  0  0  0
 16  8  1  0  0  0  0
 18 21  1  0  0  0  0
 18 17  1  0  0  0  0
 19 18  2  0  0  0  0
 20 21  1  0  0  0  0
 22 10  1  0  0  0  0
 23 22  1  0  0  0  0
 24 23  1  0  0  0  0
 24 29  1  0  0  0  0
 25 29  1  0  0  0  0
 27 28  1  6  0  0  0
 27 25  1  0  0  0  0
 27 29  1  0  0  0  0
 29 26  1  1  0  0  0
M  END
>  <MODEL>
5

>  <REMARK>
 VINA RESULT:      -7.1      1.794      7.381
  Name = 
  7 active torsions:
  status: ('A' for Active; 'I' for Inactive)
    1  A    between atoms: C_1  and  O_7
    2  A    between atoms: C_1  and  C_19
    3  A    between atoms: C_6  and  C_23
    4  A    between atoms: C_6  and  C_27
    5  A    between atoms: O_7  and  C_20
    6  A    between atoms: C_18  and  C_19
    7  A    between atoms: C_23  and  O_24
                            x       y       z     vdW  Elec       q    Type
                         _______ _______ _______ _____ _____    ______ ____

>  <TORSDO>
F 7

$$$$
=
 OpenBabel11062422553D

 29 32  0  0  1  0  0  0  0  0999 V2000
  188.6770  177.4930  146.7920 C   0  0  0  0  0  2  0  0  0  0  0  0
  187.8590  177.5870  145.7380 C   0  0  0  0  0  0  0  0  0  0  0  0
  190.4050  176.2920  145.4400 C   0  0  0  0  0  0  0  0  0  0  0  0
  191.9590  174.8070  144.4060 O   0  0  0  0  0  0  0  0  0  0  0  0
  188.3580  177.1670  144.3920 C   0  0  0  0  0  0  0  0  0  0  0  0
  185.5170  178.3500  145.2670 C   0  0  0  0  0  3  0  0  0  0  0  0
  189.6080  176.3680  144.3720 C   0  0  0  0  0  3  0  0  0  0  0  0
  185.6310  178.6570  143.8460 C   0  0  0  0  0  3  0  0  0  0  0  0
  190.1280  177.1380  146.6610 C   0  0  2  0  0  3  0  0  0  0  0  0
  187.7960  177.4620  143.2010 C   0  0  0  0  0  0  0  0  0  0  0  0
  191.7290  175.6980  147.8950 C   0  0  0  0  0  3  0  0  0  0  0  0
  191.6380  175.4800  145.4220 C   0  0  0  0  0  0  0  0  0  0  0  0
  186.4680  177.9000  146.0700 C   0  0  0  0  0  2  0  0  0  0  0  0
  192.5330  175.4820  146.6300 C   0  0  1  0  0  3  0  0  0  0  0  0
  190.6210  176.4590  147.9110 C   0  0  0  0  0  3  0  0  0  0  0  0
  186.5860  178.2910  142.9980 C   0  0  0  0  0  3  0  0  0  0  0  0
  193.5930  176.5660  146.4760 C   0  0  0  0  0  2  0  0  0  0  0  0
  194.7770  176.0500  145.7230 C   0  0  0  0  0  0  0  0  0  0  0  0
  195.1740  176.6720  144.7030 O   0  0  0  0  0  0  0  0  0  0  0  0
  196.3930  174.2340  145.2950 C   0  0  0  0  0  1  0  0  0  0  0  0
  195.4700  174.9100  146.1380 O   0  0  0  0  0  0  0  0  0  0  0  0
  188.4370  176.9780  142.0490 O   0  0  0  0  0  0  0  0  0  0  0  0
  187.8300  176.0840  141.1190 C   0  0  0  0  0  2  0  0  0  0  0  0
  188.0050  174.6420  141.5750 C   0  0  0  0  0  2  0  0  0  0  0  0
  189.4580  172.7130  141.3960 O   0  0  0  0  0  0  0  0  0  0  0  0
  190.5050  174.7590  141.5070 O   0  0  0  0  0  1  0  0  0  0  0  0
  189.5050  173.0780  140.0320 C   0  0  1  0  0  3  0  0  0  0  0  0
  188.1900  172.7020  139.3700 C   0  0  0  0  0  1  0  0  0  0  0  0
  189.3490  174.0860  141.1130 C   0  0  2  0  0  0  0  0  0  0  0  0
  2 13  1  0  0  0  0
  2  1  1  0  0  0  0
  3  9  1  0  0  0  0
  4 12  2  0  0  0  0
  5  2  2  0  0  0  0
  6 13  1  0  0  0  0
  7  5  1  0  0  0  0
  7  3  2  0  0  0  0
  8  6  2  0  0  0  0
  9  1  1  1  0  0  0
  9 15  1  0  0  0  0
 10  5  1  0  0  0  0
 11 15  2  0  0  0  0
 12  3  1  0  0  0  0
 12 14  1  0  0  0  0
 14 17  1  6  0  0  0
 14 11  1  0  0  0  0
 16 10  2  0  0  0  0
 16  8  1  0  0  0  0
 18 21  1  0  0  0  0
 18 17  1  0  0  0  0
 19 18  2  0  0  0  0
 20 21  1  0  0  0  0
 22 10  1  0  0  0  0
 23 24  1  0  0  0  0
 23 22  1  0  0  0  0
 27 28  1  6  0  0  0
 27 29  1  0  0  0  0
 27 25  1  0  0  0  0
 29 25  1  0  0  0  0
 29 26  1  1  0  0  0
 29 24  1  0  0  0  0
M  END
>  <MODEL>
6

>  <REMARK>
 VINA RESULT:      -6.7      1.853      2.588
  Name = 
  7 active torsions:
  status: ('A' for Active; 'I' for Inactive)
    1  A    between atoms: C_1  and  O_7
    2  A    between atoms: C_1  and  C_19
    3  A    between atoms: C_6  and  C_23
    4  A    between atoms: C_6  and  C_27
    5  A    between atoms: O_7  and  C_20
    6  A    between atoms: C_18  and  C_19
    7  A    between atoms: C_23  and  O_24
                            x       y       z     vdW  Elec       q    Type
                         _______ _______ _______ _____ _____    ______ ____

>  <TORSDO>
F 7

$$$$
=
 OpenBabel11062422553D

 29 32  0  0  1  0  0  0  0  0999 V2000
  192.7200  175.7640  146.7910 C   0  0  0  0  0  2  0  0  0  0  0  0
  193.5240  175.4700  145.7630 C   0  0  0  0  0  0  0  0  0  0  0  0
  190.9190  176.5670  145.2520 C   0  0  0  0  0  0  0  0  0  0  0  0
  189.2860  177.7240  143.9540 O   0  0  0  0  0  0  0  0  0  0  0  0
  192.9840  175.5610  144.3710 C   0  0  0  0  0  0  0  0  0  0  0  0
  195.8890  174.7130  145.4130 C   0  0  0  0  0  3  0  0  0  0  0  0
  191.7010  176.2870  144.2070 C   0  0  0  0  0  3  0  0  0  0  0  0
  195.7640  174.0930  144.0990 C   0  0  0  0  0  3  0  0  0  0  0  0
  191.2520  176.0250  146.6220 C   0  0  2  0  0  3  0  0  0  0  0  0
  193.5400  175.0300  143.2610 C   0  0  0  0  0  0  0  0  0  0  0  0
  189.6110  177.6400  147.5470 C   0  0  0  0  0  3  0  0  0  0  0  0
  189.6520  177.3070  145.0860 C   0  0  0  0  0  0  0  0  0  0  0  0
  194.9320  175.2930  146.1210 C   0  0  0  0  0  2  0  0  0  0  0  0
  188.7780  177.5390  146.2870 C   0  0  1  0  0  3  0  0  0  0  0  0
  190.7510  176.9450  147.7030 C   0  0  0  0  0  3  0  0  0  0  0  0
  194.7810  174.2250  143.2160 C   0  0  0  0  0  3  0  0  0  0  0  0
  187.7640  176.4070  146.4040 C   0  0  0  0  0  2  0  0  0  0  0  0
  186.4060  176.8620  145.9720 C   0  0  0  0  0  0  0  0  0  0  0  0
  186.0940  176.7910  144.7540 O   0  0  0  0  0  0  0  0  0  0  0  0
  184.4320  178.2400  146.5160 C   0  0  0  0  0  1  0  0  0  0  0  0
  185.4670  177.3410  146.8890 O   0  0  0  0  0  0  0  0  0  0  0  0
  192.8590  175.2210  142.0470 O   0  0  0  0  0  0  0  0  0  0  0  0
  192.3640  174.1570  141.2390 C   0  0  0  0  0  2  0  0  0  0  0  0
  191.5470  173.1850  142.0800 C   0  0  0  0  0  2  0  0  0  0  0  0
  189.2240  172.6000  142.4350 O   0  0  0  0  0  0  0  0  0  0  0  0
  189.6070  174.5410  141.2610 O   0  0  0  0  0  1  0  0  0  0  0  0
  189.3140  173.5460  143.4790 C   0  0  1  0  0  3  0  0  0  0  0  0
  190.1000  172.9440  144.6310 C   0  0  0  0  0  1  0  0  0  0  0  0
  190.1080  173.6730  142.2300 C   0  0  2  0  0  0  0  0  0  0  0  0
  2 13  1  0  0  0  0
  2  1  1  0  0  0  0
  3  9  1  0  0  0  0
  4 12  2  0  0  0  0
  5  2  2  0  0  0  0
  6 13  1  0  0  0  0
  7  5  1  0  0  0  0
  7  3  2  0  0  0  0
  8  6  2  0  0  0  0
  9  1  1  6  0  0  0
  9 15  1  0  0  0  0
 10  5  1  0  0  0  0
 11 15  2  0  0  0  0
 12  3  1  0  0  0  0
 12 14  1  0  0  0  0
 14 17  1  1  0  0  0
 14 11  1  0  0  0  0
 16 10  2  0  0  0  0
 16  8  1  0  0  0  0
 18 17  1  0  0  0  0
 18 21  1  0  0  0  0
 19 18  2  0  0  0  0
 20 21  1  0  0  0  0
 22 10  1  0  0  0  0
 23 22  1  0  0  0  0
 23 24  1  0  0  0  0
 24 29  1  0  0  0  0
 25 27  1  0  0  0  0
 27 28  1  1  0  0  0
 29 26  1  6  0  0  0
 29 25  1  0  0  0  0
 29 27  1  0  0  0  0
M  END
>  <MODEL>
7

>  <REMARK>
 VINA RESULT:      -6.6      2.465      6.883
  Name = 
  7 active torsions:
  status: ('A' for Active; 'I' for Inactive)
    1  A    between atoms: C_1  and  O_7
    2  A    between atoms: C_1  and  C_19
    3  A    between atoms: C_6  and  C_23
    4  A    between atoms: C_6  and  C_27
    5  A    between atoms: O_7  and  C_20
    6  A    between atoms: C_18  and  C_19
    7  A    between atoms: C_23  and  O_24
                            x       y       z     vdW  Elec       q    Type
                         _______ _______ _______ _____ _____    ______ ____

>  <TORSDO>
F 7

$$$$
=
 OpenBabel11062422553D

 29 32  0  0  1  0  0  0  0  0999 V2000
  186.1580  177.3980  143.3210 C   0  0  0  0  0  2  0  0  0  0  0  0
  186.4170  177.8130  144.5660 C   0  0  0  0  0  0  0  0  0  0  0  0
  188.2720  176.0610  143.2460 C   0  0  0  0  0  0  0  0  0  0  0  0
  190.4110  175.0740  142.8740 O   0  0  0  0  0  0  0  0  0  0  0  0
  187.5780  177.2220  145.3020 C   0  0  2  0  0  3  0  0  0  0  0  0
  185.4460  179.4210  146.2270 C   0  0  0  0  0  3  0  0  0  0  0  0
  188.5570  176.4610  144.4870 C   0  0  0  0  0  3  0  0  0  0  0  0
  185.9510  178.8420  147.4660 C   0  0  0  0  0  3  0  0  0  0  0  0
  186.8810  176.2470  142.6850 C   0  0  2  0  0  3  0  0  0  0  0  0
  187.8050  177.2960  146.6300 C   0  0  0  0  0  0  0  0  0  0  0  0
  187.8310  175.7590  140.4450 C   0  0  0  0  0  3  0  0  0  0  0  0
  189.2560  175.3210  142.4320 C   0  0  0  0  0  0  0  0  0  0  0  0
  185.6410  178.9770  144.9950 C   0  0  0  0  0  3  0  0  0  0  0  0
  188.8600  174.8360  141.0660 C   0  0  1  0  0  3  0  0  0  0  0  0
  186.9210  176.4100  141.1890 C   0  0  0  0  0  3  0  0  0  0  0  0
  186.9260  177.9540  147.6230 C   0  0  0  0  0  3  0  0  0  0  0  0
  188.3140  173.4170  141.1680 C   0  0  0  0  0  2  0  0  0  0  0  0
  189.4110  172.4120  141.0130 C   0  0  0  0  0  0  0  0  0  0  0  0
  189.9410  172.2530  139.8820 O   0  0  0  0  0  0  0  0  0  0  0  0
  189.3420  171.8050  143.4040 C   0  0  0  0  0  1  0  0  0  0  0  0
  189.8780  171.6630  142.0960 O   0  0  0  0  0  0  0  0  0  0  0  0
  188.9550  176.6550  147.1230 O   0  0  0  0  0  0  0  0  0  0  0  0
  190.1880  177.3230  147.3760 C   0  0  0  0  0  2  0  0  0  0  0  0
  191.2760  176.3190  147.7280 C   0  0  0  0  0  2  0  0  0  0  0  0
  192.0070  176.5390  145.4300 O   0  0  0  0  0  0  0  0  0  0  0  0
  191.1060  174.5030  146.0120 O   0  0  0  0  0  1  0  0  0  0  0  0
  193.1480  175.8510  145.8970 C   0  0  1  0  0  3  0  0  0  0  0  0
  194.0000  176.8000  146.7230 C   0  0  0  0  0  1  0  0  0  0  0  0
  191.7980  175.6220  146.4740 C   0  0  2  0  0  0  0  0  0  0  0  0
  1  2  1  0  0  0  0
  2 13  2  0  0  0  0
  2  5  1  0  0  0  0
  3  7  2  0  0  0  0
  5  7  1  1  0  0  0
  5 10  1  0  0  0  0
  6  8  2  0  0  0  0
  8 16  1  0  0  0  0
  9 15  1  6  0  0  0
  9  3  1  0  0  0  0
  9  1  1  0  0  0  0
 10 22  1  0  0  0  0
 10 16  2  0  0  0  0
 11 14  1  0  0  0  0
 11 15  2  0  0  0  0
 12  4  2  0  0  0  0
 12  3  1  0  0  0  0
 13  6  1  0  0  0  0
 14 17  1  1  0  0  0
 14 12  1  0  0  0  0
 18 17  1  0  0  0  0
 18 21  1  0  0  0  0
 19 18  2  0  0  0  0
 21 20  1  0  0  0  0
 22 23  1  0  0  0  0
 23 24  1  0  0  0  0
 25 27  1  0  0  0  0
 25 29  1  0  0  0  0
 27 29  1  0  0  0  0
 27 28  1  1  0  0  0
 29 26  1  6  0  0  0
 29 24  1  0  0  0  0
M  END
>  <MODEL>
8

>  <REMARK>
 VINA RESULT:      -6.6      2.312      5.580
  Name = 
  7 active torsions:
  status: ('A' for Active; 'I' for Inactive)
    1  A    between atoms: C_1  and  O_7
    2  A    between atoms: C_1  and  C_19
    3  A    between atoms: C_6  and  C_23
    4  A    between atoms: C_6  and  C_27
    5  A    between atoms: O_7  and  C_20
    6  A    between atoms: C_18  and  C_19
    7  A    between atoms: C_23  and  O_24
                            x       y       z     vdW  Elec       q    Type
                         _______ _______ _______ _____ _____    ______ ____

>  <TORSDO>
F 7

$$$$
=
 OpenBabel11062422553D

 29 32  0  0  1  0  0  0  0  0999 V2000
  184.6640  177.9220  143.7480 C   0  0  0  0  0  2  0  0  0  0  0  0
  185.2080  178.0870  144.9590 C   0  0  0  0  0  0  0  0  0  0  0  0
  186.9170  177.6940  142.6840 C   0  0  0  0  0  0  0  0  0  0  0  0
  188.9680  177.8540  141.4770 O   0  0  0  0  0  0  0  0  0  0  0  0
  186.6820  177.8950  145.1250 C   0  0  0  0  0  0  0  0  0  0  0  0
  184.4400  178.6540  147.2780 C   0  0  0  0  0  3  0  0  0  0  0  0
  187.4870  177.8590  143.8790 C   0  0  0  0  0  3  0  0  0  0  0  0
  185.5250  178.0640  148.0550 C   0  0  0  0  0  3  0  0  0  0  0  0
  185.4400  177.3930  142.5780 C   0  0  2  0  0  3  0  0  0  0  0  0
  187.3420  177.7300  146.2910 C   0  0  0  0  0  0  0  0  0  0  0  0
  185.6080  177.9310  140.1610 C   0  0  0  0  0  3  0  0  0  0  0  0
  187.7200  177.6780  141.4450 C   0  0  0  0  0  0  0  0  0  0  0  0
  184.3060  178.6560  145.9610 C   0  0  0  0  0  2  0  0  0  0  0  0
  187.0340  177.4220  140.1320 C   0  0  1  0  0  3  0  0  0  0  0  0
  184.8730  177.9200  141.2870 C   0  0  0  0  0  3  0  0  0  0  0  0
  186.7230  177.6770  147.6350 C   0  0  0  0  0  3  0  0  0  0  0  0
  187.0650  175.9300  139.8240 C   0  0  0  0  0  2  0  0  0  0  0  0
  187.2800  175.6920  138.3630 C   0  0  0  0  0  0  0  0  0  0  0  0
  187.9820  174.7120  137.9990 O   0  0  0  0  0  0  0  0  0  0  0  0
  187.0200  176.3990  136.0130 C   0  0  0  0  0  1  0  0  0  0  0  0
  186.7030  176.5150  137.3930 O   0  0  0  0  0  0  0  0  0  0  0  0
  188.7340  177.5500  146.2230 O   0  0  0  0  0  0  0  0  0  0  0  0
  189.4150  176.4190  146.7600 C   0  0  0  0  0  2  0  0  0  0  0  0
  189.3850  175.2600  145.7730 C   0  0  0  0  0  2  0  0  0  0  0  0
  190.8890  174.2050  144.1970 O   0  0  0  0  0  0  0  0  0  0  0  0
  191.5240  176.2800  144.9620 O   0  0  0  0  0  1  0  0  0  0  0  0
  190.2500  175.0540  143.2670 C   0  0  1  0  0  3  0  0  0  0  0  0
  188.8600  174.5170  142.9750 C   0  0  0  0  0  1  0  0  0  0  0  0
  190.4420  175.4430  144.6880 C   0  0  2  0  0  0  0  0  0  0  0  0
  1  2  1  0  0  0  0
  2  5  2  0  0  0  0
  2 13  1  0  0  0  0
  3  7  2  0  0  0  0
  5 10  1  0  0  0  0
  6  8  2  0  0  0  0
  7  5  1  0  0  0  0
  9 15  1  6  0  0  0
  9  3  1  0  0  0  0
  9  1  1  0  0  0  0
 10 16  2  0  0  0  0
 11 15  2  0  0  0  0
 12  4  2  0  0  0  0
 12  3  1  0  0  0  0
 13  6  1  0  0  0  0
 14 17  1  1  0  0  0
 14 11  1  0  0  0  0
 14 12  1  0  0  0  0
 16  8  1  0  0  0  0
 18 17  1  0  0  0  0
 19 18  2  0  0  0  0
 20 21  1  0  0  0  0
 21 18  1  0  0  0  0
 22 10  1  0  0  0  0
 22 23  1  0  0  0  0
 24 23  1  0  0  0  0
 25 29  1  0  0  0  0
 27 28  1  1  0  0  0
 27 25  1  0  0  0  0
 27 29  1  0  0  0  0
 29 26  1  1  0  0  0
 29 24  1  0  0  0  0
M  END
>  <MODEL>
9

>  <REMARK>
 VINA RESULT:      -6.6      1.902      5.871
  Name = 
  7 active torsions:
  status: ('A' for Active; 'I' for Inactive)
    1  A    between atoms: C_1  and  O_7
    2  A    between atoms: C_1  and  C_19
    3  A    between atoms: C_6  and  C_23
    4  A    between atoms: C_6  and  C_27
    5  A    between atoms: O_7  and  C_20
    6  A    between atoms: C_18  and  C_19
    7  A    between atoms: C_23  and  O_24
                            x       y       z     vdW  Elec       q    Type
                         _______ _______ _______ _____ _____    ______ ____

>  <TORSDO>
F 7

$$$$
