=
 OpenBabel11062419323D

 40 43  0  0  1  0  0  0  0  0999 V2000
  193.8920  174.7050  144.8990 C   0  0  2  0  0  3  0  0  0  0  0  0
  196.2810  174.1490  144.2290 C   0  0  0  0  0  0  0  0  0  0  0  0
  195.4150  176.3750  143.7660 C   0  0  0  0  0  3  0  0  0  0  0  0
  197.6960  175.8310  143.1800 C   0  0  0  0  0  3  0  0  0  0  0  0
  196.6430  176.7450  143.2150 C   0  0  0  0  0  3  0  0  0  0  0  0
  197.5190  174.5430  143.6920 C   0  0  0  0  0  3  0  0  0  0  0  0
  195.2210  175.0860  144.2870 C   0  0  0  0  0  0  0  0  0  0  0  0
  197.4090  172.1690  144.9200 O   0  0  0  0  0  0  0  0  0  0  0  0
  196.1380  172.7720  144.8230 C   0  0  1  0  0  3  0  0  0  0  0  0
  196.8480  172.6400  146.1180 C   0  0  0  0  0  2  0  0  0  0  0  0
  192.6420  172.0430  144.7260 O   0  0  0  0  0  0  0  0  0  0  0  0
  192.9110  174.2280  143.9250 N   0  0  0  0  0  2  0  0  0  0  0  0
  192.3620  172.9030  143.8530 C   0  0  0  0  0  0  0  0  0  0  0  0
  191.4600  172.5120  142.7180 C   0  0  2  0  0  3  0  0  0  0  0  0
  188.4870  174.0540  140.2960 C   0  0  0  0  0  2  0  0  0  0  0  0
  189.8800  173.5140  139.9880 C   0  0  0  0  0  2  0  0  0  0  0  0
  190.8180  174.0400  140.8980 O   0  0  0  0  0  0  0  0  0  0  0  0
  189.1630  173.2250  142.4350 O   0  0  0  0  0  0  0  0  0  0  0  0
  188.3460  174.1790  141.8070 C   0  0  0  0  0  2  0  0  0  0  0  0
  190.5130  173.6170  142.2310 C   0  0  0  0  0  3  0  0  0  0  0  0
  191.0760  170.3240  141.7570 C   0  0  0  0  0  1  0  0  0  0  0  0
  190.8160  171.2030  142.8900 N   0  0  0  0  0  2  0  0  0  0  0  0
  193.3080  175.6960  145.9110 C   0  0  0  0  0  2  0  0  0  0  0  0
  192.0030  175.2130  146.5170 C   0  0  0  0  0  2  0  0  0  0  0  0
  191.2930  177.0720  145.1910 O   0  0  0  0  0  1  0  0  0  0  0  0
  190.8850  176.1900  146.1960 C   0  0  1  0  0  3  0  0  0  0  0  0
  189.7780  173.9500  146.0420 C   0  0  0  0  0  1  0  0  0  0  0  0
  189.6220  175.4370  145.7830 C   0  0  1  0  0  3  0  0  0  0  0  0
  188.3810  175.9730  146.4860 C   0  0  0  0  0  2  0  0  0  0  0  0
  186.6170  178.0430  142.9480 O   0  0  0  0  0  0  0  0  0  0  0  0
  184.3510  177.7670  143.0920 O   0  0  0  0  0  0  0  0  0  0  0  0
  185.4510  178.2020  145.1830 C   0  0  2  0  0  3  0  0  0  0  0  0
  187.8920  176.6730  144.2670 O   0  0  0  0  0  0  0  0  0  0  0  0
  187.8850  177.8830  143.5640 C   0  0  1  0  0  3  0  0  0  0  0  0
  186.1710  177.0700  145.9400 C   0  0  1  0  0  3  0  0  0  0  0  0
  184.1400  178.3490  145.6520 O   0  0  0  0  0  1  0  0  0  0  0  0
  187.6790  177.0110  145.6130 C   0  0  1  0  0  3  0  0  0  0  0  0
  185.4380  177.9940  143.6910 C   0  0  0  0  0  0  0  0  0  0  0  0
  185.9830  177.2920  147.4380 C   0  0  0  0  0  1  0  0  0  0  0  0
  188.9580  177.8440  142.4920 C   0  0  0  0  0  1  0  0  0  0  0  0
  1 23  1  6  0  0  0
  2  7  1  0  0  0  0
  3  7  2  0  0  0  0
  4  5  2  0  0  0  0
  4  6  1  0  0  0  0
  5  3  1  0  0  0  0
  6  2  2  0  0  0  0
  7  1  1  0  0  0  0
  8 10  1  0  0  0  0
  9  2  1  6  0  0  0
  9  8  1  0  0  0  0
  9 10  1  0  0  0  0
 12  1  1  0  0  0  0
 13 12  1  0  0  0  0
 13 11  2  0  0  0  0
 14 22  1  1  0  0  0
 14 13  1  0  0  0  0
 15 19  1  0  0  0  0
 16 15  1  0  0  0  0
 16 17  1  0  0  0  0
 17 20  1  0  0  0  0
 19 18  1  0  0  0  0
 20 18  1  0  0  0  0
 20 14  1  0  0  0  0
 21 22  1  0  0  0  0
 23 24  1  0  0  0  0
 26 25  1  6  0  0  0
 26 24  1  0  0  0  0
 28 27  1  1  0  0  0
 28 26  1  0  0  0  0
 28 29  1  0  0  0  0
 30 34  1  0  0  0  0
 30 38  1  0  0  0  0
 31 38  2  0  0  0  0
 32 36  1  1  0  0  0
 32 35  1  0  0  0  0
 33 37  1  0  0  0  0
 34 40  1  6  0  0  0
 34 33  1  0  0  0  0
 35 39  1  1  0  0  0
 37 35  1  0  0  0  0
 37 29  1  1  0  0  0
 38 32  1  0  0  0  0
M  END
>  <MODEL>
1

>  <REMARK>
 VINA RESULT:      -7.1      0.000      0.000
  Name = 
  12 active torsions:
  status: ('A' for Active; 'I' for Inactive)
    1  A    between atoms: C_4  and  C_11
    2  A    between atoms: C_9  and  C_19
    3  A    between atoms: C_9  and  C_34
    4  A    between atoms: C_14  and  C_27
    5  A    between atoms: C_14  and  C_38
    6  A    between atoms: C_20  and  N_33
    7  A    between atoms: C_20  and  C_35
    8  A    between atoms: C_20  and  C_40
    9  A    between atoms: C_23  and  C_34
   10  A    between atoms: C_23  and  C_38
   11  A    between atoms: C_27  and  C_37
   12  A    between atoms: C_27  and  N_39
                            x       y       z     vdW  Elec       q    Type
                         _______ _______ _______ _____ _____    ______ ____

>  <TORSDO>
F 12

$$$$
=
 OpenBabel11062419323D

 40 43  0  0  1  0  0  0  0  0999 V2000
  193.2760  174.5580  145.1680 C   0  0  2  0  0  3  0  0  0  0  0  0
  195.7710  174.8860  144.8010 C   0  0  0  0  0  0  0  0  0  0  0  0
  194.9760  172.7520  145.6590 C   0  0  0  0  0  3  0  0  0  0  0  0
  197.3370  173.0780  145.2590 C   0  0  0  0  0  3  0  0  0  0  0  0
  196.2840  172.2680  145.6850 C   0  0  0  0  0  3  0  0  0  0  0  0
  197.0810  174.3760  144.8120 C   0  0  0  0  0  3  0  0  0  0  0  0
  194.7010  174.0540  145.2090 C   0  0  0  0  0  0  0  0  0  0  0  0
  196.6790  176.7340  143.6060 O   0  0  0  0  0  0  0  0  0  0  0  0
  195.5200  176.2700  144.2620 C   0  0  1  0  0  3  0  0  0  0  0  0
  195.6170  176.3240  142.7820 C   0  0  0  0  0  2  0  0  0  0  0  0
  192.1540  172.5730  143.3010 O   0  0  0  0  0  0  0  0  0  0  0  0
  192.7670  174.7760  143.8140 N   0  0  0  0  0  2  0  0  0  0  0  0
  192.2700  173.7670  142.9220 C   0  0  0  0  0  0  0  0  0  0  0  0
  191.9010  174.1130  141.5090 C   0  0  2  0  0  3  0  0  0  0  0  0
  188.0230  172.7690  142.0030 C   0  0  0  0  0  2  0  0  0  0  0  0
  189.2930  172.0740  141.5230 C   0  0  0  0  0  2  0  0  0  0  0  0
  189.9720  172.8870  140.5930 O   0  0  0  0  0  0  0  0  0  0  0  0
  189.6670  174.4640  142.3790 O   0  0  0  0  0  0  0  0  0  0  0  0
  188.3050  174.2610  142.1070 C   0  0  0  0  0  2  0  0  0  0  0  0
  190.3950  174.1070  141.2120 C   0  0  0  0  0  3  0  0  0  0  0  0
  193.4060  174.3840  139.6330 C   0  0  0  0  0  1  0  0  0  0  0  0
  192.7140  173.4320  140.4930 N   0  0  0  0  0  2  0  0  0  0  0  0
  192.9380  175.6980  146.1330 C   0  0  0  0  0  2  0  0  0  0  0  0
  191.6410  175.4620  146.8870 C   0  0  0  0  0  2  0  0  0  0  0  0
  191.0820  177.2350  145.3850 O   0  0  0  0  0  1  0  0  0  0  0  0
  190.5600  176.3950  146.3720 C   0  0  1  0  0  3  0  0  0  0  0  0
  189.6010  174.1060  146.0400 C   0  0  0  0  0  1  0  0  0  0  0  0
  189.3760  175.5930  145.8360 C   0  0  1  0  0  3  0  0  0  0  0  0
  188.0590  176.0240  146.4700 C   0  0  0  0  0  2  0  0  0  0  0  0
  186.3040  178.2560  143.0280 O   0  0  0  0  0  0  0  0  0  0  0  0
  184.0320  178.1410  143.2640 O   0  0  0  0  0  0  0  0  0  0  0  0
  185.2460  178.4720  145.3100 C   0  0  2  0  0  3  0  0  0  0  0  0
  187.5300  176.7830  144.2800 O   0  0  0  0  0  0  0  0  0  0  0  0
  187.5820  177.9980  143.5880 C   0  0  1  0  0  3  0  0  0  0  0  0
  185.9130  177.2830  146.0270 C   0  0  1  0  0  3  0  0  0  0  0  0
  183.9700  178.7080  145.8350 O   0  0  0  0  0  1  0  0  0  0  0  0
  187.3980  177.1200  145.6360 C   0  0  1  0  0  3  0  0  0  0  0  0
  185.1560  178.2830  143.8180 C   0  0  0  0  0  0  0  0  0  0  0  0
  185.8030  177.5010  147.5340 C   0  0  0  0  0  1  0  0  0  0  0  0
  188.6040  177.8950  142.4720 C   0  0  0  0  0  1  0  0  0  0  0  0
  1  7  1  0  0  0  0
  1 23  1  1  0  0  0
  2  6  2  0  0  0  0
  2  7  1  0  0  0  0
  3  5  1  0  0  0  0
  4  5  2  0  0  0  0
  6  4  1  0  0  0  0
  7  3  2  0  0  0  0
  8  9  1  0  0  0  0
  9  2  1  6  0  0  0
 10  8  1  0  0  0  0
 10  9  1  0  0  0  0
 12  1  1  0  0  0  0
 13 11  2  0  0  0  0
 13 12  1  0  0  0  0
 14 22  1  6  0  0  0
 14 13  1  0  0  0  0
 15 19  1  0  0  0  0
 16 15  1  0  0  0  0
 17 20  1  0  0  0  0
 17 16  1  0  0  0  0
 19 18  1  0  0  0  0
 20 14  1  0  0  0  0
 20 18  1  0  0  0  0
 21 22  1  0  0  0  0
 23 24  1  0  0  0  0
 26 25  1  6  0  0  0
 26 24  1  0  0  0  0
 28 27  1  1  0  0  0
 28 26  1  0  0  0  0
 28 29  1  0  0  0  0
 30 34  1  0  0  0  0
 30 38  1  0  0  0  0
 31 38  2  0  0  0  0
 32 36  1  1  0  0  0
 32 35  1  0  0  0  0
 33 37  1  0  0  0  0
 34 40  1  6  0  0  0
 34 33  1  0  0  0  0
 35 39  1  1  0  0  0
 37 35  1  0  0  0  0
 37 29  1  1  0  0  0
 38 32  1  0  0  0  0
M  END
>  <MODEL>
2

>  <REMARK>
 VINA RESULT:      -7.0      1.405      2.178
  Name = 
  12 active torsions:
  status: ('A' for Active; 'I' for Inactive)
    1  A    between atoms: C_4  and  C_11
    2  A    between atoms: C_9  and  C_19
    3  A    between atoms: C_9  and  C_34
    4  A    between atoms: C_14  and  C_27
    5  A    between atoms: C_14  and  C_38
    6  A    between atoms: C_20  and  N_33
    7  A    between atoms: C_20  and  C_35
    8  A    between atoms: C_20  and  C_40
    9  A    between atoms: C_23  and  C_34
   10  A    between atoms: C_23  and  C_38
   11  A    between atoms: C_27  and  C_37
   12  A    between atoms: C_27  and  N_39
                            x       y       z     vdW  Elec       q    Type
                         _______ _______ _______ _____ _____    ______ ____

>  <TORSDO>
F 12

$$$$
=
 OpenBabel11062419323D

 40 43  0  0  1  0  0  0  0  0999 V2000
  191.6380  173.7290  144.1050 C   0  0  2  0  0  3  0  0  0  0  0  0
  193.8730  174.0670  145.2690 C   0  0  0  0  0  0  0  0  0  0  0  0
  192.7310  175.9980  144.3270 C   0  0  0  0  0  3  0  0  0  0  0  0
  194.8350  176.2950  145.4780 C   0  0  0  0  0  3  0  0  0  0  0  0
  193.7580  176.8310  144.7730 C   0  0  0  0  0  3  0  0  0  0  0  0
  194.8880  174.9220  145.7320 C   0  0  0  0  0  3  0  0  0  0  0  0
  192.7670  174.6170  144.5770 C   0  0  0  0  0  0  0  0  0  0  0  0
  194.3100  171.8700  144.4600 O   0  0  0  0  0  0  0  0  0  0  0  0
  193.9310  172.6000  145.6060 C   0  0  1  0  0  3  0  0  0  0  0  0
  195.2950  172.0390  145.4470 C   0  0  0  0  0  2  0  0  0  0  0  0
  190.8020  171.3630  142.5620 O   0  0  0  0  0  0  0  0  0  0  0  0
  191.5820  173.5700  142.6520 N   0  0  0  0  0  2  0  0  0  0  0  0
  191.2100  172.3790  141.9430 C   0  0  0  0  0  0  0  0  0  0  0  0
  191.3220  172.3140  140.4470 C   0  0  2  0  0  3  0  0  0  0  0  0
  188.1500  174.5260  138.9880 C   0  0  0  0  0  2  0  0  0  0  0  0
  188.6330  174.2430  140.4060 C   0  0  0  0  0  2  0  0  0  0  0  0
  188.9270  172.8730  140.5570 O   0  0  0  0  0  0  0  0  0  0  0  0
  190.1930  173.3530  138.5730 O   0  0  0  0  0  0  0  0  0  0  0  0
  188.9280  173.6330  138.0310 C   0  0  0  0  0  2  0  0  0  0  0  0
  190.0000  172.4940  139.6880 C   0  0  0  0  0  3  0  0  0  0  0  0
  193.5010  171.6410  139.6350 C   0  0  0  0  0  1  0  0  0  0  0  0
  192.1480  171.2030  139.9570 N   0  0  0  0  0  2  0  0  0  0  0  0
  190.2680  173.9890  144.7390 C   0  0  0  0  0  2  0  0  0  0  0  0
  190.3620  174.3460  146.2120 C   0  0  0  0  0  2  0  0  0  0  0  0
  188.5580  174.6170  147.7570 O   0  0  0  0  0  1  0  0  0  0  0  0
  189.1600  175.1750  146.6260 C   0  0  1  0  0  3  0  0  0  0  0  0
  190.9720  176.6780  147.4760 C   0  0  0  0  0  1  0  0  0  0  0  0
  189.5760  176.6220  146.8870 C   0  0  1  0  0  3  0  0  0  0  0  0
  189.4940  177.4760  145.6270 C   0  0  0  0  0  2  0  0  0  0  0  0
  185.2590  177.5370  144.2230 O   0  0  0  0  0  0  0  0  0  0  0  0
  185.2370  178.7200  142.2660 O   0  0  0  0  0  0  0  0  0  0  0  0
  187.1180  177.2510  142.5370 C   0  0  2  0  0  3  0  0  0  0  0  0
  187.1350  177.7520  145.5170 O   0  0  0  0  0  0  0  0  0  0  0  0
  186.0300  176.9360  145.2510 C   0  0  1  0  0  3  0  0  0  0  0  0
  188.3240  177.6740  143.3960 C   0  0  1  0  0  3  0  0  0  0  0  0
  187.3430  177.5600  141.1900 O   0  0  0  0  0  1  0  0  0  0  0  0
  188.2190  177.1600  144.8490 C   0  0  1  0  0  3  0  0  0  0  0  0
  185.8240  177.8740  142.9940 C   0  0  0  0  0  0  0  0  0  0  0  0
  189.5940  177.1240  142.7520 C   0  0  0  0  0  1  0  0  0  0  0  0
  185.1840  176.8160  146.5040 C   0  0  0  0  0  1  0  0  0  0  0  0
  1  7  1  0  0  0  0
  1 23  1  6  0  0  0
  2  6  1  0  0  0  0
  3  7  1  0  0  0  0
  3  5  2  0  0  0  0
  4  6  2  0  0  0  0
  5  4  1  0  0  0  0
  7  2  2  0  0  0  0
  8 10  1  0  0  0  0
  8  9  1  0  0  0  0
  9  2  1  6  0  0  0
 10  9  1  0  0  0  0
 12  1  1  0  0  0  0
 13 11  2  0  0  0  0
 13 12  1  0  0  0  0
 14 22  1  1  0  0  0
 14 13  1  0  0  0  0
 15 16  1  0  0  0  0
 16 17  1  0  0  0  0
 18 20  1  0  0  0  0
 19 18  1  0  0  0  0
 19 15  1  0  0  0  0
 20 14  1  0  0  0  0
 20 17  1  0  0  0  0
 21 22  1  0  0  0  0
 23 24  1  0  0  0  0
 24 26  1  0  0  0  0
 26 28  1  0  0  0  0
 26 25  1  1  0  0  0
 28 27  1  6  0  0  0
 29 28  1  0  0  0  0
 30 34  1  0  0  0  0
 31 38  2  0  0  0  0
 32 36  1  6  0  0  0
 32 38  1  0  0  0  0
 32 35  1  0  0  0  0
 34 33  1  0  0  0  0
 34 40  1  1  0  0  0
 35 39  1  6  0  0  0
 35 37  1  0  0  0  0
 37 33  1  0  0  0  0
 37 29  1  1  0  0  0
 38 30  1  0  0  0  0
M  END
>  <MODEL>
3

>  <REMARK>
 VINA RESULT:      -6.9      1.874      3.050
  Name = 
  12 active torsions:
  status: ('A' for Active; 'I' for Inactive)
    1  A    between atoms: C_4  and  C_11
    2  A    between atoms: C_9  and  C_19
    3  A    between atoms: C_9  and  C_34
    4  A    between atoms: C_14  and  C_27
    5  A    between atoms: C_14  and  C_38
    6  A    between atoms: C_20  and  N_33
    7  A    between atoms: C_20  and  C_35
    8  A    between atoms: C_20  and  C_40
    9  A    between atoms: C_23  and  C_34
   10  A    between atoms: C_23  and  C_38
   11  A    between atoms: C_27  and  C_37
   12  A    between atoms: C_27  and  N_39
                            x       y       z     vdW  Elec       q    Type
                         _______ _______ _______ _____ _____    ______ ____

>  <TORSDO>
F 12

$$$$
=
 OpenBabel11062419323D

 40 43  0  0  1  0  0  0  0  0999 V2000
  191.0480  174.0680  143.5020 C   0  0  2  0  0  3  0  0  0  0  0  0
  190.9160  172.7220  141.3490 C   0  0  0  0  0  0  0  0  0  0  0  0
  192.2500  171.8660  143.1950 C   0  0  0  0  0  3  0  0  0  0  0  0
  192.0710  170.5860  141.1520 C   0  0  0  0  0  3  0  0  0  0  0  0
  192.5780  170.7380  142.4430 C   0  0  0  0  0  3  0  0  0  0  0  0
  191.2380  171.5690  140.6120 C   0  0  0  0  0  3  0  0  0  0  0  0
  191.4110  172.8610  142.6680 C   0  0  0  0  0  0  0  0  0  0  0  0
  189.2620  173.1510  139.6900 O   0  0  0  0  0  0  0  0  0  0  0  0
  189.9710  173.7370  140.7600 C   0  0  1  0  0  3  0  0  0  0  0  0
  188.5510  173.3270  140.8890 C   0  0  0  0  0  2  0  0  0  0  0  0
  192.4050  176.4970  142.5330 O   0  0  0  0  0  0  0  0  0  0  0  0
  192.2020  174.7520  144.0830 N   0  0  0  0  0  2  0  0  0  0  0  0
  192.8600  175.9110  143.5490 C   0  0  0  0  0  0  0  0  0  0  0  0
  194.1180  176.4330  144.1790 C   0  0  2  0  0  3  0  0  0  0  0  0
  197.1770  175.7520  141.4840 C   0  0  0  0  0  2  0  0  0  0  0  0
  195.6690  175.5440  141.3930 C   0  0  0  0  0  2  0  0  0  0  0  0
  195.1930  174.9180  142.5630 O   0  0  0  0  0  0  0  0  0  0  0  0
  196.4360  176.7270  143.5380 O   0  0  0  0  0  0  0  0  0  0  0  0
  197.5270  176.0900  142.9260 C   0  0  0  0  0  2  0  0  0  0  0  0
  195.4110  175.7570  143.7020 C   0  0  0  0  0  3  0  0  0  0  0  0
  194.7910  175.5790  146.3410 C   0  0  0  0  0  1  0  0  0  0  0  0
  194.0330  176.6030  145.6350 N   0  0  0  0  0  2  0  0  0  0  0  0
  189.8940  173.8800  144.4920 C   0  0  0  0  0  2  0  0  0  0  0  0
  190.2150  174.4160  145.8750 C   0  0  0  0  0  2  0  0  0  0  0  0
  188.6300  174.6800  147.6460 O   0  0  0  0  0  1  0  0  0  0  0  0
  189.0370  175.2060  146.4160 C   0  0  1  0  0  3  0  0  0  0  0  0
  190.8180  176.8390  147.0680 C   0  0  0  0  0  1  0  0  0  0  0  0
  189.4020  176.6840  146.5480 C   0  0  1  0  0  3  0  0  0  0  0  0
  189.2310  177.4350  145.2330 C   0  0  0  0  0  2  0  0  0  0  0  0
  184.8790  177.5410  144.2540 O   0  0  0  0  0  0  0  0  0  0  0  0
  184.6890  178.6090  142.2400 O   0  0  0  0  0  0  0  0  0  0  0  0
  186.5520  177.1020  142.4130 C   0  0  2  0  0  3  0  0  0  0  0  0
  186.8810  177.7740  145.3400 O   0  0  0  0  0  0  0  0  0  0  0  0
  185.7350  176.9780  145.2350 C   0  0  1  0  0  3  0  0  0  0  0  0
  187.8480  177.5370  143.1210 C   0  0  1  0  0  3  0  0  0  0  0  0
  186.6470  177.3260  141.0340 O   0  0  0  0  0  1  0  0  0  0  0  0
  187.8770  177.1120  144.6060 C   0  0  1  0  0  3  0  0  0  0  0  0
  185.3260  177.7890  142.9560 C   0  0  0  0  0  0  0  0  0  0  0  0
  189.0330  176.9130  142.3890 C   0  0  0  0  0  1  0  0  0  0  0  0
  185.0160  176.9560  146.5700 C   0  0  0  0  0  1  0  0  0  0  0  0
  1 12  1  0  0  0  0
  1 23  1  1  0  0  0
  2  7  1  0  0  0  0
  4  5  2  0  0  0  0
  5  3  1  0  0  0  0
  6  4  1  0  0  0  0
  6  2  2  0  0  0  0
  7  3  2  0  0  0  0
  7  1  1  0  0  0  0
  8  9  1  0  0  0  0
  8 10  1  0  0  0  0
  9 10  1  0  0  0  0
  9  2  1  1  0  0  0
 11 13  2  0  0  0  0
 13 12  1  0  0  0  0
 14 13  1  1  0  0  0
 14 22  1  0  0  0  0
 15 19  1  0  0  0  0
 16 15  1  0  0  0  0
 16 17  1  0  0  0  0
 17 20  1  0  0  0  0
 18 20  1  0  0  0  0
 19 18  1  0  0  0  0
 20 14  1  0  0  0  0
 22 21  1  0  0  0  0
 23 24  1  0  0  0  0
 24 26  1  0  0  0  0
 26 28  1  0  0  0  0
 26 25  1  1  0  0  0
 28 27  1  6  0  0  0
 29 28  1  0  0  0  0
 30 34  1  0  0  0  0
 31 38  2  0  0  0  0
 32 36  1  6  0  0  0
 32 38  1  0  0  0  0
 32 35  1  0  0  0  0
 34 33  1  0  0  0  0
 34 40  1  1  0  0  0
 35 39  1  6  0  0  0
 35 37  1  0  0  0  0
 37 29  1  1  0  0  0
 37 33  1  0  0  0  0
 38 30  1  0  0  0  0
M  END
>  <MODEL>
4

>  <REMARK>
 VINA RESULT:      -6.9      1.927      5.522
  Name = 
  12 active torsions:
  status: ('A' for Active; 'I' for Inactive)
    1  A    between atoms: C_4  and  C_11
    2  A    between atoms: C_9  and  C_19
    3  A    between atoms: C_9  and  C_34
    4  A    between atoms: C_14  and  C_27
    5  A    between atoms: C_14  and  C_38
    6  A    between atoms: C_20  and  N_33
    7  A    between atoms: C_20  and  C_35
    8  A    between atoms: C_20  and  C_40
    9  A    between atoms: C_23  and  C_34
   10  A    between atoms: C_23  and  C_38
   11  A    between atoms: C_27  and  C_37
   12  A    between atoms: C_27  and  N_39
                            x       y       z     vdW  Elec       q    Type
                         _______ _______ _______ _____ _____    ______ ____

>  <TORSDO>
F 12

$$$$
=
 OpenBabel11062419323D

 40 43  0  0  1  0  0  0  0  0999 V2000
  193.0430  173.8530  145.1860 C   0  0  2  0  0  3  0  0  0  0  0  0
  195.4150  174.6990  144.8350 C   0  0  0  0  0  0  0  0  0  0  0  0
  195.0820  172.4640  145.7350 C   0  0  0  0  0  3  0  0  0  0  0  0
  197.3250  173.2790  145.3500 C   0  0  0  0  0  3  0  0  0  0  0  0
  196.4630  172.2720  145.7850 C   0  0  0  0  0  3  0  0  0  0  0  0
  196.8030  174.4830  144.8700 C   0  0  0  0  0  3  0  0  0  0  0  0
  194.5420  173.6660  145.2520 C   0  0  0  0  0  0  0  0  0  0  0  0
  195.9150  176.6570  143.5740 O   0  0  0  0  0  0  0  0  0  0  0  0
  194.8820  175.9860  144.2610 C   0  0  1  0  0  3  0  0  0  0  0  0
  194.9520  176.0140  142.7790 C   0  0  0  0  0  2  0  0  0  0  0  0
  190.4140  172.6430  144.6340 O   0  0  0  0  0  0  0  0  0  0  0  0
  192.4620  173.5010  143.8900 N   0  0  0  0  0  2  0  0  0  0  0  0
  191.1920  172.8700  143.6730 C   0  0  0  0  0  0  0  0  0  0  0  0
  190.7760  172.4450  142.2940 C   0  0  2  0  0  3  0  0  0  0  0  0
  188.9600  173.9440  138.8970 C   0  0  0  0  0  2  0  0  0  0  0  0
  190.2640  173.1810  139.1080 C   0  0  0  0  0  2  0  0  0  0  0  0
  190.9730  173.7220  140.1990 O   0  0  0  0  0  0  0  0  0  0  0  0
  188.8250  173.3990  141.2220 O   0  0  0  0  0  0  0  0  0  0  0  0
  188.4090  174.3350  140.2610 C   0  0  0  0  0  2  0  0  0  0  0  0
  190.2230  173.5700  141.4080 C   0  0  0  0  0  3  0  0  0  0  0  0
  190.7040  170.1240  141.6140 C   0  0  0  0  0  1  0  0  0  0  0  0
  189.9820  171.2110  142.2620 N   0  0  0  0  0  2  0  0  0  0  0  0
  192.5020  175.1690  145.7540 C   0  0  0  0  0  2  0  0  0  0  0  0
  192.5200  175.2020  147.2720 C   0  0  0  0  0  2  0  0  0  0  0  0
  191.3880  177.0590  148.2640 O   0  0  0  0  0  1  0  0  0  0  0  0
  191.2070  175.7540  147.7970 C   0  0  1  0  0  3  0  0  0  0  0  0
  188.9790  174.8240  147.1370 C   0  0  0  0  0  1  0  0  0  0  0  0
  190.1360  175.7080  146.7100 C   0  0  1  0  0  3  0  0  0  0  0  0
  189.6360  177.0990  146.3400 C   0  0  0  0  0  2  0  0  0  0  0  0
  185.7410  177.7480  144.2610 O   0  0  0  0  0  0  0  0  0  0  0  0
  186.1650  179.1460  142.5000 O   0  0  0  0  0  0  0  0  0  0  0  0
  187.8440  177.4730  142.8900 C   0  0  2  0  0  3  0  0  0  0  0  0
  187.3650  177.6220  145.8700 O   0  0  0  0  0  0  0  0  0  0  0  0
  186.2640  176.9580  145.3160 C   0  0  1  0  0  3  0  0  0  0  0  0
  188.9060  177.6690  143.9880 C   0  0  1  0  0  3  0  0  0  0  0  0
  188.3310  177.9110  141.6530 O   0  0  0  0  0  1  0  0  0  0  0  0
  188.5000  177.0050  145.3230 C   0  0  1  0  0  3  0  0  0  0  0  0
  186.5430  178.1670  143.2000 C   0  0  0  0  0  0  0  0  0  0  0  0
  190.2240  177.0720  143.5020 C   0  0  0  0  0  1  0  0  0  0  0  0
  185.1990  176.7810  146.3810 C   0  0  0  0  0  1  0  0  0  0  0  0
  1  7  1  0  0  0  0
  1 23  1  6  0  0  0
  2  6  2  0  0  0  0
  2  7  1  0  0  0  0
  3  5  1  0  0  0  0
  4  5  2  0  0  0  0
  6  4  1  0  0  0  0
  7  3  2  0  0  0  0
  8  9  1  0  0  0  0
  9  2  1  1  0  0  0
 10  8  1  0  0  0  0
 10  9  1  0  0  0  0
 12  1  1  0  0  0  0
 13 12  1  0  0  0  0
 13 11  2  0  0  0  0
 14 22  1  1  0  0  0
 14 13  1  0  0  0  0
 15 16  1  0  0  0  0
 15 19  1  0  0  0  0
 16 17  1  0  0  0  0
 17 20  1  0  0  0  0
 18 20  1  0  0  0  0
 19 18  1  0  0  0  0
 20 14  1  0  0  0  0
 21 22  1  0  0  0  0
 23 24  1  0  0  0  0
 24 26  1  0  0  0  0
 26 25  1  6  0  0  0
 28 27  1  1  0  0  0
 28 26  1  0  0  0  0
 29 28  1  0  0  0  0
 30 34  1  0  0  0  0
 31 38  2  0  0  0  0
 32 36  1  6  0  0  0
 32 38  1  0  0  0  0
 32 35  1  0  0  0  0
 34 33  1  0  0  0  0
 34 40  1  1  0  0  0
 35 39  1  6  0  0  0
 35 37  1  0  0  0  0
 37 33  1  0  0  0  0
 37 29  1  1  0  0  0
 38 30  1  0  0  0  0
M  END
>  <MODEL>
5

>  <REMARK>
 VINA RESULT:      -6.8      1.557      2.777
  Name = 
  12 active torsions:
  status: ('A' for Active; 'I' for Inactive)
    1  A    between atoms: C_4  and  C_11
    2  A    between atoms: C_9  and  C_19
    3  A    between atoms: C_9  and  C_34
    4  A    between atoms: C_14  and  C_27
    5  A    between atoms: C_14  and  C_38
    6  A    between atoms: C_20  and  N_33
    7  A    between atoms: C_20  and  C_35
    8  A    between atoms: C_20  and  C_40
    9  A    between atoms: C_23  and  C_34
   10  A    between atoms: C_23  and  C_38
   11  A    between atoms: C_27  and  C_37
   12  A    between atoms: C_27  and  N_39
                            x       y       z     vdW  Elec       q    Type
                         _______ _______ _______ _____ _____    ______ ____

>  <TORSDO>
F 12

$$$$
=
 OpenBabel11062419323D

 40 43  0  0  1  0  0  0  0  0999 V2000
  187.8680  176.3720  143.4920 C   0  0  2  0  0  3  0  0  0  0  0  0
  189.9060  177.2290  144.7470 C   0  0  0  0  0  0  0  0  0  0  0  0
  188.5370  175.4960  145.7670 C   0  0  0  0  0  3  0  0  0  0  0  0
  190.5050  176.3000  146.9170 C   0  0  0  0  0  3  0  0  0  0  0  0
  189.3880  175.4660  146.8730 C   0  0  0  0  0  3  0  0  0  0  0  0
  190.7670  177.1710  145.8570 C   0  0  0  0  0  3  0  0  0  0  0  0
  188.7880  176.3630  144.6910 C   0  0  0  0  0  0  0  0  0  0  0  0
  191.4110  178.8720  143.9040 O   0  0  0  0  0  0  0  0  0  0  0  0
  190.2460  178.1390  143.5950 C   0  0  1  0  0  3  0  0  0  0  0  0
  191.5620  177.8150  142.9910 C   0  0  0  0  0  2  0  0  0  0  0  0
  186.9320  179.0130  142.5800 O   0  0  0  0  0  0  0  0  0  0  0  0
  186.5770  177.0100  143.7440 N   0  0  0  0  0  2  0  0  0  0  0  0
  186.1810  178.3220  143.3160 C   0  0  0  0  0  0  0  0  0  0  0  0
  184.8710  178.9060  143.7580 C   0  0  2  0  0  3  0  0  0  0  0  0
  185.6210  177.9660  147.7130 C   0  0  0  0  0  2  0  0  0  0  0  0
  184.9560  177.1850  146.5840 C   0  0  0  0  0  2  0  0  0  0  0  0
  184.0420  178.0080  145.8950 O   0  0  0  0  0  0  0  0  0  0  0  0
  185.9870  179.4160  145.8460 O   0  0  0  0  0  0  0  0  0  0  0  0
  185.8340  179.3980  147.2410 C   0  0  0  0  0  2  0  0  0  0  0  0
  184.7260  179.1020  145.2730 C   0  0  0  0  0  3  0  0  0  0  0  0
  183.8230  178.2860  141.6660 C   0  0  0  0  0  1  0  0  0  0  0  0
  183.6970  178.2970  143.1170 N   0  0  0  0  0  2  0  0  0  0  0  0
  187.7520  175.0510  142.7240 C   0  0  0  0  0  2  0  0  0  0  0  0
  188.4560  175.0910  141.3790 C   0  0  0  0  0  2  0  0  0  0  0  0
  188.6990  173.5560  139.5630 O   0  0  0  0  0  1  0  0  0  0  0  0
  188.8370  173.6860  140.9480 C   0  0  1  0  0  3  0  0  0  0  0  0
  191.0660  172.8050  140.2270 C   0  0  0  0  0  1  0  0  0  0  0  0
  190.2630  173.3620  141.3870 C   0  0  1  0  0  3  0  0  0  0  0  0
  190.9660  174.5740  141.9880 C   0  0  0  0  0  2  0  0  0  0  0  0
  195.3980  174.7690  142.4650 O   0  0  0  0  0  0  0  0  0  0  0  0
  195.7950  175.4170  144.6230 O   0  0  0  0  0  0  0  0  0  0  0  0
  193.9900  173.8550  144.3510 C   0  0  2  0  0  3  0  0  0  0  0  0
  193.2680  175.0850  141.6870 O   0  0  0  0  0  0  0  0  0  0  0  0
  194.4500  174.3610  141.4920 C   0  0  1  0  0  3  0  0  0  0  0  0
  192.5980  174.3380  143.9030 C   0  0  1  0  0  3  0  0  0  0  0  0
  194.0580  173.7880  145.7480 O   0  0  0  0  0  1  0  0  0  0  0  0
  192.4000  174.2220  142.3750 C   0  0  1  0  0  3  0  0  0  0  0  0
  195.1080  174.7190  143.8280 C   0  0  0  0  0  0  0  0  0  0  0  0
  191.5400  173.5000  144.6180 C   0  0  0  0  0  1  0  0  0  0  0  0
  194.9960  174.6600  140.1090 C   0  0  0  0  0  1  0  0  0  0  0  0
  1 23  1  1  0  0  0
  1 12  1  0  0  0  0
  1  7  1  0  0  0  0
  2  6  1  0  0  0  0
  3  5  2  0  0  0  0
  5  4  1  0  0  0  0
  6  4  2  0  0  0  0
  7  2  2  0  0  0  0
  7  3  1  0  0  0  0
  9  8  1  0  0  0  0
  9  2  1  1  0  0  0
 10  9  1  0  0  0  0
 10  8  1  0  0  0  0
 11 13  2  0  0  0  0
 13 12  1  0  0  0  0
 13 14  1  0  0  0  0
 14 22  1  1  0  0  0
 14 20  1  0  0  0  0
 16 15  1  0  0  0  0
 17 16  1  0  0  0  0
 18 19  1  0  0  0  0
 19 15  1  0  0  0  0
 20 18  1  0  0  0  0
 20 17  1  0  0  0  0
 21 22  1  0  0  0  0
 24 23  1  0  0  0  0
 26 25  1  6  0  0  0
 26 24  1  0  0  0  0
 26 28  1  0  0  0  0
 28 27  1  6  0  0  0
 28 29  1  0  0  0  0
 30 38  1  0  0  0  0
 32 36  1  1  0  0  0
 33 37  1  0  0  0  0
 34 40  1  6  0  0  0
 34 33  1  0  0  0  0
 34 30  1  0  0  0  0
 35 32  1  0  0  0  0
 35 39  1  1  0  0  0
 37 29  1  1  0  0  0
 37 35  1  0  0  0  0
 38 32  1  0  0  0  0
 38 31  2  0  0  0  0
M  END
>  <MODEL>
6

>  <REMARK>
 VINA RESULT:      -6.8      2.702      8.114
  Name = 
  12 active torsions:
  status: ('A' for Active; 'I' for Inactive)
    1  A    between atoms: C_4  and  C_11
    2  A    between atoms: C_9  and  C_19
    3  A    between atoms: C_9  and  C_34
    4  A    between atoms: C_14  and  C_27
    5  A    between atoms: C_14  and  C_38
    6  A    between atoms: C_20  and  N_33
    7  A    between atoms: C_20  and  C_35
    8  A    between atoms: C_20  and  C_40
    9  A    between atoms: C_23  and  C_34
   10  A    between atoms: C_23  and  C_38
   11  A    between atoms: C_27  and  C_37
   12  A    between atoms: C_27  and  N_39
                            x       y       z     vdW  Elec       q    Type
                         _______ _______ _______ _____ _____    ______ ____

>  <TORSDO>
F 12

$$$$
=
 OpenBabel11062419323D

 40 43  0  0  1  0  0  0  0  0999 V2000
  189.9650  175.2090  143.3890 C   0  0  2  0  0  3  0  0  0  0  0  0
  190.7950  175.2780  145.7920 C   0  0  0  0  0  0  0  0  0  0  0  0
  192.0530  176.4570  144.0760 C   0  0  0  0  0  3  0  0  0  0  0  0
  192.7930  176.5410  146.3750 C   0  0  0  0  0  3  0  0  0  0  0  0
  192.9660  176.8940  145.0370 C   0  0  0  0  0  3  0  0  0  0  0  0
  191.7090  175.7450  146.7520 C   0  0  0  0  0  3  0  0  0  0  0  0
  190.9560  175.6590  144.4380 C   0  0  0  0  0  0  0  0  0  0  0  0
  189.4850  174.5420  147.6400 O   0  0  0  0  0  0  0  0  0  0  0  0
  189.6050  174.4670  146.2370 C   0  0  1  0  0  3  0  0  0  0  0  0
  188.5680  175.3000  146.8930 C   0  0  0  0  0  2  0  0  0  0  0  0
  189.1760  177.8560  142.3640 O   0  0  0  0  0  0  0  0  0  0  0  0
  188.6620  175.8670  143.4890 N   0  0  0  0  0  2  0  0  0  0  0  0
  188.3360  177.1810  143.0130 C   0  0  0  0  0  0  0  0  0  0  0  0
  186.9920  177.7850  143.3000 C   0  0  2  0  0  3  0  0  0  0  0  0
  184.3670  178.1720  146.4690 C   0  0  0  0  0  2  0  0  0  0  0  0
  184.6940  179.0880  145.2950 C   0  0  0  0  0  2  0  0  0  0  0  0
  186.0900  179.1760  145.1200 O   0  0  0  0  0  0  0  0  0  0  0  0
  185.8300  176.7890  145.1770 O   0  0  0  0  0  0  0  0  0  0  0  0
  185.3790  177.0340  146.4840 C   0  0  0  0  0  2  0  0  0  0  0  0
  186.6340  177.8940  144.7880 C   0  0  0  0  0  3  0  0  0  0  0  0
  185.3540  178.2920  141.5920 C   0  0  0  0  0  1  0  0  0  0  0  0
  185.9080  177.2600  142.4590 N   0  0  0  0  0  2  0  0  0  0  0  0
  189.8640  173.6970  143.1630 C   0  0  0  0  0  2  0  0  0  0  0  0
  189.3720  173.3460  141.7700 C   0  0  0  0  0  2  0  0  0  0  0  0
  190.9690  173.7840  140.0450 O   0  0  0  0  0  1  0  0  0  0  0  0
  190.5170  172.8030  140.9330 C   0  0  1  0  0  3  0  0  0  0  0  0
  191.6150  170.8080  141.9730 C   0  0  0  0  0  1  0  0  0  0  0  0
  191.6520  172.3180  141.8340 C   0  0  1  0  0  3  0  0  0  0  0  0
  193.0160  172.7730  141.3290 C   0  0  0  0  0  2  0  0  0  0  0  0
  195.5180  174.1140  144.7720 O   0  0  0  0  0  0  0  0  0  0  0  0
  197.4270  175.0090  143.8840 O   0  0  0  0  0  0  0  0  0  0  0  0
  195.4100  175.5410  142.6920 C   0  0  2  0  0  3  0  0  0  0  0  0
  194.2460  172.8350  143.3630 O   0  0  0  0  0  0  0  0  0  0  0  0
  194.2210  173.5890  144.5410 C   0  0  1  0  0  3  0  0  0  0  0  0
  194.7930  174.5310  141.7070 C   0  0  1  0  0  3  0  0  0  0  0  0
  196.2450  176.4380  142.0140 O   0  0  0  0  0  1  0  0  0  0  0  0
  193.7010  173.6600  142.3670 C   0  0  1  0  0  3  0  0  0  0  0  0
  196.1740  174.8800  143.8100 C   0  0  0  0  0  0  0  0  0  0  0  0
  194.1900  175.3010  140.5350 C   0  0  0  0  0  1  0  0  0  0  0  0
  193.8320  172.6930  145.7010 C   0  0  0  0  0  1  0  0  0  0  0  0
  1 23  1  1  0  0  0
  1 12  1  0  0  0  0
  1  7  1  0  0  0  0
  2  6  1  0  0  0  0
  3  7  1  0  0  0  0
  3  5  2  0  0  0  0
  4  6  2  0  0  0  0
  5  4  1  0  0  0  0
  7  2  2  0  0  0  0
  9  2  1  1  0  0  0
  9 10  1  0  0  0  0
  9  8  1  0  0  0  0
 10  8  1  0  0  0  0
 11 13  2  0  0  0  0
 13 14  1  0  0  0  0
 13 12  1  0  0  0  0
 14 22  1  6  0  0  0
 14 20  1  0  0  0  0
 15 19  1  0  0  0  0
 16 15  1  0  0  0  0
 17 16  1  0  0  0  0
 18 19  1  0  0  0  0
 20 17  1  0  0  0  0
 20 18  1  0  0  0  0
 21 22  1  0  0  0  0
 24 23  1  0  0  0  0
 26 25  1  6  0  0  0
 26 24  1  0  0  0  0
 26 28  1  0  0  0  0
 28 27  1  6  0  0  0
 29 28  1  0  0  0  0
 32 36  1  6  0  0  0
 32 38  1  0  0  0  0
 33 34  1  0  0  0  0
 34 30  1  0  0  0  0
 34 40  1  1  0  0  0
 35 39  1  6  0  0  0
 35 37  1  0  0  0  0
 35 32  1  0  0  0  0
 37 29  1  6  0  0  0
 37 33  1  0  0  0  0
 38 31  2  0  0  0  0
 38 30  1  0  0  0  0
M  END
>  <MODEL>
7

>  <REMARK>
 VINA RESULT:      -6.7      2.450      7.755
  Name = 
  12 active torsions:
  status: ('A' for Active; 'I' for Inactive)
    1  A    between atoms: C_4  and  C_11
    2  A    between atoms: C_9  and  C_19
    3  A    between atoms: C_9  and  C_34
    4  A    between atoms: C_14  and  C_27
    5  A    between atoms: C_14  and  C_38
    6  A    between atoms: C_20  and  N_33
    7  A    between atoms: C_20  and  C_35
    8  A    between atoms: C_20  and  C_40
    9  A    between atoms: C_23  and  C_34
   10  A    between atoms: C_23  and  C_38
   11  A    between atoms: C_27  and  C_37
   12  A    between atoms: C_27  and  N_39
                            x       y       z     vdW  Elec       q    Type
                         _______ _______ _______ _____ _____    ______ ____

>  <TORSDO>
F 12

$$$$
=
 OpenBabel11062419323D

 40 43  0  0  1  0  0  0  0  0999 V2000
  193.0480  174.2770  145.4690 C   0  0  2  0  0  3  0  0  0  0  0  0
  195.5180  174.6830  145.0220 C   0  0  0  0  0  0  0  0  0  0  0  0
  194.8010  172.4790  145.7630 C   0  0  0  0  0  3  0  0  0  0  0  0
  197.1360  172.8820  145.2880 C   0  0  0  0  0  3  0  0  0  0  0  0
  196.1180  172.0230  145.7010 C   0  0  0  0  0  3  0  0  0  0  0  0
  196.8370  174.2020  144.9430 C   0  0  0  0  0  3  0  0  0  0  0  0
  194.4830  173.8020  145.4160 C   0  0  0  0  0  0  0  0  0  0  0  0
  196.3260  176.6150  143.8890 O   0  0  0  0  0  0  0  0  0  0  0  0
  195.2190  176.0950  144.5910 C   0  0  1  0  0  3  0  0  0  0  0  0
  195.2140  176.2440  143.1150 C   0  0  0  0  0  2  0  0  0  0  0  0
  191.4540  172.1430  144.2100 O   0  0  0  0  0  0  0  0  0  0  0  0
  192.3840  174.2930  144.1660 N   0  0  0  0  0  2  0  0  0  0  0  0
  191.6540  173.2100  143.5730 C   0  0  0  0  0  0  0  0  0  0  0  0
  191.1330  173.3190  142.1690 C   0  0  2  0  0  3  0  0  0  0  0  0
  192.6840  174.1480  138.4280 C   0  0  0  0  0  2  0  0  0  0  0  0
  191.4370  173.3910  138.8740 C   0  0  0  0  0  2  0  0  0  0  0  0
  191.7520  172.5100  139.9270 O   0  0  0  0  0  0  0  0  0  0  0  0
  192.7030  174.5410  140.7870 O   0  0  0  0  0  0  0  0  0  0  0  0
  193.5320  174.4380  139.6590 C   0  0  0  0  0  2  0  0  0  0  0  0
  192.2040  173.2410  141.0720 C   0  0  0  0  0  3  0  0  0  0  0  0
  188.8860  174.0910  142.6260 C   0  0  0  0  0  1  0  0  0  0  0  0
  190.1530  174.3950  141.9750 N   0  0  0  0  0  2  0  0  0  0  0  0
  192.7880  175.5390  146.2980 C   0  0  0  0  0  2  0  0  0  0  0  0
  191.5140  175.4480  147.1190 C   0  0  0  0  0  2  0  0  0  0  0  0
  191.0100  177.1500  145.5170 O   0  0  0  0  0  1  0  0  0  0  0  0
  190.4770  176.4200  146.5840 C   0  0  1  0  0  3  0  0  0  0  0  0
  189.3180  174.2020  146.5210 C   0  0  0  0  0  1  0  0  0  0  0  0
  189.2160  175.6720  146.1580 C   0  0  1  0  0  3  0  0  0  0  0  0
  187.9570  176.2830  146.7620 C   0  0  0  0  0  2  0  0  0  0  0  0
  186.4140  178.2940  143.0900 O   0  0  0  0  0  0  0  0  0  0  0  0
  184.1320  178.2700  143.2420 O   0  0  0  0  0  0  0  0  0  0  0  0
  185.2780  178.7210  145.3040 C   0  0  2  0  0  3  0  0  0  0  0  0
  187.5400  176.8850  144.5010 O   0  0  0  0  0  0  0  0  0  0  0  0
  187.6600  178.0400  143.7200 C   0  0  1  0  0  3  0  0  0  0  0  0
  185.8750  177.5710  146.1360 C   0  0  1  0  0  3  0  0  0  0  0  0
  183.9920  179.0380  145.7570 O   0  0  0  0  0  1  0  0  0  0  0  0
  187.3680  177.3310  145.8200 C   0  0  1  0  0  3  0  0  0  0  0  0
  185.2380  178.4200  143.8290 C   0  0  0  0  0  0  0  0  0  0  0  0
  185.7160  177.9090  147.6160 C   0  0  0  0  0  1  0  0  0  0  0  0
  188.7190  177.8180  142.6580 C   0  0  0  0  0  1  0  0  0  0  0  0
  1 23  1  6  0  0  0
  2  7  1  0  0  0  0
  4  5  2  0  0  0  0
  5  3  1  0  0  0  0
  6  2  2  0  0  0  0
  6  4  1  0  0  0  0
  7  1  1  0  0  0  0
  7  3  2  0  0  0  0
  8  9  1  0  0  0  0
  9  2  1  6  0  0  0
 10  8  1  0  0  0  0
 10  9  1  0  0  0  0
 12  1  1  0  0  0  0
 13 12  1  0  0  0  0
 13 11  2  0  0  0  0
 14 22  1  1  0  0  0
 14 13  1  0  0  0  0
 15 16  1  0  0  0  0
 15 19  1  0  0  0  0
 16 17  1  0  0  0  0
 17 20  1  0  0  0  0
 18 20  1  0  0  0  0
 19 18  1  0  0  0  0
 20 14  1  0  0  0  0
 22 21  1  0  0  0  0
 23 24  1  0  0  0  0
 26 25  1  6  0  0  0
 26 24  1  0  0  0  0
 28 27  1  1  0  0  0
 28 26  1  0  0  0  0
 28 29  1  0  0  0  0
 30 34  1  0  0  0  0
 30 38  1  0  0  0  0
 31 38  2  0  0  0  0
 32 36  1  1  0  0  0
 32 35  1  0  0  0  0
 33 37  1  0  0  0  0
 34 40  1  6  0  0  0
 34 33  1  0  0  0  0
 35 39  1  1  0  0  0
 37 35  1  0  0  0  0
 37 29  1  1  0  0  0
 38 32  1  0  0  0  0
M  END
>  <MODEL>
8

>  <REMARK>
 VINA RESULT:      -6.7      1.534      2.507
  Name = 
  12 active torsions:
  status: ('A' for Active; 'I' for Inactive)
    1  A    between atoms: C_4  and  C_11
    2  A    between atoms: C_9  and  C_19
    3  A    between atoms: C_9  and  C_34
    4  A    between atoms: C_14  and  C_27
    5  A    between atoms: C_14  and  C_38
    6  A    between atoms: C_20  and  N_33
    7  A    between atoms: C_20  and  C_35
    8  A    between atoms: C_20  and  C_40
    9  A    between atoms: C_23  and  C_34
   10  A    between atoms: C_23  and  C_38
   11  A    between atoms: C_27  and  C_37
   12  A    between atoms: C_27  and  N_39
                            x       y       z     vdW  Elec       q    Type
                         _______ _______ _______ _____ _____    ______ ____

>  <TORSDO>
F 12

$$$$
=
 OpenBabel11062419323D

 40 43  0  0  1  0  0  0  0  0999 V2000
  192.8500  174.9010  144.0890 C   0  0  2  0  0  3  0  0  0  0  0  0
  195.2940  174.5800  143.4640 C   0  0  0  0  0  0  0  0  0  0  0  0
  193.9510  176.1650  142.1970 C   0  0  0  0  0  3  0  0  0  0  0  0
  196.2880  175.8710  141.6540 C   0  0  0  0  0  3  0  0  0  0  0  0
  195.0590  176.4850  141.4120 C   0  0  0  0  0  3  0  0  0  0  0  0
  196.4070  174.9300  142.6800 C   0  0  0  0  0  3  0  0  0  0  0  0
  194.0540  175.2240  143.2340 C   0  0  0  0  0  0  0  0  0  0  0  0
  196.8400  173.4350  144.8670 O   0  0  0  0  0  0  0  0  0  0  0  0
  195.4660  173.6030  144.5980 C   0  0  1  0  0  3  0  0  0  0  0  0
  196.1170  174.2200  145.7800 C   0  0  0  0  0  2  0  0  0  0  0  0
  192.0050  172.4390  142.7090 O   0  0  0  0  0  0  0  0  0  0  0  0
  191.6270  174.6680  143.3210 N   0  0  0  0  0  2  0  0  0  0  0  0
  191.2780  173.4620  142.6260 C   0  0  0  0  0  0  0  0  0  0  0  0
  190.0490  173.4050  141.7660 C   0  0  2  0  0  3  0  0  0  0  0  0
  189.5400  173.3000  137.6650 C   0  0  0  0  0  2  0  0  0  0  0  0
  188.5530  173.1840  138.8220 C   0  0  0  0  0  2  0  0  0  0  0  0
  189.0530  172.3040  139.8030 O   0  0  0  0  0  0  0  0  0  0  0  0
  190.9480  173.7560  139.5440 O   0  0  0  0  0  0  0  0  0  0  0  0
  190.9510  173.2500  138.2350 C   0  0  0  0  0  2  0  0  0  0  0  0
  190.2650  172.8190  140.3640 C   0  0  0  0  0  3  0  0  0  0  0  0
  187.9040  174.3950  142.2910 C   0  0  0  0  0  1  0  0  0  0  0  0
  189.2480  174.6360  141.7840 N   0  0  0  0  0  2  0  0  0  0  0  0
  192.6350  175.7950  145.3140 C   0  0  0  0  0  2  0  0  0  0  0  0
  192.4320  175.0000  146.5920 C   0  0  0  0  0  2  0  0  0  0  0  0
  191.2840  176.7690  147.7170 O   0  0  0  0  0  1  0  0  0  0  0  0
  191.1580  175.4450  147.2870 C   0  0  1  0  0  3  0  0  0  0  0  0
  189.5800  173.8230  146.2180 C   0  0  0  0  0  1  0  0  0  0  0  0
  189.9590  175.2850  146.3550 C   0  0  1  0  0  3  0  0  0  0  0  0
  188.7610  176.1050  146.8190 C   0  0  0  0  0  2  0  0  0  0  0  0
  188.1090  177.9170  142.7930 O   0  0  0  0  0  0  0  0  0  0  0  0
  185.9760  177.3740  142.1700 O   0  0  0  0  0  0  0  0  0  0  0  0
  186.2350  177.9570  144.4860 C   0  0  2  0  0  3  0  0  0  0  0  0
  188.9920  176.7210  144.5340 O   0  0  0  0  0  0  0  0  0  0  0  0
  189.0970  177.9150  143.8110 C   0  0  1  0  0  3  0  0  0  0  0  0
  186.7680  176.9260  145.4980 C   0  0  1  0  0  3  0  0  0  0  0  0
  184.8350  177.9520  144.4730 O   0  0  0  0  0  1  0  0  0  0  0  0
  188.2940  177.0440  145.7080 C   0  0  1  0  0  3  0  0  0  0  0  0
  186.7580  177.7350  143.0910 C   0  0  0  0  0  0  0  0  0  0  0  0
  186.0530  177.1390  146.8300 C   0  0  0  0  0  1  0  0  0  0  0  0
  190.4700  177.9940  143.1720 C   0  0  0  0  0  1  0  0  0  0  0  0
  1 23  1  1  0  0  0
  3  7  2  0  0  0  0
  4  6  1  0  0  0  0
  5  4  2  0  0  0  0
  5  3  1  0  0  0  0
  6  2  2  0  0  0  0
  7  2  1  0  0  0  0
  7  1  1  0  0  0  0
  8 10  1  0  0  0  0
  9  2  1  6  0  0  0
  9  8  1  0  0  0  0
  9 10  1  0  0  0  0
 12  1  1  0  0  0  0
 13 11  2  0  0  0  0
 13 12  1  0  0  0  0
 14 22  1  6  0  0  0
 14 13  1  0  0  0  0
 15 19  1  0  0  0  0
 15 16  1  0  0  0  0
 16 17  1  0  0  0  0
 17 20  1  0  0  0  0
 18 20  1  0  0  0  0
 19 18  1  0  0  0  0
 20 14  1  0  0  0  0
 22 21  1  0  0  0  0
 23 24  1  0  0  0  0
 24 26  1  0  0  0  0
 26 25  1  6  0  0  0
 28 27  1  1  0  0  0
 28 29  1  0  0  0  0
 28 26  1  0  0  0  0
 30 38  1  0  0  0  0
 30 34  1  0  0  0  0
 31 38  2  0  0  0  0
 32 36  1  6  0  0  0
 32 35  1  0  0  0  0
 33 37  1  0  0  0  0
 34 40  1  6  0  0  0
 34 33  1  0  0  0  0
 35 37  1  0  0  0  0
 35 39  1  1  0  0  0
 37 29  1  1  0  0  0
 38 32  1  0  0  0  0
M  END
>  <MODEL>
9

>  <REMARK>
 VINA RESULT:      -6.7      1.570      2.058
  Name = 
  12 active torsions:
  status: ('A' for Active; 'I' for Inactive)
    1  A    between atoms: C_4  and  C_11
    2  A    between atoms: C_9  and  C_19
    3  A    between atoms: C_9  and  C_34
    4  A    between atoms: C_14  and  C_27
    5  A    between atoms: C_14  and  C_38
    6  A    between atoms: C_20  and  N_33
    7  A    between atoms: C_20  and  C_35
    8  A    between atoms: C_20  and  C_40
    9  A    between atoms: C_23  and  C_34
   10  A    between atoms: C_23  and  C_38
   11  A    between atoms: C_27  and  C_37
   12  A    between atoms: C_27  and  N_39
                            x       y       z     vdW  Elec       q    Type
                         _______ _______ _______ _____ _____    ______ ____

>  <TORSDO>
F 12

$$$$
