=
 OpenBabel11072408333D

 26 30  0  0  1  0  0  0  0  0999 V2000
  187.3950  177.0070  145.2670 C   0  0  2  0  0  0  0  0  0  0  0  0
  186.3430  176.5440  144.2990 C   0  0  1  0  0  3  0  0  0  0  0  0
  186.7050  177.7960  146.3530 C   0  0  0  0  0  2  0  0  0  0  0  0
  186.7050  177.4840  140.5980 C   0  0  0  0  0  3  0  0  0  0  0  0
  189.4360  176.8700  143.8280 O   0  0  0  0  0  1  0  0  0  0  0  0
  185.1960  177.4810  144.6760 C   0  0  1  0  0  3  0  0  0  0  0  0
  185.3260  177.8160  146.0460 O   0  0  0  0  0  0  0  0  0  0  0  0
  187.4870  176.4240  140.1380 C   0  0  0  0  0  3  0  0  0  0  0  0
  185.3430  178.6340  142.3450 C   0  0  2  0  0  3  0  0  0  0  0  0
  187.8600  175.4020  141.0120 C   0  0  0  0  0  0  0  0  0  0  0  0
  189.6000  177.9320  145.9460 O   0  0  0  0  0  1  0  0  0  0  0  0
  188.9030  177.0640  145.1010 C   0  0  0  0  0  0  0  0  0  0  0  0
  184.9950  179.8260  144.3400 O   0  0  0  0  0  0  0  0  0  0  0  0
  186.7060  176.5270  142.8330 C   0  0  0  0  0  0  0  0  0  0  0  0
  188.2780  175.8370  145.7490 C   0  0  1  0  0  3  0  0  0  0  0  0
  186.2950  177.5420  141.9380 C   0  0  0  0  0  0  0  0  0  0  0  0
  187.4610  175.4490  142.3500 C   0  0  0  0  0  3  0  0  0  0  0  0
  185.1950  178.7340  143.8300 C   0  0  0  0  0  0  0  0  0  0  0  0
  184.0010  178.4160  141.7270 C   0  0  0  0  0  0  0  0  0  0  0  0
  182.6720  178.2680  141.8610 N   0  0  0  0  0  0  0  0  0  0  0  0
  183.2200  178.2430  140.5990 N   0  0  0  0  0  2  0  0  0  0  0  0
  189.1390  174.6680  147.4150 C   0  0  0  0  0  1  0  0  0  0  0  0
  188.4680  175.8580  147.1350 O   0  0  0  0  0  0  0  0  0  0  0  0
  188.6580  174.2500  140.5150 C   0  0  0  0  0  2  0  0  0  0  0  0
  188.2430  172.5750  139.1410 C   0  0  0  0  0  1  0  0  0  0  0  0
  188.3040  173.9660  139.1960 O   0  0  0  0  0  0  0  0  0  0  0  0
  1 15  1  0  0  0  0
  1  3  1  1  0  0  0
  2 14  1  6  0  0  0
  2  6  1  0  0  0  0
  2  1  1  0  0  0  0
  4 16  1  0  0  0  0
  5 12  1  0  0  0  0
  6 18  1  6  0  0  0
  6  7  1  0  0  0  0
  7  3  1  0  0  0  0
  8  4  2  0  0  0  0
  8 10  1  0  0  0  0
  9 19  1  6  0  0  0
  9 18  1  0  0  0  0
 10 17  2  0  0  0  0
 12  1  1  0  0  0  0
 12 15  1  0  0  0  0
 12 11  1  0  0  0  0
 15 23  1  1  0  0  0
 16  9  1  0  0  0  0
 16 14  2  0  0  0  0
 17 14  1  0  0  0  0
 18 13  2  0  0  0  0
 19 20  2  0  0  0  0
 21 19  1  0  0  0  0
 21 20  1  0  0  0  0
 23 22  1  0  0  0  0
 24 10  1  0  0  0  0
 25 26  1  0  0  0  0
 26 24  1  0  0  0  0
M  END
>  <MODEL>
1

>  <REMARK>
 VINA RESULT:      -7.2      0.000      0.000
  Name = 
  4 active torsions:
  status: ('A' for Active; 'I' for Inactive)
    1  A    between atoms: O_8  and  C_13
    2  A    between atoms: C_11  and  C_18
    3  A    between atoms: C_13  and  C_14
    4  A    between atoms: C_20  and  O_24
                            x       y       z     vdW  Elec       q    Type
                         _______ _______ _______ _____ _____    ______ ____

>  <TORSDO>
F 4

$$$$
=
 OpenBabel11072408333D

 26 30  0  0  1  0  0  0  0  0999 V2000
  189.7160  176.2740  143.8880 C   0  0  2  0  0  0  0  0  0  0  0  0
  188.2920  176.1090  144.3410 C   0  0  1  0  0  3  0  0  0  0  0  0
  190.6120  175.8420  145.0230 C   0  0  0  0  0  2  0  0  0  0  0  0
  185.9610  179.1550  144.2340 C   0  0  0  0  0  3  0  0  0  0  0  0
  189.4220  177.9340  142.0400 O   0  0  0  0  0  1  0  0  0  0  0  0
  188.4970  176.0140  145.8520 C   0  0  1  0  0  3  0  0  0  0  0  0
  189.7760  175.4550  146.0940 O   0  0  0  0  0  0  0  0  0  0  0  0
  185.4780  179.0630  142.9280 C   0  0  0  0  0  3  0  0  0  0  0  0
  187.2400  178.2710  146.1870 C   0  0  2  0  0  3  0  0  0  0  0  0
  185.8780  178.0070  142.1090 C   0  0  0  0  0  0  0  0  0  0  0  0
  191.6210  177.4170  142.7720 O   0  0  0  0  0  1  0  0  0  0  0  0
  190.2710  177.0580  142.7120 C   0  0  0  0  0  0  0  0  0  0  0  0
  189.1760  177.6960  147.3890 O   0  0  0  0  0  0  0  0  0  0  0  0
  187.2940  177.1500  143.8890 C   0  0  0  0  0  0  0  0  0  0  0  0
  189.9660  175.5770  142.5350 C   0  0  1  0  0  3  0  0  0  0  0  0
  186.8580  178.1980  144.7330 C   0  0  0  0  0  0  0  0  0  0  0  0
  186.7720  177.0490  142.5930 C   0  0  0  0  0  3  0  0  0  0  0  0
  188.3840  177.3650  146.5200 C   0  0  0  0  0  0  0  0  0  0  0  0
  186.0720  177.9300  147.0530 C   0  0  0  0  0  0  0  0  0  0  0  0
  185.4870  177.1120  147.9430 N   0  0  0  0  0  0  0  0  0  0  0  0
  184.8150  178.2420  147.5380 N   0  0  0  0  0  2  0  0  0  0  0  0
  190.9920  173.9210  141.4910 C   0  0  0  0  0  1  0  0  0  0  0  0
  191.1460  174.8250  142.5420 O   0  0  0  0  0  0  0  0  0  0  0  0
  185.3310  177.8830  140.7320 C   0  0  0  0  0  2  0  0  0  0  0  0
  183.1620  177.9760  140.3400 C   0  0  0  0  0  1  0  0  0  0  0  0
  184.2780  178.7820  140.5600 O   0  0  0  0  0  0  0  0  0  0  0  0
  1  2  1  0  0  0  0
  1  3  1  1  0  0  0
  2 14  1  1  0  0  0
  2  6  1  0  0  0  0
  3  7  1  0  0  0  0
  4 16  1  0  0  0  0
  5 12  1  0  0  0  0
  6  7  1  6  0  0  0
  6 18  1  0  0  0  0
  8  4  2  0  0  0  0
  9 18  1  0  0  0  0
  9 19  1  1  0  0  0
 10 17  2  0  0  0  0
 10  8  1  0  0  0  0
 12 11  1  0  0  0  0
 12  1  1  0  0  0  0
 14 16  2  0  0  0  0
 15 23  1  1  0  0  0
 15 12  1  0  0  0  0
 15  1  1  0  0  0  0
 16  9  1  0  0  0  0
 17 14  1  0  0  0  0
 18 13  2  0  0  0  0
 19 21  1  0  0  0  0
 19 20  2  0  0  0  0
 21 20  1  0  0  0  0
 22 23  1  0  0  0  0
 24 10  1  0  0  0  0
 25 26  1  0  0  0  0
 26 24  1  0  0  0  0
M  END
>  <MODEL>
2

>  <REMARK>
 VINA RESULT:      -6.8      2.831      4.650
  Name = 
  4 active torsions:
  status: ('A' for Active; 'I' for Inactive)
    1  A    between atoms: O_8  and  C_13
    2  A    between atoms: C_11  and  C_18
    3  A    between atoms: C_13  and  C_14
    4  A    between atoms: C_20  and  O_24
                            x       y       z     vdW  Elec       q    Type
                         _______ _______ _______ _____ _____    ______ ____

>  <TORSDO>
F 4

$$$$
=
 OpenBabel11072408333D

 26 30  0  0  1  0  0  0  0  0999 V2000
  189.6420  175.9940  144.7840 C   0  0  2  0  0  0  0  0  0  0  0  0
  189.0440  177.0760  143.9300 C   0  0  1  0  0  3  0  0  0  0  0  0
  190.6140  175.2180  143.9290 C   0  0  0  0  0  2  0  0  0  0  0  0
  185.2290  177.2410  143.5680 C   0  0  0  0  0  3  0  0  0  0  0  0
  187.9070  175.8130  146.5780 O   0  0  0  0  0  1  0  0  0  0  0  0
  189.3970  176.5510  142.5390 C   0  0  1  0  0  3  0  0  0  0  0  0
  190.5890  175.7920  142.6390 O   0  0  0  0  0  0  0  0  0  0  0  0
  184.9000  178.0320  144.6690 C   0  0  0  0  0  3  0  0  0  0  0  0
  186.8720  176.1900  142.0110 C   0  0  2  0  0  3  0  0  0  0  0  0
  185.9070  178.5320  145.4950 C   0  0  0  0  0  0  0  0  0  0  0  0
  189.6230  174.1740  146.4770 O   0  0  0  0  0  1  0  0  0  0  0  0
  189.1720  175.4480  146.1210 C   0  0  0  0  0  0  0  0  0  0  0  0
  188.5410  174.6590  141.3820 O   0  0  0  0  0  0  0  0  0  0  0  0
  187.5860  177.4060  144.1440 C   0  0  0  0  0  0  0  0  0  0  0  0
  190.2120  176.5590  146.1010 C   0  0  1  0  0  3  0  0  0  0  0  0
  186.5670  176.9320  143.2840 C   0  0  0  0  0  0  0  0  0  0  0  0
  187.2440  178.2290  145.2250 C   0  0  0  0  0  3  0  0  0  0  0  0
  188.2870  175.7040  141.9610 C   0  0  0  0  0  0  0  0  0  0  0  0
  186.6050  177.0560  140.8230 C   0  0  0  0  0  0  0  0  0  0  0  0
  186.9900  177.5420  139.6310 N   0  0  0  0  0  0  0  0  0  0  0  0
  185.7690  177.9220  140.1420 N   0  0  0  0  0  2  0  0  0  0  0  0
  191.7900  176.5500  147.6490 C   0  0  0  0  0  1  0  0  0  0  0  0
  191.4850  176.0500  146.3830 O   0  0  0  0  0  0  0  0  0  0  0  0
  185.5610  179.4100  146.6440 C   0  0  0  0  0  2  0  0  0  0  0  0
  185.9430  178.0840  148.3650 C   0  0  0  0  0  1  0  0  0  0  0  0
  184.9120  178.6650  147.6280 O   0  0  0  0  0  0  0  0  0  0  0  0
  1  3  1  6  0  0  0
  1 15  1  0  0  0  0
  1 12  1  0  0  0  0
  2 14  1  6  0  0  0
  2  1  1  0  0  0  0
  4  8  1  0  0  0  0
  6 18  1  1  0  0  0
  6  7  1  0  0  0  0
  6  2  1  0  0  0  0
  7  3  1  0  0  0  0
  8 10  2  0  0  0  0
  9 19  1  6  0  0  0
  9 16  1  0  0  0  0
 10 24  1  0  0  0  0
 12 11  1  0  0  0  0
 12  5  1  0  0  0  0
 13 18  2  0  0  0  0
 14 17  2  0  0  0  0
 15 12  1  0  0  0  0
 15 23  1  6  0  0  0
 16  4  2  0  0  0  0
 16 14  1  0  0  0  0
 17 10  1  0  0  0  0
 18  9  1  0  0  0  0
 20 21  1  0  0  0  0
 20 19  2  0  0  0  0
 21 19  1  0  0  0  0
 23 22  1  0  0  0  0
 24 26  1  0  0  0  0
 26 25  1  0  0  0  0
M  END
>  <MODEL>
3

>  <REMARK>
 VINA RESULT:      -6.7      1.969      5.101
  Name = 
  4 active torsions:
  status: ('A' for Active; 'I' for Inactive)
    1  A    between atoms: O_8  and  C_13
    2  A    between atoms: C_11  and  C_18
    3  A    between atoms: C_13  and  C_14
    4  A    between atoms: C_20  and  O_24
                            x       y       z     vdW  Elec       q    Type
                         _______ _______ _______ _____ _____    ______ ____

>  <TORSDO>
F 4

$$$$
=
 OpenBabel11072408333D

 26 30  0  0  1  0  0  0  0  0999 V2000
  190.9570  175.1530  145.3700 C   0  0  2  0  0  0  0  0  0  0  0  0
  189.4870  174.9000  145.1900 C   0  0  1  0  0  3  0  0  0  0  0  0
  191.2040  175.3990  146.8390 C   0  0  0  0  0  2  0  0  0  0  0  0
  187.5240  177.1130  142.7470 C   0  0  0  0  0  3  0  0  0  0  0  0
  191.5940  175.8410  143.0510 O   0  0  0  0  0  1  0  0  0  0  0  0
  188.9510  175.4590  146.5070 C   0  0  1  0  0  3  0  0  0  0  0  0
  189.9560  175.3130  147.4950 O   0  0  0  0  0  0  0  0  0  0  0  0
  187.7150  176.4120  141.5550 C   0  0  0  0  0  3  0  0  0  0  0  0
  187.7150  177.3590  145.2230 C   0  0  2  0  0  3  0  0  0  0  0  0
  188.4410  175.2210  141.5550 C   0  0  0  0  0  0  0  0  0  0  0  0
  193.1790  176.1120  144.8000 O   0  0  0  0  0  1  0  0  0  0  0  0
  192.0130  175.4960  144.3340 C   0  0  0  0  0  0  0  0  0  0  0  0
  188.8450  177.7140  147.2530 O   0  0  0  0  0  0  0  0  0  0  0  0
  188.8350  175.4500  143.9430 C   0  0  0  0  0  0  0  0  0  0  0  0
  191.8090  174.0390  144.7260 C   0  0  1  0  0  3  0  0  0  0  0  0
  188.0650  176.6370  143.9500 C   0  0  0  0  0  0  0  0  0  0  0  0
  188.9870  174.7370  142.7460 C   0  0  0  0  0  3  0  0  0  0  0  0
  188.5540  176.9120  146.3790 C   0  0  0  0  0  0  0  0  0  0  0  0
  186.2720  177.1660  145.5550 C   0  0  0  0  0  0  0  0  0  0  0  0
  185.3210  176.5740  146.2980 N   0  0  0  0  0  0  0  0  0  0  0  0
  184.9440  177.4830  145.3360 N   0  0  0  0  0  2  0  0  0  0  0  0
  193.3600  172.4790  144.9410 C   0  0  0  0  0  1  0  0  0  0  0  0
  192.8350  173.6060  145.5730 O   0  0  0  0  0  0  0  0  0  0  0  0
  188.6090  174.4510  140.2940 C   0  0  0  0  0  2  0  0  0  0  0  0
  188.2260  172.5640  139.2180 C   0  0  0  0  0  1  0  0  0  0  0  0
  188.2060  173.1300  140.4910 O   0  0  0  0  0  0  0  0  0  0  0  0
  1  3  1  1  0  0  0
  2 14  1  6  0  0  0
  2  1  1  0  0  0  0
  2  6  1  0  0  0  0
  3  7  1  0  0  0  0
  4 16  1  0  0  0  0
  5 12  1  0  0  0  0
  6 18  1  6  0  0  0
  6  7  1  0  0  0  0
  8 10  1  0  0  0  0
  8  4  2  0  0  0  0
  9 19  1  1  0  0  0
  9 18  1  0  0  0  0
 10 17  2  0  0  0  0
 12 15  1  0  0  0  0
 12 11  1  0  0  0  0
 12  1  1  0  0  0  0
 14 16  2  0  0  0  0
 15  1  1  0  0  0  0
 15 23  1  1  0  0  0
 16  9  1  0  0  0  0
 17 14  1  0  0  0  0
 18 13  2  0  0  0  0
 19 20  2  0  0  0  0
 21 19  1  0  0  0  0
 21 20  1  0  0  0  0
 22 23  1  0  0  0  0
 24 26  1  0  0  0  0
 24 10  1  0  0  0  0
 25 26  1  0  0  0  0
M  END
>  <MODEL>
4

>  <REMARK>
 VINA RESULT:      -6.6      2.702      3.851
  Name = 
  4 active torsions:
  status: ('A' for Active; 'I' for Inactive)
    1  A    between atoms: O_8  and  C_13
    2  A    between atoms: C_11  and  C_18
    3  A    between atoms: C_13  and  C_14
    4  A    between atoms: C_20  and  O_24
                            x       y       z     vdW  Elec       q    Type
                         _______ _______ _______ _____ _____    ______ ____

>  <TORSDO>
F 4

$$$$
=
 OpenBabel11072408333D

 26 30  0  0  1  0  0  0  0  0999 V2000
  187.6330  177.0930  145.2160 C   0  0  2  0  0  0  0  0  0  0  0  0
  188.9710  176.7400  144.6290 C   0  0  1  0  0  3  0  0  0  0  0  0
  187.8600  177.5390  146.6400 C   0  0  0  0  0  2  0  0  0  0  0  0
  189.4730  173.2270  143.1730 C   0  0  0  0  0  3  0  0  0  0  0  0
  186.1110  175.8150  143.6970 O   0  0  0  0  0  1  0  0  0  0  0  0
  189.7980  176.5950  145.9040 C   0  0  1  0  0  3  0  0  0  0  0  0
  189.2460  177.4470  146.8930 O   0  0  0  0  0  0  0  0  0  0  0  0
  189.0340  173.4260  141.8640 C   0  0  0  0  0  3  0  0  0  0  0  0
  190.0970  174.0480  145.4460 C   0  0  2  0  0  3  0  0  0  0  0  0
  188.6150  174.6910  141.4530 C   0  0  0  0  0  0  0  0  0  0  0  0
  185.2030  176.8030  145.6560 O   0  0  0  0  0  1  0  0  0  0  0  0
  186.2390  176.7530  144.7190 C   0  0  0  0  0  0  0  0  0  0  0  0
  189.6860  174.9200  147.5890 O   0  0  0  0  0  0  0  0  0  0  0  0
  189.0270  175.5620  143.6850 C   0  0  0  0  0  0  0  0  0  0  0  0
  186.8620  178.0840  144.3190 C   0  0  1  0  0  3  0  0  0  0  0  0
  189.4890  174.2870  144.0910 C   0  0  0  0  0  0  0  0  0  0  0  0
  188.6230  175.7560  142.3570 C   0  0  0  0  0  3  0  0  0  0  0  0
  189.8180  175.1670  146.4000 C   0  0  0  0  0  0  0  0  0  0  0  0
  191.5740  173.8540  145.3300 C   0  0  0  0  0  0  0  0  0  0  0  0
  192.8220  174.3290  145.4770 N   0  0  0  0  0  0  0  0  0  0  0  0
  192.6500  173.0440  145.0160 N   0  0  0  0  0  2  0  0  0  0  0  0
  185.5650  179.8620  144.1230 C   0  0  0  0  0  1  0  0  0  0  0  0
  186.3020  179.1330  145.0560 O   0  0  0  0  0  0  0  0  0  0  0  0
  188.1880  174.9150  140.0460 C   0  0  0  0  0  2  0  0  0  0  0  0
  188.1930  174.1660  137.9720 C   0  0  0  0  0  1  0  0  0  0  0  0
  188.4680  173.7820  139.2830 O   0  0  0  0  0  0  0  0  0  0  0  0
  1  3  1  1  0  0  0
  2 14  1  1  0  0  0
  2  1  1  0  0  0  0
  2  6  1  0  0  0  0
  3  7  1  0  0  0  0
  4 16  1  0  0  0  0
  5 12  1  0  0  0  0
  6 18  1  1  0  0  0
  6  7  1  0  0  0  0
  8  4  2  0  0  0  0
  9 19  1  6  0  0  0
  9 18  1  0  0  0  0
 10  8  1  0  0  0  0
 10 17  2  0  0  0  0
 12  1  1  0  0  0  0
 12 11  1  0  0  0  0
 14 16  2  0  0  0  0
 15 12  1  0  0  0  0
 15 23  1  1  0  0  0
 15  1  1  0  0  0  0
 16  9  1  0  0  0  0
 17 14  1  0  0  0  0
 18 13  2  0  0  0  0
 19 20  2  0  0  0  0
 21 19  1  0  0  0  0
 21 20  1  0  0  0  0
 22 23  1  0  0  0  0
 24 10  1  0  0  0  0
 25 26  1  0  0  0  0
 26 24  1  0  0  0  0
M  END
>  <MODEL>
5

>  <REMARK>
 VINA RESULT:      -6.6      3.615      5.419
  Name = 
  4 active torsions:
  status: ('A' for Active; 'I' for Inactive)
    1  A    between atoms: O_8  and  C_13
    2  A    between atoms: C_11  and  C_18
    3  A    between atoms: C_13  and  C_14
    4  A    between atoms: C_20  and  O_24
                            x       y       z     vdW  Elec       q    Type
                         _______ _______ _______ _____ _____    ______ ____

>  <TORSDO>
F 4

$$$$
=
 OpenBabel11072408333D

 26 30  0  0  1  0  0  0  0  0999 V2000
  187.1100  176.5850  143.0190 C   0  0  2  0  0  0  0  0  0  0  0  0
  187.5480  177.7100  143.9140 C   0  0  1  0  0  3  0  0  0  0  0  0
  185.6190  176.7070  142.8240 C   0  0  0  0  0  2  0  0  0  0  0  0
  189.4190  176.8620  147.1540 C   0  0  0  0  0  3  0  0  0  0  0  0
  189.0000  174.9780  143.3400 O   0  0  0  0  0  1  0  0  0  0  0  0
  186.2040  178.1210  144.5110 C   0  0  1  0  0  3  0  0  0  0  0  0
  185.1880  177.8290  143.5680 O   0  0  0  0  0  0  0  0  0  0  0  0
  190.7340  176.8200  146.6880 C   0  0  0  0  0  3  0  0  0  0  0  0
  186.9850  177.3350  146.8690 C   0  0  2  0  0  3  0  0  0  0  0  0
  191.0090  177.0980  145.3490 C   0  0  0  0  0  0  0  0  0  0  0  0
  187.0640  174.2470  142.1730 O   0  0  0  0  0  1  0  0  0  0  0  0
  187.8430  175.3110  142.6380 C   0  0  0  0  0  0  0  0  0  0  0  0
  184.8170  176.9510  146.0480 O   0  0  0  0  0  0  0  0  0  0  0  0
  188.6370  177.4150  144.9190 C   0  0  0  0  0  0  0  0  0  0  0  0
  187.9520  176.5260  141.7270 C   0  0  1  0  0  3  0  0  0  0  0  0
  188.3630  177.1720  146.2850 C   0  0  0  0  0  0  0  0  0  0  0  0
  189.9660  177.4050  144.4730 C   0  0  0  0  0  3  0  0  0  0  0  0
  185.9260  177.4060  145.8140 C   0  0  0  0  0  0  0  0  0  0  0  0
  186.9190  178.5610  147.7200 C   0  0  0  0  0  0  0  0  0  0  0  0
  186.3170  179.7170  148.0430 N   0  0  0  0  0  0  0  0  0  0  0  0
  187.4200  179.3180  148.7620 N   0  0  0  0  0  2  0  0  0  0  0  0
  187.1430  177.6210  139.9860 C   0  0  0  0  0  1  0  0  0  0  0  0
  187.1550  176.3630  140.5880 O   0  0  0  0  0  0  0  0  0  0  0  0
  192.4130  177.0950  144.8610 C   0  0  0  0  0  2  0  0  0  0  0  0
  194.4570  177.1730  145.6880 C   0  0  0  0  0  1  0  0  0  0  0  0
  193.2430  176.5010  145.8120 O   0  0  0  0  0  0  0  0  0  0  0  0
  1  3  1  6  0  0  0
  1  2  1  0  0  0  0
  2  6  1  0  0  0  0
  2 14  1  1  0  0  0
  3  7  1  0  0  0  0
  6  7  1  6  0  0  0
  6 18  1  0  0  0  0
  8  4  1  0  0  0  0
  9 19  1  6  0  0  0
 10  8  2  0  0  0  0
 11 12  1  0  0  0  0
 12  1  1  0  0  0  0
 12  5  1  0  0  0  0
 14 16  1  0  0  0  0
 15 23  1  6  0  0  0
 15 12  1  0  0  0  0
 15  1  1  0  0  0  0
 16  9  1  0  0  0  0
 16  4  2  0  0  0  0
 17 14  2  0  0  0  0
 17 10  1  0  0  0  0
 18 13  2  0  0  0  0
 18  9  1  0  0  0  0
 19 20  2  0  0  0  0
 19 21  1  0  0  0  0
 20 21  1  0  0  0  0
 22 23  1  0  0  0  0
 24 10  1  0  0  0  0
 24 26  1  0  0  0  0
 25 26  1  0  0  0  0
M  END
>  <MODEL>
6

>  <REMARK>
 VINA RESULT:      -6.4      3.058      5.669
  Name = 
  4 active torsions:
  status: ('A' for Active; 'I' for Inactive)
    1  A    between atoms: O_8  and  C_13
    2  A    between atoms: C_11  and  C_18
    3  A    between atoms: C_13  and  C_14
    4  A    between atoms: C_20  and  O_24
                            x       y       z     vdW  Elec       q    Type
                         _______ _______ _______ _____ _____    ______ ____

>  <TORSDO>
F 4

$$$$
=
 OpenBabel11072408333D

 26 30  0  0  1  0  0  0  0  0999 V2000
  187.4830  177.3670  145.7700 C   0  0  2  0  0  0  0  0  0  0  0  0
  188.5010  177.6850  144.7110 C   0  0  1  0  0  3  0  0  0  0  0  0
  188.2120  177.2380  147.0850 C   0  0  0  0  0  2  0  0  0  0  0  0
  188.7640  175.3770  141.6580 C   0  0  0  0  0  3  0  0  0  0  0  0
  185.6320  176.4410  144.3650 O   0  0  0  0  0  1  0  0  0  0  0  0
  189.7830  177.2760  145.4350 C   0  0  1  0  0  3  0  0  0  0  0  0
  189.5850  177.4530  146.8270 O   0  0  0  0  0  0  0  0  0  0  0  0
  187.8160  175.9570  140.8150 C   0  0  0  0  0  3  0  0  0  0  0  0
  190.1550  175.3410  143.7300 C   0  0  2  0  0  3  0  0  0  0  0  0
  187.1290  177.1010  141.2200 C   0  0  0  0  0  0  0  0  0  0  0  0
  185.4860  176.2380  146.7270 O   0  0  0  0  0  1  0  0  0  0  0  0
  186.0550  176.8740  145.6200 C   0  0  0  0  0  0  0  0  0  0  0  0
  190.5460  175.1060  146.0360 O   0  0  0  0  0  0  0  0  0  0  0  0
  188.3040  177.0640  143.3480 C   0  0  0  0  0  0  0  0  0  0  0  0
  186.3100  178.3700  145.7500 C   0  0  1  0  0  3  0  0  0  0  0  0
  189.0300  175.9270  142.9210 C   0  0  0  0  0  0  0  0  0  0  0  0
  187.3810  177.6570  142.4770 C   0  0  0  0  0  3  0  0  0  0  0  0
  190.1600  175.8420  145.1410 C   0  0  0  0  0  0  0  0  0  0  0  0
  191.4710  175.6440  143.0930 C   0  0  0  0  0  0  0  0  0  0  0  0
  192.5890  176.3870  143.0360 N   0  0  0  0  0  0  0  0  0  0  0  0
  192.4350  175.3480  142.1470 N   0  0  0  0  0  2  0  0  0  0  0  0
  184.6060  179.0410  146.9860 C   0  0  0  0  0  1  0  0  0  0  0  0
  185.9820  178.8180  147.0340 O   0  0  0  0  0  0  0  0  0  0  0  0
  186.1490  177.7460  140.3060 C   0  0  0  0  0  2  0  0  0  0  0  0
  184.0220  178.2910  140.5130 C   0  0  0  0  0  1  0  0  0  0  0  0
  185.2840  178.5590  141.0390 O   0  0  0  0  0  0  0  0  0  0  0  0
  1  3  1  1  0  0  0
  2 14  1  6  0  0  0
  2  6  1  0  0  0  0
  2  1  1  0  0  0  0
  4 16  1  0  0  0  0
  5 12  1  0  0  0  0
  6 18  1  1  0  0  0
  6  7  1  0  0  0  0
  7  3  1  0  0  0  0
  8 10  1  0  0  0  0
  8  4  2  0  0  0  0
  9 19  1  6  0  0  0
  9 18  1  0  0  0  0
 10 17  2  0  0  0  0
 12 15  1  0  0  0  0
 12  1  1  0  0  0  0
 12 11  1  0  0  0  0
 15  1  1  0  0  0  0
 15 23  1  1  0  0  0
 16 14  2  0  0  0  0
 16  9  1  0  0  0  0
 17 14  1  0  0  0  0
 18 13  2  0  0  0  0
 20 19  2  0  0  0  0
 21 20  1  0  0  0  0
 21 19  1  0  0  0  0
 22 23  1  0  0  0  0
 24 26  1  0  0  0  0
 24 10  1  0  0  0  0
 25 26  1  0  0  0  0
M  END
>  <MODEL>
7

>  <REMARK>
 VINA RESULT:      -6.4      3.456      5.143
  Name = 
  4 active torsions:
  status: ('A' for Active; 'I' for Inactive)
    1  A    between atoms: O_8  and  C_13
    2  A    between atoms: C_11  and  C_18
    3  A    between atoms: C_13  and  C_14
    4  A    between atoms: C_20  and  O_24
                            x       y       z     vdW  Elec       q    Type
                         _______ _______ _______ _____ _____    ______ ____

>  <TORSDO>
F 4

$$$$
=
 OpenBabel11072408333D

 26 30  0  0  1  0  0  0  0  0999 V2000
  188.4710  175.3540  141.9860 C   0  0  2  0  0  0  0  0  0  0  0  0
  188.5070  176.6080  142.8140 C   0  0  1  0  0  3  0  0  0  0  0  0
  187.8120  175.6910  140.6700 C   0  0  0  0  0  2  0  0  0  0  0  0
  186.8920  176.5640  146.2930 C   0  0  0  0  0  3  0  0  0  0  0  0
  188.6900  173.6170  143.7720 O   0  0  0  0  0  1  0  0  0  0  0  0
  187.4690  177.4510  142.0750 C   0  0  1  0  0  3  0  0  0  0  0  0
  187.4630  177.0590  140.7140 O   0  0  0  0  0  0  0  0  0  0  0  0
  187.9610  176.1110  147.0670 C   0  0  0  0  0  3  0  0  0  0  0  0
  185.8980  177.3760  144.1520 C   0  0  2  0  0  3  0  0  0  0  0  0
  189.1970  175.8590  146.4700 C   0  0  0  0  0  0  0  0  0  0  0  0
  188.1520  172.9250  141.5640 O   0  0  0  0  0  1  0  0  0  0  0  0
  188.6700  173.9100  142.4100 C   0  0  0  0  0  0  0  0  0  0  0  0
  185.1120  177.1660  141.9480 O   0  0  0  0  0  0  0  0  0  0  0  0
  188.2830  176.4660  144.3010 C   0  0  0  0  0  0  0  0  0  0  0  0
  189.8640  174.6980  141.8870 C   0  0  1  0  0  3  0  0  0  0  0  0
  187.0420  176.7600  144.9120 C   0  0  0  0  0  0  0  0  0  0  0  0
  189.3590  176.0470  145.0960 C   0  0  0  0  0  3  0  0  0  0  0  0
  186.0890  177.2900  142.6710 C   0  0  0  0  0  0  0  0  0  0  0  0
  185.7190  178.8060  144.5450 C   0  0  0  0  0  0  0  0  0  0  0  0
  185.5660  180.0940  144.1970 N   0  0  0  0  0  0  0  0  0  0  0  0
  185.5660  179.7620  145.5320 N   0  0  0  0  0  2  0  0  0  0  0  0
  191.4430  173.7460  140.6690 C   0  0  0  0  0  1  0  0  0  0  0  0
  190.1730  174.3160  140.5770 O   0  0  0  0  0  0  0  0  0  0  0  0
  190.3490  175.4170  147.3010 C   0  0  0  0  0  2  0  0  0  0  0  0
  192.3970  176.1610  146.9580 C   0  0  0  0  0  1  0  0  0  0  0  0
  191.1870  176.5020  147.5590 O   0  0  0  0  0  0  0  0  0  0  0  0
  1  3  1  6  0  0  0
  1 12  1  0  0  0  0
  1  2  1  0  0  0  0
  2 14  1  1  0  0  0
  3  7  1  0  0  0  0
  4  8  1  0  0  0  0
  6  7  1  6  0  0  0
  6 18  1  0  0  0  0
  6  2  1  0  0  0  0
  9 19  1  1  0  0  0
  9 16  1  0  0  0  0
 10  8  2  0  0  0  0
 10 24  1  0  0  0  0
 11 12  1  0  0  0  0
 12  5  1  0  0  0  0
 13 18  2  0  0  0  0
 14 16  1  0  0  0  0
 14 17  2  0  0  0  0
 15 23  1  6  0  0  0
 15  1  1  0  0  0  0
 15 12  1  0  0  0  0
 16  4  2  0  0  0  0
 17 10  1  0  0  0  0
 18  9  1  0  0  0  0
 19 21  1  0  0  0  0
 20 19  2  0  0  0  0
 20 21  1  0  0  0  0
 23 22  1  0  0  0  0
 24 26  1  0  0  0  0
 25 26  1  0  0  0  0
M  END
>  <MODEL>
8

>  <REMARK>
 VINA RESULT:      -6.4      2.344      5.359
  Name = 
  4 active torsions:
  status: ('A' for Active; 'I' for Inactive)
    1  A    between atoms: O_8  and  C_13
    2  A    between atoms: C_11  and  C_18
    3  A    between atoms: C_13  and  C_14
    4  A    between atoms: C_20  and  O_24
                            x       y       z     vdW  Elec       q    Type
                         _______ _______ _______ _____ _____    ______ ____

>  <TORSDO>
F 4

$$$$
=
 OpenBabel11072408333D

 26 30  0  0  1  0  0  0  0  0999 V2000
  190.0790  175.3360  145.5270 C   0  0  2  0  0  0  0  0  0  0  0  0
  189.9230  175.8740  144.1320 C   0  0  1  0  0  3  0  0  0  0  0  0
  191.1330  174.2570  145.4880 C   0  0  0  0  0  2  0  0  0  0  0  0
  186.4480  175.8040  142.5090 C   0  0  0  0  0  3  0  0  0  0  0  0
  187.8880  176.0110  146.5280 O   0  0  0  0  0  1  0  0  0  0  0  0
  190.5870  174.7550  143.3330 C   0  0  1  0  0  3  0  0  0  0  0  0
  191.5730  174.1480  144.1490 O   0  0  0  0  0  0  0  0  0  0  0  0
  185.9300  177.0210  142.9560 C   0  0  0  0  0  3  0  0  0  0  0  0
  188.3020  174.1570  142.2320 C   0  0  2  0  0  3  0  0  0  0  0  0
  186.7130  177.8640  143.7440 C   0  0  0  0  0  0  0  0  0  0  0  0
  189.2990  174.5410  147.7500 O   0  0  0  0  0  1  0  0  0  0  0  0
  189.1630  175.4870  146.7290 C   0  0  0  0  0  0  0  0  0  0  0  0
  189.8390  172.5310  142.9500 O   0  0  0  0  0  0  0  0  0  0  0  0
  188.5300  176.2500  143.6840 C   0  0  0  0  0  0  0  0  0  0  0  0
  190.3150  176.4660  146.5500 C   0  0  1  0  0  3  0  0  0  0  0  0
  187.7500  175.4120  142.8510 C   0  0  0  0  0  0  0  0  0  0  0  0
  188.0110  177.4850  144.0950 C   0  0  0  0  0  3  0  0  0  0  0  0
  189.5820  173.7230  142.8730 C   0  0  0  0  0  0  0  0  0  0  0  0
  188.5240  174.3500  140.7670 C   0  0  0  0  0  0  0  0  0  0  0  0
  189.3060  174.2110  139.6840 N   0  0  0  0  0  0  0  0  0  0  0  0
  188.0630  174.7820  139.5380 N   0  0  0  0  0  2  0  0  0  0  0  0
  191.3320  177.1970  148.3710 C   0  0  0  0  0  1  0  0  0  0  0  0
  191.3600  176.1670  147.4300 O   0  0  0  0  0  0  0  0  0  0  0  0
  186.1790  179.1800  144.1860 C   0  0  0  0  0  2  0  0  0  0  0  0
  185.3940  179.0750  146.2450 C   0  0  0  0  0  1  0  0  0  0  0  0
  185.0020  178.9910  144.9100 O   0  0  0  0  0  0  0  0  0  0  0  0
  1  3  1  1  0  0  0
  1 15  1  0  0  0  0
  1 12  1  0  0  0  0
  2 14  1  6  0  0  0
  2  1  1  0  0  0  0
  4 16  2  0  0  0  0
  4  8  1  0  0  0  0
  5 12  1  0  0  0  0
  6 18  1  1  0  0  0
  6  2  1  0  0  0  0
  6  7  1  0  0  0  0
  7  3  1  0  0  0  0
  8 10  2  0  0  0  0
  9 19  1  6  0  0  0
  9 16  1  0  0  0  0
  9 18  1  0  0  0  0
 10 17  1  0  0  0  0
 10 24  1  0  0  0  0
 12 11  1  0  0  0  0
 14 17  2  0  0  0  0
 15 12  1  0  0  0  0
 15 23  1  1  0  0  0
 16 14  1  0  0  0  0
 18 13  2  0  0  0  0
 20 19  2  0  0  0  0
 21 20  1  0  0  0  0
 21 19  1  0  0  0  0
 23 22  1  0  0  0  0
 24 26  1  0  0  0  0
 26 25  1  0  0  0  0
M  END
>  <MODEL>
9

>  <REMARK>
 VINA RESULT:      -6.2      2.778      5.421
  Name = 
  4 active torsions:
  status: ('A' for Active; 'I' for Inactive)
    1  A    between atoms: O_8  and  C_13
    2  A    between atoms: C_11  and  C_18
    3  A    between atoms: C_13  and  C_14
    4  A    between atoms: C_20  and  O_24
                            x       y       z     vdW  Elec       q    Type
                         _______ _______ _______ _____ _____    ______ ____

>  <TORSDO>
F 4

$$$$
