=
 OpenBabel11062422373D

 44 49  0  0  1  0  0  0  0  0999 V2000
  185.3400  179.0480  147.2750 C   0  0  0  0  0  2  0  0  0  0  0  0
  187.2200  177.8580  141.3340 C   0  0  0  0  0  0  0  0  0  0  0  0
  191.5510  170.5600  140.6650 C   0  0  0  0  0  2  0  0  0  0  0  0
  189.8660  177.2060  142.8910 C   0  0  0  0  0  2  0  0  0  0  0  0
  186.0310  177.7360  143.2820 C   0  0  1  0  0  3  0  0  0  0  0  0
  189.9400  175.8540  145.6370 N   0  0  0  0  0  2  0  0  0  0  0  0
  185.1770  177.6880  145.3670 C   0  0  0  0  0  2  0  0  0  0  0  0
  193.2130  172.9790  145.1590 C   0  0  0  0  0  0  0  0  0  0  0  0
  190.2810  177.5240  147.2340 O   0  0  0  0  0  0  0  0  0  0  0  0
  191.1330  176.1710  144.8620 C   0  0  2  0  0  3  0  0  0  0  0  0
  185.8510  177.4000  141.0470 C   0  0  0  0  0  2  0  0  0  0  0  0
  189.5010  176.6860  146.7090 C   0  0  0  0  0  0  0  0  0  0  0  0
  185.2590  177.0900  142.2860 O   0  0  0  0  0  0  0  0  0  0  0  0
  192.4250  172.7230  139.8550 N   0  0  0  0  0  0  0  0  0  0  0  0
  192.7000  170.0020  141.3650 N   0  0  0  0  0  0  0  0  0  0  0  0
  191.0930  174.1170  141.8350 C   0  0  0  0  0  0  0  0  0  0  0  0
  193.9460  172.8780  146.1310 O   0  0  0  0  0  0  0  0  0  0  0  0
  186.0050  176.9950  144.4720 O   0  0  0  0  0  0  0  0  0  0  0  0
  188.0380  178.1480  140.4770 O   0  0  0  0  0  0  0  0  0  0  0  0
  192.1640  170.3610  143.7350 C   0  0  0  0  0  2  0  0  0  0  0  0
  193.5300  172.2610  143.8810 C   0  0  2  0  0  3  0  0  0  0  0  0
  192.2200  169.3640  142.5840 C   0  0  0  0  0  2  0  0  0  0  0  0
  191.6140  172.0470  140.7140 C   0  0  0  0  0  0  0  0  0  0  0  0
  193.2240  168.9430  140.5230 C   0  0  0  0  0  1  0  0  0  0  0  0
  186.7690  176.0720  147.0120 C   0  0  0  0  0  2  0  0  0  0  0  0
  190.8560  176.1320  143.3510 C   0  0  1  0  0  3  0  0  0  0  0  0
  191.9740  173.8060  145.2350 C   0  0  0  0  0  2  0  0  0  0  0  0
  188.1390  176.6370  147.1100 N   0  0  0  0  0  0  0  0  0  0  0  0
  186.9250  177.2210  147.7640 C   0  0  1  0  0  3  0  0  0  0  0  0
  188.4190  176.8510  143.2210 C   0  0  0  0  0  2  0  0  0  0  0  0
  186.7300  178.6220  147.1290 C   0  0  1  0  0  3  0  0  0  0  0  0
  187.4590  177.9570  142.7740 C   0  0  1  0  0  3  0  0  0  0  0  0
  190.9310  172.7370  141.7180 C   0  0  0  0  0  3  0  0  0  0  0  0
  193.5020  170.8180  144.0830 N   0  0  0  0  0  2  0  0  0  0  0  0
  192.3180  175.2900  145.2700 C   0  0  0  0  0  2  0  0  0  0  0  0
  191.9370  174.7910  140.9430 C   0  0  0  0  0  3  0  0  0  0  0  0
  185.8780  178.8430  145.9220 N   0  0  2  0  0  0  0  0  0  0  0  0
  192.5920  174.0700  139.9440 C   0  0  0  0  0  3  0  0  0  0  0  0
  190.4480  174.8020  142.9090 N   0  0  0  0  0  2  0  0  0  0  0  0
  194.8860  172.6970  143.3490 C   0  0  0  0  0  2  0  0  0  0  0  0
  194.8540  174.1670  142.9860 C   0  0  0  0  0  2  0  0  0  0  0  0
  196.0600  174.8640  143.5750 C   0  0  0  0  0  2  0  0  0  0  0  0
  195.7220  176.3170  143.8320 C   0  0  0  0  0  2  0  0  0  0  0  0
  196.7840  177.1200  143.4180 O   0  0  0  0  0  1  0  0  0  0  0  0
  2 32  1  0  0  0  0
  3 23  1  0  0  0  0
  3 15  1  0  0  0  0
  4 30  1  0  0  0  0
  5 13  1  6  0  0  0
  5 18  1  0  0  0  0
  6 12  1  0  0  0  0
  8 27  1  0  0  0  0
  8 17  2  0  0  0  0
 10 35  1  6  0  0  0
 10  6  1  0  0  0  0
 11  2  1  0  0  0  0
 11 13  1  0  0  0  0
 12 28  1  0  0  0  0
 12  9  2  0  0  0  0
 14 38  2  0  0  0  0
 14 23  1  0  0  0  0
 15 22  1  0  0  0  0
 16 39  1  0  0  0  0
 18  7  1  0  0  0  0
 19  2  2  0  0  0  0
 20 34  1  0  0  0  0
 21 40  1  1  0  0  0
 21 34  1  0  0  0  0
 21  8  1  0  0  0  0
 22 20  1  0  0  0  0
 23 33  2  0  0  0  0
 24 15  1  0  0  0  0
 25 28  1  0  0  0  0
 26  4  1  1  0  0  0
 26 10  1  0  0  0  0
 27 35  1  0  0  0  0
 28 29  1  0  0  0  0
 29 25  1  6  0  0  0
 31  1  1  1  0  0  0
 31 29  1  0  0  0  0
 32 30  1  1  0  0  0
 32  5  1  0  0  0  0
 33 16  1  0  0  0  0
 36 16  2  0  0  0  0
 37  7  1  1  0  0  0
 37 31  1  0  0  0  0
 37  1  1  0  0  0  0
 38 36  1  0  0  0  0
 39 26  1  0  0  0  0
 41 40  1  0  0  0  0
 41 42  1  0  0  0  0
 42 43  1  0  0  0  0
 44 43  1  0  0  0  0
M  END
>  <MODEL>
1

>  <REMARK>
 VINA RESULT:      -7.2      0.000      0.000
  Name = 
  4 active torsions:
  status: ('A' for Active; 'I' for Inactive)
    1  A    between atoms: C_21  and  C_22
    2  A    between atoms: C_21  and  C_32
    3  A    between atoms: C_24  and  C_37
    4  A    between atoms: C_32  and  C_37
                            x       y       z     vdW  Elec       q    Type
                         _______ _______ _______ _____ _____    ______ ____

>  <TORSDO>
F 4

$$$$
=
 OpenBabel11062422373D

 44 49  0  0  1  0  0  0  0  0999 V2000
  184.9260  177.5800  145.3270 C   0  0  0  0  0  2  0  0  0  0  0  0
  190.5870  175.8290  147.5940 C   0  0  0  0  0  0  0  0  0  0  0  0
  196.4850  175.1250  141.4960 C   0  0  0  0  0  2  0  0  0  0  0  0
  190.3690  173.9170  145.1150 C   0  0  0  0  0  2  0  0  0  0  0  0
  188.9200  177.1400  146.7420 C   0  0  1  0  0  3  0  0  0  0  0  0
  189.1170  174.7260  142.4410 N   0  0  0  0  0  2  0  0  0  0  0  0
  187.1750  178.1340  145.7190 C   0  0  0  0  0  2  0  0  0  0  0  0
  191.9420  173.0310  139.5520 C   0  0  0  0  0  0  0  0  0  0  0  0
  186.9540  173.8460  142.3820 O   0  0  0  0  0  0  0  0  0  0  0  0
  189.7720  173.4440  142.6700 C   0  0  2  0  0  3  0  0  0  0  0  0
  190.7900  177.2220  148.0220 C   0  0  0  0  0  2  0  0  0  0  0  0
  187.6970  174.8590  142.4780 C   0  0  0  0  0  0  0  0  0  0  0  0
  189.9060  178.0120  147.2620 O   0  0  0  0  0  0  0  0  0  0  0  0
  195.9720  173.3090  143.0880 N   0  0  0  0  0  0  0  0  0  0  0  0
  196.5400  174.4190  140.2230 N   0  0  0  0  0  0  0  0  0  0  0  0
  193.3240  174.0800  143.2700 C   0  0  0  0  0  0  0  0  0  0  0  0
  191.4210  172.5210  138.5710 O   0  0  0  0  0  0  0  0  0  0  0  0
  188.4600  177.6110  145.5050 O   0  0  0  0  0  0  0  0  0  0  0  0
  191.2400  174.8850  148.0070 O   0  0  0  0  0  0  0  0  0  0  0  0
  194.3990  174.9790  139.1590 C   0  0  0  0  0  2  0  0  0  0  0  0
  193.4230  172.9360  139.7700 C   0  0  2  0  0  3  0  0  0  0  0  0
  195.8960  175.2520  139.2160 C   0  0  0  0  0  2  0  0  0  0  0  0
  195.5540  174.4170  142.4180 C   0  0  0  0  0  0  0  0  0  0  0  0
  197.9410  174.3350  139.8570 C   0  0  0  0  0  1  0  0  0  0  0  0
  187.2510  177.5950  142.9700 C   0  0  0  0  0  2  0  0  0  0  0  0
  190.8870  173.5550  143.7200 C   0  0  1  0  0  3  0  0  0  0  0  0
  191.1120  173.7770  140.5400 C   0  0  0  0  0  2  0  0  0  0  0  0
  187.1280  176.1340  142.7320 N   0  0  0  0  0  0  0  0  0  0  0  0
  186.0110  177.0240  143.1820 C   0  0  1  0  0  3  0  0  0  0  0  0
  190.0220  175.3960  145.2480 C   0  0  0  0  0  2  0  0  0  0  0  0
  185.5980  176.5160  144.5870 C   0  0  1  0  0  3  0  0  0  0  0  0
  189.4800  175.7170  146.6430 C   0  0  1  0  0  3  0  0  0  0  0  0
  194.2210  174.8230  142.5010 C   0  0  0  0  0  3  0  0  0  0  0  0
  194.1430  173.6200  138.7030 N   0  0  0  0  0  2  0  0  0  0  0  0
  190.2540  172.8180  141.3570 C   0  0  0  0  0  2  0  0  0  0  0  0
  193.7750  172.9400  143.9460 C   0  0  0  0  0  3  0  0  0  0  0  0
  186.1990  177.0540  145.8440 N   0  0  2  0  0  0  0  0  0  0  0  0
  195.1180  172.5740  143.8500 C   0  0  0  0  0  3  0  0  0  0  0  0
  191.9480  174.4610  143.2910 N   0  0  0  0  0  2  0  0  0  0  0  0
  193.8550  171.4810  139.8560 C   0  0  0  0  0  2  0  0  0  0  0  0
  193.2780  170.8400  141.1010 C   0  0  0  0  0  2  0  0  0  0  0  0
  192.9530  169.3890  140.8240 C   0  0  0  0  0  2  0  0  0  0  0  0
  191.4700  169.1630  141.0220 C   0  0  0  0  0  2  0  0  0  0  0  0
  190.7790  169.5950  139.8910 O   0  0  0  0  0  1  0  0  0  0  0  0
  2 19  2  0  0  0  0
  2 11  1  0  0  0  0
  3 23  1  0  0  0  0
  4 30  1  0  0  0  0
  5 18  1  6  0  0  0
  5 13  1  0  0  0  0
  6 12  1  0  0  0  0
  6 10  1  0  0  0  0
  7 37  1  0  0  0  0
  8 21  1  0  0  0  0
  8 27  1  0  0  0  0
  9 12  2  0  0  0  0
 10 35  1  6  0  0  0
 10 26  1  0  0  0  0
 12 28  1  0  0  0  0
 13 11  1  0  0  0  0
 14 38  1  0  0  0  0
 15  3  1  0  0  0  0
 16 39  1  0  0  0  0
 16 36  1  0  0  0  0
 17  8  2  0  0  0  0
 18  7  1  0  0  0  0
 20 22  1  0  0  0  0
 21 40  1  6  0  0  0
 22 15  1  0  0  0  0
 23 33  1  0  0  0  0
 23 14  2  0  0  0  0
 24 15  1  0  0  0  0
 26  4  1  1  0  0  0
 27 35  1  0  0  0  0
 28 25  1  0  0  0  0
 28 29  1  0  0  0  0
 29 25  1  1  0  0  0
 29 31  1  0  0  0  0
 31  1  1  1  0  0  0
 31 37  1  0  0  0  0
 32 30  1  6  0  0  0
 32  5  1  0  0  0  0
 32  2  1  0  0  0  0
 33 16  2  0  0  0  0
 34 20  1  0  0  0  0
 34 21  1  0  0  0  0
 37  1  1  1  0  0  0
 38 36  2  0  0  0  0
 39 26  1  0  0  0  0
 40 41  1  0  0  0  0
 42 43  1  0  0  0  0
 42 41  1  0  0  0  0
 44 43  1  0  0  0  0
M  END
>  <MODEL>
2

>  <REMARK>
 VINA RESULT:      -7.1      2.550      5.510
  Name = 
  4 active torsions:
  status: ('A' for Active; 'I' for Inactive)
    1  A    between atoms: C_21  and  C_22
    2  A    between atoms: C_21  and  C_32
    3  A    between atoms: C_24  and  C_37
    4  A    between atoms: C_32  and  C_37
                            x       y       z     vdW  Elec       q    Type
                         _______ _______ _______ _____ _____    ______ ____

>  <TORSDO>
F 4

$$$$
=
 OpenBabel11062422373D

 44 49  0  0  1  0  0  0  0  0999 V2000
  197.9410  173.0270  135.1860 C   0  0  0  0  0  2  0  0  0  0  0  0
  192.4860  170.8020  137.5380 C   0  0  0  0  0  0  0  0  0  0  0  0
  188.8470  176.1880  143.0340 C   0  0  0  0  0  2  0  0  0  0  0  0
  193.8370  171.8460  140.1710 C   0  0  0  0  0  2  0  0  0  0  0  0
  193.9470  172.0350  136.2860 C   0  0  1  0  0  3  0  0  0  0  0  0
  195.5370  174.3870  140.3250 N   0  0  0  0  0  2  0  0  0  0  0  0
  195.6070  173.2350  135.3450 C   0  0  0  0  0  2  0  0  0  0  0  0
  194.1180  176.2190  144.0440 C   0  0  0  0  0  0  0  0  0  0  0  0
  197.7790  173.7360  140.3040 O   0  0  0  0  0  0  0  0  0  0  0  0
  195.1790  173.5850  141.4870 C   0  0  2  0  0  3  0  0  0  0  0  0
  191.8380  171.2050  136.2790 C   0  0  0  0  0  2  0  0  0  0  0  0
  196.8140  174.2730  139.7000 C   0  0  0  0  0  0  0  0  0  0  0  0
  192.6740  172.1680  135.6830 O   0  0  0  0  0  0  0  0  0  0  0  0
  189.3320  173.8300  143.5830 N   0  0  0  0  0  0  0  0  0  0  0  0
  189.3180  176.8880  144.2210 N   0  0  0  0  0  0  0  0  0  0  0  0
  191.5550  173.8020  141.9410 C   0  0  0  0  0  0  0  0  0  0  0  0
  194.9970  176.7160  144.7330 O   0  0  0  0  0  0  0  0  0  0  0  0
  194.6000  173.2750  136.3210 O   0  0  0  0  0  0  0  0  0  0  0  0
  191.9960  170.0240  138.3390 O   0  0  0  0  0  0  0  0  0  0  0  0
  191.4640  177.8490  143.5120 C   0  0  0  0  0  2  0  0  0  0  0  0
  192.7040  176.1450  144.5400 C   0  0  2  0  0  3  0  0  0  0  0  0
  189.9880  178.1080  143.7910 C   0  0  0  0  0  2  0  0  0  0  0  0
  189.6330  174.9370  142.8500 C   0  0  0  0  0  0  0  0  0  0  0  0
  188.1360  177.3030  144.9540 C   0  0  0  0  0  1  0  0  0  0  0  0
  196.4230  175.2660  137.0940 C   0  0  0  0  0  2  0  0  0  0  0  0
  193.8260  172.8810  141.2980 C   0  0  1  0  0  3  0  0  0  0  0  0
  194.4350  175.6960  142.6850 C   0  0  0  0  0  2  0  0  0  0  0  0
  196.9610  174.6760  138.3460 N   0  0  0  0  0  0  0  0  0  0  0  0
  197.6580  174.6510  137.0210 C   0  0  1  0  0  3  0  0  0  0  0  0
  193.7610  172.4830  138.7870 C   0  0  0  0  0  2  0  0  0  0  0  0
  197.7810  173.1550  136.6320 C   0  0  1  0  0  3  0  0  0  0  0  0
  193.8030  171.4220  137.6830 C   0  0  1  0  0  3  0  0  0  0  0  0
  190.7500  174.9390  142.0130 C   0  0  0  0  0  3  0  0  0  0  0  0
  192.1590  177.4820  144.7380 N   0  0  0  0  0  2  0  0  0  0  0  0
  195.2440  174.4070  142.7780 C   0  0  0  0  0  2  0  0  0  0  0  0
  191.2300  172.6760  142.7070 C   0  0  0  0  0  3  0  0  0  0  0  0
  196.7450  172.4500  135.8190 N   0  0  2  0  0  0  0  0  0  0  0  0
  190.0970  172.7070  143.5220 C   0  0  0  0  0  3  0  0  0  0  0  0
  192.7360  173.8380  141.1370 N   0  0  0  0  0  2  0  0  0  0  0  0
  192.6350  175.3470  145.8310 C   0  0  0  0  0  2  0  0  0  0  0  0
  192.1700  176.2340  146.9680 C   0  0  0  0  0  2  0  0  0  0  0  0
  191.1920  175.4770  147.8380 C   0  0  0  0  0  2  0  0  0  0  0  0
  190.1450  174.8230  146.9610 C   0  0  0  0  0  2  0  0  0  0  0  0
  188.9210  174.8120  147.6290 O   0  0  0  0  0  1  0  0  0  0  0  0
  2 32  1  0  0  0  0
  2 19  2  0  0  0  0
  3 15  1  0  0  0  0
  5 13  1  1  0  0  0
  5 18  1  0  0  0  0
  5 32  1  0  0  0  0
  6 10  1  0  0  0  0
  7 37  1  0  0  0  0
  7 18  1  0  0  0  0
  8 21  1  0  0  0  0
  8 17  2  0  0  0  0
 10 35  1  1  0  0  0
 11  2  1  0  0  0  0
 12  9  2  0  0  0  0
 12  6  1  0  0  0  0
 13 11  1  0  0  0  0
 15 24  1  0  0  0  0
 16 33  2  0  0  0  0
 16 36  1  0  0  0  0
 20 22  1  0  0  0  0
 20 34  1  0  0  0  0
 21 34  1  0  0  0  0
 21 40  1  1  0  0  0
 22 15  1  0  0  0  0
 23  3  1  0  0  0  0
 23 14  2  0  0  0  0
 25 28  1  0  0  0  0
 26  4  1  6  0  0  0
 26 10  1  0  0  0  0
 27 35  1  0  0  0  0
 27  8  1  0  0  0  0
 28 12  1  0  0  0  0
 29 25  1  6  0  0  0
 29 28  1  0  0  0  0
 30  4  1  0  0  0  0
 31  1  1  6  0  0  0
 31 29  1  0  0  0  0
 32 30  1  1  0  0  0
 33 23  1  0  0  0  0
 36 38  2  0  0  0  0
 37  1  1  6  0  0  0
 37 31  1  0  0  0  0
 38 14  1  0  0  0  0
 39 26  1  0  0  0  0
 39 16  1  0  0  0  0
 40 41  1  0  0  0  0
 41 42  1  0  0  0  0
 43 44  1  0  0  0  0
 43 42  1  0  0  0  0
M  END
>  <MODEL>
3

>  <REMARK>
 VINA RESULT:      -6.8      3.893      9.225
  Name = 
  4 active torsions:
  status: ('A' for Active; 'I' for Inactive)
    1  A    between atoms: C_21  and  C_22
    2  A    between atoms: C_21  and  C_32
    3  A    between atoms: C_24  and  C_37
    4  A    between atoms: C_32  and  C_37
                            x       y       z     vdW  Elec       q    Type
                         _______ _______ _______ _____ _____    ______ ____

>  <TORSDO>
F 4

$$$$
=
 OpenBabel11062422373D

 44 49  0  0  1  0  0  0  0  0999 V2000
  187.4030  177.3980  146.3470 C   0  0  0  0  0  2  0  0  0  0  0  0
  192.9710  174.4390  145.6510 C   0  0  0  0  0  0  0  0  0  0  0  0
  195.5350  174.1410  137.5390 C   0  0  0  0  0  2  0  0  0  0  0  0
  191.3470  173.1140  143.3160 C   0  0  0  0  0  2  0  0  0  0  0  0
  191.4280  176.1190  145.7870 C   0  0  1  0  0  3  0  0  0  0  0  0
  189.3120  174.6130  141.5890 N   0  0  0  0  0  2  0  0  0  0  0  0
  189.6750  177.5350  145.7660 C   0  0  0  0  0  2  0  0  0  0  0  0
  190.2610  173.1470  137.5690 C   0  0  0  0  0  0  0  0  0  0  0  0
  187.1830  174.0800  142.3880 O   0  0  0  0  0  0  0  0  0  0  0  0
  189.7100  173.2310  141.3500 C   0  0  2  0  0  3  0  0  0  0  0  0
  193.6280  175.6750  146.1080 C   0  0  0  0  0  2  0  0  0  0  0  0
  188.0990  174.9360  142.2650 C   0  0  0  0  0  0  0  0  0  0  0  0
  192.7020  176.7190  145.9170 O   0  0  0  0  0  0  0  0  0  0  0  0
  195.3450  172.1340  138.9650 N   0  0  0  0  0  0  0  0  0  0  0  0
  194.9080  173.7040  136.3000 N   0  0  0  0  0  0  0  0  0  0  0  0
  193.2400  173.2220  140.3890 C   0  0  0  0  0  0  0  0  0  0  0  0
  189.2860  172.9240  136.8670 O   0  0  0  0  0  0  0  0  0  0  0  0
  190.6120  176.8880  144.9470 O   0  0  0  0  0  0  0  0  0  0  0  0
  193.5170  173.3490  145.6180 O   0  0  0  0  0  0  0  0  0  0  0  0
  192.6940  174.7640  136.3660 C   0  0  0  0  0  2  0  0  0  0  0  0
  191.6420  172.8010  137.0970 C   0  0  2  0  0  3  0  0  0  0  0  0
  194.1030  174.8050  135.7880 C   0  0  0  0  0  2  0  0  0  0  0  0
  194.9370  173.4020  138.6860 C   0  0  0  0  0  0  0  0  0  0  0  0
  195.9800  173.4960  135.3440 C   0  0  0  0  0  1  0  0  0  0  0  0
  188.4950  177.5540  143.2250 C   0  0  0  0  0  2  0  0  0  0  0  0
  191.1540  172.9700  141.8040 C   0  0  1  0  0  3  0  0  0  0  0  0
  190.0930  173.7910  138.9030 C   0  0  0  0  0  2  0  0  0  0  0  0
  187.9730  176.2030  142.8940 N   0  0  0  0  0  0  0  0  0  0  0  0
  187.3610  177.1350  143.8940 C   0  0  1  0  0  3  0  0  0  0  0  0
  191.4130  174.5710  143.7640 C   0  0  0  0  0  2  0  0  0  0  0  0
  187.4640  176.4180  145.2650 C   0  0  1  0  0  3  0  0  0  0  0  0
  191.5760  174.6800  145.2820 C   0  0  1  0  0  3  0  0  0  0  0  0
  193.8780  173.9690  139.3980 C   0  0  0  0  0  3  0  0  0  0  0  0
  191.9880  173.5750  135.9120 N   0  0  0  0  0  2  0  0  0  0  0  0
  189.4630  172.8200  139.8950 C   0  0  0  0  0  2  0  0  0  0  0  0
  193.6730  171.9170  140.6560 C   0  0  0  0  0  3  0  0  0  0  0  0
  188.6290  176.6030  146.1810 N   0  0  2  0  0  0  0  0  0  0  0  0
  194.7440  171.3900  139.9330 C   0  0  0  0  0  3  0  0  0  0  0  0
  192.1120  173.7830  141.0610 N   0  0  0  0  0  2  0  0  0  0  0  0
  191.7470  171.3120  136.8090 C   0  0  0  0  0  2  0  0  0  0  0  0
  191.6390  170.5240  138.0990 C   0  0  0  0  0  2  0  0  0  0  0  0
  190.5660  169.4660  137.9620 C   0  0  0  0  0  2  0  0  0  0  0  0
  190.4410  168.7100  139.2670 C   0  0  0  0  0  2  0  0  0  0  0  0
  190.8160  169.5400  140.3230 O   0  0  0  0  0  1  0  0  0  0  0  0
  2 11  1  0  0  0  0
  3 23  1  0  0  0  0
  4 30  1  0  0  0  0
  5 18  1  6  0  0  0
  5 13  1  0  0  0  0
  6 12  1  0  0  0  0
  8 27  1  0  0  0  0
 10 35  1  6  0  0  0
 10  6  1  0  0  0  0
 10 26  1  0  0  0  0
 12  9  2  0  0  0  0
 12 28  1  0  0  0  0
 13 11  1  0  0  0  0
 14 38  1  0  0  0  0
 15  3  1  0  0  0  0
 16 36  1  0  0  0  0
 16 39  1  0  0  0  0
 17  8  2  0  0  0  0
 18  7  1  0  0  0  0
 19  2  2  0  0  0  0
 21 40  1  6  0  0  0
 21  8  1  0  0  0  0
 22 15  1  0  0  0  0
 22 20  1  0  0  0  0
 23 14  2  0  0  0  0
 23 33  1  0  0  0  0
 24 15  1  0  0  0  0
 26  4  1  1  0  0  0
 27 35  1  0  0  0  0
 28 25  1  0  0  0  0
 28 29  1  0  0  0  0
 29 25  1  1  0  0  0
 29 31  1  0  0  0  0
 31 37  1  0  0  0  0
 31  1  1  1  0  0  0
 32 30  1  6  0  0  0
 32  2  1  0  0  0  0
 32  5  1  0  0  0  0
 33 16  2  0  0  0  0
 34 20  1  0  0  0  0
 34 21  1  0  0  0  0
 37  7  1  6  0  0  0
 37  1  1  0  0  0  0
 38 36  2  0  0  0  0
 39 26  1  0  0  0  0
 40 41  1  0  0  0  0
 42 41  1  0  0  0  0
 42 43  1  0  0  0  0
 43 44  1  0  0  0  0
M  END
>  <MODEL>
4

>  <REMARK>
 VINA RESULT:      -6.7      2.980      6.421
  Name = 
  4 active torsions:
  status: ('A' for Active; 'I' for Inactive)
    1  A    between atoms: C_21  and  C_22
    2  A    between atoms: C_21  and  C_32
    3  A    between atoms: C_24  and  C_37
    4  A    between atoms: C_32  and  C_37
                            x       y       z     vdW  Elec       q    Type
                         _______ _______ _______ _____ _____    ______ ____

>  <TORSDO>
F 4

$$$$
=
 OpenBabel11062422373D

 44 49  0  0  1  0  0  0  0  0999 V2000
  185.2430  179.0610  147.2930 C   0  0  0  0  0  2  0  0  0  0  0  0
  187.1660  177.9430  141.3520 C   0  0  0  0  0  0  0  0  0  0  0  0
  191.4940  170.6490  140.6250 C   0  0  0  0  0  2  0  0  0  0  0  0
  189.7990  177.2680  142.9210 C   0  0  0  0  0  2  0  0  0  0  0  0
  185.9620  177.7980  143.2890 C   0  0  1  0  0  3  0  0  0  0  0  0
  189.8510  175.8830  145.6500 N   0  0  0  0  0  2  0  0  0  0  0  0
  185.0920  177.7250  145.3670 C   0  0  0  0  0  2  0  0  0  0  0  0
  193.1240  173.0100  145.1610 C   0  0  0  0  0  0  0  0  0  0  0  0
  190.1810  177.5320  147.2710 O   0  0  0  0  0  0  0  0  0  0  0  0
  191.0500  176.2080  144.8880 C   0  0  2  0  0  3  0  0  0  0  0  0
  185.7990  177.4900  141.0490 C   0  0  0  0  0  2  0  0  0  0  0  0
  189.4040  176.7010  146.7290 C   0  0  0  0  0  0  0  0  0  0  0  0
  185.1970  177.1660  142.2800 O   0  0  0  0  0  0  0  0  0  0  0  0
  192.3770  172.8200  139.8480 N   0  0  0  0  0  0  0  0  0  0  0  0
  192.6370  170.0810  141.3260 N   0  0  0  0  0  0  0  0  0  0  0  0
  191.0310  174.1920  141.8350 C   0  0  0  0  0  0  0  0  0  0  0  0
  193.8500  172.8950  146.1370 O   0  0  0  0  0  0  0  0  0  0  0  0
  185.9270  177.0420  144.4690 O   0  0  0  0  0  0  0  0  0  0  0  0
  187.9910  178.2430  140.5040 O   0  0  0  0  0  0  0  0  0  0  0  0
  192.0830  170.4110  143.6960 C   0  0  0  0  0  2  0  0  0  0  0  0
  193.4500  172.3070  143.8770 C   0  0  2  0  0  3  0  0  0  0  0  0
  192.1470  169.4280  142.5330 C   0  0  0  0  0  2  0  0  0  0  0  0
  191.5580  172.1350  140.6930 C   0  0  0  0  0  0  0  0  0  0  0  0
  193.1660  169.0320  140.4750 C   0  0  0  0  0  1  0  0  0  0  0  0
  186.6700  176.0870  147.0030 C   0  0  0  0  0  2  0  0  0  0  0  0
  190.7840  176.1880  143.3750 C   0  0  1  0  0  3  0  0  0  0  0  0
  191.8860  173.8360  145.2380 C   0  0  0  0  0  2  0  0  0  0  0  0
  188.0400  176.6490  147.1190 N   0  0  0  0  0  0  0  0  0  0  0  0
  186.8220  177.2260  147.7710 C   0  0  1  0  0  3  0  0  0  0  0  0
  188.3490  176.9110  143.2350 C   0  0  0  0  0  2  0  0  0  0  0  0
  186.6320  178.6350  147.1520 C   0  0  1  0  0  3  0  0  0  0  0  0
  187.3950  178.0240  142.7950 C   0  0  1  0  0  3  0  0  0  0  0  0
  190.8680  172.8130  141.7000 C   0  0  0  0  0  3  0  0  0  0  0  0
  193.4190  170.8620  144.0600 N   0  0  0  0  0  2  0  0  0  0  0  0
  192.2310  175.3200  145.2940 C   0  0  0  0  0  2  0  0  0  0  0  0
  191.8820  174.8750  140.9590 C   0  0  0  0  0  3  0  0  0  0  0  0
  185.7910  178.8720  145.9410 N   0  0  2  0  0  0  0  0  0  0  0  0
  192.5440  174.1660  139.9550 C   0  0  0  0  0  3  0  0  0  0  0  0
  190.3790  174.8640  142.9130 N   0  0  0  0  0  2  0  0  0  0  0  0
  194.8100  172.7480  143.3610 C   0  0  0  0  0  2  0  0  0  0  0  0
  195.0430  172.1960  141.9690 C   0  0  0  0  0  2  0  0  0  0  0  0
  195.8480  173.1840  141.1560 C   0  0  0  0  0  2  0  0  0  0  0  0
  196.2830  172.5300  139.8620 C   0  0  0  0  0  2  0  0  0  0  0  0
  195.8460  173.2990  138.7840 O   0  0  0  0  0  1  0  0  0  0  0  0
  2 32  1  0  0  0  0
  3 23  1  0  0  0  0
  3 15  1  0  0  0  0
  4 30  1  0  0  0  0
  5 13  1  6  0  0  0
  5 18  1  0  0  0  0
  6 12  1  0  0  0  0
  8 27  1  0  0  0  0
  8 17  2  0  0  0  0
 10 35  1  6  0  0  0
 10  6  1  0  0  0  0
 11  2  1  0  0  0  0
 11 13  1  0  0  0  0
 12 28  1  0  0  0  0
 12  9  2  0  0  0  0
 14 38  2  0  0  0  0
 14 23  1  0  0  0  0
 15 22  1  0  0  0  0
 16 39  1  0  0  0  0
 18  7  1  0  0  0  0
 19  2  2  0  0  0  0
 20 34  1  0  0  0  0
 21 40  1  1  0  0  0
 21 34  1  0  0  0  0
 21  8  1  0  0  0  0
 22 20  1  0  0  0  0
 23 33  2  0  0  0  0
 24 15  1  0  0  0  0
 25 28  1  0  0  0  0
 26  4  1  1  0  0  0
 26 10  1  0  0  0  0
 27 35  1  0  0  0  0
 28 29  1  0  0  0  0
 29 25  1  6  0  0  0
 31  1  1  1  0  0  0
 31 29  1  0  0  0  0
 32 30  1  1  0  0  0
 32  5  1  0  0  0  0
 33 16  1  0  0  0  0
 36 16  2  0  0  0  0
 37  7  1  1  0  0  0
 37 31  1  0  0  0  0
 37  1  1  0  0  0  0
 38 36  1  0  0  0  0
 39 26  1  0  0  0  0
 41 40  1  0  0  0  0
 42 41  1  0  0  0  0
 43 42  1  0  0  0  0
 44 43  1  0  0  0  0
M  END
>  <MODEL>
5

>  <REMARK>
 VINA RESULT:      -6.4      1.158      1.361
  Name = 
  4 active torsions:
  status: ('A' for Active; 'I' for Inactive)
    1  A    between atoms: C_21  and  C_22
    2  A    between atoms: C_21  and  C_32
    3  A    between atoms: C_24  and  C_37
    4  A    between atoms: C_32  and  C_37
                            x       y       z     vdW  Elec       q    Type
                         _______ _______ _______ _____ _____    ______ ____

>  <TORSDO>
F 4

$$$$
=
 OpenBabel11062422373D

 44 49  0  0  1  0  0  0  0  0999 V2000
  183.9360  178.5910  142.4760 C   0  0  0  0  0  2  0  0  0  0  0  0
  187.7860  176.3770  147.0060 C   0  0  0  0  0  0  0  0  0  0  0  0
  195.8820  175.8070  144.4390 C   0  0  0  0  0  2  0  0  0  0  0  0
  188.7660  174.6660  144.5650 C   0  0  0  0  0  2  0  0  0  0  0  0
  186.7510  177.8350  145.5830 C   0  0  1  0  0  3  0  0  0  0  0  0
  188.9650  175.7350  141.7030 N   0  0  0  0  0  2  0  0  0  0  0  0
  185.7260  178.9930  143.9440 C   0  0  0  0  0  2  0  0  0  0  0  0
  192.8120  174.1070  140.3790 C   0  0  0  0  0  0  0  0  0  0  0  0
  187.0870  174.9790  140.5380 O   0  0  0  0  0  0  0  0  0  0  0  0
  189.4140  174.4060  142.1010 C   0  0  2  0  0  3  0  0  0  0  0  0
  187.7740  177.7220  147.6030 C   0  0  0  0  0  2  0  0  0  0  0  0
  187.7050  175.9400  141.0680 C   0  0  0  0  0  0  0  0  0  0  0  0
  187.3750  178.6120  146.5880 O   0  0  0  0  0  0  0  0  0  0  0  0
  194.6450  173.9090  145.4210 N   0  0  0  0  0  0  0  0  0  0  0  0
  196.5350  175.1940  143.2910 N   0  0  0  0  0  0  0  0  0  0  0  0
  192.2460  174.8060  144.3820 C   0  0  0  0  0  0  0  0  0  0  0  0
  192.8210  173.6990  139.2270 O   0  0  0  0  0  0  0  0  0  0  0  0
  186.9480  178.4180  144.3240 O   0  0  0  0  0  0  0  0  0  0  0  0
  188.1480  175.3720  147.5950 O   0  0  0  0  0  0  0  0  0  0  0  0
  195.1770  175.9440  141.3870 C   0  0  0  0  0  2  0  0  0  0  0  0
  194.0040  173.9180  141.2690 C   0  0  2  0  0  3  0  0  0  0  0  0
  196.4660  176.1320  142.1780 C   0  0  0  0  0  2  0  0  0  0  0  0
  194.6140  175.0850  144.7350 C   0  0  0  0  0  0  0  0  0  0  0  0
  197.9390  175.0620  143.6330 C   0  0  0  0  0  1  0  0  0  0  0  0
  187.1090  178.6540  141.5310 C   0  0  0  0  0  2  0  0  0  0  0  0
  189.8870  174.3800  143.5620 C   0  0  1  0  0  3  0  0  0  0  0  0
  191.6180  174.8230  140.9120 C   0  0  0  0  0  2  0  0  0  0  0  0
  187.0980  177.2230  141.1320 N   0  0  0  0  0  0  0  0  0  0  0  0
  185.9130  178.1360  141.0710 C   0  0  1  0  0  3  0  0  0  0  0  0
  188.4150  176.1490  144.6480 C   0  0  0  0  0  2  0  0  0  0  0  0
  184.8690  177.5490  142.0550 C   0  0  1  0  0  3  0  0  0  0  0  0
  187.2720  176.3950  145.6360 C   0  0  1  0  0  3  0  0  0  0  0  0
  193.4100  175.5540  144.2070 C   0  0  0  0  0  3  0  0  0  0  0  0
  195.1570  174.6380  140.7440 N   0  0  0  0  0  2  0  0  0  0  0  0
  190.4610  173.8540  141.1280 C   0  0  0  0  0  2  0  0  0  0  0  0
  192.3020  173.5970  145.0860 C   0  0  0  0  0  3  0  0  0  0  0  0
  184.7970  177.9600  143.4890 N   0  0  2  0  0  0  0  0  0  0  0  0
  193.5210  173.1670  145.6120 C   0  0  0  0  0  3  0  0  0  0  0  0
  191.0340  175.2580  143.7760 N   0  0  0  0  0  2  0  0  0  0  0  0
  194.3240  172.4390  141.4200 C   0  0  0  0  0  2  0  0  0  0  0  0
  193.2330  171.7480  142.2120 C   0  0  0  0  0  2  0  0  0  0  0  0
  192.9810  170.3720  141.6390 C   0  0  0  0  0  2  0  0  0  0  0  0
  191.9580  170.4720  140.5280 C   0  0  0  0  0  2  0  0  0  0  0  0
  190.6830  170.2610  141.0510 O   0  0  0  0  0  1  0  0  0  0  0  0
  2 19  2  0  0  0  0
  2 11  1  0  0  0  0
  3 23  1  0  0  0  0
  4 30  1  0  0  0  0
  5 18  1  6  0  0  0
  5 32  1  0  0  0  0
  5 13  1  0  0  0  0
  6 10  1  0  0  0  0
  7 18  1  0  0  0  0
  8 27  1  0  0  0  0
  8 21  1  0  0  0  0
  9 12  2  0  0  0  0
 10 35  1  6  0  0  0
 10 26  1  0  0  0  0
 12 28  1  0  0  0  0
 12  6  1  0  0  0  0
 13 11  1  0  0  0  0
 14 38  1  0  0  0  0
 15 24  1  0  0  0  0
 15  3  1  0  0  0  0
 16 36  1  0  0  0  0
 17  8  2  0  0  0  0
 20 22  1  0  0  0  0
 21 40  1  6  0  0  0
 22 15  1  0  0  0  0
 23 14  2  0  0  0  0
 26 39  1  0  0  0  0
 26  4  1  1  0  0  0
 27 35  1  0  0  0  0
 28 25  1  0  0  0  0
 29 28  1  0  0  0  0
 29 25  1  1  0  0  0
 29 31  1  0  0  0  0
 31  1  1  6  0  0  0
 31 37  1  0  0  0  0
 32 30  1  6  0  0  0
 32  2  1  0  0  0  0
 33 16  2  0  0  0  0
 33 23  1  0  0  0  0
 34 21  1  0  0  0  0
 34 20  1  0  0  0  0
 36 38  2  0  0  0  0
 37  1  1  6  0  0  0
 37  7  1  0  0  0  0
 39 16  1  0  0  0  0
 40 41  1  0  0  0  0
 42 41  1  0  0  0  0
 43 44  1  0  0  0  0
 43 42  1  0  0  0  0
M  END
>  <MODEL>
6

>  <REMARK>
 VINA RESULT:      -6.3      2.528      5.449
  Name = 
  4 active torsions:
  status: ('A' for Active; 'I' for Inactive)
    1  A    between atoms: C_21  and  C_22
    2  A    between atoms: C_21  and  C_32
    3  A    between atoms: C_24  and  C_37
    4  A    between atoms: C_32  and  C_37
                            x       y       z     vdW  Elec       q    Type
                         _______ _______ _______ _____ _____    ______ ____

>  <TORSDO>
F 4

$$$$
=
 OpenBabel11062422373D

 44 49  0  0  1  0  0  0  0  0999 V2000
  189.3160  175.4730  147.2640 C   0  0  0  0  0  2  0  0  0  0  0  0
  195.0240  173.6690  145.1640 C   0  0  0  0  0  0  0  0  0  0  0  0
  196.1340  175.2920  136.8820 C   0  0  0  0  0  2  0  0  0  0  0  0
  193.2090  172.5400  142.8670 C   0  0  0  0  0  2  0  0  0  0  0  0
  193.3150  175.0120  145.8700 C   0  0  1  0  0  3  0  0  0  0  0  0
  190.7170  173.9650  141.8050 N   0  0  0  0  0  2  0  0  0  0  0  0
  191.4100  176.0940  146.4000 C   0  0  0  0  0  2  0  0  0  0  0  0
  191.1320  173.4390  137.4740 C   0  0  0  0  0  0  0  0  0  0  0  0
  188.8540  172.9460  142.7780 O   0  0  0  0  0  0  0  0  0  0  0  0
  191.2500  172.7380  141.2290 C   0  0  2  0  0  3  0  0  0  0  0  0
  195.5770  174.8930  145.7670 C   0  0  0  0  0  2  0  0  0  0  0  0
  189.6090  173.9520  142.7030 C   0  0  0  0  0  0  0  0  0  0  0  0
  194.4990  175.7840  145.9340 O   0  0  0  0  0  0  0  0  0  0  0  0
  196.4720  173.0560  137.8720 N   0  0  0  0  0  0  0  0  0  0  0  0
  195.3640  174.9900  135.6840 N   0  0  0  0  0  0  0  0  0  0  0  0
  194.5240  173.4970  139.7820 C   0  0  0  0  0  0  0  0  0  0  0  0
  190.0880  173.1870  136.8910 O   0  0  0  0  0  0  0  0  0  0  0  0
  192.2670  175.7740  145.3360 O   0  0  0  0  0  0  0  0  0  0  0  0
  195.6980  172.7100  144.8260 O   0  0  0  0  0  0  0  0  0  0  0  0
  193.0730  175.6340  136.2910 C   0  0  0  0  0  2  0  0  0  0  0  0
  192.4420  173.4220  136.7440 C   0  0  2  0  0  3  0  0  0  0  0  0
  194.3400  176.0150  135.5340 C   0  0  0  0  0  2  0  0  0  0  0  0
  195.8540  174.2670  137.9250 C   0  0  0  0  0  0  0  0  0  0  0  0
  196.2690  175.1430  134.5600 C   0  0  0  0  0  1  0  0  0  0  0  0
  189.8100  176.3780  144.1170 C   0  0  0  0  0  2  0  0  0  0  0  0
  192.7740  172.6430  141.4030 C   0  0  1  0  0  3  0  0  0  0  0  0
  191.1160  173.7910  138.9230 C   0  0  0  0  0  2  0  0  0  0  0  0
  189.4260  175.0420  143.5930 N   0  0  0  0  0  0  0  0  0  0  0  0
  188.8790  175.6600  144.8430 C   0  0  1  0  0  3  0  0  0  0  0  0
  193.1540  173.8800  143.5930 C   0  0  0  0  0  2  0  0  0  0  0  0
  189.3180  174.7320  146.0060 C   0  0  1  0  0  3  0  0  0  0  0  0
  193.5660  173.7350  145.0610 C   0  0  1  0  0  3  0  0  0  0  0  0
  194.8700  174.5080  138.8860 C   0  0  0  0  0  3  0  0  0  0  0  0
  192.4660  174.4460  135.7080 N   0  0  0  0  0  2  0  0  0  0  0  0
  190.8090  172.5630  139.7720 C   0  0  0  0  0  2  0  0  0  0  0  0
  195.1700  172.2570  139.7060 C   0  0  0  0  0  3  0  0  0  0  0  0
  190.5910  174.9390  146.7590 N   0  0  2  0  0  0  0  0  0  0  0  0
  196.1580  172.0580  138.7410 C   0  0  0  0  0  3  0  0  0  0  0  0
  193.4670  173.7280  140.7140 N   0  0  0  0  0  2  0  0  0  0  0  0
  192.6960  172.0500  136.1410 C   0  0  0  0  0  2  0  0  0  0  0  0
  192.8460  171.0180  137.2410 C   0  0  0  0  0  2  0  0  0  0  0  0
  192.1610  169.7330  136.8310 C   0  0  0  0  0  2  0  0  0  0  0  0
  191.2800  169.9980  135.6290 C   0  0  0  0  0  2  0  0  0  0  0  0
  191.5670  169.0680  134.6300 O   0  0  0  0  0  1  0  0  0  0  0  0
  2 11  1  0  0  0  0
  3 23  1  0  0  0  0
  4 30  1  0  0  0  0
  5 18  1  6  0  0  0
  5 13  1  0  0  0  0
  6 12  1  0  0  0  0
  8 27  1  0  0  0  0
 10 35  1  6  0  0  0
 10 26  1  0  0  0  0
 10  6  1  0  0  0  0
 11 13  1  0  0  0  0
 12  9  2  0  0  0  0
 12 28  1  0  0  0  0
 14 23  2  0  0  0  0
 14 38  1  0  0  0  0
 15  3  1  0  0  0  0
 16 39  1  0  0  0  0
 17  8  2  0  0  0  0
 18  7  1  0  0  0  0
 19  2  2  0  0  0  0
 21 40  1  6  0  0  0
 21  8  1  0  0  0  0
 22 15  1  0  0  0  0
 22 20  1  0  0  0  0
 23 33  1  0  0  0  0
 24 15  1  0  0  0  0
 26  4  1  1  0  0  0
 27 35  1  0  0  0  0
 28 25  1  0  0  0  0
 28 29  1  0  0  0  0
 29 25  1  1  0  0  0
 29 31  1  0  0  0  0
 31 37  1  0  0  0  0
 31  1  1  1  0  0  0
 32 30  1  6  0  0  0
 32  2  1  0  0  0  0
 32  5  1  0  0  0  0
 33 16  2  0  0  0  0
 34 20  1  0  0  0  0
 34 21  1  0  0  0  0
 36 16  1  0  0  0  0
 37  7  1  6  0  0  0
 37  1  1  0  0  0  0
 38 36  2  0  0  0  0
 39 26  1  0  0  0  0
 40 41  1  0  0  0  0
 42 41  1  0  0  0  0
 43 42  1  0  0  0  0
 44 43  1  0  0  0  0
M  END
>  <MODEL>
7

>  <REMARK>
 VINA RESULT:      -6.2      3.689      7.342
  Name = 
  4 active torsions:
  status: ('A' for Active; 'I' for Inactive)
    1  A    between atoms: C_21  and  C_22
    2  A    between atoms: C_21  and  C_32
    3  A    between atoms: C_24  and  C_37
    4  A    between atoms: C_32  and  C_37
                            x       y       z     vdW  Elec       q    Type
                         _______ _______ _______ _____ _____    ______ ____

>  <TORSDO>
F 4

$$$$
=
 OpenBabel11062422373D

 44 49  0  0  1  0  0  0  0  0999 V2000
  191.6850  168.1660  136.3570 C   0  0  0  0  0  2  0  0  0  0  0  0
  195.5110  172.3220  139.2430 C   0  0  0  0  0  0  0  0  0  0  0  0
  192.2550  175.2550  146.5410 C   0  0  0  0  0  2  0  0  0  0  0  0
  192.7700  173.8290  139.4950 C   0  0  0  0  0  2  0  0  0  0  0  0
  194.4110  170.3750  138.7730 C   0  0  1  0  0  3  0  0  0  0  0  0
  190.0950  172.4310  140.0070 N   0  0  0  0  0  2  0  0  0  0  0  0
  193.0510  168.6720  138.2000 C   0  0  0  0  0  2  0  0  0  0  0  0
  188.2410  175.0560  142.9850 C   0  0  0  0  0  0  0  0  0  0  0  0
  188.9820  172.2700  137.9600 O   0  0  0  0  0  0  0  0  0  0  0  0
  190.2510  173.8790  139.9570 C   0  0  2  0  0  3  0  0  0  0  0  0
  196.3030  171.1800  139.7280 C   0  0  0  0  0  2  0  0  0  0  0  0
  189.6010  171.6920  138.8930 C   0  0  0  0  0  0  0  0  0  0  0  0
  195.4680  170.0480  139.6550 O   0  0  0  0  0  0  0  0  0  0  0  0
  193.0340  176.7350  144.7250 N   0  0  0  0  0  0  0  0  0  0  0  0
  190.9800  175.8550  146.9070 N   0  0  0  0  0  0  0  0  0  0  0  0
  192.3360  174.8910  142.7880 C   0  0  0  0  0  0  0  0  0  0  0  0
  187.0430  175.2410  142.8240 O   0  0  0  0  0  0  0  0  0  0  0  0
  193.2430  169.6940  139.1420 O   0  0  0  0  0  0  0  0  0  0  0  0
  195.9110  173.4750  139.2320 O   0  0  0  0  0  0  0  0  0  0  0  0
  189.3240  174.3650  145.8720 C   0  0  0  0  0  2  0  0  0  0  0  0
  188.9950  175.8000  144.0470 C   0  0  2  0  0  3  0  0  0  0  0  0
  190.0300  174.7780  147.1570 C   0  0  0  0  0  2  0  0  0  0  0  0
  192.5380  175.5260  145.1050 C   0  0  0  0  0  0  0  0  0  0  0  0
  191.1860  176.5270  148.1760 C   0  0  0  0  0  1  0  0  0  0  0  0
  190.5120  169.0620  139.3210 C   0  0  0  0  0  2  0  0  0  0  0  0
  191.6500  174.3160  140.4180 C   0  0  1  0  0  3  0  0  0  0  0  0
  188.9680  174.0680  142.1390 C   0  0  0  0  0  2  0  0  0  0  0  0
  189.9050  170.3080  138.7880 N   0  0  0  0  0  0  0  0  0  0  0  0
  190.0760  169.0410  138.0100 C   0  0  1  0  0  3  0  0  0  0  0  0
  193.1030  172.3540  139.7010 C   0  0  0  0  0  2  0  0  0  0  0  0
  191.0400  169.3820  136.8440 C   0  0  1  0  0  3  0  0  0  0  0  0
  194.2050  171.8940  138.7430 C   0  0  1  0  0  3  0  0  0  0  0  0
  192.1840  174.5810  144.1390 C   0  0  0  0  0  3  0  0  0  0  0  0
  188.4950  175.4530  145.3710 N   0  0  0  0  0  2  0  0  0  0  0  0
  189.1270  174.5910  140.7160 C   0  0  0  0  0  2  0  0  0  0  0  0
  192.8430  176.1430  142.4200 C   0  0  0  0  0  3  0  0  0  0  0  0
  192.5200  169.2200  136.9540 N   0  0  2  0  0  0  0  0  0  0  0  0
  193.2000  177.0560  143.4130 C   0  0  0  0  0  3  0  0  0  0  0  0
  191.9030  173.9470  141.8070 N   0  0  0  0  0  2  0  0  0  0  0  0
  188.8960  177.2990  143.8180 C   0  0  0  0  0  2  0  0  0  0  0  0
  187.9460  177.9170  144.8230 C   0  0  0  0  0  2  0  0  0  0  0  0
  186.6960  178.3950  144.1180 C   0  0  0  0  0  2  0  0  0  0  0  0
  185.4880  177.7170  144.7290 C   0  0  0  0  0  2  0  0  0  0  0  0
  185.7920  177.3110  146.0280 O   0  0  0  0  0  1  0  0  0  0  0  0
  2 11  1  0  0  0  0
  3 15  1  0  0  0  0
  4 30  1  0  0  0  0
  5 18  1  1  0  0  0
  5 13  1  0  0  0  0
  7 18  1  0  0  0  0
  8 21  1  0  0  0  0
  9 12  2  0  0  0  0
 10  6  1  0  0  0  0
 10 26  1  0  0  0  0
 10 35  1  1  0  0  0
 12  6  1  0  0  0  0
 13 11  1  0  0  0  0
 14 23  1  0  0  0  0
 15 22  1  0  0  0  0
 15 24  1  0  0  0  0
 16 33  1  0  0  0  0
 17  8  2  0  0  0  0
 19  2  2  0  0  0  0
 20 22  1  0  0  0  0
 21 40  1  6  0  0  0
 21 34  1  0  0  0  0
 23  3  1  0  0  0  0
 26  4  1  6  0  0  0
 26 39  1  0  0  0  0
 27  8  1  0  0  0  0
 28 12  1  0  0  0  0
 28 25  1  0  0  0  0
 29 28  1  0  0  0  0
 29 25  1  1  0  0  0
 31  1  1  6  0  0  0
 31 37  1  0  0  0  0
 31 29  1  0  0  0  0
 32  5  1  0  0  0  0
 32  2  1  0  0  0  0
 32 30  1  1  0  0  0
 33 23  2  0  0  0  0
 34 20  1  0  0  0  0
 35 27  1  0  0  0  0
 36 16  2  0  0  0  0
 36 38  1  0  0  0  0
 37  1  1  6  0  0  0
 37  7  1  0  0  0  0
 38 14  2  0  0  0  0
 39 16  1  0  0  0  0
 40 41  1  0  0  0  0
 42 43  1  0  0  0  0
 42 41  1  0  0  0  0
 43 44  1  0  0  0  0
M  END
>  <MODEL>
8

>  <REMARK>
 VINA RESULT:      -6.2      3.112      9.157
  Name = 
  4 active torsions:
  status: ('A' for Active; 'I' for Inactive)
    1  A    between atoms: C_21  and  C_22
    2  A    between atoms: C_21  and  C_32
    3  A    between atoms: C_24  and  C_37
    4  A    between atoms: C_32  and  C_37
                            x       y       z     vdW  Elec       q    Type
                         _______ _______ _______ _____ _____    ______ ____

>  <TORSDO>
F 4

$$$$
=
 OpenBabel11062422373D

 44 49  0  0  1  0  0  0  0  0999 V2000
  197.9130  170.2150  137.6040 C   0  0  0  0  0  2  0  0  0  0  0  0
  191.6010  169.6090  137.7920 C   0  0  0  0  0  0  0  0  0  0  0  0
  187.7700  176.3100  141.3820 C   0  0  0  0  0  2  0  0  0  0  0  0
  192.1450  170.6210  140.7120 C   0  0  0  0  0  2  0  0  0  0  0  0
  193.6780  170.3110  137.1490 C   0  0  1  0  0  3  0  0  0  0  0  0
  194.2740  172.7000  141.4280 N   0  0  0  0  0  2  0  0  0  0  0  0
  195.8140  170.9730  136.8700 C   0  0  0  0  0  2  0  0  0  0  0  0
  192.1490  175.2440  144.2950 C   0  0  0  0  0  0  0  0  0  0  0  0
  196.1260  171.5520  142.2680 O   0  0  0  0  0  0  0  0  0  0  0  0
  193.3310  172.1480  142.3920 C   0  0  2  0  0  3  0  0  0  0  0  0
  191.5720  169.9960  136.3720 C   0  0  0  0  0  2  0  0  0  0  0  0
  195.6140  172.2210  141.3320 C   0  0  0  0  0  0  0  0  0  0  0  0
  192.7850  170.6610  136.1090 O   0  0  0  0  0  0  0  0  0  0  0  0
  187.3990  173.9870  142.1320 N   0  0  0  0  0  0  0  0  0  0  0  0
  187.9510  177.0200  142.6410 N   0  0  0  0  0  0  0  0  0  0  0  0
  189.9730  173.2490  141.4460 C   0  0  0  0  0  0  0  0  0  0  0  0
  192.8210  175.6030  145.2500 O   0  0  0  0  0  0  0  0  0  0  0  0
  194.5720  171.3620  137.3950 O   0  0  0  0  0  0  0  0  0  0  0  0
  190.6740  169.0670  138.3710 O   0  0  0  0  0  0  0  0  0  0  0  0
  190.3790  177.3670  142.7640 C   0  0  0  0  0  2  0  0  0  0  0  0
  190.6850  175.5590  144.2250 C   0  0  2  0  0  3  0  0  0  0  0  0
  189.0220  177.9910  142.4620 C   0  0  0  0  0  2  0  0  0  0  0  0
  188.2170  174.8980  141.5380 C   0  0  0  0  0  0  0  0  0  0  0  0
  186.7360  177.7810  142.8660 C   0  0  0  0  0  1  0  0  0  0  0  0
  196.4490  172.9570  138.7450 C   0  0  0  0  0  2  0  0  0  0  0  0
  192.0020  171.7590  141.7270 C   0  0  1  0  0  3  0  0  0  0  0  0
  192.7840  174.5020  143.1680 C   0  0  0  0  0  2  0  0  0  0  0  0
  196.3330  172.4130  140.1220 N   0  0  0  0  0  0  0  0  0  0  0  0
  197.4250  172.0690  139.1570 C   0  0  1  0  0  3  0  0  0  0  0  0
  192.7350  171.0870  139.3850 C   0  0  0  0  0  2  0  0  0  0  0  0
  197.2870  170.5490  138.8800 C   0  0  1  0  0  3  0  0  0  0  0  0
  192.8920  169.9210  138.4060 C   0  0  1  0  0  3  0  0  0  0  0  0
  189.5190  174.5410  141.1810 C   0  0  0  0  0  3  0  0  0  0  0  0
  190.4710  176.9990  144.1700 N   0  0  0  0  0  2  0  0  0  0  0  0
  193.1430  173.0830  143.5910 C   0  0  0  0  0  2  0  0  0  0  0  0
  189.1160  172.3290  142.0620 C   0  0  0  0  0  3  0  0  0  0  0  0
  196.4640  170.0100  137.7560 N   0  0  2  0  0  0  0  0  0  0  0  0
  187.8170  172.7180  142.3910 C   0  0  0  0  0  3  0  0  0  0  0  0
  191.3280  172.9150  141.1440 N   0  0  0  0  0  2  0  0  0  0  0  0
  189.9550  174.9590  145.4170 C   0  0  0  0  0  2  0  0  0  0  0  0
  189.5300  176.0550  146.3720 C   0  0  0  0  0  2  0  0  0  0  0  0
  188.1000  175.8260  146.8070 C   0  0  0  0  0  2  0  0  0  0  0  0
  187.2900  177.0750  146.5360 C   0  0  0  0  0  2  0  0  0  0  0  0
  186.3510  177.2490  147.5520 O   0  0  0  0  0  1  0  0  0  0  0  0
  1 37  1  0  0  0  0
  2 19  2  0  0  0  0
  2 32  1  0  0  0  0
  3 23  1  0  0  0  0
  3 15  1  0  0  0  0
  5 13  1  6  0  0  0
  5 18  1  0  0  0  0
  5 32  1  0  0  0  0
  6 10  1  0  0  0  0
  7 18  1  0  0  0  0
  8 17  2  0  0  0  0
 10 35  1  1  0  0  0
 11  2  1  0  0  0  0
 12  6  1  0  0  0  0
 12  9  2  0  0  0  0
 13 11  1  0  0  0  0
 14 38  1  0  0  0  0
 15 24  1  0  0  0  0
 16 36  1  0  0  0  0
 20 34  1  0  0  0  0
 21  8  1  0  0  0  0
 21 40  1  1  0  0  0
 22 15  1  0  0  0  0
 22 20  1  0  0  0  0
 23 14  2  0  0  0  0
 25 28  1  0  0  0  0
 26  4  1  6  0  0  0
 26 10  1  0  0  0  0
 27 35  1  0  0  0  0
 27  8  1  0  0  0  0
 28 12  1  0  0  0  0
 29 25  1  6  0  0  0
 29 28  1  0  0  0  0
 30  4  1  0  0  0  0
 31  1  1  6  0  0  0
 31 29  1  0  0  0  0
 32 30  1  1  0  0  0
 33 16  2  0  0  0  0
 33 23  1  0  0  0  0
 34 21  1  0  0  0  0
 36 38  2  0  0  0  0
 37  7  1  6  0  0  0
 37 31  1  0  0  0  0
 39 16  1  0  0  0  0
 39 26  1  0  0  0  0
 40 41  1  0  0  0  0
 41 42  1  0  0  0  0
 43 42  1  0  0  0  0
 43 44  1  0  0  0  0
M  END
>  <MODEL>
9

>  <REMARK>
 VINA RESULT:      -6.0      3.687      9.276
  Name = 
  4 active torsions:
  status: ('A' for Active; 'I' for Inactive)
    1  A    between atoms: C_21  and  C_22
    2  A    between atoms: C_21  and  C_32
    3  A    between atoms: C_24  and  C_37
    4  A    between atoms: C_32  and  C_37
                            x       y       z     vdW  Elec       q    Type
                         _______ _______ _______ _____ _____    ______ ____

>  <TORSDO>
F 4

$$$$
