=
 OpenBabel11062419013D

 51 53  0  0  1  0  0  0  0  0999 V2000
  192.5670  175.9570  146.0770 C   0  0  0  0  0  3  0  0  0  0  0  0
  193.6580  175.5420  145.4220 C   0  0  0  0  0  3  0  0  0  0  0  0
  191.4440  175.0560  146.5040 C   0  0  2  0  0  3  0  0  0  0  0  0
  188.0670  176.1900  146.6600 C   0  0  0  0  0  0  0  0  0  0  0  0
  190.2310  175.2010  145.6240 C   0  0  1  0  0  3  0  0  0  0  0  0
  185.9260  177.2230  147.6730 C   0  0  0  0  0  2  0  0  0  0  0  0
  187.0030  176.6960  147.1620 C   0  0  0  0  0  0  0  0  0  0  0  0
  189.1360  175.6930  146.1530 C   0  0  0  0  0  2  0  0  0  0  0  0
  185.3390  178.4560  147.1330 C   0  0  0  0  0  0  0  0  0  0  0  0
  185.8380  179.5840  147.4040 O   0  0  0  0  0  0  0  0  0  0  0  0
  184.1140  178.3750  146.2850 C   0  0  0  0  0  2  0  0  0  0  0  0
  184.3710  178.9860  144.9170 C   0  0  0  0  0  2  0  0  0  0  0  0
  184.8190  177.9600  143.9920 N   0  0  0  0  0  1  0  0  0  0  0  0
  190.3120  174.9430  144.1380 C   0  0  2  0  0  3  0  0  0  0  0  0
  190.0120  176.1920  143.2960 C   0  0  1  0  0  3  0  0  0  0  0  0
  191.1850  176.8550  142.9240 O   0  0  0  0  0  1  0  0  0  0  0  0
  189.1870  175.8580  142.0510 C   0  0  0  0  0  2  0  0  0  0  0  0
  188.4810  178.2530  141.8540 O   0  0  0  0  0  1  0  0  0  0  0  0
  186.9960  176.5570  141.4200 O   0  0  0  0  0  0  0  0  0  0  0  0
  188.1610  176.9020  141.7520 C   0  0  0  0  0  0  0  0  0  0  0  0
  189.3720  173.8160  143.7410 C   0  0  0  0  0  2  0  0  0  0  0  0
  190.0260  172.4760  143.9950 C   0  0  0  0  0  2  0  0  0  0  0  0
  190.9620  170.8000  142.5750 O   0  0  0  0  0  1  0  0  0  0  0  0
  189.1760  171.9610  141.7120 O   0  0  0  0  0  0  0  0  0  0  0  0
  190.0920  171.7030  142.7240 C   0  0  0  0  0  0  0  0  0  0  0  0
  191.1070  175.3650  147.9510 C   0  0  0  0  0  2  0  0  0  0  0  0
  191.5020  176.6650  148.2720 O   0  0  0  0  0  1  0  0  0  0  0  0
  193.8970  174.1130  145.0230 C   0  0  1  0  0  3  0  0  0  0  0  0
  193.2290  173.7760  143.6890 C   0  0  0  0  0  2  0  0  0  0  0  0
  194.2880  175.0800  139.7620 C   0  0  0  0  0  2  0  0  0  0  0  0
  193.3610  173.6080  141.2260 C   0  0  2  0  0  3  0  0  0  0  0  0
  194.3270  175.5630  142.3020 C   0  0  0  0  0  2  0  0  0  0  0  0
  194.8440  175.9760  140.8900 C   0  0  0  0  0  2  0  0  0  0  0  0
  194.1060  174.0390  142.4700 C   0  0  1  0  0  3  0  0  0  0  0  0
  193.6280  172.4380  140.3110 C   0  0  2  0  0  3  0  0  0  0  0  0
  194.5280  173.6620  140.2360 C   0  0  1  0  0  3  0  0  0  0  0  0
  191.3600  173.0890  139.3530 C   0  0  0  0  0  2  0  0  0  0  0  0
  191.5250  170.9330  137.3280 C   0  0  2  0  0  3  0  0  0  0  0  0
  189.4110  171.0100  138.4630 O   0  0  0  0  0  1  0  0  0  0  0  0
  192.6680  172.3380  139.1030 C   0  0  2  0  0  3  0  0  0  0  0  0
  192.4120  170.9170  138.5750 C   0  0  0  0  0  2  0  0  0  0  0  0
  190.5040  173.1210  138.0890 C   0  0  0  0  0  2  0  0  0  0  0  0
  192.2210  171.4760  136.2450 O   0  0  0  0  0  1  0  0  0  0  0  0
  190.2250  171.7080  137.5670 C   0  0  1  0  0  3  0  0  0  0  0  0
  195.3730  173.7040  145.0320 C   0  0  1  0  0  3  0  0  0  0  0  0
  196.2270  174.7730  145.3300 O   0  0  0  0  0  0  0  0  0  0  0  0
  197.2570  174.6880  144.3890 C   0  0  0  0  0  1  0  0  0  0  0  0
  195.6160  172.5850  145.8860 O   0  0  0  0  0  0  0  0  0  0  0  0
  195.2160  170.3760  145.0190 O   0  0  0  0  0  0  0  0  0  0  0  0
  197.3430  171.1040  145.4450 O   0  0  0  0  0  1  0  0  0  0  0  0
  196.1060  171.3470  145.4590 C   0  0  0  0  0  0  0  0  0  0  0  0
  2  1  2  0  0  0  0
  3  1  1  6  0  0  0
  3 26  1  0  0  0  0
  4  7  3  0  0  0  0
  5  8  1  6  0  0  0
  5  3  1  0  0  0  0
  7  6  1  0  0  0  0
  8  4  1  0  0  0  0
  9 10  2  0  0  0  0
  9  6  1  0  0  0  0
 11  9  1  0  0  0  0
 12 11  1  0  0  0  0
 13 12  1  0  0  0  0
 14 21  1  6  0  0  0
 14  5  1  0  0  0  0
 15 16  1  6  0  0  0
 15 14  1  0  0  0  0
 17 15  1  0  0  0  0
 19 20  2  0  0  0  0
 20 18  1  0  0  0  0
 20 17  1  0  0  0  0
 21 22  1  0  0  0  0
 23 25  1  0  0  0  0
 24 25  2  0  0  0  0
 25 22  1  0  0  0  0
 26 27  1  0  0  0  0
 28 29  1  6  0  0  0
 28 45  1  0  0  0  0
 28  2  1  0  0  0  0
 30 36  1  0  0  0  0
 30 33  1  0  0  0  0
 31 34  1  0  0  0  0
 32 34  1  0  0  0  0
 33 32  1  0  0  0  0
 34 29  1  0  0  0  0
 35 31  1  0  0  0  0
 36 35  1  0  0  0  0
 36 31  1  0  0  0  0
 38 44  1  0  0  0  0
 38 41  1  0  0  0  0
 40 37  1  0  0  0  0
 40 35  1  0  0  0  0
 41 40  1  0  0  0  0
 42 37  1  0  0  0  0
 43 38  1  0  0  0  0
 44 42  1  0  0  0  0
 44 39  1  0  0  0  0
 45 46  1  0  0  0  0
 45 48  1  0  0  0  0
 47 46  1  0  0  0  0
 49 51  2  0  0  0  0
 50 51  1  0  0  0  0
 51 48  1  0  0  0  0
M  END
>  <MODEL>
1

>  <REMARK>
 VINA RESULT:      -6.2      0.000      0.000
  Name = 
  21 active torsions:
  status: ('A' for Active; 'I' for Inactive)
    1  A    between atoms: C_6  and  C_42
    2  A    between atoms: C_8  and  C_30
    3  A    between atoms: C_10  and  C_28
    4  A    between atoms: C_10  and  C_43
    5  A    between atoms: C_11  and  O_13
    6  A    between atoms: C_11  and  C_17
    7  A    between atoms: C_11  and  O_48
    8  A    between atoms: C_12  and  C_42
    9  A    between atoms: C_16  and  C_22
   10  A    between atoms: C_16  and  C_38
   11  A    between atoms: C_17  and  C_27
   12  A    between atoms: C_17  and  C_31
   13  A    between atoms: C_20  and  C_33
   14  A    between atoms: C_22  and  C_49
   15  A    between atoms: C_25  and  C_27
   16  A    between atoms: C_26  and  C_42
   17  A    between atoms: C_26  and  C_49
   18  A    between atoms: C_30  and  C_44
   19  A    between atoms: C_32  and  C_44
   20  A    between atoms: C_43  and  C_49
   21  A    between atoms: C_47  and  O_48
                            x       y       z     vdW  Elec       q    Type
                         _______ _______ _______ _____ _____    ______ ____

>  <TORSDO>
F 21

$$$$
=
 OpenBabel11062419013D

 51 53  0  0  1  0  0  0  0  0999 V2000
  191.5550  172.4900  144.7130 C   0  0  0  0  0  3  0  0  0  0  0  0
  192.7560  171.9290  144.5300 C   0  0  0  0  0  3  0  0  0  0  0  0
  190.7300  173.0980  143.6160 C   0  0  2  0  0  3  0  0  0  0  0  0
  188.8080  175.7680  142.2390 C   0  0  0  0  0  0  0  0  0  0  0  0
  190.3790  174.5360  143.8960 C   0  0  1  0  0  3  0  0  0  0  0  0
  187.2020  176.9840  140.6210 C   0  0  0  0  0  2  0  0  0  0  0  0
  188.0180  176.3740  141.4340 C   0  0  0  0  0  0  0  0  0  0  0  0
  189.5920  175.1580  143.0520 C   0  0  0  0  0  2  0  0  0  0  0  0
  185.9200  177.5310  141.0800 C   0  0  0  0  0  0  0  0  0  0  0  0
  185.1910  178.2120  140.3050 O   0  0  0  0  0  0  0  0  0  0  0  0
  185.4940  177.3130  142.4930 C   0  0  0  0  0  2  0  0  0  0  0  0
  184.2720  178.1580  142.8190 C   0  0  0  0  0  2  0  0  0  0  0  0
  184.2780  178.5130  144.2270 N   0  0  0  0  0  1  0  0  0  0  0  0
  190.7860  175.1970  145.1920 C   0  0  2  0  0  3  0  0  0  0  0  0
  189.5940  175.4780  146.1200 C   0  0  1  0  0  3  0  0  0  0  0  0
  189.8320  175.0100  147.4160 O   0  0  0  0  0  1  0  0  0  0  0  0
  189.2400  176.9650  146.1620 C   0  0  0  0  0  2  0  0  0  0  0  0
  186.7800  176.5120  146.0230 O   0  0  0  0  0  1  0  0  0  0  0  0
  187.7460  178.1330  144.7150 O   0  0  0  0  0  0  0  0  0  0  0  0
  187.8850  177.2430  145.5950 C   0  0  0  0  0  0  0  0  0  0  0  0
  191.5400  176.4880  144.9180 C   0  0  0  0  0  2  0  0  0  0  0  0
  193.0260  176.2180  144.8340 C   0  0  0  0  0  2  0  0  0  0  0  0
  192.9660  176.7560  147.1590 O   0  0  0  0  0  1  0  0  0  0  0  0
  194.8920  175.7470  146.4130 O   0  0  0  0  0  0  0  0  0  0  0  0
  193.6210  176.2660  146.1970 C   0  0  0  0  0  0  0  0  0  0  0  0
  189.4790  172.2580  143.4360 C   0  0  0  0  0  2  0  0  0  0  0  0
  189.5890  171.4660  142.2920 O   0  0  0  0  0  1  0  0  0  0  0  0
  193.4390  171.8410  143.1940 C   0  0  1  0  0  3  0  0  0  0  0  0
  193.9490  173.2050  142.7250 C   0  0  0  0  0  2  0  0  0  0  0  0
  193.2900  174.4180  138.6830 C   0  0  0  0  0  2  0  0  0  0  0  0
  192.8380  173.1530  140.5170 C   0  0  2  0  0  3  0  0  0  0  0  0
  194.6620  174.7260  140.8530 C   0  0  0  0  0  2  0  0  0  0  0  0
  194.5260  175.0720  139.3400 C   0  0  0  0  0  2  0  0  0  0  0  0
  194.1690  173.3030  141.2200 C   0  0  1  0  0  3  0  0  0  0  0  0
  192.3270  172.0090  139.6750 C   0  0  2  0  0  3  0  0  0  0  0  0
  193.3590  172.9610  139.0900 C   0  0  1  0  0  3  0  0  0  0  0  0
  190.9160  172.1110  137.5580 C   0  0  0  0  0  2  0  0  0  0  0  0
  188.7760  173.5870  138.9780 C   0  0  2  0  0  3  0  0  0  0  0  0
  189.3590  174.5620  136.8630 O   0  0  0  0  0  1  0  0  0  0  0  0
  190.9160  172.2310  139.0820 C   0  0  2  0  0  3  0  0  0  0  0  0
  190.1940  173.5050  139.5490 C   0  0  0  0  0  2  0  0  0  0  0  0
  189.4910  172.1640  137.0110 C   0  0  0  0  0  2  0  0  0  0  0  0
  187.9620  172.6150  139.5630 O   0  0  0  0  0  1  0  0  0  0  0  0
  188.7700  173.4410  137.4530 C   0  0  1  0  0  3  0  0  0  0  0  0
  194.5390  170.7770  143.1270 C   0  0  1  0  0  3  0  0  0  0  0  0
  194.5810  170.1220  141.8900 O   0  0  0  0  0  0  0  0  0  0  0  0
  193.9050  168.9150  142.0940 C   0  0  0  0  0  1  0  0  0  0  0  0
  195.8180  171.3020  143.4870 O   0  0  0  0  0  0  0  0  0  0  0  0
  196.0650  172.0980  145.7440 O   0  0  0  0  0  1  0  0  0  0  0  0
  197.2090  170.2540  145.0160 O   0  0  0  0  0  0  0  0  0  0  0  0
  196.4010  171.1850  144.7520 C   0  0  0  0  0  0  0  0  0  0  0  0
  2  1  2  0  0  0  0
  3 26  1  1  0  0  0
  3  5  1  0  0  0  0
  3  1  1  0  0  0  0
  4  8  1  0  0  0  0
  5  8  1  1  0  0  0
  5 14  1  0  0  0  0
  6  9  1  0  0  0  0
  6  7  1  0  0  0  0
  7  4  3  0  0  0  0
  9 11  1  0  0  0  0
 10  9  2  0  0  0  0
 11 12  1  0  0  0  0
 12 13  1  0  0  0  0
 14 21  1  6  0  0  0
 14 15  1  0  0  0  0
 15 17  1  0  0  0  0
 15 16  1  1  0  0  0
 19 20  2  0  0  0  0
 20 18  1  0  0  0  0
 20 17  1  0  0  0  0
 22 21  1  0  0  0  0
 22 25  1  0  0  0  0
 25 24  2  0  0  0  0
 25 23  1  0  0  0  0
 27 26  1  0  0  0  0
 28 29  1  1  0  0  0
 28  2  1  0  0  0  0
 30 36  1  0  0  0  0
 30 33  1  0  0  0  0
 31 34  1  0  0  0  0
 32 34  1  0  0  0  0
 33 32  1  0  0  0  0
 34 29  1  0  0  0  0
 35 31  1  0  0  0  0
 36 35  1  0  0  0  0
 36 31  1  0  0  0  0
 37 40  1  0  0  0  0
 38 41  1  0  0  0  0
 38 43  1  0  0  0  0
 39 44  1  0  0  0  0
 40 41  1  0  0  0  0
 40 35  1  0  0  0  0
 42 44  1  0  0  0  0
 42 37  1  0  0  0  0
 44 38  1  0  0  0  0
 45 28  1  0  0  0  0
 45 48  1  0  0  0  0
 46 47  1  0  0  0  0
 46 45  1  0  0  0  0
 48 51  1  0  0  0  0
 51 50  2  0  0  0  0
 51 49  1  0  0  0  0
M  END
>  <MODEL>
2

>  <REMARK>
 VINA RESULT:      -6.0      1.918      4.254
  Name = 
  21 active torsions:
  status: ('A' for Active; 'I' for Inactive)
    1  A    between atoms: C_6  and  C_42
    2  A    between atoms: C_8  and  C_30
    3  A    between atoms: C_10  and  C_28
    4  A    between atoms: C_10  and  C_43
    5  A    between atoms: C_11  and  O_13
    6  A    between atoms: C_11  and  C_17
    7  A    between atoms: C_11  and  O_48
    8  A    between atoms: C_12  and  C_42
    9  A    between atoms: C_16  and  C_22
   10  A    between atoms: C_16  and  C_38
   11  A    between atoms: C_17  and  C_27
   12  A    between atoms: C_17  and  C_31
   13  A    between atoms: C_20  and  C_33
   14  A    between atoms: C_22  and  C_49
   15  A    between atoms: C_25  and  C_27
   16  A    between atoms: C_26  and  C_42
   17  A    between atoms: C_26  and  C_49
   18  A    between atoms: C_30  and  C_44
   19  A    between atoms: C_32  and  C_44
   20  A    between atoms: C_43  and  C_49
   21  A    between atoms: C_47  and  O_48
                            x       y       z     vdW  Elec       q    Type
                         _______ _______ _______ _____ _____    ______ ____

>  <TORSDO>
F 21

$$$$
=
 OpenBabel11062419013D

 51 53  0  0  1  0  0  0  0  0999 V2000
  190.1690  171.3600  141.8630 C   0  0  0  0  0  3  0  0  0  0  0  0
  189.9350  171.7040  143.1360 C   0  0  0  0  0  3  0  0  0  0  0  0
  191.3070  171.8890  141.0400 C   0  0  2  0  0  3  0  0  0  0  0  0
  188.9870  174.5900  140.8550 C   0  0  0  0  0  0  0  0  0  0  0  0
  190.8710  172.9760  140.0940 C   0  0  1  0  0  3  0  0  0  0  0  0
  187.1480  176.2320  141.6280 C   0  0  0  0  0  2  0  0  0  0  0  0
  188.0710  175.4010  141.2340 C   0  0  0  0  0  0  0  0  0  0  0  0
  189.9130  173.7850  140.4780 C   0  0  0  0  0  2  0  0  0  0  0  0
  187.4000  177.6750  141.7280 C   0  0  0  0  0  0  0  0  0  0  0  0
  188.5680  178.1390  141.6030 O   0  0  0  0  0  0  0  0  0  0  0  0
  186.2660  178.5990  142.0200 C   0  0  0  0  0  2  0  0  0  0  0  0
  184.9360  177.8830  141.8450 C   0  0  0  0  0  2  0  0  0  0  0  0
  184.2250  178.4300  140.7030 N   0  0  0  0  0  1  0  0  0  0  0  0
  191.6210  173.2370  138.8090 C   0  0  2  0  0  3  0  0  0  0  0  0
  192.8470  174.1420  139.0040 C   0  0  1  0  0  3  0  0  0  0  0  0
  193.0150  174.4990  140.3440 O   0  0  0  0  0  1  0  0  0  0  0  0
  194.1270  173.4930  138.4750 C   0  0  0  0  0  2  0  0  0  0  0  0
  195.2330  174.7530  136.6130 O   0  0  0  0  0  0  0  0  0  0  0  0
  195.8470  175.1140  138.7950 O   0  0  0  0  0  1  0  0  0  0  0  0
  195.1130  174.5010  137.9770 C   0  0  0  0  0  0  0  0  0  0  0  0
  190.6960  173.8400  137.7650 C   0  0  0  0  0  2  0  0  0  0  0  0
  190.9350  173.1930  136.4190 C   0  0  0  0  0  2  0  0  0  0  0  0
  189.4090  172.4920  134.7220 O   0  0  0  0  0  0  0  0  0  0  0  0
  188.9740  174.5360  135.6780 O   0  0  0  0  0  1  0  0  0  0  0  0
  189.7390  173.3830  135.5520 C   0  0  0  0  0  0  0  0  0  0  0  0
  191.9300  170.7290  140.2850 C   0  0  0  0  0  2  0  0  0  0  0  0
  193.3090  170.6950  140.5040 O   0  0  0  0  0  1  0  0  0  0  0  0
  190.7870  172.6740  143.9050 C   0  0  1  0  0  3  0  0  0  0  0  0
  189.9980  173.3660  145.0170 C   0  0  0  0  0  2  0  0  0  0  0  0
  190.1710  177.1970  146.9000 C   0  0  0  0  0  2  0  0  0  0  0  0
  189.1300  175.5830  145.6830 C   0  0  2  0  0  3  0  0  0  0  0  0
  191.3800  174.9720  146.3730 C   0  0  0  0  0  2  0  0  0  0  0  0
  191.5060  176.4200  146.9370 C   0  0  0  0  0  2  0  0  0  0  0  0
  190.3590  174.8340  145.2160 C   0  0  1  0  0  3  0  0  0  0  0  0
  188.2930  176.5980  144.9430 C   0  0  2  0  0  3  0  0  0  0  0  0
  189.6510  177.0100  145.4900 C   0  0  1  0  0  3  0  0  0  0  0  0
  185.8320  176.3930  145.5640 C   0  0  0  0  0  2  0  0  0  0  0  0
  185.7740  179.1940  146.5240 C   0  0  2  0  0  3  0  0  0  0  0  0
  183.9310  178.6450  145.0880 O   0  0  0  0  0  1  0  0  0  0  0  0
  187.1230  177.1860  145.7660 C   0  0  2  0  0  3  0  0  0  0  0  0
  186.8900  178.6960  145.6040 C   0  0  0  0  0  2  0  0  0  0  0  0
  184.7410  176.8840  146.5130 C   0  0  0  0  0  2  0  0  0  0  0  0
  186.1910  179.1520  147.8570 O   0  0  0  0  0  1  0  0  0  0  0  0
  184.4860  178.3850  146.3430 C   0  0  1  0  0  3  0  0  0  0  0  0
  192.0920  172.0700  144.4330 C   0  0  1  0  0  3  0  0  0  0  0  0
  192.1080  170.6720  144.3600 O   0  0  0  0  0  0  0  0  0  0  0  0
  193.3990  170.3450  143.9350 C   0  0  0  0  0  1  0  0  0  0  0  0
  193.2420  172.6410  143.8060 O   0  0  0  0  0  0  0  0  0  0  0  0
  194.5300  173.6850  145.5500 O   0  0  0  0  0  1  0  0  0  0  0  0
  194.0860  174.7890  143.5960 O   0  0  0  0  0  0  0  0  0  0  0  0
  193.9480  173.7470  144.2900 C   0  0  0  0  0  0  0  0  0  0  0  0
  1  2  2  0  0  0  0
  3 26  1  6  0  0  0
  3  1  1  0  0  0  0
  4  7  3  0  0  0  0
  5  8  1  1  0  0  0
  5  3  1  0  0  0  0
  6  9  1  0  0  0  0
  7  6  1  0  0  0  0
  8  4  1  0  0  0  0
  9 11  1  0  0  0  0
 10  9  2  0  0  0  0
 12 11  1  0  0  0  0
 13 12  1  0  0  0  0
 14 21  1  6  0  0  0
 14 15  1  0  0  0  0
 14  5  1  0  0  0  0
 15 16  1  1  0  0  0
 17 15  1  0  0  0  0
 18 20  2  0  0  0  0
 20 17  1  0  0  0  0
 20 19  1  0  0  0  0
 22 21  1  0  0  0  0
 23 25  2  0  0  0  0
 25 24  1  0  0  0  0
 25 22  1  0  0  0  0
 26 27  1  0  0  0  0
 28  2  1  1  0  0  0
 28 45  1  0  0  0  0
 28 29  1  0  0  0  0
 29 34  1  0  0  0  0
 30 33  1  0  0  0  0
 32 33  1  0  0  0  0
 34 31  1  0  0  0  0
 34 32  1  0  0  0  0
 35 36  1  0  0  0  0
 35 31  1  0  0  0  0
 35 40  1  0  0  0  0
 36 31  1  0  0  0  0
 36 30  1  0  0  0  0
 37 40  1  0  0  0  0
 37 42  1  0  0  0  0
 38 43  1  0  0  0  0
 39 44  1  0  0  0  0
 41 40  1  0  0  0  0
 41 38  1  0  0  0  0
 44 42  1  0  0  0  0
 44 38  1  0  0  0  0
 46 45  1  0  0  0  0
 47 46  1  0  0  0  0
 48 51  1  0  0  0  0
 48 45  1  0  0  0  0
 50 51  2  0  0  0  0
 51 49  1  0  0  0  0
M  END
>  <MODEL>
3

>  <REMARK>
 VINA RESULT:      -5.9      2.266      7.514
  Name = 
  21 active torsions:
  status: ('A' for Active; 'I' for Inactive)
    1  A    between atoms: C_6  and  C_42
    2  A    between atoms: C_8  and  C_30
    3  A    between atoms: C_10  and  C_28
    4  A    between atoms: C_10  and  C_43
    5  A    between atoms: C_11  and  O_13
    6  A    between atoms: C_11  and  C_17
    7  A    between atoms: C_11  and  O_48
    8  A    between atoms: C_12  and  C_42
    9  A    between atoms: C_16  and  C_22
   10  A    between atoms: C_16  and  C_38
   11  A    between atoms: C_17  and  C_27
   12  A    between atoms: C_17  and  C_31
   13  A    between atoms: C_20  and  C_33
   14  A    between atoms: C_22  and  C_49
   15  A    between atoms: C_25  and  C_27
   16  A    between atoms: C_26  and  C_42
   17  A    between atoms: C_26  and  C_49
   18  A    between atoms: C_30  and  C_44
   19  A    between atoms: C_32  and  C_44
   20  A    between atoms: C_43  and  C_49
   21  A    between atoms: C_47  and  O_48
                            x       y       z     vdW  Elec       q    Type
                         _______ _______ _______ _____ _____    ______ ____

>  <TORSDO>
F 21

$$$$
=
 OpenBabel11062419013D

 51 53  0  0  1  0  0  0  0  0999 V2000
  193.6150  173.6600  139.4240 C   0  0  0  0  0  3  0  0  0  0  0  0
  192.3700  173.7770  138.9450 C   0  0  0  0  0  3  0  0  0  0  0  0
  194.0380  172.6330  140.4350 C   0  0  2  0  0  3  0  0  0  0  0  0
  194.1490  175.0040  143.0970 C   0  0  0  0  0  0  0  0  0  0  0  0
  195.0030  173.1930  141.4460 C   0  0  1  0  0  3  0  0  0  0  0  0
  193.2890  176.7690  144.7760 C   0  0  0  0  0  2  0  0  0  0  0  0
  193.7260  175.8830  143.9260 C   0  0  0  0  0  0  0  0  0  0  0  0
  194.5710  174.1140  142.2740 C   0  0  0  0  0  2  0  0  0  0  0  0
  193.3240  176.5310  146.2250 C   0  0  0  0  0  0  0  0  0  0  0  0
  194.2320  177.0350  146.9430 O   0  0  0  0  0  0  0  0  0  0  0  0
  192.2950  175.6480  146.8470 C   0  0  0  0  0  2  0  0  0  0  0  0
  191.0680  176.4550  147.2420 C   0  0  0  0  0  2  0  0  0  0  0  0
  191.3020  177.1230  148.5100 N   0  0  0  0  0  1  0  0  0  0  0  0
  196.3820  172.6000  141.6170 C   0  0  2  0  0  3  0  0  0  0  0  0
  196.5020  171.7110  142.8650 C   0  0  1  0  0  3  0  0  0  0  0  0
  197.0720  170.4730  142.5600 O   0  0  0  0  0  1  0  0  0  0  0  0
  197.3020  172.3930  143.9770 C   0  0  0  0  0  2  0  0  0  0  0  0
  196.9130  171.3010  146.1970 O   0  0  0  0  0  1  0  0  0  0  0  0
  195.7390  173.1800  145.5980 O   0  0  0  0  0  0  0  0  0  0  0  0
  196.6110  172.3210  145.3000 C   0  0  0  0  0  0  0  0  0  0  0  0
  197.4330  173.6980  141.6640 C   0  0  0  0  0  2  0  0  0  0  0  0
  197.9380  173.9960  140.2700 C   0  0  0  0  0  2  0  0  0  0  0  0
  196.9340  176.1400  140.5810 O   0  0  0  0  0  1  0  0  0  0  0  0
  197.1650  175.4490  138.4020 O   0  0  0  0  0  0  0  0  0  0  0  0
  197.3120  175.2500  139.7690 C   0  0  0  0  0  0  0  0  0  0  0  0
  194.6470  171.4570  139.6950 C   0  0  0  0  0  2  0  0  0  0  0  0
  194.1170  170.2580  140.1760 O   0  0  0  0  0  1  0  0  0  0  0  0
  191.2300  172.8930  139.3650 C   0  0  1  0  0  3  0  0  0  0  0  0
  190.1530  173.6730  140.1200 C   0  0  0  0  0  2  0  0  0  0  0  0
  189.9360  174.3730  144.3290 C   0  0  0  0  0  2  0  0  0  0  0  0
  189.4180  174.8490  142.1670 C   0  0  2  0  0  3  0  0  0  0  0  0
  190.8900  172.9290  142.4070 C   0  0  0  0  0  2  0  0  0  0  0  0
  190.9340  173.2630  143.9290 C   0  0  0  0  0  2  0  0  0  0  0  0
  190.5840  174.1500  141.5030 C   0  0  1  0  0  3  0  0  0  0  0  0
  189.2340  176.3170  142.4720 C   0  0  2  0  0  3  0  0  0  0  0  0
  190.1760  175.4890  143.3340 C   0  0  1  0  0  3  0  0  0  0  0  0
  186.7860  176.9720  142.2190 C   0  0  0  0  0  2  0  0  0  0  0  0
  186.6870  177.9270  145.0210 C   0  0  2  0  0  3  0  0  0  0  0  0
  185.7270  179.4740  143.4560 O   0  0  0  0  0  1  0  0  0  0  0  0
  187.9150  176.6580  143.2020 C   0  0  2  0  0  3  0  0  0  0  0  0
  188.0220  177.7280  144.3000 C   0  0  0  0  0  2  0  0  0  0  0  0
  185.4580  177.1360  142.9550 C   0  0  0  0  0  2  0  0  0  0  0  0
  186.3840  176.8070  145.7990 O   0  0  0  0  0  1  0  0  0  0  0  0
  185.5490  178.2160  144.0370 C   0  0  1  0  0  3  0  0  0  0  0  0
  190.6300  172.0690  138.2210 C   0  0  1  0  0  3  0  0  0  0  0  0
  189.7860  171.0490  138.6770 O   0  0  0  0  0  0  0  0  0  0  0  0
  190.6350  170.1230  139.2930 C   0  0  0  0  0  1  0  0  0  0  0  0
  189.9800  172.8910  137.2500 O   0  0  0  0  0  0  0  0  0  0  0  0
  191.5700  172.7550  135.4490 O   0  0  0  0  0  1  0  0  0  0  0  0
  189.3290  172.9420  135.0260 O   0  0  0  0  0  0  0  0  0  0  0  0
  190.2550  172.8740  135.8790 C   0  0  0  0  0  0  0  0  0  0  0  0
  2  1  2  0  0  0  0
  3  1  1  6  0  0  0
  3  5  1  0  0  0  0
  4  7  3  0  0  0  0
  5 14  1  0  0  0  0
  5  8  1  1  0  0  0
  6  9  1  0  0  0  0
  7  6  1  0  0  0  0
  8  4  1  0  0  0  0
  9 11  1  0  0  0  0
  9 10  2  0  0  0  0
 11 12  1  0  0  0  0
 12 13  1  0  0  0  0
 14 21  1  1  0  0  0
 14 15  1  0  0  0  0
 15 16  1  6  0  0  0
 15 17  1  0  0  0  0
 17 20  1  0  0  0  0
 20 19  2  0  0  0  0
 20 18  1  0  0  0  0
 22 21  1  0  0  0  0
 24 25  2  0  0  0  0
 25 22  1  0  0  0  0
 25 23  1  0  0  0  0
 26 27  1  0  0  0  0
 26  3  1  0  0  0  0
 28  2  1  6  0  0  0
 28 29  1  0  0  0  0
 29 34  1  0  0  0  0
 31 35  1  0  0  0  0
 31 36  1  0  0  0  0
 32 33  1  0  0  0  0
 33 30  1  0  0  0  0
 34 31  1  0  0  0  0
 34 32  1  0  0  0  0
 35 40  1  0  0  0  0
 35 36  1  0  0  0  0
 36 30  1  0  0  0  0
 37 42  1  0  0  0  0
 37 40  1  0  0  0  0
 38 43  1  0  0  0  0
 39 44  1  0  0  0  0
 40 41  1  0  0  0  0
 41 38  1  0  0  0  0
 42 44  1  0  0  0  0
 44 38  1  0  0  0  0
 45 46  1  0  0  0  0
 45 28  1  0  0  0  0
 46 47  1  0  0  0  0
 48 45  1  0  0  0  0
 49 51  1  0  0  0  0
 50 51  2  0  0  0  0
 51 48  1  0  0  0  0
M  END
>  <MODEL>
4

>  <REMARK>
 VINA RESULT:      -5.9      2.532      8.584
  Name = 
  21 active torsions:
  status: ('A' for Active; 'I' for Inactive)
    1  A    between atoms: C_6  and  C_42
    2  A    between atoms: C_8  and  C_30
    3  A    between atoms: C_10  and  C_28
    4  A    between atoms: C_10  and  C_43
    5  A    between atoms: C_11  and  O_13
    6  A    between atoms: C_11  and  C_17
    7  A    between atoms: C_11  and  O_48
    8  A    between atoms: C_12  and  C_42
    9  A    between atoms: C_16  and  C_22
   10  A    between atoms: C_16  and  C_38
   11  A    between atoms: C_17  and  C_27
   12  A    between atoms: C_17  and  C_31
   13  A    between atoms: C_20  and  C_33
   14  A    between atoms: C_22  and  C_49
   15  A    between atoms: C_25  and  C_27
   16  A    between atoms: C_26  and  C_42
   17  A    between atoms: C_26  and  C_49
   18  A    between atoms: C_30  and  C_44
   19  A    between atoms: C_32  and  C_44
   20  A    between atoms: C_43  and  C_49
   21  A    between atoms: C_47  and  O_48
                            x       y       z     vdW  Elec       q    Type
                         _______ _______ _______ _____ _____    ______ ____

>  <TORSDO>
F 21

$$$$
=
 OpenBabel11062419013D

 51 53  0  0  1  0  0  0  0  0999 V2000
  193.9670  172.7540  140.4270 C   0  0  0  0  0  3  0  0  0  0  0  0
  194.2430  172.3660  141.6780 C   0  0  0  0  0  3  0  0  0  0  0  0
  193.0710  173.9060  140.0770 C   0  0  2  0  0  3  0  0  0  0  0  0
  189.7810  174.6700  141.2230 C   0  0  0  0  0  0  0  0  0  0  0  0
  191.6430  173.4740  139.8670 C   0  0  1  0  0  3  0  0  0  0  0  0
  187.9190  175.8930  142.5320 C   0  0  0  0  0  2  0  0  0  0  0  0
  188.8580  175.2710  141.8750 C   0  0  0  0  0  0  0  0  0  0  0  0
  190.7050  174.0750  140.5600 C   0  0  0  0  0  2  0  0  0  0  0  0
  186.8450  176.6180  141.8410 C   0  0  0  0  0  0  0  0  0  0  0  0
  186.9400  176.9020  140.6140 O   0  0  0  0  0  0  0  0  0  0  0  0
  185.6450  177.0570  142.6100 C   0  0  0  0  0  2  0  0  0  0  0  0
  185.2450  178.4700  142.2150 C   0  0  0  0  0  2  0  0  0  0  0  0
  185.5260  179.3870  143.3050 N   0  0  0  0  0  1  0  0  0  0  0  0
  191.2780  172.4960  138.7760 C   0  0  2  0  0  3  0  0  0  0  0  0
  190.6550  173.1740  137.5470 C   0  0  1  0  0  3  0  0  0  0  0  0
  191.0530  172.5530  136.3600 O   0  0  0  0  0  1  0  0  0  0  0  0
  189.1270  173.2110  137.6270 C   0  0  0  0  0  2  0  0  0  0  0  0
  187.4000  175.0250  137.5850 O   0  0  0  0  0  1  0  0  0  0  0  0
  189.1190  175.0120  136.0640 O   0  0  0  0  0  0  0  0  0  0  0  0
  188.5570  174.4660  137.0500 C   0  0  0  0  0  0  0  0  0  0  0  0
  190.3350  171.4300  139.3090 C   0  0  0  0  0  2  0  0  0  0  0  0
  191.0160  170.0800  139.3050 C   0  0  0  0  0  2  0  0  0  0  0  0
  191.0510  168.1670  137.8770 O   0  0  0  0  0  1  0  0  0  0  0  0
  189.3840  169.6930  137.4650 O   0  0  0  0  0  0  0  0  0  0  0  0
  190.4970  169.2610  138.1750 C   0  0  0  0  0  0  0  0  0  0  0  0
  193.6220  174.5810  138.8350 C   0  0  0  0  0  2  0  0  0  0  0  0
  194.8970  174.0910  138.5450 O   0  0  0  0  0  1  0  0  0  0  0  0
  193.6820  173.0380  142.8990 C   0  0  1  0  0  3  0  0  0  0  0  0
  193.3860  172.0340  144.0150 C   0  0  0  0  0  2  0  0  0  0  0  0
  189.1550  172.3650  143.5290 C   0  0  0  0  0  2  0  0  0  0  0  0
  191.1350  172.9400  144.4870 C   0  0  2  0  0  3  0  0  0  0  0  0
  191.3480  171.2030  142.7990 C   0  0  0  0  0  2  0  0  0  0  0  0
  189.7910  171.2140  142.7180 C   0  0  0  0  0  2  0  0  0  0  0  0
  191.9100  171.6820  144.1610 C   0  0  1  0  0  3  0  0  0  0  0  0
  190.4620  173.3390  145.7790 C   0  0  2  0  0  3  0  0  0  0  0  0
  189.8100  172.2880  144.8920 C   0  0  1  0  0  3  0  0  0  0  0  0
  190.6620  175.8370  145.3240 C   0  0  0  0  0  2  0  0  0  0  0  0
  188.1370  176.3680  146.7800 C   0  0  2  0  0  3  0  0  0  0  0  0
  189.9240  177.8440  147.4070 O   0  0  0  0  0  1  0  0  0  0  0  0
  189.7250  174.6960  145.7230 C   0  0  2  0  0  3  0  0  0  0  0  0
  188.8980  175.0540  146.9690 C   0  0  0  0  0  2  0  0  0  0  0  0
  189.8790  177.1300  145.1100 C   0  0  0  0  0  2  0  0  0  0  0  0
  187.1130  176.2040  145.8450 O   0  0  0  0  0  1  0  0  0  0  0  0
  189.0700  177.5070  146.3550 C   0  0  1  0  0  3  0  0  0  0  0  0
  194.5280  174.2100  143.4080 C   0  0  1  0  0  3  0  0  0  0  0  0
  195.7770  173.8030  143.8900 O   0  0  0  0  0  0  0  0  0  0  0  0
  195.8290  174.2730  145.2060 C   0  0  0  0  0  1  0  0  0  0  0  0
  194.6540  175.2450  142.4310 O   0  0  0  0  0  0  0  0  0  0  0  0
  196.6330  175.0220  141.0810 O   0  0  0  0  0  0  0  0  0  0  0  0
  196.2710  176.9020  142.3330 O   0  0  0  0  0  1  0  0  0  0  0  0
  195.8680  175.7640  141.9710 C   0  0  0  0  0  0  0  0  0  0  0  0
  1  2  2  0  0  0  0
  3 26  1  6  0  0  0
  3  1  1  0  0  0  0
  4  7  3  0  0  0  0
  5  3  1  0  0  0  0
  5  8  1  6  0  0  0
  7  6  1  0  0  0  0
  8  4  1  0  0  0  0
  9  6  1  0  0  0  0
  9 11  1  0  0  0  0
 10  9  2  0  0  0  0
 12 11  1  0  0  0  0
 12 13  1  0  0  0  0
 14 21  1  1  0  0  0
 14  5  1  0  0  0  0
 15 16  1  6  0  0  0
 15 17  1  0  0  0  0
 15 14  1  0  0  0  0
 19 20  2  0  0  0  0
 20 18  1  0  0  0  0
 20 17  1  0  0  0  0
 22 21  1  0  0  0  0
 23 25  1  0  0  0  0
 24 25  2  0  0  0  0
 25 22  1  0  0  0  0
 27 26  1  0  0  0  0
 28  2  1  6  0  0  0
 28 45  1  0  0  0  0
 28 29  1  0  0  0  0
 29 34  1  0  0  0  0
 30 36  1  0  0  0  0
 31 36  1  0  0  0  0
 31 35  1  0  0  0  0
 32 34  1  0  0  0  0
 33 32  1  0  0  0  0
 33 30  1  0  0  0  0
 34 31  1  0  0  0  0
 36 35  1  0  0  0  0
 37 40  1  0  0  0  0
 38 41  1  0  0  0  0
 40 35  1  0  0  0  0
 40 41  1  0  0  0  0
 42 37  1  0  0  0  0
 42 44  1  0  0  0  0
 43 38  1  0  0  0  0
 44 38  1  0  0  0  0
 44 39  1  0  0  0  0
 45 46  1  0  0  0  0
 46 47  1  0  0  0  0
 48 45  1  0  0  0  0
 49 51  2  0  0  0  0
 51 50  1  0  0  0  0
 51 48  1  0  0  0  0
M  END
>  <MODEL>
5

>  <REMARK>
 VINA RESULT:      -5.9      2.237      6.534
  Name = 
  21 active torsions:
  status: ('A' for Active; 'I' for Inactive)
    1  A    between atoms: C_6  and  C_42
    2  A    between atoms: C_8  and  C_30
    3  A    between atoms: C_10  and  C_28
    4  A    between atoms: C_10  and  C_43
    5  A    between atoms: C_11  and  O_13
    6  A    between atoms: C_11  and  C_17
    7  A    between atoms: C_11  and  O_48
    8  A    between atoms: C_12  and  C_42
    9  A    between atoms: C_16  and  C_22
   10  A    between atoms: C_16  and  C_38
   11  A    between atoms: C_17  and  C_27
   12  A    between atoms: C_17  and  C_31
   13  A    between atoms: C_20  and  C_33
   14  A    between atoms: C_22  and  C_49
   15  A    between atoms: C_25  and  C_27
   16  A    between atoms: C_26  and  C_42
   17  A    between atoms: C_26  and  C_49
   18  A    between atoms: C_30  and  C_44
   19  A    between atoms: C_32  and  C_44
   20  A    between atoms: C_43  and  C_49
   21  A    between atoms: C_47  and  O_48
                            x       y       z     vdW  Elec       q    Type
                         _______ _______ _______ _____ _____    ______ ____

>  <TORSDO>
F 21

$$$$
=
 OpenBabel11062419013D

 51 53  0  0  1  0  0  0  0  0999 V2000
  190.3800  172.2060  140.4080 C   0  0  0  0  0  3  0  0  0  0  0  0
  191.4030  171.7440  139.6780 C   0  0  0  0  0  3  0  0  0  0  0  0
  190.0960  173.6610  140.6410 C   0  0  2  0  0  3  0  0  0  0  0  0
  188.5840  176.1000  142.7590 C   0  0  0  0  0  0  0  0  0  0  0  0
  189.9370  173.9850  142.1030 C   0  0  1  0  0  3  0  0  0  0  0  0
  187.1930  178.1750  143.4180 C   0  0  0  0  0  2  0  0  0  0  0  0
  187.9000  177.1310  143.0870 C   0  0  0  0  0  0  0  0  0  0  0  0
  189.2600  175.0590  142.4310 C   0  0  0  0  0  2  0  0  0  0  0  0
  185.9860  178.0580  144.2470 C   0  0  0  0  0  0  0  0  0  0  0  0
  184.9420  177.5080  143.7970 O   0  0  0  0  0  0  0  0  0  0  0  0
  185.9850  178.6330  145.6230 C   0  0  0  0  0  2  0  0  0  0  0  0
  186.4380  177.5940  146.6360 C   0  0  0  0  0  2  0  0  0  0  0  0
  187.4330  178.1690  147.5240 N   0  0  0  0  0  1  0  0  0  0  0  0
  190.4010  173.0200  143.1680 C   0  0  2  0  0  3  0  0  0  0  0  0
  189.7900  173.3120  144.5480 C   0  0  1  0  0  3  0  0  0  0  0  0
  189.4760  172.1340  145.2300 O   0  0  0  0  0  1  0  0  0  0  0  0
  190.7110  174.1800  145.4080 C   0  0  0  0  0  2  0  0  0  0  0  0
  190.6030  176.4030  146.5570 O   0  0  0  0  0  1  0  0  0  0  0  0
  188.7470  175.0580  146.4380 O   0  0  0  0  0  0  0  0  0  0  0  0
  189.9610  175.2350  146.1560 C   0  0  0  0  0  0  0  0  0  0  0  0
  191.9180  173.0220  143.2660 C   0  0  0  0  0  2  0  0  0  0  0  0
  192.4560  171.6230  143.0660 C   0  0  0  0  0  2  0  0  0  0  0  0
  193.4540  171.9400  145.2110 O   0  0  0  0  0  1  0  0  0  0  0  0
  193.1090  169.7570  144.5800 O   0  0  0  0  0  0  0  0  0  0  0  0
  193.0410  171.1240  144.3400 C   0  0  0  0  0  0  0  0  0  0  0  0
  188.8480  174.0360  139.8620 C   0  0  0  0  0  2  0  0  0  0  0  0
  188.1120  172.8920  139.5510 O   0  0  0  0  0  1  0  0  0  0  0  0
  192.4060  172.6320  138.9990 C   0  0  1  0  0  3  0  0  0  0  0  0
  193.6820  172.7880  139.8280 C   0  0  0  0  0  2  0  0  0  0  0  0
  196.3020  176.0190  140.8020 C   0  0  0  0  0  2  0  0  0  0  0  0
  194.5120  174.6730  141.1960 C   0  0  2  0  0  3  0  0  0  0  0  0
  195.7010  174.1240  139.1470 C   0  0  0  0  0  2  0  0  0  0  0  0
  196.5720  175.3880  139.4180 C   0  0  0  0  0  2  0  0  0  0  0  0
  194.2880  174.1860  139.7810 C   0  0  1  0  0  3  0  0  0  0  0  0
  193.7890  175.7580  141.9570 C   0  0  2  0  0  3  0  0  0  0  0  0
  194.7950  176.1450  140.8830 C   0  0  1  0  0  3  0  0  0  0  0  0
  194.9520  174.7440  143.9830 C   0  0  0  0  0  2  0  0  0  0  0  0
  193.9930  176.9470  145.7160 C   0  0  2  0  0  3  0  0  0  0  0  0
  193.6580  174.7710  146.6740 O   0  0  0  0  0  1  0  0  0  0  0  0
  194.3270  176.0050  143.3850 C   0  0  2  0  0  3  0  0  0  0  0  0
  193.3390  176.6630  144.3620 C   0  0  0  0  0  2  0  0  0  0  0  0
  195.6260  175.0540  145.3170 C   0  0  0  0  0  2  0  0  0  0  0  0
  194.9360  177.9700  145.5940 O   0  0  0  0  0  1  0  0  0  0  0  0
  194.6430  175.6910  146.3050 C   0  0  1  0  0  3  0  0  0  0  0  0
  192.7210  172.2230  137.5560 C   0  0  1  0  0  3  0  0  0  0  0  0
  193.3460  170.9720  137.4750 O   0  0  0  0  0  0  0  0  0  0  0  0
  194.0200  170.9820  136.2500 C   0  0  0  0  0  1  0  0  0  0  0  0
  191.5680  172.2890  136.7150 O   0  0  0  0  0  0  0  0  0  0  0  0
  189.6410  173.3760  135.7700 O   0  0  0  0  0  0  0  0  0  0  0  0
  191.3350  174.5940  136.7090 O   0  0  0  0  0  1  0  0  0  0  0  0
  190.8730  173.4620  136.4050 C   0  0  0  0  0  0  0  0  0  0  0  0
  1  3  1  0  0  0  0
  2  1  2  0  0  0  0
  3 26  1  6  0  0  0
  3  5  1  0  0  0  0
  4  7  3  0  0  0  0
  5  8  1  6  0  0  0
  5 14  1  0  0  0  0
  6  9  1  0  0  0  0
  7  6  1  0  0  0  0
  8  4  1  0  0  0  0
  9 11  1  0  0  0  0
 10  9  2  0  0  0  0
 11 12  1  0  0  0  0
 12 13  1  0  0  0  0
 14 21  1  1  0  0  0
 14 15  1  0  0  0  0
 15 16  1  1  0  0  0
 15 17  1  0  0  0  0
 17 20  1  0  0  0  0
 20 19  2  0  0  0  0
 20 18  1  0  0  0  0
 22 21  1  0  0  0  0
 22 25  1  0  0  0  0
 25 24  2  0  0  0  0
 25 23  1  0  0  0  0
 27 26  1  0  0  0  0
 28  2  1  1  0  0  0
 28 29  1  0  0  0  0
 30 36  1  0  0  0  0
 31 35  1  0  0  0  0
 32 33  1  0  0  0  0
 32 34  1  0  0  0  0
 33 30  1  0  0  0  0
 34 29  1  0  0  0  0
 34 31  1  0  0  0  0
 35 40  1  0  0  0  0
 36 31  1  0  0  0  0
 36 35  1  0  0  0  0
 37 42  1  0  0  0  0
 38 44  1  0  0  0  0
 40 37  1  0  0  0  0
 40 41  1  0  0  0  0
 41 38  1  0  0  0  0
 42 44  1  0  0  0  0
 43 38  1  0  0  0  0
 44 39  1  0  0  0  0
 45 28  1  0  0  0  0
 46 45  1  0  0  0  0
 47 46  1  0  0  0  0
 48 45  1  0  0  0  0
 49 51  2  0  0  0  0
 51 50  1  0  0  0  0
 51 48  1  0  0  0  0
M  END
>  <MODEL>
6

>  <REMARK>
 VINA RESULT:      -5.8      2.109      6.528
  Name = 
  21 active torsions:
  status: ('A' for Active; 'I' for Inactive)
    1  A    between atoms: C_6  and  C_42
    2  A    between atoms: C_8  and  C_30
    3  A    between atoms: C_10  and  C_28
    4  A    between atoms: C_10  and  C_43
    5  A    between atoms: C_11  and  O_13
    6  A    between atoms: C_11  and  C_17
    7  A    between atoms: C_11  and  O_48
    8  A    between atoms: C_12  and  C_42
    9  A    between atoms: C_16  and  C_22
   10  A    between atoms: C_16  and  C_38
   11  A    between atoms: C_17  and  C_27
   12  A    between atoms: C_17  and  C_31
   13  A    between atoms: C_20  and  C_33
   14  A    between atoms: C_22  and  C_49
   15  A    between atoms: C_25  and  C_27
   16  A    between atoms: C_26  and  C_42
   17  A    between atoms: C_26  and  C_49
   18  A    between atoms: C_30  and  C_44
   19  A    between atoms: C_32  and  C_44
   20  A    between atoms: C_43  and  C_49
   21  A    between atoms: C_47  and  O_48
                            x       y       z     vdW  Elec       q    Type
                         _______ _______ _______ _____ _____    ______ ____

>  <TORSDO>
F 21

$$$$
=
 OpenBabel11062419013D

 51 53  0  0  1  0  0  0  0  0999 V2000
  191.0720  174.3690  145.2270 C   0  0  0  0  0  3  0  0  0  0  0  0
  192.3980  174.1980  145.2850 C   0  0  0  0  0  3  0  0  0  0  0  0
  190.2240  174.0080  144.0420 C   0  0  2  0  0  3  0  0  0  0  0  0
  187.8050  176.0410  145.6950 C   0  0  0  0  0  0  0  0  0  0  0  0
  189.1960  175.0640  143.7340 C   0  0  1  0  0  3  0  0  0  0  0  0
  186.4550  177.0550  147.6510 C   0  0  0  0  0  2  0  0  0  0  0  0
  187.1310  176.5400  146.6620 C   0  0  0  0  0  0  0  0  0  0  0  0
  188.4880  175.5500  144.7260 C   0  0  0  0  0  2  0  0  0  0  0  0
  186.5080  178.4900  147.9580 C   0  0  0  0  0  0  0  0  0  0  0  0
  187.3550  178.9460  148.7760 O   0  0  0  0  0  0  0  0  0  0  0  0
  185.5230  179.4120  147.3230 C   0  0  0  0  0  2  0  0  0  0  0  0
  184.4100  178.6240  146.6510 C   0  0  0  0  0  2  0  0  0  0  0  0
  184.3070  179.0050  145.2540 N   0  0  0  0  0  1  0  0  0  0  0  0
  189.0890  175.6680  142.3540 C   0  0  2  0  0  3  0  0  0  0  0  0
  189.6320  177.1040  142.2840 C   0  0  1  0  0  3  0  0  0  0  0  0
  188.8450  177.9860  143.0290 O   0  0  0  0  0  1  0  0  0  0  0  0
  191.0870  177.1880  142.7480 C   0  0  0  0  0  2  0  0  0  0  0  0
  191.5660  179.3970  143.8270 O   0  0  0  0  0  0  0  0  0  0  0  0
  191.1130  177.5450  145.1060 O   0  0  0  0  0  1  0  0  0  0  0  0
  191.2490  178.0480  143.9600 C   0  0  0  0  0  0  0  0  0  0  0  0
  187.6490  175.6370  141.8680 C   0  0  0  0  0  2  0  0  0  0  0  0
  187.4440  176.6660  140.7780 C   0  0  0  0  0  2  0  0  0  0  0  0
  185.6870  178.1500  140.1360 O   0  0  0  0  0  0  0  0  0  0  0  0
  185.5690  177.3270  142.2780 O   0  0  0  0  0  1  0  0  0  0  0  0
  186.1930  177.4300  141.0410 C   0  0  0  0  0  0  0  0  0  0  0  0
  189.5640  172.6700  144.3150 C   0  0  0  0  0  2  0  0  0  0  0  0
  190.2960  171.6400  143.7200 O   0  0  0  0  0  1  0  0  0  0  0  0
  193.2130  173.6250  144.1600 C   0  0  1  0  0  3  0  0  0  0  0  0
  193.6960  174.7110  143.1970 C   0  0  0  0  0  2  0  0  0  0  0  0
  193.3520  174.1610  138.9750 C   0  0  0  0  0  2  0  0  0  0  0  0
  192.7620  173.7310  141.1280 C   0  0  2  0  0  3  0  0  0  0  0  0
  194.5480  175.3680  140.9240 C   0  0  0  0  0  2  0  0  0  0  0  0
  194.5300  175.0680  139.3950 C   0  0  0  0  0  2  0  0  0  0  0  0
  194.0340  174.1990  141.8010 C   0  0  1  0  0  3  0  0  0  0  0  0
  192.3220  172.3270  140.7900 C   0  0  2  0  0  3  0  0  0  0  0  0
  193.3940  172.9970  139.9420 C   0  0  1  0  0  3  0  0  0  0  0  0
  191.0840  171.5280  138.7130 C   0  0  0  0  0  2  0  0  0  0  0  0
  188.8250  173.3590  139.2770 C   0  0  2  0  0  3  0  0  0  0  0  0
  189.5660  173.4410  136.9960 O   0  0  0  0  0  1  0  0  0  0  0  0
  190.9620  172.2410  140.0600 C   0  0  2  0  0  3  0  0  0  0  0  0
  190.1930  173.5660  139.9320 C   0  0  0  0  0  2  0  0  0  0  0  0
  189.7080  171.3040  138.0920 C   0  0  0  0  0  2  0  0  0  0  0  0
  187.9750  172.6650  140.1410 O   0  0  0  0  0  1  0  0  0  0  0  0
  188.9420  172.6230  137.9390 C   0  0  1  0  0  3  0  0  0  0  0  0
  194.3680  172.7310  144.6230 C   0  0  1  0  0  3  0  0  0  0  0  0
  194.4700  171.5520  143.8730 O   0  0  0  0  0  0  0  0  0  0  0  0
  195.8250  171.4500  143.5420 C   0  0  0  0  0  1  0  0  0  0  0  0
  195.6100  173.4350  144.6660 O   0  0  0  0  0  0  0  0  0  0  0  0
  197.1890  173.6300  146.4710 O   0  0  0  0  0  1  0  0  0  0  0  0
  195.5690  175.2140  146.1510 O   0  0  0  0  0  0  0  0  0  0  0  0
  196.0940  174.1310  145.7780 C   0  0  0  0  0  0  0  0  0  0  0  0
  1  2  2  0  0  0  0
  3 26  1  1  0  0  0
  3  1  1  0  0  0  0
  4  7  3  0  0  0  0
  5  3  1  0  0  0  0
  5  8  1  1  0  0  0
  6  9  1  0  0  0  0
  7  6  1  0  0  0  0
  8  4  1  0  0  0  0
  9 10  2  0  0  0  0
 11  9  1  0  0  0  0
 12 11  1  0  0  0  0
 13 12  1  0  0  0  0
 14 21  1  1  0  0  0
 14  5  1  0  0  0  0
 15 14  1  0  0  0  0
 15 17  1  0  0  0  0
 15 16  1  1  0  0  0
 17 20  1  0  0  0  0
 18 20  2  0  0  0  0
 20 19  1  0  0  0  0
 22 25  1  0  0  0  0
 22 21  1  0  0  0  0
 23 25  2  0  0  0  0
 25 24  1  0  0  0  0
 27 26  1  0  0  0  0
 28 29  1  1  0  0  0
 28 45  1  0  0  0  0
 28  2  1  0  0  0  0
 30 33  1  0  0  0  0
 30 36  1  0  0  0  0
 31 34  1  0  0  0  0
 32 34  1  0  0  0  0
 33 32  1  0  0  0  0
 34 29  1  0  0  0  0
 35 31  1  0  0  0  0
 36 35  1  0  0  0  0
 36 31  1  0  0  0  0
 37 40  1  0  0  0  0
 38 41  1  0  0  0  0
 38 43  1  0  0  0  0
 39 44  1  0  0  0  0
 40 35  1  0  0  0  0
 41 40  1  0  0  0  0
 42 37  1  0  0  0  0
 44 42  1  0  0  0  0
 44 38  1  0  0  0  0
 45 48  1  0  0  0  0
 46 45  1  0  0  0  0
 47 46  1  0  0  0  0
 48 51  1  0  0  0  0
 51 50  2  0  0  0  0
 51 49  1  0  0  0  0
M  END
>  <MODEL>
7

>  <REMARK>
 VINA RESULT:      -5.7      1.615      3.431
  Name = 
  21 active torsions:
  status: ('A' for Active; 'I' for Inactive)
    1  A    between atoms: C_6  and  C_42
    2  A    between atoms: C_8  and  C_30
    3  A    between atoms: C_10  and  C_28
    4  A    between atoms: C_10  and  C_43
    5  A    between atoms: C_11  and  O_13
    6  A    between atoms: C_11  and  C_17
    7  A    between atoms: C_11  and  O_48
    8  A    between atoms: C_12  and  C_42
    9  A    between atoms: C_16  and  C_22
   10  A    between atoms: C_16  and  C_38
   11  A    between atoms: C_17  and  C_27
   12  A    between atoms: C_17  and  C_31
   13  A    between atoms: C_20  and  C_33
   14  A    between atoms: C_22  and  C_49
   15  A    between atoms: C_25  and  C_27
   16  A    between atoms: C_26  and  C_42
   17  A    between atoms: C_26  and  C_49
   18  A    between atoms: C_30  and  C_44
   19  A    between atoms: C_32  and  C_44
   20  A    between atoms: C_43  and  C_49
   21  A    between atoms: C_47  and  O_48
                            x       y       z     vdW  Elec       q    Type
                         _______ _______ _______ _____ _____    ______ ____

>  <TORSDO>
F 21

$$$$
=
 OpenBabel11062419013D

 51 53  0  0  1  0  0  0  0  0999 V2000
  195.7040  173.1600  144.8210 C   0  0  0  0  0  3  0  0  0  0  0  0
  195.1990  174.2310  145.4440 C   0  0  0  0  0  3  0  0  0  0  0  0
  195.4760  172.8370  143.3730 C   0  0  2  0  0  3  0  0  0  0  0  0
  192.1360  172.9390  142.1250 C   0  0  0  0  0  0  0  0  0  0  0  0
  194.2880  171.9340  143.1700 C   0  0  1  0  0  3  0  0  0  0  0  0
  190.0090  173.9230  141.0370 C   0  0  0  0  0  2  0  0  0  0  0  0
  191.0790  173.4260  141.5920 C   0  0  0  0  0  0  0  0  0  0  0  0
  193.1990  172.4470  142.6490 C   0  0  0  0  0  2  0  0  0  0  0  0
  189.4780  173.3930  139.7750 C   0  0  0  0  0  0  0  0  0  0  0  0
  188.8570  174.1410  138.9690 O   0  0  0  0  0  0  0  0  0  0  0  0
  189.6420  171.9440  139.4610 C   0  0  0  0  0  2  0  0  0  0  0  0
  190.3050  171.7620  138.1050 C   0  0  0  0  0  2  0  0  0  0  0  0
  191.6930  172.1840  138.1720 N   0  0  0  0  0  1  0  0  0  0  0  0
  194.3950  170.4450  143.4040 C   0  0  2  0  0  3  0  0  0  0  0  0
  193.9080  169.6140  142.2070 C   0  0  1  0  0  3  0  0  0  0  0  0
  194.8610  168.6720  141.8130 O   0  0  0  0  0  1  0  0  0  0  0  0
  192.5780  168.9160  142.4990 C   0  0  0  0  0  2  0  0  0  0  0  0
  191.6560  169.1790  140.1850 O   0  0  0  0  0  0  0  0  0  0  0  0
  190.4390  169.8530  142.0100 O   0  0  0  0  0  1  0  0  0  0  0  0
  191.4950  169.3370  141.5580 C   0  0  0  0  0  0  0  0  0  0  0  0
  193.6280  170.0450  144.6540 C   0  0  0  0  0  2  0  0  0  0  0  0
  194.2720  168.8380  145.2980 C   0  0  0  0  0  2  0  0  0  0  0  0
  194.5540  168.7900  147.6690 O   0  0  0  0  0  1  0  0  0  0  0  0
  196.0340  170.1130  146.5120 O   0  0  0  0  0  0  0  0  0  0  0  0
  194.9490  169.2460  146.5600 C   0  0  0  0  0  0  0  0  0  0  0  0
  196.7400  172.2080  142.8170 C   0  0  0  0  0  2  0  0  0  0  0  0
  196.8880  172.5340  141.4680 O   0  0  0  0  0  1  0  0  0  0  0  0
  194.3280  175.2520  144.7680 C   0  0  1  0  0  3  0  0  0  0  0  0
  193.4800  176.0320  145.7730 C   0  0  0  0  0  2  0  0  0  0  0  0
  189.6270  174.3820  144.9480 C   0  0  0  0  0  2  0  0  0  0  0  0
  191.0780  176.1150  145.1970 C   0  0  2  0  0  3  0  0  0  0  0  0
  192.0990  173.9400  145.5680 C   0  0  0  0  0  2  0  0  0  0  0  0
  190.6690  173.3400  145.4120 C   0  0  0  0  0  2  0  0  0  0  0  0
  192.1140  175.4140  146.0470 C   0  0  1  0  0  3  0  0  0  0  0  0
  189.9740  177.0560  145.6180 C   0  0  2  0  0  3  0  0  0  0  0  0
  189.8200  175.5630  145.8750 C   0  0  1  0  0  3  0  0  0  0  0  0
  187.6110  177.6540  144.8820 C   0  0  0  0  0  2  0  0  0  0  0  0
  188.3700  177.4110  142.0290 C   0  0  2  0  0  3  0  0  0  0  0  0
  186.3250  176.2750  142.5670 O   0  0  0  0  0  1  0  0  0  0  0  0
  189.0770  177.5490  144.4600 C   0  0  2  0  0  3  0  0  0  0  0  0
  189.2300  176.7910  143.1320 C   0  0  0  0  0  2  0  0  0  0  0  0
  186.7760  178.3030  143.7810 C   0  0  0  0  0  2  0  0  0  0  0  0
  188.8800  178.6580  141.6600 O   0  0  0  0  0  1  0  0  0  0  0  0
  186.9050  177.5410  142.4580 C   0  0  1  0  0  3  0  0  0  0  0  0
  195.0890  176.1920  143.8260 C   0  0  1  0  0  3  0  0  0  0  0  0
  196.3910  176.4580  144.2670 O   0  0  0  0  0  0  0  0  0  0  0  0
  197.1900  176.3570  143.1240 C   0  0  0  0  0  1  0  0  0  0  0  0
  195.0780  175.7250  142.4760 O   0  0  0  0  0  0  0  0  0  0  0  0
  192.8140  176.4090  142.0290 O   0  0  0  0  0  1  0  0  0  0  0  0
  194.1940  175.7340  140.3330 O   0  0  0  0  0  0  0  0  0  0  0  0
  194.0370  175.9390  141.5670 C   0  0  0  0  0  0  0  0  0  0  0  0
  1  2  2  0  0  0  0
  3 26  1  1  0  0  0
  3  1  1  0  0  0  0
  4  8  1  0  0  0  0
  5  8  1  6  0  0  0
  5  3  1  0  0  0  0
  5 14  1  0  0  0  0
  6  7  1  0  0  0  0
  7  4  3  0  0  0  0
  9  6  1  0  0  0  0
 10  9  2  0  0  0  0
 11  9  1  0  0  0  0
 12 13  1  0  0  0  0
 12 11  1  0  0  0  0
 14 21  1  1  0  0  0
 15 16  1  1  0  0  0
 15 17  1  0  0  0  0
 15 14  1  0  0  0  0
 18 20  2  0  0  0  0
 20 19  1  0  0  0  0
 20 17  1  0  0  0  0
 21 22  1  0  0  0  0
 22 25  1  0  0  0  0
 24 25  2  0  0  0  0
 25 23  1  0  0  0  0
 27 26  1  0  0  0  0
 28  2  1  1  0  0  0
 28 29  1  0  0  0  0
 29 34  1  0  0  0  0
 30 33  1  0  0  0  0
 30 36  1  0  0  0  0
 31 35  1  0  0  0  0
 31 36  1  0  0  0  0
 31 34  1  0  0  0  0
 32 34  1  0  0  0  0
 33 32  1  0  0  0  0
 35 36  1  0  0  0  0
 38 44  1  0  0  0  0
 38 41  1  0  0  0  0
 40 37  1  0  0  0  0
 40 35  1  0  0  0  0
 41 40  1  0  0  0  0
 42 37  1  0  0  0  0
 43 38  1  0  0  0  0
 44 39  1  0  0  0  0
 44 42  1  0  0  0  0
 45 46  1  0  0  0  0
 45 28  1  0  0  0  0
 47 46  1  0  0  0  0
 48 45  1  0  0  0  0
 50 51  2  0  0  0  0
 51 49  1  0  0  0  0
 51 48  1  0  0  0  0
M  END
>  <MODEL>
8

>  <REMARK>
 VINA RESULT:      -5.6      2.751      7.361
  Name = 
  21 active torsions:
  status: ('A' for Active; 'I' for Inactive)
    1  A    between atoms: C_6  and  C_42
    2  A    between atoms: C_8  and  C_30
    3  A    between atoms: C_10  and  C_28
    4  A    between atoms: C_10  and  C_43
    5  A    between atoms: C_11  and  O_13
    6  A    between atoms: C_11  and  C_17
    7  A    between atoms: C_11  and  O_48
    8  A    between atoms: C_12  and  C_42
    9  A    between atoms: C_16  and  C_22
   10  A    between atoms: C_16  and  C_38
   11  A    between atoms: C_17  and  C_27
   12  A    between atoms: C_17  and  C_31
   13  A    between atoms: C_20  and  C_33
   14  A    between atoms: C_22  and  C_49
   15  A    between atoms: C_25  and  C_27
   16  A    between atoms: C_26  and  C_42
   17  A    between atoms: C_26  and  C_49
   18  A    between atoms: C_30  and  C_44
   19  A    between atoms: C_32  and  C_44
   20  A    between atoms: C_43  and  C_49
   21  A    between atoms: C_47  and  O_48
                            x       y       z     vdW  Elec       q    Type
                         _______ _______ _______ _____ _____    ______ ____

>  <TORSDO>
F 21

$$$$
=
 OpenBabel11062419013D

 51 53  0  0  1  0  0  0  0  0999 V2000
  191.5640  171.8430  143.0730 C   0  0  0  0  0  3  0  0  0  0  0  0
  192.1270  171.6600  144.2740 C   0  0  0  0  0  3  0  0  0  0  0  0
  192.3290  171.9210  141.7840 C   0  0  2  0  0  3  0  0  0  0  0  0
  189.9270  174.5310  141.4130 C   0  0  0  0  0  0  0  0  0  0  0  0
  192.1640  173.2540  141.1020 C   0  0  1  0  0  3  0  0  0  0  0  0
  187.7220  175.8320  141.7640 C   0  0  0  0  0  2  0  0  0  0  0  0
  188.8330  175.1740  141.5810 C   0  0  0  0  0  0  0  0  0  0  0  0
  191.0290  173.8930  141.2540 C   0  0  0  0  0  2  0  0  0  0  0  0
  187.7080  177.1670  142.3740 C   0  0  0  0  0  0  0  0  0  0  0  0
  188.6030  178.0140  142.1010 O   0  0  0  0  0  0  0  0  0  0  0  0
  186.6420  177.5100  143.3600 C   0  0  0  0  0  2  0  0  0  0  0  0
  185.2700  177.1550  142.8090 C   0  0  0  0  0  2  0  0  0  0  0  0
  184.4300  178.3380  142.7720 N   0  0  0  0  0  1  0  0  0  0  0  0
  193.3250  173.9150  140.3970 C   0  0  2  0  0  3  0  0  0  0  0  0
  193.4570  173.4850  138.9280 C   0  0  1  0  0  3  0  0  0  0  0  0
  194.2800  172.3630  138.7940 O   0  0  0  0  0  1  0  0  0  0  0  0
  192.0950  173.2090  138.2880 C   0  0  0  0  0  2  0  0  0  0  0  0
  192.7280  175.0870  136.7560 O   0  0  0  0  0  1  0  0  0  0  0  0
  190.6060  174.2120  136.7170 O   0  0  0  0  0  0  0  0  0  0  0  0
  191.7660  174.1890  137.2080 C   0  0  0  0  0  0  0  0  0  0  0  0
  194.6250  173.6380  141.1340 C   0  0  0  0  0  2  0  0  0  0  0  0
  195.2210  174.9300  141.6460 C   0  0  0  0  0  2  0  0  0  0  0  0
  197.2490  175.6130  142.7060 O   0  0  0  0  0  1  0  0  0  0  0  0
  197.0930  173.3800  142.1860 O   0  0  0  0  0  0  0  0  0  0  0  0
  196.5780  174.6700  142.2020 C   0  0  0  0  0  0  0  0  0  0  0  0
  191.8670  170.7890  140.8840 C   0  0  0  0  0  2  0  0  0  0  0  0
  192.0340  169.5620  141.5290 O   0  0  0  0  0  1  0  0  0  0  0  0
  193.6070  171.5130  144.4840 C   0  0  1  0  0  3  0  0  0  0  0  0
  194.1490  172.5560  145.4640 C   0  0  0  0  0  2  0  0  0  0  0  0
  193.5820  176.7900  145.4260 C   0  0  0  0  0  2  0  0  0  0  0  0
  192.8370  174.6450  145.3050 C   0  0  2  0  0  3  0  0  0  0  0  0
  195.2410  174.8160  145.6270 C   0  0  0  0  0  2  0  0  0  0  0  0
  195.0640  176.3560  145.4690 C   0  0  0  0  0  2  0  0  0  0  0  0
  194.1410  173.9810  144.9220 C   0  0  1  0  0  3  0  0  0  0  0  0
  191.6720  175.0360  144.4270 C   0  0  2  0  0  3  0  0  0  0  0  0
  192.9400  175.8770  144.4010 C   0  0  1  0  0  3  0  0  0  0  0  0
  190.5460  177.2530  144.9750 C   0  0  0  0  0  2  0  0  0  0  0  0
  189.1380  176.0400  147.2820 C   0  0  2  0  0  3  0  0  0  0  0  0
  190.1840  178.1370  147.8040 O   0  0  0  0  0  1  0  0  0  0  0  0
  190.5150  175.7380  145.1750 C   0  0  2  0  0  3  0  0  0  0  0  0
  190.3620  175.3650  146.6580 C   0  0  0  0  0  2  0  0  0  0  0  0
  189.3020  177.9040  145.5770 C   0  0  0  0  0  2  0  0  0  0  0  0
  187.9640  175.4860  146.7680 O   0  0  0  0  0  1  0  0  0  0  0  0
  189.1530  177.5560  147.0620 C   0  0  1  0  0  3  0  0  0  0  0  0
  194.0410  170.0960  144.8760 C   0  0  1  0  0  3  0  0  0  0  0  0
  194.3850  169.3130  143.7680 O   0  0  0  0  0  0  0  0  0  0  0  0
  195.5610  169.8830  143.2700 C   0  0  0  0  0  1  0  0  0  0  0  0
  195.0800  170.1040  145.8560 O   0  0  0  0  0  0  0  0  0  0  0  0
  196.4900  168.9370  147.4190 O   0  0  0  0  0  1  0  0  0  0  0  0
  194.2520  168.4800  147.2870 O   0  0  0  0  0  0  0  0  0  0  0  0
  195.2340  169.1440  146.8620 C   0  0  0  0  0  0  0  0  0  0  0  0
  1  2  2  0  0  0  0
  3 26  1  6  0  0  0
  3  1  1  0  0  0  0
  4  7  3  0  0  0  0
  5  8  1  1  0  0  0
  5  3  1  0  0  0  0
  6  9  1  0  0  0  0
  7  6  1  0  0  0  0
  8  4  1  0  0  0  0
  9 11  1  0  0  0  0
 10  9  2  0  0  0  0
 12 11  1  0  0  0  0
 13 12  1  0  0  0  0
 14  5  1  0  0  0  0
 14 21  1  1  0  0  0
 15 16  1  1  0  0  0
 15 14  1  0  0  0  0
 17 15  1  0  0  0  0
 18 20  1  0  0  0  0
 19 20  2  0  0  0  0
 20 17  1  0  0  0  0
 21 22  1  0  0  0  0
 22 25  1  0  0  0  0
 24 25  2  0  0  0  0
 25 23  1  0  0  0  0
 26 27  1  0  0  0  0
 28  2  1  1  0  0  0
 28 45  1  0  0  0  0
 28 29  1  0  0  0  0
 30 33  1  0  0  0  0
 33 32  1  0  0  0  0
 34 31  1  0  0  0  0
 34 29  1  0  0  0  0
 34 32  1  0  0  0  0
 35 40  1  0  0  0  0
 35 31  1  0  0  0  0
 36 35  1  0  0  0  0
 36 31  1  0  0  0  0
 36 30  1  0  0  0  0
 37 40  1  0  0  0  0
 37 42  1  0  0  0  0
 40 41  1  0  0  0  0
 41 38  1  0  0  0  0
 42 44  1  0  0  0  0
 43 38  1  0  0  0  0
 44 38  1  0  0  0  0
 44 39  1  0  0  0  0
 45 48  1  0  0  0  0
 46 45  1  0  0  0  0
 47 46  1  0  0  0  0
 48 51  1  0  0  0  0
 51 50  2  0  0  0  0
 51 49  1  0  0  0  0
M  END
>  <MODEL>
9

>  <REMARK>
 VINA RESULT:      -5.6      2.177      6.459
  Name = 
  21 active torsions:
  status: ('A' for Active; 'I' for Inactive)
    1  A    between atoms: C_6  and  C_42
    2  A    between atoms: C_8  and  C_30
    3  A    between atoms: C_10  and  C_28
    4  A    between atoms: C_10  and  C_43
    5  A    between atoms: C_11  and  O_13
    6  A    between atoms: C_11  and  C_17
    7  A    between atoms: C_11  and  O_48
    8  A    between atoms: C_12  and  C_42
    9  A    between atoms: C_16  and  C_22
   10  A    between atoms: C_16  and  C_38
   11  A    between atoms: C_17  and  C_27
   12  A    between atoms: C_17  and  C_31
   13  A    between atoms: C_20  and  C_33
   14  A    between atoms: C_22  and  C_49
   15  A    between atoms: C_25  and  C_27
   16  A    between atoms: C_26  and  C_42
   17  A    between atoms: C_26  and  C_49
   18  A    between atoms: C_30  and  C_44
   19  A    between atoms: C_32  and  C_44
   20  A    between atoms: C_43  and  C_49
   21  A    between atoms: C_47  and  O_48
                            x       y       z     vdW  Elec       q    Type
                         _______ _______ _______ _____ _____    ______ ____

>  <TORSDO>
F 21

$$$$
