=
 OpenBabel11072408493D

 26 30  0  0  1  0  0  0  0  0999 V2000
  190.9040  176.6190  145.0600 C   0  0  1  0  0  0  0  0  0  0  0  0
  186.3340  176.4310  142.5220 O   0  0  0  0  0  0  0  0  0  0  0  0
  190.1030  177.3350  145.9520 O   0  0  0  0  0  1  0  0  0  0  0  0
  187.0690  176.7550  140.3510 O   0  0  0  0  0  1  0  0  0  0  0  0
  188.5100  177.8550  143.5620 O   0  0  0  0  0  0  0  0  0  0  0  0
  190.9320  175.1180  142.9110 C   0  0  0  0  0  2  0  0  0  0  0  0
  188.8630  176.5080  143.4100 C   0  0  1  0  0  3  0  0  0  0  0  0
  189.6440  174.5500  141.7430 S   0  0  0  0  0  0  0  0  0  0  0  0
  186.5200  179.0600  142.3400 O   0  0  0  0  0  0  0  0  0  0  0  0
  188.7440  176.1130  141.9570 C   0  0  1  0  0  3  0  0  0  0  0  0
  187.2710  176.0350  141.5300 C   0  0  1  0  0  3  0  0  0  0  0  0
  190.2990  176.1920  143.7770 C   0  0  1  0  0  0  0  0  0  0  0  0
  186.8350  177.8990  143.2570 P   0  0  1  0  0  0  0  0  0  0  0  0
  191.1170  177.3390  143.8660 O   0  0  0  0  0  0  0  0  0  0  0  0
  194.2090  175.5520  146.0800 C   0  0  0  0  0  0  0  0  0  0  0  0
  195.5610  175.5850  146.1560 F   0  0  0  0  0  0  0  0  0  0  0  0
  192.1540  175.9890  145.5840 C   0  0  0  0  0  0  0  0  0  0  0  0
  193.4660  174.6680  146.7030 O   0  0  0  0  0  0  0  0  0  0  0  0
  193.4410  176.4340  145.3500 C   0  0  0  0  0  3  0  0  0  0  0  0
  192.2040  174.9010  146.4330 C   0  0  0  0  0  3  0  0  0  0  0  0
  185.9030  177.8590  147.2190 C   0  0  0  0  0  3  0  0  0  0  0  0
  183.9690  178.7040  146.0290 C   0  0  0  0  0  3  0  0  0  0  0  0
  184.5910  178.3460  147.2290 C   0  0  0  0  0  3  0  0  0  0  0  0
  185.9750  178.1070  144.8090 C   0  0  0  0  0  0  0  0  0  0  0  0
  184.6590  178.5790  144.8190 C   0  0  0  0  0  3  0  0  0  0  0  0
  186.5920  177.7350  146.0090 C   0  0  0  0  0  3  0  0  0  0  0  0
  1 17  1  0  0  0  0
  1  3  1  1  0  0  0
  2 13  1  0  0  0  0
  7  5  1  6  0  0  0
  7 12  1  0  0  0  0
  8  6  1  0  0  0  0
 10  8  1  1  0  0  0
 10  7  1  0  0  0  0
 11  4  1  6  0  0  0
 11 10  1  0  0  0  0
 11  2  1  0  0  0  0
 12  6  1  6  0  0  0
 12 14  1  0  0  0  0
 12  1  1  0  0  0  0
 13  9  2  6  0  0  0
 13  5  1  0  0  0  0
 13 24  1  0  0  0  0
 14  1  1  0  0  0  0
 15 16  1  0  0  0  0
 15 18  1  0  0  0  0
 17 20  2  0  0  0  0
 19 17  1  0  0  0  0
 19 15  2  0  0  0  0
 20 18  1  0  0  0  0
 21 23  1  0  0  0  0
 22 23  2  0  0  0  0
 24 25  2  0  0  0  0
 24 26  1  0  0  0  0
 25 22  1  0  0  0  0
 26 21  2  0  0  0  0
M  END
>  <MODEL>
1

>  <REMARK>
 VINA RESULT:      -8.0      0.000      0.000
  Name = 
  2 active torsions:
  status: ('A' for Active; 'I' for Inactive)
    1  A    between atoms: C_2  and  C_8
    2  A    between atoms: C_13  and  P_23
                            x       y       z     vdW  Elec       q    Type
                         _______ _______ _______ _____ _____    ______ ____

>  <TORSDO>
F 2

$$$$
=
 OpenBabel11072408493D

 26 30  0  0  1  0  0  0  0  0999 V2000
  188.5700  174.2360  141.7380 C   0  0  1  0  0  0  0  0  0  0  0  0
  189.8640  177.6390  145.4940 O   0  0  0  0  0  0  0  0  0  0  0  0
  187.2990  174.5740  142.2060 O   0  0  0  0  0  1  0  0  0  0  0  0
  191.7110  176.5660  146.3860 O   0  0  0  0  0  1  0  0  0  0  0  0
  188.7500  175.2090  144.6580 O   0  0  0  0  0  0  0  0  0  0  0  0
  191.1270  174.8040  141.8360 C   0  0  0  0  0  2  0  0  0  0  0  0
  189.6000  175.7010  143.6590 C   0  0  1  0  0  3  0  0  0  0  0  0
  192.1250  176.0040  142.7890 S   0  0  0  0  0  0  0  0  0  0  0  0
  188.7940  175.9170  147.1870 O   0  0  0  0  0  0  0  0  0  0  0  0
  191.0030  175.8300  144.2060 C   0  0  1  0  0  3  0  0  0  0  0  0
  191.0950  176.9900  145.2080 C   0  0  1  0  0  3  0  0  0  0  0  0
  189.7410  174.7940  142.4540 C   0  0  1  0  0  0  0  0  0  0  0  0
  188.6380  176.4760  145.7900 P   0  0  1  0  0  0  0  0  0  0  0  0
  189.2850  173.4790  142.6890 O   0  0  0  0  0  0  0  0  0  0  0  0
  189.0050  172.3910  138.6540 C   0  0  0  0  0  0  0  0  0  0  0  0
  189.3250  171.3360  137.8680 F   0  0  0  0  0  0  0  0  0  0  0  0
  188.6890  173.6840  140.3550 C   0  0  0  0  0  0  0  0  0  0  0  0
  188.5320  173.5250  138.1940 O   0  0  0  0  0  0  0  0  0  0  0  0
  189.1250  172.4140  140.0280 C   0  0  0  0  0  3  0  0  0  0  0  0
  188.3200  174.3410  139.1980 C   0  0  0  0  0  3  0  0  0  0  0  0
  185.6130  178.9390  144.6300 C   0  0  0  0  0  3  0  0  0  0  0  0
  184.7360  177.4800  146.3530 C   0  0  0  0  0  3  0  0  0  0  0  0
  184.5520  178.5240  145.4420 C   0  0  0  0  0  3  0  0  0  0  0  0
  187.0360  177.2510  145.6280 C   0  0  0  0  0  0  0  0  0  0  0  0
  185.9800  176.8470  146.4500 C   0  0  0  0  0  3  0  0  0  0  0  0
  186.8550  178.3060  144.7260 C   0  0  0  0  0  3  0  0  0  0  0  0
  1  3  1  1  0  0  0
  1 12  1  0  0  0  0
  1 14  1  0  0  0  0
  2 13  1  0  0  0  0
  5 13  1  0  0  0  0
  6  8  1  0  0  0  0
  7 10  1  0  0  0  0
  7  5  1  1  0  0  0
 10  8  1  6  0  0  0
 10 11  1  0  0  0  0
 11  2  1  0  0  0  0
 11  4  1  1  0  0  0
 12  6  1  6  0  0  0
 12 14  1  0  0  0  0
 12  7  1  0  0  0  0
 13  9  2  1  0  0  0
 15 19  2  0  0  0  0
 16 15  1  0  0  0  0
 17  1  1  0  0  0  0
 18 15  1  0  0  0  0
 18 20  1  0  0  0  0
 19 17  1  0  0  0  0
 20 17  2  0  0  0  0
 21 26  2  0  0  0  0
 21 23  1  0  0  0  0
 22 25  1  0  0  0  0
 23 22  2  0  0  0  0
 24 13  1  0  0  0  0
 24 25  2  0  0  0  0
 26 24  1  0  0  0  0
M  END
>  <MODEL>
2

>  <REMARK>
 VINA RESULT:      -7.4      3.263      5.486
  Name = 
  2 active torsions:
  status: ('A' for Active; 'I' for Inactive)
    1  A    between atoms: C_2  and  C_8
    2  A    between atoms: C_13  and  P_23
                            x       y       z     vdW  Elec       q    Type
                         _______ _______ _______ _____ _____    ______ ____

>  <TORSDO>
F 2

$$$$
=
 OpenBabel11072408493D

 26 30  0  0  1  0  0  0  0  0999 V2000
  192.5010  175.9940  144.2200 C   0  0  1  0  0  0  0  0  0  0  0  0
  187.8140  174.6210  142.3490 O   0  0  0  0  0  0  0  0  0  0  0  0
  191.6760  176.7040  145.0940 O   0  0  0  0  0  1  0  0  0  0  0  0
  188.2530  174.6960  140.0770 O   0  0  0  0  0  1  0  0  0  0  0  0
  189.7810  176.5440  142.8790 O   0  0  0  0  0  0  0  0  0  0  0  0
  192.5910  174.1810  142.3290 C   0  0  0  0  0  2  0  0  0  0  0  0
  190.3610  175.2690  142.8820 C   0  0  1  0  0  3  0  0  0  0  0  0
  191.3200  173.2180  141.4330 S   0  0  0  0  0  0  0  0  0  0  0  0
  187.4890  177.1760  141.7610 O   0  0  0  0  0  0  0  0  0  0  0  0
  190.1720  174.6210  141.5310 C   0  0  1  0  0  3  0  0  0  0  0  0
  188.7030  174.2280  141.3130 C   0  0  1  0  0  3  0  0  0  0  0  0
  191.8600  175.2630  143.1030 C   0  0  1  0  0  0  0  0  0  0  0  0
  188.1050  176.2540  142.7900 P   0  0  1  0  0  0  0  0  0  0  0  0
  192.4560  176.5300  142.9160 O   0  0  0  0  0  0  0  0  0  0  0  0
  195.6170  174.8280  145.6490 C   0  0  0  0  0  0  0  0  0  0  0  0
  196.4200  174.1120  146.4720 F   0  0  0  0  0  0  0  0  0  0  0  0
  193.8930  175.6780  144.6650 C   0  0  0  0  0  0  0  0  0  0  0  0
  196.0640  175.6490  144.7290 O   0  0  0  0  0  0  0  0  0  0  0  0
  194.2380  174.7880  145.6640 C   0  0  0  0  0  3  0  0  0  0  0  0
  195.0460  176.1860  144.1000 C   0  0  0  0  0  3  0  0  0  0  0  0
  187.6000  176.7200  146.8020 C   0  0  0  0  0  3  0  0  0  0  0  0
  185.4350  177.0220  145.7610 C   0  0  0  0  0  3  0  0  0  0  0  0
  186.2290  176.9770  146.9100 C   0  0  0  0  0  3  0  0  0  0  0  0
  187.3830  176.5720  144.3920 C   0  0  0  0  0  0  0  0  0  0  0  0
  186.0100  176.8140  144.5030 C   0  0  0  0  0  3  0  0  0  0  0  0
  188.1750  176.5130  145.5450 C   0  0  0  0  0  3  0  0  0  0  0  0
  1 17  1  0  0  0  0
  1  3  1  1  0  0  0
  2 13  1  0  0  0  0
  7  5  1  6  0  0  0
  7 12  1  0  0  0  0
  8  6  1  0  0  0  0
 10  8  1  1  0  0  0
 10  7  1  0  0  0  0
 11  4  1  6  0  0  0
 11 10  1  0  0  0  0
 11  2  1  0  0  0  0
 12  6  1  6  0  0  0
 12  1  1  0  0  0  0
 13  9  2  6  0  0  0
 13  5  1  0  0  0  0
 13 24  1  0  0  0  0
 14 12  1  0  0  0  0
 14  1  1  0  0  0  0
 15 19  2  0  0  0  0
 15 16  1  0  0  0  0
 17 19  1  0  0  0  0
 18 15  1  0  0  0  0
 20 17  2  0  0  0  0
 20 18  1  0  0  0  0
 21 23  1  0  0  0  0
 22 23  2  0  0  0  0
 24 25  2  0  0  0  0
 24 26  1  0  0  0  0
 25 22  1  0  0  0  0
 26 21  2  0  0  0  0
M  END
>  <MODEL>
3

>  <REMARK>
 VINA RESULT:      -7.3      1.820      2.227
  Name = 
  2 active torsions:
  status: ('A' for Active; 'I' for Inactive)
    1  A    between atoms: C_2  and  C_8
    2  A    between atoms: C_13  and  P_23
                            x       y       z     vdW  Elec       q    Type
                         _______ _______ _______ _____ _____    ______ ____

>  <TORSDO>
F 2

$$$$
=
 OpenBabel11072408493D

 26 30  0  0  1  0  0  0  0  0999 V2000
  189.9230  176.6510  143.0430 C   0  0  1  0  0  0  0  0  0  0  0  0
  191.9600  175.5300  147.7290 O   0  0  0  0  0  0  0  0  0  0  0  0
  191.0780  175.9740  142.6480 O   0  0  0  0  0  1  0  0  0  0  0  0
  191.5170  177.5110  148.8410 O   0  0  0  0  0  1  0  0  0  0  0  0
  192.0610  176.8420  145.2560 O   0  0  0  0  0  0  0  0  0  0  0  0
  188.3820  177.2920  145.0630 C   0  0  0  0  0  2  0  0  0  0  0  0
  190.7400  176.4680  145.5330 C   0  0  1  0  0  3  0  0  0  0  0  0
  188.4710  177.0080  146.8680 S   0  0  0  0  0  0  0  0  0  0  0  0
  193.9860  177.0740  147.0290 O   0  0  0  0  0  0  0  0  0  0  0  0
  190.2810  177.1320  146.8100 C   0  0  1  0  0  3  0  0  0  0  0  0
  190.9780  176.5120  148.0300 C   0  0  1  0  0  3  0  0  0  0  0  0
  189.7330  176.9080  144.4890 C   0  0  1  0  0  0  0  0  0  0  0  0
  192.9860  176.0860  146.4700 P   0  0  1  0  0  0  0  0  0  0  0  0
  190.2300  177.9020  143.6190 O   0  0  0  0  0  0  0  0  0  0  0  0
  187.2430  177.4160  140.7340 C   0  0  0  0  0  0  0  0  0  0  0  0
  186.3930  178.1970  140.0250 F   0  0  0  0  0  0  0  0  0  0  0  0
  188.7840  176.7250  142.0780 C   0  0  0  0  0  0  0  0  0  0  0  0
  187.2650  176.1060  140.6540 O   0  0  0  0  0  0  0  0  0  0  0  0
  188.1910  177.8850  141.6180 C   0  0  0  0  0  3  0  0  0  0  0  0
  188.1950  175.6430  141.4550 C   0  0  0  0  0  3  0  0  0  0  0  0
  193.8090  172.4830  144.7650 C   0  0  0  0  0  3  0  0  0  0  0  0
  195.9250  173.5820  145.1910 C   0  0  0  0  0  3  0  0  0  0  0  0
  195.2070  172.4810  144.7150 C   0  0  0  0  0  3  0  0  0  0  0  0
  193.8480  174.6970  145.7520 C   0  0  0  0  0  0  0  0  0  0  0  0
  195.2460  174.6870  145.7150 C   0  0  0  0  0  3  0  0  0  0  0  0
  193.1310  173.5880  145.2880 C   0  0  0  0  0  3  0  0  0  0  0  0
  1  3  1  6  0  0  0
  1 14  1  0  0  0  0
  1 12  1  0  0  0  0
  2 11  1  0  0  0  0
  5 13  1  0  0  0  0
  6  8  1  0  0  0  0
  7  5  1  6  0  0  0
  7 10  1  0  0  0  0
 10  8  1  1  0  0  0
 10 11  1  0  0  0  0
 11  4  1  6  0  0  0
 12  6  1  1  0  0  0
 12  7  1  0  0  0  0
 13  9  2  1  0  0  0
 13  2  1  0  0  0  0
 14 12  1  0  0  0  0
 15 19  2  0  0  0  0
 16 15  1  0  0  0  0
 17  1  1  0  0  0  0
 18 15  1  0  0  0  0
 18 20  1  0  0  0  0
 19 17  1  0  0  0  0
 20 17  2  0  0  0  0
 21 26  1  0  0  0  0
 22 25  2  0  0  0  0
 23 21  2  0  0  0  0
 23 22  1  0  0  0  0
 24 13  1  0  0  0  0
 25 24  1  0  0  0  0
 26 24  2  0  0  0  0
M  END
>  <MODEL>
4

>  <REMARK>
 VINA RESULT:      -7.0      3.619      7.703
  Name = 
  2 active torsions:
  status: ('A' for Active; 'I' for Inactive)
    1  A    between atoms: C_2  and  C_8
    2  A    between atoms: C_13  and  P_23
                            x       y       z     vdW  Elec       q    Type
                         _______ _______ _______ _____ _____    ______ ____

>  <TORSDO>
F 2

$$$$
=
 OpenBabel11072408493D

 26 30  0  0  1  0  0  0  0  0999 V2000
  187.6630  176.9010  144.5540 C   0  0  1  0  0  0  0  0  0  0  0  0
  192.3960  174.6740  144.5380 O   0  0  0  0  0  0  0  0  0  0  0  0
  187.5770  176.1620  143.3730 O   0  0  0  0  0  1  0  0  0  0  0  0
  193.6780  176.4570  145.2710 O   0  0  0  0  0  1  0  0  0  0  0  0
  190.4860  176.3950  143.4260 O   0  0  0  0  0  0  0  0  0  0  0  0
  189.0690  177.3560  146.7190 C   0  0  0  0  0  2  0  0  0  0  0  0
  190.1720  176.1550  144.7690 C   0  0  1  0  0  3  0  0  0  0  0  0
  190.6700  176.7340  147.3460 S   0  0  0  0  0  0  0  0  0  0  0  0
  192.8440  176.0390  142.3220 O   0  0  0  0  0  0  0  0  0  0  0  0
  191.3060  176.6260  145.6480 C   0  0  1  0  0  3  0  0  0  0  0  0
  192.5260  175.7040  145.5080 C   0  0  1  0  0  3  0  0  0  0  0  0
  188.9580  176.9090  145.2730 C   0  0  1  0  0  0  0  0  0  0  0  0
  191.7550  175.3130  143.0800 P   0  0  1  0  0  0  0  0  0  0  0  0
  188.5720  177.9720  144.4280 O   0  0  0  0  0  0  0  0  0  0  0  0
  184.6010  178.3460  145.8360 C   0  0  0  0  0  0  0  0  0  0  0  0
  183.6240  179.2740  145.9770 F   0  0  0  0  0  0  0  0  0  0  0  0
  186.3910  177.3020  145.2290 C   0  0  0  0  0  0  0  0  0  0  0  0
  184.6020  177.1900  146.4570 O   0  0  0  0  0  0  0  0  0  0  0  0
  185.7090  178.4860  145.0270 C   0  0  0  0  0  3  0  0  0  0  0  0
  185.6740  176.5180  146.1120 C   0  0  0  0  0  3  0  0  0  0  0  0
  191.0230  172.7910  139.9700 C   0  0  0  0  0  3  0  0  0  0  0  0
  189.5840  172.1200  141.8000 C   0  0  0  0  0  3  0  0  0  0  0  0
  190.0380  171.9440  140.4890 C   0  0  0  0  0  3  0  0  0  0  0  0
  191.1130  173.9780  142.0820 C   0  0  0  0  0  0  0  0  0  0  0  0
  190.1180  173.1400  142.5940 C   0  0  0  0  0  3  0  0  0  0  0  0
  191.5560  173.8100  140.7650 C   0  0  0  0  0  3  0  0  0  0  0  0
  1  3  1  6  0  0  0
  1 17  1  0  0  0  0
  1 12  1  0  0  0  0
  2 11  1  0  0  0  0
  6  8  1  0  0  0  0
  7  5  1  6  0  0  0
  7 12  1  0  0  0  0
  7 10  1  0  0  0  0
 10  8  1  1  0  0  0
 11  4  1  6  0  0  0
 11 10  1  0  0  0  0
 12  6  1  1  0  0  0
 13  9  2  6  0  0  0
 13  5  1  0  0  0  0
 13  2  1  0  0  0  0
 14  1  1  0  0  0  0
 14 12  1  0  0  0  0
 15 16  1  0  0  0  0
 15 18  1  0  0  0  0
 17 20  2  0  0  0  0
 19 17  1  0  0  0  0
 19 15  2  0  0  0  0
 20 18  1  0  0  0  0
 21 23  2  0  0  0  0
 21 26  1  0  0  0  0
 22 25  2  0  0  0  0
 23 22  1  0  0  0  0
 24 25  1  0  0  0  0
 24 13  1  0  0  0  0
 26 24  2  0  0  0  0
M  END
>  <MODEL>
5

>  <REMARK>
 VINA RESULT:      -6.9      3.622      7.191
  Name = 
  2 active torsions:
  status: ('A' for Active; 'I' for Inactive)
    1  A    between atoms: C_2  and  C_8
    2  A    between atoms: C_13  and  P_23
                            x       y       z     vdW  Elec       q    Type
                         _______ _______ _______ _____ _____    ______ ____

>  <TORSDO>
F 2

$$$$
=
 OpenBabel11072408493D

 26 30  0  0  1  0  0  0  0  0999 V2000
  187.6490  177.0000  144.9320 C   0  0  1  0  0  0  0  0  0  0  0  0
  191.6410  174.7670  142.3940 O   0  0  0  0  0  0  0  0  0  0  0  0
  188.6760  177.2270  145.8500 O   0  0  0  0  0  1  0  0  0  0  0  0
  190.5780  172.8910  141.5500 O   0  0  0  0  0  1  0  0  0  0  0  0
  189.8730  174.8970  144.5630 O   0  0  0  0  0  0  0  0  0  0  0  0
  187.0590  176.1840  142.5130 C   0  0  0  0  0  2  0  0  0  0  0  0
  189.3370  175.6060  143.4810 C   0  0  1  0  0  3  0  0  0  0  0  0
  188.0410  175.5010  141.1290 S   0  0  0  0  0  0  0  0  0  0  0  0
  191.7470  173.0620  144.4090 O   0  0  0  0  0  0  0  0  0  0  0  0
  189.1480  174.6750  142.3070 C   0  0  1  0  0  3  0  0  0  0  0  0
  190.5020  174.2770  141.7010 C   0  0  1  0  0  3  0  0  0  0  0  0
  187.9610  176.1880  143.7330 C   0  0  1  0  0  0  0  0  0  0  0  0
  191.4600  174.5100  144.0820 P   0  0  1  0  0  0  0  0  0  0  0  0
  187.3180  175.6310  144.8590 O   0  0  0  0  0  0  0  0  0  0  0  0
  184.5200  178.7430  145.4560 C   0  0  0  0  0  0  0  0  0  0  0  0
  183.2730  178.9450  145.9430 F   0  0  0  0  0  0  0  0  0  0  0  0
  186.4440  177.8820  144.9890 C   0  0  0  0  0  0  0  0  0  0  0  0
  185.1560  179.6070  144.7010 O   0  0  0  0  0  0  0  0  0  0  0  0
  185.2840  177.6180  145.6900 C   0  0  0  0  0  3  0  0  0  0  0  0
  186.3370  179.1250  144.3970 C   0  0  0  0  0  3  0  0  0  0  0  0
  194.6660  176.8290  145.0360 C   0  0  0  0  0  3  0  0  0  0  0  0
  193.2850  176.6550  147.0180 C   0  0  0  0  0  3  0  0  0  0  0  0
  194.4300  177.1390  146.3800 C   0  0  0  0  0  3  0  0  0  0  0  0
  192.6000  175.5650  144.9650 C   0  0  0  0  0  0  0  0  0  0  0  0
  192.3730  175.8630  146.3120 C   0  0  0  0  0  3  0  0  0  0  0  0
  193.7540  176.0390  144.3310 C   0  0  0  0  0  3  0  0  0  0  0  0
  1 17  1  0  0  0  0
  1  3  1  1  0  0  0
  2 13  1  0  0  0  0
  7 12  1  0  0  0  0
  7  5  1  1  0  0  0
  8  6  1  0  0  0  0
 10  8  1  6  0  0  0
 10  7  1  0  0  0  0
 11  4  1  1  0  0  0
 11 10  1  0  0  0  0
 11  2  1  0  0  0  0
 12  6  1  6  0  0  0
 12 14  1  0  0  0  0
 12  1  1  0  0  0  0
 13  9  2  1  0  0  0
 13  5  1  0  0  0  0
 13 24  1  0  0  0  0
 14  1  1  0  0  0  0
 15 19  2  0  0  0  0
 15 16  1  0  0  0  0
 17 19  1  0  0  0  0
 18 15  1  0  0  0  0
 20 18  1  0  0  0  0
 20 17  2  0  0  0  0
 21 23  1  0  0  0  0
 23 22  2  0  0  0  0
 24 25  2  0  0  0  0
 25 22  1  0  0  0  0
 26 24  1  0  0  0  0
 26 21  2  0  0  0  0
M  END
>  <MODEL>
6

>  <REMARK>
 VINA RESULT:      -6.9      3.362      6.854
  Name = 
  2 active torsions:
  status: ('A' for Active; 'I' for Inactive)
    1  A    between atoms: C_2  and  C_8
    2  A    between atoms: C_13  and  P_23
                            x       y       z     vdW  Elec       q    Type
                         _______ _______ _______ _____ _____    ______ ____

>  <TORSDO>
F 2

$$$$
=
 OpenBabel11072408493D

 26 30  0  0  1  0  0  0  0  0999 V2000
  188.1590  176.7630  144.6440 C   0  0  1  0  0  0  0  0  0  0  0  0
  192.5860  174.1260  145.5400 O   0  0  0  0  0  0  0  0  0  0  0  0
  188.1180  175.8580  143.5830 O   0  0  0  0  0  1  0  0  0  0  0  0
  193.9730  175.8720  146.1570 O   0  0  0  0  0  1  0  0  0  0  0  0
  191.0130  175.8210  143.9600 O   0  0  0  0  0  0  0  0  0  0  0  0
  189.3650  177.4200  146.8770 C   0  0  0  0  0  2  0  0  0  0  0  0
  190.5300  175.8270  145.2750 C   0  0  1  0  0  3  0  0  0  0  0  0
  190.8100  176.7570  147.7810 S   0  0  0  0  0  0  0  0  0  0  0  0
  193.4210  175.0740  143.2210 O   0  0  0  0  0  0  0  0  0  0  0  0
  191.6090  176.3220  146.2090 C   0  0  1  0  0  3  0  0  0  0  0  0
  192.7260  175.2790  146.3570 C   0  0  1  0  0  3  0  0  0  0  0  0
  189.3620  176.7630  145.5090 C   0  0  1  0  0  0  0  0  0  0  0  0
  192.1820  174.5830  143.9360 P   0  0  1  0  0  0  0  0  0  0  0  0
  189.1910  177.7100  144.4760 O   0  0  0  0  0  0  0  0  0  0  0  0
  184.9810  177.7770  146.0510 C   0  0  0  0  0  0  0  0  0  0  0  0
  183.8430  177.6560  146.7750 F   0  0  0  0  0  0  0  0  0  0  0  0
  186.8740  177.3840  145.0910 C   0  0  0  0  0  0  0  0  0  0  0  0
  185.3150  178.8650  145.3980 O   0  0  0  0  0  0  0  0  0  0  0  0
  185.9320  176.7900  145.9080 C   0  0  0  0  0  3  0  0  0  0  0  0
  186.4670  178.6710  144.8010 C   0  0  0  0  0  3  0  0  0  0  0  0
  189.7120  171.5780  142.7360 C   0  0  0  0  0  3  0  0  0  0  0  0
  191.7720  171.3650  141.4810 C   0  0  0  0  0  3  0  0  0  0  0  0
  190.4860  170.9080  141.7830 C   0  0  0  0  0  3  0  0  0  0  0  0
  191.5060  173.1730  143.0720 C   0  0  0  0  0  0  0  0  0  0  0  0
  192.2840  172.4940  142.1300 C   0  0  0  0  0  3  0  0  0  0  0  0
  190.2240  172.7060  143.3830 C   0  0  0  0  0  3  0  0  0  0  0  0
  1  3  1  6  0  0  0
  1 17  1  0  0  0  0
  1 12  1  0  0  0  0
  2 11  1  0  0  0  0
  6  8  1  0  0  0  0
  7  5  1  6  0  0  0
  7 12  1  0  0  0  0
  7 10  1  0  0  0  0
 10 11  1  0  0  0  0
 10  8  1  1  0  0  0
 11  4  1  6  0  0  0
 12  6  1  1  0  0  0
 13  9  2  6  0  0  0
 13  5  1  0  0  0  0
 13  2  1  0  0  0  0
 14  1  1  0  0  0  0
 14 12  1  0  0  0  0
 15 16  1  0  0  0  0
 17 19  1  0  0  0  0
 18 15  1  0  0  0  0
 19 15  2  0  0  0  0
 20 17  2  0  0  0  0
 20 18  1  0  0  0  0
 21 26  1  0  0  0  0
 22 23  1  0  0  0  0
 22 25  2  0  0  0  0
 23 21  2  0  0  0  0
 24 26  2  0  0  0  0
 24 13  1  0  0  0  0
 25 24  1  0  0  0  0
M  END
>  <MODEL>
7

>  <REMARK>
 VINA RESULT:      -6.9      3.651      7.392
  Name = 
  2 active torsions:
  status: ('A' for Active; 'I' for Inactive)
    1  A    between atoms: C_2  and  C_8
    2  A    between atoms: C_13  and  P_23
                            x       y       z     vdW  Elec       q    Type
                         _______ _______ _______ _____ _____    ______ ____

>  <TORSDO>
F 2

$$$$
=
 OpenBabel11072408493D

 26 30  0  0  1  0  0  0  0  0999 V2000
  189.4350  173.8190  142.4160 C   0  0  1  0  0  0  0  0  0  0  0  0
  189.8680  177.5960  146.0090 O   0  0  0  0  0  0  0  0  0  0  0  0
  188.2150  174.4720  142.2280 O   0  0  0  0  0  1  0  0  0  0  0  0
  190.8390  176.3970  147.7340 O   0  0  0  0  0  1  0  0  0  0  0  0
  188.6260  175.2980  144.9970 O   0  0  0  0  0  0  0  0  0  0  0  0
  191.7720  173.9110  143.5980 C   0  0  0  0  0  2  0  0  0  0  0  0
  189.9080  175.4170  144.4460 C   0  0  1  0  0  3  0  0  0  0  0  0
  192.5530  175.0690  144.7790 S   0  0  0  0  0  0  0  0  0  0  0  0
  187.7940  176.4710  147.1960 O   0  0  0  0  0  0  0  0  0  0  0  0
  190.9400  175.3890  145.5490 C   0  0  1  0  0  3  0  0  0  0  0  0
  190.8980  176.6870  146.3700 C   0  0  1  0  0  3  0  0  0  0  0  0
  190.3020  174.2800  143.5250 C   0  0  1  0  0  0  0  0  0  0  0  0
  188.3790  176.7620  145.8320 P   0  0  1  0  0  0  0  0  0  0  0  0
  189.4730  173.1450  143.6550 O   0  0  0  0  0  0  0  0  0  0  0  0
  190.8620  172.3340  139.4400 C   0  0  0  0  0  0  0  0  0  0  0  0
  191.4060  172.3040  138.2000 F   0  0  0  0  0  0  0  0  0  0  0  0
  189.9730  172.9920  141.2940 C   0  0  0  0  0  0  0  0  0  0  0  0
  190.6660  171.2640  140.1740 O   0  0  0  0  0  0  0  0  0  0  0  0
  190.4500  173.4770  140.0910 C   0  0  0  0  0  3  0  0  0  0  0  0
  190.1300  171.6200  141.3170 C   0  0  0  0  0  3  0  0  0  0  0  0
  186.5130  178.6960  142.7740 C   0  0  0  0  0  3  0  0  0  0  0  0
  185.3980  179.3410  144.8250 C   0  0  0  0  0  3  0  0  0  0  0  0
  185.5220  179.4300  143.4360 C   0  0  0  0  0  3  0  0  0  0  0  0
  187.2430  177.7730  144.8930 C   0  0  0  0  0  0  0  0  0  0  0  0
  186.2620  178.5180  145.5540 C   0  0  0  0  0  3  0  0  0  0  0  0
  187.3760  177.8730  143.5030 C   0  0  0  0  0  3  0  0  0  0  0  0
  1  3  1  6  0  0  0
  1 12  1  0  0  0  0
  1 14  1  0  0  0  0
  2 11  1  0  0  0  0
  5 13  1  0  0  0  0
  6  8  1  0  0  0  0
  7  5  1  1  0  0  0
  7 10  1  0  0  0  0
 10  8  1  6  0  0  0
 10 11  1  0  0  0  0
 11  4  1  1  0  0  0
 12  6  1  6  0  0  0
 12 14  1  0  0  0  0
 12  7  1  0  0  0  0
 13  2  1  0  0  0  0
 13  9  2  1  0  0  0
 15 19  2  0  0  0  0
 15 18  1  0  0  0  0
 16 15  1  0  0  0  0
 17 20  2  0  0  0  0
 17  1  1  0  0  0  0
 18 20  1  0  0  0  0
 19 17  1  0  0  0  0
 21 23  2  0  0  0  0
 21 26  1  0  0  0  0
 22 25  2  0  0  0  0
 23 22  1  0  0  0  0
 24 25  1  0  0  0  0
 24 13  1  0  0  0  0
 26 24  2  0  0  0  0
M  END
>  <MODEL>
8

>  <REMARK>
 VINA RESULT:      -6.7      3.355      5.122
  Name = 
  2 active torsions:
  status: ('A' for Active; 'I' for Inactive)
    1  A    between atoms: C_2  and  C_8
    2  A    between atoms: C_13  and  P_23
                            x       y       z     vdW  Elec       q    Type
                         _______ _______ _______ _____ _____    ______ ____

>  <TORSDO>
F 2

$$$$
=
 OpenBabel11072408493D

 26 30  0  0  1  0  0  0  0  0999 V2000
  187.8490  177.0440  144.0780 C   0  0  1  0  0  0  0  0  0  0  0  0
  192.2730  174.2530  144.0790 O   0  0  0  0  0  0  0  0  0  0  0  0
  187.6990  176.3530  142.8740 O   0  0  0  0  0  1  0  0  0  0  0  0
  193.7480  175.8430  144.8870 O   0  0  0  0  0  1  0  0  0  0  0  0
  190.6130  176.2260  142.9850 O   0  0  0  0  0  0  0  0  0  0  0  0
  189.2540  177.2620  146.2800 C   0  0  0  0  0  2  0  0  0  0  0  0
  190.2430  175.9890  144.3150 C   0  0  1  0  0  3  0  0  0  0  0  0
  190.7540  176.4310  146.9160 S   0  0  0  0  0  0  0  0  0  0  0  0
  192.9320  175.6130  141.9120 O   0  0  0  0  0  0  0  0  0  0  0  0
  191.4070  176.2930  145.2270 C   0  0  1  0  0  3  0  0  0  0  0  0
  192.5090  175.2320  145.0810 C   0  0  1  0  0  3  0  0  0  0  0  0
  189.1200  176.8730  144.8190 C   0  0  1  0  0  0  0  0  0  0  0  0
  191.7460  175.0060  142.6290 P   0  0  1  0  0  0  0  0  0  0  0  0
  188.8850  177.9980  143.9990 O   0  0  0  0  0  0  0  0  0  0  0  0
  184.8440  177.8100  145.9460 C   0  0  0  0  0  0  0  0  0  0  0  0
  183.7920  177.5730  146.7640 F   0  0  0  0  0  0  0  0  0  0  0  0
  186.6220  177.5790  144.7420 C   0  0  0  0  0  0  0  0  0  0  0  0
  185.1070  178.9820  145.4180 O   0  0  0  0  0  0  0  0  0  0  0  0
  185.7730  176.8640  145.5650 C   0  0  0  0  0  3  0  0  0  0  0  0
  186.1880  178.8880  144.6800 C   0  0  0  0  0  3  0  0  0  0  0  0
  191.0480  171.6710  140.4020 C   0  0  0  0  0  3  0  0  0  0  0  0
  189.1160  173.1120  140.1710 C   0  0  0  0  0  3  0  0  0  0  0  0
  189.7840  171.9240  139.8600 C   0  0  0  0  0  3  0  0  0  0  0  0
  190.9680  173.7880  141.5800 C   0  0  0  0  0  0  0  0  0  0  0  0
  189.7100  174.0460  141.0250 C   0  0  0  0  0  3  0  0  0  0  0  0
  191.6410  172.6040  141.2570 C   0  0  0  0  0  3  0  0  0  0  0  0
  1  3  1  6  0  0  0
  1 17  1  0  0  0  0
  1 12  1  0  0  0  0
  2 11  1  0  0  0  0
  6  8  1  0  0  0  0
  7  5  1  6  0  0  0
  7 12  1  0  0  0  0
  7 10  1  0  0  0  0
 10  8  1  1  0  0  0
 11  4  1  6  0  0  0
 11 10  1  0  0  0  0
 12  6  1  1  0  0  0
 13  9  2  6  0  0  0
 13  5  1  0  0  0  0
 13  2  1  0  0  0  0
 14  1  1  0  0  0  0
 14 12  1  0  0  0  0
 15 16  1  0  0  0  0
 17 19  1  0  0  0  0
 18 15  1  0  0  0  0
 19 15  2  0  0  0  0
 20 17  2  0  0  0  0
 20 18  1  0  0  0  0
 21 26  1  0  0  0  0
 22 25  2  0  0  0  0
 23 22  1  0  0  0  0
 23 21  2  0  0  0  0
 24 13  1  0  0  0  0
 25 24  1  0  0  0  0
 26 24  2  0  0  0  0
M  END
>  <MODEL>
9

>  <REMARK>
 VINA RESULT:      -6.7      3.573      7.172
  Name = 
  2 active torsions:
  status: ('A' for Active; 'I' for Inactive)
    1  A    between atoms: C_2  and  C_8
    2  A    between atoms: C_13  and  P_23
                            x       y       z     vdW  Elec       q    Type
                         _______ _______ _______ _____ _____    ______ ____

>  <TORSDO>
F 2

$$$$
