=
 OpenBabel11062420173D

 25 28  0  0  1  0  0  0  0  0999 V2000
  185.8140  177.8200  143.1650 C   0  0  0  0  0  0  0  0  0  0  0  0
  186.6490  176.7310  146.5820 C   0  0  0  0  0  0  0  0  0  0  0  0
  188.5410  177.2920  143.5850 C   0  0  0  0  0  0  0  0  0  0  0  0
  184.4520  178.0750  142.6350 C   0  0  0  0  0  2  0  0  0  0  0  0
  189.1560  176.2010  146.1650 C   0  0  0  0  0  0  0  0  0  0  0  0
  186.0210  178.2260  140.9480 N   0  0  0  0  0  0  0  0  0  0  0  0
  187.6070  177.2720  144.6250 C   0  0  0  0  0  0  0  0  0  0  0  0
  190.1120  176.1900  145.1360 O   0  0  0  0  0  0  0  0  0  0  0  0
  187.9080  176.8400  145.9200 N   0  0  0  0  0  0  0  0  0  0  0  0
  189.9940  176.9870  143.9330 C   0  0  1  0  0  3  0  0  0  0  0  0
  186.2590  177.4930  144.4420 C   0  0  0  0  0  0  0  0  0  0  0  0
  184.6360  178.3510  141.1920 N   0  0  0  0  0  0  0  0  0  0  0  0
  185.5030  177.1920  145.7080 C   0  0  2  0  0  3  0  0  0  0  0  0
  186.7010  177.9120  142.1370 C   0  0  0  0  0  0  0  0  0  0  0  0
  189.3840  175.6170  147.2560 O   0  0  0  0  0  0  0  0  0  0  0  0
  188.0770  177.6530  142.2950 C   0  0  0  0  0  3  0  0  0  0  0  0
  186.5170  176.2660  147.7450 O   0  0  0  0  0  0  0  0  0  0  0  0
  183.7070  178.7210  145.9780 O   0  0  0  0  0  0  0  0  0  0  0  0
  185.6400  179.3150  147.1690 C   0  0  0  0  0  1  0  0  0  0  0  0
  184.8600  178.4310  146.2600 C   0  0  0  0  0  0  0  0  0  0  0  0
  192.2440  176.6810  142.8780 C   0  0  0  0  0  1  0  0  0  0  0  0
  190.7660  176.3360  142.7750 C   0  0  1  0  0  3  0  0  0  0  0  0
  190.6170  174.8170  142.7920 C   0  0  0  0  0  2  0  0  0  0  0  0
  188.4530  174.0610  142.1070 O   0  0  0  0  0  1  0  0  0  0  0  0
  189.7400  174.3390  141.6460 C   0  0  0  0  0  2  0  0  0  0  0  0
  1 11  1  0  0  0  0
  2 17  2  0  0  0  0
  3 10  1  0  0  0  0
  3  7  1  0  0  0  0
  4  1  1  0  0  0  0
  5 15  2  0  0  0  0
  6 12  2  0  0  0  0
  6 14  1  0  0  0  0
  7  9  1  0  0  0  0
  8  5  1  0  0  0  0
  9  5  1  0  0  0  0
  9  2  1  0  0  0  0
 10 22  1  6  0  0  0
 10  8  1  0  0  0  0
 11  7  2  0  0  0  0
 11 13  1  0  0  0  0
 12  4  1  0  0  0  0
 13 20  1  1  0  0  0
 13  2  1  0  0  0  0
 14 16  1  0  0  0  0
 14  1  2  0  0  0  0
 16  3  2  0  0  0  0
 18 20  2  0  0  0  0
 20 19  1  0  0  0  0
 22 23  1  0  0  0  0
 22 21  1  1  0  0  0
 25 24  1  0  0  0  0
 25 23  1  0  0  0  0
M  END
>  <MODEL>
1

>  <REMARK>
 VINA RESULT:      -7.1      0.000      0.000
  Name = 
  4 active torsions:
  status: ('A' for Active; 'I' for Inactive)
    1  A    between atoms: C_2  and  C_20
    2  A    between atoms: C_2  and  C_24
    3  A    between atoms: C_15  and  C_24
    4  A    between atoms: C_18  and  C_21
                            x       y       z     vdW  Elec       q    Type
                         _______ _______ _______ _____ _____    ______ ____

>  <TORSDO>
F 4

$$$$
=
 OpenBabel11062420173D

 25 28  0  0  1  0  0  0  0  0999 V2000
  186.4700  178.0200  145.8070 C   0  0  0  0  0  0  0  0  0  0  0  0
  188.3020  177.9930  142.6130 C   0  0  0  0  0  0  0  0  0  0  0  0
  189.0230  176.8550  145.9380 C   0  0  0  0  0  0  0  0  0  0  0  0
  185.1490  178.6500  146.0540 C   0  0  0  0  0  3  0  0  0  0  0  0
  190.5500  177.0630  143.5200 C   0  0  0  0  0  0  0  0  0  0  0  0
  186.0550  177.8590  148.0250 N   0  0  0  0  0  0  0  0  0  0  0  0
  188.4500  177.2640  144.7300 C   0  0  0  0  0  0  0  0  0  0  0  0
  191.1600  176.6640  144.7200 O   0  0  0  0  0  0  0  0  0  0  0  0
  189.1430  177.2780  143.5170 N   0  0  0  0  0  0  0  0  0  0  0  0
  190.4160  176.2370  145.8860 C   0  0  1  0  0  3  0  0  0  0  0  0
  187.2150  177.8700  144.6410 C   0  0  0  0  0  0  0  0  0  0  0  0
  184.9120  178.5080  147.5080 N   0  0  0  0  0  0  0  0  0  0  0  0
  186.9820  178.3790  143.2440 C   0  0  2  0  0  3  0  0  0  0  0  0
  186.9660  177.5770  146.9940 C   0  0  0  0  0  0  0  0  0  0  0  0
  191.2400  177.2690  142.4880 O   0  0  0  0  0  0  0  0  0  0  0  0
  188.2410  176.9900  147.1130 C   0  0  0  0  0  2  0  0  0  0  0  0
  188.6480  178.2970  141.4400 O   0  0  0  0  0  0  0  0  0  0  0  0
  185.6390  176.4720  142.7990 O   0  0  0  0  0  0  0  0  0  0  0  0
  184.9250  178.4100  141.6840 C   0  0  0  0  0  1  0  0  0  0  0  0
  185.8360  177.6600  142.5920 C   0  0  0  0  0  0  0  0  0  0  0  0
  191.1280  175.2730  148.0840 C   0  0  0  0  0  1  0  0  0  0  0  0
  191.2300  176.4820  147.1670 C   0  0  1  0  0  3  0  0  0  0  0  0
  192.7020  176.7300  146.8500 C   0  0  0  0  0  2  0  0  0  0  0  0
  194.8020  175.6430  146.4890 O   0  0  0  0  0  1  0  0  0  0  0  0
  193.4250  175.4290  146.5410 C   0  0  0  0  0  2  0  0  0  0  0  0
  1  4  1  0  0  0  0
  1 14  1  0  0  0  0
  2 13  1  0  0  0  0
  2  9  1  0  0  0  0
  3 16  1  0  0  0  0
  4 12  2  0  0  0  0
  5  8  1  0  0  0  0
  7  3  2  0  0  0  0
  8 10  1  0  0  0  0
  9  5  1  0  0  0  0
  9  7  1  0  0  0  0
 10  3  1  0  0  0  0
 10 22  1  1  0  0  0
 11  7  1  0  0  0  0
 11  1  2  0  0  0  0
 12  6  1  0  0  0  0
 13 20  1  6  0  0  0
 13 11  1  0  0  0  0
 14 16  1  0  0  0  0
 14  6  2  0  0  0  0
 15  5  2  0  0  0  0
 17  2  2  0  0  0  0
 19 20  1  0  0  0  0
 20 18  2  0  0  0  0
 22 21  1  1  0  0  0
 23 22  1  0  0  0  0
 24 25  1  0  0  0  0
 25 23  1  0  0  0  0
M  END
>  <MODEL>
2

>  <REMARK>
 VINA RESULT:      -6.8      2.493      4.631
  Name = 
  4 active torsions:
  status: ('A' for Active; 'I' for Inactive)
    1  A    between atoms: C_2  and  C_20
    2  A    between atoms: C_2  and  C_24
    3  A    between atoms: C_15  and  C_24
    4  A    between atoms: C_18  and  C_21
                            x       y       z     vdW  Elec       q    Type
                         _______ _______ _______ _____ _____    ______ ____

>  <TORSDO>
F 4

$$$$
=
 OpenBabel11062420173D

 25 28  0  0  1  0  0  0  0  0999 V2000
  185.8590  177.5200  142.3700 C   0  0  0  0  0  0  0  0  0  0  0  0
  186.1660  176.8500  145.9780 C   0  0  0  0  0  0  0  0  0  0  0  0
  188.3870  176.5930  143.1730 C   0  0  0  0  0  0  0  0  0  0  0  0
  184.6230  177.9250  141.6560 C   0  0  0  0  0  2  0  0  0  0  0  0
  188.5520  175.8280  145.9310 C   0  0  0  0  0  0  0  0  0  0  0  0
  186.3360  177.5310  140.1580 N   0  0  0  0  0  0  0  0  0  0  0  0
  187.3780  176.9010  144.0900 C   0  0  0  0  0  0  0  0  0  0  0  0
  189.5750  175.4880  145.0320 O   0  0  0  0  0  0  0  0  0  0  0  0
  187.4760  176.6310  145.4580 N   0  0  0  0  0  0  0  0  0  0  0  0
  189.7180  176.0950  143.7250 C   0  0  1  0  0  3  0  0  0  0  0  0
  186.1190  177.3240  143.7240 C   0  0  0  0  0  0  0  0  0  0  0  0
  184.9840  177.9350  140.2200 N   0  0  0  0  0  0  0  0  0  0  0  0
  185.2100  177.3620  144.9220 C   0  0  2  0  0  3  0  0  0  0  0  0
  186.8350  177.2930  141.4500 C   0  0  0  0  0  0  0  0  0  0  0  0
  188.5660  175.3910  147.1110 O   0  0  0  0  0  0  0  0  0  0  0  0
  188.1160  176.8240  141.8000 C   0  0  0  0  0  3  0  0  0  0  0  0
  185.8440  176.6030  147.1710 O   0  0  0  0  0  0  0  0  0  0  0  0
  183.7810  178.9840  145.9070 O   0  0  0  0  0  0  0  0  0  0  0  0
  185.5540  179.9090  144.6780 C   0  0  0  0  0  1  0  0  0  0  0  0
  184.7700  178.7670  145.2210 C   0  0  0  0  0  0  0  0  0  0  0  0
  191.9490  175.2010  143.0230 C   0  0  0  0  0  1  0  0  0  0  0  0
  190.4510  175.1450  142.7650 C   0  0  1  0  0  3  0  0  0  0  0  0
  189.9790  173.7050  142.9400 C   0  0  0  0  0  2  0  0  0  0  0  0
  190.7820  172.1400  144.5620 O   0  0  0  0  0  1  0  0  0  0  0  0
  191.1210  172.8030  143.3820 C   0  0  0  0  0  2  0  0  0  0  0  0
  1 11  1  0  0  0  0
  2 17  2  0  0  0  0
  3 10  1  0  0  0  0
  3  7  1  0  0  0  0
  4  1  1  0  0  0  0
  5 15  2  0  0  0  0
  6 12  2  0  0  0  0
  6 14  1  0  0  0  0
  7  9  1  0  0  0  0
  8  5  1  0  0  0  0
  9  5  1  0  0  0  0
  9  2  1  0  0  0  0
 10 22  1  6  0  0  0
 10  8  1  0  0  0  0
 11  7  2  0  0  0  0
 11 13  1  0  0  0  0
 12  4  1  0  0  0  0
 13 20  1  1  0  0  0
 13  2  1  0  0  0  0
 14 16  1  0  0  0  0
 14  1  2  0  0  0  0
 16  3  2  0  0  0  0
 19 20  1  0  0  0  0
 20 18  2  0  0  0  0
 22 23  1  0  0  0  0
 22 21  1  1  0  0  0
 23 25  1  0  0  0  0
 25 24  1  0  0  0  0
M  END
>  <MODEL>
3

>  <REMARK>
 VINA RESULT:      -6.7      1.318      1.402
  Name = 
  4 active torsions:
  status: ('A' for Active; 'I' for Inactive)
    1  A    between atoms: C_2  and  C_20
    2  A    between atoms: C_2  and  C_24
    3  A    between atoms: C_15  and  C_24
    4  A    between atoms: C_18  and  C_21
                            x       y       z     vdW  Elec       q    Type
                         _______ _______ _______ _____ _____    ______ ____

>  <TORSDO>
F 4

$$$$
=
 OpenBabel11062420173D

 25 28  0  0  1  0  0  0  0  0999 V2000
  190.8080  175.9290  145.6600 C   0  0  0  0  0  0  0  0  0  0  0  0
  190.1630  174.8590  142.1950 C   0  0  0  0  0  0  0  0  0  0  0  0
  188.7180  177.3070  144.3840 C   0  0  0  0  0  0  0  0  0  0  0  0
  191.7800  175.3180  146.5980 C   0  0  0  0  0  3  0  0  0  0  0  0
  188.0460  176.3040  141.7830 C   0  0  0  0  0  0  0  0  0  0  0  0
  190.5160  176.9260  147.6700 N   0  0  0  0  0  0  0  0  0  0  0  0
  189.5290  176.3900  143.7100 C   0  0  0  0  0  0  0  0  0  0  0  0
  187.2010  177.2140  142.4400 O   0  0  0  0  0  0  0  0  0  0  0  0
  189.2810  175.9610  142.4030 N   0  0  0  0  0  0  0  0  0  0  0  0
  187.6130  177.9940  143.5890 C   0  0  1  0  0  3  0  0  0  0  0  0
  190.5370  175.6740  144.3180 C   0  0  0  0  0  0  0  0  0  0  0  0
  191.5670  176.0080  147.8910 N   0  0  0  0  0  0  0  0  0  0  0  0
  191.0730  174.6250  143.3820 C   0  0  2  0  0  3  0  0  0  0  0  0
  190.0830  176.8620  146.3350 C   0  0  0  0  0  0  0  0  0  0  0  0
  187.6950  175.7740  140.6980 O   0  0  0  0  0  0  0  0  0  0  0  0
  189.0230  177.5760  145.7420 C   0  0  0  0  0  2  0  0  0  0  0  0
  190.1480  174.1470  141.1570 O   0  0  0  0  0  0  0  0  0  0  0  0
  192.8250  175.9070  142.4190 O   0  0  0  0  0  0  0  0  0  0  0  0
  193.5560  173.9220  143.4370 C   0  0  0  0  0  1  0  0  0  0  0  0
  192.5070  174.8960  143.0300 C   0  0  0  0  0  0  0  0  0  0  0  0
  185.5580  179.4170  143.7310 C   0  0  0  0  0  1  0  0  0  0  0  0
  186.3980  178.3720  144.4490 C   0  0  1  0  0  3  0  0  0  0  0  0
  185.5220  177.1560  144.7390 C   0  0  0  0  0  2  0  0  0  0  0  0
  184.1010  177.9020  146.5130 O   0  0  0  0  0  1  0  0  0  0  0  0
  185.1780  177.0670  146.2170 C   0  0  0  0  0  2  0  0  0  0  0  0
  1 14  1  0  0  0  0
  1  4  1  0  0  0  0
  2  9  1  0  0  0  0
  2 13  1  0  0  0  0
  3 16  1  0  0  0  0
  4 12  2  0  0  0  0
  5  9  1  0  0  0  0
  5  8  1  0  0  0  0
  6 12  1  0  0  0  0
  7 11  1  0  0  0  0
  7  3  2  0  0  0  0
  8 10  1  0  0  0  0
  9  7  1  0  0  0  0
 10  3  1  0  0  0  0
 10 22  1  1  0  0  0
 11  1  2  0  0  0  0
 13 20  1  6  0  0  0
 13 11  1  0  0  0  0
 14  6  2  0  0  0  0
 15  5  2  0  0  0  0
 16 14  1  0  0  0  0
 17  2  2  0  0  0  0
 18 20  2  0  0  0  0
 20 19  1  0  0  0  0
 22 21  1  6  0  0  0
 22 23  1  0  0  0  0
 23 25  1  0  0  0  0
 25 24  1  0  0  0  0
M  END
>  <MODEL>
4

>  <REMARK>
 VINA RESULT:      -6.5      2.456      6.631
  Name = 
  4 active torsions:
  status: ('A' for Active; 'I' for Inactive)
    1  A    between atoms: C_2  and  C_20
    2  A    between atoms: C_2  and  C_24
    3  A    between atoms: C_15  and  C_24
    4  A    between atoms: C_18  and  C_21
                            x       y       z     vdW  Elec       q    Type
                         _______ _______ _______ _____ _____    ______ ____

>  <TORSDO>
F 4

$$$$
=
 OpenBabel11062420173D

 25 28  0  0  1  0  0  0  0  0999 V2000
  186.7410  177.5160  146.1730 C   0  0  0  0  0  0  0  0  0  0  0  0
  189.1480  175.1920  144.6340 C   0  0  0  0  0  0  0  0  0  0  0  0
  187.0700  177.8440  143.4020 C   0  0  0  0  0  0  0  0  0  0  0  0
  186.3010  177.5110  147.5900 C   0  0  0  0  0  2  0  0  0  0  0  0
  188.7450  175.8750  142.1620 C   0  0  0  0  0  0  0  0  0  0  0  0
  185.0910  179.0520  146.3690 N   0  0  0  0  0  0  0  0  0  0  0  0
  187.8570  176.9630  144.1490 C   0  0  0  0  0  0  0  0  0  0  0  0
  187.9530  176.7340  141.3840 O   0  0  0  0  0  0  0  0  0  0  0  0
  188.7580  176.0620  143.5730 N   0  0  0  0  0  0  0  0  0  0  0  0
  187.3370  177.9370  141.9040 C   0  0  1  0  0  3  0  0  0  0  0  0
  187.6940  176.7560  145.5020 C   0  0  0  0  0  0  0  0  0  0  0  0
  185.2380  178.5370  147.6760 N   0  0  0  0  0  0  0  0  0  0  0  0
  188.5430  175.6010  145.9600 C   0  0  2  0  0  3  0  0  0  0  0  0
  185.9980  178.4310  145.4940 C   0  0  0  0  0  0  0  0  0  0  0  0
  189.3860  174.9340  141.6260 O   0  0  0  0  0  0  0  0  0  0  0  0
  186.1210  178.6300  144.1050 C   0  0  0  0  0  3  0  0  0  0  0  0
  189.8800  174.1810  144.4670 O   0  0  0  0  0  0  0  0  0  0  0  0
  190.1150  175.2730  147.7090 O   0  0  0  0  0  0  0  0  0  0  0  0
  190.0280  177.4820  146.9190 C   0  0  0  0  0  1  0  0  0  0  0  0
  189.6000  176.0560  146.9240 C   0  0  0  0  0  0  0  0  0  0  0  0
  186.1270  177.6030  139.7390 C   0  0  0  0  0  1  0  0  0  0  0  0
  186.0850  178.2990  141.0900 C   0  0  1  0  0  3  0  0  0  0  0  0
  184.8100  177.8810  141.8160 C   0  0  0  0  0  2  0  0  0  0  0  0
  182.4680  178.3630  141.7310 O   0  0  0  0  0  1  0  0  0  0  0  0
  183.5850  178.0920  140.9400 C   0  0  0  0  0  2  0  0  0  0  0  0
  1  4  1  0  0  0  0
  2 13  1  0  0  0  0
  3 16  2  0  0  0  0
  3  7  1  0  0  0  0
  4 12  1  0  0  0  0
  5  9  1  0  0  0  0
  6 12  2  0  0  0  0
  7 11  2  0  0  0  0
  8 10  1  0  0  0  0
  8  5  1  0  0  0  0
  9  7  1  0  0  0  0
  9  2  1  0  0  0  0
 10 22  1  6  0  0  0
 10  3  1  0  0  0  0
 11 13  1  0  0  0  0
 11  1  1  0  0  0  0
 13 20  1  1  0  0  0
 14  1  2  0  0  0  0
 14  6  1  0  0  0  0
 15  5  2  0  0  0  0
 16 14  1  0  0  0  0
 17  2  2  0  0  0  0
 19 20  1  0  0  0  0
 20 18  2  0  0  0  0
 22 21  1  6  0  0  0
 22 23  1  0  0  0  0
 25 24  1  0  0  0  0
 25 23  1  0  0  0  0
M  END
>  <MODEL>
5

>  <REMARK>
 VINA RESULT:      -6.4      2.374      4.941
  Name = 
  4 active torsions:
  status: ('A' for Active; 'I' for Inactive)
    1  A    between atoms: C_2  and  C_20
    2  A    between atoms: C_2  and  C_24
    3  A    between atoms: C_15  and  C_24
    4  A    between atoms: C_18  and  C_21
                            x       y       z     vdW  Elec       q    Type
                         _______ _______ _______ _____ _____    ______ ____

>  <TORSDO>
F 4

$$$$
=
 OpenBabel11062420173D

 25 28  0  0  1  0  0  0  0  0999 V2000
  189.3630  174.4190  141.9660 C   0  0  0  0  0  0  0  0  0  0  0  0
  190.0810  175.0920  145.5140 C   0  0  0  0  0  0  0  0  0  0  0  0
  187.5200  176.1250  143.2240 C   0  0  0  0  0  0  0  0  0  0  0  0
  190.2110  173.6350  141.0340 C   0  0  0  0  0  3  0  0  0  0  0  0
  188.2160  176.8550  145.9080 C   0  0  0  0  0  0  0  0  0  0  0  0
  188.4450  174.6050  139.9060 N   0  0  0  0  0  0  0  0  0  0  0  0
  188.5430  175.4820  143.9270 C   0  0  0  0  0  0  0  0  0  0  0  0
  187.1940  177.5320  145.2240 O   0  0  0  0  0  0  0  0  0  0  0  0
  188.8370  175.7460  145.2670 N   0  0  0  0  0  0  0  0  0  0  0  0
  186.5800  177.0300  144.0130 C   0  0  1  0  0  3  0  0  0  0  0  0
  189.4810  174.6680  143.3300 C   0  0  0  0  0  0  0  0  0  0  0  0
  189.5670  173.7710  139.7070 N   0  0  0  0  0  0  0  0  0  0  0  0
  190.5620  174.3070  144.3130 C   0  0  2  0  0  3  0  0  0  0  0  0
  188.3430  174.9750  141.2580 C   0  0  2  0  0  3  0  0  0  0  0  0
  188.6010  177.2510  147.0380 O   0  0  0  0  0  0  0  0  0  0  0  0
  187.3960  175.8400  141.8400 C   0  0  0  0  0  3  0  0  0  0  0  0
  190.7150  175.1970  146.5970 O   0  0  0  0  0  0  0  0  0  0  0  0
  189.5920  172.2810  145.0850 O   0  0  0  0  0  0  0  0  0  0  0  0
  191.7740  172.0290  144.2600 C   0  0  0  0  0  1  0  0  0  0  0  0
  190.5660  172.8320  144.5920 C   0  0  0  0  0  0  0  0  0  0  0  0
  184.7220  177.7530  142.4980 C   0  0  0  0  0  1  0  0  0  0  0  0
  186.0140  178.1870  143.1740 C   0  0  1  0  0  3  0  0  0  0  0  0
  185.7250  179.4110  144.0380 C   0  0  0  0  0  2  0  0  0  0  0  0
  184.2040  179.0540  145.8510 O   0  0  0  0  0  1  0  0  0  0  0  0
  184.2790  179.4230  144.5070 C   0  0  0  0  0  2  0  0  0  0  0  0
  1 11  1  0  0  0  0
  2 17  2  0  0  0  0
  3  7  1  0  0  0  0
  3 10  1  0  0  0  0
  4  1  2  0  0  0  0
  5 15  2  0  0  0  0
  6 14  1  0  0  0  0
  7  9  1  0  0  0  0
  8  5  1  0  0  0  0
  9  2  1  0  0  0  0
  9  5  1  0  0  0  0
 10 22  1  6  0  0  0
 10  8  1  0  0  0  0
 11  7  2  0  0  0  0
 11 13  1  0  0  0  0
 12  6  2  0  0  0  0
 12  4  1  0  0  0  0
 13 20  1  1  0  0  0
 13  2  1  0  0  0  0
 14 16  1  6  0  0  0
 14  1  1  0  0  0  0
 16  3  2  0  0  0  0
 19 20  1  0  0  0  0
 20 18  2  0  0  0  0
 22 21  1  1  0  0  0
 22 23  1  0  0  0  0
 23 25  1  0  0  0  0
 25 24  1  0  0  0  0
M  END
>  <MODEL>
6

>  <REMARK>
 VINA RESULT:      -6.4      2.308      5.609
  Name = 
  4 active torsions:
  status: ('A' for Active; 'I' for Inactive)
    1  A    between atoms: C_2  and  C_20
    2  A    between atoms: C_2  and  C_24
    3  A    between atoms: C_15  and  C_24
    4  A    between atoms: C_18  and  C_21
                            x       y       z     vdW  Elec       q    Type
                         _______ _______ _______ _____ _____    ______ ____

>  <TORSDO>
F 4

$$$$
=
 OpenBabel11062420173D

 25 28  0  0  1  0  0  0  0  0999 V2000
  189.0620  176.3430  145.6260 C   0  0  0  0  0  0  0  0  0  0  0  0
  186.9290  178.0150  143.1330 C   0  0  0  0  0  0  0  0  0  0  0  0
  188.8540  174.9880  143.1740 C   0  0  0  0  0  0  0  0  0  0  0  0
  189.4260  176.8730  146.9630 C   0  0  0  0  0  3  0  0  0  0  0  0
  187.4060  176.4100  141.1490 C   0  0  0  0  0  0  0  0  0  0  0  0
  190.5730  174.9180  146.5230 N   0  0  0  0  0  0  0  0  0  0  0  0
  188.1000  176.1290  143.4630 C   0  0  0  0  0  0  0  0  0  0  0  0
  188.1670  175.2760  140.8220 O   0  0  0  0  0  0  0  0  0  0  0  0
  187.3050  176.7840  142.5180 N   0  0  0  0  0  0  0  0  0  0  0  0
  188.6580  174.3380  141.8090 C   0  0  1  0  0  3  0  0  0  0  0  0
  188.2080  176.8340  144.6430 C   0  0  0  0  0  0  0  0  0  0  0  0
  190.3990  175.9050  147.5180 N   0  0  0  0  0  0  0  0  0  0  0  0
  187.4300  178.1190  144.5570 C   0  0  2  0  0  3  0  0  0  0  0  0
  189.7650  175.1990  145.4080 C   0  0  0  0  0  0  0  0  0  0  0  0
  186.8690  177.1030  140.2450 O   0  0  0  0  0  0  0  0  0  0  0  0
  189.6990  174.4850  144.1960 C   0  0  0  0  0  2  0  0  0  0  0  0
  186.2890  178.9200  142.5340 O   0  0  0  0  0  0  0  0  0  0  0  0
  185.9520  179.1600  146.0970 O   0  0  0  0  0  0  0  0  0  0  0  0
  185.5640  176.8610  145.8210 C   0  0  0  0  0  1  0  0  0  0  0  0
  186.2920  178.1280  145.5360 C   0  0  0  0  0  0  0  0  0  0  0  0
  189.8690  172.1500  141.6710 C   0  0  0  0  0  1  0  0  0  0  0  0
  189.9190  173.6240  141.2960 C   0  0  1  0  0  3  0  0  0  0  0  0
  190.0440  173.7370  139.7800 C   0  0  0  0  0  2  0  0  0  0  0  0
  188.1930  172.7600  138.6210 O   0  0  0  0  0  1  0  0  0  0  0  0
  189.4820  172.5050  139.0890 C   0  0  0  0  0  2  0  0  0  0  0  0
  1  4  1  0  0  0  0
  2 13  1  0  0  0  0
  3  7  2  0  0  0  0
  3 16  1  0  0  0  0
  4 12  2  0  0  0  0
  5  9  1  0  0  0  0
  6 12  1  0  0  0  0
  7 11  1  0  0  0  0
  8  5  1  0  0  0  0
  8 10  1  0  0  0  0
  9  2  1  0  0  0  0
  9  7  1  0  0  0  0
 10 22  1  6  0  0  0
 10  3  1  0  0  0  0
 11  1  2  0  0  0  0
 13 11  1  0  0  0  0
 13 20  1  1  0  0  0
 14  1  1  0  0  0  0
 14  6  2  0  0  0  0
 15  5  2  0  0  0  0
 16 14  1  0  0  0  0
 17  2  2  0  0  0  0
 20 19  1  0  0  0  0
 20 18  2  0  0  0  0
 22 21  1  6  0  0  0
 23 22  1  0  0  0  0
 24 25  1  0  0  0  0
 25 23  1  0  0  0  0
M  END
>  <MODEL>
7

>  <REMARK>
 VINA RESULT:      -6.3      2.415      4.641
  Name = 
  4 active torsions:
  status: ('A' for Active; 'I' for Inactive)
    1  A    between atoms: C_2  and  C_20
    2  A    between atoms: C_2  and  C_24
    3  A    between atoms: C_15  and  C_24
    4  A    between atoms: C_18  and  C_21
                            x       y       z     vdW  Elec       q    Type
                         _______ _______ _______ _____ _____    ______ ____

>  <TORSDO>
F 4

$$$$
=
 OpenBabel11062420173D

 25 28  0  0  1  0  0  0  0  0999 V2000
  187.0340  176.8560  141.7730 C   0  0  0  0  0  0  0  0  0  0  0  0
  189.6430  175.1710  143.7510 C   0  0  0  0  0  0  0  0  0  0  0  0
  186.5790  176.8600  144.5450 C   0  0  0  0  0  0  0  0  0  0  0  0
  187.0580  177.0870  140.3080 C   0  0  0  0  0  3  0  0  0  0  0  0
  188.7290  175.7770  146.1040 C   0  0  0  0  0  0  0  0  0  0  0  0
  185.2420  178.1420  141.2680 N   0  0  0  0  0  0  0  0  0  0  0  0
  187.6390  176.1580  143.9630 C   0  0  0  0  0  0  0  0  0  0  0  0
  187.6880  176.4920  146.7190 O   0  0  0  0  0  0  0  0  0  0  0  0
  188.6460  175.5330  144.7040 N   0  0  0  0  0  0  0  0  0  0  0  0
  186.4330  176.7900  146.0610 C   0  0  1  0  0  3  0  0  0  0  0  0
  187.9060  176.1670  142.6110 C   0  0  0  0  0  0  0  0  0  0  0  0
  185.8650  177.9150  140.0200 N   0  0  0  0  0  0  0  0  0  0  0  0
  189.2250  175.4970  142.3340 C   0  0  2  0  0  3  0  0  0  0  0  0
  185.9550  177.5000  142.2940 C   0  0  2  0  0  3  0  0  0  0  0  0
  189.7300  175.4060  146.7700 O   0  0  0  0  0  0  0  0  0  0  0  0
  185.6850  177.5350  143.6770 C   0  0  0  0  0  3  0  0  0  0  0  0
  190.7560  174.6740  144.0700 O   0  0  0  0  0  0  0  0  0  0  0  0
  189.6410  174.0850  140.4710 O   0  0  0  0  0  0  0  0  0  0  0  0
  188.1020  173.1960  142.0030 C   0  0  0  0  0  1  0  0  0  0  0  0
  189.0360  174.2490  141.5200 C   0  0  0  0  0  0  0  0  0  0  0  0
  184.2810  177.9880  146.5140 C   0  0  0  0  0  1  0  0  0  0  0  0
  185.7940  178.0520  146.6630 C   0  0  1  0  0  3  0  0  0  0  0  0
  186.1330  178.1940  148.1440 C   0  0  0  0  0  2  0  0  0  0  0  0
  186.3160  180.5670  148.3880 O   0  0  0  0  0  1  0  0  0  0  0  0
  187.0520  179.3820  148.3850 C   0  0  0  0  0  2  0  0  0  0  0  0
  1 14  1  0  0  0  0
  1 11  1  0  0  0  0
  2 17  2  0  0  0  0
  2  9  1  0  0  0  0
  3 10  1  0  0  0  0
  4  1  2  0  0  0  0
  5  8  1  0  0  0  0
  5 15  2  0  0  0  0
  6 14  1  0  0  0  0
  7  3  1  0  0  0  0
  7  9  1  0  0  0  0
  9  5  1  0  0  0  0
 10 22  1  1  0  0  0
 10  8  1  0  0  0  0
 11  7  2  0  0  0  0
 12  4  1  0  0  0  0
 12  6  2  0  0  0  0
 13 20  1  6  0  0  0
 13 11  1  0  0  0  0
 13  2  1  0  0  0  0
 14 16  1  1  0  0  0
 16  3  2  0  0  0  0
 18 20  2  0  0  0  0
 20 19  1  0  0  0  0
 22 21  1  1  0  0  0
 22 23  1  0  0  0  0
 23 25  1  0  0  0  0
 25 24  1  0  0  0  0
M  END
>  <MODEL>
8

>  <REMARK>
 VINA RESULT:      -6.3      1.606      5.353
  Name = 
  4 active torsions:
  status: ('A' for Active; 'I' for Inactive)
    1  A    between atoms: C_2  and  C_20
    2  A    between atoms: C_2  and  C_24
    3  A    between atoms: C_15  and  C_24
    4  A    between atoms: C_18  and  C_21
                            x       y       z     vdW  Elec       q    Type
                         _______ _______ _______ _____ _____    ______ ____

>  <TORSDO>
F 4

$$$$
=
 OpenBabel11062420173D

 25 28  0  0  1  0  0  0  0  0999 V2000
  188.2390  177.3600  143.6410 C   0  0  0  0  0  0  0  0  0  0  0  0
  188.6950  175.6590  146.8750 C   0  0  0  0  0  0  0  0  0  0  0  0
  190.9160  177.0910  144.4480 C   0  0  0  0  0  0  0  0  0  0  0  0
  186.9530  177.5560  142.9280 C   0  0  0  0  0  2  0  0  0  0  0  0
  191.2880  175.5440  146.8340 C   0  0  0  0  0  0  0  0  0  0  0  0
  188.7220  178.2640  141.6230 N   0  0  0  0  0  0  0  0  0  0  0  0
  189.8470  176.7290  145.2730 C   0  0  0  0  0  0  0  0  0  0  0  0
  192.3820  175.8770  146.0190 O   0  0  0  0  0  0  0  0  0  0  0  0
  190.0080  176.0640  146.4920 N   0  0  0  0  0  0  0  0  0  0  0  0
  192.3270  176.8980  144.9930 C   0  0  1  0  0  3  0  0  0  0  0  0
  188.5260  176.8170  144.8900 C   0  0  0  0  0  0  0  0  0  0  0  0
  187.3130  178.1620  141.6260 N   0  0  0  0  0  0  0  0  0  0  0  0
  187.6400  176.1560  145.9100 C   0  0  2  0  0  3  0  0  0  0  0  0
  189.2490  177.7830  142.8330 C   0  0  0  0  0  0  0  0  0  0  0  0
  191.4330  174.7680  147.8140 O   0  0  0  0  0  0  0  0  0  0  0  0
  190.6070  177.6660  143.1900 C   0  0  0  0  0  3  0  0  0  0  0  0
  188.4590  174.9370  147.8800 O   0  0  0  0  0  0  0  0  0  0  0  0
  187.1790  178.0400  147.2800 O   0  0  0  0  0  0  0  0  0  0  0  0
  185.2630  177.0690  146.3340 C   0  0  0  0  0  1  0  0  0  0  0  0
  186.7310  177.1560  146.5650 C   0  0  0  0  0  0  0  0  0  0  0  0
  194.7660  176.6530  144.4820 C   0  0  0  0  0  1  0  0  0  0  0  0
  193.3640  176.6160  143.8940 C   0  0  1  0  0  3  0  0  0  0  0  0
  193.1390  175.2490  143.2550 C   0  0  0  0  0  2  0  0  0  0  0  0
  194.1250  173.1350  143.7890 O   0  0  0  0  0  1  0  0  0  0  0  0
  194.4060  174.4090  143.2950 C   0  0  0  0  0  2  0  0  0  0  0  0
  1 11  1  0  0  0  0
  2 17  2  0  0  0  0
  3 10  1  0  0  0  0
  3  7  1  0  0  0  0
  4  1  1  0  0  0  0
  5 15  2  0  0  0  0
  6 12  2  0  0  0  0
  6 14  1  0  0  0  0
  7  9  1  0  0  0  0
  8  5  1  0  0  0  0
  9  5  1  0  0  0  0
  9  2  1  0  0  0  0
 10 22  1  6  0  0  0
 10  8  1  0  0  0  0
 11  7  2  0  0  0  0
 11 13  1  0  0  0  0
 12  4  1  0  0  0  0
 13 20  1  1  0  0  0
 13  2  1  0  0  0  0
 14 16  1  0  0  0  0
 14  1  2  0  0  0  0
 16  3  2  0  0  0  0
 19 20  1  0  0  0  0
 20 18  2  0  0  0  0
 22 21  1  1  0  0  0
 23 25  1  0  0  0  0
 23 22  1  0  0  0  0
 25 24  1  0  0  0  0
M  END
>  <MODEL>
9

>  <REMARK>
 VINA RESULT:      -6.2      2.231      2.932
  Name = 
  4 active torsions:
  status: ('A' for Active; 'I' for Inactive)
    1  A    between atoms: C_2  and  C_20
    2  A    between atoms: C_2  and  C_24
    3  A    between atoms: C_15  and  C_24
    4  A    between atoms: C_18  and  C_21
                            x       y       z     vdW  Elec       q    Type
                         _______ _______ _______ _____ _____    ______ ____

>  <TORSDO>
F 4

$$$$
