=
 OpenBabel11062419433D

 30 31  0  0  1  0  0  0  0  0999 V2000
  189.8690  177.5820  142.9240 C   0  0  0  0  0  2  0  0  0  0  0  0
  189.1530  175.7180  141.7710 O   0  0  0  0  0  1  0  0  0  0  0  0
  188.7160  176.8500  142.3780 N   0  0  0  0  0  0  0  0  0  0  0  0
  188.0510  177.6680  141.3710 C   0  0  0  0  0  2  0  0  0  0  0  0
  186.5410  177.4970  141.4700 C   0  0  0  0  0  2  0  0  0  0  0  0
  186.2750  176.9550  145.1760 C   0  0  0  0  0  2  0  0  0  0  0  0
  186.0590  177.8370  142.8420 C   0  0  0  0  0  0  0  0  0  0  0  0
  185.6460  176.7470  143.7910 C   0  0  0  0  0  2  0  0  0  0  0  0
  186.3050  178.4280  145.6410 C   0  0  1  0  0  3  0  0  0  0  0  0
  185.6260  179.4070  144.6690 C   0  0  0  0  0  2  0  0  0  0  0  0
  186.0540  179.1080  143.2630 C   0  0  0  0  0  3  0  0  0  0  0  0
  186.0740  177.4580  148.1460 O   0  0  0  0  0  0  0  0  0  0  0  0
  186.0600  180.0480  147.9410 F   0  0  0  0  0  0  0  0  0  0  0  0
  184.1000  178.5380  147.1740 O   0  0  0  0  0  0  0  0  0  0  0  0
  185.5980  178.5840  147.2710 S   0  0  0  0  0  0  0  0  0  0  0  0
  189.7830  177.8530  144.4320 C   0  0  0  0  0  2  0  0  0  0  0  0
  191.8620  176.4280  144.4890 N   0  0  0  0  0  2  0  0  0  0  0  0
  190.6320  176.8820  146.4340 O   0  0  0  0  0  0  0  0  0  0  0  0
  190.7810  177.0510  145.1940 C   0  0  0  0  0  0  0  0  0  0  0  0
  193.8180  172.3650  145.2800 C   0  0  0  0  0  0  0  0  0  0  0  0
  192.1410  173.4990  144.5350 C   0  0  0  0  0  0  0  0  0  0  0  0
  191.0210  173.7490  144.0190 O   0  0  0  0  0  0  0  0  0  0  0  0
  193.0100  175.8010  145.0820 C   0  0  0  0  0  0  0  0  0  0  0  0
  193.0960  174.4620  145.0500 C   0  0  0  0  0  0  0  0  0  0  0  0
  194.1560  173.7000  145.5190 O   0  0  0  0  0  0  0  0  0  0  0  0
  192.6650  172.1910  144.7100 N   0  0  0  0  0  0  0  0  0  0  0  0
  194.7090  171.2300  145.6430 C   0  0  0  0  0  1  0  0  0  0  0  0
  195.2120  176.9470  144.8470 O   0  0  0  0  0  0  0  0  0  0  0  0
  194.1030  176.9900  146.8410 O   0  0  0  0  0  1  0  0  0  0  0  0
  194.1190  176.6150  145.6380 C   0  0  0  0  0  0  0  0  0  0  0  0
  1 16  1  0  0  0  0
  2  3  1  0  0  0  0
  3  1  1  0  0  0  0
  4  5  1  0  0  0  0
  4  3  1  0  0  0  0
  5  7  1  0  0  0  0
  6  9  1  0  0  0  0
  7 11  2  0  0  0  0
  7  8  1  0  0  0  0
  8  6  1  0  0  0  0
  9 15  1  1  0  0  0
 10  9  1  0  0  0  0
 11 10  1  0  0  0  0
 14 15  2  0  0  0  0
 15 13  1  0  0  0  0
 15 12  2  0  0  0  0
 16 19  1  0  0  0  0
 17 23  1  0  0  0  0
 17 19  1  0  0  0  0
 19 18  2  0  0  0  0
 20 25  1  0  0  0  0
 20 27  1  0  0  0  0
 21 26  1  0  0  0  0
 21 24  1  0  0  0  0
 22 21  2  0  0  0  0
 23 30  1  0  0  0  0
 24 23  2  0  0  0  0
 24 25  1  0  0  0  0
 26 20  2  0  0  0  0
 28 30  2  0  0  0  0
 30 29  1  0  0  0  0
M  END
>  <MODEL>
1

>  <REMARK>
 VINA RESULT:      -7.0      0.000      0.000
  Name = 
  9 active torsions:
  status: ('A' for Active; 'I' for Inactive)
    1  A    between atoms: C_1  and  C_21
    2  A    between atoms: C_1  and  C_30
    3  A    between atoms: C_2  and  C_8
    4  A    between atoms: C_2  and  N_16
    5  A    between atoms: C_8  and  C_29
    6  A    between atoms: CA_11  and  C_15
    7  A    between atoms: CA_11  and  N_17
    8  A    between atoms: N_16  and  C_30
    9  A    between atoms: C_23  and  S_24
                            x       y       z     vdW  Elec       q    Type
                         _______ _______ _______ _____ _____    ______ ____

>  <TORSDO>
F 9

$$$$
=
 OpenBabel11062419433D

 30 31  0  0  1  0  0  0  0  0999 V2000
  189.3970  177.4970  142.3710 C   0  0  0  0  0  2  0  0  0  0  0  0
  188.2700  175.8990  141.1460 O   0  0  0  0  0  1  0  0  0  0  0  0
  188.0880  176.9940  141.9270 N   0  0  0  0  0  0  0  0  0  0  0  0
  187.4220  178.0100  141.1220 C   0  0  0  0  0  2  0  0  0  0  0  0
  185.9260  178.0070  141.4060 C   0  0  0  0  0  2  0  0  0  0  0  0
  186.1540  176.8820  144.9810 C   0  0  0  0  0  2  0  0  0  0  0  0
  185.6650  178.1390  142.8700 C   0  0  0  0  0  0  0  0  0  0  0  0
  185.3240  176.9260  143.6910 C   0  0  0  0  0  2  0  0  0  0  0  0
  186.3420  178.2570  145.6580 C   0  0  1  0  0  3  0  0  0  0  0  0
  185.5940  179.4060  144.9620 C   0  0  0  0  0  2  0  0  0  0  0  0
  185.7990  179.3240  143.4790 C   0  0  0  0  0  3  0  0  0  0  0  0
  186.7060  179.1490  148.1760 O   0  0  0  0  0  0  0  0  0  0  0  0
  184.2600  178.5440  147.5440 F   0  0  0  0  0  0  0  0  0  0  0  0
  186.1270  176.7840  147.8970 O   0  0  0  0  0  0  0  0  0  0  0  0
  185.8850  178.1740  147.3800 S   0  0  0  0  0  0  0  0  0  0  0  0
  189.4620  177.8460  143.8630 C   0  0  0  0  0  2  0  0  0  0  0  0
  191.5240  177.1020  145.1080 N   0  0  0  0  0  2  0  0  0  0  0  0
  189.6820  175.6780  144.8230 O   0  0  0  0  0  0  0  0  0  0  0  0
  190.2020  176.8120  144.6390 C   0  0  0  0  0  0  0  0  0  0  0  0
  195.3930  174.6940  145.5430 C   0  0  0  0  0  0  0  0  0  0  0  0
  194.0510  175.8320  144.2950 C   0  0  0  0  0  0  0  0  0  0  0  0
  193.5820  176.3950  143.2720 O   0  0  0  0  0  0  0  0  0  0  0  0
  192.2880  176.3110  146.0320 C   0  0  0  0  0  0  0  0  0  0  0  0
  193.4460  175.7770  145.6130 C   0  0  0  0  0  0  0  0  0  0  0  0
  194.3330  175.0410  146.3840 O   0  0  0  0  0  0  0  0  0  0  0  0
  195.2830  175.1280  144.3240 N   0  0  0  0  0  0  0  0  0  0  0  0
  196.5610  173.8950  146.0040 C   0  0  0  0  0  1  0  0  0  0  0  0
  191.8670  177.2490  148.3040 O   0  0  0  0  0  1  0  0  0  0  0  0
  191.4990  175.0350  147.8910 O   0  0  0  0  0  0  0  0  0  0  0  0
  191.8540  176.1580  147.4430 C   0  0  0  0  0  0  0  0  0  0  0  0
  1 16  1  0  0  0  0
  2  3  1  0  0  0  0
  3  1  1  0  0  0  0
  4  5  1  0  0  0  0
  4  3  1  0  0  0  0
  5  7  1  0  0  0  0
  6  9  1  0  0  0  0
  7 11  2  0  0  0  0
  7  8  1  0  0  0  0
  8  6  1  0  0  0  0
  9 15  1  1  0  0  0
 10  9  1  0  0  0  0
 11 10  1  0  0  0  0
 15 13  1  0  0  0  0
 15 14  2  0  0  0  0
 15 12  2  0  0  0  0
 16 19  1  0  0  0  0
 17 23  1  0  0  0  0
 19 18  2  0  0  0  0
 19 17  1  0  0  0  0
 20 27  1  0  0  0  0
 20 25  1  0  0  0  0
 21 26  1  0  0  0  0
 21 24  1  0  0  0  0
 22 21  2  0  0  0  0
 23 30  1  0  0  0  0
 24 23  2  0  0  0  0
 24 25  1  0  0  0  0
 26 20  2  0  0  0  0
 30 29  2  0  0  0  0
 30 28  1  0  0  0  0
M  END
>  <MODEL>
2

>  <REMARK>
 VINA RESULT:      -6.8      1.730      2.127
  Name = 
  9 active torsions:
  status: ('A' for Active; 'I' for Inactive)
    1  A    between atoms: C_1  and  C_21
    2  A    between atoms: C_1  and  C_30
    3  A    between atoms: C_2  and  C_8
    4  A    between atoms: C_2  and  N_16
    5  A    between atoms: C_8  and  C_29
    6  A    between atoms: CA_11  and  C_15
    7  A    between atoms: CA_11  and  N_17
    8  A    between atoms: N_16  and  C_30
    9  A    between atoms: C_23  and  S_24
                            x       y       z     vdW  Elec       q    Type
                         _______ _______ _______ _____ _____    ______ ____

>  <TORSDO>
F 9

$$$$
=
 OpenBabel11062419433D

 30 31  0  0  1  0  0  0  0  0999 V2000
  192.7720  175.5960  144.2220 C   0  0  0  0  0  2  0  0  0  0  0  0
  193.4400  173.9200  145.6590 O   0  0  0  0  0  1  0  0  0  0  0  0
  193.5360  175.2540  145.4310 N   0  0  0  0  0  0  0  0  0  0  0  0
  192.9650  175.9450  146.5800 C   0  0  0  0  0  2  0  0  0  0  0  0
  191.9610  175.0440  147.2870 C   0  0  0  0  0  2  0  0  0  0  0  0
  189.3710  177.4640  146.0490 C   0  0  0  0  0  2  0  0  0  0  0  0
  190.5980  175.6530  147.2700 C   0  0  0  0  0  0  0  0  0  0  0  0
  190.4360  177.1390  147.1070 C   0  0  0  0  0  2  0  0  0  0  0  0
  188.1340  176.5420  146.0940 C   0  0  1  0  0  3  0  0  0  0  0  0
  188.1550  175.5190  147.2420 C   0  0  0  0  0  2  0  0  0  0  0  0
  189.5080  174.8780  147.3290 C   0  0  0  0  0  3  0  0  0  0  0  0
  185.4400  176.5970  146.1940 O   0  0  0  0  0  0  0  0  0  0  0  0
  186.6500  178.4760  147.5190 F   0  0  0  0  0  0  0  0  0  0  0  0
  186.5520  178.3800  144.9330 O   0  0  0  0  0  0  0  0  0  0  0  0
  186.6360  177.5080  146.1530 S   0  0  0  0  0  0  0  0  0  0  0  0
  192.2580  174.3800  143.4400 C   0  0  0  0  0  2  0  0  0  0  0  0
  190.2690  175.0460  142.0410 N   0  0  0  0  0  2  0  0  0  0  0  0
  190.0080  174.0160  144.1310 O   0  0  0  0  0  0  0  0  0  0  0  0
  190.7830  174.4420  143.2330 C   0  0  0  0  0  0  0  0  0  0  0  0
  186.5770  177.6510  141.3020 C   0  0  0  0  0  0  0  0  0  0  0  0
  188.6020  177.4710  142.0250 C   0  0  0  0  0  0  0  0  0  0  0  0
  189.7100  177.7950  142.5250 O   0  0  0  0  0  0  0  0  0  0  0  0
  188.9060  175.0070  141.5910 C   0  0  0  0  0  0  0  0  0  0  0  0
  188.2010  176.1490  141.5810 C   0  0  0  0  0  0  0  0  0  0  0  0
  186.9010  176.3030  141.1250 O   0  0  0  0  0  0  0  0  0  0  0  0
  187.5260  178.3740  141.8170 N   0  0  0  0  0  0  0  0  0  0  0  0
  185.2550  178.2200  140.9280 C   0  0  0  0  0  1  0  0  0  0  0  0
  187.7770  172.8100  141.9350 O   0  0  0  0  0  1  0  0  0  0  0  0
  188.3190  173.5040  139.8300 O   0  0  0  0  0  0  0  0  0  0  0  0
  188.3140  173.7510  141.0650 C   0  0  0  0  0  0  0  0  0  0  0  0
  1  3  1  0  0  0  0
  3  2  1  0  0  0  0
  3  4  1  0  0  0  0
  4  5  1  0  0  0  0
  6  9  1  0  0  0  0
  6  8  1  0  0  0  0
  7  5  1  0  0  0  0
  7 11  2  0  0  0  0
  8  7  1  0  0  0  0
  9 15  1  1  0  0  0
  9 10  1  0  0  0  0
 10 11  1  0  0  0  0
 14 15  2  0  0  0  0
 15 12  2  0  0  0  0
 15 13  1  0  0  0  0
 16  1  1  0  0  0  0
 17 19  1  0  0  0  0
 19 16  1  0  0  0  0
 19 18  2  0  0  0  0
 20 26  2  0  0  0  0
 21 22  2  0  0  0  0
 23 17  1  0  0  0  0
 24 23  2  0  0  0  0
 24 21  1  0  0  0  0
 25 20  1  0  0  0  0
 25 24  1  0  0  0  0
 26 21  1  0  0  0  0
 27 20  1  0  0  0  0
 29 30  2  0  0  0  0
 30 23  1  0  0  0  0
 30 28  1  0  0  0  0
M  END
>  <MODEL>
3

>  <REMARK>
 VINA RESULT:      -6.8      2.407      6.397
  Name = 
  9 active torsions:
  status: ('A' for Active; 'I' for Inactive)
    1  A    between atoms: C_1  and  C_21
    2  A    between atoms: C_1  and  C_30
    3  A    between atoms: C_2  and  C_8
    4  A    between atoms: C_2  and  N_16
    5  A    between atoms: C_8  and  C_29
    6  A    between atoms: CA_11  and  C_15
    7  A    between atoms: CA_11  and  N_17
    8  A    between atoms: N_16  and  C_30
    9  A    between atoms: C_23  and  S_24
                            x       y       z     vdW  Elec       q    Type
                         _______ _______ _______ _____ _____    ______ ____

>  <TORSDO>
F 9

$$$$
=
 OpenBabel11062419433D

 30 31  0  0  1  0  0  0  0  0999 V2000
  191.5410  175.9650  143.4370 C   0  0  0  0  0  2  0  0  0  0  0  0
  193.8120  175.7760  143.7910 O   0  0  0  0  0  1  0  0  0  0  0  0
  192.6360  176.0320  144.4170 N   0  0  0  0  0  0  0  0  0  0  0  0
  192.4410  175.0070  145.4360 C   0  0  0  0  0  2  0  0  0  0  0  0
  192.2960  175.6540  146.8070 C   0  0  0  0  0  2  0  0  0  0  0  0
  189.1020  177.6270  146.7610 C   0  0  0  0  0  2  0  0  0  0  0  0
  190.8570  175.8800  147.1370 C   0  0  0  0  0  0  0  0  0  0  0  0
  190.3770  177.2490  147.5290 C   0  0  0  0  0  2  0  0  0  0  0  0
  188.1000  176.4650  146.5910 C   0  0  1  0  0  3  0  0  0  0  0  0
  188.5230  175.1640  147.2940 C   0  0  0  0  0  2  0  0  0  0  0  0
  189.9700  174.8840  147.0190 C   0  0  0  0  0  3  0  0  0  0  0  0
  185.4510  176.5720  146.0990 O   0  0  0  0  0  0  0  0  0  0  0  0
  186.1150  176.2050  148.5840 F   0  0  0  0  0  0  0  0  0  0  0  0
  186.4390  178.4470  147.3290 O   0  0  0  0  0  0  0  0  0  0  0  0
  186.4730  176.9580  147.1310 S   0  0  0  0  0  0  0  0  0  0  0  0
  190.5070  177.0910  143.5740 C   0  0  0  0  0  2  0  0  0  0  0  0
  188.4400  177.5990  142.2230 N   0  0  0  0  0  2  0  0  0  0  0  0
  188.6900  175.5670  143.3660 O   0  0  0  0  0  0  0  0  0  0  0  0
  189.1760  176.6840  143.0430 C   0  0  0  0  0  0  0  0  0  0  0  0
  183.9080  178.2380  142.1120 C   0  0  0  0  0  0  0  0  0  0  0  0
  185.7900  178.4950  143.1350 C   0  0  0  0  0  0  0  0  0  0  0  0
  186.6160  178.8440  144.0190 O   0  0  0  0  0  0  0  0  0  0  0  0
  187.2550  177.2980  141.4700 C   0  0  0  0  0  0  0  0  0  0  0  0
  186.0760  177.7560  141.9210 C   0  0  0  0  0  0  0  0  0  0  0  0
  184.8490  177.6090  141.2920 O   0  0  0  0  0  0  0  0  0  0  0  0
  184.3980  178.7700  143.1910 N   0  0  0  0  0  0  0  0  0  0  0  0
  182.4600  178.3010  141.7780 C   0  0  0  0  0  1  0  0  0  0  0  0
  186.8030  177.1340  139.0230 O   0  0  0  0  0  0  0  0  0  0  0  0
  187.8650  175.4320  140.1100 O   0  0  0  0  0  1  0  0  0  0  0  0
  187.3390  176.5750  140.1770 C   0  0  0  0  0  0  0  0  0  0  0  0
  1 16  1  0  0  0  0
  1  3  1  0  0  0  0
  2  3  1  0  0  0  0
  3  4  1  0  0  0  0
  4  5  1  0  0  0  0
  5  7  1  0  0  0  0
  6  8  1  0  0  0  0
  7  8  1  0  0  0  0
  9  6  1  0  0  0  0
  9 15  1  1  0  0  0
  9 10  1  0  0  0  0
 11  7  2  0  0  0  0
 11 10  1  0  0  0  0
 12 15  2  0  0  0  0
 15 14  2  0  0  0  0
 15 13  1  0  0  0  0
 17 19  1  0  0  0  0
 19 18  2  0  0  0  0
 19 16  1  0  0  0  0
 20 26  2  0  0  0  0
 21 26  1  0  0  0  0
 21 22  2  0  0  0  0
 23 24  2  0  0  0  0
 23 17  1  0  0  0  0
 24 21  1  0  0  0  0
 25 24  1  0  0  0  0
 25 20  1  0  0  0  0
 27 20  1  0  0  0  0
 28 30  2  0  0  0  0
 29 30  1  0  0  0  0
 30 23  1  0  0  0  0
M  END
>  <MODEL>
4

>  <REMARK>
 VINA RESULT:      -6.6      2.549      7.076
  Name = 
  9 active torsions:
  status: ('A' for Active; 'I' for Inactive)
    1  A    between atoms: C_1  and  C_21
    2  A    between atoms: C_1  and  C_30
    3  A    between atoms: C_2  and  C_8
    4  A    between atoms: C_2  and  N_16
    5  A    between atoms: C_8  and  C_29
    6  A    between atoms: CA_11  and  C_15
    7  A    between atoms: CA_11  and  N_17
    8  A    between atoms: N_16  and  C_30
    9  A    between atoms: C_23  and  S_24
                            x       y       z     vdW  Elec       q    Type
                         _______ _______ _______ _____ _____    ______ ____

>  <TORSDO>
F 9

$$$$
=
 OpenBabel11062419433D

 30 31  0  0  1  0  0  0  0  0999 V2000
  189.8370  177.5500  146.9170 C   0  0  0  0  0  2  0  0  0  0  0  0
  191.4980  177.0110  148.4240 O   0  0  0  0  0  1  0  0  0  0  0  0
  190.8150  176.5400  147.3500 N   0  0  0  0  0  0  0  0  0  0  0  0
  191.7750  176.3010  146.2800 C   0  0  0  0  0  2  0  0  0  0  0  0
  192.2210  174.8440  146.2930 C   0  0  0  0  0  2  0  0  0  0  0  0
  189.5140  174.0210  143.8250 C   0  0  0  0  0  2  0  0  0  0  0  0
  191.6530  174.1060  145.1250 C   0  0  0  0  0  0  0  0  0  0  0  0
  190.2180  173.6570  145.1400 C   0  0  0  0  0  2  0  0  0  0  0  0
  190.3840  173.8200  142.5650 C   0  0  1  0  0  3  0  0  0  0  0  0
  191.7690  173.2140  142.8500 C   0  0  0  0  0  2  0  0  0  0  0  0
  192.3930  173.8990  144.0290 C   0  0  0  0  0  3  0  0  0  0  0  0
  189.8230  173.3410  139.9720 O   0  0  0  0  0  0  0  0  0  0  0  0
  189.9940  171.2380  141.4890 F   0  0  0  0  0  0  0  0  0  0  0  0
  188.0370  172.9310  141.6000 O   0  0  0  0  0  0  0  0  0  0  0  0
  189.5170  172.8380  141.3560 S   0  0  0  0  0  0  0  0  0  0  0  0
  189.3770  177.3950  145.4620 C   0  0  0  0  0  2  0  0  0  0  0  0
  187.0680  178.3030  145.0190 N   0  0  0  0  0  2  0  0  0  0  0  0
  187.4070  176.0720  145.6540 O   0  0  0  0  0  0  0  0  0  0  0  0
  187.9040  177.1950  145.3680 C   0  0  0  0  0  0  0  0  0  0  0  0
  184.1370  178.1900  141.5030 C   0  0  0  0  0  0  0  0  0  0  0  0
  186.1640  178.3700  142.2190 C   0  0  0  0  0  0  0  0  0  0  0  0
  187.4150  178.5060  142.2000 O   0  0  0  0  0  0  0  0  0  0  0  0
  185.6710  178.2410  144.6870 C   0  0  0  0  0  0  0  0  0  0  0  0
  185.3190  178.2480  143.3920 C   0  0  0  0  0  0  0  0  0  0  0  0
  184.0300  178.1350  142.8960 O   0  0  0  0  0  0  0  0  0  0  0  0
  185.3490  178.3220  141.0570 N   0  0  0  0  0  0  0  0  0  0  0  0
  182.9590  178.0980  140.5990 C   0  0  0  0  0  1  0  0  0  0  0  0
  184.5750  176.9070  146.4870 O   0  0  0  0  0  1  0  0  0  0  0  0
  183.8020  178.9910  145.9700 O   0  0  0  0  0  0  0  0  0  0  0  0
  184.6450  178.0810  145.7470 C   0  0  0  0  0  0  0  0  0  0  0  0
  1  3  1  0  0  0  0
  3  2  1  0  0  0  0
  4  5  1  0  0  0  0
  4  3  1  0  0  0  0
  6  8  1  0  0  0  0
  7  8  1  0  0  0  0
  7  5  1  0  0  0  0
  9 15  1  6  0  0  0
  9 10  1  0  0  0  0
  9  6  1  0  0  0  0
 10 11  1  0  0  0  0
 11  7  2  0  0  0  0
 12 15  2  0  0  0  0
 15 13  1  0  0  0  0
 15 14  2  0  0  0  0
 16  1  1  0  0  0  0
 17 19  1  0  0  0  0
 19 16  1  0  0  0  0
 19 18  2  0  0  0  0
 20 25  1  0  0  0  0
 21 24  1  0  0  0  0
 22 21  2  0  0  0  0
 23 17  1  0  0  0  0
 23 30  1  0  0  0  0
 24 23  2  0  0  0  0
 25 24  1  0  0  0  0
 26 20  2  0  0  0  0
 26 21  1  0  0  0  0
 27 20  1  0  0  0  0
 30 29  2  0  0  0  0
 30 28  1  0  0  0  0
M  END
>  <MODEL>
5

>  <REMARK>
 VINA RESULT:      -6.5      3.766      8.337
  Name = 
  9 active torsions:
  status: ('A' for Active; 'I' for Inactive)
    1  A    between atoms: C_1  and  C_21
    2  A    between atoms: C_1  and  C_30
    3  A    between atoms: C_2  and  C_8
    4  A    between atoms: C_2  and  N_16
    5  A    between atoms: C_8  and  C_29
    6  A    between atoms: CA_11  and  C_15
    7  A    between atoms: CA_11  and  N_17
    8  A    between atoms: N_16  and  C_30
    9  A    between atoms: C_23  and  S_24
                            x       y       z     vdW  Elec       q    Type
                         _______ _______ _______ _____ _____    ______ ____

>  <TORSDO>
F 9

$$$$
=
 OpenBabel11062419433D

 30 31  0  0  1  0  0  0  0  0999 V2000
  184.7920  177.9910  141.5430 C   0  0  0  0  0  2  0  0  0  0  0  0
  183.0200  178.6620  142.8580 O   0  0  0  0  0  1  0  0  0  0  0  0
  184.3070  178.2340  142.9100 N   0  0  0  0  0  0  0  0  0  0  0  0
  185.1020  179.2870  143.5300 C   0  0  0  0  0  2  0  0  0  0  0  0
  185.0850  179.1330  145.0450 C   0  0  0  0  0  2  0  0  0  0  0  0
  186.9800  176.4930  146.9270 C   0  0  0  0  0  2  0  0  0  0  0  0
  186.3320  178.4640  145.5230 C   0  0  0  0  0  0  0  0  0  0  0  0
  186.4080  177.9180  146.9220 C   0  0  0  0  0  2  0  0  0  0  0  0
  188.1450  176.2760  145.9370 C   0  0  1  0  0  3  0  0  0  0  0  0
  188.5750  177.5480  145.1870 C   0  0  0  0  0  2  0  0  0  0  0  0
  187.3650  178.2830  144.6920 C   0  0  0  0  0  3  0  0  0  0  0  0
  190.4650  174.9150  145.7610 O   0  0  0  0  0  0  0  0  0  0  0  0
  190.3670  176.7270  147.6200 F   0  0  0  0  0  0  0  0  0  0  0  0
  189.0630  174.4910  147.7250 O   0  0  0  0  0  0  0  0  0  0  0  0
  189.5430  175.5440  146.7670 S   0  0  0  0  0  0  0  0  0  0  0  0
  186.3200  177.9350  141.4200 C   0  0  0  0  0  2  0  0  0  0  0  0
  187.8840  176.0650  140.7770 N   0  0  0  0  0  2  0  0  0  0  0  0
  186.3150  175.8140  142.5020 O   0  0  0  0  0  0  0  0  0  0  0  0
  186.8390  176.5530  141.6260 C   0  0  0  0  0  0  0  0  0  0  0  0
  189.3410  172.2890  138.6380 C   0  0  0  0  0  0  0  0  0  0  0  0
  188.1860  174.1110  138.5980 C   0  0  0  0  0  0  0  0  0  0  0  0
  187.4360  175.0240  138.1650 O   0  0  0  0  0  0  0  0  0  0  0  0
  188.6320  174.8530  140.9650 C   0  0  0  0  0  0  0  0  0  0  0  0
  188.7580  174.0110  139.9270 C   0  0  0  0  0  0  0  0  0  0  0  0
  189.4900  172.8330  139.9160 O   0  0  0  0  0  0  0  0  0  0  0  0
  188.5980  172.9880  137.8330 N   0  0  0  0  0  0  0  0  0  0  0  0
  189.9830  171.0120  138.2240 C   0  0  0  0  0  1  0  0  0  0  0  0
  188.7830  173.6790  143.1600 O   0  0  0  0  0  1  0  0  0  0  0  0
  190.3920  175.1760  142.5460 O   0  0  0  0  0  0  0  0  0  0  0  0
  189.3240  174.5780  142.2490 C   0  0  0  0  0  0  0  0  0  0  0  0
  1  3  1  0  0  0  0
  2  3  1  0  0  0  0
  3  4  1  0  0  0  0
  4  5  1  0  0  0  0
  5  7  1  0  0  0  0
  7  8  1  0  0  0  0
  8  6  1  0  0  0  0
  9 15  1  1  0  0  0
  9  6  1  0  0  0  0
 10  9  1  0  0  0  0
 11 10  1  0  0  0  0
 11  7  2  0  0  0  0
 12 15  2  0  0  0  0
 15 13  1  0  0  0  0
 15 14  2  0  0  0  0
 16  1  1  0  0  0  0
 16 19  1  0  0  0  0
 17 23  1  0  0  0  0
 17 19  1  0  0  0  0
 19 18  2  0  0  0  0
 20 25  1  0  0  0  0
 21 24  1  0  0  0  0
 22 21  2  0  0  0  0
 23 30  1  0  0  0  0
 24 23  2  0  0  0  0
 25 24  1  0  0  0  0
 26 21  1  0  0  0  0
 26 20  2  0  0  0  0
 27 20  1  0  0  0  0
 30 29  2  0  0  0  0
 30 28  1  0  0  0  0
M  END
>  <MODEL>
6

>  <REMARK>
 VINA RESULT:      -6.5      3.909      5.750
  Name = 
  9 active torsions:
  status: ('A' for Active; 'I' for Inactive)
    1  A    between atoms: C_1  and  C_21
    2  A    between atoms: C_1  and  C_30
    3  A    between atoms: C_2  and  C_8
    4  A    between atoms: C_2  and  N_16
    5  A    between atoms: C_8  and  C_29
    6  A    between atoms: CA_11  and  C_15
    7  A    between atoms: CA_11  and  N_17
    8  A    between atoms: N_16  and  C_30
    9  A    between atoms: C_23  and  S_24
                            x       y       z     vdW  Elec       q    Type
                         _______ _______ _______ _____ _____    ______ ____

>  <TORSDO>
F 9

$$$$
=
 OpenBabel11062419433D

 30 31  0  0  1  0  0  0  0  0999 V2000
  189.0490  173.5510  141.5180 C   0  0  0  0  0  2  0  0  0  0  0  0
  188.5240  174.5660  139.5150 O   0  0  0  0  0  1  0  0  0  0  0  0
  188.2250  174.5620  140.8390 N   0  0  0  0  0  0  0  0  0  0  0  0
  188.5370  175.8840  141.3700 C   0  0  0  0  0  2  0  0  0  0  0  0
  187.4510  176.8760  140.9770 C   0  0  0  0  0  2  0  0  0  0  0  0
  186.4550  176.6930  144.5930 C   0  0  0  0  0  2  0  0  0  0  0  0
  186.6730  177.3110  142.1750 C   0  0  0  0  0  0  0  0  0  0  0  0
  186.1420  176.2920  143.1440 C   0  0  0  0  0  2  0  0  0  0  0  0
  186.2950  178.2030  144.8780 C   0  0  1  0  0  3  0  0  0  0  0  0
  185.7720  179.0150  143.6820 C   0  0  0  0  0  2  0  0  0  0  0  0
  186.5010  178.6130  142.4350 C   0  0  0  0  0  3  0  0  0  0  0  0
  183.9330  179.0330  145.8770 O   0  0  0  0  0  0  0  0  0  0  0  0
  185.0110  177.0030  147.0890 F   0  0  0  0  0  0  0  0  0  0  0  0
  185.9280  179.4210  147.2470 O   0  0  0  0  0  0  0  0  0  0  0  0
  185.2560  178.4620  146.3040 S   0  0  0  0  0  0  0  0  0  0  0  0
  188.5620  173.1880  142.9270 C   0  0  0  0  0  2  0  0  0  0  0  0
  189.6510  175.0230  144.2680 N   0  0  0  0  0  2  0  0  0  0  0  0
  190.2610  172.7760  144.5440 O   0  0  0  0  0  0  0  0  0  0  0  0
  189.5270  173.6280  143.9740 C   0  0  0  0  0  0  0  0  0  0  0  0
  193.6800  176.8320  145.4760 C   0  0  0  0  0  0  0  0  0  0  0  0
  192.4560  175.8660  143.9840 C   0  0  0  0  0  0  0  0  0  0  0  0
  192.1190  175.3500  142.8870 O   0  0  0  0  0  0  0  0  0  0  0  0
  190.3690  175.5960  145.3720 C   0  0  0  0  0  0  0  0  0  0  0  0
  191.6390  175.9860  145.1770 C   0  0  0  0  0  0  0  0  0  0  0  0
  192.4550  176.6080  146.1100 O   0  0  0  0  0  0  0  0  0  0  0  0
  193.7360  176.4250  144.2440 N   0  0  0  0  0  0  0  0  0  0  0  0
  194.8310  177.4890  146.1520 C   0  0  0  0  0  1  0  0  0  0  0  0
  189.1570  177.0790  146.9700 O   0  0  0  0  0  0  0  0  0  0  0  0
  189.6400  174.9240  147.5450 O   0  0  0  0  0  1  0  0  0  0  0  0
  189.6990  175.8330  146.6750 C   0  0  0  0  0  0  0  0  0  0  0  0
  1 16  1  0  0  0  0
  2  3  1  0  0  0  0
  3  4  1  0  0  0  0
  3  1  1  0  0  0  0
  5  4  1  0  0  0  0
  5  7  1  0  0  0  0
  6  9  1  0  0  0  0
  7 11  2  0  0  0  0
  7  8  1  0  0  0  0
  8  6  1  0  0  0  0
  9 15  1  1  0  0  0
 10  9  1  0  0  0  0
 11 10  1  0  0  0  0
 12 15  2  0  0  0  0
 15 13  1  0  0  0  0
 15 14  2  0  0  0  0
 16 19  1  0  0  0  0
 17 23  1  0  0  0  0
 19 17  1  0  0  0  0
 19 18  2  0  0  0  0
 20 25  1  0  0  0  0
 20 27  1  0  0  0  0
 21 26  1  0  0  0  0
 21 24  1  0  0  0  0
 22 21  2  0  0  0  0
 23 30  1  0  0  0  0
 24 23  2  0  0  0  0
 24 25  1  0  0  0  0
 26 20  2  0  0  0  0
 30 28  2  0  0  0  0
 30 29  1  0  0  0  0
M  END
>  <MODEL>
7

>  <REMARK>
 VINA RESULT:      -6.3      2.314      3.367
  Name = 
  9 active torsions:
  status: ('A' for Active; 'I' for Inactive)
    1  A    between atoms: C_1  and  C_21
    2  A    between atoms: C_1  and  C_30
    3  A    between atoms: C_2  and  C_8
    4  A    between atoms: C_2  and  N_16
    5  A    between atoms: C_8  and  C_29
    6  A    between atoms: CA_11  and  C_15
    7  A    between atoms: CA_11  and  N_17
    8  A    between atoms: N_16  and  C_30
    9  A    between atoms: C_23  and  S_24
                            x       y       z     vdW  Elec       q    Type
                         _______ _______ _______ _____ _____    ______ ____

>  <TORSDO>
F 9

$$$$
=
 OpenBabel11062419433D

 30 31  0  0  1  0  0  0  0  0999 V2000
  189.4940  174.9460  143.1660 C   0  0  0  0  0  2  0  0  0  0  0  0
  189.0690  174.6070  140.9250 O   0  0  0  0  0  1  0  0  0  0  0  0
  188.5810  175.2020  142.0430 N   0  0  0  0  0  0  0  0  0  0  0  0
  188.5100  176.6370  141.7890 C   0  0  0  0  0  2  0  0  0  0  0  0
  187.0610  177.0620  141.5890 C   0  0  0  0  0  2  0  0  0  0  0  0
  186.4960  176.8170  145.2930 C   0  0  0  0  0  2  0  0  0  0  0  0
  186.4540  177.4960  142.8830 C   0  0  0  0  0  0  0  0  0  0  0  0
  185.9940  176.4730  143.8840 C   0  0  0  0  0  2  0  0  0  0  0  0
  186.4440  178.3220  145.6320 C   0  0  1  0  0  3  0  0  0  0  0  0
  185.8220  179.1930  144.5280 C   0  0  0  0  0  2  0  0  0  0  0  0
  186.3760  178.7960  143.1930 C   0  0  0  0  0  3  0  0  0  0  0  0
  185.9580  177.5000  148.1540 O   0  0  0  0  0  0  0  0  0  0  0  0
  186.0360  180.0740  147.8090 F   0  0  0  0  0  0  0  0  0  0  0  0
  184.1120  178.5690  146.9480 O   0  0  0  0  0  0  0  0  0  0  0  0
  185.5970  178.5860  147.1790 S   0  0  0  0  0  0  0  0  0  0  0  0
  190.0090  176.2150  143.8590 C   0  0  0  0  0  2  0  0  0  0  0  0
  192.3470  175.2760  143.9150 N   0  0  0  0  0  2  0  0  0  0  0  0
  191.3970  176.3140  145.7900 O   0  0  0  0  0  0  0  0  0  0  0  0
  191.2860  175.9670  144.5840 C   0  0  0  0  0  0  0  0  0  0  0  0
  195.3650  172.2430  145.5440 C   0  0  0  0  0  0  0  0  0  0  0  0
  193.3580  172.6900  144.8910 C   0  0  0  0  0  0  0  0  0  0  0  0
  192.1420  172.5230  144.6120 O   0  0  0  0  0  0  0  0  0  0  0  0
  193.6970  175.1360  144.3850 C   0  0  0  0  0  0  0  0  0  0  0  0
  194.1110  173.9260  144.7940 C   0  0  0  0  0  0  0  0  0  0  0  0
  195.3900  173.6020  145.2200 O   0  0  0  0  0  0  0  0  0  0  0  0
  194.2150  171.6650  145.3700 N   0  0  0  0  0  0  0  0  0  0  0  0
  196.5590  171.5100  146.0430 C   0  0  0  0  0  1  0  0  0  0  0  0
  194.6190  177.2500  145.3340 O   0  0  0  0  0  1  0  0  0  0  0  0
  195.4520  176.4090  143.3830 O   0  0  0  0  0  0  0  0  0  0  0  0
  194.6410  176.2810  144.3390 C   0  0  0  0  0  0  0  0  0  0  0  0
  1 16  1  0  0  0  0
  2  3  1  0  0  0  0
  3  1  1  0  0  0  0
  4  3  1  0  0  0  0
  5  4  1  0  0  0  0
  5  7  1  0  0  0  0
  6  9  1  0  0  0  0
  7 11  2  0  0  0  0
  7  8  1  0  0  0  0
  8  6  1  0  0  0  0
  9 15  1  1  0  0  0
 10  9  1  0  0  0  0
 11 10  1  0  0  0  0
 14 15  2  0  0  0  0
 15 13  1  0  0  0  0
 15 12  2  0  0  0  0
 16 19  1  0  0  0  0
 17 23  1  0  0  0  0
 17 19  1  0  0  0  0
 19 18  2  0  0  0  0
 20 27  1  0  0  0  0
 21 26  1  0  0  0  0
 22 21  2  0  0  0  0
 23 24  2  0  0  0  0
 24 21  1  0  0  0  0
 24 25  1  0  0  0  0
 25 20  1  0  0  0  0
 26 20  2  0  0  0  0
 29 30  2  0  0  0  0
 30 23  1  0  0  0  0
 30 28  1  0  0  0  0
M  END
>  <MODEL>
8

>  <REMARK>
 VINA RESULT:      -6.3      1.211      1.401
  Name = 
  9 active torsions:
  status: ('A' for Active; 'I' for Inactive)
    1  A    between atoms: C_1  and  C_21
    2  A    between atoms: C_1  and  C_30
    3  A    between atoms: C_2  and  C_8
    4  A    between atoms: C_2  and  N_16
    5  A    between atoms: C_8  and  C_29
    6  A    between atoms: CA_11  and  C_15
    7  A    between atoms: CA_11  and  N_17
    8  A    between atoms: N_16  and  C_30
    9  A    between atoms: C_23  and  S_24
                            x       y       z     vdW  Elec       q    Type
                         _______ _______ _______ _____ _____    ______ ____

>  <TORSDO>
F 9

$$$$
=
 OpenBabel11062419433D

 30 31  0  0  1  0  0  0  0  0999 V2000
  185.6970  177.7770  141.4980 C   0  0  0  0  0  2  0  0  0  0  0  0
  183.9250  178.3800  142.8460 O   0  0  0  0  0  1  0  0  0  0  0  0
  185.2260  177.9950  142.8740 N   0  0  0  0  0  0  0  0  0  0  0  0
  185.9960  179.0700  143.4890 C   0  0  0  0  0  2  0  0  0  0  0  0
  186.0830  178.8570  144.9940 C   0  0  0  0  0  2  0  0  0  0  0  0
  189.6310  177.8150  145.6450 C   0  0  0  0  0  2  0  0  0  0  0  0
  187.1470  177.8640  145.3280 C   0  0  0  0  0  0  0  0  0  0  0  0
  188.4800  177.9200  144.6350 C   0  0  0  0  0  2  0  0  0  0  0  0
  189.3830  176.8010  146.7820 C   0  0  1  0  0  3  0  0  0  0  0  0
  188.0640  176.0200  146.6500 C   0  0  0  0  0  2  0  0  0  0  0  0
  186.9500  176.9590  146.2950 C   0  0  0  0  0  3  0  0  0  0  0  0
  191.0250  175.3720  148.3730 O   0  0  0  0  0  0  0  0  0  0  0  0
  190.4000  174.2520  146.1140 F   0  0  0  0  0  0  0  0  0  0  0  0
  191.9820  176.2930  146.3140 O   0  0  0  0  0  0  0  0  0  0  0  0
  190.7570  175.6730  146.9250 S   0  0  0  0  0  0  0  0  0  0  0  0
  187.2010  177.4960  141.3860 C   0  0  0  0  0  2  0  0  0  0  0  0
  188.6160  175.4270  141.1160 N   0  0  0  0  0  2  0  0  0  0  0  0
  186.8130  175.4920  142.6130 O   0  0  0  0  0  0  0  0  0  0  0  0
  187.5290  176.0930  141.7670 C   0  0  0  0  0  0  0  0  0  0  0  0
  192.0500  173.5350  143.4800 C   0  0  0  0  0  0  0  0  0  0  0  0
  191.0810  175.3060  142.7190 C   0  0  0  0  0  0  0  0  0  0  0  0
  190.8590  176.5220  142.4850 O   0  0  0  0  0  0  0  0  0  0  0  0
  189.1910  174.1680  141.4990 C   0  0  0  0  0  0  0  0  0  0  0  0
  190.3020  174.1740  142.2530 C   0  0  0  0  0  0  0  0  0  0  0  0
  190.9520  173.0590  142.7600 O   0  0  0  0  0  0  0  0  0  0  0  0
  192.1720  174.8280  143.4920 N   0  0  0  0  0  0  0  0  0  0  0  0
  193.0040  172.6370  144.1850 C   0  0  0  0  0  1  0  0  0  0  0  0
  187.5360  172.3630  141.9690 O   0  0  0  0  0  1  0  0  0  0  0  0
  188.8680  172.2450  140.1200 O   0  0  0  0  0  0  0  0  0  0  0  0
  188.5260  172.8890  141.1470 C   0  0  0  0  0  0  0  0  0  0  0  0
  1  3  1  0  0  0  0
  2  3  1  0  0  0  0
  3  4  1  0  0  0  0
  4  5  1  0  0  0  0
  5  7  1  0  0  0  0
  6  9  1  0  0  0  0
  7 11  2  0  0  0  0
  8  7  1  0  0  0  0
  8  6  1  0  0  0  0
  9 15  1  6  0  0  0
 10  9  1  0  0  0  0
 11 10  1  0  0  0  0
 13 15  1  0  0  0  0
 14 15  2  0  0  0  0
 15 12  2  0  0  0  0
 16  1  1  0  0  0  0
 16 19  1  0  0  0  0
 17 23  1  0  0  0  0
 17 19  1  0  0  0  0
 19 18  2  0  0  0  0
 20 26  2  0  0  0  0
 20 27  1  0  0  0  0
 21 26  1  0  0  0  0
 22 21  2  0  0  0  0
 23 24  2  0  0  0  0
 24 21  1  0  0  0  0
 24 25  1  0  0  0  0
 25 20  1  0  0  0  0
 29 30  2  0  0  0  0
 30 23  1  0  0  0  0
 30 28  1  0  0  0  0
M  END
>  <MODEL>
9

>  <REMARK>
 VINA RESULT:      -6.3      2.928      5.190
  Name = 
  9 active torsions:
  status: ('A' for Active; 'I' for Inactive)
    1  A    between atoms: C_1  and  C_21
    2  A    between atoms: C_1  and  C_30
    3  A    between atoms: C_2  and  C_8
    4  A    between atoms: C_2  and  N_16
    5  A    between atoms: C_8  and  C_29
    6  A    between atoms: CA_11  and  C_15
    7  A    between atoms: CA_11  and  N_17
    8  A    between atoms: N_16  and  C_30
    9  A    between atoms: C_23  and  S_24
                            x       y       z     vdW  Elec       q    Type
                         _______ _______ _______ _____ _____    ______ ____

>  <TORSDO>
F 9

$$$$
