=
 OpenBabel11062419503D

 46 49  0  0  1  0  0  0  0  0999 V2000
  189.8700  175.0500  145.7050 C   0  0  0  0  0  1  0  0  0  0  0  0
  196.0940  174.2180  145.0860 O   0  0  0  0  0  0  0  0  0  0  0  0
  191.3320  171.3500  140.1260 C   0  0  1  0  0  3  0  0  0  0  0  0
  190.6550  170.4240  141.1330 C   0  0  0  0  0  2  0  0  0  0  0  0
  196.3950  171.8500  142.2280 N   0  0  0  0  0  0  0  0  0  0  0  0
  193.2450  169.1800  139.8800 O   0  0  0  0  0  0  0  0  0  0  0  0
  193.3440  174.2330  143.8370 C   0  0  0  0  0  2  0  0  0  0  0  0
  190.6150  175.1710  143.2920 C   0  0  0  0  0  2  0  0  0  0  0  0
  193.6620  170.2890  140.3160 C   0  0  0  0  0  0  0  0  0  0  0  0
  195.2420  171.4080  141.8410 C   0  0  0  0  0  3  0  0  0  0  0  0
  194.0030  174.7050  146.2560 C   0  0  0  0  0  2  0  0  0  0  0  0
  189.2410  171.9430  142.4610 C   0  0  0  0  0  3  0  0  0  0  0  0
  189.3270  174.5080  142.9160 C   0  0  0  0  0  3  0  0  0  0  0  0
  189.2910  173.2260  142.6880 C   0  0  0  0  0  0  0  0  0  0  0  0
  192.7710  171.4120  140.3920 N   0  0  0  0  0  2  0  0  0  0  0  0
  196.6030  172.7760  143.3110 C   0  0  0  0  0  3  0  0  0  0  0  0
  194.2010  172.9870  143.9340 C   0  0  0  0  0  2  0  0  0  0  0  0
  195.1120  170.4620  140.6910 C   0  0  1  0  0  3  0  0  0  0  0  0
  190.6190  175.8930  144.6630 C   0  0  2  0  0  0  0  0  0  0  0  0
  192.8630  174.6830  145.2190 C   0  0  1  0  0  3  0  0  0  0  0  0
  190.4820  171.1200  142.4720 C   0  0  0  0  0  2  0  0  0  0  0  0
  195.3000  175.2520  145.6720 C   0  0  0  0  0  2  0  0  0  0  0  0
  192.1950  176.7240  146.3330 O   0  0  0  0  0  1  0  0  0  0  0  0
  195.6580  173.3340  144.0860 C   0  0  0  0  0  0  0  0  0  0  0  0
  192.1070  176.0310  145.1200 C   0  0  2  0  0  3  0  0  0  0  0  0
  189.9520  177.3100  144.5080 C   0  0  1  0  0  0  0  0  0  0  0  0
  188.7520  177.2940  143.5370 C   0  0  2  0  0  3  0  0  0  0  0  0
  185.6640  176.7130  144.1650 C   0  0  0  0  0  2  0  0  0  0  0  0
  189.3820  177.8450  145.8340 C   0  0  0  0  0  2  0  0  0  0  0  0
  189.1090  177.7430  142.2620 O   0  0  0  0  0  1  0  0  0  0  0  0
  187.8910  178.0680  145.6580 C   0  0  2  0  0  3  0  0  0  0  0  0
  187.1680  176.8450  146.2430 C   0  0  0  0  0  2  0  0  0  0  0  0
  190.9110  178.2270  144.0610 O   0  0  0  0  0  1  0  0  0  0  0  0
  186.2760  178.0100  143.6570 C   0  0  1  0  0  3  0  0  0  0  0  0
  187.7210  178.2190  144.1480 C   0  0  2  0  0  3  0  0  0  0  0  0
  184.8450  176.4410  146.3600 O   0  0  0  0  0  0  0  0  0  0  0  0
  186.2100  178.0580  142.2640 O   0  0  0  0  0  1  0  0  0  0  0  0
  185.8090  176.6680  145.6490 C   0  0  0  0  0  0  0  0  0  0  0  0
  195.5080  168.5190  142.2080 O   0  0  0  0  0  1  0  0  0  0  0  0
  195.7810  169.1570  141.0060 C   0  0  0  0  0  0  0  0  0  0  0  0
  196.5870  168.6340  140.1910 O   0  0  0  0  0  0  0  0  0  0  0  0
  191.7770  171.8270  137.7050 C   0  0  0  0  0  1  0  0  0  0  0  0
  191.0470  170.9180  138.6830 C   0  0  2  0  0  3  0  0  0  0  0  0
  189.5510  170.9770  138.3930 C   0  0  0  0  0  2  0  0  0  0  0  0
  189.0480  172.4110  138.4020 C   0  0  0  0  0  2  0  0  0  0  0  0
  187.9750  172.5350  139.2860 O   0  0  0  0  0  1  0  0  0  0  0  0
  2 22  1  0  0  0  0
  3 43  1  6  0  0  0
  3 15  1  0  0  0  0
  3  4  1  0  0  0  0
  4 21  1  0  0  0  0
  5 16  1  0  0  0  0
  6  9  2  0  0  0  0
  7 17  1  0  0  0  0
  8 19  1  0  0  0  0
  9 15  1  0  0  0  0
  9 18  1  0  0  0  0
 10  5  2  0  0  0  0
 12 21  1  0  0  0  0
 12 14  2  0  0  0  0
 13  8  1  0  0  0  0
 14 13  2  0  0  0  0
 16 24  2  0  0  0  0
 17 24  1  0  0  0  0
 18 40  1  1  0  0  0
 18 10  1  0  0  0  0
 19 25  1  0  0  0  0
 19  1  1  1  0  0  0
 20  7  1  6  0  0  0
 20 11  1  0  0  0  0
 22 11  1  0  0  0  0
 24  2  1  0  0  0  0
 25 20  1  0  0  0  0
 25 23  1  1  0  0  0
 26 33  1  6  0  0  0
 26 19  1  0  0  0  0
 26 29  1  0  0  0  0
 27 30  1  6  0  0  0
 27 35  1  0  0  0  0
 27 26  1  0  0  0  0
 28 38  1  0  0  0  0
 31 29  1  6  0  0  0
 31 32  1  0  0  0  0
 34 37  1  6  0  0  0
 34 35  1  0  0  0  0
 34 28  1  0  0  0  0
 35 31  1  0  0  0  0
 38 32  1  0  0  0  0
 38 36  2  0  0  0  0
 40 39  1  0  0  0  0
 41 40  2  0  0  0  0
 42 43  1  0  0  0  0
 44 45  1  0  0  0  0
 44 43  1  0  0  0  0
 45 46  1  0  0  0  0
M  END
>  <MODEL>
1

>  <REMARK>
 VINA RESULT:      -7.9      0.000      0.000
  Name = 
  5 active torsions:
  status: ('A' for Active; 'I' for Inactive)
    1  A    between atoms: C_1  and  C_35
    2  A    between atoms: C_7  and  C_32
    3  A    between atoms: C_9  and  C_46
    4  A    between atoms: C_25  and  C_30
    5  A    between atoms: C_32  and  C_46
                            x       y       z     vdW  Elec       q    Type
                         _______ _______ _______ _____ _____    ______ ____

>  <TORSDO>
F 5

$$$$
=
 OpenBabel11062419503D

 46 49  0  0  1  0  0  0  0  0999 V2000
  193.6820  173.8720  145.3440 C   0  0  0  0  0  1  0  0  0  0  0  0
  197.9400  174.4700  140.7270 O   0  0  0  0  0  0  0  0  0  0  0  0
  190.9570  172.3380  139.2460 C   0  0  1  0  0  3  0  0  0  0  0  0
  191.0550  171.0430  140.0500 C   0  0  0  0  0  2  0  0  0  0  0  0
  196.1810  173.1560  137.7190 N   0  0  0  0  0  0  0  0  0  0  0  0
  192.1310  170.7470  137.1210 O   0  0  0  0  0  0  0  0  0  0  0  0
  195.0460  174.3260  141.5810 C   0  0  0  0  0  2  0  0  0  0  0  0
  192.6760  174.8400  143.2360 C   0  0  0  0  0  2  0  0  0  0  0  0
  192.7880  171.7360  137.5510 C   0  0  0  0  0  0  0  0  0  0  0  0
  195.0340  172.6350  138.0160 C   0  0  0  0  0  3  0  0  0  0  0  0
  197.1480  174.1790  143.0210 C   0  0  0  0  0  2  0  0  0  0  0  0
  190.9290  171.8010  142.3910 C   0  0  0  0  0  3  0  0  0  0  0  0
  191.4230  174.0840  143.5490 C   0  0  0  0  0  3  0  0  0  0  0  0
  191.1820  172.9440  142.9660 C   0  0  0  0  0  0  0  0  0  0  0  0
  192.2200  172.5930  138.5530 N   0  0  0  0  0  2  0  0  0  0  0  0
  197.0930  173.7420  138.6670 C   0  0  0  0  0  3  0  0  0  0  0  0
  195.6940  173.2950  140.6780 C   0  0  0  0  0  2  0  0  0  0  0  0
  194.1370  172.0650  136.9660 C   0  0  1  0  0  3  0  0  0  0  0  0
  193.6100  175.1120  144.4420 C   0  0  2  0  0  0  0  0  0  0  0  0
  195.6080  174.2460  143.0040 C   0  0  1  0  0  3  0  0  0  0  0  0
  191.8330  171.2660  141.3360 C   0  0  0  0  0  2  0  0  0  0  0  0
  197.7740  175.1130  141.9920 C   0  0  0  0  0  2  0  0  0  0  0  0
  195.9340  175.6990  144.9100 O   0  0  0  0  0  1  0  0  0  0  0  0
  196.9120  173.8550  139.9930 C   0  0  0  0  0  0  0  0  0  0  0  0
  195.0400  175.3920  143.8770 C   0  0  2  0  0  3  0  0  0  0  0  0
  193.0770  176.3560  145.2450 C   0  0  1  0  0  0  0  0  0  0  0  0
  191.6560  176.7740  144.8110 C   0  0  2  0  0  3  0  0  0  0  0  0
  188.8300  175.7580  145.9280 C   0  0  0  0  0  2  0  0  0  0  0  0
  192.9650  176.0830  146.7560 C   0  0  0  0  0  2  0  0  0  0  0  0
  191.6810  177.8440  143.9110 O   0  0  0  0  0  1  0  0  0  0  0  0
  191.5170  176.2700  147.1700 C   0  0  2  0  0  3  0  0  0  0  0  0
  190.8660  174.8790  147.2230 C   0  0  0  0  0  2  0  0  0  0  0  0
  193.9600  177.4300  145.0760 O   0  0  0  0  0  1  0  0  0  0  0  0
  189.4040  177.1640  146.0070 C   0  0  1  0  0  3  0  0  0  0  0  0
  190.9420  177.1760  146.0830 C   0  0  2  0  0  3  0  0  0  0  0  0
  188.6430  174.3280  147.7940 O   0  0  0  0  0  0  0  0  0  0  0  0
  188.9510  177.9290  144.9310 O   0  0  0  0  0  1  0  0  0  0  0  0
  189.3840  174.9540  147.0540 C   0  0  0  0  0  0  0  0  0  0  0  0
  195.3360  169.8780  137.0990 O   0  0  0  0  0  1  0  0  0  0  0  0
  194.7820  170.8780  136.3120 C   0  0  0  0  0  0  0  0  0  0  0  0
  194.8250  170.7810  135.0570 O   0  0  0  0  0  0  0  0  0  0  0  0
  189.8230  173.5130  137.3440 C   0  0  0  0  0  1  0  0  0  0  0  0
  189.7770  172.3050  138.2680 C   0  0  2  0  0  3  0  0  0  0  0  0
  188.4540  172.3090  139.0260 C   0  0  0  0  0  2  0  0  0  0  0  0
  188.3840  173.4750  139.9990 C   0  0  0  0  0  2  0  0  0  0  0  0
  187.9530  173.0270  141.2490 O   0  0  0  0  0  1  0  0  0  0  0  0
  2 22  1  0  0  0  0
  3 43  1  6  0  0  0
  3  4  1  0  0  0  0
  4 21  1  0  0  0  0
  5 10  2  0  0  0  0
  5 16  1  0  0  0  0
  6  9  2  0  0  0  0
  8 13  1  0  0  0  0
  8 19  1  0  0  0  0
  9 15  1  0  0  0  0
 12 14  2  0  0  0  0
 14 13  2  0  0  0  0
 15  3  1  0  0  0  0
 16 24  2  0  0  0  0
 17  7  1  0  0  0  0
 18 40  1  1  0  0  0
 18  9  1  0  0  0  0
 18 10  1  0  0  0  0
 19 26  1  0  0  0  0
 19  1  1  1  0  0  0
 20  7  1  6  0  0  0
 20 11  1  0  0  0  0
 20 25  1  0  0  0  0
 21 12  1  0  0  0  0
 22 11  1  0  0  0  0
 24 17  1  0  0  0  0
 24  2  1  0  0  0  0
 25 19  1  0  0  0  0
 25 23  1  1  0  0  0
 26 33  1  6  0  0  0
 26 29  1  0  0  0  0
 27 30  1  6  0  0  0
 27 26  1  0  0  0  0
 27 35  1  0  0  0  0
 28 34  1  0  0  0  0
 28 38  1  0  0  0  0
 31 29  1  6  0  0  0
 31 32  1  0  0  0  0
 34 37  1  6  0  0  0
 34 35  1  0  0  0  0
 35 31  1  0  0  0  0
 38 32  1  0  0  0  0
 38 36  2  0  0  0  0
 40 39  1  0  0  0  0
 41 40  2  0  0  0  0
 42 43  1  0  0  0  0
 43 44  1  0  0  0  0
 44 45  1  0  0  0  0
 45 46  1  0  0  0  0
M  END
>  <MODEL>
2

>  <REMARK>
 VINA RESULT:      -7.8      2.446      3.614
  Name = 
  5 active torsions:
  status: ('A' for Active; 'I' for Inactive)
    1  A    between atoms: C_1  and  C_35
    2  A    between atoms: C_7  and  C_32
    3  A    between atoms: C_9  and  C_46
    4  A    between atoms: C_25  and  C_30
    5  A    between atoms: C_32  and  C_46
                            x       y       z     vdW  Elec       q    Type
                         _______ _______ _______ _____ _____    ______ ____

>  <TORSDO>
F 5

$$$$
=
 OpenBabel11062419503D

 46 49  0  0  1  0  0  0  0  0999 V2000
  190.8980  170.3830  141.0020 C   0  0  0  0  0  1  0  0  0  0  0  0
  187.4360  175.1650  138.7750 O   0  0  0  0  0  0  0  0  0  0  0  0
  190.8640  175.6640  145.3700 C   0  0  1  0  0  3  0  0  0  0  0  0
  190.0640  174.5290  146.0060 C   0  0  0  0  0  2  0  0  0  0  0  0
  187.3510  177.5930  141.5970 N   0  0  0  0  0  0  0  0  0  0  0  0
  188.6020  177.2980  146.1700 O   0  0  0  0  0  0  0  0  0  0  0  0
  189.5890  174.1770  140.6490 C   0  0  0  0  0  2  0  0  0  0  0  0
  191.9290  172.6330  141.5210 C   0  0  0  0  0  2  0  0  0  0  0  0
  188.8520  177.1970  144.9370 C   0  0  0  0  0  0  0  0  0  0  0  0
  187.8900  177.1080  142.6700 C   0  0  0  0  0  3  0  0  0  0  0  0
  188.1960  172.8500  138.9720 C   0  0  0  0  0  2  0  0  0  0  0  0
  191.0430  172.4980  145.0130 C   0  0  0  0  0  3  0  0  0  0  0  0
  192.3910  172.0620  142.8250 C   0  0  0  0  0  3  0  0  0  0  0  0
  191.7130  172.2850  143.9150 C   0  0  0  0  0  0  0  0  0  0  0  0
  189.9990  176.4560  144.4950 N   0  0  0  0  0  2  0  0  0  0  0  0
  187.2320  176.8920  140.3450 C   0  0  0  0  0  3  0  0  0  0  0  0
  188.2840  174.7770  141.1320 C   0  0  0  0  0  2  0  0  0  0  0  0
  187.9920  177.9110  143.9260 C   0  0  1  0  0  3  0  0  0  0  0  0
  191.6270  171.5970  140.4090 C   0  0  2  0  0  0  0  0  0  0  0  0
  189.3600  172.8170  139.9820 C   0  0  1  0  0  3  0  0  0  0  0  0
  189.8550  173.3970  145.0150 C   0  0  0  0  0  2  0  0  0  0  0  0
  188.1910  174.1290  138.1430 C   0  0  0  0  0  2  0  0  0  0  0  0
  190.4010  171.4200  138.3040 O   0  0  0  0  0  1  0  0  0  0  0  0
  187.6560  175.6460  140.0750 C   0  0  0  0  0  0  0  0  0  0  0  0
  190.6780  172.2820  139.3720 C   0  0  2  0  0  3  0  0  0  0  0  0
  192.9740  171.1590  139.7240 C   0  0  1  0  0  0  0  0  0  0  0  0
  194.2060  171.8440  140.3520 C   0  0  2  0  0  3  0  0  0  0  0  0
  195.9980  170.8820  142.8280 C   0  0  0  0  0  2  0  0  0  0  0  0
  193.2460  169.6500  139.8620 C   0  0  0  0  0  2  0  0  0  0  0  0
  194.6260  172.9470  139.6030 O   0  0  0  0  0  1  0  0  0  0  0  0
  194.5570  169.4660  140.6050 C   0  0  2  0  0  3  0  0  0  0  0  0
  194.2200  169.1880  142.0780 C   0  0  0  0  0  2  0  0  0  0  0  0
  192.9150  171.4510  138.3550 O   0  0  0  0  0  1  0  0  0  0  0  0
  196.4330  171.0450  141.3800 C   0  0  1  0  0  3  0  0  0  0  0  0
  195.2900  170.7880  140.3810 C   0  0  2  0  0  3  0  0  0  0  0  0
  195.7090  168.7840  143.8650 O   0  0  0  0  0  0  0  0  0  0  0  0
  196.9910  172.3110  141.1850 O   0  0  0  0  0  1  0  0  0  0  0  0
  195.3520  169.5470  142.9830 C   0  0  0  0  0  0  0  0  0  0  0  0
  185.7150  177.2020  144.6660 O   0  0  0  0  0  0  0  0  0  0  0  0
  186.6260  178.2290  144.4600 C   0  0  0  0  0  0  0  0  0  0  0  0
  186.2980  179.4160  144.7230 O   0  0  0  0  0  1  0  0  0  0  0  0
  193.0540  176.4690  146.2850 C   0  0  0  0  0  1  0  0  0  0  0  0
  191.5420  176.5390  146.4310 C   0  0  2  0  0  3  0  0  0  0  0  0
  191.1550  176.0760  147.8320 C   0  0  0  0  0  2  0  0  0  0  0  0
  191.5660  177.0980  148.8790 C   0  0  0  0  0  2  0  0  0  0  0  0
  190.7720  178.2400  148.7670 O   0  0  0  0  0  1  0  0  0  0  0  0
  2 24  1  0  0  0  0
  3  4  1  0  0  0  0
  3 43  1  1  0  0  0
  5 10  2  0  0  0  0
  7 17  1  0  0  0  0
  8 13  1  0  0  0  0
  9  6  2  0  0  0  0
 10 18  1  0  0  0  0
 12 21  1  0  0  0  0
 13 14  2  0  0  0  0
 14 12  2  0  0  0  0
 15  9  1  0  0  0  0
 15  3  1  0  0  0  0
 16  5  1  0  0  0  0
 18 40  1  1  0  0  0
 18  9  1  0  0  0  0
 19  1  1  1  0  0  0
 19  8  1  0  0  0  0
 20 11  1  6  0  0  0
 20  7  1  0  0  0  0
 21  4  1  0  0  0  0
 22  2  1  0  0  0  0
 22 11  1  0  0  0  0
 24 16  2  0  0  0  0
 24 17  1  0  0  0  0
 25 23  1  6  0  0  0
 25 20  1  0  0  0  0
 25 19  1  0  0  0  0
 26 33  1  6  0  0  0
 26 29  1  0  0  0  0
 26 27  1  0  0  0  0
 26 19  1  0  0  0  0
 27 30  1  6  0  0  0
 27 35  1  0  0  0  0
 28 38  1  0  0  0  0
 31 29  1  6  0  0  0
 31 32  1  0  0  0  0
 32 38  1  0  0  0  0
 34 37  1  1  0  0  0
 34 28  1  0  0  0  0
 35 31  1  0  0  0  0
 35 34  1  0  0  0  0
 38 36  2  0  0  0  0
 40 39  2  0  0  0  0
 40 41  1  0  0  0  0
 42 43  1  0  0  0  0
 43 44  1  0  0  0  0
 44 45  1  0  0  0  0
 46 45  1  0  0  0  0
M  END
>  <MODEL>
3

>  <REMARK>
 VINA RESULT:      -7.3      2.669      9.711
  Name = 
  5 active torsions:
  status: ('A' for Active; 'I' for Inactive)
    1  A    between atoms: C_1  and  C_35
    2  A    between atoms: C_7  and  C_32
    3  A    between atoms: C_9  and  C_46
    4  A    between atoms: C_25  and  C_30
    5  A    between atoms: C_32  and  C_46
                            x       y       z     vdW  Elec       q    Type
                         _______ _______ _______ _____ _____    ______ ____

>  <TORSDO>
F 5

$$$$
=
 OpenBabel11062419503D

 46 49  0  0  1  0  0  0  0  0999 V2000
  190.1880  170.8760  139.6260 C   0  0  0  0  0  1  0  0  0  0  0  0
  188.1330  175.6600  143.1910 O   0  0  0  0  0  0  0  0  0  0  0  0
  195.4220  174.4300  142.2610 C   0  0  1  0  0  3  0  0  0  0  0  0
  195.3990  173.0630  142.9410 C   0  0  0  0  0  2  0  0  0  0  0  0
  191.2390  177.0240  144.7270 N   0  0  0  0  0  0  0  0  0  0  0  0
  195.7080  175.4320  144.9710 O   0  0  0  0  0  0  0  0  0  0  0  0
  190.3550  174.3930  141.5840 C   0  0  0  0  0  2  0  0  0  0  0  0
  191.6120  172.9490  139.3580 C   0  0  0  0  0  2  0  0  0  0  0  0
  194.6760  175.7640  144.3240 C   0  0  0  0  0  0  0  0  0  0  0  0
  192.2730  176.2900  144.4640 C   0  0  0  0  0  3  0  0  0  0  0  0
  188.0010  173.5140  142.0260 C   0  0  0  0  0  2  0  0  0  0  0  0
  194.3600  171.5930  141.2590 C   0  0  0  0  0  3  0  0  0  0  0  0
  192.8010  172.0500  139.2200 C   0  0  0  0  0  3  0  0  0  0  0  0
  193.5770  171.8270  140.2430 C   0  0  0  0  0  0  0  0  0  0  0  0
  194.5210  175.3500  142.9580 N   0  0  0  0  0  2  0  0  0  0  0  0
  189.8990  176.7530  144.2750 C   0  0  0  0  0  3  0  0  0  0  0  0
  190.4520  174.6420  143.0760 C   0  0  0  0  0  2  0  0  0  0  0  0
  193.6360  176.6540  144.9550 C   0  0  1  0  0  3  0  0  0  0  0  0
  190.2430  172.2960  139.0430 C   0  0  2  0  0  0  0  0  0  0  0  0
  189.3270  173.3010  141.2710 C   0  0  1  0  0  3  0  0  0  0  0  0
  194.1480  172.2920  142.5570 C   0  0  0  0  0  2  0  0  0  0  0  0
  187.5870  174.9810  142.0570 C   0  0  0  0  0  2  0  0  0  0  0  0
  187.8630  172.6550  139.4580 O   0  0  0  0  0  1  0  0  0  0  0  0
  189.4980  175.7210  143.5150 C   0  0  0  0  0  0  0  0  0  0  0  0
  189.1390  173.1550  139.7410 C   0  0  2  0  0  3  0  0  0  0  0  0
  190.0230  172.2680  137.4860 C   0  0  1  0  0  0  0  0  0  0  0  0
  191.2790  172.7100  136.7050 C   0  0  2  0  0  3  0  0  0  0  0  0
  193.7280  170.9280  135.6600 C   0  0  0  0  0  2  0  0  0  0  0  0
  189.7030  170.8580  136.9570 C   0  0  0  0  0  2  0  0  0  0  0  0
  191.2010  174.0490  136.3100 O   0  0  0  0  0  1  0  0  0  0  0  0
  190.7740  170.4690  135.9540 C   0  0  2  0  0  3  0  0  0  0  0  0
  191.7950  169.5850  136.6870 C   0  0  0  0  0  2  0  0  0  0  0  0
  188.9430  173.0960  137.1550 O   0  0  0  0  0  1  0  0  0  0  0  0
  192.7240  171.7040  134.8200 C   0  0  1  0  0  3  0  0  0  0  0  0
  191.3420  171.8090  135.4900 C   0  0  2  0  0  3  0  0  0  0  0  0
  193.7420  168.5750  135.8150 O   0  0  0  0  0  0  0  0  0  0  0  0
  193.2290  172.9690  134.5150 O   0  0  0  0  0  1  0  0  0  0  0  0
  193.1300  169.6100  136.0180 C   0  0  0  0  0  0  0  0  0  0  0  0
  193.0260  175.5970  147.1340 O   0  0  0  0  0  1  0  0  0  0  0  0
  193.6830  176.6140  146.4540 C   0  0  0  0  0  0  0  0  0  0  0  0
  194.3120  177.4930  147.1020 O   0  0  0  0  0  0  0  0  0  0  0  0
  196.8510  176.2990  141.3950 C   0  0  0  0  0  1  0  0  0  0  0  0
  196.8440  174.9940  142.1780 C   0  0  2  0  0  3  0  0  0  0  0  0
  197.7750  173.9990  141.4920 C   0  0  0  0  0  2  0  0  0  0  0  0
  197.9310  174.3230  140.0150 C   0  0  0  0  0  2  0  0  0  0  0  0
  197.1190  173.4820  139.2540 O   0  0  0  0  0  1  0  0  0  0  0  0
  2 24  1  0  0  0  0
  3 43  1  1  0  0  0
  3  4  1  0  0  0  0
  3 15  1  0  0  0  0
  7 17  1  0  0  0  0
  9 18  1  0  0  0  0
  9  6  2  0  0  0  0
 10  5  2  0  0  0  0
 10 18  1  0  0  0  0
 11 22  1  0  0  0  0
 12 21  1  0  0  0  0
 13  8  1  0  0  0  0
 13 14  2  0  0  0  0
 14 12  2  0  0  0  0
 15  9  1  0  0  0  0
 16  5  1  0  0  0  0
 17 24  1  0  0  0  0
 18 40  1  1  0  0  0
 19  8  1  0  0  0  0
 19  1  1  1  0  0  0
 19 25  1  0  0  0  0
 20  7  1  6  0  0  0
 20 11  1  0  0  0  0
 21  4  1  0  0  0  0
 22  2  1  0  0  0  0
 24 16  2  0  0  0  0
 25 23  1  1  0  0  0
 25 20  1  0  0  0  0
 26 33  1  6  0  0  0
 26 19  1  0  0  0  0
 27 30  1  6  0  0  0
 27 26  1  0  0  0  0
 28 38  1  0  0  0  0
 29 26  1  0  0  0  0
 31 32  1  1  0  0  0
 31 29  1  0  0  0  0
 34 37  1  1  0  0  0
 34 35  1  0  0  0  0
 34 28  1  0  0  0  0
 35 31  1  0  0  0  0
 35 27  1  0  0  0  0
 36 38  2  0  0  0  0
 38 32  1  0  0  0  0
 40 41  2  0  0  0  0
 40 39  1  0  0  0  0
 42 43  1  0  0  0  0
 44 43  1  0  0  0  0
 45 44  1  0  0  0  0
 46 45  1  0  0  0  0
M  END
>  <MODEL>
4

>  <REMARK>
 VINA RESULT:      -7.3      2.714      8.766
  Name = 
  5 active torsions:
  status: ('A' for Active; 'I' for Inactive)
    1  A    between atoms: C_1  and  C_35
    2  A    between atoms: C_7  and  C_32
    3  A    between atoms: C_9  and  C_46
    4  A    between atoms: C_25  and  C_30
    5  A    between atoms: C_32  and  C_46
                            x       y       z     vdW  Elec       q    Type
                         _______ _______ _______ _____ _____    ______ ____

>  <TORSDO>
F 5

$$$$
=
 OpenBabel11062419503D

 46 49  0  0  1  0  0  0  0  0999 V2000
  190.9730  170.3990  140.5970 C   0  0  0  0  0  1  0  0  0  0  0  0
  187.4160  175.1810  138.5260 O   0  0  0  0  0  0  0  0  0  0  0  0
  190.8620  175.5450  145.1220 C   0  0  1  0  0  3  0  0  0  0  0  0
  190.0840  174.3780  145.7260 C   0  0  0  0  0  2  0  0  0  0  0  0
  187.2980  177.5220  141.4210 N   0  0  0  0  0  0  0  0  0  0  0  0
  188.5740  177.1130  145.9780 O   0  0  0  0  0  0  0  0  0  0  0  0
  189.5940  174.1770  140.3630 C   0  0  0  0  0  2  0  0  0  0  0  0
  191.9650  172.6510  141.1790 C   0  0  0  0  0  2  0  0  0  0  0  0
  188.8200  177.0540  144.7420 C   0  0  0  0  0  0  0  0  0  0  0  0
  187.8500  177.0150  142.4770 C   0  0  0  0  0  3  0  0  0  0  0  0
  188.2180  172.8750  138.6520 C   0  0  0  0  0  2  0  0  0  0  0  0
  191.0960  172.3950  144.6690 C   0  0  0  0  0  3  0  0  0  0  0  0
  192.4420  172.0500  142.4640 C   0  0  0  0  0  3  0  0  0  0  0  0
  191.7650  172.2270  143.5630 C   0  0  0  0  0  0  0  0  0  0  0  0
  189.9790  176.3480  144.2740 N   0  0  0  0  0  2  0  0  0  0  0  0
  187.1870  176.8570  140.1480 C   0  0  0  0  0  3  0  0  0  0  0  0
  188.2800  174.7380  140.8680 C   0  0  0  0  0  2  0  0  0  0  0  0
  187.9430  177.7820  143.7550 C   0  0  1  0  0  3  0  0  0  0  0  0
  191.6780  171.6430  140.0380 C   0  0  2  0  0  0  0  0  0  0  0  0
  189.3860  172.8340  139.6570 C   0  0  1  0  0  3  0  0  0  0  0  0
  189.8920  173.2720  144.7030 C   0  0  0  0  0  2  0  0  0  0  0  0
  188.1870  174.1780  137.8620 C   0  0  0  0  0  2  0  0  0  0  0  0
  190.4460  171.5060  137.9340 O   0  0  0  0  0  1  0  0  0  0  0  0
  187.6320  175.6270  139.8400 C   0  0  0  0  0  0  0  0  0  0  0  0
  190.7120  172.3410  139.0260 C   0  0  2  0  0  3  0  0  0  0  0  0
  193.0300  171.2500  139.3350 C   0  0  1  0  0  0  0  0  0  0  0  0
  192.8110  170.6550  137.9290 C   0  0  2  0  0  3  0  0  0  0  0  0
  192.6310  172.1680  135.1100 C   0  0  0  0  0  2  0  0  0  0  0  0
  193.9570  172.4580  139.1160 C   0  0  0  0  0  2  0  0  0  0  0  0
  192.8520  169.2570  137.9430 O   0  0  0  0  0  1  0  0  0  0  0  0
  194.2140  172.5990  137.6260 C   0  0  2  0  0  3  0  0  0  0  0  0
  193.2580  173.6770  137.0910 C   0  0  0  0  0  2  0  0  0  0  0  0
  193.7180  170.3310  140.1380 O   0  0  0  0  0  1  0  0  0  0  0  0
  193.6860  171.1670  135.5560 C   0  0  1  0  0  3  0  0  0  0  0  0
  193.9360  171.2020  137.0750 C   0  0  2  0  0  3  0  0  0  0  0  0
  193.0510  174.4770  134.8800 O   0  0  0  0  0  0  0  0  0  0  0  0
  193.3370  169.8820  135.1360 O   0  0  0  0  0  1  0  0  0  0  0  0
  193.0040  173.5150  135.6290 C   0  0  0  0  0  0  0  0  0  0  0  0
  185.6680  177.0160  144.4440 O   0  0  0  0  0  0  0  0  0  0  0  0
  186.5730  178.0580  144.3040 C   0  0  0  0  0  0  0  0  0  0  0  0
  186.2380  179.2260  144.6370 O   0  0  0  0  0  1  0  0  0  0  0  0
  193.0280  176.4810  145.9670 C   0  0  0  0  0  1  0  0  0  0  0  0
  191.5270  176.4000  146.2060 C   0  0  2  0  0  3  0  0  0  0  0  0
  191.2740  175.8040  147.5870 C   0  0  0  0  0  2  0  0  0  0  0  0
  191.4360  176.8550  148.6740 C   0  0  0  0  0  2  0  0  0  0  0  0
  190.6470  177.9680  148.3810 O   0  0  0  0  0  1  0  0  0  0  0  0
  2 24  1  0  0  0  0
  3  4  1  0  0  0  0
  3 43  1  1  0  0  0
  5 10  2  0  0  0  0
  7 17  1  0  0  0  0
  8 13  1  0  0  0  0
  9  6  2  0  0  0  0
 10 18  1  0  0  0  0
 12 21  1  0  0  0  0
 13 14  2  0  0  0  0
 14 12  2  0  0  0  0
 15  9  1  0  0  0  0
 15  3  1  0  0  0  0
 16  5  1  0  0  0  0
 18 40  1  1  0  0  0
 18  9  1  0  0  0  0
 19  1  1  1  0  0  0
 19  8  1  0  0  0  0
 20 11  1  6  0  0  0
 20  7  1  0  0  0  0
 21  4  1  0  0  0  0
 22  2  1  0  0  0  0
 22 11  1  0  0  0  0
 24 16  2  0  0  0  0
 24 17  1  0  0  0  0
 25 23  1  6  0  0  0
 25 20  1  0  0  0  0
 25 19  1  0  0  0  0
 26 19  1  0  0  0  0
 26 33  1  1  0  0  0
 27 30  1  1  0  0  0
 27 26  1  0  0  0  0
 28 34  1  0  0  0  0
 28 38  1  0  0  0  0
 29 26  1  0  0  0  0
 31 32  1  6  0  0  0
 31 29  1  0  0  0  0
 34 37  1  1  0  0  0
 34 35  1  0  0  0  0
 35 31  1  0  0  0  0
 35 27  1  0  0  0  0
 36 38  2  0  0  0  0
 38 32  1  0  0  0  0
 40 39  2  0  0  0  0
 40 41  1  0  0  0  0
 42 43  1  0  0  0  0
 43 44  1  0  0  0  0
 44 45  1  0  0  0  0
 46 45  1  0  0  0  0
M  END
>  <MODEL>
5

>  <REMARK>
 VINA RESULT:      -7.1      2.928      9.819
  Name = 
  5 active torsions:
  status: ('A' for Active; 'I' for Inactive)
    1  A    between atoms: C_1  and  C_35
    2  A    between atoms: C_7  and  C_32
    3  A    between atoms: C_9  and  C_46
    4  A    between atoms: C_25  and  C_30
    5  A    between atoms: C_32  and  C_46
                            x       y       z     vdW  Elec       q    Type
                         _______ _______ _______ _____ _____    ______ ____

>  <TORSDO>
F 5

$$$$
=
 OpenBabel11062419503D

 46 49  0  0  1  0  0  0  0  0999 V2000
  189.6590  174.6560  144.7050 C   0  0  0  0  0  1  0  0  0  0  0  0
  195.8390  173.3950  144.8450 O   0  0  0  0  0  0  0  0  0  0  0  0
  191.7620  171.9070  138.7900 C   0  0  1  0  0  3  0  0  0  0  0  0
  190.8780  170.8780  139.4920 C   0  0  0  0  0  2  0  0  0  0  0  0
  196.4470  171.5640  141.6600 N   0  0  0  0  0  0  0  0  0  0  0  0
  193.5540  169.6540  138.4120 O   0  0  0  0  0  0  0  0  0  0  0  0
  193.3290  173.8810  143.2370 C   0  0  0  0  0  2  0  0  0  0  0  0
  190.7840  175.1420  142.4930 C   0  0  0  0  0  2  0  0  0  0  0  0
  193.9630  170.6240  139.1080 C   0  0  0  0  0  0  0  0  0  0  0  0
  195.3450  171.3030  141.0320 C   0  0  0  0  0  3  0  0  0  0  0  0
  193.6220  173.8480  145.7710 C   0  0  0  0  0  2  0  0  0  0  0  0
  189.3650  172.2540  140.8670 C   0  0  0  0  0  3  0  0  0  0  0  0
  189.5340  174.6760  141.8140 C   0  0  0  0  0  3  0  0  0  0  0  0
  189.4570  173.4640  141.3420 C   0  0  0  0  0  0  0  0  0  0  0  0
  193.1400  171.7900  139.2680 N   0  0  0  0  0  2  0  0  0  0  0  0
  196.5350  172.2570  142.9190 C   0  0  0  0  0  3  0  0  0  0  0  0
  194.0830  172.5660  143.2160 C   0  0  0  0  0  2  0  0  0  0  0  0
  195.3420  170.5970  139.7160 C   0  0  1  0  0  3  0  0  0  0  0  0
  190.6130  175.6020  143.9630 C   0  0  2  0  0  0  0  0  0  0  0  0
  192.6630  174.1160  144.5960 C   0  0  1  0  0  3  0  0  0  0  0  0
  190.5360  171.3340  140.9000 C   0  0  0  0  0  2  0  0  0  0  0  0
  195.0270  174.3730  145.4970 C   0  0  0  0  0  2  0  0  0  0  0  0
  191.9510  175.9740  145.9710 O   0  0  0  0  0  1  0  0  0  0  0  0
  195.5150  172.7480  143.6410 C   0  0  0  0  0  0  0  0  0  0  0  0
  192.0160  175.5210  144.6480 C   0  0  2  0  0  3  0  0  0  0  0  0
  190.0660  177.0780  143.9880 C   0  0  1  0  0  0  0  0  0  0  0  0
  188.7910  177.2480  143.1360 C   0  0  2  0  0  3  0  0  0  0  0  0
  185.7290  176.8720  144.0010 C   0  0  0  0  0  2  0  0  0  0  0  0
  189.6650  177.5370  145.4010 C   0  0  0  0  0  2  0  0  0  0  0  0
  189.0750  177.7790  141.8740 O   0  0  0  0  0  1  0  0  0  0  0  0
  188.1900  177.8980  145.3850 C   0  0  2  0  0  3  0  0  0  0  0  0
  187.4120  176.6920  145.9330 C   0  0  0  0  0  2  0  0  0  0  0  0
  191.0630  177.9490  143.5300 O   0  0  0  0  0  1  0  0  0  0  0  0
  186.4100  178.1540  143.5460 C   0  0  1  0  0  3  0  0  0  0  0  0
  187.9050  178.1970  143.9150 C   0  0  2  0  0  3  0  0  0  0  0  0
  185.0810  176.4730  146.2330 O   0  0  0  0  0  0  0  0  0  0  0  0
  186.2280  178.3320  142.1730 O   0  0  0  0  0  1  0  0  0  0  0  0
  185.9970  176.6820  145.4560 C   0  0  0  0  0  0  0  0  0  0  0  0
  195.3750  168.3850  140.8750 O   0  0  0  0  0  1  0  0  0  0  0  0
  195.8720  169.2010  139.8680 C   0  0  0  0  0  0  0  0  0  0  0  0
  196.7620  168.7630  139.0910 O   0  0  0  0  0  0  0  0  0  0  0  0
  192.2940  172.9900  136.5930 C   0  0  0  0  0  1  0  0  0  0  0  0
  191.6840  171.7690  137.2650 C   0  0  2  0  0  3  0  0  0  0  0  0
  190.2330  171.6270  136.8150 C   0  0  0  0  0  2  0  0  0  0  0  0
  189.9550  172.4810  135.5890 C   0  0  0  0  0  2  0  0  0  0  0  0
  189.1310  171.7880  134.7020 O   0  0  0  0  0  1  0  0  0  0  0  0
  2 22  1  0  0  0  0
  3 43  1  6  0  0  0
  3 15  1  0  0  0  0
  3  4  1  0  0  0  0
  4 21  1  0  0  0  0
  5 16  1  0  0  0  0
  6  9  2  0  0  0  0
  8 19  1  0  0  0  0
  9 15  1  0  0  0  0
  9 18  1  0  0  0  0
 10  5  2  0  0  0  0
 12 21  1  0  0  0  0
 12 14  2  0  0  0  0
 13  8  1  0  0  0  0
 14 13  2  0  0  0  0
 16 24  2  0  0  0  0
 17  7  1  0  0  0  0
 17 24  1  0  0  0  0
 18 40  1  1  0  0  0
 18 10  1  0  0  0  0
 19 26  1  0  0  0  0
 19 25  1  0  0  0  0
 19  1  1  1  0  0  0
 20  7  1  6  0  0  0
 20 25  1  0  0  0  0
 20 11  1  0  0  0  0
 22 11  1  0  0  0  0
 24  2  1  0  0  0  0
 25 23  1  1  0  0  0
 26 33  1  6  0  0  0
 26 29  1  0  0  0  0
 27 30  1  6  0  0  0
 27 35  1  0  0  0  0
 27 26  1  0  0  0  0
 28 38  1  0  0  0  0
 31 29  1  6  0  0  0
 31 32  1  0  0  0  0
 34 37  1  6  0  0  0
 34 35  1  0  0  0  0
 34 28  1  0  0  0  0
 35 31  1  0  0  0  0
 38 32  1  0  0  0  0
 38 36  2  0  0  0  0
 40 39  1  0  0  0  0
 41 40  2  0  0  0  0
 42 43  1  0  0  0  0
 44 43  1  0  0  0  0
 45 44  1  0  0  0  0
 46 45  1  0  0  0  0
M  END
>  <MODEL>
6

>  <REMARK>
 VINA RESULT:      -7.1      1.232      1.305
  Name = 
  5 active torsions:
  status: ('A' for Active; 'I' for Inactive)
    1  A    between atoms: C_1  and  C_35
    2  A    between atoms: C_7  and  C_32
    3  A    between atoms: C_9  and  C_46
    4  A    between atoms: C_25  and  C_30
    5  A    between atoms: C_32  and  C_46
                            x       y       z     vdW  Elec       q    Type
                         _______ _______ _______ _____ _____    ______ ____

>  <TORSDO>
F 5

$$$$
=
 OpenBabel11062419503D

 46 49  0  0  1  0  0  0  0  0999 V2000
  191.1270  170.7720  140.5960 C   0  0  0  0  0  1  0  0  0  0  0  0
  187.3040  175.4450  138.7660 O   0  0  0  0  0  0  0  0  0  0  0  0
  190.8860  175.7590  145.2910 C   0  0  1  0  0  3  0  0  0  0  0  0
  190.1780  174.5380  145.8730 C   0  0  0  0  0  2  0  0  0  0  0  0
  187.1470  177.6830  141.7380 N   0  0  0  0  0  0  0  0  0  0  0  0
  188.5490  177.1890  146.2500 O   0  0  0  0  0  0  0  0  0  0  0  0
  189.5700  174.4860  140.5180 C   0  0  0  0  0  2  0  0  0  0  0  0
  192.0280  173.0480  141.2310 C   0  0  0  0  0  2  0  0  0  0  0  0
  188.7680  177.1810  145.0070 C   0  0  0  0  0  0  0  0  0  0  0  0
  187.7470  177.1700  142.7640 C   0  0  0  0  0  3  0  0  0  0  0  0
  188.2150  173.1770  138.7970 C   0  0  0  0  0  2  0  0  0  0  0  0
  191.2550  172.6400  144.7280 C   0  0  0  0  0  3  0  0  0  0  0  0
  192.5630  172.4290  142.4840 C   0  0  0  0  0  3  0  0  0  0  0  0
  191.9050  172.5390  143.6030 C   0  0  0  0  0  0  0  0  0  0  0  0
  189.9470  176.5460  144.4900 N   0  0  0  0  0  2  0  0  0  0  0  0
  187.0370  177.0550  140.4470 C   0  0  0  0  0  3  0  0  0  0  0  0
  188.2430  174.9680  141.0710 C   0  0  0  0  0  2  0  0  0  0  0  0
  187.8350  177.8980  144.0650 C   0  0  1  0  0  3  0  0  0  0  0  0
  191.7600  172.0650  140.0630 C   0  0  2  0  0  0  0  0  0  0  0  0
  189.4080  173.1580  139.7730 C   0  0  1  0  0  3  0  0  0  0  0  0
  190.0130  173.4570  144.8180 C   0  0  0  0  0  2  0  0  0  0  0  0
  188.1050  174.5020  138.0510 C   0  0  0  0  0  2  0  0  0  0  0  0
  190.4860  171.9380  137.9830 O   0  0  0  0  0  1  0  0  0  0  0  0
  187.5310  175.8590  140.0880 C   0  0  0  0  0  0  0  0  0  0  0  0
  190.7390  172.7490  139.0960 C   0  0  2  0  0  3  0  0  0  0  0  0
  193.1120  171.7590  139.3180 C   0  0  1  0  0  0  0  0  0  0  0  0
  193.6830  172.9990  138.5990 C   0  0  2  0  0  3  0  0  0  0  0  0
  195.6630  175.2480  139.7350 C   0  0  0  0  0  2  0  0  0  0  0  0
  194.2280  171.3060  140.2760 C   0  0  0  0  0  2  0  0  0  0  0  0
  193.3720  173.0000  137.2360 O   0  0  0  0  0  1  0  0  0  0  0  0
  195.3800  172.2880  140.1660 C   0  0  2  0  0  3  0  0  0  0  0  0
  195.2570  173.2790  141.3340 C   0  0  0  0  0  2  0  0  0  0  0  0
  192.9070  170.7270  138.3930 O   0  0  0  0  0  1  0  0  0  0  0  0
  195.9340  174.2600  138.6110 C   0  0  1  0  0  3  0  0  0  0  0  0
  195.1830  172.9280  138.7940 C   0  0  2  0  0  3  0  0  0  0  0  0
  196.6690  175.0950  141.8630 O   0  0  0  0  0  0  0  0  0  0  0  0
  195.6300  174.8400  137.3780 O   0  0  0  0  0  1  0  0  0  0  0  0
  195.9390  174.5740  141.0370 C   0  0  0  0  0  0  0  0  0  0  0  0
  185.6350  176.9960  144.8270 O   0  0  0  0  0  0  0  0  0  0  0  0
  186.4670  178.0920  144.6530 C   0  0  0  0  0  0  0  0  0  0  0  0
  186.0690  179.2390  144.9890 O   0  0  0  0  0  1  0  0  0  0  0  0
  193.0520  176.5540  146.2690 C   0  0  0  0  0  1  0  0  0  0  0  0
  191.5370  176.6090  146.3870 C   0  0  2  0  0  3  0  0  0  0  0  0
  191.1280  176.1050  147.7680 C   0  0  0  0  0  2  0  0  0  0  0  0
  191.4890  177.1130  148.8470 C   0  0  0  0  0  2  0  0  0  0  0  0
  190.6820  178.2460  148.7300 O   0  0  0  0  0  1  0  0  0  0  0  0
  2 24  1  0  0  0  0
  3  4  1  0  0  0  0
  3 43  1  1  0  0  0
  5 10  2  0  0  0  0
  7 17  1  0  0  0  0
  8 13  1  0  0  0  0
  9  6  2  0  0  0  0
 10 18  1  0  0  0  0
 12 21  1  0  0  0  0
 13 14  2  0  0  0  0
 14 12  2  0  0  0  0
 15  9  1  0  0  0  0
 15  3  1  0  0  0  0
 16  5  1  0  0  0  0
 18 40  1  1  0  0  0
 18  9  1  0  0  0  0
 19  1  1  1  0  0  0
 19  8  1  0  0  0  0
 20 11  1  6  0  0  0
 20  7  1  0  0  0  0
 21  4  1  0  0  0  0
 22  2  1  0  0  0  0
 22 11  1  0  0  0  0
 24 16  2  0  0  0  0
 24 17  1  0  0  0  0
 25 23  1  6  0  0  0
 25 20  1  0  0  0  0
 25 19  1  0  0  0  0
 26 33  1  6  0  0  0
 26 19  1  0  0  0  0
 26 29  1  0  0  0  0
 27 30  1  6  0  0  0
 27 35  1  0  0  0  0
 27 26  1  0  0  0  0
 28 38  1  0  0  0  0
 31 29  1  1  0  0  0
 31 32  1  0  0  0  0
 34 37  1  6  0  0  0
 34 35  1  0  0  0  0
 34 28  1  0  0  0  0
 35 31  1  0  0  0  0
 38 32  1  0  0  0  0
 38 36  2  0  0  0  0
 40 39  2  0  0  0  0
 40 41  1  0  0  0  0
 42 43  1  0  0  0  0
 43 44  1  0  0  0  0
 44 45  1  0  0  0  0
 46 45  1  0  0  0  0
M  END
>  <MODEL>
7

>  <REMARK>
 VINA RESULT:      -7.0      3.084      9.532
  Name = 
  5 active torsions:
  status: ('A' for Active; 'I' for Inactive)
    1  A    between atoms: C_1  and  C_35
    2  A    between atoms: C_7  and  C_32
    3  A    between atoms: C_9  and  C_46
    4  A    between atoms: C_25  and  C_30
    5  A    between atoms: C_32  and  C_46
                            x       y       z     vdW  Elec       q    Type
                         _______ _______ _______ _____ _____    ______ ____

>  <TORSDO>
F 5

$$$$
=
 OpenBabel11062419503D

 46 49  0  0  1  0  0  0  0  0999 V2000
  191.8900  170.5700  139.8760 C   0  0  0  0  0  1  0  0  0  0  0  0
  187.7800  175.3040  140.5860 O   0  0  0  0  0  0  0  0  0  0  0  0
  193.7160  174.6820  145.0450 C   0  0  1  0  0  3  0  0  0  0  0  0
  193.2740  173.3500  145.6450 C   0  0  0  0  0  2  0  0  0  0  0  0
  188.9080  177.0020  143.7020 N   0  0  0  0  0  0  0  0  0  0  0  0
  192.0120  175.8220  147.1000 O   0  0  0  0  0  0  0  0  0  0  0  0
  190.5370  174.1690  141.0760 C   0  0  0  0  0  2  0  0  0  0  0  0
  193.0320  172.7460  140.4710 C   0  0  0  0  0  2  0  0  0  0  0  0
  191.7060  176.0340  145.8930 C   0  0  0  0  0  0  0  0  0  0  0  0
  189.8600  176.3520  144.2920 C   0  0  0  0  0  3  0  0  0  0  0  0
  188.5640  173.1060  139.8550 C   0  0  0  0  0  2  0  0  0  0  0  0
  193.7400  171.7220  143.8550 C   0  0  0  0  0  3  0  0  0  0  0  0
  194.0150  171.9510  141.2730 C   0  0  0  0  0  3  0  0  0  0  0  0
  193.8730  171.8420  142.5630 C   0  0  0  0  0  0  0  0  0  0  0  0
  192.5540  175.5480  144.8420 N   0  0  0  0  0  2  0  0  0  0  0  0
  188.2650  176.5950  142.4800 C   0  0  0  0  0  3  0  0  0  0  0  0
  189.5640  174.4910  142.1930 C   0  0  0  0  0  2  0  0  0  0  0  0
  190.4890  176.8550  145.5500 C   0  0  1  0  0  3  0  0  0  0  0  0
  192.2860  171.9620  139.3630 C   0  0  2  0  0  0  0  0  0  0  0  0
  190.0500  172.9790  140.2440 C   0  0  1  0  0  3  0  0  0  0  0  0
  192.6650  172.4550  144.5790 C   0  0  0  0  0  2  0  0  0  0  0  0
  188.1950  174.5310  139.4570 C   0  0  0  0  0  2  0  0  0  0  0  0
  190.2720  172.1270  137.9910 O   0  0  0  0  0  1  0  0  0  0  0  0
  188.5370  175.4990  141.7530 C   0  0  0  0  0  0  0  0  0  0  0  0
  190.9790  172.7500  139.0260 C   0  0  2  0  0  3  0  0  0  0  0  0
  193.2080  171.8470  138.0930 C   0  0  1  0  0  0  0  0  0  0  0  0
  194.5430  172.6010  138.2640 C   0  0  2  0  0  3  0  0  0  0  0  0
  197.3130  171.5370  139.4730 C   0  0  0  0  0  2  0  0  0  0  0  0
  193.6090  170.3940  137.7810 C   0  0  0  0  0  2  0  0  0  0  0  0
  194.5110  173.8600  137.6570 O   0  0  0  0  0  1  0  0  0  0  0  0
  195.1230  170.2940  137.8350 C   0  0  2  0  0  3  0  0  0  0  0  0
  195.5010  169.7360  139.2160 C   0  0  0  0  0  2  0  0  0  0  0  0
  192.5230  172.3430  136.9760 O   0  0  0  0  0  1  0  0  0  0  0  0
  197.0420  171.9940  138.0480 C   0  0  1  0  0  3  0  0  0  0  0  0
  195.5910  171.7290  137.6040 C   0  0  2  0  0  3  0  0  0  0  0  0
  197.6550  169.2800  140.0670 O   0  0  0  0  0  0  0  0  0  0  0  0
  197.3700  173.3430  137.9050 O   0  0  0  0  0  1  0  0  0  0  0  0
  196.8930  170.1120  139.6040 C   0  0  0  0  0  0  0  0  0  0  0  0
  188.6870  175.7740  146.8980 O   0  0  0  0  0  0  0  0  0  0  0  0
  189.4860  176.8850  146.6650 C   0  0  0  0  0  0  0  0  0  0  0  0
  189.3610  177.9070  147.3910 O   0  0  0  0  0  1  0  0  0  0  0  0
  195.0900  176.7530  145.3710 C   0  0  0  0  0  1  0  0  0  0  0  0
  194.7800  175.3650  145.9110 C   0  0  2  0  0  3  0  0  0  0  0  0
  196.0640  174.5410  145.9310 C   0  0  0  0  0  2  0  0  0  0  0  0
  196.7250  174.5260  144.5620 C   0  0  0  0  0  2  0  0  0  0  0  0
  196.9030  173.2100  144.1340 O   0  0  0  0  0  1  0  0  0  0  0  0
  2 24  1  0  0  0  0
  3  4  1  0  0  0  0
  3 43  1  1  0  0  0
  5 10  2  0  0  0  0
  7 17  1  0  0  0  0
  8 13  1  0  0  0  0
  9  6  2  0  0  0  0
 10 18  1  0  0  0  0
 12 21  1  0  0  0  0
 13 14  2  0  0  0  0
 14 12  2  0  0  0  0
 15  3  1  0  0  0  0
 15  9  1  0  0  0  0
 16  5  1  0  0  0  0
 18  9  1  0  0  0  0
 18 40  1  1  0  0  0
 19  1  1  1  0  0  0
 19  8  1  0  0  0  0
 20 11  1  6  0  0  0
 20  7  1  0  0  0  0
 21  4  1  0  0  0  0
 22 11  1  0  0  0  0
 22  2  1  0  0  0  0
 24 17  1  0  0  0  0
 24 16  2  0  0  0  0
 25 23  1  6  0  0  0
 25 19  1  0  0  0  0
 25 20  1  0  0  0  0
 26 33  1  6  0  0  0
 26 27  1  0  0  0  0
 26 19  1  0  0  0  0
 27 30  1  6  0  0  0
 28 38  1  0  0  0  0
 29 26  1  0  0  0  0
 31 29  1  1  0  0  0
 31 32  1  0  0  0  0
 32 38  1  0  0  0  0
 34 37  1  1  0  0  0
 34 28  1  0  0  0  0
 35 31  1  0  0  0  0
 35 34  1  0  0  0  0
 35 27  1  0  0  0  0
 38 36  2  0  0  0  0
 40 39  2  0  0  0  0
 40 41  1  0  0  0  0
 42 43  1  0  0  0  0
 43 44  1  0  0  0  0
 45 44  1  0  0  0  0
 46 45  1  0  0  0  0
M  END
>  <MODEL>
8

>  <REMARK>
 VINA RESULT:      -7.0      2.703      9.576
  Name = 
  5 active torsions:
  status: ('A' for Active; 'I' for Inactive)
    1  A    between atoms: C_1  and  C_35
    2  A    between atoms: C_7  and  C_32
    3  A    between atoms: C_9  and  C_46
    4  A    between atoms: C_25  and  C_30
    5  A    between atoms: C_32  and  C_46
                            x       y       z     vdW  Elec       q    Type
                         _______ _______ _______ _____ _____    ______ ____

>  <TORSDO>
F 5

$$$$
=
 OpenBabel11062419503D

 46 49  0  0  1  0  0  0  0  0999 V2000
  189.0850  172.8780  143.1710 C   0  0  0  0  0  1  0  0  0  0  0  0
  195.0710  171.3430  141.8940 O   0  0  0  0  0  0  0  0  0  0  0  0
  190.5160  173.7930  136.5320 C   0  0  1  0  0  3  0  0  0  0  0  0
  189.5560  172.6100  136.6420 C   0  0  0  0  0  2  0  0  0  0  0  0
  195.2790  171.5830  138.1840 N   0  0  0  0  0  0  0  0  0  0  0  0
  192.0040  172.0280  134.7720 O   0  0  0  0  0  0  0  0  0  0  0  0
  192.5510  172.8170  141.1180 C   0  0  0  0  0  2  0  0  0  0  0  0
  190.1360  174.4460  141.4880 C   0  0  0  0  0  2  0  0  0  0  0  0
  192.5630  172.4090  135.8380 C   0  0  0  0  0  0  0  0  0  0  0  0
  194.1210  171.7950  137.6460 C   0  0  0  0  0  3  0  0  0  0  0  0
  192.9780  171.3460  143.1590 C   0  0  0  0  0  2  0  0  0  0  0  0
  188.2960  173.0730  138.7080 C   0  0  0  0  0  3  0  0  0  0  0  0
  188.8040  174.5270  140.8110 C   0  0  0  0  0  3  0  0  0  0  0  0
  188.5570  173.7980  139.7590 C   0  0  0  0  0  0  0  0  0  0  0  0
  191.8950  173.3350  136.7070 N   0  0  0  0  0  2  0  0  0  0  0  0
  195.5190  171.4410  139.5970 C   0  0  0  0  0  3  0  0  0  0  0  0
  193.1400  171.6940  140.2890 C   0  0  0  0  0  2  0  0  0  0  0  0
  193.9610  171.9520  136.1690 C   0  0  1  0  0  3  0  0  0  0  0  0
  190.1030  174.0110  142.9750 C   0  0  2  0  0  0  0  0  0  0  0  0
  191.9930  172.2920  142.4450 C   0  0  1  0  0  3  0  0  0  0  0  0
  189.3500  172.2180  138.0950 C   0  0  0  0  0  2  0  0  0  0  0  0
  194.4180  171.8390  143.0650 C   0  0  0  0  0  2  0  0  0  0  0  0
  191.5850  173.0980  144.6880 O   0  0  0  0  0  1  0  0  0  0  0  0
  194.6060  171.5090  140.5800 C   0  0  0  0  0  0  0  0  0  0  0  0
  191.5220  173.4650  143.3390 C   0  0  2  0  0  3  0  0  0  0  0  0
  189.7370  175.2500  143.8740 C   0  0  1  0  0  0  0  0  0  0  0  0
  190.2430  175.0960  145.3230 C   0  0  2  0  0  3  0  0  0  0  0  0
  193.0700  175.9480  146.5690 C   0  0  0  0  0  2  0  0  0  0  0  0
  190.3730  176.5570  143.3680 C   0  0  0  0  0  2  0  0  0  0  0  0
  189.2320  174.6560  146.1830 O   0  0  0  0  0  1  0  0  0  0  0  0
  191.2690  177.1080  144.4630 C   0  0  2  0  0  3  0  0  0  0  0  0
  192.7110  176.6880  144.1360 C   0  0  0  0  0  2  0  0  0  0  0  0
  188.3480  175.4300  143.8720 O   0  0  0  0  0  1  0  0  0  0  0  0
  191.6980  176.5010  146.9250 C   0  0  1  0  0  3  0  0  0  0  0  0
  190.7180  176.4730  145.7370 C   0  0  2  0  0  3  0  0  0  0  0  0
  194.6800  177.1640  145.3480 O   0  0  0  0  0  0  0  0  0  0  0  0
  191.1740  175.8160  148.0220 O   0  0  0  0  0  1  0  0  0  0  0  0
  193.5700  176.6590  145.3570 C   0  0  0  0  0  0  0  0  0  0  0  0
  195.3460  170.6910  134.5170 O   0  0  0  0  0  0  0  0  0  0  0  0
  194.3290  170.6800  135.4620 C   0  0  0  0  0  0  0  0  0  0  0  0
  193.7250  169.6050  135.7170 O   0  0  0  0  0  1  0  0  0  0  0  0
  191.0450  175.8870  135.2610 C   0  0  0  0  0  1  0  0  0  0  0  0
  190.3380  174.5420  135.2070 C   0  0  2  0  0  3  0  0  0  0  0  0
  188.8570  174.7690  134.9160 C   0  0  0  0  0  2  0  0  0  0  0  0
  188.3490  176.0200  135.6140 C   0  0  0  0  0  2  0  0  0  0  0  0
  187.3410  175.6840  136.5180 O   0  0  0  0  0  1  0  0  0  0  0  0
  2 22  1  0  0  0  0
  3 43  1  6  0  0  0
  3  4  1  0  0  0  0
  3 15  1  0  0  0  0
  4 21  1  0  0  0  0
  5 16  1  0  0  0  0
  6  9  2  0  0  0  0
  8 19  1  0  0  0  0
  9 18  1  0  0  0  0
  9 15  1  0  0  0  0
 10  5  2  0  0  0  0
 12 14  2  0  0  0  0
 13  8  1  0  0  0  0
 14 13  2  0  0  0  0
 16 24  2  0  0  0  0
 17 24  1  0  0  0  0
 17  7  1  0  0  0  0
 18 40  1  6  0  0  0
 18 10  1  0  0  0  0
 19  1  1  1  0  0  0
 19 25  1  0  0  0  0
 19 26  1  0  0  0  0
 20  7  1  6  0  0  0
 20 11  1  0  0  0  0
 20 25  1  0  0  0  0
 21 12  1  0  0  0  0
 22 11  1  0  0  0  0
 24  2  1  0  0  0  0
 25 23  1  1  0  0  0
 26 33  1  1  0  0  0
 26 27  1  0  0  0  0
 27 35  1  0  0  0  0
 27 30  1  1  0  0  0
 28 34  1  0  0  0  0
 29 26  1  0  0  0  0
 31 29  1  6  0  0  0
 31 35  1  0  0  0  0
 32 31  1  0  0  0  0
 32 38  1  0  0  0  0
 34 37  1  1  0  0  0
 35 34  1  0  0  0  0
 36 38  2  0  0  0  0
 38 28  1  0  0  0  0
 39 40  2  0  0  0  0
 40 41  1  0  0  0  0
 43 42  1  0  0  0  0
 44 43  1  0  0  0  0
 44 45  1  0  0  0  0
 45 46  1  0  0  0  0
M  END
>  <MODEL>
9

>  <REMARK>
 VINA RESULT:      -6.9      2.829      4.925
  Name = 
  5 active torsions:
  status: ('A' for Active; 'I' for Inactive)
    1  A    between atoms: C_1  and  C_35
    2  A    between atoms: C_7  and  C_32
    3  A    between atoms: C_9  and  C_46
    4  A    between atoms: C_25  and  C_30
    5  A    between atoms: C_32  and  C_46
                            x       y       z     vdW  Elec       q    Type
                         _______ _______ _______ _____ _____    ______ ____

>  <TORSDO>
F 5

$$$$
