=
 OpenBabel11062422023D

 34 35  0  0  1  0  0  0  0  0999 V2000
  192.0010  175.4780  141.9970 O   0  0  0  0  0  0  0  0  0  0  0  0
  191.3570  174.9100  142.9210 C   0  0  0  0  0  0  0  0  0  0  0  0
  191.7800  175.0530  144.2840 N   0  0  0  0  0  2  0  0  0  0  0  0
  188.8980  174.5100  142.3710 C   0  0  0  0  0  0  0  0  0  0  0  0
  187.8780  173.5720  142.1810 C   0  0  0  0  0  3  0  0  0  0  0  0
  190.4400  172.6560  142.5470 C   0  0  0  0  0  3  0  0  0  0  0  0
  189.4070  171.8010  142.3410 N   0  0  0  0  0  0  0  0  0  0  0  0
  190.2160  174.0360  142.5820 C   0  0  0  0  0  0  0  0  0  0  0  0
  188.1620  172.2450  142.1740 N   0  0  0  0  0  0  0  0  0  0  0  0
  188.5460  175.9420  142.2580 C   0  0  0  0  0  0  0  0  0  0  0  0
  187.1760  176.3220  142.0950 N   0  0  0  0  0  2  0  0  0  0  0  0
  189.4480  176.8240  142.2520 O   0  0  0  0  0  0  0  0  0  0  0  0
  186.7560  177.7080  141.9180 C   0  0  2  0  0  3  0  0  0  0  0  0
  185.9240  179.4040  143.5880 N   0  0  0  0  0  1  0  0  0  0  0  0
  185.8190  178.1070  143.0120 C   0  0  0  0  0  0  0  0  0  0  0  0
  184.9240  177.3160  143.4110 O   0  0  0  0  0  0  0  0  0  0  0  0
  186.1210  177.9050  140.5760 C   0  0  0  0  0  0  0  0  0  0  0  0
  186.7570  177.4260  139.4390 O   0  0  0  0  0  0  0  0  0  0  0  0
  185.0220  178.5100  140.4690 O   0  0  0  0  0  1  0  0  0  0  0  0
  194.1920  175.0400  144.7150 C   0  0  0  0  0  1  0  0  0  0  0  0
  192.9130  175.8620  144.7250 C   0  0  2  0  0  3  0  0  0  0  0  0
  192.6470  176.4520  146.1050 C   0  0  0  0  0  2  0  0  0  0  0  0
  189.5450  174.9730  147.2310 N   0  0  0  0  0  0  0  0  0  0  0  0
  188.9760  177.5510  145.7410 C   0  0  0  0  0  3  0  0  0  0  0  0
  191.1790  176.5570  146.3780 C   0  0  0  0  0  0  0  0  0  0  0  0
  190.4330  177.3490  145.6050 C   0  0  0  0  0  3  0  0  0  0  0  0
  188.0780  176.6900  146.2490 C   0  0  0  0  0  0  0  0  0  0  0  0
  191.5680  175.2470  148.3280 F   0  0  0  0  0  0  0  0  0  0  0  0
  188.4240  175.3170  146.6720 C   0  0  0  0  0  3  0  0  0  0  0  0
  190.5970  175.9100  147.5980 C   0  0  2  0  0  3  0  0  0  0  0  0
  186.0300  177.9990  147.0960 C   0  0  0  0  0  0  0  0  0  0  0  0
  184.5660  178.2030  146.9600 C   0  0  0  0  0  1  0  0  0  0  0  0
  186.6830  177.0280  146.2660 N   0  0  0  0  0  2  0  0  0  0  0  0
  186.6720  178.6760  147.9420 O   0  0  0  0  0  0  0  0  0  0  0  0
  1  2  2  0  0  0  0
  2  3  1  0  0  0  0
  3 21  1  0  0  0  0
  4  8  1  0  0  0  0
  5  4  2  0  0  0  0
  6  8  2  0  0  0  0
  7  6  1  0  0  0  0
  8  2  1  0  0  0  0
  9  5  1  0  0  0  0
  9  7  2  0  0  0  0
 10  4  1  0  0  0  0
 11 10  1  0  0  0  0
 12 10  2  0  0  0  0
 13 17  1  6  0  0  0
 13 11  1  0  0  0  0
 13 15  1  0  0  0  0
 15 16  2  0  0  0  0
 15 14  1  0  0  0  0
 18 17  2  0  0  0  0
 19 17  1  0  0  0  0
 21 20  1  1  0  0  0
 21 22  1  0  0  0  0
 22 25  1  0  0  0  0
 23 30  1  0  0  0  0
 24 27  2  0  0  0  0
 25 30  1  0  0  0  0
 26 24  1  0  0  0  0
 26 25  2  0  0  0  0
 27 33  1  0  0  0  0
 27 29  1  0  0  0  0
 29 23  2  0  0  0  0
 30 28  1  6  0  0  0
 31 34  2  0  0  0  0
 32 31  1  0  0  0  0
 33 31  1  0  0  0  0
M  END
>  <MODEL>
1

>  <REMARK>
 VINA RESULT:      -7.2      0.000      0.000
  Name = 
  9 active torsions:
  status: ('A' for Active; 'I' for Inactive)
    1  A    between atoms: C_2  and  C_20
    2  A    between atoms: C_8  and  CA_9
    3  A    between atoms: CA_9  and  C_10
    4  A    between atoms: CA_9  and  N_23
    5  A    between atoms: C_12  and  C_13
    6  A    between atoms: C_12  and  C_26
    7  A    between atoms: C_16  and  C_29
    8  A    between atoms: N_17  and  C_24
    9  A    between atoms: N_22  and  C_26
                            x       y       z     vdW  Elec       q    Type
                         _______ _______ _______ _____ _____    ______ ____

>  <TORSDO>
F 9

$$$$
=
 OpenBabel11062422023D

 34 35  0  0  1  0  0  0  0  0999 V2000
  188.5220  178.2070  141.6670 O   0  0  0  0  0  0  0  0  0  0  0  0
  187.5840  177.3640  141.6840 C   0  0  0  0  0  0  0  0  0  0  0  0
  187.8770  175.9650  141.8060 N   0  0  0  0  0  2  0  0  0  0  0  0
  185.3780  178.3100  142.5490 C   0  0  0  0  0  0  0  0  0  0  0  0
  184.0360  178.5940  142.2720 C   0  0  0  0  0  3  0  0  0  0  0  0
  185.6260  177.6850  140.2270 C   0  0  0  0  0  3  0  0  0  0  0  0
  184.3210  177.9940  140.0230 N   0  0  0  0  0  0  0  0  0  0  0  0
  186.1920  177.8200  141.4980 C   0  0  0  0  0  0  0  0  0  0  0  0
  183.5470  178.4250  141.0180 N   0  0  0  0  0  0  0  0  0  0  0  0
  185.8810  178.6190  143.9050 C   0  0  0  0  0  0  0  0  0  0  0  0
  186.4770  177.5820  144.6900 N   0  0  0  0  0  2  0  0  0  0  0  0
  185.7430  179.7750  144.3920 O   0  0  0  0  0  0  0  0  0  0  0  0
  186.9440  177.7930  146.0560 C   0  0  2  0  0  3  0  0  0  0  0  0
  188.1450  175.6970  146.7820 N   0  0  0  0  0  1  0  0  0  0  0  0
  188.2090  177.0320  146.2930 C   0  0  0  0  0  0  0  0  0  0  0  0
  189.3280  177.5540  146.0420 O   0  0  0  0  0  0  0  0  0  0  0  0
  185.8920  177.3980  147.0460 C   0  0  0  0  0  0  0  0  0  0  0  0
  184.8170  176.6240  146.6320 O   0  0  0  0  0  0  0  0  0  0  0  0
  185.9690  177.7700  148.2460 O   0  0  0  0  0  1  0  0  0  0  0  0
  189.4080  174.2180  141.0270 C   0  0  0  0  0  1  0  0  0  0  0  0
  189.2160  175.4040  141.9590 C   0  0  2  0  0  3  0  0  0  0  0  0
  189.4730  175.0130  143.4100 C   0  0  0  0  0  2  0  0  0  0  0  0
  192.8560  176.1310  142.7970 N   0  0  0  0  0  0  0  0  0  0  0  0
  192.8970  173.5460  144.3800 C   0  0  0  0  0  3  0  0  0  0  0  0
  190.9390  174.9440  143.7030 C   0  0  0  0  0  0  0  0  0  0  0  0
  191.4720  173.7760  144.0670 C   0  0  0  0  0  3  0  0  0  0  0  0
  193.9550  174.2280  143.9090 C   0  0  0  0  0  0  0  0  0  0  0  0
  190.9770  177.3130  143.4610 F   0  0  0  0  0  0  0  0  0  0  0  0
  193.8420  175.2900  142.8880 C   0  0  0  0  0  3  0  0  0  0  0  0
  191.7530  176.2020  143.7430 C   0  0  2  0  0  3  0  0  0  0  0  0
  196.0290  174.2690  145.4320 C   0  0  0  0  0  0  0  0  0  0  0  0
  197.4040  173.7500  145.6420 C   0  0  0  0  0  1  0  0  0  0  0  0
  195.2860  173.8420  144.2820 N   0  0  0  0  0  2  0  0  0  0  0  0
  195.5410  175.0800  146.2640 O   0  0  0  0  0  0  0  0  0  0  0  0
  1  2  2  0  0  0  0
  2  3  1  0  0  0  0
  3 21  1  0  0  0  0
  4 10  1  0  0  0  0
  5  4  1  0  0  0  0
  6  8  1  0  0  0  0
  7  6  2  0  0  0  0
  7  9  1  0  0  0  0
  8  2  1  0  0  0  0
  8  4  2  0  0  0  0
  9  5  2  0  0  0  0
 10 12  2  0  0  0  0
 10 11  1  0  0  0  0
 13 11  1  6  0  0  0
 13 15  1  0  0  0  0
 13 17  1  0  0  0  0
 15 14  1  0  0  0  0
 16 15  2  0  0  0  0
 17 19  1  0  0  0  0
 18 17  2  0  0  0  0
 21 20  1  6  0  0  0
 21 22  1  0  0  0  0
 22 25  1  0  0  0  0
 23 29  2  0  0  0  0
 23 30  1  0  0  0  0
 25 30  1  0  0  0  0
 25 26  2  0  0  0  0
 26 24  1  0  0  0  0
 27 33  1  0  0  0  0
 27 24  2  0  0  0  0
 29 27  1  0  0  0  0
 30 28  1  6  0  0  0
 31 32  1  0  0  0  0
 31 34  2  0  0  0  0
 33 31  1  0  0  0  0
M  END
>  <MODEL>
2

>  <REMARK>
 VINA RESULT:      -7.2      2.377      6.505
  Name = 
  9 active torsions:
  status: ('A' for Active; 'I' for Inactive)
    1  A    between atoms: C_2  and  C_20
    2  A    between atoms: C_8  and  CA_9
    3  A    between atoms: CA_9  and  C_10
    4  A    between atoms: CA_9  and  N_23
    5  A    between atoms: C_12  and  C_13
    6  A    between atoms: C_12  and  C_26
    7  A    between atoms: C_16  and  C_29
    8  A    between atoms: N_17  and  C_24
    9  A    between atoms: N_22  and  C_26
                            x       y       z     vdW  Elec       q    Type
                         _______ _______ _______ _____ _____    ______ ____

>  <TORSDO>
F 9

$$$$
=
 OpenBabel11062422023D

 34 35  0  0  1  0  0  0  0  0999 V2000
  188.4430  174.9360  147.2690 O   0  0  0  0  0  0  0  0  0  0  0  0
  188.4760  176.0240  146.6320 C   0  0  0  0  0  0  0  0  0  0  0  0
  189.7290  176.6850  146.4030 N   0  0  0  0  0  2  0  0  0  0  0  0
  186.9890  177.1360  144.8820 C   0  0  0  0  0  0  0  0  0  0  0  0
  185.7980  177.8220  144.6230 C   0  0  0  0  0  3  0  0  0  0  0  0
  186.2140  176.8420  147.1530 C   0  0  0  0  0  3  0  0  0  0  0  0
  185.0730  177.5030  146.8300 N   0  0  0  0  0  0  0  0  0  0  0  0
  187.2130  176.6500  146.1940 C   0  0  0  0  0  0  0  0  0  0  0  0
  184.8770  177.9870  145.6040 N   0  0  0  0  0  0  0  0  0  0  0  0
  187.9040  176.8910  143.7460 C   0  0  0  0  0  0  0  0  0  0  0  0
  188.0510  175.5640  143.2310 N   0  0  0  0  0  2  0  0  0  0  0  0
  188.5920  177.8320  143.2630 O   0  0  0  0  0  0  0  0  0  0  0  0
  188.9750  175.2310  142.1530 C   0  0  2  0  0  3  0  0  0  0  0  0
  188.5270  174.3250  139.8420 N   0  0  0  0  0  1  0  0  0  0  0  0
  188.3700  174.2040  141.2510 C   0  0  0  0  0  0  0  0  0  0  0  0
  187.7420  173.2220  141.7280 O   0  0  0  0  0  0  0  0  0  0  0  0
  190.2840  174.7520  142.7010 C   0  0  0  0  0  0  0  0  0  0  0  0
  190.3010  173.9680  143.8470 O   0  0  0  0  0  1  0  0  0  0  0  0
  191.3670  175.0620  142.1400 O   0  0  0  0  0  0  0  0  0  0  0  0
  191.4170  176.7450  148.1780 C   0  0  0  0  0  1  0  0  0  0  0  0
  191.0310  176.1740  146.8230 C   0  0  2  0  0  3  0  0  0  0  0  0
  192.0920  176.4780  145.7730 C   0  0  0  0  0  2  0  0  0  0  0  0
  195.6020  175.7380  145.3160 N   0  0  0  0  0  0  0  0  0  0  0  0
  194.0580  173.1680  145.7710 C   0  0  0  0  0  3  0  0  0  0  0  0
  193.2460  175.5290  145.8750 C   0  0  0  0  0  0  0  0  0  0  0  0
  193.0270  174.2240  145.7090 C   0  0  0  0  0  3  0  0  0  0  0  0
  195.3690  173.2930  145.5000 C   0  0  0  0  0  0  0  0  0  0  0  0
  194.5620  177.3930  146.5600 F   0  0  0  0  0  0  0  0  0  0  0  0
  195.9720  174.5380  144.9810 C   0  0  0  0  0  3  0  0  0  0  0  0
  194.5880  176.0300  146.3170 C   0  0  2  0  0  3  0  0  0  0  0  0
  196.5140  171.2070  144.5200 C   0  0  0  0  0  0  0  0  0  0  0  0
  197.4430  170.0800  144.7890 C   0  0  0  0  0  1  0  0  0  0  0  0
  196.2310  172.1470  145.5650 N   0  0  0  0  0  2  0  0  0  0  0  0
  195.9850  171.3120  143.3820 O   0  0  0  0  0  0  0  0  0  0  0  0
  2  1  2  0  0  0  0
  3  2  1  0  0  0  0
  3 21  1  0  0  0  0
  4  8  1  0  0  0  0
  5  4  2  0  0  0  0
  5  9  1  0  0  0  0
  7  6  1  0  0  0  0
  8  2  1  0  0  0  0
  8  6  2  0  0  0  0
  9  7  2  0  0  0  0
 10  4  1  0  0  0  0
 11 10  1  0  0  0  0
 12 10  2  0  0  0  0
 13 15  1  6  0  0  0
 13 17  1  0  0  0  0
 13 11  1  0  0  0  0
 14 15  1  0  0  0  0
 15 16  2  0  0  0  0
 17 18  1  0  0  0  0
 19 17  2  0  0  0  0
 21 20  1  1  0  0  0
 22 25  1  0  0  0  0
 22 21  1  0  0  0  0
 23 30  1  0  0  0  0
 25 30  1  0  0  0  0
 26 24  1  0  0  0  0
 26 25  2  0  0  0  0
 27 33  1  0  0  0  0
 27 24  2  0  0  0  0
 29 23  2  0  0  0  0
 29 27  1  0  0  0  0
 30 28  1  6  0  0  0
 31 32  1  0  0  0  0
 31 33  1  0  0  0  0
 34 31  2  0  0  0  0
M  END
>  <MODEL>
3

>  <REMARK>
 VINA RESULT:      -7.2      2.771      6.770
  Name = 
  9 active torsions:
  status: ('A' for Active; 'I' for Inactive)
    1  A    between atoms: C_2  and  C_20
    2  A    between atoms: C_8  and  CA_9
    3  A    between atoms: CA_9  and  C_10
    4  A    between atoms: CA_9  and  N_23
    5  A    between atoms: C_12  and  C_13
    6  A    between atoms: C_12  and  C_26
    7  A    between atoms: C_16  and  C_29
    8  A    between atoms: N_17  and  C_24
    9  A    between atoms: N_22  and  C_26
                            x       y       z     vdW  Elec       q    Type
                         _______ _______ _______ _____ _____    ______ ____

>  <TORSDO>
F 9

$$$$
=
 OpenBabel11062422023D

 34 35  0  0  1  0  0  0  0  0999 V2000
  188.3050  175.2970  146.7940 O   0  0  0  0  0  0  0  0  0  0  0  0
  188.2470  176.5550  146.8550 C   0  0  0  0  0  0  0  0  0  0  0  0
  189.4230  177.3130  147.1750 N   0  0  0  0  0  2  0  0  0  0  0  0
  186.3010  177.3730  145.4230 C   0  0  0  0  0  0  0  0  0  0  0  0
  185.1370  178.1470  145.3600 C   0  0  0  0  0  3  0  0  0  0  0  0
  186.3700  177.8420  147.7940 C   0  0  0  0  0  3  0  0  0  0  0  0
  185.2300  178.5660  147.6650 N   0  0  0  0  0  0  0  0  0  0  0  0
  186.9490  177.2350  146.6750 C   0  0  0  0  0  0  0  0  0  0  0  0
  184.6380  178.7230  146.4820 N   0  0  0  0  0  0  0  0  0  0  0  0
  186.7350  176.6810  144.1900 C   0  0  0  0  0  0  0  0  0  0  0  0
  188.0960  176.7900  143.7600 N   0  0  0  0  0  2  0  0  0  0  0  0
  185.9050  176.0380  143.4900 O   0  0  0  0  0  0  0  0  0  0  0  0
  188.5870  176.1860  142.5270 C   0  0  2  0  0  3  0  0  0  0  0  0
  190.8020  177.3420  142.8700 N   0  0  0  0  0  1  0  0  0  0  0  0
  190.0810  176.1660  142.5210 C   0  0  0  0  0  0  0  0  0  0  0  0
  190.7080  175.1120  142.2310 O   0  0  0  0  0  0  0  0  0  0  0  0
  188.0600  176.9150  141.3290 C   0  0  0  0  0  0  0  0  0  0  0  0
  187.5180  176.1960  140.2730 O   0  0  0  0  0  0  0  0  0  0  0  0
  188.1150  178.1710  141.2680 O   0  0  0  0  0  1  0  0  0  0  0  0
  191.3540  177.3010  148.6830 C   0  0  0  0  0  1  0  0  0  0  0  0
  190.7460  176.7400  147.4070 C   0  0  2  0  0  3  0  0  0  0  0  0
  191.6560  176.9860  146.2090 C   0  0  0  0  0  2  0  0  0  0  0  0
  195.0590  176.0090  145.4730 N   0  0  0  0  0  0  0  0  0  0  0  0
  193.2840  173.5540  145.5850 C   0  0  0  0  0  3  0  0  0  0  0  0
  192.7130  175.9310  146.1030 C   0  0  0  0  0  0  0  0  0  0  0  0
  192.3610  174.6960  145.7410 C   0  0  0  0  0  3  0  0  0  0  0  0
  194.5910  173.6000  145.2750 C   0  0  0  0  0  0  0  0  0  0  0  0
  194.2270  177.5280  147.0140 F   0  0  0  0  0  0  0  0  0  0  0  0
  195.2970  174.8520  144.9340 C   0  0  0  0  0  3  0  0  0  0  0  0
  194.1110  176.2270  146.5560 C   0  0  2  0  0  3  0  0  0  0  0  0
  196.5660  172.0240  145.7620 C   0  0  0  0  0  0  0  0  0  0  0  0
  197.1860  170.7090  145.4610 C   0  0  0  0  0  1  0  0  0  0  0  0
  195.3380  172.3840  145.1150 N   0  0  0  0  0  2  0  0  0  0  0  0
  197.1330  172.8020  146.5740 O   0  0  0  0  0  0  0  0  0  0  0  0
  1  2  2  0  0  0  0
  2  3  1  0  0  0  0
  3 21  1  0  0  0  0
  4  8  1  0  0  0  0
  5  4  2  0  0  0  0
  5  9  1  0  0  0  0
  7  6  1  0  0  0  0
  8  2  1  0  0  0  0
  8  6  2  0  0  0  0
  9  7  2  0  0  0  0
 10  4  1  0  0  0  0
 11 10  1  0  0  0  0
 12 10  2  0  0  0  0
 13 17  1  6  0  0  0
 13 11  1  0  0  0  0
 15 13  1  0  0  0  0
 15 14  1  0  0  0  0
 16 15  2  0  0  0  0
 18 17  2  0  0  0  0
 19 17  1  0  0  0  0
 21 20  1  1  0  0  0
 22 21  1  0  0  0  0
 23 30  1  0  0  0  0
 24 26  1  0  0  0  0
 25 22  1  0  0  0  0
 25 30  1  0  0  0  0
 26 25  2  0  0  0  0
 27 24  2  0  0  0  0
 29 27  1  0  0  0  0
 29 23  2  0  0  0  0
 30 28  1  6  0  0  0
 31 34  2  0  0  0  0
 32 31  1  0  0  0  0
 33 27  1  0  0  0  0
 33 31  1  0  0  0  0
M  END
>  <MODEL>
4

>  <REMARK>
 VINA RESULT:      -7.1      2.657      6.478
  Name = 
  9 active torsions:
  status: ('A' for Active; 'I' for Inactive)
    1  A    between atoms: C_2  and  C_20
    2  A    between atoms: C_8  and  CA_9
    3  A    between atoms: CA_9  and  C_10
    4  A    between atoms: CA_9  and  N_23
    5  A    between atoms: C_12  and  C_13
    6  A    between atoms: C_12  and  C_26
    7  A    between atoms: C_16  and  C_29
    8  A    between atoms: N_17  and  C_24
    9  A    between atoms: N_22  and  C_26
                            x       y       z     vdW  Elec       q    Type
                         _______ _______ _______ _____ _____    ______ ____

>  <TORSDO>
F 9

$$$$
=
 OpenBabel11062422023D

 34 35  0  0  1  0  0  0  0  0999 V2000
  188.7000  178.3390  143.3160 O   0  0  0  0  0  0  0  0  0  0  0  0
  187.7300  177.6160  143.6730 C   0  0  0  0  0  0  0  0  0  0  0  0
  187.3150  176.5150  142.8510 N   0  0  0  0  0  2  0  0  0  0  0  0
  187.2380  177.3840  146.1650 C   0  0  0  0  0  0  0  0  0  0  0  0
  186.3760  177.6950  147.2220 C   0  0  0  0  0  3  0  0  0  0  0  0
  185.8990  178.8390  144.7730 C   0  0  0  0  0  3  0  0  0  0  0  0
  185.1110  179.1090  145.8450 N   0  0  0  0  0  0  0  0  0  0  0  0
  186.9770  177.9580  144.8960 C   0  0  0  0  0  0  0  0  0  0  0  0
  185.3370  178.5450  147.0310 N   0  0  0  0  0  0  0  0  0  0  0  0
  188.4160  176.5400  146.4610 C   0  0  0  0  0  0  0  0  0  0  0  0
  189.7310  177.0680  146.2610 N   0  0  0  0  0  2  0  0  0  0  0  0
  188.2690  175.3460  146.8400 O   0  0  0  0  0  0  0  0  0  0  0  0
  190.9400  176.2800  146.4740 C   0  0  2  0  0  3  0  0  0  0  0  0
  191.5360  175.1050  148.6240 N   0  0  0  0  0  1  0  0  0  0  0  0
  191.3370  176.3220  147.9140 C   0  0  0  0  0  0  0  0  0  0  0  0
  191.5180  177.4230  148.4980 O   0  0  0  0  0  0  0  0  0  0  0  0
  192.0550  176.7670  145.6010 C   0  0  0  0  0  0  0  0  0  0  0  0
  191.7620  177.5110  144.4660 O   0  0  0  0  0  0  0  0  0  0  0  0
  193.2530  176.5000  145.8820 O   0  0  0  0  0  1  0  0  0  0  0  0
  187.2610  176.7360  140.4120 C   0  0  0  0  0  1  0  0  0  0  0  0
  187.9640  176.1120  141.6070 C   0  0  2  0  0  3  0  0  0  0  0  0
  188.0070  174.5930  141.4910 C   0  0  0  0  0  2  0  0  0  0  0  0
  189.3240  172.6640  144.2520 N   0  0  0  0  0  0  0  0  0  0  0  0
  191.5480  174.2760  142.9680 C   0  0  0  0  0  3  0  0  0  0  0  0
  189.1700  174.0230  142.2430 C   0  0  0  0  0  0  0  0  0  0  0  0
  190.3190  174.7000  142.2670 C   0  0  0  0  0  3  0  0  0  0  0  0
  191.6350  173.4920  144.0560 C   0  0  0  0  0  0  0  0  0  0  0  0
  187.8470  172.0690  142.5680 F   0  0  0  0  0  0  0  0  0  0  0  0
  190.4530  173.0030  144.7970 C   0  0  0  0  0  3  0  0  0  0  0  0
  189.0830  172.6410  142.8170 C   0  0  2  0  0  3  0  0  0  0  0  0
  193.5470  171.9330  144.7890 C   0  0  0  0  0  0  0  0  0  0  0  0
  194.8840  171.8530  145.4290 C   0  0  0  0  0  1  0  0  0  0  0  0
  192.9150  173.2120  144.6430 N   0  0  0  0  0  2  0  0  0  0  0  0
  192.9880  170.8760  144.3910 O   0  0  0  0  0  0  0  0  0  0  0  0
  1  2  2  0  0  0  0
  2  8  1  0  0  0  0
  3  2  1  0  0  0  0
  4 10  1  0  0  0  0
  4  5  1  0  0  0  0
  6  8  1  0  0  0  0
  6  7  2  0  0  0  0
  7  9  1  0  0  0  0
  8  4  2  0  0  0  0
  9  5  2  0  0  0  0
 10 12  2  0  0  0  0
 11 10  1  0  0  0  0
 11 13  1  0  0  0  0
 13 17  1  6  0  0  0
 13 15  1  0  0  0  0
 15 16  2  0  0  0  0
 15 14  1  0  0  0  0
 17 19  1  0  0  0  0
 18 17  2  0  0  0  0
 21 20  1  6  0  0  0
 21  3  1  0  0  0  0
 22 21  1  0  0  0  0
 22 25  1  0  0  0  0
 23 29  2  0  0  0  0
 24 27  2  0  0  0  0
 25 26  2  0  0  0  0
 25 30  1  0  0  0  0
 26 24  1  0  0  0  0
 27 33  1  0  0  0  0
 27 29  1  0  0  0  0
 30 28  1  1  0  0  0
 30 23  1  0  0  0  0
 31 32  1  0  0  0  0
 33 31  1  0  0  0  0
 34 31  2  0  0  0  0
M  END
>  <MODEL>
5

>  <REMARK>
 VINA RESULT:      -6.9      2.671      7.061
  Name = 
  9 active torsions:
  status: ('A' for Active; 'I' for Inactive)
    1  A    between atoms: C_2  and  C_20
    2  A    between atoms: C_8  and  CA_9
    3  A    between atoms: CA_9  and  C_10
    4  A    between atoms: CA_9  and  N_23
    5  A    between atoms: C_12  and  C_13
    6  A    between atoms: C_12  and  C_26
    7  A    between atoms: C_16  and  C_29
    8  A    between atoms: N_17  and  C_24
    9  A    between atoms: N_22  and  C_26
                            x       y       z     vdW  Elec       q    Type
                         _______ _______ _______ _____ _____    ______ ____

>  <TORSDO>
F 9

$$$$
=
 OpenBabel11062422023D

 34 35  0  0  1  0  0  0  0  0999 V2000
  192.3020  177.1420  144.7520 O   0  0  0  0  0  0  0  0  0  0  0  0
  192.7620  176.1540  145.3870 C   0  0  0  0  0  0  0  0  0  0  0  0
  192.2080  175.7980  146.6620 N   0  0  0  0  0  2  0  0  0  0  0  0
  193.8730  174.6170  143.6800 C   0  0  0  0  0  0  0  0  0  0  0  0
  195.0060  173.8690  143.3410 C   0  0  0  0  0  3  0  0  0  0  0  0
  195.1150  175.4550  145.5780 C   0  0  0  0  0  3  0  0  0  0  0  0
  196.1820  174.7170  145.1830 N   0  0  0  0  0  0  0  0  0  0  0  0
  193.9230  175.4180  144.8480 C   0  0  0  0  0  0  0  0  0  0  0  0
  196.1250  173.9390  144.1030 N   0  0  0  0  0  0  0  0  0  0  0  0
  192.7230  174.5860  142.7510 C   0  0  0  0  0  0  0  0  0  0  0  0
  191.9330  173.3990  142.6450 N   0  0  0  0  0  2  0  0  0  0  0  0
  192.4660  175.5800  142.0170 O   0  0  0  0  0  0  0  0  0  0  0  0
  190.8200  173.2700  141.7110 C   0  0  2  0  0  3  0  0  0  0  0  0
  188.3730  172.6990  141.9280 N   0  0  0  0  0  1  0  0  0  0  0  0
  189.7190  172.4670  142.3250 C   0  0  0  0  0  0  0  0  0  0  0  0
  189.9760  171.5710  143.1730 O   0  0  0  0  0  0  0  0  0  0  0  0
  191.2720  172.6540  140.4230 C   0  0  0  0  0  0  0  0  0  0  0  0
  190.9750  171.3240  140.1570 O   0  0  0  0  0  1  0  0  0  0  0  0
  191.9290  173.3270  139.5860 O   0  0  0  0  0  0  0  0  0  0  0  0
  191.5170  177.0880  148.6260 C   0  0  0  0  0  1  0  0  0  0  0  0
  191.0860  176.4790  147.3020 C   0  0  2  0  0  3  0  0  0  0  0  0
  189.9140  175.5220  147.4900 C   0  0  0  0  0  2  0  0  0  0  0  0
  189.1910  175.6240  143.9490 N   0  0  0  0  0  0  0  0  0  0  0  0
  186.7890  176.6020  145.5190 C   0  0  0  0  0  3  0  0  0  0  0  0
  188.9330  175.6360  146.3650 C   0  0  0  0  0  0  0  0  0  0  0  0
  187.8410  176.3850  146.5320 C   0  0  0  0  0  3  0  0  0  0  0  0
  186.9240  176.5570  144.1820 C   0  0  0  0  0  0  0  0  0  0  0  0
  190.2290  173.9940  145.2270 F   0  0  0  0  0  0  0  0  0  0  0  0
  188.2250  176.3720  143.5070 C   0  0  0  0  0  3  0  0  0  0  0  0
  189.1010  174.7910  145.1390 C   0  0  2  0  0  3  0  0  0  0  0  0
  185.4940  178.0770  142.6760 C   0  0  0  0  0  0  0  0  0  0  0  0
  184.2760  178.1680  141.8330 C   0  0  0  0  0  1  0  0  0  0  0  0
  185.8010  176.8400  143.3340 N   0  0  0  0  0  2  0  0  0  0  0  0
  186.2330  179.0890  142.8050 O   0  0  0  0  0  0  0  0  0  0  0  0
  1  2  2  0  0  0  0
  2  3  1  0  0  0  0
  3 21  1  0  0  0  0
  4  8  1  0  0  0  0
  5  4  2  0  0  0  0
  5  9  1  0  0  0  0
  7  6  1  0  0  0  0
  8  2  1  0  0  0  0
  8  6  2  0  0  0  0
  9  7  2  0  0  0  0
 10  4  1  0  0  0  0
 11 10  1  0  0  0  0
 12 10  2  0  0  0  0
 13 17  1  6  0  0  0
 13 15  1  0  0  0  0
 13 11  1  0  0  0  0
 14 15  1  0  0  0  0
 15 16  2  0  0  0  0
 18 17  1  0  0  0  0
 19 17  2  0  0  0  0
 21 22  1  0  0  0  0
 21 20  1  1  0  0  0
 23 30  1  0  0  0  0
 24 26  1  0  0  0  0
 25 26  2  0  0  0  0
 25 22  1  0  0  0  0
 27 24  2  0  0  0  0
 29 23  2  0  0  0  0
 29 27  1  0  0  0  0
 30 28  1  1  0  0  0
 30 25  1  0  0  0  0
 31 34  2  0  0  0  0
 31 33  1  0  0  0  0
 32 31  1  0  0  0  0
 33 27  1  0  0  0  0
M  END
>  <MODEL>
6

>  <REMARK>
 VINA RESULT:      -6.9      2.323      5.259
  Name = 
  9 active torsions:
  status: ('A' for Active; 'I' for Inactive)
    1  A    between atoms: C_2  and  C_20
    2  A    between atoms: C_8  and  CA_9
    3  A    between atoms: CA_9  and  C_10
    4  A    between atoms: CA_9  and  N_23
    5  A    between atoms: C_12  and  C_13
    6  A    between atoms: C_12  and  C_26
    7  A    between atoms: C_16  and  C_29
    8  A    between atoms: N_17  and  C_24
    9  A    between atoms: N_22  and  C_26
                            x       y       z     vdW  Elec       q    Type
                         _______ _______ _______ _____ _____    ______ ____

>  <TORSDO>
F 9

$$$$
=
 OpenBabel11062422023D

 34 35  0  0  1  0  0  0  0  0999 V2000
  189.9710  178.0040  143.0620 O   0  0  0  0  0  0  0  0  0  0  0  0
  189.9400  176.8990  143.6710 C   0  0  0  0  0  0  0  0  0  0  0  0
  189.2270  175.7890  143.1080 N   0  0  0  0  0  2  0  0  0  0  0  0
  189.8530  176.7790  146.2180 C   0  0  0  0  0  0  0  0  0  0  0  0
  190.5750  176.7890  147.4160 C   0  0  0  0  0  3  0  0  0  0  0  0
  191.9720  176.7510  145.0530 C   0  0  0  0  0  3  0  0  0  0  0  0
  192.6100  176.7450  146.2510 N   0  0  0  0  0  0  0  0  0  0  0  0
  190.5750  176.7820  144.9990 C   0  0  0  0  0  0  0  0  0  0  0  0
  191.9320  176.7750  147.3970 N   0  0  0  0  0  0  0  0  0  0  0  0
  188.3800  176.6840  146.3020 C   0  0  0  0  0  0  0  0  0  0  0  0
  187.5740  177.7670  145.8290 N   0  0  0  0  0  2  0  0  0  0  0  0
  187.8330  175.6790  146.8330 O   0  0  0  0  0  0  0  0  0  0  0  0
  186.1180  177.7730  145.9310 C   0  0  2  0  0  3  0  0  0  0  0  0
  185.9300  179.7690  144.4010 N   0  0  0  0  0  1  0  0  0  0  0  0
  185.5200  178.4500  144.7400 C   0  0  0  0  0  0  0  0  0  0  0  0
  184.6740  177.8540  144.0210 O   0  0  0  0  0  0  0  0  0  0  0  0
  185.6750  178.4370  147.1970 C   0  0  0  0  0  0  0  0  0  0  0  0
  186.6220  178.9880  148.0510 O   0  0  0  0  0  1  0  0  0  0  0  0
  184.4540  178.4910  147.5010 O   0  0  0  0  0  0  0  0  0  0  0  0
  187.0610  176.1220  142.0130 C   0  0  0  0  0  1  0  0  0  0  0  0
  188.5360  175.8070  141.8220 C   0  0  2  0  0  3  0  0  0  0  0  0
  188.7280  174.4840  141.0900 C   0  0  0  0  0  2  0  0  0  0  0  0
  189.3230  172.3960  143.9820 N   0  0  0  0  0  0  0  0  0  0  0  0
  191.9310  172.9000  142.5200 C   0  0  0  0  0  3  0  0  0  0  0  0
  189.6110  173.5570  141.8660 C   0  0  0  0  0  0  0  0  0  0  0  0
  190.9330  173.7240  141.8090 C   0  0  0  0  0  3  0  0  0  0  0  0
  191.7600  172.2260  143.6700 C   0  0  0  0  0  0  0  0  0  0  0  0
  187.6460  172.3140  142.3850 F   0  0  0  0  0  0  0  0  0  0  0  0
  190.5220  172.2990  144.4730 C   0  0  0  0  0  3  0  0  0  0  0  0
  189.0180  172.3670  142.5590 C   0  0  2  0  0  3  0  0  0  0  0  0
  193.8050  171.9900  145.2150 C   0  0  0  0  0  0  0  0  0  0  0  0
  194.8740  171.0820  145.7020 C   0  0  0  0  0  1  0  0  0  0  0  0
  192.8560  171.5060  144.2550 N   0  0  0  0  0  2  0  0  0  0  0  0
  193.7560  173.1720  145.6480 O   0  0  0  0  0  0  0  0  0  0  0  0
  1  2  2  0  0  0  0
  2  8  1  0  0  0  0
  3  2  1  0  0  0  0
  4 10  1  0  0  0  0
  4  5  1  0  0  0  0
  6  7  2  0  0  0  0
  7  9  1  0  0  0  0
  8  6  1  0  0  0  0
  8  4  2  0  0  0  0
  9  5  2  0  0  0  0
 10 12  2  0  0  0  0
 11 13  1  0  0  0  0
 11 10  1  0  0  0  0
 13 15  1  6  0  0  0
 13 17  1  0  0  0  0
 14 15  1  0  0  0  0
 16 15  2  0  0  0  0
 17 19  2  0  0  0  0
 17 18  1  0  0  0  0
 21 20  1  1  0  0  0
 21  3  1  0  0  0  0
 22 21  1  0  0  0  0
 22 25  1  0  0  0  0
 23 29  2  0  0  0  0
 24 27  2  0  0  0  0
 25 30  1  0  0  0  0
 26 25  2  0  0  0  0
 26 24  1  0  0  0  0
 27 33  1  0  0  0  0
 27 29  1  0  0  0  0
 30 28  1  1  0  0  0
 30 23  1  0  0  0  0
 31 34  2  0  0  0  0
 31 32  1  0  0  0  0
 33 31  1  0  0  0  0
M  END
>  <MODEL>
7

>  <REMARK>
 VINA RESULT:      -6.8      2.426      6.225
  Name = 
  9 active torsions:
  status: ('A' for Active; 'I' for Inactive)
    1  A    between atoms: C_2  and  C_20
    2  A    between atoms: C_8  and  CA_9
    3  A    between atoms: CA_9  and  C_10
    4  A    between atoms: CA_9  and  N_23
    5  A    between atoms: C_12  and  C_13
    6  A    between atoms: C_12  and  C_26
    7  A    between atoms: C_16  and  C_29
    8  A    between atoms: N_17  and  C_24
    9  A    between atoms: N_22  and  C_26
                            x       y       z     vdW  Elec       q    Type
                         _______ _______ _______ _____ _____    ______ ____

>  <TORSDO>
F 9

$$$$
=
 OpenBabel11062422023D

 34 35  0  0  1  0  0  0  0  0999 V2000
  191.0470  175.5830  142.0190 O   0  0  0  0  0  0  0  0  0  0  0  0
  191.1190  174.3250  141.9620 C   0  0  0  0  0  0  0  0  0  0  0  0
  191.8960  173.6060  142.9300 N   0  0  0  0  0  2  0  0  0  0  0  0
  189.0740  173.6580  140.5900 C   0  0  0  0  0  0  0  0  0  0  0  0
  188.5570  172.8350  139.5830 C   0  0  0  0  0  3  0  0  0  0  0  0
  191.2600  172.7710  140.0580 C   0  0  0  0  0  3  0  0  0  0  0  0
  190.6950  172.0110  139.0860 N   0  0  0  0  0  0  0  0  0  0  0  0
  190.4660  173.6070  140.8480 C   0  0  0  0  0  0  0  0  0  0  0  0
  189.3820  172.0340  138.8630 N   0  0  0  0  0  0  0  0  0  0  0  0
  188.1450  174.5890  141.2640 C   0  0  0  0  0  0  0  0  0  0  0  0
  187.8440  175.8500  140.6570 N   0  0  0  0  0  2  0  0  0  0  0  0
  187.6570  174.3020  142.3920 O   0  0  0  0  0  0  0  0  0  0  0  0
  186.9840  176.8460  141.2870 C   0  0  2  0  0  3  0  0  0  0  0  0
  185.0560  178.3460  140.6610 N   0  0  0  0  0  1  0  0  0  0  0  0
  186.1560  177.5400  140.2550 C   0  0  0  0  0  0  0  0  0  0  0  0
  186.4380  177.4380  139.0310 O   0  0  0  0  0  0  0  0  0  0  0  0
  187.7940  177.8320  142.0700 C   0  0  0  0  0  0  0  0  0  0  0  0
  187.3030  178.3220  143.2730 O   0  0  0  0  0  1  0  0  0  0  0  0
  188.9100  178.2280  141.6430 O   0  0  0  0  0  0  0  0  0  0  0  0
  194.0230  173.6660  144.1440 C   0  0  0  0  0  1  0  0  0  0  0  0
  192.6100  174.2180  144.0470 C   0  0  2  0  0  3  0  0  0  0  0  0
  191.8460  174.0110  145.3500 C   0  0  0  0  0  2  0  0  0  0  0  0
  190.8280  176.8410  147.3570 N   0  0  0  0  0  0  0  0  0  0  0  0
  188.5770  176.0390  145.4920 C   0  0  0  0  0  3  0  0  0  0  0  0
  190.9080  175.1480  145.6170 C   0  0  0  0  0  0  0  0  0  0  0  0
  189.6230  175.0160  145.2870 C   0  0  0  0  0  3  0  0  0  0  0  0
  188.5520  177.0000  146.4310 C   0  0  0  0  0  0  0  0  0  0  0  0
  192.8200  176.4190  146.2510 F   0  0  0  0  0  0  0  0  0  0  0  0
  189.5660  177.1130  147.5000 C   0  0  0  0  0  3  0  0  0  0  0  0
  191.4460  176.4620  146.0950 C   0  0  2  0  0  3  0  0  0  0  0  0
  186.2390  177.7170  147.3000 C   0  0  0  0  0  0  0  0  0  0  0  0
  185.1850  178.7630  147.2600 C   0  0  0  0  0  1  0  0  0  0  0  0
  187.4300  177.8910  146.5220 N   0  0  0  0  0  2  0  0  0  0  0  0
  186.0640  176.6930  148.0130 O   0  0  0  0  0  0  0  0  0  0  0  0
  2  1  2  0  0  0  0
  2  3  1  0  0  0  0
  3 21  1  0  0  0  0
  4  8  1  0  0  0  0
  4 10  1  0  0  0  0
  5  4  2  0  0  0  0
  6  8  2  0  0  0  0
  7  6  1  0  0  0  0
  8  2  1  0  0  0  0
  9  7  2  0  0  0  0
  9  5  1  0  0  0  0
 10 12  2  0  0  0  0
 11 10  1  0  0  0  0
 11 13  1  0  0  0  0
 13 15  1  6  0  0  0
 13 17  1  0  0  0  0
 15 14  1  0  0  0  0
 16 15  2  0  0  0  0
 17 18  1  0  0  0  0
 19 17  2  0  0  0  0
 21 20  1  1  0  0  0
 21 22  1  0  0  0  0
 22 25  1  0  0  0  0
 23 29  2  0  0  0  0
 24 27  2  0  0  0  0
 25 30  1  0  0  0  0
 26 24  1  0  0  0  0
 26 25  2  0  0  0  0
 27 33  1  0  0  0  0
 27 29  1  0  0  0  0
 30 28  1  1  0  0  0
 30 23  1  0  0  0  0
 31 34  2  0  0  0  0
 32 31  1  0  0  0  0
 33 31  1  0  0  0  0
M  END
>  <MODEL>
8

>  <REMARK>
 VINA RESULT:      -6.8      1.948      2.417
  Name = 
  9 active torsions:
  status: ('A' for Active; 'I' for Inactive)
    1  A    between atoms: C_2  and  C_20
    2  A    between atoms: C_8  and  CA_9
    3  A    between atoms: CA_9  and  C_10
    4  A    between atoms: CA_9  and  N_23
    5  A    between atoms: C_12  and  C_13
    6  A    between atoms: C_12  and  C_26
    7  A    between atoms: C_16  and  C_29
    8  A    between atoms: N_17  and  C_24
    9  A    between atoms: N_22  and  C_26
                            x       y       z     vdW  Elec       q    Type
                         _______ _______ _______ _____ _____    ______ ____

>  <TORSDO>
F 9

$$$$
=
 OpenBabel11062422023D

 34 35  0  0  1  0  0  0  0  0999 V2000
  192.0280  176.7870  144.3300 O   0  0  0  0  0  0  0  0  0  0  0  0
  192.7350  176.0510  145.0700 C   0  0  0  0  0  0  0  0  0  0  0  0
  192.3790  175.8640  146.4480 N   0  0  0  0  0  2  0  0  0  0  0  0
  194.0560  174.1160  144.0600 C   0  0  0  0  0  0  0  0  0  0  0  0
  195.3110  173.6210  143.6910 C   0  0  0  0  0  3  0  0  0  0  0  0
  195.1390  176.2170  144.5660 C   0  0  0  0  0  3  0  0  0  0  0  0
  196.3230  175.6800  144.1780 N   0  0  0  0  0  0  0  0  0  0  0  0
  193.9710  175.4490  144.5320 C   0  0  0  0  0  0  0  0  0  0  0  0
  196.4080  174.4160  143.7640 N   0  0  0  0  0  0  0  0  0  0  0  0
  192.8820  173.2390  143.8540 C   0  0  0  0  0  0  0  0  0  0  0  0
  192.1930  173.2640  142.6010 N   0  0  0  0  0  2  0  0  0  0  0  0
  192.4560  172.5100  144.7920 O   0  0  0  0  0  0  0  0  0  0  0  0
  190.9950  172.4730  142.3410 C   0  0  2  0  0  3  0  0  0  0  0  0
  190.8260  170.0230  141.7720 N   0  0  0  0  0  1  0  0  0  0  0  0
  191.3210  171.3170  141.4520 C   0  0  0  0  0  0  0  0  0  0  0  0
  192.0100  171.4830  140.4100 O   0  0  0  0  0  0  0  0  0  0  0  0
  189.9180  173.3210  141.7380 C   0  0  0  0  0  0  0  0  0  0  0  0
  188.6210  172.8300  141.6600 O   0  0  0  0  0  1  0  0  0  0  0  0
  190.1790  174.4680  141.2900 O   0  0  0  0  0  0  0  0  0  0  0  0
  191.5670  177.0410  148.4370 C   0  0  0  0  0  1  0  0  0  0  0  0
  191.2010  176.4400  147.0900 C   0  0  2  0  0  3  0  0  0  0  0  0
  190.1010  175.3950  147.2320 C   0  0  0  0  0  2  0  0  0  0  0  0
  188.7200  176.2200  143.9940 N   0  0  0  0  0  0  0  0  0  0  0  0
  186.6780  176.7910  146.1610 C   0  0  0  0  0  3  0  0  0  0  0  0
  188.9260  175.7190  146.3630 C   0  0  0  0  0  0  0  0  0  0  0  0
  187.8990  176.3910  146.8880 C   0  0  0  0  0  3  0  0  0  0  0  0
  186.5550  177.0300  144.8440 C   0  0  0  0  0  0  0  0  0  0  0  0
  189.9540  174.3830  144.6810 F   0  0  0  0  0  0  0  0  0  0  0  0
  187.7010  177.0210  143.9110 C   0  0  0  0  0  3  0  0  0  0  0  0
  188.8440  175.1540  144.9770 C   0  0  2  0  0  3  0  0  0  0  0  0
  184.8380  178.8050  144.1200 C   0  0  0  0  0  0  0  0  0  0  0  0
  183.4930  179.0410  143.5360 C   0  0  0  0  0  1  0  0  0  0  0  0
  185.2970  177.4580  144.3020 N   0  0  0  0  0  2  0  0  0  0  0  0
  185.5500  179.7910  144.4490 O   0  0  0  0  0  0  0  0  0  0  0  0
  1  2  2  0  0  0  0
  2  3  1  0  0  0  0
  3 21  1  0  0  0  0
  4  8  1  0  0  0  0
  5  9  1  0  0  0  0
  5  4  2  0  0  0  0
  7  6  1  0  0  0  0
  8  6  2  0  0  0  0
  8  2  1  0  0  0  0
  9  7  2  0  0  0  0
 10  4  1  0  0  0  0
 10 12  2  0  0  0  0
 11 10  1  0  0  0  0
 13 15  1  6  0  0  0
 13 11  1  0  0  0  0
 15 14  1  0  0  0  0
 16 15  2  0  0  0  0
 17 13  1  0  0  0  0
 18 17  1  0  0  0  0
 19 17  2  0  0  0  0
 21 22  1  0  0  0  0
 21 20  1  1  0  0  0
 23 30  1  0  0  0  0
 24 26  1  0  0  0  0
 25 26  2  0  0  0  0
 25 22  1  0  0  0  0
 27 24  2  0  0  0  0
 29 23  2  0  0  0  0
 29 27  1  0  0  0  0
 30 28  1  6  0  0  0
 30 25  1  0  0  0  0
 31 33  1  0  0  0  0
 31 34  2  0  0  0  0
 32 31  1  0  0  0  0
 33 27  1  0  0  0  0
M  END
>  <MODEL>
9

>  <REMARK>
 VINA RESULT:      -6.8      2.472      5.456
  Name = 
  9 active torsions:
  status: ('A' for Active; 'I' for Inactive)
    1  A    between atoms: C_2  and  C_20
    2  A    between atoms: C_8  and  CA_9
    3  A    between atoms: CA_9  and  C_10
    4  A    between atoms: CA_9  and  N_23
    5  A    between atoms: C_12  and  C_13
    6  A    between atoms: C_12  and  C_26
    7  A    between atoms: C_16  and  C_29
    8  A    between atoms: N_17  and  C_24
    9  A    between atoms: N_22  and  C_26
                            x       y       z     vdW  Elec       q    Type
                         _______ _______ _______ _____ _____    ______ ____

>  <TORSDO>
F 9

$$$$
