=
 OpenBabel11062422063D

 34 36  0  0  1  0  0  0  0  0999 V2000
  184.0000  178.4130  140.6210 O   0  0  0  0  0  0  0  0  0  0  0  0
  185.0360  178.6780  145.1410 O   0  0  0  0  0  0  0  0  0  0  0  0
  186.6550  177.3190  138.3790 C   0  0  0  0  0  3  0  0  0  0  0  0
  186.2360  177.4900  140.9660 C   0  0  0  0  0  0  0  0  0  0  0  0
  186.5970  177.3130  143.9880 C   0  0  1  0  0  3  0  0  0  0  0  0
  186.4810  177.3880  139.6490 C   0  0  0  0  0  0  0  0  0  0  0  0
  185.4760  178.3500  143.8130 C   0  0  0  0  0  0  0  0  0  0  0  0
  186.5060  176.7660  145.4570 C   0  0  2  0  0  3  0  0  0  0  0  0
  185.6960  178.3810  147.3300 N   0  0  0  0  0  1  0  0  0  0  0  0
  185.3430  177.6610  146.1050 C   0  0  1  0  0  3  0  0  0  0  0  0
  188.3890  175.8250  143.4780 O   0  0  0  0  0  1  0  0  0  0  0  0
  184.9910  178.2230  141.4230 C   0  0  0  0  0  0  0  0  0  0  0  0
  184.7790  178.7050  142.8050 N   0  0  0  0  0  0  0  0  0  0  0  0
  187.4040  176.7450  143.0590 C   0  0  2  0  0  3  0  0  0  0  0  0
  187.5240  177.3430  141.7090 C   0  0  0  0  0  2  0  0  0  0  0  0
  187.5010  175.1530  138.2390 O   0  0  0  0  0  1  0  0  0  0  0  0
  186.6890  175.9900  137.7390 C   0  0  0  0  0  0  0  0  0  0  0  0
  186.2650  175.8360  136.3710 O   0  0  0  0  0  0  0  0  0  0  0  0
  187.7780  176.2930  146.4210 C   0  0  0  0  0  3  0  0  0  0  0  0
  189.1290  177.2610  146.4460 C   0  0  0  0  0  3  0  0  0  0  0  0
  190.2840  177.0110  147.6090 C   0  0  2  0  0  3  0  0  0  0  0  0
  191.5560  176.2710  147.0070 C   0  0  1  0  0  3  0  0  0  0  0  0
  190.5450  175.6490  147.6760 O   0  0  0  0  0  0  0  0  0  0  0  0
  192.4870  175.3730  144.5080 N   0  0  0  0  0  0  0  0  0  0  0  0
  191.5660  175.2720  145.7160 C   0  0  0  0  0  0  0  0  0  0  0  0
  190.7860  174.3110  145.6870 O   0  0  0  0  0  0  0  0  0  0  0  0
  191.3730  177.3240  143.6520 O   0  0  0  0  0  1  0  0  0  0  0  0
  192.6020  176.6680  143.8320 C   0  0  0  0  0  2  0  0  0  0  0  0
  193.4180  174.2540  144.2420 C   0  0  0  0  0  2  0  0  0  0  0  0
  194.1870  174.0050  145.5180 C   0  0  0  0  0  2  0  0  0  0  0  0
  196.3510  174.3110  146.4130 F   0  0  0  0  0  0  0  0  0  0  0  0
  194.8720  176.0640  146.5750 F   0  0  0  0  0  0  0  0  0  0  0  0
  195.8140  175.6200  144.5230 F   0  0  0  0  0  0  0  0  0  0  0  0
  195.3390  175.0310  145.7340 C   0  0  0  0  0  0  0  0  0  0  0  0
  1 12  2  0  0  0  0
  2 10  1  0  0  0  0
  3  6  2  0  0  0  0
  4 12  1  0  0  0  0
  4 15  1  0  0  0  0
  5  7  1  6  0  0  0
  5  8  1  0  0  0  0
  6  4  2  0  0  0  0
  7  2  1  0  0  0  0
  8 10  1  0  0  0  0
  8 19  1  1  0  0  0
 10  9  1  1  0  0  0
 12 13  1  0  0  0  0
 13  7  2  0  0  0  0
 14 11  1  1  0  0  0
 14  5  1  0  0  0  0
 15 14  1  0  0  0  0
 17 16  1  0  0  0  0
 17  3  1  0  0  0  0
 18 17  2  0  0  0  0
 19 20  2  0  0  0  0
 21 20  1  6  0  0  0
 21 23  1  0  0  0  0
 22 25  1  6  0  0  0
 22 21  1  0  0  0  0
 22 23  1  0  0  0  0
 24 25  1  0  0  0  0
 26 25  2  0  0  0  0
 27 28  1  0  0  0  0
 28 24  1  0  0  0  0
 29 24  1  0  0  0  0
 29 30  1  0  0  0  0
 30 34  1  0  0  0  0
 33 34  1  0  0  0  0
 34 31  1  0  0  0  0
 34 32  1  0  0  0  0
M  END
>  <MODEL>
1

>  <REMARK>
 VINA RESULT:      -7.2      0.000      0.000
  Name = 
  9 active torsions:
  status: ('A' for Active; 'I' for Inactive)
    1  A    between atoms: N_2  and  C_3
    2  A    between atoms: N_2  and  C_14
    3  A    between atoms: C_3  and  C_9
    4  A    between atoms: C_5  and  C_15
    5  A    between atoms: C_6  and  C_22
    6  A    between atoms: C_8  and  C_21
    7  A    between atoms: C_9  and  C_30
    8  A    between atoms: C_10  and  C_22
    9  A    between atoms: C_10  and  C_23
                            x       y       z     vdW  Elec       q    Type
                         _______ _______ _______ _____ _____    ______ ____

>  <TORSDO>
F 9

$$$$
=
 OpenBabel11062422063D

 34 36  0  0  1  0  0  0  0  0999 V2000
  185.1150  176.3970  146.2660 O   0  0  0  0  0  0  0  0  0  0  0  0
  189.6520  176.0630  147.2010 O   0  0  0  0  0  0  0  0  0  0  0  0
  184.1490  178.6200  143.5450 C   0  0  0  0  0  3  0  0  0  0  0  0
  186.3590  177.6230  144.5560 C   0  0  0  0  0  0  0  0  0  0  0  0
  189.2940  176.9490  145.0300 C   0  0  1  0  0  3  0  0  0  0  0  0
  185.2470  178.1480  144.0150 C   0  0  0  0  0  0  0  0  0  0  0  0
  188.6230  176.6330  146.3760 C   0  0  0  0  0  0  0  0  0  0  0  0
  190.6560  176.1690  144.9870 C   0  0  2  0  0  3  0  0  0  0  0  0
  191.9440  175.8090  147.2200 N   0  0  0  0  0  1  0  0  0  0  0  0
  190.7380  175.5070  146.4460 C   0  0  1  0  0  3  0  0  0  0  0  0
  189.6250  177.7720  142.8160 O   0  0  0  0  0  1  0  0  0  0  0  0
  186.2470  176.8660  145.8630 C   0  0  0  0  0  0  0  0  0  0  0  0
  187.4010  176.5450  146.7310 N   0  0  0  0  0  0  0  0  0  0  0  0
  188.7910  177.5750  143.9370 C   0  0  2  0  0  3  0  0  0  0  0  0
  187.5460  178.3710  144.0410 C   0  0  0  0  0  2  0  0  0  0  0  0
  184.5690  178.0060  141.3380 O   0  0  0  0  0  0  0  0  0  0  0  0
  183.6780  178.1460  142.2300 C   0  0  0  0  0  0  0  0  0  0  0  0
  182.3070  178.3520  141.8360 O   0  0  0  0  0  1  0  0  0  0  0  0
  192.0660  176.6720  144.2590 C   0  0  0  0  0  2  0  0  0  0  0  0
  192.8000  175.6290  143.1950 C   0  0  0  0  0  2  0  0  0  0  0  0
  193.0590  174.0550  143.6480 C   0  0  2  0  0  3  0  0  0  0  0  0
  193.0760  173.0880  142.3860 C   0  0  1  0  0  3  0  0  0  0  0  0
  191.9940  173.2910  143.1890 O   0  0  0  0  0  0  0  0  0  0  0  0
  190.9710  172.7380  140.5520 N   0  0  0  0  0  0  0  0  0  0  0  0
  192.3040  173.3420  140.9700 C   0  0  0  0  0  0  0  0  0  0  0  0
  192.8000  174.1140  140.1380 O   0  0  0  0  0  0  0  0  0  0  0  0
  190.2380  170.8960  141.9120 O   0  0  0  0  0  1  0  0  0  0  0  0
  190.7950  171.2890  140.6840 C   0  0  0  0  0  2  0  0  0  0  0  0
  189.8360  173.6530  140.2960 C   0  0  0  0  0  2  0  0  0  0  0  0
  189.6560  174.4930  141.5380 C   0  0  0  0  0  2  0  0  0  0  0  0
  188.8950  173.7790  143.6570 F   0  0  0  0  0  0  0  0  0  0  0  0
  187.8550  172.9070  141.8000 F   0  0  0  0  0  0  0  0  0  0  0  0
  187.3820  175.0800  142.3940 F   0  0  0  0  0  0  0  0  0  0  0  0
  188.4010  174.0800  142.3640 C   0  0  0  0  0  0  0  0  0  0  0  0
  3  6  2  0  0  0  0
  4 12  1  0  0  0  0
  5  7  1  6  0  0  0
  6  4  2  0  0  0  0
  7 13  2  0  0  0  0
  7  2  1  0  0  0  0
  8 19  1  1  0  0  0
  8  5  1  0  0  0  0
  8 10  1  0  0  0  0
 10  2  1  0  0  0  0
 10  9  1  1  0  0  0
 12  1  2  0  0  0  0
 12 13  1  0  0  0  0
 14 11  1  1  0  0  0
 14 15  1  0  0  0  0
 14  5  1  0  0  0  0
 15  4  1  0  0  0  0
 16 17  2  0  0  0  0
 17  3  1  0  0  0  0
 18 17  1  0  0  0  0
 20 19  1  0  0  0  0
 21 20  1  6  0  0  0
 22 25  1  6  0  0  0
 22 23  1  0  0  0  0
 22 21  1  0  0  0  0
 23 21  1  0  0  0  0
 24 28  1  0  0  0  0
 24 25  1  0  0  0  0
 26 25  2  0  0  0  0
 28 27  1  0  0  0  0
 29 24  1  0  0  0  0
 29 30  1  0  0  0  0
 30 34  1  0  0  0  0
 32 34  1  0  0  0  0
 34 33  1  0  0  0  0
 34 31  1  0  0  0  0
M  END
>  <MODEL>
2

>  <REMARK>
 VINA RESULT:      -7.0      3.537      5.705
  Name = 
  9 active torsions:
  status: ('A' for Active; 'I' for Inactive)
    1  A    between atoms: N_2  and  C_3
    2  A    between atoms: N_2  and  C_14
    3  A    between atoms: C_3  and  C_9
    4  A    between atoms: C_5  and  C_15
    5  A    between atoms: C_6  and  C_22
    6  A    between atoms: C_8  and  C_21
    7  A    between atoms: C_9  and  C_30
    8  A    between atoms: C_10  and  C_22
    9  A    between atoms: C_10  and  C_23
                            x       y       z     vdW  Elec       q    Type
                         _______ _______ _______ _____ _____    ______ ____

>  <TORSDO>
F 9

$$$$
=
 OpenBabel11062422063D

 34 36  0  0  1  0  0  0  0  0999 V2000
  183.8730  177.9080  141.7600 O   0  0  0  0  0  0  0  0  0  0  0  0
  185.5480  178.7700  146.0050 O   0  0  0  0  0  0  0  0  0  0  0  0
  186.3010  177.5490  139.0670 C   0  0  0  0  0  3  0  0  0  0  0  0
  186.3100  177.7480  141.6860 C   0  0  0  0  0  0  0  0  0  0  0  0
  187.2320  177.8860  144.5880 C   0  0  1  0  0  3  0  0  0  0  0  0
  186.3400  177.6420  140.3470 C   0  0  0  0  0  0  0  0  0  0  0  0
  185.8290  178.5110  144.6200 C   0  0  0  0  0  0  0  0  0  0  0  0
  187.5790  177.4330  146.0520 C   0  0  2  0  0  3  0  0  0  0  0  0
  186.6410  178.8340  148.0340 N   0  0  0  0  0  1  0  0  0  0  0  0
  186.3250  177.9630  146.9000 C   0  0  1  0  0  3  0  0  0  0  0  0
  189.2850  176.9970  143.7610 O   0  0  0  0  0  1  0  0  0  0  0  0
  184.9980  178.0860  142.3640 C   0  0  0  0  0  0  0  0  0  0  0  0
  184.8900  178.5660  143.7580 N   0  0  0  0  0  0  0  0  0  0  0  0
  188.0020  177.5380  143.5280 C   0  0  2  0  0  3  0  0  0  0  0  0
  187.6880  178.0560  142.1760 C   0  0  0  0  0  2  0  0  0  0  0  0
  187.4920  175.5480  139.0560 O   0  0  0  0  0  1  0  0  0  0  0  0
  186.6410  176.2580  138.4390 C   0  0  0  0  0  0  0  0  0  0  0  0
  186.4560  176.0730  137.0220 O   0  0  0  0  0  0  0  0  0  0  0  0
  189.0840  177.4410  146.7630 C   0  0  0  0  0  3  0  0  0  0  0  0
  189.8140  175.9750  147.0420 C   0  0  0  0  0  3  0  0  0  0  0  0
  191.2020  175.9190  147.9480 C   0  0  2  0  0  3  0  0  0  0  0  0
  192.4820  176.2390  147.0590 C   0  0  1  0  0  3  0  0  0  0  0  0
  192.0550  174.9840  147.3760 O   0  0  0  0  0  0  0  0  0  0  0  0
  193.0160  174.6760  144.7820 N   0  0  0  0  0  0  0  0  0  0  0  0
  192.6250  175.9850  145.4530 C   0  0  0  0  0  0  0  0  0  0  0  0
  192.3730  176.9080  144.6670 O   0  0  0  0  0  0  0  0  0  0  0  0
  195.2320  174.8520  145.6980 O   0  0  0  0  0  1  0  0  0  0  0  0
  194.2170  173.9850  145.2580 C   0  0  0  0  0  2  0  0  0  0  0  0
  192.0360  174.0300  143.8810 C   0  0  0  0  0  2  0  0  0  0  0  0
  191.3940  172.9050  144.6590 C   0  0  0  0  0  2  0  0  0  0  0  0
  189.3770  171.9510  145.4310 F   0  0  0  0  0  0  0  0  0  0  0  0
  189.6520  172.1710  143.1580 F   0  0  0  0  0  0  0  0  0  0  0  0
  189.1960  174.0620  144.3870 F   0  0  0  0  0  0  0  0  0  0  0  0
  189.8620  172.7990  144.4050 C   0  0  0  0  0  0  0  0  0  0  0  0
  1 12  2  0  0  0  0
  2 10  1  0  0  0  0
  3  6  2  0  0  0  0
  4 15  1  0  0  0  0
  4 12  1  0  0  0  0
  5  7  1  6  0  0  0
  5  8  1  0  0  0  0
  6  4  2  0  0  0  0
  7  2  1  0  0  0  0
  8 19  1  1  0  0  0
  8 10  1  0  0  0  0
 10  9  1  1  0  0  0
 12 13  1  0  0  0  0
 13  7  2  0  0  0  0
 14 11  1  1  0  0  0
 14  5  1  0  0  0  0
 15 14  1  0  0  0  0
 17 16  1  0  0  0  0
 17  3  1  0  0  0  0
 18 17  2  0  0  0  0
 19 20  2  0  0  0  0
 21 20  1  6  0  0  0
 22 25  1  6  0  0  0
 22 23  1  0  0  0  0
 22 21  1  0  0  0  0
 23 21  1  0  0  0  0
 24 28  1  0  0  0  0
 24 25  1  0  0  0  0
 26 25  2  0  0  0  0
 28 27  1  0  0  0  0
 29 30  1  0  0  0  0
 29 24  1  0  0  0  0
 32 34  1  0  0  0  0
 33 34  1  0  0  0  0
 34 30  1  0  0  0  0
 34 31  1  0  0  0  0
M  END
>  <MODEL>
3

>  <REMARK>
 VINA RESULT:      -7.0      2.486      2.895
  Name = 
  9 active torsions:
  status: ('A' for Active; 'I' for Inactive)
    1  A    between atoms: N_2  and  C_3
    2  A    between atoms: N_2  and  C_14
    3  A    between atoms: C_3  and  C_9
    4  A    between atoms: C_5  and  C_15
    5  A    between atoms: C_6  and  C_22
    6  A    between atoms: C_8  and  C_21
    7  A    between atoms: C_9  and  C_30
    8  A    between atoms: C_10  and  C_22
    9  A    between atoms: C_10  and  C_23
                            x       y       z     vdW  Elec       q    Type
                         _______ _______ _______ _____ _____    ______ ____

>  <TORSDO>
F 9

$$$$
=
 OpenBabel11062422063D

 34 36  0  0  1  0  0  0  0  0999 V2000
  184.8520  176.5200  146.4910 O   0  0  0  0  0  0  0  0  0  0  0  0
  189.3470  175.9330  147.5050 O   0  0  0  0  0  0  0  0  0  0  0  0
  184.0620  178.7300  143.7050 C   0  0  0  0  0  3  0  0  0  0  0  0
  186.1920  177.6260  144.7730 C   0  0  0  0  0  0  0  0  0  0  0  0
  189.0730  176.7860  145.3080 C   0  0  1  0  0  3  0  0  0  0  0  0
  185.1230  178.2040  144.2020 C   0  0  0  0  0  0  0  0  0  0  0  0
  188.3660  176.5440  146.6500 C   0  0  0  0  0  0  0  0  0  0  0  0
  190.3860  175.9240  145.3050 C   0  0  2  0  0  3  0  0  0  0  0  0
  191.6180  175.5410  147.5650 N   0  0  0  0  0  1  0  0  0  0  0  0
  190.4070  175.2940  146.7800 C   0  0  1  0  0  3  0  0  0  0  0  0
  189.4860  177.5330  143.0810 O   0  0  0  0  0  1  0  0  0  0  0  0
  186.0160  176.9090  146.0960 C   0  0  0  0  0  0  0  0  0  0  0  0
  187.1360  176.5390  146.9890 N   0  0  0  0  0  0  0  0  0  0  0  0
  188.6250  177.4150  144.1940 C   0  0  2  0  0  3  0  0  0  0  0  0
  187.4300  178.2870  144.2590 C   0  0  0  0  0  2  0  0  0  0  0  0
  184.4680  178.0990  141.5000 O   0  0  0  0  0  0  0  0  0  0  0  0
  183.5820  178.2540  142.3940 C   0  0  0  0  0  0  0  0  0  0  0  0
  182.2120  178.4720  142.0040 O   0  0  0  0  0  1  0  0  0  0  0  0
  191.8340  176.3220  144.5880 C   0  0  0  0  0  2  0  0  0  0  0  0
  192.6510  175.1230  143.7800 C   0  0  0  0  0  2  0  0  0  0  0  0
  192.6250  173.5770  144.3790 C   0  0  2  0  0  3  0  0  0  0  0  0
  193.6600  173.4060  145.5750 C   0  0  1  0  0  3  0  0  0  0  0  0
  193.9080  173.0530  144.2820 O   0  0  0  0  0  0  0  0  0  0  0  0
  196.4430  173.8090  145.4840 N   0  0  0  0  0  0  0  0  0  0  0  0
  195.0260  174.2720  145.7950 C   0  0  0  0  0  0  0  0  0  0  0  0
  194.9490  175.4300  146.2260 O   0  0  0  0  0  0  0  0  0  0  0  0
  196.9830  171.5130  145.0180 O   0  0  0  0  0  1  0  0  0  0  0  0
  196.8770  172.5090  146.0030 C   0  0  0  0  0  2  0  0  0  0  0  0
  197.2140  174.5500  144.4610 C   0  0  0  0  0  2  0  0  0  0  0  0
  196.2150  175.1360  143.4920 C   0  0  0  0  0  2  0  0  0  0  0  0
  197.9410  176.7150  143.1710 F   0  0  0  0  0  0  0  0  0  0  0  0
  195.9850  177.4520  144.1310 F   0  0  0  0  0  0  0  0  0  0  0  0
  195.9950  177.0240  141.8700 F   0  0  0  0  0  0  0  0  0  0  0  0
  196.5280  176.6180  143.1300 C   0  0  0  0  0  0  0  0  0  0  0  0
  3  6  2  0  0  0  0
  4 12  1  0  0  0  0
  5  7  1  6  0  0  0
  6  4  2  0  0  0  0
  7 13  2  0  0  0  0
  7  2  1  0  0  0  0
  8 19  1  1  0  0  0
  8  5  1  0  0  0  0
  8 10  1  0  0  0  0
 10  2  1  0  0  0  0
 10  9  1  1  0  0  0
 12  1  2  0  0  0  0
 12 13  1  0  0  0  0
 14 11  1  1  0  0  0
 14 15  1  0  0  0  0
 14  5  1  0  0  0  0
 15  4  1  0  0  0  0
 16 17  2  0  0  0  0
 17  3  1  0  0  0  0
 18 17  1  0  0  0  0
 20 19  1  0  0  0  0
 21 20  1  6  0  0  0
 21 22  1  0  0  0  0
 22 25  1  6  0  0  0
 23 21  1  0  0  0  0
 23 22  1  0  0  0  0
 24 25  1  0  0  0  0
 24 28  1  0  0  0  0
 25 26  2  0  0  0  0
 27 28  1  0  0  0  0
 29 24  1  0  0  0  0
 30 29  1  0  0  0  0
 33 34  1  0  0  0  0
 34 31  1  0  0  0  0
 34 30  1  0  0  0  0
 34 32  1  0  0  0  0
M  END
>  <MODEL>
4

>  <REMARK>
 VINA RESULT:      -6.9      2.864      4.842
  Name = 
  9 active torsions:
  status: ('A' for Active; 'I' for Inactive)
    1  A    between atoms: N_2  and  C_3
    2  A    between atoms: N_2  and  C_14
    3  A    between atoms: C_3  and  C_9
    4  A    between atoms: C_5  and  C_15
    5  A    between atoms: C_6  and  C_22
    6  A    between atoms: C_8  and  C_21
    7  A    between atoms: C_9  and  C_30
    8  A    between atoms: C_10  and  C_22
    9  A    between atoms: C_10  and  C_23
                            x       y       z     vdW  Elec       q    Type
                         _______ _______ _______ _____ _____    ______ ____

>  <TORSDO>
F 9

$$$$
=
 OpenBabel11062422063D

 34 36  0  0  1  0  0  0  0  0999 V2000
  197.1150  177.0320  143.1610 O   0  0  0  0  0  0  0  0  0  0  0  0
  193.5310  176.4780  146.0630 O   0  0  0  0  0  0  0  0  0  0  0  0
  197.9200  174.2280  140.9770 C   0  0  0  0  0  3  0  0  0  0  0  0
  196.0100  174.9140  142.6440 C   0  0  0  0  0  0  0  0  0  0  0  0
  193.4480  174.8970  144.2960 C   0  0  1  0  0  3  0  0  0  0  0  0
  196.9690  174.5350  141.7840 C   0  0  0  0  0  0  0  0  0  0  0  0
  194.3420  175.9190  145.0170 C   0  0  0  0  0  0  0  0  0  0  0  0
  191.9640  175.1840  144.7250 C   0  0  2  0  0  3  0  0  0  0  0  0
  191.5250  176.0820  147.1280 N   0  0  0  0  0  1  0  0  0  0  0  0
  192.1240  176.3470  145.8180 C   0  0  1  0  0  3  0  0  0  0  0  0
  192.7490  173.1660  142.8130 O   0  0  0  0  0  1  0  0  0  0  0  0
  196.2350  176.1490  143.4930 C   0  0  0  0  0  0  0  0  0  0  0  0
  195.4440  176.4770  144.6980 N   0  0  0  0  0  0  0  0  0  0  0  0
  193.7520  174.0340  143.2960 C   0  0  2  0  0  3  0  0  0  0  0  0
  195.1660  173.7280  142.9790 C   0  0  0  0  0  2  0  0  0  0  0  0
  197.8260  175.3120  138.9180 O   0  0  0  0  0  0  0  0  0  0  0  0
  197.6440  174.2150  139.5280 C   0  0  0  0  0  0  0  0  0  0  0  0
  196.7450  173.2350  138.9720 O   0  0  0  0  0  1  0  0  0  0  0  0
  190.7550  174.0600  144.9280 C   0  0  0  0  0  2  0  0  0  0  0  0
  189.4840  174.0900  143.8580 C   0  0  0  0  0  2  0  0  0  0  0  0
  189.6360  174.9390  142.4420 C   0  0  2  0  0  3  0  0  0  0  0  0
  188.7610  176.2660  142.4700 C   0  0  1  0  0  3  0  0  0  0  0  0
  188.3700  175.0950  141.8930 O   0  0  0  0  0  0  0  0  0  0  0  0
  187.2800  177.3440  144.6060 N   0  0  0  0  0  0  0  0  0  0  0  0
  187.4020  176.5030  143.3430 C   0  0  0  0  0  0  0  0  0  0  0  0
  186.3390  175.9930  142.9630 O   0  0  0  0  0  0  0  0  0  0  0  0
  187.9080  176.0310  146.5200 O   0  0  0  0  0  1  0  0  0  0  0  0
  188.2420  177.1120  145.6870 C   0  0  0  0  0  2  0  0  0  0  0  0
  186.3870  178.5230  144.5800 C   0  0  0  0  0  2  0  0  0  0  0  0
  185.9760  178.7980  146.0080 C   0  0  0  0  0  2  0  0  0  0  0  0
  183.7030  178.4910  145.4450 F   0  0  0  0  0  0  0  0  0  0  0  0
  184.2540  178.5250  147.6780 F   0  0  0  0  0  0  0  0  0  0  0  0
  184.7820  176.6490  146.4540 F   0  0  0  0  0  0  0  0  0  0  0  0
  184.6580  178.0700  146.4030 C   0  0  0  0  0  0  0  0  0  0  0  0
  1 12  2  0  0  0  0
  3  6  2  0  0  0  0
  4 15  1  0  0  0  0
  4 12  1  0  0  0  0
  5  8  1  0  0  0  0
  5  7  1  6  0  0  0
  6  4  2  0  0  0  0
  7  2  1  0  0  0  0
  8 19  1  1  0  0  0
  8 10  1  0  0  0  0
 10  2  1  0  0  0  0
 10  9  1  1  0  0  0
 12 13  1  0  0  0  0
 13  7  2  0  0  0  0
 14 11  1  1  0  0  0
 14  5  1  0  0  0  0
 15 14  1  0  0  0  0
 16 17  2  0  0  0  0
 17  3  1  0  0  0  0
 18 17  1  0  0  0  0
 20 19  1  0  0  0  0
 21 22  1  0  0  0  0
 21 20  1  1  0  0  0
 22 25  1  1  0  0  0
 23 21  1  0  0  0  0
 23 22  1  0  0  0  0
 24 28  1  0  0  0  0
 25 24  1  0  0  0  0
 26 25  2  0  0  0  0
 28 27  1  0  0  0  0
 29 24  1  0  0  0  0
 29 30  1  0  0  0  0
 30 34  1  0  0  0  0
 31 34  1  0  0  0  0
 34 33  1  0  0  0  0
 34 32  1  0  0  0  0
M  END
>  <MODEL>
5

>  <REMARK>
 VINA RESULT:      -6.9      4.658      8.774
  Name = 
  9 active torsions:
  status: ('A' for Active; 'I' for Inactive)
    1  A    between atoms: N_2  and  C_3
    2  A    between atoms: N_2  and  C_14
    3  A    between atoms: C_3  and  C_9
    4  A    between atoms: C_5  and  C_15
    5  A    between atoms: C_6  and  C_22
    6  A    between atoms: C_8  and  C_21
    7  A    between atoms: C_9  and  C_30
    8  A    between atoms: C_10  and  C_22
    9  A    between atoms: C_10  and  C_23
                            x       y       z     vdW  Elec       q    Type
                         _______ _______ _______ _____ _____    ______ ____

>  <TORSDO>
F 9

$$$$
=
 OpenBabel11062422063D

 34 36  0  0  1  0  0  0  0  0999 V2000
  187.1770  176.3740  147.3930 O   0  0  0  0  0  0  0  0  0  0  0  0
  190.3330  173.6060  145.4070 O   0  0  0  0  0  0  0  0  0  0  0  0
  185.9030  179.1340  145.3840 C   0  0  0  0  0  3  0  0  0  0  0  0
  187.4010  177.0040  145.0420 C   0  0  0  0  0  0  0  0  0  0  0  0
  189.1400  174.8460  143.7740 C   0  0  1  0  0  3  0  0  0  0  0  0
  186.6370  178.1000  145.1840 C   0  0  0  0  0  0  0  0  0  0  0  0
  189.4570  174.7360  145.2730 C   0  0  0  0  0  0  0  0  0  0  0  0
  189.5550  173.4860  143.1050 C   0  0  2  0  0  3  0  0  0  0  0  0
  191.5940  172.2000  144.0840 N   0  0  0  0  0  1  0  0  0  0  0  0
  190.2310  172.6800  144.3160 C   0  0  1  0  0  3  0  0  0  0  0  0
  188.3020  175.6790  141.7030 O   0  0  0  0  0  1  0  0  0  0  0  0
  187.8170  176.2390  146.2820 C   0  0  0  0  0  0  0  0  0  0  0  0
  188.9140  175.2470  146.3090 N   0  0  0  0  0  0  0  0  0  0  0  0
  188.4320  175.7880  143.1040 C   0  0  2  0  0  3  0  0  0  0  0  0
  188.1340  177.0910  143.7430 C   0  0  0  0  0  2  0  0  0  0  0  0
  183.5930  178.9280  145.6050 O   0  0  0  0  0  1  0  0  0  0  0  0
  184.5470  179.1640  144.8030 C   0  0  0  0  0  0  0  0  0  0  0  0
  184.3600  178.9360  143.3930 O   0  0  0  0  0  0  0  0  0  0  0  0
  190.1680  173.2810  141.5710 C   0  0  0  0  0  2  0  0  0  0  0  0
  191.5850  174.0610  141.1950 C   0  0  0  0  0  2  0  0  0  0  0  0
  192.9250  173.1660  140.8020 C   0  0  2  0  0  3  0  0  0  0  0  0
  194.2230  173.7230  141.5320 C   0  0  1  0  0  3  0  0  0  0  0  0
  193.8700  174.0210  140.2500 O   0  0  0  0  0  0  0  0  0  0  0  0
  194.1640  175.8270  143.3990 N   0  0  0  0  0  0  0  0  0  0  0  0
  194.4670  175.2620  142.0190 C   0  0  0  0  0  0  0  0  0  0  0  0
  194.9710  176.0740  141.2320 O   0  0  0  0  0  0  0  0  0  0  0  0
  192.6770  176.0950  145.2700 O   0  0  0  0  0  1  0  0  0  0  0  0
  192.8360  175.5850  143.9700 C   0  0  0  0  0  2  0  0  0  0  0  0
  195.2890  176.3490  144.2060 C   0  0  0  0  0  2  0  0  0  0  0  0
  196.2200  175.1890  144.4700 C   0  0  0  0  0  2  0  0  0  0  0  0
  194.9580  173.4470  145.4430 F   0  0  0  0  0  0  0  0  0  0  0  0
  195.2690  175.3590  146.6820 F   0  0  0  0  0  0  0  0  0  0  0  0
  197.0420  173.9090  146.4520 F   0  0  0  0  0  0  0  0  0  0  0  0
  195.8930  174.4490  145.8000 C   0  0  0  0  0  0  0  0  0  0  0  0
  4  6  2  0  0  0  0
  4 12  1  0  0  0  0
  5  7  1  1  0  0  0
  6  3  2  0  0  0  0
  7  2  1  0  0  0  0
  7 13  2  0  0  0  0
  8 19  1  6  0  0  0
  8  5  1  0  0  0  0
  8 10  1  0  0  0  0
 10  9  1  6  0  0  0
 10  2  1  0  0  0  0
 12 13  1  0  0  0  0
 12  1  2  0  0  0  0
 14 11  1  6  0  0  0
 14 15  1  0  0  0  0
 14  5  1  0  0  0  0
 15  4  1  0  0  0  0
 17  3  1  0  0  0  0
 17 16  1  0  0  0  0
 18 17  2  0  0  0  0
 20 19  1  0  0  0  0
 21 20  1  1  0  0  0
 21 22  1  0  0  0  0
 22 25  1  1  0  0  0
 23 21  1  0  0  0  0
 23 22  1  0  0  0  0
 24 28  1  0  0  0  0
 24 29  1  0  0  0  0
 25 24  1  0  0  0  0
 26 25  2  0  0  0  0
 28 27  1  0  0  0  0
 29 30  1  0  0  0  0
 30 34  1  0  0  0  0
 31 34  1  0  0  0  0
 34 33  1  0  0  0  0
 34 32  1  0  0  0  0
M  END
>  <MODEL>
6

>  <REMARK>
 VINA RESULT:      -6.8      2.956      5.643
  Name = 
  9 active torsions:
  status: ('A' for Active; 'I' for Inactive)
    1  A    between atoms: N_2  and  C_3
    2  A    between atoms: N_2  and  C_14
    3  A    between atoms: C_3  and  C_9
    4  A    between atoms: C_5  and  C_15
    5  A    between atoms: C_6  and  C_22
    6  A    between atoms: C_8  and  C_21
    7  A    between atoms: C_9  and  C_30
    8  A    between atoms: C_10  and  C_22
    9  A    between atoms: C_10  and  C_23
                            x       y       z     vdW  Elec       q    Type
                         _______ _______ _______ _____ _____    ______ ____

>  <TORSDO>
F 9

$$$$
=
 OpenBabel11062422063D

 34 36  0  0  1  0  0  0  0  0999 V2000
  197.0930  174.4960  145.5110 O   0  0  0  0  0  0  0  0  0  0  0  0
  192.9220  176.4080  146.2320 O   0  0  0  0  0  0  0  0  0  0  0  0
  197.2070  170.8720  145.1480 C   0  0  0  0  0  3  0  0  0  0  0  0
  195.3870  172.7600  145.2880 C   0  0  0  0  0  0  0  0  0  0  0  0
  192.7130  174.2220  145.3360 C   0  0  1  0  0  3  0  0  0  0  0  0
  196.2930  171.7710  145.2120 C   0  0  0  0  0  0  0  0  0  0  0  0
  193.6840  175.2130  145.9970 C   0  0  0  0  0  0  0  0  0  0  0  0
  191.4680  175.0420  144.8400 C   0  0  2  0  0  3  0  0  0  0  0  0
  190.7300  177.1210  146.2210 N   0  0  0  0  0  1  0  0  0  0  0  0
  191.7700  176.5210  145.3850 C   0  0  1  0  0  3  0  0  0  0  0  0
  191.8310  172.2090  144.4110 O   0  0  0  0  0  1  0  0  0  0  0  0
  195.8560  174.1550  145.6450 C   0  0  0  0  0  0  0  0  0  0  0  0
  194.9550  175.2380  146.0970 N   0  0  0  0  0  0  0  0  0  0  0  0
  192.9000  172.9250  144.9910 C   0  0  2  0  0  3  0  0  0  0  0  0
  194.0420  172.1630  145.5470 C   0  0  0  0  0  2  0  0  0  0  0  0
  196.9480  170.7460  142.8370 O   0  0  0  0  0  0  0  0  0  0  0  0
  197.4400  170.1860  143.8630 C   0  0  0  0  0  0  0  0  0  0  0  0
  197.7080  168.7700  143.8380 O   0  0  0  0  0  1  0  0  0  0  0  0
  189.8890  174.5180  144.7920 C   0  0  0  0  0  2  0  0  0  0  0  0
  188.8120  175.3940  143.8800 C   0  0  0  0  0  2  0  0  0  0  0  0
  188.1870  174.7250  142.4970 C   0  0  2  0  0  3  0  0  0  0  0  0
  188.0410  175.8120  141.3460 C   0  0  1  0  0  3  0  0  0  0  0  0
  187.0280  175.4150  142.1670 O   0  0  0  0  0  0  0  0  0  0  0  0
  186.5090  178.1670  141.5140 N   0  0  0  0  0  0  0  0  0  0  0  0
  187.8340  177.4170  141.5610 C   0  0  0  0  0  0  0  0  0  0  0  0
  188.8150  178.1270  141.8170 O   0  0  0  0  0  0  0  0  0  0  0  0
  184.3870  178.5930  140.4680 O   0  0  0  0  0  1  0  0  0  0  0  0
  185.6300  177.9460  140.3630 C   0  0  0  0  0  2  0  0  0  0  0  0
  186.0530  178.8600  142.7380 C   0  0  0  0  0  2  0  0  0  0  0  0
  185.5700  177.7960  143.6960 C   0  0  0  0  0  2  0  0  0  0  0  0
  186.1870  176.5270  145.5900 F   0  0  0  0  0  0  0  0  0  0  0  0
  185.6510  178.7400  145.9160 F   0  0  0  0  0  0  0  0  0  0  0  0
  187.6820  178.2420  144.9550 F   0  0  0  0  0  0  0  0  0  0  0  0
  186.3180  177.8350  145.0620 C   0  0  0  0  0  0  0  0  0  0  0  0
  1 12  2  0  0  0  0
  3  6  2  0  0  0  0
  4 15  1  0  0  0  0
  4 12  1  0  0  0  0
  5  7  1  6  0  0  0
  6  4  2  0  0  0  0
  7 13  2  0  0  0  0
  7  2  1  0  0  0  0
  8 19  1  1  0  0  0
  8  5  1  0  0  0  0
  8 10  1  0  0  0  0
 10  9  1  1  0  0  0
 10  2  1  0  0  0  0
 12 13  1  0  0  0  0
 14 11  1  1  0  0  0
 14  5  1  0  0  0  0
 14 15  1  0  0  0  0
 16 17  2  0  0  0  0
 17  3  1  0  0  0  0
 18 17  1  0  0  0  0
 20 19  1  0  0  0  0
 21 20  1  1  0  0  0
 22 25  1  1  0  0  0
 22 23  1  0  0  0  0
 22 21  1  0  0  0  0
 23 21  1  0  0  0  0
 24 25  1  0  0  0  0
 24 29  1  0  0  0  0
 25 26  2  0  0  0  0
 28 27  1  0  0  0  0
 28 24  1  0  0  0  0
 29 30  1  0  0  0  0
 30 34  1  0  0  0  0
 33 34  1  0  0  0  0
 34 31  1  0  0  0  0
 34 32  1  0  0  0  0
M  END
>  <MODEL>
7

>  <REMARK>
 VINA RESULT:      -6.8      4.033      9.242
  Name = 
  9 active torsions:
  status: ('A' for Active; 'I' for Inactive)
    1  A    between atoms: N_2  and  C_3
    2  A    between atoms: N_2  and  C_14
    3  A    between atoms: C_3  and  C_9
    4  A    between atoms: C_5  and  C_15
    5  A    between atoms: C_6  and  C_22
    6  A    between atoms: C_8  and  C_21
    7  A    between atoms: C_9  and  C_30
    8  A    between atoms: C_10  and  C_22
    9  A    between atoms: C_10  and  C_23
                            x       y       z     vdW  Elec       q    Type
                         _______ _______ _______ _____ _____    ______ ____

>  <TORSDO>
F 9

$$$$
=
 OpenBabel11062422063D

 34 36  0  0  1  0  0  0  0  0999 V2000
  187.6700  175.9360  147.2380 O   0  0  0  0  0  0  0  0  0  0  0  0
  192.3080  175.7660  147.0480 O   0  0  0  0  0  0  0  0  0  0  0  0
  185.9950  178.0720  144.8080 C   0  0  0  0  0  3  0  0  0  0  0  0
  188.4180  177.1670  145.2640 C   0  0  0  0  0  0  0  0  0  0  0  0
  191.4020  176.5970  145.0190 C   0  0  1  0  0  3  0  0  0  0  0  0
  187.1900  177.6450  145.0020 C   0  0  0  0  0  0  0  0  0  0  0  0
  191.0890  176.2860  146.4910 C   0  0  0  0  0  0  0  0  0  0  0  0
  192.7410  175.8600  144.6560 C   0  0  2  0  0  3  0  0  0  0  0  0
  194.5430  175.5860  146.5130 N   0  0  0  0  0  1  0  0  0  0  0  0
  193.1980  175.2300  146.0590 C   0  0  1  0  0  3  0  0  0  0  0  0
  191.1580  177.3850  142.7810 O   0  0  0  0  0  1  0  0  0  0  0  0
  188.6530  176.4330  146.5680 C   0  0  0  0  0  0  0  0  0  0  0  0
  189.9940  176.1660  147.1330 N   0  0  0  0  0  0  0  0  0  0  0  0
  190.6270  177.1840  144.0740 C   0  0  2  0  0  3  0  0  0  0  0  0
  189.4170  177.9410  144.4670 C   0  0  0  0  0  2  0  0  0  0  0  0
  185.8820  176.8170  142.8490 O   0  0  0  0  0  0  0  0  0  0  0  0
  185.2360  177.5570  143.6520 C   0  0  0  0  0  0  0  0  0  0  0  0
  184.0650  178.2550  143.1870 O   0  0  0  0  0  1  0  0  0  0  0  0
  193.9130  176.3920  143.6020 C   0  0  0  0  0  2  0  0  0  0  0  0
  194.2890  175.4190  142.3090 C   0  0  0  0  0  2  0  0  0  0  0  0
  194.6420  173.8210  142.5720 C   0  0  2  0  0  3  0  0  0  0  0  0
  194.0870  172.9080  141.3940 C   0  0  1  0  0  3  0  0  0  0  0  0
  193.4490  173.1100  142.5810 O   0  0  0  0  0  0  0  0  0  0  0  0
  191.4130  172.6460  140.5580 N   0  0  0  0  0  0  0  0  0  0  0  0
  192.8080  173.2450  140.4380 C   0  0  0  0  0  0  0  0  0  0  0  0
  192.9290  174.0820  139.5340 O   0  0  0  0  0  0  0  0  0  0  0  0
  191.1370  170.7120  141.9580 O   0  0  0  0  0  1  0  0  0  0  0  0
  191.2910  171.1890  140.6450 C   0  0  0  0  0  2  0  0  0  0  0  0
  190.2830  173.5550  140.8520 C   0  0  0  0  0  2  0  0  0  0  0  0
  190.4820  174.0670  142.2590 C   0  0  0  0  0  2  0  0  0  0  0  0
  188.6550  172.6440  142.7250 F   0  0  0  0  0  0  0  0  0  0  0  0
  188.3070  174.9130  142.8770 F   0  0  0  0  0  0  0  0  0  0  0  0
  189.5020  173.8800  144.5510 F   0  0  0  0  0  0  0  0  0  0  0  0
  189.2200  173.8720  143.1510 C   0  0  0  0  0  0  0  0  0  0  0  0
  3  6  2  0  0  0  0
  4 12  1  0  0  0  0
  5  7  1  6  0  0  0
  6  4  2  0  0  0  0
  7  2  1  0  0  0  0
  7 13  2  0  0  0  0
  8 19  1  1  0  0  0
  8  5  1  0  0  0  0
  8 10  1  0  0  0  0
 10  9  1  1  0  0  0
 10  2  1  0  0  0  0
 12 13  1  0  0  0  0
 12  1  2  0  0  0  0
 14 11  1  1  0  0  0
 14 15  1  0  0  0  0
 14  5  1  0  0  0  0
 15  4  1  0  0  0  0
 16 17  2  0  0  0  0
 17  3  1  0  0  0  0
 18 17  1  0  0  0  0
 20 19  1  0  0  0  0
 21 20  1  6  0  0  0
 21 23  1  0  0  0  0
 22 25  1  6  0  0  0
 22 21  1  0  0  0  0
 22 23  1  0  0  0  0
 24 28  1  0  0  0  0
 24 29  1  0  0  0  0
 25 24  1  0  0  0  0
 26 25  2  0  0  0  0
 28 27  1  0  0  0  0
 29 30  1  0  0  0  0
 30 34  1  0  0  0  0
 31 34  1  0  0  0  0
 32 34  1  0  0  0  0
 34 33  1  0  0  0  0
M  END
>  <MODEL>
8

>  <REMARK>
 VINA RESULT:      -6.7      3.608      6.491
  Name = 
  9 active torsions:
  status: ('A' for Active; 'I' for Inactive)
    1  A    between atoms: N_2  and  C_3
    2  A    between atoms: N_2  and  C_14
    3  A    between atoms: C_3  and  C_9
    4  A    between atoms: C_5  and  C_15
    5  A    between atoms: C_6  and  C_22
    6  A    between atoms: C_8  and  C_21
    7  A    between atoms: C_9  and  C_30
    8  A    between atoms: C_10  and  C_22
    9  A    between atoms: C_10  and  C_23
                            x       y       z     vdW  Elec       q    Type
                         _______ _______ _______ _____ _____    ______ ____

>  <TORSDO>
F 9

$$$$
=
 OpenBabel11062422063D

 34 36  0  0  1  0  0  0  0  0999 V2000
  196.8700  177.1460  143.5140 O   0  0  0  0  0  0  0  0  0  0  0  0
  193.2570  176.6440  146.3890 O   0  0  0  0  0  0  0  0  0  0  0  0
  197.1780  174.7240  140.8100 C   0  0  0  0  0  3  0  0  0  0  0  0
  195.4190  175.3810  142.6460 C   0  0  0  0  0  0  0  0  0  0  0  0
  192.8990  175.4700  144.3580 C   0  0  1  0  0  3  0  0  0  0  0  0
  196.2970  175.0220  141.6950 C   0  0  0  0  0  0  0  0  0  0  0  0
  193.9560  176.1710  145.2260 C   0  0  0  0  0  0  0  0  0  0  0  0
  191.4870  175.9110  144.8880 C   0  0  2  0  0  3  0  0  0  0  0  0
  191.2170  176.3870  147.4320 N   0  0  0  0  0  1  0  0  0  0  0  0
  191.8460  176.7980  146.1760 C   0  0  1  0  0  3  0  0  0  0  0  0
  191.9100  174.1980  142.6010 O   0  0  0  0  0  1  0  0  0  0  0  0
  195.8550  176.3740  143.7050 C   0  0  0  0  0  0  0  0  0  0  0  0
  195.1360  176.5890  144.9790 N   0  0  0  0  0  0  0  0  0  0  0  0
  193.0480  174.7790  143.2020 C   0  0  2  0  0  3  0  0  0  0  0  0
  194.3880  174.3090  142.7810 C   0  0  0  0  0  2  0  0  0  0  0  0
  197.8940  175.4000  138.6990 O   0  0  0  0  0  0  0  0  0  0  0  0
  196.8980  175.0370  139.3960 C   0  0  0  0  0  0  0  0  0  0  0  0
  195.5710  175.4240  138.9910 O   0  0  0  0  0  1  0  0  0  0  0  0
  190.1050  174.9840  144.9190 C   0  0  0  0  0  2  0  0  0  0  0  0
  188.7700  175.5620  144.1170 C   0  0  0  0  0  2  0  0  0  0  0  0
  188.2670  174.8080  142.7290 C   0  0  2  0  0  3  0  0  0  0  0  0
  188.1600  175.8370  141.5210 C   0  0  1  0  0  3  0  0  0  0  0  0
  187.1080  175.4350  142.2900 O   0  0  0  0  0  0  0  0  0  0  0  0
  186.5110  178.1110  141.6880 N   0  0  0  0  0  0  0  0  0  0  0  0
  187.8770  177.4400  141.6470 C   0  0  0  0  0  0  0  0  0  0  0  0
  188.8330  178.2190  141.7500 O   0  0  0  0  0  0  0  0  0  0  0  0
  184.4810  178.6810  140.5320 O   0  0  0  0  0  1  0  0  0  0  0  0
  185.5350  177.7590  140.6530 C   0  0  0  0  0  2  0  0  0  0  0  0
  186.1380  178.8680  142.9030 C   0  0  0  0  0  2  0  0  0  0  0  0
  185.2490  177.9680  143.7300 C   0  0  0  0  0  2  0  0  0  0  0  0
  185.0340  178.6780  145.9710 F   0  0  0  0  0  0  0  0  0  0  0  0
  187.1410  178.1440  145.2190 F   0  0  0  0  0  0  0  0  0  0  0  0
  185.6700  176.4270  145.6510 F   0  0  0  0  0  0  0  0  0  0  0  0
  185.7800  177.7700  145.1800 C   0  0  0  0  0  0  0  0  0  0  0  0
  1 12  2  0  0  0  0
  3  6  2  0  0  0  0
  4 15  1  0  0  0  0
  4 12  1  0  0  0  0
  5  8  1  0  0  0  0
  5  7  1  6  0  0  0
  6  4  2  0  0  0  0
  7  2  1  0  0  0  0
  8 19  1  1  0  0  0
  8 10  1  0  0  0  0
 10  2  1  0  0  0  0
 10  9  1  1  0  0  0
 12 13  1  0  0  0  0
 13  7  2  0  0  0  0
 14 11  1  1  0  0  0
 14  5  1  0  0  0  0
 15 14  1  0  0  0  0
 16 17  2  0  0  0  0
 17  3  1  0  0  0  0
 18 17  1  0  0  0  0
 20 19  1  0  0  0  0
 21 20  1  1  0  0  0
 22 25  1  1  0  0  0
 22 23  1  0  0  0  0
 22 21  1  0  0  0  0
 23 21  1  0  0  0  0
 24 29  1  0  0  0  0
 25 24  1  0  0  0  0
 25 26  2  0  0  0  0
 27 28  1  0  0  0  0
 28 24  1  0  0  0  0
 29 30  1  0  0  0  0
 30 34  1  0  0  0  0
 34 32  1  0  0  0  0
 34 33  1  0  0  0  0
 34 31  1  0  0  0  0
M  END
>  <MODEL>
9

>  <REMARK>
 VINA RESULT:      -6.7      4.127      8.443
  Name = 
  9 active torsions:
  status: ('A' for Active; 'I' for Inactive)
    1  A    between atoms: N_2  and  C_3
    2  A    between atoms: N_2  and  C_14
    3  A    between atoms: C_3  and  C_9
    4  A    between atoms: C_5  and  C_15
    5  A    between atoms: C_6  and  C_22
    6  A    between atoms: C_8  and  C_21
    7  A    between atoms: C_9  and  C_30
    8  A    between atoms: C_10  and  C_22
    9  A    between atoms: C_10  and  C_23
                            x       y       z     vdW  Elec       q    Type
                         _______ _______ _______ _____ _____    ______ ____

>  <TORSDO>
F 9

$$$$
