=
 OpenBabel11062421523D

 37 41  0  0  1  0  0  0  0  0999 V2000
  190.5770  175.5120  147.0020 C   0  0  1  0  0  3  0  0  0  0  0  0
  190.4590  177.0360  146.8970 C   0  0  0  0  0  2  0  0  0  0  0  0
  189.8020  173.6580  145.6390 N   0  0  0  0  0  2  0  0  0  0  0  0
  189.6260  174.8780  146.0280 C   0  0  0  0  0  0  0  0  0  0  0  0
  189.0630  177.4760  146.9270 N   0  0  0  0  0  0  0  0  0  0  0  0
  188.1030  176.7970  146.3670 C   0  0  0  0  0  0  0  0  0  0  0  0
  188.3690  175.5140  145.7940 N   0  0  0  0  0  2  0  0  0  0  0  0
  184.9090  178.5630  145.2480 C   0  0  1  0  0  3  0  0  0  0  0  0
  184.6500  177.9010  147.4880 O   0  0  0  0  0  0  0  0  0  0  0  0
  186.5450  178.6550  147.0330 C   0  0  1  0  0  3  0  0  0  0  0  0
  185.1140  178.9820  146.7120 C   0  0  1  0  0  3  0  0  0  0  0  0
  185.6490  179.4500  144.2550 C   0  0  0  0  0  2  0  0  0  0  0  0
  185.9670  177.4410  147.6890 C   0  0  2  0  0  3  0  0  0  0  0  0
  186.6510  178.3280  144.0150 C   0  0  1  0  0  3  0  0  0  0  0  0
  185.9210  177.4400  145.0220 C   0  0  1  0  0  3  0  0  0  0  0  0
  186.7100  177.3400  146.3400 C   0  0  2  0  0  0  0  0  0  0  0  0
  188.7100  178.3590  141.8750 O   0  0  0  0  0  1  0  0  0  0  0  0
  186.5650  177.8020  142.6510 N   0  0  0  0  0  2  0  0  0  0  0  0
  187.5890  177.8300  141.6470 C   0  0  0  0  0  0  0  0  0  0  0  0
  187.3430  177.2600  140.4060 O   0  0  0  0  0  0  0  0  0  0  0  0
  192.8630  175.9840  146.6150 C   0  0  0  0  0  3  0  0  0  0  0  0
  191.9330  175.1090  146.7260 N   0  0  0  0  0  0  0  0  0  0  0  0
  194.2610  175.5560  146.3220 C   0  0  0  0  0  2  0  0  0  0  0  0
  194.3660  175.0070  144.9070 C   0  0  2  0  0  3  0  0  0  0  0  0
  196.3810  174.0920  146.0670 C   0  0  0  0  0  1  0  0  0  0  0  0
  195.6160  174.1490  144.7600 C   0  0  0  0  0  2  0  0  0  0  0  0
  194.4370  176.1750  143.9370 C   0  0  0  0  0  2  0  0  0  0  0  0
  193.4050  176.0260  142.8280 C   0  0  1  0  0  3  0  0  0  0  0  0
  194.0700  174.2390  141.2070 O   0  0  0  0  0  1  0  0  0  0  0  0
  194.7010  176.4170  140.8680 O   0  0  0  0  0  0  0  0  0  0  0  0
  194.0840  175.5800  141.5760 C   0  0  0  0  0  0  0  0  0  0  0  0
  192.4250  175.0980  143.1930 O   0  0  0  0  0  0  0  0  0  0  0  0
  191.2120  175.7240  142.8990 C   0  0  0  0  0  2  0  0  0  0  0  0
  190.3300  174.7910  142.0900 C   0  0  1  0  0  3  0  0  0  0  0  0
  190.7370  173.4710  142.2910 O   0  0  0  0  0  1  0  0  0  0  0  0
  189.0050  174.9350  142.4990 O   0  0  0  0  0  0  0  0  0  0  0  0
  188.3590  173.7950  142.0230 C   0  0  0  0  0  1  0  0  0  0  0  0
  1 22  1  6  0  0  0
  2  5  1  0  0  0  0
  2  1  1  0  0  0  0
  3  4  2  0  0  0  0
  4  1  1  0  0  0  0
  6  5  2  0  0  0  0
  7  4  1  0  0  0  0
  7  6  1  0  0  0  0
  8 12  1  6  0  0  0
  8 11  1  0  0  0  0
  9 13  1  0  0  0  0
 10 13  1  0  0  0  0
 11 10  1  0  0  0  0
 11  9  1  0  0  0  0
 14 12  1  0  0  0  0
 14 15  1  0  0  0  0
 15  8  1  0  0  0  0
 15 16  1  0  0  0  0
 16  6  1  0  0  0  0
 16 10  1  0  0  0  0
 16 13  1  0  0  0  0
 18 14  1  0  0  0  0
 19 17  1  0  0  0  0
 19 18  1  0  0  0  0
 20 19  2  0  0  0  0
 21 22  2  0  0  0  0
 23 21  1  0  0  0  0
 24 23  1  0  0  0  0
 26 24  1  0  0  0  0
 26 25  1  0  0  0  0
 27 24  1  0  0  0  0
 28 32  1  0  0  0  0
 28 27  1  0  0  0  0
 29 31  1  0  0  0  0
 30 31  2  0  0  0  0
 31 28  1  0  0  0  0
 33 32  1  0  0  0  0
 34 35  1  0  0  0  0
 34 36  1  0  0  0  0
 34 33  1  0  0  0  0
 37 36  1  0  0  0  0
M  END
>  <MODEL>
1

>  <REMARK>
 VINA RESULT:      -6.7      0.000      0.000
  Name = 
  13 active torsions:
  status: ('A' for Active; 'I' for Inactive)
    1  A    between atoms: O_2  and  C_16
    2  A    between atoms: O_2  and  C_27
    3  A    between atoms: C_3  and  N_37
    4  A    between atoms: O_4  and  C_12
    5  A    between atoms: C_9  and  C_18
    6  A    between atoms: C_9  and  C_26
    7  A    between atoms: C_12  and  C_16
    8  A    between atoms: C_14  and  C_18
    9  A    between atoms: C_14  and  C_27
   10  A    between atoms: N_17  and  C_28
   11  A    between atoms: C_18  and  C_35
   12  A    between atoms: C_25  and  C_36
   13  A    between atoms: C_27  and  C_33
                            x       y       z     vdW  Elec       q    Type
                         _______ _______ _______ _____ _____    ______ ____

>  <TORSDO>
F 13

$$$$
=
 OpenBabel11062421523D

 37 41  0  0  1  0  0  0  0  0999 V2000
  190.1580  175.7510  146.9970 C   0  0  1  0  0  3  0  0  0  0  0  0
  189.9380  177.2660  147.0090 C   0  0  0  0  0  2  0  0  0  0  0  0
  189.7250  173.9920  145.3800 N   0  0  0  0  0  2  0  0  0  0  0  0
  189.4030  175.1540  145.8440 C   0  0  0  0  0  0  0  0  0  0  0  0
  188.5200  177.6100  146.8760 N   0  0  0  0  0  0  0  0  0  0  0  0
  187.7030  176.9280  146.1260 C   0  0  0  0  0  0  0  0  0  0  0  0
  188.1440  175.7270  145.4870 N   0  0  0  0  0  2  0  0  0  0  0  0
  184.5210  178.4100  144.6240 C   0  0  1  0  0  3  0  0  0  0  0  0
  184.1080  177.8870  146.8770 O   0  0  0  0  0  0  0  0  0  0  0  0
  185.9900  178.7250  146.5260 C   0  0  1  0  0  3  0  0  0  0  0  0
  184.5760  178.9390  146.0650 C   0  0  1  0  0  3  0  0  0  0  0  0
  185.2930  179.2720  143.6320 C   0  0  0  0  0  2  0  0  0  0  0  0
  185.4270  177.5240  147.2180 C   0  0  2  0  0  3  0  0  0  0  0  0
  186.3740  178.2020  143.5570 C   0  0  1  0  0  3  0  0  0  0  0  0
  185.6110  177.3400  144.5630 C   0  0  1  0  0  3  0  0  0  0  0  0
  186.2880  177.3790  145.9450 C   0  0  2  0  0  0  0  0  0  0  0  0
  188.6370  178.1370  141.6350 O   0  0  0  0  0  1  0  0  0  0  0  0
  186.4360  177.5800  142.2330 N   0  0  0  0  0  2  0  0  0  0  0  0
  187.5550  177.5650  141.3360 C   0  0  0  0  0  0  0  0  0  0  0  0
  187.4460  176.9040  140.1210 O   0  0  0  0  0  0  0  0  0  0  0  0
  192.4230  176.4170  146.8370 C   0  0  0  0  0  3  0  0  0  0  0  0
  191.5670  175.4650  146.8850 N   0  0  0  0  0  0  0  0  0  0  0  0
  193.8770  176.1110  146.7140 C   0  0  0  0  0  2  0  0  0  0  0  0
  194.1360  175.2320  145.5000 C   0  0  2  0  0  3  0  0  0  0  0  0
  195.7050  173.3900  144.8790 C   0  0  0  0  0  1  0  0  0  0  0  0
  195.5900  174.7810  145.4690 C   0  0  0  0  0  2  0  0  0  0  0  0
  193.8290  176.0340  144.2460 C   0  0  0  0  0  2  0  0  0  0  0  0
  192.8730  175.2780  143.3340 C   0  0  1  0  0  3  0  0  0  0  0  0
  191.5420  177.3710  143.6590 O   0  0  0  0  0  1  0  0  0  0  0  0
  190.6950  175.6260  142.4360 O   0  0  0  0  0  0  0  0  0  0  0  0
  191.6490  176.1000  143.1060 C   0  0  0  0  0  0  0  0  0  0  0  0
  193.4880  174.9910  142.1120 O   0  0  0  0  0  0  0  0  0  0  0  0
  194.2030  176.1460  141.7900 C   0  0  0  0  0  2  0  0  0  0  0  0
  195.4490  175.7820  141.0060 C   0  0  1  0  0  3  0  0  0  0  0  0
  196.4070  176.7870  141.1530 O   0  0  0  0  0  1  0  0  0  0  0  0
  195.9630  174.5780  141.4860 O   0  0  0  0  0  0  0  0  0  0  0  0
  196.2760  173.8430  140.3430 C   0  0  0  0  0  1  0  0  0  0  0  0
  1 22  1  6  0  0  0
  1  2  1  0  0  0  0
  3  4  2  0  0  0  0
  4  1  1  0  0  0  0
  5  2  1  0  0  0  0
  6  5  2  0  0  0  0
  7  4  1  0  0  0  0
  7  6  1  0  0  0  0
  8 12  1  6  0  0  0
  8 11  1  0  0  0  0
  9 13  1  0  0  0  0
 10 13  1  0  0  0  0
 11 10  1  0  0  0  0
 11  9  1  0  0  0  0
 14 12  1  0  0  0  0
 14 15  1  0  0  0  0
 15  8  1  0  0  0  0
 15 16  1  0  0  0  0
 16  6  1  0  0  0  0
 16 10  1  0  0  0  0
 16 13  1  0  0  0  0
 18 14  1  0  0  0  0
 19 17  1  0  0  0  0
 19 18  1  0  0  0  0
 20 19  2  0  0  0  0
 21 22  2  0  0  0  0
 23 21  1  0  0  0  0
 24 23  1  0  0  0  0
 25 26  1  0  0  0  0
 26 24  1  0  0  0  0
 27 24  1  0  0  0  0
 28 27  1  0  0  0  0
 30 31  2  0  0  0  0
 31 28  1  0  0  0  0
 31 29  1  0  0  0  0
 32 28  1  0  0  0  0
 33 32  1  0  0  0  0
 34 35  1  0  0  0  0
 34 36  1  0  0  0  0
 34 33  1  0  0  0  0
 37 36  1  0  0  0  0
M  END
>  <MODEL>
2

>  <REMARK>
 VINA RESULT:      -6.5      1.140      2.671
  Name = 
  13 active torsions:
  status: ('A' for Active; 'I' for Inactive)
    1  A    between atoms: O_2  and  C_16
    2  A    between atoms: O_2  and  C_27
    3  A    between atoms: C_3  and  N_37
    4  A    between atoms: O_4  and  C_12
    5  A    between atoms: C_9  and  C_18
    6  A    between atoms: C_9  and  C_26
    7  A    between atoms: C_12  and  C_16
    8  A    between atoms: C_14  and  C_18
    9  A    between atoms: C_14  and  C_27
   10  A    between atoms: N_17  and  C_28
   11  A    between atoms: C_18  and  C_35
   12  A    between atoms: C_25  and  C_36
   13  A    between atoms: C_27  and  C_33
                            x       y       z     vdW  Elec       q    Type
                         _______ _______ _______ _____ _____    ______ ____

>  <TORSDO>
F 13

$$$$
=
 OpenBabel11062421523D

 37 41  0  0  1  0  0  0  0  0999 V2000
  190.6070  176.0600  142.8140 C   0  0  1  0  0  3  0  0  0  0  0  0
  189.7580  174.8960  143.3330 C   0  0  0  0  0  2  0  0  0  0  0  0
  191.7630  177.9130  143.8750 N   0  0  0  0  0  2  0  0  0  0  0  0
  190.7920  177.0620  143.9180 C   0  0  0  0  0  0  0  0  0  0  0  0
  188.5590  175.3660  144.0290 N   0  0  0  0  0  0  0  0  0  0  0  0
  188.5550  176.4380  144.7680 C   0  0  0  0  0  0  0  0  0  0  0  0
  189.7140  177.2740  144.8300 N   0  0  0  0  0  2  0  0  0  0  0  0
  185.3270  178.1710  145.8420 C   0  0  1  0  0  3  0  0  0  0  0  0
  186.0230  176.7490  147.5780 O   0  0  0  0  0  0  0  0  0  0  0  0
  187.5800  177.7900  146.6500 C   0  0  1  0  0  3  0  0  0  0  0  0
  186.1790  178.0710  147.1160 C   0  0  1  0  0  3  0  0  0  0  0  0
  185.6210  179.4140  145.0120 C   0  0  0  0  0  2  0  0  0  0  0  0
  187.2600  176.3750  147.0140 C   0  0  2  0  0  3  0  0  0  0  0  0
  186.3350  178.5470  143.9840 C   0  0  1  0  0  3  0  0  0  0  0  0
  186.0560  177.2990  144.8200 C   0  0  1  0  0  3  0  0  0  0  0  0
  187.3310  176.8210  145.5380 C   0  0  2  0  0  0  0  0  0  0  0  0
  187.3890  177.8950  141.2850 O   0  0  0  0  0  1  0  0  0  0  0  0
  185.6270  178.5230  142.7020 N   0  0  0  0  0  2  0  0  0  0  0  0
  186.1720  178.1940  141.4180 C   0  0  0  0  0  0  0  0  0  0  0  0
  185.3460  178.2000  140.3040 O   0  0  0  0  0  0  0  0  0  0  0  0
  191.9490  174.5150  141.6280 C   0  0  0  0  0  3  0  0  0  0  0  0
  191.8820  175.5670  142.3570 N   0  0  0  0  0  0  0  0  0  0  0  0
  193.2740  174.0090  141.1660 C   0  0  0  0  0  2  0  0  0  0  0  0
  194.3990  174.6580  141.9570 C   0  0  2  0  0  3  0  0  0  0  0  0
  195.6650  176.6870  141.2350 C   0  0  0  0  0  1  0  0  0  0  0  0
  195.4670  175.2000  141.0170 C   0  0  0  0  0  2  0  0  0  0  0  0
  195.0140  173.6130  142.8730 C   0  0  0  0  0  2  0  0  0  0  0  0
  195.1170  174.1320  144.3000 C   0  0  1  0  0  3  0  0  0  0  0  0
  197.1930  173.5990  145.5910 O   0  0  0  0  0  1  0  0  0  0  0  0
  197.1680  175.3230  144.0800 O   0  0  0  0  0  0  0  0  0  0  0  0
  196.5490  174.3800  144.6380 C   0  0  0  0  0  0  0  0  0  0  0  0
  194.3840  175.3130  144.4450 O   0  0  0  0  0  0  0  0  0  0  0  0
  193.5580  175.0890  145.5490 C   0  0  0  0  0  2  0  0  0  0  0  0
  193.7970  176.1570  146.6000 C   0  0  1  0  0  3  0  0  0  0  0  0
  194.4530  177.2450  146.0220 O   0  0  0  0  0  1  0  0  0  0  0  0
  192.5740  176.5750  147.1220 O   0  0  0  0  0  0  0  0  0  0  0  0
  191.7820  175.4270  147.1380 C   0  0  0  0  0  1  0  0  0  0  0  0
  1 22  1  1  0  0  0
  1  2  1  0  0  0  0
  1  4  1  0  0  0  0
  2  5  1  0  0  0  0
  3  4  2  0  0  0  0
  4  7  1  0  0  0  0
  5  6  2  0  0  0  0
  6  7  1  0  0  0  0
  6 16  1  0  0  0  0
  8 12  1  6  0  0  0
  8 11  1  0  0  0  0
 10 13  1  0  0  0  0
 10 11  1  0  0  0  0
 11  9  1  0  0  0  0
 13  9  1  0  0  0  0
 14 15  1  0  0  0  0
 14 12  1  0  0  0  0
 15 16  1  0  0  0  0
 15  8  1  0  0  0  0
 16 10  1  0  0  0  0
 16 13  1  0  0  0  0
 17 19  1  0  0  0  0
 18 14  1  0  0  0  0
 19 18  1  0  0  0  0
 20 19  2  0  0  0  0
 21 22  2  0  0  0  0
 23 21  1  0  0  0  0
 23 24  1  0  0  0  0
 24 27  1  0  0  0  0
 26 25  1  0  0  0  0
 26 24  1  0  0  0  0
 27 28  1  0  0  0  0
 28 32  1  0  0  0  0
 28 31  1  0  0  0  0
 30 31  2  0  0  0  0
 31 29  1  0  0  0  0
 32 33  1  0  0  0  0
 33 34  1  0  0  0  0
 34 36  1  0  0  0  0
 35 34  1  0  0  0  0
 36 37  1  0  0  0  0
M  END
>  <MODEL>
3

>  <REMARK>
 VINA RESULT:      -6.4      2.198      3.681
  Name = 
  13 active torsions:
  status: ('A' for Active; 'I' for Inactive)
    1  A    between atoms: O_2  and  C_16
    2  A    between atoms: O_2  and  C_27
    3  A    between atoms: C_3  and  N_37
    4  A    between atoms: O_4  and  C_12
    5  A    between atoms: C_9  and  C_18
    6  A    between atoms: C_9  and  C_26
    7  A    between atoms: C_12  and  C_16
    8  A    between atoms: C_14  and  C_18
    9  A    between atoms: C_14  and  C_27
   10  A    between atoms: N_17  and  C_28
   11  A    between atoms: C_18  and  C_35
   12  A    between atoms: C_25  and  C_36
   13  A    between atoms: C_27  and  C_33
                            x       y       z     vdW  Elec       q    Type
                         _______ _______ _______ _____ _____    ______ ____

>  <TORSDO>
F 13

$$$$
=
 OpenBabel11062421523D

 37 41  0  0  1  0  0  0  0  0999 V2000
  190.5680  176.9340  145.9660 C   0  0  1  0  0  3  0  0  0  0  0  0
  189.9990  177.5880  144.7020 C   0  0  0  0  0  2  0  0  0  0  0  0
  190.0800  174.8870  147.1770 N   0  0  0  0  0  2  0  0  0  0  0  0
  189.6510  175.8270  146.4010 C   0  0  0  0  0  0  0  0  0  0  0  0
  188.5760  177.9030  144.8470 N   0  0  0  0  0  0  0  0  0  0  0  0
  187.7540  177.1360  145.5040 C   0  0  0  0  0  0  0  0  0  0  0  0
  188.2450  175.9990  146.2190 N   0  0  0  0  0  2  0  0  0  0  0  0
  184.2860  178.4210  144.5550 C   0  0  1  0  0  3  0  0  0  0  0  0
  184.2070  177.6220  146.7640 O   0  0  0  0  0  0  0  0  0  0  0  0
  185.9450  178.6880  146.3030 C   0  0  1  0  0  3  0  0  0  0  0  0
  184.4700  178.7970  146.0330 C   0  0  1  0  0  3  0  0  0  0  0  0
  184.8450  179.4600  143.5910 C   0  0  0  0  0  2  0  0  0  0  0  0
  185.5860  177.3680  146.9090 C   0  0  2  0  0  3  0  0  0  0  0  0
  186.0030  178.5250  143.2690 C   0  0  1  0  0  3  0  0  0  0  0  0
  185.4550  177.4860  144.2470 C   0  0  1  0  0  3  0  0  0  0  0  0
  186.2920  177.4500  145.5380 C   0  0  2  0  0  0  0  0  0  0  0  0
  188.2570  177.9620  141.4200 O   0  0  0  0  0  1  0  0  0  0  0  0
  185.9580  178.0560  141.8830 N   0  0  0  0  0  2  0  0  0  0  0  0
  187.0740  177.7880  141.0240 C   0  0  0  0  0  0  0  0  0  0  0  0
  186.8470  177.3250  139.7360 O   0  0  0  0  0  0  0  0  0  0  0  0
  192.4710  176.6790  144.5840 C   0  0  0  0  0  3  0  0  0  0  0  0
  191.8890  176.4250  145.6970 N   0  0  0  0  0  0  0  0  0  0  0  0
  193.8360  176.1410  144.3140 C   0  0  0  0  0  2  0  0  0  0  0  0
  194.0100  174.7770  144.9650 C   0  0  2  0  0  3  0  0  0  0  0  0
  196.5010  174.5990  144.8940 C   0  0  0  0  0  1  0  0  0  0  0  0
  195.2890  174.7410  145.7920 C   0  0  0  0  0  2  0  0  0  0  0  0
  194.0850  173.7230  143.8730 C   0  0  0  0  0  2  0  0  0  0  0  0
  193.0120  172.6610  144.0660 C   0  0  1  0  0  3  0  0  0  0  0  0
  193.6240  170.2500  143.7890 O   0  0  0  0  0  0  0  0  0  0  0  0
  194.1620  171.3780  145.7110 O   0  0  0  0  0  1  0  0  0  0  0  0
  193.6420  171.4030  144.5660 C   0  0  0  0  0  0  0  0  0  0  0  0
  192.0450  173.1010  144.9740 O   0  0  0  0  0  0  0  0  0  0  0  0
  190.8520  172.5230  144.5360 C   0  0  0  0  0  2  0  0  0  0  0  0
  190.4980  173.0470  143.1570 C   0  0  1  0  0  3  0  0  0  0  0  0
  189.7250  172.1030  142.4810 O   0  0  0  0  0  1  0  0  0  0  0  0
  189.7770  174.2340  143.2850 O   0  0  0  0  0  0  0  0  0  0  0  0
  190.1010  174.9720  142.1460 C   0  0  0  0  0  1  0  0  0  0  0  0
  1 22  1  6  0  0  0
  1  4  1  0  0  0  0
  2  5  1  0  0  0  0
  2  1  1  0  0  0  0
  4  3  2  0  0  0  0
  5  6  2  0  0  0  0
  6 16  1  0  0  0  0
  6  7  1  0  0  0  0
  7  4  1  0  0  0  0
  8 12  1  6  0  0  0
  8 11  1  0  0  0  0
  9 13  1  0  0  0  0
 10 13  1  0  0  0  0
 11 10  1  0  0  0  0
 11  9  1  0  0  0  0
 14 12  1  0  0  0  0
 14 15  1  0  0  0  0
 15  8  1  0  0  0  0
 15 16  1  0  0  0  0
 16 10  1  0  0  0  0
 16 13  1  0  0  0  0
 18 14  1  0  0  0  0
 19 17  1  0  0  0  0
 19 18  1  0  0  0  0
 20 19  2  0  0  0  0
 21 22  2  0  0  0  0
 23 21  1  0  0  0  0
 23 24  1  0  0  0  0
 24 26  1  0  0  0  0
 25 26  1  0  0  0  0
 27 28  1  0  0  0  0
 27 24  1  0  0  0  0
 28 31  1  0  0  0  0
 28 32  1  0  0  0  0
 29 31  2  0  0  0  0
 31 30  1  0  0  0  0
 33 32  1  0  0  0  0
 34 36  1  0  0  0  0
 34 33  1  0  0  0  0
 35 34  1  0  0  0  0
 37 36  1  0  0  0  0
M  END
>  <MODEL>
4

>  <REMARK>
 VINA RESULT:      -6.4      1.874      2.309
  Name = 
  13 active torsions:
  status: ('A' for Active; 'I' for Inactive)
    1  A    between atoms: O_2  and  C_16
    2  A    between atoms: O_2  and  C_27
    3  A    between atoms: C_3  and  N_37
    4  A    between atoms: O_4  and  C_12
    5  A    between atoms: C_9  and  C_18
    6  A    between atoms: C_9  and  C_26
    7  A    between atoms: C_12  and  C_16
    8  A    between atoms: C_14  and  C_18
    9  A    between atoms: C_14  and  C_27
   10  A    between atoms: N_17  and  C_28
   11  A    between atoms: C_18  and  C_35
   12  A    between atoms: C_25  and  C_36
   13  A    between atoms: C_27  and  C_33
                            x       y       z     vdW  Elec       q    Type
                         _______ _______ _______ _____ _____    ______ ____

>  <TORSDO>
F 13

$$$$
=
 OpenBabel11062421523D

 37 41  0  0  1  0  0  0  0  0999 V2000
  190.1090  176.7780  146.8690 C   0  0  1  0  0  3  0  0  0  0  0  0
  190.0970  177.5290  145.5340 C   0  0  0  0  0  2  0  0  0  0  0  0
  189.1480  174.6860  147.6410 N   0  0  0  0  0  2  0  0  0  0  0  0
  189.0760  175.6880  146.8290 C   0  0  0  0  0  0  0  0  0  0  0  0
  188.7380  177.8970  145.1320 N   0  0  0  0  0  0  0  0  0  0  0  0
  187.7100  177.1300  145.3560 C   0  0  0  0  0  0  0  0  0  0  0  0
  187.8590  175.9320  146.1230 N   0  0  0  0  0  2  0  0  0  0  0  0
  184.8450  178.0670  143.0130 C   0  0  1  0  0  3  0  0  0  0  0  0
  184.1010  178.2970  145.2300 O   0  0  0  0  0  0  0  0  0  0  0  0
  186.0540  178.9690  144.9100 C   0  0  1  0  0  3  0  0  0  0  0  0
  184.7290  179.0300  144.2040 C   0  0  1  0  0  3  0  0  0  0  0  0
  185.7890  178.5610  141.9240 C   0  0  0  0  0  2  0  0  0  0  0  0
  185.3400  178.0570  145.8580 C   0  0  2  0  0  3  0  0  0  0  0  0
  186.8130  177.5180  142.3510 C   0  0  1  0  0  3  0  0  0  0  0  0
  185.8760  177.0290  143.4550 C   0  0  1  0  0  3  0  0  0  0  0  0
  186.3590  177.5060  144.8370 C   0  0  2  0  0  0  0  0  0  0  0  0
  189.1150  175.6760  141.9910 O   0  0  0  0  0  1  0  0  0  0  0  0
  187.0240  176.5040  141.3160 N   0  0  0  0  0  2  0  0  0  0  0  0
  188.1500  175.6260  141.1820 C   0  0  0  0  0  0  0  0  0  0  0  0
  188.1760  174.7030  140.1470 O   0  0  0  0  0  0  0  0  0  0  0  0
  192.4250  176.6150  146.4090 C   0  0  0  0  0  3  0  0  0  0  0  0
  191.4210  176.2270  147.1050 N   0  0  0  0  0  0  0  0  0  0  0  0
  193.7750  176.0330  146.6560 C   0  0  0  0  0  2  0  0  0  0  0  0
  194.0710  174.9260  145.6560 C   0  0  2  0  0  3  0  0  0  0  0  0
  196.2950  174.9520  144.5160 C   0  0  0  0  0  1  0  0  0  0  0  0
  195.5310  174.5020  145.7460 C   0  0  0  0  0  2  0  0  0  0  0  0
  193.7810  175.4450  144.2570 C   0  0  0  0  0  2  0  0  0  0  0  0
  192.5890  174.7250  143.6440 C   0  0  1  0  0  3  0  0  0  0  0  0
  194.0190  173.3820  142.0910 O   0  0  0  0  0  1  0  0  0  0  0  0
  192.2940  174.6570  141.2810 O   0  0  0  0  0  0  0  0  0  0  0  0
  192.9460  174.2470  142.2760 C   0  0  0  0  0  0  0  0  0  0  0  0
  192.2100  173.6410  144.4410 O   0  0  0  0  0  0  0  0  0  0  0  0
  190.8150  173.6980  144.4830 C   0  0  0  0  0  2  0  0  0  0  0  0
  190.2340  172.3160  144.2470 C   0  0  1  0  0  3  0  0  0  0  0  0
  189.1990  172.3960  143.3140 O   0  0  0  0  0  1  0  0  0  0  0  0
  191.2310  171.4710  143.7630 O   0  0  0  0  0  0  0  0  0  0  0  0
  190.8400  171.1690  142.4580 C   0  0  0  0  0  1  0  0  0  0  0  0
  1 22  1  6  0  0  0
  2  1  1  0  0  0  0
  4  1  1  0  0  0  0
  4  3  2  0  0  0  0
  5  6  2  0  0  0  0
  5  2  1  0  0  0  0
  6  7  1  0  0  0  0
  7  4  1  0  0  0  0
  8 12  1  6  0  0  0
  8 15  1  0  0  0  0
  8 11  1  0  0  0  0
  9 13  1  0  0  0  0
 10 13  1  0  0  0  0
 11 10  1  0  0  0  0
 11  9  1  0  0  0  0
 12 14  1  0  0  0  0
 14 15  1  0  0  0  0
 15 16  1  0  0  0  0
 16 10  1  0  0  0  0
 16  6  1  0  0  0  0
 16 13  1  0  0  0  0
 18 14  1  0  0  0  0
 19 18  1  0  0  0  0
 19 17  1  0  0  0  0
 20 19  2  0  0  0  0
 21 23  1  0  0  0  0
 21 22  2  0  0  0  0
 24 26  1  0  0  0  0
 24 23  1  0  0  0  0
 25 26  1  0  0  0  0
 27 24  1  0  0  0  0
 28 27  1  0  0  0  0
 28 32  1  0  0  0  0
 29 31  1  0  0  0  0
 30 31  2  0  0  0  0
 31 28  1  0  0  0  0
 32 33  1  0  0  0  0
 34 33  1  0  0  0  0
 35 34  1  0  0  0  0
 36 34  1  0  0  0  0
 37 36  1  0  0  0  0
M  END
>  <MODEL>
5

>  <REMARK>
 VINA RESULT:      -6.3      1.728      2.111
  Name = 
  13 active torsions:
  status: ('A' for Active; 'I' for Inactive)
    1  A    between atoms: O_2  and  C_16
    2  A    between atoms: O_2  and  C_27
    3  A    between atoms: C_3  and  N_37
    4  A    between atoms: O_4  and  C_12
    5  A    between atoms: C_9  and  C_18
    6  A    between atoms: C_9  and  C_26
    7  A    between atoms: C_12  and  C_16
    8  A    between atoms: C_14  and  C_18
    9  A    between atoms: C_14  and  C_27
   10  A    between atoms: N_17  and  C_28
   11  A    between atoms: C_18  and  C_35
   12  A    between atoms: C_25  and  C_36
   13  A    between atoms: C_27  and  C_33
                            x       y       z     vdW  Elec       q    Type
                         _______ _______ _______ _____ _____    ______ ____

>  <TORSDO>
F 13

$$$$
=
 OpenBabel11062421523D

 37 41  0  0  1  0  0  0  0  0999 V2000
  190.6360  175.9660  144.8810 C   0  0  1  0  0  3  0  0  0  0  0  0
  189.8880  175.4360  146.1080 C   0  0  0  0  0  2  0  0  0  0  0  0
  191.0710  178.1840  143.9930 N   0  0  0  0  0  2  0  0  0  0  0  0
  190.2980  177.4170  144.6890 C   0  0  0  0  0  0  0  0  0  0  0  0
  188.4710  175.8050  146.0810 N   0  0  0  0  0  0  0  0  0  0  0  0
  188.0550  176.9480  145.6190 C   0  0  0  0  0  0  0  0  0  0  0  0
  188.9740  177.8530  145.0000 N   0  0  0  0  0  2  0  0  0  0  0  0
  184.6250  178.4290  144.8310 C   0  0  1  0  0  3  0  0  0  0  0  0
  184.5560  177.4920  146.9850 O   0  0  0  0  0  0  0  0  0  0  0  0
  186.3260  178.5160  146.5550 C   0  0  1  0  0  3  0  0  0  0  0  0
  184.8520  178.7010  146.3250 C   0  0  1  0  0  3  0  0  0  0  0  0
  185.2070  179.5050  143.9230 C   0  0  0  0  0  2  0  0  0  0  0  0
  185.9260  177.1740  147.0830 C   0  0  2  0  0  3  0  0  0  0  0  0
  186.3190  178.5480  143.5170 C   0  0  1  0  0  3  0  0  0  0  0  0
  185.7480  177.4700  144.4380 C   0  0  1  0  0  3  0  0  0  0  0  0
  186.6080  177.3170  145.7050 C   0  0  2  0  0  0  0  0  0  0  0  0
  188.5120  178.0030  141.5890 O   0  0  0  0  0  1  0  0  0  0  0  0
  186.2280  178.1720  142.1040 N   0  0  0  0  0  2  0  0  0  0  0  0
  187.3150  177.9100  141.2070 C   0  0  0  0  0  0  0  0  0  0  0  0
  187.0450  177.5410  139.8970 O   0  0  0  0  0  0  0  0  0  0  0  0
  192.5660  175.8070  146.2400 C   0  0  0  0  0  3  0  0  0  0  0  0
  192.0560  175.7950  145.0640 N   0  0  0  0  0  0  0  0  0  0  0  0
  194.0370  175.6360  146.4180 C   0  0  0  0  0  2  0  0  0  0  0  0
  194.6220  174.8230  145.2730 C   0  0  2  0  0  3  0  0  0  0  0  0
  196.7640  173.7470  145.9780 C   0  0  0  0  0  1  0  0  0  0  0  0
  195.2710  173.5500  145.8010 C   0  0  0  0  0  2  0  0  0  0  0  0
  195.6670  175.6660  144.5630 C   0  0  0  0  0  2  0  0  0  0  0  0
  195.2690  175.9240  143.1160 C   0  0  1  0  0  3  0  0  0  0  0  0
  196.3720  177.1690  141.2470 O   0  0  0  0  0  0  0  0  0  0  0  0
  197.5950  175.7990  142.6190 O   0  0  0  0  0  1  0  0  0  0  0  0
  196.4790  176.2990  142.3270 C   0  0  0  0  0  0  0  0  0  0  0  0
  194.6750  174.7860  142.5630 O   0  0  0  0  0  0  0  0  0  0  0  0
  193.5550  175.2630  141.8780 C   0  0  0  0  0  2  0  0  0  0  0  0
  192.5220  174.1600  141.7430 C   0  0  1  0  0  3  0  0  0  0  0  0
  192.5850  173.3200  142.8560 O   0  0  0  0  0  1  0  0  0  0  0  0
  191.2500  174.7240  141.6570 O   0  0  0  0  0  0  0  0  0  0  0  0
  190.3740  173.6430  141.7540 C   0  0  0  0  0  1  0  0  0  0  0  0
  1 22  1  1  0  0  0
  1  2  1  0  0  0  0
  3  4  2  0  0  0  0
  4  1  1  0  0  0  0
  4  7  1  0  0  0  0
  5  2  1  0  0  0  0
  6 16  1  0  0  0  0
  6  5  2  0  0  0  0
  7  6  1  0  0  0  0
  8 12  1  6  0  0  0
  8 11  1  0  0  0  0
  9 13  1  0  0  0  0
 10 13  1  0  0  0  0
 11 10  1  0  0  0  0
 11  9  1  0  0  0  0
 14 12  1  0  0  0  0
 14 15  1  0  0  0  0
 15  8  1  0  0  0  0
 15 16  1  0  0  0  0
 16 10  1  0  0  0  0
 16 13  1  0  0  0  0
 18 14  1  0  0  0  0
 19 17  1  0  0  0  0
 19 18  1  0  0  0  0
 20 19  2  0  0  0  0
 21 23  1  0  0  0  0
 22 21  2  0  0  0  0
 24 26  1  0  0  0  0
 24 23  1  0  0  0  0
 26 25  1  0  0  0  0
 27 24  1  0  0  0  0
 28 27  1  0  0  0  0
 29 31  2  0  0  0  0
 31 30  1  0  0  0  0
 31 28  1  0  0  0  0
 32 28  1  0  0  0  0
 33 32  1  0  0  0  0
 34 33  1  0  0  0  0
 34 35  1  0  0  0  0
 36 34  1  0  0  0  0
 36 37  1  0  0  0  0
M  END
>  <MODEL>
6

>  <REMARK>
 VINA RESULT:      -6.2      1.445      1.893
  Name = 
  13 active torsions:
  status: ('A' for Active; 'I' for Inactive)
    1  A    between atoms: O_2  and  C_16
    2  A    between atoms: O_2  and  C_27
    3  A    between atoms: C_3  and  N_37
    4  A    between atoms: O_4  and  C_12
    5  A    between atoms: C_9  and  C_18
    6  A    between atoms: C_9  and  C_26
    7  A    between atoms: C_12  and  C_16
    8  A    between atoms: C_14  and  C_18
    9  A    between atoms: C_14  and  C_27
   10  A    between atoms: N_17  and  C_28
   11  A    between atoms: C_18  and  C_35
   12  A    between atoms: C_25  and  C_36
   13  A    between atoms: C_27  and  C_33
                            x       y       z     vdW  Elec       q    Type
                         _______ _______ _______ _____ _____    ______ ____

>  <TORSDO>
F 13

$$$$
=
 OpenBabel11062421523D

 37 41  0  0  1  0  0  0  0  0999 V2000
  190.6650  176.8140  146.2180 C   0  0  1  0  0  3  0  0  0  0  0  0
  190.9590  175.3690  146.6310 C   0  0  0  0  0  2  0  0  0  0  0  0
  190.6630  178.0000  144.0980 N   0  0  0  0  0  2  0  0  0  0  0  0
  191.1320  177.0250  144.8060 C   0  0  0  0  0  0  0  0  0  0  0  0
  192.3320  174.9790  146.3060 N   0  0  0  0  0  0  0  0  0  0  0  0
  192.9400  175.3920  145.2310 C   0  0  0  0  0  0  0  0  0  0  0  0
  192.3160  176.3530  144.3750 N   0  0  0  0  0  2  0  0  0  0  0  0
  195.8880  173.0710  144.5270 C   0  0  1  0  0  3  0  0  0  0  0  0
  196.6790  175.2830  144.5910 O   0  0  0  0  0  0  0  0  0  0  0  0
  195.2520  174.8430  146.0530 C   0  0  1  0  0  3  0  0  0  0  0  0
  196.4490  174.1780  145.4330 C   0  0  1  0  0  3  0  0  0  0  0  0
  195.2670  171.9130  145.2980 C   0  0  0  0  0  2  0  0  0  0  0  0
  195.4760  175.8890  145.0060 C   0  0  2  0  0  3  0  0  0  0  0  0
  193.8820  172.3950  144.8870 C   0  0  1  0  0  3  0  0  0  0  0  0
  194.5000  173.5680  144.1250 C   0  0  1  0  0  3  0  0  0  0  0  0
  194.3070  174.8870  144.8940 C   0  0  2  0  0  0  0  0  0  0  0  0
  190.9900  172.1440  144.2580 O   0  0  0  0  0  1  0  0  0  0  0  0
  193.2160  171.4460  143.9930 N   0  0  0  0  0  2  0  0  0  0  0  0
  191.8130  171.3630  143.7100 C   0  0  0  0  0  0  0  0  0  0  0  0
  191.3530  170.4090  142.8130 O   0  0  0  0  0  0  0  0  0  0  0  0
  188.4720  176.2150  146.8750 C   0  0  0  0  0  3  0  0  0  0  0  0
  189.2510  177.0750  146.3300 N   0  0  0  0  0  0  0  0  0  0  0  0
  187.0110  176.4920  146.9790 C   0  0  0  0  0  2  0  0  0  0  0  0
  186.5760  177.4810  145.9080 C   0  0  2  0  0  3  0  0  0  0  0  0
  184.4320  178.6010  146.5320 C   0  0  0  0  0  1  0  0  0  0  0  0
  185.9440  178.7120  146.5440 C   0  0  0  0  0  2  0  0  0  0  0  0
  185.5620  176.8010  145.0030 C   0  0  0  0  0  2  0  0  0  0  0  0
  185.9630  176.9320  143.5400 C   0  0  1  0  0  3  0  0  0  0  0  0
  185.8010  179.3960  143.1370 O   0  0  0  0  0  1  0  0  0  0  0  0
  184.2200  177.9690  142.2900 O   0  0  0  0  0  0  0  0  0  0  0  0
  185.2840  178.1200  142.9430 C   0  0  0  0  0  0  0  0  0  0  0  0
  187.3490  177.0690  143.4230 O   0  0  0  0  0  0  0  0  0  0  0  0
  187.6510  176.5810  142.1500 C   0  0  0  0  0  2  0  0  0  0  0  0
  188.7950  175.5880  142.2340 C   0  0  1  0  0  3  0  0  0  0  0  0
  188.7170  174.8830  143.4360 O   0  0  0  0  0  1  0  0  0  0  0  0
  188.7130  174.6950  141.1660 O   0  0  0  0  0  0  0  0  0  0  0  0
  189.8740  173.9260  141.2550 C   0  0  0  0  0  1  0  0  0  0  0  0
  1 22  1  6  0  0  0
  1  2  1  0  0  0  0
  3  4  2  0  0  0  0
  4  1  1  0  0  0  0
  5  2  1  0  0  0  0
  6  5  2  0  0  0  0
  7  4  1  0  0  0  0
  7  6  1  0  0  0  0
  8 12  1  1  0  0  0
  8 11  1  0  0  0  0
  9 13  1  0  0  0  0
  9 11  1  0  0  0  0
 11 10  1  0  0  0  0
 13 10  1  0  0  0  0
 14 12  1  0  0  0  0
 15  8  1  0  0  0  0
 15 14  1  0  0  0  0
 15 16  1  0  0  0  0
 16 13  1  0  0  0  0
 16  6  1  0  0  0  0
 16 10  1  0  0  0  0
 18 14  1  0  0  0  0
 19 18  1  0  0  0  0
 19 17  1  0  0  0  0
 20 19  2  0  0  0  0
 21 23  1  0  0  0  0
 22 21  2  0  0  0  0
 24 26  1  0  0  0  0
 24 23  1  0  0  0  0
 25 26  1  0  0  0  0
 27 24  1  0  0  0  0
 28 27  1  0  0  0  0
 30 31  2  0  0  0  0
 31 29  1  0  0  0  0
 31 28  1  0  0  0  0
 32 28  1  0  0  0  0
 33 34  1  0  0  0  0
 33 32  1  0  0  0  0
 34 35  1  0  0  0  0
 36 37  1  0  0  0  0
 36 34  1  0  0  0  0
M  END
>  <MODEL>
7

>  <REMARK>
 VINA RESULT:      -6.2      2.203      7.959
  Name = 
  13 active torsions:
  status: ('A' for Active; 'I' for Inactive)
    1  A    between atoms: O_2  and  C_16
    2  A    between atoms: O_2  and  C_27
    3  A    between atoms: C_3  and  N_37
    4  A    between atoms: O_4  and  C_12
    5  A    between atoms: C_9  and  C_18
    6  A    between atoms: C_9  and  C_26
    7  A    between atoms: C_12  and  C_16
    8  A    between atoms: C_14  and  C_18
    9  A    between atoms: C_14  and  C_27
   10  A    between atoms: N_17  and  C_28
   11  A    between atoms: C_18  and  C_35
   12  A    between atoms: C_25  and  C_36
   13  A    between atoms: C_27  and  C_33
                            x       y       z     vdW  Elec       q    Type
                         _______ _______ _______ _____ _____    ______ ____

>  <TORSDO>
F 13

$$$$
=
 OpenBabel11062421523D

 37 41  0  0  1  0  0  0  0  0999 V2000
  190.0900  175.7940  147.2610 C   0  0  1  0  0  3  0  0  0  0  0  0
  189.8370  177.3050  147.2580 C   0  0  0  0  0  2  0  0  0  0  0  0
  189.8390  174.0350  145.6060 N   0  0  0  0  0  2  0  0  0  0  0  0
  189.4520  175.1880  146.0430 C   0  0  0  0  0  0  0  0  0  0  0  0
  188.4300  177.6190  147.0020 N   0  0  0  0  0  0  0  0  0  0  0  0
  187.6960  176.9240  146.1820 C   0  0  0  0  0  0  0  0  0  0  0  0
  188.2180  175.7360  145.5800 N   0  0  0  0  0  2  0  0  0  0  0  0
  184.6090  178.2570  144.3750 C   0  0  1  0  0  3  0  0  0  0  0  0
  184.0570  177.9010  146.6310 O   0  0  0  0  0  0  0  0  0  0  0  0
  185.9530  178.7280  146.3360 C   0  0  1  0  0  3  0  0  0  0  0  0
  184.5690  178.8930  145.7730 C   0  0  1  0  0  3  0  0  0  0  0  0
  185.4370  179.0490  143.3710 C   0  0  0  0  0  2  0  0  0  0  0  0
  185.3530  177.5780  147.0810 C   0  0  2  0  0  3  0  0  0  0  0  0
  186.5260  177.9880  143.4460 C   0  0  1  0  0  3  0  0  0  0  0  0
  185.7060  177.1960  144.4640 C   0  0  1  0  0  3  0  0  0  0  0  0
  186.2940  177.3460  145.8790 C   0  0  2  0  0  0  0  0  0  0  0  0
  188.9350  176.6520  142.3350 O   0  0  0  0  0  1  0  0  0  0  0  0
  186.6750  177.2690  142.1790 N   0  0  0  0  0  2  0  0  0  0  0  0
  187.8580  176.6290  141.6810 C   0  0  0  0  0  0  0  0  0  0  0  0
  187.8150  175.9690  140.4620 O   0  0  0  0  0  0  0  0  0  0  0  0
  192.3180  176.3290  146.6690 C   0  0  0  0  0  3  0  0  0  0  0  0
  191.5090  175.5380  147.2720 N   0  0  0  0  0  0  0  0  0  0  0  0
  193.7830  176.0510  146.6810 C   0  0  0  0  0  2  0  0  0  0  0  0
  194.2610  175.6480  145.2950 C   0  0  2  0  0  3  0  0  0  0  0  0
  192.6950  175.1530  143.4130 C   0  0  0  0  0  1  0  0  0  0  0  0
  193.3580  176.2470  144.2240 C   0  0  0  0  0  2  0  0  0  0  0  0
  194.2310  174.1320  145.1920 C   0  0  0  0  0  2  0  0  0  0  0  0
  195.6400  173.5620  145.1230 C   0  0  1  0  0  3  0  0  0  0  0  0
  194.4670  171.4630  145.8150 O   0  0  0  0  0  0  0  0  0  0  0  0
  196.7260  171.6960  146.1310 O   0  0  0  0  0  1  0  0  0  0  0  0
  195.6490  172.1880  145.7060 C   0  0  0  0  0  0  0  0  0  0  0  0
  196.0860  173.5190  143.7990 O   0  0  0  0  0  0  0  0  0  0  0  0
  197.1180  174.4580  143.7380 C   0  0  0  0  0  2  0  0  0  0  0  0
  196.8350  175.4670  142.6410 C   0  0  1  0  0  3  0  0  0  0  0  0
  197.1070  176.7540  143.1060 O   0  0  0  0  0  1  0  0  0  0  0  0
  197.6410  175.1910  141.5380 O   0  0  0  0  0  0  0  0  0  0  0  0
  197.1470  176.0080  140.5220 C   0  0  0  0  0  1  0  0  0  0  0  0
  1 22  1  6  0  0  0
  2  1  1  0  0  0  0
  3  4  2  0  0  0  0
  4  1  1  0  0  0  0
  5  2  1  0  0  0  0
  6  5  2  0  0  0  0
  7  4  1  0  0  0  0
  7  6  1  0  0  0  0
  8 12  1  6  0  0  0
  8 15  1  0  0  0  0
  8 11  1  0  0  0  0
  9 13  1  0  0  0  0
 10 13  1  0  0  0  0
 11 10  1  0  0  0  0
 11  9  1  0  0  0  0
 12 14  1  0  0  0  0
 14 15  1  0  0  0  0
 15 16  1  0  0  0  0
 16  6  1  0  0  0  0
 16 10  1  0  0  0  0
 16 13  1  0  0  0  0
 18 14  1  0  0  0  0
 19 18  1  0  0  0  0
 19 17  1  0  0  0  0
 20 19  2  0  0  0  0
 21 23  1  0  0  0  0
 21 22  2  0  0  0  0
 24 23  1  0  0  0  0
 25 26  1  0  0  0  0
 26 24  1  0  0  0  0
 27 24  1  0  0  0  0
 28 27  1  0  0  0  0
 28 31  1  0  0  0  0
 31 29  2  0  0  0  0
 31 30  1  0  0  0  0
 32 28  1  0  0  0  0
 33 32  1  0  0  0  0
 34 35  1  0  0  0  0
 34 33  1  0  0  0  0
 36 34  1  0  0  0  0
 37 36  1  0  0  0  0
M  END
>  <MODEL>
8

>  <REMARK>
 VINA RESULT:      -6.1      1.964      3.657
  Name = 
  13 active torsions:
  status: ('A' for Active; 'I' for Inactive)
    1  A    between atoms: O_2  and  C_16
    2  A    between atoms: O_2  and  C_27
    3  A    between atoms: C_3  and  N_37
    4  A    between atoms: O_4  and  C_12
    5  A    between atoms: C_9  and  C_18
    6  A    between atoms: C_9  and  C_26
    7  A    between atoms: C_12  and  C_16
    8  A    between atoms: C_14  and  C_18
    9  A    between atoms: C_14  and  C_27
   10  A    between atoms: N_17  and  C_28
   11  A    between atoms: C_18  and  C_35
   12  A    between atoms: C_25  and  C_36
   13  A    between atoms: C_27  and  C_33
                            x       y       z     vdW  Elec       q    Type
                         _______ _______ _______ _____ _____    ______ ____

>  <TORSDO>
F 13

$$$$
=
 OpenBabel11062421523D

 37 41  0  0  1  0  0  0  0  0999 V2000
  190.6450  176.3290  142.8360 C   0  0  1  0  0  3  0  0  0  0  0  0
  189.8990  175.1110  143.3880 C   0  0  0  0  0  2  0  0  0  0  0  0
  191.5970  178.3260  143.8380 N   0  0  0  0  0  2  0  0  0  0  0  0
  190.7100  177.3880  143.9000 C   0  0  0  0  0  0  0  0  0  0  0  0
  188.6460  175.4920  144.0440 N   0  0  0  0  0  0  0  0  0  0  0  0
  188.5240  176.5880  144.7360 C   0  0  0  0  0  0  0  0  0  0  0  0
  189.5980  177.5330  144.7830 N   0  0  0  0  0  2  0  0  0  0  0  0
  185.1500  178.0850  145.7070 C   0  0  1  0  0  3  0  0  0  0  0  0
  185.8950  176.7210  147.4690 O   0  0  0  0  0  0  0  0  0  0  0  0
  187.3990  177.8690  146.5830 C   0  0  1  0  0  3  0  0  0  0  0  0
  185.9680  178.0490  147.0070 C   0  0  1  0  0  3  0  0  0  0  0  0
  185.3780  179.3450  144.8810 C   0  0  0  0  0  2  0  0  0  0  0  0
  187.1710  176.4350  146.9430 C   0  0  2  0  0  3  0  0  0  0  0  0
  186.1830  178.5300  143.8780 C   0  0  1  0  0  3  0  0  0  0  0  0
  185.9700  177.2660  144.7110 C   0  0  1  0  0  3  0  0  0  0  0  0
  187.2540  176.8830  145.4680 C   0  0  2  0  0  0  0  0  0  0  0  0
  187.3540  177.9090  141.2200 O   0  0  0  0  0  1  0  0  0  0  0  0
  185.5170  178.4520  142.5770 N   0  0  0  0  0  2  0  0  0  0  0  0
  186.1190  178.1410  141.3130 C   0  0  0  0  0  0  0  0  0  0  0  0
  185.3280  178.0880  140.1750 O   0  0  0  0  0  0  0  0  0  0  0  0
  192.2140  174.7350  142.0650 C   0  0  0  0  0  3  0  0  0  0  0  0
  191.9700  175.9420  142.4220 N   0  0  0  0  0  0  0  0  0  0  0  0
  193.5900  174.3430  141.6450 C   0  0  0  0  0  2  0  0  0  0  0  0
  194.6310  175.1150  142.4420 C   0  0  2  0  0  3  0  0  0  0  0  0
  196.0600  176.7930  141.2660 C   0  0  0  0  0  1  0  0  0  0  0  0
  195.8890  175.3260  141.6100 C   0  0  0  0  0  2  0  0  0  0  0  0
  194.9780  174.3180  143.6880 C   0  0  0  0  0  2  0  0  0  0  0  0
  195.4850  175.2310  144.7960 C   0  0  1  0  0  3  0  0  0  0  0  0
  193.1040  175.3230  145.5620 O   0  0  0  0  0  0  0  0  0  0  0  0
  194.4650  177.1580  145.7540 O   0  0  0  0  0  1  0  0  0  0  0  0
  194.3330  175.9560  145.4080 C   0  0  0  0  0  0  0  0  0  0  0  0
  196.1520  174.4880  145.7750 O   0  0  0  0  0  0  0  0  0  0  0  0
  196.7450  173.4320  145.0800 C   0  0  0  0  0  2  0  0  0  0  0  0
  196.7310  172.1780  145.9350 C   0  0  1  0  0  3  0  0  0  0  0  0
  195.4350  171.6610  145.9880 O   0  0  0  0  0  1  0  0  0  0  0  0
  197.5870  171.2280  145.3790 O   0  0  0  0  0  0  0  0  0  0  0  0
  196.7660  170.1410  145.0790 C   0  0  0  0  0  1  0  0  0  0  0  0
  1 22  1  1  0  0  0
  1  2  1  0  0  0  0
  1  4  1  0  0  0  0
  2  5  1  0  0  0  0
  3  4  2  0  0  0  0
  4  7  1  0  0  0  0
  5  6  2  0  0  0  0
  6  7  1  0  0  0  0
  6 16  1  0  0  0  0
  8 12  1  6  0  0  0
  8 11  1  0  0  0  0
 10 13  1  0  0  0  0
 10 11  1  0  0  0  0
 11  9  1  0  0  0  0
 13  9  1  0  0  0  0
 14 15  1  0  0  0  0
 14 12  1  0  0  0  0
 15 16  1  0  0  0  0
 15  8  1  0  0  0  0
 16 10  1  0  0  0  0
 16 13  1  0  0  0  0
 17 19  1  0  0  0  0
 18 14  1  0  0  0  0
 19 18  1  0  0  0  0
 20 19  2  0  0  0  0
 21 22  2  0  0  0  0
 23 21  1  0  0  0  0
 23 24  1  0  0  0  0
 24 27  1  0  0  0  0
 25 26  1  0  0  0  0
 26 24  1  0  0  0  0
 27 28  1  0  0  0  0
 28 31  1  0  0  0  0
 28 32  1  0  0  0  0
 31 29  2  0  0  0  0
 31 30  1  0  0  0  0
 33 32  1  0  0  0  0
 33 34  1  0  0  0  0
 34 35  1  0  0  0  0
 36 34  1  0  0  0  0
 37 36  1  0  0  0  0
M  END
>  <MODEL>
9

>  <REMARK>
 VINA RESULT:      -6.0      2.448      4.219
  Name = 
  13 active torsions:
  status: ('A' for Active; 'I' for Inactive)
    1  A    between atoms: O_2  and  C_16
    2  A    between atoms: O_2  and  C_27
    3  A    between atoms: C_3  and  N_37
    4  A    between atoms: O_4  and  C_12
    5  A    between atoms: C_9  and  C_18
    6  A    between atoms: C_9  and  C_26
    7  A    between atoms: C_12  and  C_16
    8  A    between atoms: C_14  and  C_18
    9  A    between atoms: C_14  and  C_27
   10  A    between atoms: N_17  and  C_28
   11  A    between atoms: C_18  and  C_35
   12  A    between atoms: C_25  and  C_36
   13  A    between atoms: C_27  and  C_33
                            x       y       z     vdW  Elec       q    Type
                         _______ _______ _______ _____ _____    ______ ____

>  <TORSDO>
F 13

$$$$
