=
 OpenBabel11062420033D

 42 47  0  0  1  0  0  0  0  0999 V2000
  194.3680  174.8660  145.7810 C   0  0  2  0  0  3  0  0  0  0  0  0
  195.0090  172.7360  143.4820 C   0  0  0  0  0  2  0  0  0  0  0  0
  193.9060  172.6690  144.4960 C   0  0  0  0  0  3  0  0  0  0  0  0
  191.3250  178.1830  144.2860 C   0  0  0  0  0  1  0  0  0  0  0  0
  193.3640  173.1110  141.5980 C   0  0  0  0  0  2  0  0  0  0  0  0
  194.0940  177.3310  145.7590 O   0  0  0  0  0  0  0  0  0  0  0  0
  191.7500  174.6590  142.7220 C   0  0  2  0  0  3  0  0  0  0  0  0
  195.2120  175.4690  144.6760 C   0  0  0  0  0  2  0  0  0  0  0  0
  191.1710  175.5720  146.3840 C   0  0  0  0  0  2  0  0  0  0  0  0
  193.6300  173.5850  145.4390 C   0  0  0  0  0  3  0  0  0  0  0  0
  191.7820  176.1780  142.8650 C   0  0  0  0  0  2  0  0  0  0  0  0
  193.4540  176.0820  145.6860 C   0  0  2  0  0  0  0  0  0  0  0  0
  192.3750  174.2480  141.3920 C   0  0  0  0  0  2  0  0  0  0  0  0
  194.6150  173.6250  142.3020 C   0  0  2  0  0  3  0  0  0  0  0  0
  191.9580  176.0470  145.4200 C   0  0  0  0  0  0  0  0  0  0  0  0
  194.2420  176.6270  144.5470 C   0  0  1  0  0  3  0  0  0  0  0  0
  191.2730  176.6690  144.2220 C   0  0  1  0  0  3  0  0  0  0  0  0
  197.9410  174.6970  142.5590 O   0  0  0  0  0  0  0  0  0  0  0  0
  196.0420  175.0360  140.7080 C   0  0  1  0  0  0  0  0  0  0  0  0
  196.1390  172.6320  140.5770 O   0  0  0  0  0  1  0  0  0  0  0  0
  196.9760  174.5560  141.8240 C   0  0  0  0  0  0  0  0  0  0  0  0
  195.7670  173.7630  141.3090 C   0  0  2  0  0  0  0  0  0  0  0  0
  195.2630  176.1250  141.1110 O   0  0  0  0  0  1  0  0  0  0  0  0
  196.7170  175.1220  139.3500 C   0  0  0  0  0  2  0  0  0  0  0  0
  195.7500  175.1500  138.3440 O   0  0  0  0  0  1  0  0  0  0  0  0
  190.3500  174.0600  142.9260 C   0  0  1  0  0  3  0  0  0  0  0  0
  189.2990  174.7030  142.0250 C   0  0  2  0  0  3  0  0  0  0  0  0
  188.1800  175.2530  142.8890 C   0  0  2  0  0  3  0  0  0  0  0  0
  187.9890  173.9500  142.1430 C   0  0  0  0  0  2  0  0  0  0  0  0
  187.4640  176.3730  142.1540 C   0  0  2  0  0  3  0  0  0  0  0  0
  188.8330  178.2600  141.7980 O   0  0  0  0  0  0  0  0  0  0  0  0
  188.0610  177.6860  142.5480 C   0  0  0  0  0  3  0  0  0  0  0  0
  186.1060  176.3590  142.4890 O   0  0  0  0  0  0  0  0  0  0  0  0
  185.9430  177.3940  143.4140 C   0  0  2  0  0  3  0  0  0  0  0  0
  184.6750  178.9860  145.3640 N   0  0  0  0  0  0  0  0  0  0  0  0
  185.6130  177.9630  145.7920 C   0  0  0  0  0  2  0  0  0  0  0  0
  185.7020  176.8110  144.7970 C   0  0  0  0  0  2  0  0  0  0  0  0
  184.7450  178.2500  143.0180 C   0  0  0  0  0  2  0  0  0  0  0  0
  184.3170  179.1690  144.1350 C   0  0  0  0  0  3  0  0  0  0  0  0
  190.3850  172.6780  142.7200 O   0  0  0  0  0  0  0  0  0  0  0  0
  190.5730  172.1300  143.9920 C   0  0  0  0  0  2  0  0  0  0  0  0
  189.7170  172.7550  144.8960 O   0  0  0  0  0  1  0  0  0  0  0  0
  1  8  1  6  0  0  0
  2  3  1  0  0  0  0
  3 10  2  0  0  0  0
  7 11  1  0  0  0  0
  7 26  1  6  0  0  0
 10  1  1  0  0  0  0
 11 17  1  0  0  0  0
 12 15  1  6  0  0  0
 12  6  1  0  0  0  0
 12  1  1  0  0  0  0
 13  5  1  0  0  0  0
 13  7  1  0  0  0  0
 14  5  1  6  0  0  0
 14  2  1  0  0  0  0
 15  9  2  0  0  0  0
 16  8  1  1  0  0  0
 16 12  1  0  0  0  0
 16  6  1  0  0  0  0
 17  4  1  6  0  0  0
 17 15  1  0  0  0  0
 19 23  1  1  0  0  0
 19 22  1  0  0  0  0
 19 21  1  0  0  0  0
 21 18  2  0  0  0  0
 22 20  1  6  0  0  0
 22 21  1  0  0  0  0
 22 14  1  0  0  0  0
 24 19  1  0  0  0  0
 25 24  1  0  0  0  0
 26 40  1  6  0  0  0
 27 29  1  0  0  0  0
 27 28  1  0  0  0  0
 27 26  1  1  0  0  0
 28 30  1  6  0  0  0
 29 28  1  0  0  0  0
 30 33  1  0  0  0  0
 30 32  1  1  0  0  0
 31 32  2  0  0  0  0
 34 33  1  6  0  0  0
 34 37  1  0  0  0  0
 35 36  1  0  0  0  0
 37 36  1  0  0  0  0
 38 34  1  0  0  0  0
 38 39  1  0  0  0  0
 39 35  2  0  0  0  0
 40 41  1  0  0  0  0
 41 42  1  0  0  0  0
M  END
>  <MODEL>
1

>  <REMARK>
 VINA RESULT:      -7.0      0.000      0.000
  Name = 
  10 active torsions:
  status: ('A' for Active; 'I' for Inactive)
    1  A    between atoms: C_3  and  C_23
    2  A    between atoms: C_4  and  C_30
    3  A    between atoms: C_6  and  O_9
    4  A    between atoms: C_6  and  C_18
    5  A    between atoms: C_6  and  C_31
    6  A    between atoms: O_9  and  C_13
    7  A    between atoms: C_10  and  O_21
    8  A    between atoms: C_16  and  C_30
    9  A    between atoms: O_21  and  C_30
   10  A    between atoms: C_35  and  C_36
                            x       y       z     vdW  Elec       q    Type
                         _______ _______ _______ _____ _____    ______ ____

>  <TORSDO>
F 10

$$$$
=
 OpenBabel11062420033D

 42 47  0  0  1  0  0  0  0  0999 V2000
  197.7900  173.7260  143.6330 C   0  0  2  0  0  3  0  0  0  0  0  0
  196.5080  171.7560  145.8020 C   0  0  0  0  0  2  0  0  0  0  0  0
  196.7480  173.2290  145.9470 C   0  0  0  0  0  3  0  0  0  0  0  0
  194.4690  175.6390  140.8370 C   0  0  0  0  0  1  0  0  0  0  0  0
  194.0010  172.0850  145.7620 C   0  0  0  0  0  2  0  0  0  0  0  0
  197.3140  174.1180  141.2300 O   0  0  0  0  0  0  0  0  0  0  0  0
  193.8490  174.1580  144.3680 C   0  0  2  0  0  3  0  0  0  0  0  0
  197.2670  172.4540  142.9970 C   0  0  0  0  0  2  0  0  0  0  0  0
  196.4410  176.7530  143.3100 C   0  0  0  0  0  2  0  0  0  0  0  0
  197.2600  174.0510  145.0170 C   0  0  0  0  0  3  0  0  0  0  0  0
  193.7960  174.3210  142.8510 C   0  0  0  0  0  2  0  0  0  0  0  0
  197.0570  174.5150  142.5540 C   0  0  2  0  0  0  0  0  0  0  0  0
  193.1460  172.8670  144.7770 C   0  0  0  0  0  2  0  0  0  0  0  0
  195.2070  171.4830  145.0470 C   0  0  2  0  0  3  0  0  0  0  0  0
  196.0190  175.5980  142.7980 C   0  0  0  0  0  0  0  0  0  0  0  0
  196.4830  173.2670  141.9830 C   0  0  1  0  0  3  0  0  0  0  0  0
  194.5760  175.5370  142.3460 C   0  0  1  0  0  3  0  0  0  0  0  0
  197.1140  168.9610  143.5380 O   0  0  0  0  0  0  0  0  0  0  0  0
  194.4990  169.5150  143.5670 C   0  0  1  0  0  0  0  0  0  0  0  0
  194.7450  169.1870  145.9420 O   0  0  0  0  0  1  0  0  0  0  0  0
  195.9940  169.3350  143.8500 C   0  0  0  0  0  0  0  0  0  0  0  0
  195.0030  169.9870  144.8240 C   0  0  2  0  0  0  0  0  0  0  0  0
  194.2660  170.4620  142.5660 O   0  0  0  0  0  1  0  0  0  0  0  0
  193.7380  168.2030  143.4810 C   0  0  0  0  0  2  0  0  0  0  0  0
  192.4090  168.4510  143.1380 O   0  0  0  0  0  1  0  0  0  0  0  0
  193.3220  175.3840  145.1290 C   0  0  1  0  0  3  0  0  0  0  0  0
  191.7980  175.4280  145.1870 C   0  0  2  0  0  3  0  0  0  0  0  0
  191.3320  176.8290  144.8360 C   0  0  2  0  0  3  0  0  0  0  0  0
  191.3510  176.3780  146.2810 C   0  0  0  0  0  2  0  0  0  0  0  0
  189.9110  176.7820  144.3040 C   0  0  2  0  0  3  0  0  0  0  0  0
  189.6740  178.0400  142.3230 O   0  0  0  0  0  0  0  0  0  0  0  0
  189.9310  176.9550  142.8190 C   0  0  0  0  0  3  0  0  0  0  0  0
  189.1600  177.8100  144.8840 O   0  0  0  0  0  0  0  0  0  0  0  0
  187.8950  177.2610  145.1120 C   0  0  2  0  0  3  0  0  0  0  0  0
  185.2740  177.0580  146.1290 N   0  0  0  0  0  0  0  0  0  0  0  0
  185.4660  177.5340  144.7700 C   0  0  0  0  0  2  0  0  0  0  0  0
  186.8250  178.2010  144.5800 C   0  0  0  0  0  2  0  0  0  0  0  0
  187.6860  177.0630  146.6090 C   0  0  0  0  0  2  0  0  0  0  0  0
  186.2410  176.7910  146.9440 C   0  0  0  0  0  3  0  0  0  0  0  0
  193.8570  175.4140  146.4200 O   0  0  0  0  0  0  0  0  0  0  0  0
  194.9180  176.3200  146.3480 C   0  0  0  0  0  2  0  0  0  0  0  0
  194.5210  177.5420  146.8890 O   0  0  0  0  0  1  0  0  0  0  0  0
  1  8  1  6  0  0  0
  1 10  1  0  0  0  0
  2  3  1  0  0  0  0
  6 16  1  0  0  0  0
  7 13  1  0  0  0  0
  7 26  1  1  0  0  0
 10  3  2  0  0  0  0
 11  7  1  0  0  0  0
 12  6  1  6  0  0  0
 12 15  1  0  0  0  0
 12  1  1  0  0  0  0
 13  5  1  0  0  0  0
 14  5  1  1  0  0  0
 14  2  1  0  0  0  0
 15  9  2  0  0  0  0
 16 12  1  0  0  0  0
 16  8  1  1  0  0  0
 17  4  1  6  0  0  0
 17 15  1  0  0  0  0
 17 11  1  0  0  0  0
 18 21  2  0  0  0  0
 19 23  1  6  0  0  0
 19 21  1  0  0  0  0
 19 22  1  0  0  0  0
 21 22  1  0  0  0  0
 22 14  1  0  0  0  0
 22 20  1  1  0  0  0
 24 19  1  0  0  0  0
 25 24  1  0  0  0  0
 26 40  1  1  0  0  0
 27 26  1  1  0  0  0
 27 29  1  0  0  0  0
 28 30  1  6  0  0  0
 28 27  1  0  0  0  0
 28 29  1  0  0  0  0
 30 32  1  6  0  0  0
 30 33  1  0  0  0  0
 31 32  2  0  0  0  0
 34 33  1  1  0  0  0
 34 38  1  0  0  0  0
 35 39  2  0  0  0  0
 36 35  1  0  0  0  0
 37 36  1  0  0  0  0
 37 34  1  0  0  0  0
 38 39  1  0  0  0  0
 41 40  1  0  0  0  0
 41 42  1  0  0  0  0
M  END
>  <MODEL>
2

>  <REMARK>
 VINA RESULT:      -6.8      2.487      4.842
  Name = 
  10 active torsions:
  status: ('A' for Active; 'I' for Inactive)
    1  A    between atoms: C_3  and  C_23
    2  A    between atoms: C_4  and  C_30
    3  A    between atoms: C_6  and  O_9
    4  A    between atoms: C_6  and  C_18
    5  A    between atoms: C_6  and  C_31
    6  A    between atoms: O_9  and  C_13
    7  A    between atoms: C_10  and  O_21
    8  A    between atoms: C_16  and  C_30
    9  A    between atoms: O_21  and  C_30
   10  A    between atoms: C_35  and  C_36
                            x       y       z     vdW  Elec       q    Type
                         _______ _______ _______ _____ _____    ______ ____

>  <TORSDO>
F 10

$$$$
=
 OpenBabel11062420033D

 42 47  0  0  1  0  0  0  0  0999 V2000
  194.0020  174.3620  144.0410 C   0  0  2  0  0  3  0  0  0  0  0  0
  192.0520  171.8370  143.8160 C   0  0  0  0  0  2  0  0  0  0  0  0
  192.3000  172.6840  145.0290 C   0  0  0  0  0  3  0  0  0  0  0  0
  191.7470  178.4060  143.0120 C   0  0  0  0  0  1  0  0  0  0  0  0
  189.6860  172.7030  143.5950 C   0  0  0  0  0  2  0  0  0  0  0  0
  194.2790  176.4010  142.6550 O   0  0  0  0  0  0  0  0  0  0  0  0
  190.0430  175.1150  144.1590 C   0  0  2  0  0  3  0  0  0  0  0  0
  193.6380  174.0600  142.6020 C   0  0  0  0  0  2  0  0  0  0  0  0
  192.9410  176.9810  145.8020 C   0  0  0  0  0  2  0  0  0  0  0  0
  193.1000  173.7600  145.1020 C   0  0  0  0  0  3  0  0  0  0  0  0
  190.4500  176.2840  143.2660 C   0  0  0  0  0  2  0  0  0  0  0  0
  193.6580  175.8230  143.7760 C   0  0  2  0  0  0  0  0  0  0  0  0
  189.1960  174.1240  143.3660 C   0  0  0  0  0  2  0  0  0  0  0  0
  191.0230  172.4890  142.8920 C   0  0  2  0  0  3  0  0  0  0  0  0
  192.6410  176.6480  144.5480 C   0  0  0  0  0  0  0  0  0  0  0  0
  193.2260  175.5040  142.3880 C   0  0  1  0  0  3  0  0  0  0  0  0
  191.3960  177.2710  143.9540 C   0  0  1  0  0  3  0  0  0  0  0  0
  193.1420  171.5150  140.2790 O   0  0  0  0  0  0  0  0  0  0  0  0
  190.6010  172.3390  140.3690 C   0  0  1  0  0  0  0  0  0  0  0  0
  190.3120  170.3790  141.7410 O   0  0  0  0  0  1  0  0  0  0  0  0
  191.9920  171.7470  140.6170 C   0  0  0  0  0  0  0  0  0  0  0  0
  190.8310  171.6710  141.6180 C   0  0  2  0  0  0  0  0  0  0  0  0
  190.6200  173.7370  140.3690 O   0  0  0  0  0  1  0  0  0  0  0  0
  189.8410  171.6490  139.2500 C   0  0  0  0  0  2  0  0  0  0  0  0
  189.7680  172.4920  138.1410 O   0  0  0  0  0  1  0  0  0  0  0  0
  189.3670  175.5570  145.4650 C   0  0  1  0  0  3  0  0  0  0  0  0
  187.9200  175.9980  145.2570 C   0  0  2  0  0  3  0  0  0  0  0  0
  187.8330  177.5020  145.4400 C   0  0  2  0  0  3  0  0  0  0  0  0
  187.3680  176.5770  146.5450 C   0  0  0  0  0  2  0  0  0  0  0  0
  186.6300  178.0430  144.6870 C   0  0  2  0  0  3  0  0  0  0  0  0
  184.7700  178.7230  145.9670 O   0  0  0  0  0  0  0  0  0  0  0  0
  185.8860  179.0000  145.5620 C   0  0  0  0  0  3  0  0  0  0  0  0
  185.7870  176.9850  144.3310 O   0  0  0  0  0  0  0  0  0  0  0  0
  185.6660  177.0600  142.9410 C   0  0  2  0  0  3  0  0  0  0  0  0
  185.5050  178.2430  140.3870 N   0  0  0  0  0  0  0  0  0  0  0  0
  186.7780  177.7040  140.8340 C   0  0  0  0  0  2  0  0  0  0  0  0
  186.9060  177.7150  142.3530 C   0  0  0  0  0  2  0  0  0  0  0  0
  184.4420  177.8940  142.5770 C   0  0  0  0  0  2  0  0  0  0  0  0
  184.4420  178.2870  141.1210 C   0  0  0  0  0  3  0  0  0  0  0  0
  189.4290  174.5290  146.4100 O   0  0  0  0  0  0  0  0  0  0  0  0
  190.4760  174.8870  147.2620 C   0  0  0  0  0  2  0  0  0  0  0  0
  190.3310  176.2210  147.6380 O   0  0  0  0  0  1  0  0  0  0  0  0
  1  8  1  6  0  0  0
  1 10  1  0  0  0  0
  2  3  1  0  0  0  0
  3 10  2  0  0  0  0
  7 26  1  1  0  0  0
 11 17  1  0  0  0  0
 11  7  1  0  0  0  0
 12  6  1  6  0  0  0
 12  1  1  0  0  0  0
 12 15  1  0  0  0  0
 13  5  1  0  0  0  0
 13  7  1  0  0  0  0
 14  5  1  1  0  0  0
 14  2  1  0  0  0  0
 15  9  2  0  0  0  0
 16  8  1  6  0  0  0
 16  6  1  0  0  0  0
 16 12  1  0  0  0  0
 17  4  1  6  0  0  0
 17 15  1  0  0  0  0
 18 21  2  0  0  0  0
 19 23  1  1  0  0  0
 19 21  1  0  0  0  0
 19 22  1  0  0  0  0
 21 22  1  0  0  0  0
 22 20  1  1  0  0  0
 22 14  1  0  0  0  0
 24 19  1  0  0  0  0
 25 24  1  0  0  0  0
 26 40  1  1  0  0  0
 27 28  1  0  0  0  0
 27 26  1  1  0  0  0
 27 29  1  0  0  0  0
 28 30  1  6  0  0  0
 28 29  1  0  0  0  0
 30 32  1  1  0  0  0
 32 31  2  0  0  0  0
 33 30  1  0  0  0  0
 34 33  1  1  0  0  0
 35 36  1  0  0  0  0
 35 39  2  0  0  0  0
 36 37  1  0  0  0  0
 37 34  1  0  0  0  0
 38 34  1  0  0  0  0
 39 38  1  0  0  0  0
 40 41  1  0  0  0  0
 41 42  1  0  0  0  0
M  END
>  <MODEL>
3

>  <REMARK>
 VINA RESULT:      -6.4      2.319      3.996
  Name = 
  10 active torsions:
  status: ('A' for Active; 'I' for Inactive)
    1  A    between atoms: C_3  and  C_23
    2  A    between atoms: C_4  and  C_30
    3  A    between atoms: C_6  and  O_9
    4  A    between atoms: C_6  and  C_18
    5  A    between atoms: C_6  and  C_31
    6  A    between atoms: O_9  and  C_13
    7  A    between atoms: C_10  and  O_21
    8  A    between atoms: C_16  and  C_30
    9  A    between atoms: O_21  and  C_30
   10  A    between atoms: C_35  and  C_36
                            x       y       z     vdW  Elec       q    Type
                         _______ _______ _______ _____ _____    ______ ____

>  <TORSDO>
F 10

$$$$
=
 OpenBabel11062420033D

 42 47  0  0  1  0  0  0  0  0999 V2000
  195.5540  172.6640  143.6120 C   0  0  2  0  0  3  0  0  0  0  0  0
  192.7130  171.2440  143.9930 C   0  0  0  0  0  2  0  0  0  0  0  0
  193.3660  172.2260  144.9200 C   0  0  0  0  0  3  0  0  0  0  0  0
  195.1490  176.7780  141.2860 C   0  0  0  0  0  1  0  0  0  0  0  0
  190.9210  172.9120  143.3570 C   0  0  0  0  0  2  0  0  0  0  0  0
  196.5780  173.8910  141.7150 O   0  0  0  0  0  0  0  0  0  0  0  0
  192.2920  175.0010  143.2160 C   0  0  2  0  0  3  0  0  0  0  0  0
  195.0110  172.1320  142.3010 C   0  0  0  0  0  2  0  0  0  0  0  0
  195.7980  175.8770  144.4490 C   0  0  0  0  0  2  0  0  0  0  0  0
  194.5470  172.8370  144.7340 C   0  0  0  0  0  3  0  0  0  0  0  0
  193.0990  175.5720  142.0530 C   0  0  0  0  0  2  0  0  0  0  0  0
  195.8400  173.9850  142.9080 C   0  0  2  0  0  0  0  0  0  0  0  0
  191.0610  174.2710  142.6880 C   0  0  0  0  0  2  0  0  0  0  0  0
  192.0010  171.9620  142.8460 C   0  0  2  0  0  3  0  0  0  0  0  0
  195.3120  175.3470  143.3290 C   0  0  0  0  0  0  0  0  0  0  0  0
  195.2320  173.4820  141.6460 C   0  0  1  0  0  3  0  0  0  0  0  0
  194.4110  176.2280  142.4900 C   0  0  1  0  0  3  0  0  0  0  0  0
  193.3180  169.3110  140.9730 O   0  0  0  0  0  0  0  0  0  0  0  0
  191.5110  171.2090  140.4460 C   0  0  1  0  0  0  0  0  0  0  0  0
  190.3230  170.1880  142.2780 O   0  0  0  0  0  1  0  0  0  0  0  0
  192.4370  170.1530  141.0570 C   0  0  0  0  0  0  0  0  0  0  0  0
  191.4070  170.9640  141.8550 C   0  0  2  0  0  0  0  0  0  0  0  0
  192.2130  172.3470  140.0370 O   0  0  0  0  0  1  0  0  0  0  0  0
  190.4890  170.6330  139.4820 C   0  0  0  0  0  2  0  0  0  0  0  0
  191.1330  169.8500  138.5240 O   0  0  0  0  0  1  0  0  0  0  0  0
  191.9430  176.0490  144.2840 C   0  0  1  0  0  3  0  0  0  0  0  0
  190.4390  176.1850  144.5040 C   0  0  2  0  0  3  0  0  0  0  0  0
  189.9200  177.3330  143.6590 C   0  0  2  0  0  3  0  0  0  0  0  0
  190.1310  177.5230  145.1450 C   0  0  0  0  0  2  0  0  0  0  0  0
  188.4410  177.1350  143.3730 C   0  0  2  0  0  3  0  0  0  0  0  0
  187.7860  175.6190  141.6900 O   0  0  0  0  0  0  0  0  0  0  0  0
  188.2630  176.7110  141.9510 C   0  0  0  0  0  3  0  0  0  0  0  0
  187.7580  178.3370  143.5900 O   0  0  0  0  0  0  0  0  0  0  0  0
  186.5240  177.9670  144.1320 C   0  0  2  0  0  3  0  0  0  0  0  0
  184.5070  177.6540  146.0760 N   0  0  0  0  0  0  0  0  0  0  0  0
  184.4270  178.7740  145.1530 C   0  0  0  0  0  2  0  0  0  0  0  0
  185.8000  179.2010  144.6470 C   0  0  0  0  0  2  0  0  0  0  0  0
  186.7420  176.9980  145.2890 C   0  0  0  0  0  2  0  0  0  0  0  0
  185.4950  176.8220  146.1190 C   0  0  0  0  0  3  0  0  0  0  0  0
  192.5830  175.7390  145.4880 O   0  0  0  0  0  0  0  0  0  0  0  0
  191.6490  174.9890  146.2080 C   0  0  0  0  0  2  0  0  0  0  0  0
  191.8510  175.1870  147.5720 O   0  0  0  0  0  1  0  0  0  0  0  0
  1  8  1  6  0  0  0
  1 10  1  0  0  0  0
  2  3  1  0  0  0  0
  7 26  1  1  0  0  0
 10  3  2  0  0  0  0
 11 17  1  0  0  0  0
 11  7  1  0  0  0  0
 12  6  1  6  0  0  0
 12 15  1  0  0  0  0
 12  1  1  0  0  0  0
 13  7  1  0  0  0  0
 13  5  1  0  0  0  0
 14  5  1  1  0  0  0
 14  2  1  0  0  0  0
 15  9  2  0  0  0  0
 16  6  1  0  0  0  0
 16  8  1  1  0  0  0
 16 12  1  0  0  0  0
 17  4  1  6  0  0  0
 17 15  1  0  0  0  0
 18 21  2  0  0  0  0
 19 23  1  6  0  0  0
 19 21  1  0  0  0  0
 19 22  1  0  0  0  0
 21 22  1  0  0  0  0
 22 20  1  1  0  0  0
 22 14  1  0  0  0  0
 24 19  1  0  0  0  0
 25 24  1  0  0  0  0
 26 40  1  1  0  0  0
 27 26  1  6  0  0  0
 27 29  1  0  0  0  0
 28 30  1  1  0  0  0
 28 27  1  0  0  0  0
 28 29  1  0  0  0  0
 30 32  1  6  0  0  0
 30 33  1  0  0  0  0
 31 32  2  0  0  0  0
 34 33  1  1  0  0  0
 34 37  1  0  0  0  0
 34 38  1  0  0  0  0
 35 39  2  0  0  0  0
 36 35  1  0  0  0  0
 37 36  1  0  0  0  0
 38 39  1  0  0  0  0
 40 41  1  0  0  0  0
 41 42  1  0  0  0  0
M  END
>  <MODEL>
4

>  <REMARK>
 VINA RESULT:      -6.2      2.092      4.102
  Name = 
  10 active torsions:
  status: ('A' for Active; 'I' for Inactive)
    1  A    between atoms: C_3  and  C_23
    2  A    between atoms: C_4  and  C_30
    3  A    between atoms: C_6  and  O_9
    4  A    between atoms: C_6  and  C_18
    5  A    between atoms: C_6  and  C_31
    6  A    between atoms: O_9  and  C_13
    7  A    between atoms: C_10  and  O_21
    8  A    between atoms: C_16  and  C_30
    9  A    between atoms: O_21  and  C_30
   10  A    between atoms: C_35  and  C_36
                            x       y       z     vdW  Elec       q    Type
                         _______ _______ _______ _____ _____    ______ ____

>  <TORSDO>
F 10

$$$$
=
 OpenBabel11062420033D

 42 47  0  0  1  0  0  0  0  0999 V2000
  190.2880  176.6220  146.4870 C   0  0  2  0  0  3  0  0  0  0  0  0
  189.4340  178.5360  144.0720 C   0  0  0  0  0  2  0  0  0  0  0  0
  190.7900  177.9450  144.3220 C   0  0  0  0  0  3  0  0  0  0  0  0
  189.6920  172.0480  145.3820 C   0  0  0  0  0  1  0  0  0  0  0  0
  189.0950  177.0940  142.0220 C   0  0  0  0  0  2  0  0  0  0  0  0
  189.2960  174.5480  147.4200 O   0  0  0  0  0  0  0  0  0  0  0  0
  190.0840  174.9410  142.8280 C   0  0  2  0  0  3  0  0  0  0  0  0
  188.7870  176.6310  146.2810 C   0  0  0  0  0  2  0  0  0  0  0  0
  192.3250  174.0810  145.7970 C   0  0  0  0  0  2  0  0  0  0  0  0
  191.1280  177.1190  145.3250 C   0  0  0  0  0  3  0  0  0  0  0  0
  189.4460  173.8000  143.6160 C   0  0  0  0  0  2  0  0  0  0  0  0
  190.2300  175.0990  146.5250 C   0  0  2  0  0  0  0  0  0  0  0  0
  189.0490  175.5780  141.9060 C   0  0  0  0  0  2  0  0  0  0  0  0
  188.5210  177.5340  143.3650 C   0  0  2  0  0  3  0  0  0  0  0  0
  191.0080  174.1600  145.6180 C   0  0  0  0  0  0  0  0  0  0  0  0
  188.7690  175.1150  146.2420 C   0  0  1  0  0  3  0  0  0  0  0  0
  190.3890  173.1760  144.6490 C   0  0  1  0  0  3  0  0  0  0  0  0
  186.1430  178.8980  145.5460 O   0  0  0  0  0  0  0  0  0  0  0  0
  185.9730  177.2730  143.4310 C   0  0  1  0  0  0  0  0  0  0  0  0
  186.9450  179.1480  142.2700 O   0  0  0  0  0  1  0  0  0  0  0  0
  186.3330  178.3240  144.4850 C   0  0  0  0  0  0  0  0  0  0  0  0
  187.1160  178.1030  143.1840 C   0  0  2  0  0  0  0  0  0  0  0  0
  186.2040  175.9720  143.8890 O   0  0  0  0  0  1  0  0  0  0  0  0
  184.6520  177.5450  142.7320 C   0  0  0  0  0  2  0  0  0  0  0  0
  183.9430  178.5240  143.4280 O   0  0  0  0  0  1  0  0  0  0  0  0
  191.3610  174.5230  142.0840 C   0  0  1  0  0  3  0  0  0  0  0  0
  191.0670  173.7790  140.7850 C   0  0  2  0  0  3  0  0  0  0  0  0
  191.7830  172.4410  140.8110 C   0  0  2  0  0  3  0  0  0  0  0  0
  192.3490  173.5860  140.0000 C   0  0  0  0  0  2  0  0  0  0  0  0
  191.0770  171.4610  139.8900 C   0  0  2  0  0  3  0  0  0  0  0  0
  190.6490  170.2120  141.8450 O   0  0  0  0  0  0  0  0  0  0  0  0
  190.7970  170.1940  140.6340 C   0  0  0  0  0  3  0  0  0  0  0  0
  191.8930  171.1840  138.7880 O   0  0  0  0  0  0  0  0  0  0  0  0
  191.0150  170.9360  137.7300 C   0  0  2  0  0  3  0  0  0  0  0  0
  189.7060  171.3370  135.2660 N   0  0  0  0  0  0  0  0  0  0  0  0
  190.8210  170.4070  135.3280 C   0  0  0  0  0  2  0  0  0  0  0  0
  191.8020  170.7580  136.4420 C   0  0  0  0  0  2  0  0  0  0  0  0
  190.0600  172.1150  137.5720 C   0  0  0  0  0  2  0  0  0  0  0  0
  189.3160  172.0640  136.2610 C   0  0  0  0  0  3  0  0  0  0  0  0
  192.1570  175.6450  141.8300 O   0  0  0  0  0  0  0  0  0  0  0  0
  193.2330  175.5290  142.7140 C   0  0  0  0  0  2  0  0  0  0  0  0
  194.3860  176.0190  142.1050 O   0  0  0  0  0  1  0  0  0  0  0  0
  1 10  1  6  0  0  0
  1 12  1  0  0  0  0
  2  3  1  0  0  0  0
  3 10  2  0  0  0  0
  7 26  1  6  0  0  0
  7 11  1  0  0  0  0
  8  1  1  0  0  0  0
 11 17  1  0  0  0  0
 12 15  1  6  0  0  0
 12  6  1  0  0  0  0
 13  5  1  0  0  0  0
 13  7  1  0  0  0  0
 14  5  1  6  0  0  0
 14  2  1  0  0  0  0
 15  9  2  0  0  0  0
 16  8  1  1  0  0  0
 16 12  1  0  0  0  0
 16  6  1  0  0  0  0
 17  4  1  1  0  0  0
 17 15  1  0  0  0  0
 19 23  1  1  0  0  0
 19 21  1  0  0  0  0
 21 18  2  0  0  0  0
 22 20  1  6  0  0  0
 22 14  1  0  0  0  0
 22 19  1  0  0  0  0
 22 21  1  0  0  0  0
 24 25  1  0  0  0  0
 24 19  1  0  0  0  0
 26 40  1  6  0  0  0
 27 28  1  0  0  0  0
 27 26  1  1  0  0  0
 28 30  1  6  0  0  0
 29 27  1  0  0  0  0
 29 28  1  0  0  0  0
 30 32  1  1  0  0  0
 32 31  2  0  0  0  0
 33 30  1  0  0  0  0
 34 33  1  1  0  0  0
 35 36  1  0  0  0  0
 35 39  2  0  0  0  0
 36 37  1  0  0  0  0
 37 34  1  0  0  0  0
 38 34  1  0  0  0  0
 39 38  1  0  0  0  0
 40 41  1  0  0  0  0
 42 41  1  0  0  0  0
M  END
>  <MODEL>
5

>  <REMARK>
 VINA RESULT:      -6.1      3.526      8.097
  Name = 
  10 active torsions:
  status: ('A' for Active; 'I' for Inactive)
    1  A    between atoms: C_3  and  C_23
    2  A    between atoms: C_4  and  C_30
    3  A    between atoms: C_6  and  O_9
    4  A    between atoms: C_6  and  C_18
    5  A    between atoms: C_6  and  C_31
    6  A    between atoms: O_9  and  C_13
    7  A    between atoms: C_10  and  O_21
    8  A    between atoms: C_16  and  C_30
    9  A    between atoms: O_21  and  C_30
   10  A    between atoms: C_35  and  C_36
                            x       y       z     vdW  Elec       q    Type
                         _______ _______ _______ _____ _____    ______ ____

>  <TORSDO>
F 10

$$$$
=
 OpenBabel11062420033D

 42 47  0  0  1  0  0  0  0  0999 V2000
  193.8160  171.4540  141.8090 C   0  0  2  0  0  3  0  0  0  0  0  0
  190.7410  170.8740  141.1470 C   0  0  0  0  0  2  0  0  0  0  0  0
  191.3700  170.9830  142.5050 C   0  0  0  0  0  3  0  0  0  0  0  0
  194.6620  176.1020  142.2360 C   0  0  0  0  0  1  0  0  0  0  0  0
  189.4570  173.0280  141.4790 C   0  0  0  0  0  2  0  0  0  0  0  0
  195.4090  173.1830  141.0170 O   0  0  0  0  0  0  0  0  0  0  0  0
  191.1970  174.4050  142.6370 C   0  0  2  0  0  3  0  0  0  0  0  0
  193.4550  171.8810  140.4010 C   0  0  0  0  0  2  0  0  0  0  0  0
  194.4890  173.5020  144.3460 C   0  0  0  0  0  2  0  0  0  0  0  0
  192.6580  171.2560  142.7690 C   0  0  0  0  0  3  0  0  0  0  0  0
  192.3110  175.2730  142.0570 C   0  0  0  0  0  2  0  0  0  0  0  0
  194.4800  172.8120  142.0050 C   0  0  2  0  0  0  0  0  0  0  0  0
  189.9800  174.4360  141.7160 C   0  0  0  0  0  2  0  0  0  0  0  0
  190.4180  172.2560  140.5790 C   0  0  2  0  0  3  0  0  0  0  0  0
  194.1440  173.8130  143.0980 C   0  0  0  0  0  0  0  0  0  0  0  0
  194.0510  173.2540  140.6500 C   0  0  1  0  0  3  0  0  0  0  0  0
  193.6100  175.2100  142.8640 C   0  0  1  0  0  3  0  0  0  0  0  0
  191.4800  170.6630  137.6460 O   0  0  0  0  0  0  0  0  0  0  0  0
  190.3400  173.0300  138.1370 C   0  0  1  0  0  0  0  0  0  0  0  0
  188.5540  171.6680  139.0100 O   0  0  0  0  0  1  0  0  0  0  0  0
  190.8250  171.5770  138.1210 C   0  0  0  0  0  0  0  0  0  0  0  0
  189.8560  172.1520  139.1630 C   0  0  2  0  0  0  0  0  0  0  0  0
  191.3640  173.9190  138.4760 O   0  0  0  0  0  1  0  0  0  0  0  0
  189.4660  173.3880  136.9490 C   0  0  0  0  0  2  0  0  0  0  0  0
  188.7360  174.5440  137.2310 O   0  0  0  0  0  1  0  0  0  0  0  0
  190.8470  174.7590  144.0900 C   0  0  1  0  0  3  0  0  0  0  0  0
  189.4400  175.3340  144.2310 C   0  0  2  0  0  3  0  0  0  0  0  0
  189.4990  176.8360  144.0200 C   0  0  2  0  0  3  0  0  0  0  0  0
  189.3840  176.2720  145.4200 C   0  0  0  0  0  2  0  0  0  0  0  0
  188.1430  177.3440  143.5610 C   0  0  2  0  0  3  0  0  0  0  0  0
  187.8140  177.1390  141.2350 O   0  0  0  0  0  0  0  0  0  0  0  0
  188.2450  177.8230  142.1480 C   0  0  0  0  0  3  0  0  0  0  0  0
  187.7370  178.4020  144.3830 O   0  0  0  0  0  0  0  0  0  0  0  0
  186.3730  178.1960  144.6040 C   0  0  2  0  0  3  0  0  0  0  0  0
  183.7860  178.6620  145.6240 N   0  0  0  0  0  0  0  0  0  0  0  0
  184.0990  179.0970  144.2730 C   0  0  0  0  0  2  0  0  0  0  0  0
  185.5850  179.3920  144.0930 C   0  0  0  0  0  2  0  0  0  0  0  0
  186.1150  178.0310  146.0980 C   0  0  0  0  0  2  0  0  0  0  0  0
  184.6480  178.1360  146.4310 C   0  0  0  0  0  3  0  0  0  0  0  0
  190.9950  173.6350  144.9070 O   0  0  0  0  0  0  0  0  0  0  0  0
  189.6920  173.2700  145.2550 C   0  0  0  0  0  2  0  0  0  0  0  0
  189.5070  171.9130  144.9970 O   0  0  0  0  0  1  0  0  0  0  0  0
  1  8  1  6  0  0  0
  1 12  1  0  0  0  0
  1 10  1  0  0  0  0
  2  3  1  0  0  0  0
  3 10  2  0  0  0  0
  5 13  1  0  0  0  0
  7 26  1  1  0  0  0
 11  7  1  0  0  0  0
 11 17  1  0  0  0  0
 12  6  1  6  0  0  0
 12 15  1  0  0  0  0
 13  7  1  0  0  0  0
 14  2  1  1  0  0  0
 14  5  1  0  0  0  0
 15  9  2  0  0  0  0
 16  8  1  6  0  0  0
 16  6  1  0  0  0  0
 16 12  1  0  0  0  0
 17  4  1  6  0  0  0
 17 15  1  0  0  0  0
 18 21  2  0  0  0  0
 19 23  1  1  0  0  0
 19 22  1  0  0  0  0
 21 19  1  0  0  0  0
 21 22  1  0  0  0  0
 22 20  1  6  0  0  0
 22 14  1  0  0  0  0
 24 25  1  0  0  0  0
 24 19  1  0  0  0  0
 26 40  1  1  0  0  0
 27 26  1  1  0  0  0
 27 29  1  0  0  0  0
 28 30  1  6  0  0  0
 28 27  1  0  0  0  0
 28 29  1  0  0  0  0
 30 32  1  6  0  0  0
 30 33  1  0  0  0  0
 31 32  2  0  0  0  0
 34 33  1  1  0  0  0
 34 38  1  0  0  0  0
 35 39  2  0  0  0  0
 36 35  1  0  0  0  0
 37 36  1  0  0  0  0
 37 34  1  0  0  0  0
 38 39  1  0  0  0  0
 40 41  1  0  0  0  0
 42 41  1  0  0  0  0
M  END
>  <MODEL>
6

>  <REMARK>
 VINA RESULT:      -6.0      2.559      4.469
  Name = 
  10 active torsions:
  status: ('A' for Active; 'I' for Inactive)
    1  A    between atoms: C_3  and  C_23
    2  A    between atoms: C_4  and  C_30
    3  A    between atoms: C_6  and  O_9
    4  A    between atoms: C_6  and  C_18
    5  A    between atoms: C_6  and  C_31
    6  A    between atoms: O_9  and  C_13
    7  A    between atoms: C_10  and  O_21
    8  A    between atoms: C_16  and  C_30
    9  A    between atoms: O_21  and  C_30
   10  A    between atoms: C_35  and  C_36
                            x       y       z     vdW  Elec       q    Type
                         _______ _______ _______ _____ _____    ______ ____

>  <TORSDO>
F 10

$$$$
=
 OpenBabel11062420033D

 42 47  0  0  1  0  0  0  0  0999 V2000
  190.5400  176.3260  145.9950 C   0  0  2  0  0  3  0  0  0  0  0  0
  189.5610  178.3400  143.7120 C   0  0  0  0  0  2  0  0  0  0  0  0
  190.8680  177.6080  143.7730 C   0  0  0  0  0  3  0  0  0  0  0  0
  189.3170  171.8490  145.0130 C   0  0  0  0  0  1  0  0  0  0  0  0
  188.7870  176.9590  141.7390 C   0  0  0  0  0  2  0  0  0  0  0  0
  189.4770  174.3590  147.0700 O   0  0  0  0  0  0  0  0  0  0  0  0
  189.6480  174.7070  142.4110 C   0  0  2  0  0  3  0  0  0  0  0  0
  189.0340  176.4940  146.0020 C   0  0  0  0  0  2  0  0  0  0  0  0
  192.1810  173.5910  145.0400 C   0  0  0  0  0  2  0  0  0  0  0  0
  191.2560  176.7420  144.7230 C   0  0  0  0  0  3  0  0  0  0  0  0
  189.0110  173.6320  143.2880 C   0  0  0  0  0  2  0  0  0  0  0  0
  190.3280  174.8170  146.0500 C   0  0  2  0  0  0  0  0  0  0  0  0
  188.5660  175.4570  141.6400 C   0  0  0  0  0  2  0  0  0  0  0  0
  188.4570  177.4450  143.1470 C   0  0  2  0  0  3  0  0  0  0  0  0
  190.8680  173.8090  145.0480 C   0  0  0  0  0  0  0  0  0  0  0  0
  188.8520  174.9880  145.9760 C   0  0  1  0  0  3  0  0  0  0  0  0
  190.0180  172.9040  144.1810 C   0  0  1  0  0  3  0  0  0  0  0  0
  186.3750  178.6700  145.6850 O   0  0  0  0  0  0  0  0  0  0  0  0
  185.9050  177.4090  143.3750 C   0  0  1  0  0  0  0  0  0  0  0  0
  186.9850  179.3430  142.4270 O   0  0  0  0  0  1  0  0  0  0  0  0
  186.4370  178.2500  144.5400 C   0  0  0  0  0  0  0  0  0  0  0  0
  187.1080  178.1600  143.1620 C   0  0  2  0  0  0  0  0  0  0  0  0
  186.0320  176.0380  143.6200 O   0  0  0  0  0  1  0  0  0  0  0  0
  184.5760  177.9020  142.8300 C   0  0  0  0  0  2  0  0  0  0  0  0
  183.9230  178.6660  143.7980 O   0  0  0  0  0  1  0  0  0  0  0  0
  190.7560  174.1650  141.4970 C   0  0  1  0  0  3  0  0  0  0  0  0
  192.1390  174.2520  142.1360 C   0  0  2  0  0  3  0  0  0  0  0  0
  193.1310  174.7440  141.0980 C   0  0  2  0  0  3  0  0  0  0  0  0
  193.0810  173.2750  141.4590 C   0  0  0  0  0  2  0  0  0  0  0  0
  194.3140  175.4010  141.7870 C   0  0  2  0  0  3  0  0  0  0  0  0
  196.0590  176.7890  141.0180 O   0  0  0  0  0  0  0  0  0  0  0  0
  194.8970  176.4430  140.8870 C   0  0  0  0  0  3  0  0  0  0  0  0
  195.2850  174.4340  142.0720 O   0  0  0  0  0  0  0  0  0  0  0  0
  195.7190  174.7170  143.3700 C   0  0  2  0  0  3  0  0  0  0  0  0
  195.6130  174.9180  146.1800 N   0  0  0  0  0  0  0  0  0  0  0  0
  196.2760  173.7720  145.5800 C   0  0  0  0  0  2  0  0  0  0  0  0
  195.7190  173.4430  144.1990 C   0  0  0  0  0  2  0  0  0  0  0  0
  194.7780  175.7310  144.0140 C   0  0  0  0  0  2  0  0  0  0  0  0
  194.9910  175.8270  145.5040 C   0  0  0  0  0  3  0  0  0  0  0  0
  190.4740  172.8460  141.1310 O   0  0  0  0  0  0  0  0  0  0  0  0
  190.1010  172.9180  139.7860 C   0  0  0  0  0  2  0  0  0  0  0  0
  188.7550  172.5790  139.6590 O   0  0  0  0  0  1  0  0  0  0  0  0
  1 10  1  6  0  0  0
  1  8  1  0  0  0  0
  1 12  1  0  0  0  0
  2  3  1  0  0  0  0
  3 10  2  0  0  0  0
  7 26  1  6  0  0  0
  7 11  1  0  0  0  0
  9 15  2  0  0  0  0
 11 17  1  0  0  0  0
 12 15  1  6  0  0  0
 12  6  1  0  0  0  0
 13  5  1  0  0  0  0
 13  7  1  0  0  0  0
 14  5  1  6  0  0  0
 14 22  1  0  0  0  0
 14  2  1  0  0  0  0
 16  8  1  1  0  0  0
 16 12  1  0  0  0  0
 16  6  1  0  0  0  0
 17  4  1  1  0  0  0
 17 15  1  0  0  0  0
 19 23  1  1  0  0  0
 19 21  1  0  0  0  0
 21 18  2  0  0  0  0
 22 20  1  6  0  0  0
 22 19  1  0  0  0  0
 22 21  1  0  0  0  0
 24 19  1  0  0  0  0
 24 25  1  0  0  0  0
 26 40  1  1  0  0  0
 27 26  1  6  0  0  0
 28 29  1  0  0  0  0
 28 30  1  1  0  0  0
 28 27  1  0  0  0  0
 29 27  1  0  0  0  0
 30 32  1  6  0  0  0
 30 33  1  0  0  0  0
 32 31  2  0  0  0  0
 34 33  1  6  0  0  0
 34 38  1  0  0  0  0
 34 37  1  0  0  0  0
 36 35  1  0  0  0  0
 37 36  1  0  0  0  0
 38 39  1  0  0  0  0
 39 35  2  0  0  0  0
 41 40  1  0  0  0  0
 42 41  1  0  0  0  0
M  END
>  <MODEL>
7

>  <REMARK>
 VINA RESULT:      -6.0      2.515      7.862
  Name = 
  10 active torsions:
  status: ('A' for Active; 'I' for Inactive)
    1  A    between atoms: C_3  and  C_23
    2  A    between atoms: C_4  and  C_30
    3  A    between atoms: C_6  and  O_9
    4  A    between atoms: C_6  and  C_18
    5  A    between atoms: C_6  and  C_31
    6  A    between atoms: O_9  and  C_13
    7  A    between atoms: C_10  and  O_21
    8  A    between atoms: C_16  and  C_30
    9  A    between atoms: O_21  and  C_30
   10  A    between atoms: C_35  and  C_36
                            x       y       z     vdW  Elec       q    Type
                         _______ _______ _______ _____ _____    ______ ____

>  <TORSDO>
F 10

$$$$
=
 OpenBabel11062420033D

 42 47  0  0  1  0  0  0  0  0999 V2000
  195.5650  172.8870  144.2130 C   0  0  2  0  0  3  0  0  0  0  0  0
  194.8720  171.8010  141.2860 C   0  0  0  0  0  2  0  0  0  0  0  0
  194.1130  171.5380  142.5520 C   0  0  0  0  0  3  0  0  0  0  0  0
  193.4420  177.0390  145.0810 C   0  0  0  0  0  1  0  0  0  0  0  0
  192.9930  173.2170  140.3580 C   0  0  0  0  0  2  0  0  0  0  0  0
  196.0860  175.1500  145.0860 O   0  0  0  0  0  0  0  0  0  0  0  0
  192.3060  174.4490  142.4260 C   0  0  2  0  0  3  0  0  0  0  0  0
  196.2330  173.7150  143.1340 C   0  0  0  0  0  2  0  0  0  0  0  0
  193.0320  173.8820  146.1310 C   0  0  0  0  0  2  0  0  0  0  0  0
  194.3980  172.0240  143.7710 C   0  0  0  0  0  3  0  0  0  0  0  0
  192.8510  175.7420  143.0270 C   0  0  0  0  0  2  0  0  0  0  0  0
  195.0900  174.1860  144.8540 C   0  0  2  0  0  0  0  0  0  0  0  0
  192.3960  174.5060  140.9030 C   0  0  0  0  0  2  0  0  0  0  0  0
  194.4820  173.1510  140.6830 C   0  0  2  0  0  3  0  0  0  0  0  0
  193.6450  174.5490  145.1540 C   0  0  0  0  0  0  0  0  0  0  0  0
  195.6800  174.9880  143.7470 C   0  0  1  0  0  3  0  0  0  0  0  0
  192.9000  175.7240  144.5570 C   0  0  1  0  0  3  0  0  0  0  0  0
  197.9160  173.4460  140.0580 O   0  0  0  0  0  0  0  0  0  0  0  0
  195.7740  174.7970  139.2040 C   0  0  1  0  0  0  0  0  0  0  0  0
  195.1310  172.6520  138.3130 O   0  0  0  0  0  1  0  0  0  0  0  0
  196.7920  173.7700  139.7090 C   0  0  0  0  0  0  0  0  0  0  0  0
  195.3130  173.4600  139.4400 C   0  0  2  0  0  0  0  0  0  0  0  0
  195.4820  175.7630  140.1710 O   0  0  0  0  0  1  0  0  0  0  0  0
  196.0540  175.2820  137.7920 C   0  0  0  0  0  2  0  0  0  0  0  0
  197.4290  175.2770  137.5560 O   0  0  0  0  0  1  0  0  0  0  0  0
  190.8950  174.0980  142.9210 C   0  0  1  0  0  3  0  0  0  0  0  0
  189.9480  175.2940  142.8910 C   0  0  2  0  0  3  0  0  0  0  0  0
  189.1050  175.2860  144.1530 C   0  0  2  0  0  3  0  0  0  0  0  0
  188.5110  174.8120  142.8430 C   0  0  0  0  0  2  0  0  0  0  0  0
  188.6180  176.6930  144.4560 C   0  0  2  0  0  3  0  0  0  0  0  0
  190.3210  178.3240  144.4530 O   0  0  0  0  0  0  0  0  0  0  0  0
  189.7230  177.4740  145.0910 C   0  0  0  0  0  3  0  0  0  0  0  0
  187.5270  176.6320  145.3300 O   0  0  0  0  0  0  0  0  0  0  0  0
  186.7890  177.7920  145.0820 C   0  0  2  0  0  3  0  0  0  0  0  0
  184.7060  179.4060  144.0800 N   0  0  0  0  0  0  0  0  0  0  0  0
  184.6510  178.9650  145.4630 C   0  0  0  0  0  2  0  0  0  0  0  0
  185.3980  177.6530  145.6790 C   0  0  0  0  0  2  0  0  0  0  0  0
  186.6670  178.0090  143.5770 C   0  0  0  0  0  2  0  0  0  0  0  0
  185.6190  179.0400  143.2410 C   0  0  0  0  0  3  0  0  0  0  0  0
  190.3700  173.0450  142.1670 O   0  0  0  0  0  0  0  0  0  0  0  0
  190.5150  171.9160  142.9770 C   0  0  0  0  0  2  0  0  0  0  0  0
  190.5700  170.7760  142.1780 O   0  0  0  0  0  1  0  0  0  0  0  0
  1  8  1  6  0  0  0
  1 12  1  0  0  0  0
  2  3  1  0  0  0  0
  3 10  2  0  0  0  0
  5 13  1  0  0  0  0
  7 26  1  6  0  0  0
  7 11  1  0  0  0  0
 10  1  1  0  0  0  0
 11 17  1  0  0  0  0
 12  6  1  1  0  0  0
 12 15  1  0  0  0  0
 13  7  1  0  0  0  0
 14  5  1  6  0  0  0
 14  2  1  0  0  0  0
 15  9  2  0  0  0  0
 16  8  1  6  0  0  0
 16 12  1  0  0  0  0
 16  6  1  0  0  0  0
 17  4  1  6  0  0  0
 17 15  1  0  0  0  0
 19 22  1  0  0  0  0
 19 21  1  0  0  0  0
 19 23  1  1  0  0  0
 21 18  2  0  0  0  0
 22 20  1  6  0  0  0
 22 21  1  0  0  0  0
 22 14  1  0  0  0  0
 24 19  1  0  0  0  0
 25 24  1  0  0  0  0
 26 40  1  6  0  0  0
 27 26  1  1  0  0  0
 27 28  1  0  0  0  0
 28 30  1  6  0  0  0
 29 27  1  0  0  0  0
 29 28  1  0  0  0  0
 30 32  1  1  0  0  0
 30 33  1  0  0  0  0
 31 32  2  0  0  0  0
 34 33  1  6  0  0  0
 34 37  1  0  0  0  0
 35 36  1  0  0  0  0
 36 37  1  0  0  0  0
 38 34  1  0  0  0  0
 39 38  1  0  0  0  0
 39 35  2  0  0  0  0
 40 41  1  0  0  0  0
 42 41  1  0  0  0  0
M  END
>  <MODEL>
8

>  <REMARK>
 VINA RESULT:      -6.0      1.629      2.092
  Name = 
  10 active torsions:
  status: ('A' for Active; 'I' for Inactive)
    1  A    between atoms: C_3  and  C_23
    2  A    between atoms: C_4  and  C_30
    3  A    between atoms: C_6  and  O_9
    4  A    between atoms: C_6  and  C_18
    5  A    between atoms: C_6  and  C_31
    6  A    between atoms: O_9  and  C_13
    7  A    between atoms: C_10  and  O_21
    8  A    between atoms: C_16  and  C_30
    9  A    between atoms: O_21  and  C_30
   10  A    between atoms: C_35  and  C_36
                            x       y       z     vdW  Elec       q    Type
                         _______ _______ _______ _____ _____    ______ ____

>  <TORSDO>
F 10

$$$$
=
 OpenBabel11062420033D

 42 47  0  0  1  0  0  0  0  0999 V2000
  191.9310  171.1480  144.2700 C   0  0  2  0  0  3  0  0  0  0  0  0
  189.8590  171.7490  141.9090 C   0  0  0  0  0  2  0  0  0  0  0  0
  190.1310  172.6000  143.1140 C   0  0  0  0  0  3  0  0  0  0  0  0
  196.2060  172.9870  143.3500 C   0  0  0  0  0  1  0  0  0  0  0  0
  190.9150  173.4530  140.3660 C   0  0  0  0  0  2  0  0  0  0  0  0
  194.3270  170.5040  144.2800 O   0  0  0  0  0  0  0  0  0  0  0  0
  192.8680  174.1620  141.7620 C   0  0  2  0  0  3  0  0  0  0  0  0
  192.2570  170.3540  143.0210 C   0  0  0  0  0  2  0  0  0  0  0  0
  193.7010  173.7050  145.4590 C   0  0  0  0  0  2  0  0  0  0  0  0
  191.0250  172.3500  144.0840 C   0  0  0  0  0  3  0  0  0  0  0  0
  194.2620  173.5540  141.8840 C   0  0  0  0  0  2  0  0  0  0  0  0
  193.3980  171.5570  144.3400 C   0  0  2  0  0  0  0  0  0  0  0  0
  192.3420  173.9780  140.3410 C   0  0  0  0  0  2  0  0  0  0  0  0
  190.9010  171.9950  140.8170 C   0  0  2  0  0  3  0  0  0  0  0  0
  193.9190  172.9840  144.3610 C   0  0  0  0  0  0  0  0  0  0  0  0
  193.6930  170.8410  143.0680 C   0  0  1  0  0  3  0  0  0  0  0  0
  194.8190  173.5980  143.3090 C   0  0  1  0  0  3  0  0  0  0  0  0
  190.6640  168.5210  140.4370 O   0  0  0  0  0  0  0  0  0  0  0  0
  191.7980  170.4520  138.9790 C   0  0  1  0  0  0  0  0  0  0  0  0
  189.5390  171.2800  138.8370 O   0  0  0  0  0  1  0  0  0  0  0  0
  190.9360  169.5820  139.8980 C   0  0  0  0  0  0  0  0  0  0  0  0
  190.6760  171.0700  139.6240 C   0  0  2  0  0  0  0  0  0  0  0  0
  193.0660  170.6880  139.5190 O   0  0  0  0  0  1  0  0  0  0  0  0
  191.7240  170.0450  137.5170 C   0  0  0  0  0  2  0  0  0  0  0  0
  192.0660  171.1300  136.7080 O   0  0  0  0  0  1  0  0  0  0  0  0
  192.8010  175.6230  142.2310 C   0  0  1  0  0  3  0  0  0  0  0  0
  191.7730  175.8380  143.3380 C   0  0  2  0  0  3  0  0  0  0  0  0
  190.5720  176.5650  142.7610 C   0  0  2  0  0  3  0  0  0  0  0  0
  191.5880  177.3220  143.5890 C   0  0  0  0  0  2  0  0  0  0  0  0
  189.3410  176.2740  143.6020 C   0  0  2  0  0  3  0  0  0  0  0  0
  188.4280  175.6240  141.5270 O   0  0  0  0  0  0  0  0  0  0  0  0
  188.2780  175.6770  142.7360 C   0  0  0  0  0  3  0  0  0  0  0  0
  188.8690  177.4640  144.1670 O   0  0  0  0  0  0  0  0  0  0  0  0
  187.6540  177.1300  144.7720 C   0  0  2  0  0  3  0  0  0  0  0  0
  185.4910  177.3030  146.5700 N   0  0  0  0  0  0  0  0  0  0  0  0
  185.3430  177.8600  145.2360 C   0  0  0  0  0  2  0  0  0  0  0  0
  186.6800  178.2900  144.6410 C   0  0  0  0  0  2  0  0  0  0  0  0
  187.8840  176.8350  146.2500 C   0  0  0  0  0  2  0  0  0  0  0  0
  186.5890  176.7940  147.0230 C   0  0  0  0  0  3  0  0  0  0  0  0
  194.0630  176.0500  142.6530 O   0  0  0  0  0  0  0  0  0  0  0  0
  194.5700  176.7870  141.5790 C   0  0  0  0  0  2  0  0  0  0  0  0
  195.9620  176.7920  141.6370 O   0  0  0  0  0  1  0  0  0  0  0  0
  1  8  1  6  0  0  0
  1 12  1  0  0  0  0
  2  3  1  0  0  0  0
  3 10  2  0  0  0  0
  7 11  1  0  0  0  0
  7 26  1  6  0  0  0
 10  1  1  0  0  0  0
 11 17  1  0  0  0  0
 12  6  1  1  0  0  0
 12 15  1  0  0  0  0
 13  5  1  0  0  0  0
 13  7  1  0  0  0  0
 14  5  1  6  0  0  0
 14  2  1  0  0  0  0
 15  9  2  0  0  0  0
 16  8  1  1  0  0  0
 16  6  1  0  0  0  0
 16 12  1  0  0  0  0
 17  4  1  6  0  0  0
 17 15  1  0  0  0  0
 19 23  1  1  0  0  0
 19 22  1  0  0  0  0
 19 21  1  0  0  0  0
 21 18  2  0  0  0  0
 22 20  1  6  0  0  0
 22 21  1  0  0  0  0
 22 14  1  0  0  0  0
 24 19  1  0  0  0  0
 25 24  1  0  0  0  0
 26 40  1  1  0  0  0
 27 26  1  6  0  0  0
 27 29  1  0  0  0  0
 28 27  1  0  0  0  0
 28 29  1  0  0  0  0
 28 30  1  1  0  0  0
 30 32  1  6  0  0  0
 30 33  1  0  0  0  0
 31 32  2  0  0  0  0
 34 33  1  1  0  0  0
 34 38  1  0  0  0  0
 35 39  2  0  0  0  0
 36 35  1  0  0  0  0
 37 34  1  0  0  0  0
 37 36  1  0  0  0  0
 38 39  1  0  0  0  0
 41 42  1  0  0  0  0
 41 40  1  0  0  0  0
M  END
>  <MODEL>
9

>  <REMARK>
 VINA RESULT:      -5.7      2.597      4.992
  Name = 
  10 active torsions:
  status: ('A' for Active; 'I' for Inactive)
    1  A    between atoms: C_3  and  C_23
    2  A    between atoms: C_4  and  C_30
    3  A    between atoms: C_6  and  O_9
    4  A    between atoms: C_6  and  C_18
    5  A    between atoms: C_6  and  C_31
    6  A    between atoms: O_9  and  C_13
    7  A    between atoms: C_10  and  O_21
    8  A    between atoms: C_16  and  C_30
    9  A    between atoms: O_21  and  C_30
   10  A    between atoms: C_35  and  C_36
                            x       y       z     vdW  Elec       q    Type
                         _______ _______ _______ _____ _____    ______ ____

>  <TORSDO>
F 10

$$$$
