=
 OpenBabel11062422243D

 36 37  0  0  1  0  0  0  0  0999 V2000
  188.7550  176.5860  143.8270 C   0  0  2  0  0  3  0  0  0  0  0  0
  190.1910  176.6450  146.9420 C   0  0  2  0  0  3  0  0  0  0  0  0
  188.2730  175.6090  146.1020 C   0  0  0  0  0  2  0  0  0  0  0  0
  188.5980  176.8890  145.3390 C   0  0  1  0  0  0  0  0  0  0  0  0
  189.5340  175.2960  146.8370 C   0  0  0  0  0  2  0  0  0  0  0  0
  189.8150  177.4180  145.8260 O   0  0  0  0  0  0  0  0  0  0  0  0
  187.4870  177.9300  145.5400 C   0  0  0  0  0  2  0  0  0  0  0  0
  186.6350  177.6700  146.7410 C   0  0  0  0  0  0  0  0  0  0  0  0
  185.6250  176.9250  146.6470 O   0  0  0  0  0  0  0  0  0  0  0  0
  186.9500  178.2840  147.9850 N   0  0  0  0  0  1  0  0  0  0  0  0
  191.7000  176.4830  146.9890 C   0  0  0  0  0  2  0  0  0  0  0  0
  192.5710  177.1080  144.7350 O   0  0  0  0  0  0  0  0  0  0  0  0
  192.3850  174.9050  145.3410 O   0  0  0  0  0  1  0  0  0  0  0  0
  192.2250  176.1160  145.6440 C   0  0  0  0  0  0  0  0  0  0  0  0
  188.1850  177.6930  142.9150 C   0  0  1  0  0  3  0  0  0  0  0  0
  189.1920  178.2500  142.1210 O   0  0  0  0  0  1  0  0  0  0  0  0
  187.5330  176.7360  140.7880 O   0  0  0  0  0  1  0  0  0  0  0  0
  187.0530  177.1680  142.0300 C   0  0  2  0  0  3  0  0  0  0  0  0
  185.9200  178.1880  141.8760 C   0  0  1  0  0  3  0  0  0  0  0  0
  185.3840  178.2310  140.4500 C   0  0  0  0  0  2  0  0  0  0  0  0
  183.9910  178.3070  140.4660 O   0  0  0  0  0  1  0  0  0  0  0  0
  184.7880  177.8790  142.8490 C   0  0  0  0  0  2  0  0  0  0  0  0
  183.6540  178.8910  144.8260 O   0  0  0  0  0  1  0  0  0  0  0  0
  185.3720  179.9920  143.7840 O   0  0  0  0  0  0  0  0  0  0  0  0
  184.6340  178.9760  143.8460 C   0  0  0  0  0  0  0  0  0  0  0  0
  188.1500  175.3570  143.5220 O   0  0  0  0  0  0  0  0  0  0  0  0
  190.3610  175.2680  142.6070 C   0  0  0  0  0  2  0  0  0  0  0  0
  188.7050  173.3610  142.3090 C   0  0  0  0  0  2  0  0  0  0  0  0
  191.2280  174.3690  141.7310 C   0  0  0  0  0  2  0  0  0  0  0  0
  190.3990  173.7000  140.6220 C   0  0  0  0  0  2  0  0  0  0  0  0
  188.9550  173.7010  140.9060 N   0  0  0  0  0  0  0  0  0  0  0  0
  189.2020  174.4810  143.2330 C   0  0  2  0  0  3  0  0  0  0  0  0
  188.2760  172.7380  140.0340 C   0  0  0  0  0  2  0  0  0  0  0  0
  188.6280  172.9100  138.5560 C   0  0  0  0  0  2  0  0  0  0  0  0
  188.7480  174.3970  136.9340 C   0  0  0  0  0  1  0  0  0  0  0  0
  188.0030  174.0540  138.0610 O   0  0  0  0  0  0  0  0  0  0  0  0
  1 26  1  6  0  0  0
  1  4  1  0  0  0  0
  2 11  1  6  0  0  0
  3  5  1  0  0  0  0
  4  7  1  1  0  0  0
  4  6  1  0  0  0  0
  4  3  1  0  0  0  0
  5  2  1  0  0  0  0
  6  2  1  0  0  0  0
  7  8  1  0  0  0  0
  8 10  1  0  0  0  0
  9  8  2  0  0  0  0
 12 14  2  0  0  0  0
 13 14  1  0  0  0  0
 14 11  1  0  0  0  0
 15 16  1  6  0  0  0
 15  1  1  0  0  0  0
 18 17  1  6  0  0  0
 18 15  1  0  0  0  0
 19 20  1  6  0  0  0
 19 18  1  0  0  0  0
 19 22  1  0  0  0  0
 20 21  1  0  0  0  0
 22 25  1  0  0  0  0
 24 25  2  0  0  0  0
 25 23  1  0  0  0  0
 27 32  1  0  0  0  0
 28 32  1  0  0  0  0
 29 27  1  0  0  0  0
 30 31  1  0  0  0  0
 30 29  1  0  0  0  0
 31 28  1  0  0  0  0
 32 26  1  6  0  0  0
 33 31  1  0  0  0  0
 34 33  1  0  0  0  0
 35 36  1  0  0  0  0
 36 34  1  0  0  0  0
M  END
>  <MODEL>
1

>  <REMARK>
 VINA RESULT:      -6.1      0.000      0.000
  Name = 
  16 active torsions:
  status: ('A' for Active; 'I' for Inactive)
    1  A    between atoms: C_1  and  C_12
    2  A    between atoms: C_1  and  C_30
    3  A    between atoms: C_2  and  C_11
    4  A    between atoms: C_5  and  C_10
    5  A    between atoms: C_6  and  C_26
    6  A    between atoms: C_6  and  N_31
    7  A    between atoms: C_10  and  C_36
    8  A    between atoms: C_11  and  C_21
    9  A    between atoms: C_12  and  C_24
   10  A    between atoms: O_18  and  C_26
   11  A    between atoms: C_20  and  C_34
   12  A    between atoms: C_21  and  C_30
   13  A    between atoms: O_23  and  C_30
   14  A    between atoms: O_23  and  C_32
   15  A    between atoms: C_24  and  C_33
   16  A    between atoms: C_24  and  C_34
                            x       y       z     vdW  Elec       q    Type
                         _______ _______ _______ _____ _____    ______ ____

>  <TORSDO>
F 16

$$$$
=
 OpenBabel11062422243D

 36 37  0  0  1  0  0  0  0  0999 V2000
  189.0990  175.3650  144.2610 C   0  0  2  0  0  3  0  0  0  0  0  0
  187.4790  177.8660  142.5630 C   0  0  2  0  0  3  0  0  0  0  0  0
  189.6580  177.6620  143.3800 C   0  0  0  0  0  2  0  0  0  0  0  0
  188.6690  176.8540  144.2130 C   0  0  1  0  0  0  0  0  0  0  0  0
  188.9130  177.9560  142.1210 C   0  0  0  0  0  2  0  0  0  0  0  0
  187.3890  176.9380  143.6180 O   0  0  0  0  0  0  0  0  0  0  0  0
  188.5900  177.4100  145.6430 C   0  0  0  0  0  2  0  0  0  0  0  0
  187.2200  177.3320  146.2380 C   0  0  0  0  0  0  0  0  0  0  0  0
  186.8390  176.2750  146.8050 O   0  0  0  0  0  0  0  0  0  0  0  0
  186.3370  178.4430  146.1420 N   0  0  0  0  0  1  0  0  0  0  0  0
  186.6050  177.4310  141.4000 C   0  0  0  0  0  2  0  0  0  0  0  0
  184.8740  178.7800  142.5890 O   0  0  0  0  0  1  0  0  0  0  0  0
  184.6190  178.2530  140.3730 O   0  0  0  0  0  0  0  0  0  0  0  0
  185.3080  178.1650  141.4220 C   0  0  0  0  0  0  0  0  0  0  0  0
  189.8910  174.9930  145.5340 C   0  0  1  0  0  3  0  0  0  0  0  0
  189.5270  173.7240  145.9920 O   0  0  0  0  0  1  0  0  0  0  0  0
  191.9550  173.7680  145.2170 O   0  0  0  0  0  1  0  0  0  0  0  0
  191.4010  175.0510  145.2960 C   0  0  2  0  0  3  0  0  0  0  0  0
  192.1170  175.9150  146.3400 C   0  0  1  0  0  3  0  0  0  0  0  0
  191.4310  175.8490  147.6990 C   0  0  0  0  0  2  0  0  0  0  0  0
  191.4690  177.1020  148.3130 O   0  0  0  0  0  1  0  0  0  0  0  0
  193.5760  175.4930  146.4710 C   0  0  0  0  0  2  0  0  0  0  0  0
  195.1770  176.2740  144.7260 O   0  0  0  0  0  0  0  0  0  0  0  0
  194.6340  177.6290  146.4930 O   0  0  0  0  0  1  0  0  0  0  0  0
  194.4800  176.5310  145.8990 C   0  0  0  0  0  0  0  0  0  0  0  0
  189.8540  175.0500  143.1210 O   0  0  0  0  0  0  0  0  0  0  0  0
  190.4630  172.9320  142.1840 C   0  0  0  0  0  2  0  0  0  0  0  0
  188.3370  174.1470  141.4950 C   0  0  0  0  0  2  0  0  0  0  0  0
  189.9890  171.9440  141.1220 C   0  0  0  0  0  2  0  0  0  0  0  0
  189.3970  172.6720  139.9030 C   0  0  0  0  0  2  0  0  0  0  0  0
  189.0120  174.0620  140.1980 N   0  0  0  0  0  0  0  0  0  0  0  0
  189.3200  173.8510  142.6350 C   0  0  2  0  0  3  0  0  0  0  0  0
  188.1250  174.5650  139.1440 C   0  0  0  0  0  2  0  0  0  0  0  0
  188.5110  174.0780  137.7470 C   0  0  0  0  0  2  0  0  0  0  0  0
  188.9920  174.8700  135.7470 C   0  0  0  0  0  1  0  0  0  0  0  0
  188.0870  175.0080  136.7980 O   0  0  0  0  0  0  0  0  0  0  0  0
  1 26  1  6  0  0  0
  1 15  1  0  0  0  0
  2 11  1  6  0  0  0
  2  6  1  0  0  0  0
  3  4  1  0  0  0  0
  4  1  1  0  0  0  0
  4  7  1  1  0  0  0
  5  2  1  0  0  0  0
  5  3  1  0  0  0  0
  6  4  1  0  0  0  0
  7  8  1  0  0  0  0
  8  9  2  0  0  0  0
 10  8  1  0  0  0  0
 11 14  1  0  0  0  0
 13 14  2  0  0  0  0
 14 12  1  0  0  0  0
 15 16  1  6  0  0  0
 18 17  1  1  0  0  0
 18 15  1  0  0  0  0
 18 19  1  0  0  0  0
 19 22  1  1  0  0  0
 19 20  1  0  0  0  0
 20 21  1  0  0  0  0
 23 25  2  0  0  0  0
 25 22  1  0  0  0  0
 25 24  1  0  0  0  0
 27 32  1  0  0  0  0
 28 32  1  0  0  0  0
 29 27  1  0  0  0  0
 30 31  1  0  0  0  0
 30 29  1  0  0  0  0
 31 28  1  0  0  0  0
 32 26  1  6  0  0  0
 33 31  1  0  0  0  0
 34 33  1  0  0  0  0
 35 36  1  0  0  0  0
 36 34  1  0  0  0  0
M  END
>  <MODEL>
2

>  <REMARK>
 VINA RESULT:      -6.0      1.610      5.939
  Name = 
  16 active torsions:
  status: ('A' for Active; 'I' for Inactive)
    1  A    between atoms: C_1  and  C_12
    2  A    between atoms: C_1  and  C_30
    3  A    between atoms: C_2  and  C_11
    4  A    between atoms: C_5  and  C_10
    5  A    between atoms: C_6  and  C_26
    6  A    between atoms: C_6  and  N_31
    7  A    between atoms: C_10  and  C_36
    8  A    between atoms: C_11  and  C_21
    9  A    between atoms: C_12  and  C_24
   10  A    between atoms: O_18  and  C_26
   11  A    between atoms: C_20  and  C_34
   12  A    between atoms: C_21  and  C_30
   13  A    between atoms: O_23  and  C_30
   14  A    between atoms: O_23  and  C_32
   15  A    between atoms: C_24  and  C_33
   16  A    between atoms: C_24  and  C_34
                            x       y       z     vdW  Elec       q    Type
                         _______ _______ _______ _____ _____    ______ ____

>  <TORSDO>
F 16

$$$$
=
 OpenBabel11062422243D

 36 37  0  0  1  0  0  0  0  0999 V2000
  189.4080  174.5570  144.9160 C   0  0  2  0  0  3  0  0  0  0  0  0
  187.8230  177.0220  146.6980 C   0  0  2  0  0  3  0  0  0  0  0  0
  189.8630  176.9520  145.5630 C   0  0  0  0  0  2  0  0  0  0  0  0
  189.4640  175.5750  146.0830 C   0  0  1  0  0  0  0  0  0  0  0  0
  188.6010  177.7450  145.6340 C   0  0  0  0  0  2  0  0  0  0  0  0
  188.1820  175.6610  146.6740 O   0  0  0  0  0  0  0  0  0  0  0  0
  190.4660  175.0870  147.1390 C   0  0  0  0  0  2  0  0  0  0  0  0
  191.5240  176.0920  147.4660 C   0  0  0  0  0  0  0  0  0  0  0  0
  192.6220  176.0740  146.8510 O   0  0  0  0  0  0  0  0  0  0  0  0
  191.3020  177.0550  148.4900 N   0  0  0  0  0  1  0  0  0  0  0  0
  186.3340  177.1810  146.4470 C   0  0  0  0  0  2  0  0  0  0  0  0
  185.4690  179.2770  145.4050 O   0  0  0  0  0  0  0  0  0  0  0  0
  186.0140  179.2230  147.6310 O   0  0  0  0  0  1  0  0  0  0  0  0
  185.9430  178.6160  146.5310 C   0  0  0  0  0  0  0  0  0  0  0  0
  190.3480  173.3480  145.1060 C   0  0  1  0  0  3  0  0  0  0  0  0
  189.6200  172.1560  145.1640 O   0  0  0  0  0  1  0  0  0  0  0  0
  191.4340  171.9900  143.4210 O   0  0  0  0  0  1  0  0  0  0  0  0
  191.3960  173.2660  143.9950 C   0  0  2  0  0  3  0  0  0  0  0  0
  192.7810  173.7150  144.4730 C   0  0  1  0  0  3  0  0  0  0  0  0
  193.5690  172.5650  145.0890 C   0  0  0  0  0  2  0  0  0  0  0  0
  194.7660  173.0420  145.6250 O   0  0  0  0  0  1  0  0  0  0  0  0
  193.5690  174.3300  143.3220 C   0  0  0  0  0  2  0  0  0  0  0  0
  192.6000  176.5600  142.7680 O   0  0  0  0  0  0  0  0  0  0  0  0
  194.4790  176.4010  144.0710 O   0  0  0  0  0  1  0  0  0  0  0  0
  193.5750  175.8170  143.4200 C   0  0  0  0  0  0  0  0  0  0  0  0
  189.7010  175.2030  143.7050 O   0  0  0  0  0  0  0  0  0  0  0  0
  189.2380  174.7030  141.4090 C   0  0  0  0  0  2  0  0  0  0  0  0
  187.5490  175.8910  142.8950 C   0  0  0  0  0  2  0  0  0  0  0  0
  188.1570  174.9350  140.3580 C   0  0  0  0  0  2  0  0  0  0  0  0
  187.5070  176.3200  140.5180 C   0  0  0  0  0  2  0  0  0  0  0  0
  187.7260  176.9040  141.8510 N   0  0  0  0  0  0  0  0  0  0  0  0
  188.6710  174.8460  142.8280 C   0  0  2  0  0  3  0  0  0  0  0  0
  186.7880  178.0100  142.0690 C   0  0  0  0  0  2  0  0  0  0  0  0
  185.6840  178.0820  141.0130 C   0  0  0  0  0  2  0  0  0  0  0  0
  183.5290  178.2770  140.5990 C   0  0  0  0  0  1  0  0  0  0  0  0
  184.4500  178.2330  141.6430 O   0  0  0  0  0  0  0  0  0  0  0  0
  1 26  1  6  0  0  0
  1 15  1  0  0  0  0
  1  4  1  0  0  0  0
  2 11  1  6  0  0  0
  3  5  1  0  0  0  0
  3  4  1  0  0  0  0
  4  6  1  0  0  0  0
  4  7  1  1  0  0  0
  5  2  1  0  0  0  0
  6  2  1  0  0  0  0
  7  8  1  0  0  0  0
  8 10  1  0  0  0  0
  9  8  2  0  0  0  0
 11 14  1  0  0  0  0
 12 14  2  0  0  0  0
 14 13  1  0  0  0  0
 15 16  1  6  0  0  0
 18 17  1  1  0  0  0
 18 19  1  0  0  0  0
 18 15  1  0  0  0  0
 19 22  1  6  0  0  0
 19 20  1  0  0  0  0
 20 21  1  0  0  0  0
 22 25  1  0  0  0  0
 23 25  2  0  0  0  0
 25 24  1  0  0  0  0
 27 32  1  0  0  0  0
 29 30  1  0  0  0  0
 29 27  1  0  0  0  0
 30 31  1  0  0  0  0
 31 33  1  0  0  0  0
 31 28  1  0  0  0  0
 32 28  1  0  0  0  0
 32 26  1  1  0  0  0
 34 36  1  0  0  0  0
 34 33  1  0  0  0  0
 35 36  1  0  0  0  0
M  END
>  <MODEL>
3

>  <REMARK>
 VINA RESULT:      -5.9      2.329      6.375
  Name = 
  16 active torsions:
  status: ('A' for Active; 'I' for Inactive)
    1  A    between atoms: C_1  and  C_12
    2  A    between atoms: C_1  and  C_30
    3  A    between atoms: C_2  and  C_11
    4  A    between atoms: C_5  and  C_10
    5  A    between atoms: C_6  and  C_26
    6  A    between atoms: C_6  and  N_31
    7  A    between atoms: C_10  and  C_36
    8  A    between atoms: C_11  and  C_21
    9  A    between atoms: C_12  and  C_24
   10  A    between atoms: O_18  and  C_26
   11  A    between atoms: C_20  and  C_34
   12  A    between atoms: C_21  and  C_30
   13  A    between atoms: O_23  and  C_30
   14  A    between atoms: O_23  and  C_32
   15  A    between atoms: C_24  and  C_33
   16  A    between atoms: C_24  and  C_34
                            x       y       z     vdW  Elec       q    Type
                         _______ _______ _______ _____ _____    ______ ____

>  <TORSDO>
F 16

$$$$
=
 OpenBabel11062422243D

 36 37  0  0  1  0  0  0  0  0999 V2000
  191.0280  174.9630  144.4410 C   0  0  2  0  0  3  0  0  0  0  0  0
  188.8330  177.2240  145.7960 C   0  0  2  0  0  3  0  0  0  0  0  0
  190.7400  177.4690  144.4680 C   0  0  0  0  0  2  0  0  0  0  0  0
  190.8150  176.2140  145.3310 C   0  0  1  0  0  0  0  0  0  0  0  0
  189.2970  177.8490  144.5100 C   0  0  0  0  0  2  0  0  0  0  0  0
  189.5990  176.0670  146.0380 O   0  0  0  0  0  0  0  0  0  0  0  0
  191.9670  176.3240  146.3410 C   0  0  0  0  0  2  0  0  0  0  0  0
  191.5270  176.1920  147.7640 C   0  0  0  0  0  0  0  0  0  0  0  0
  191.2800  175.0550  148.2440 O   0  0  0  0  0  0  0  0  0  0  0  0
  191.3620  177.3520  148.5710 N   0  0  0  0  0  1  0  0  0  0  0  0
  187.3600  176.8710  145.6980 C   0  0  0  0  0  2  0  0  0  0  0  0
  186.0060  178.9680  145.6610 O   0  0  0  0  0  0  0  0  0  0  0  0
  186.2840  177.7960  147.6120 O   0  0  0  0  0  1  0  0  0  0  0  0
  186.5320  177.9040  146.3830 C   0  0  0  0  0  0  0  0  0  0  0  0
  192.3770  174.2540  144.6850 C   0  0  1  0  0  3  0  0  0  0  0  0
  192.1880  172.8860  144.9020 O   0  0  0  0  0  1  0  0  0  0  0  0
  193.5700  173.2810  142.8160 O   0  0  0  0  0  1  0  0  0  0  0  0
  193.3470  174.4700  143.5230 C   0  0  2  0  0  3  0  0  0  0  0  0
  194.6610  175.1130  143.9780 C   0  0  1  0  0  3  0  0  0  0  0  0
  195.2300  174.4290  145.2160 C   0  0  0  0  0  2  0  0  0  0  0  0
  195.3020  175.3390  146.2710 O   0  0  0  0  0  1  0  0  0  0  0  0
  195.6870  175.0880  142.8510 C   0  0  0  0  0  2  0  0  0  0  0  0
  196.0690  177.0050  141.3020 O   0  0  0  0  0  0  0  0  0  0  0  0
  196.7780  177.1110  143.4790 O   0  0  0  0  0  1  0  0  0  0  0  0
  196.2010  176.4590  142.5720 C   0  0  0  0  0  0  0  0  0  0  0  0
  190.9130  175.3160  143.0870 O   0  0  0  0  0  0  0  0  0  0  0  0
  190.5190  173.9660  141.1490 C   0  0  0  0  0  2  0  0  0  0  0  0
  188.6140  175.0180  142.4650 C   0  0  0  0  0  2  0  0  0  0  0  0
  189.3680  173.5010  140.2630 C   0  0  0  0  0  2  0  0  0  0  0  0
  188.3010  174.5980  140.1070 C   0  0  0  0  0  2  0  0  0  0  0  0
  188.3840  175.6290  141.1540 N   0  0  0  0  0  0  0  0  0  0  0  0
  190.0160  174.3970  142.5330 C   0  0  2  0  0  3  0  0  0  0  0  0
  187.1430  176.4100  141.1810 C   0  0  0  0  0  2  0  0  0  0  0  0
  187.3780  177.9110  141.3500 C   0  0  0  0  0  2  0  0  0  0  0  0
  185.4980  177.5290  142.4350 C   0  0  0  0  0  1  0  0  0  0  0  0
  186.5960  178.3880  142.4010 O   0  0  0  0  0  0  0  0  0  0  0  0
  1 26  1  6  0  0  0
  1 15  1  0  0  0  0
  1  4  1  0  0  0  0
  2 11  1  6  0  0  0
  2  6  1  0  0  0  0
  3  5  1  0  0  0  0
  3  4  1  0  0  0  0
  4  6  1  0  0  0  0
  4  7  1  1  0  0  0
  5  2  1  0  0  0  0
  7  8  1  0  0  0  0
  8  9  2  0  0  0  0
  8 10  1  0  0  0  0
 11 14  1  0  0  0  0
 12 14  2  0  0  0  0
 14 13  1  0  0  0  0
 15 16  1  6  0  0  0
 18 17  1  1  0  0  0
 18 19  1  0  0  0  0
 18 15  1  0  0  0  0
 19 22  1  6  0  0  0
 19 20  1  0  0  0  0
 20 21  1  0  0  0  0
 23 25  2  0  0  0  0
 25 22  1  0  0  0  0
 25 24  1  0  0  0  0
 27 32  1  0  0  0  0
 28 32  1  0  0  0  0
 29 27  1  0  0  0  0
 30 29  1  0  0  0  0
 30 31  1  0  0  0  0
 31 33  1  0  0  0  0
 31 28  1  0  0  0  0
 32 26  1  6  0  0  0
 33 34  1  0  0  0  0
 34 36  1  0  0  0  0
 36 35  1  0  0  0  0
M  END
>  <MODEL>
4

>  <REMARK>
 VINA RESULT:      -5.9      2.534      6.731
  Name = 
  16 active torsions:
  status: ('A' for Active; 'I' for Inactive)
    1  A    between atoms: C_1  and  C_12
    2  A    between atoms: C_1  and  C_30
    3  A    between atoms: C_2  and  C_11
    4  A    between atoms: C_5  and  C_10
    5  A    between atoms: C_6  and  C_26
    6  A    between atoms: C_6  and  N_31
    7  A    between atoms: C_10  and  C_36
    8  A    between atoms: C_11  and  C_21
    9  A    between atoms: C_12  and  C_24
   10  A    between atoms: O_18  and  C_26
   11  A    between atoms: C_20  and  C_34
   12  A    between atoms: C_21  and  C_30
   13  A    between atoms: O_23  and  C_30
   14  A    between atoms: O_23  and  C_32
   15  A    between atoms: C_24  and  C_33
   16  A    between atoms: C_24  and  C_34
                            x       y       z     vdW  Elec       q    Type
                         _______ _______ _______ _____ _____    ______ ____

>  <TORSDO>
F 16

$$$$
=
 OpenBabel11062422243D

 36 37  0  0  1  0  0  0  0  0999 V2000
  189.3090  175.6120  142.5490 C   0  0  2  0  0  3  0  0  0  0  0  0
  189.2390  172.8330  140.5390 C   0  0  2  0  0  3  0  0  0  0  0  0
  189.5130  173.1150  142.8420 C   0  0  0  0  0  2  0  0  0  0  0  0
  190.0230  174.3240  142.0650 C   0  0  1  0  0  0  0  0  0  0  0  0
  188.6680  172.3820  141.8540 C   0  0  0  0  0  2  0  0  0  0  0  0
  189.7450  174.1380  140.6910 O   0  0  0  0  0  0  0  0  0  0  0  0
  191.5400  174.4800  142.2490 C   0  0  0  0  0  2  0  0  0  0  0  0
  192.2360  173.1970  142.5750 C   0  0  0  0  0  0  0  0  0  0  0  0
  192.5080  172.3780  141.6590 O   0  0  0  0  0  0  0  0  0  0  0  0
  192.5690  172.8890  143.9240 N   0  0  0  0  0  1  0  0  0  0  0  0
  188.1620  172.8050  139.4690 C   0  0  0  0  0  2  0  0  0  0  0  0
  189.4950  173.6090  137.5190 O   0  0  0  0  0  0  0  0  0  0  0  0
  187.7320  174.8420  138.3120 O   0  0  0  0  0  1  0  0  0  0  0  0
  188.4520  173.8150  138.4130 C   0  0  0  0  0  0  0  0  0  0  0  0
  190.1720  176.4780  143.4920 C   0  0  1  0  0  3  0  0  0  0  0  0
  190.4250  177.7300  142.9250 O   0  0  0  0  0  1  0  0  0  0  0  0
  189.2720  177.9970  145.1490 O   0  0  0  0  0  1  0  0  0  0  0  0
  189.5140  176.6480  144.8620 C   0  0  2  0  0  3  0  0  0  0  0  0
  190.3140  175.9660  145.9760 C   0  0  1  0  0  3  0  0  0  0  0  0
  189.8230  174.5480  146.2440 C   0  0  0  0  0  2  0  0  0  0  0  0
  189.0380  174.5260  147.3970 O   0  0  0  0  0  1  0  0  0  0  0  0
  191.7990  175.9460  145.6310 C   0  0  0  0  0  2  0  0  0  0  0  0
  194.0050  176.2910  146.7420 O   0  0  0  0  0  0  0  0  0  0  0  0
  192.0580  176.7610  147.8560 O   0  0  0  0  0  1  0  0  0  0  0  0
  192.6200  176.3650  146.8020 C   0  0  0  0  0  0  0  0  0  0  0  0
  188.1000  175.2790  143.1790 O   0  0  0  0  0  0  0  0  0  0  0  0
  187.6940  176.7710  141.3510 C   0  0  0  0  0  2  0  0  0  0  0  0
  185.9710  176.3870  143.1820 C   0  0  0  0  0  2  0  0  0  0  0  0
  186.6410  177.7600  140.8610 C   0  0  0  0  0  2  0  0  0  0  0  0
  185.9900  178.5120  142.0350 C   0  0  0  0  0  2  0  0  0  0  0  0
  186.1770  177.8300  143.3260 N   0  0  0  0  0  0  0  0  0  0  0  0
  187.0920  175.7630  142.3390 C   0  0  2  0  0  3  0  0  0  0  0  0
  185.2360  178.3690  144.3130 C   0  0  0  0  0  2  0  0  0  0  0  0
  185.8810  178.6500  145.6700 C   0  0  0  0  0  2  0  0  0  0  0  0
  186.3710  176.9370  146.9670 C   0  0  0  0  0  1  0  0  0  0  0  0
  185.3300  177.8010  146.6290 O   0  0  0  0  0  0  0  0  0  0  0  0
  1 26  1  1  0  0  0
  1 15  1  0  0  0  0
  2 11  1  6  0  0  0
  2  6  1  0  0  0  0
  2  5  1  0  0  0  0
  4  7  1  1  0  0  0
  4  1  1  0  0  0  0
  4  3  1  0  0  0  0
  5  3  1  0  0  0  0
  6  4  1  0  0  0  0
  7  8  1  0  0  0  0
  8 10  1  0  0  0  0
  9  8  2  0  0  0  0
 12 14  2  0  0  0  0
 13 14  1  0  0  0  0
 14 11  1  0  0  0  0
 15 16  1  6  0  0  0
 15 18  1  0  0  0  0
 18 17  1  1  0  0  0
 18 19  1  0  0  0  0
 19 22  1  6  0  0  0
 19 20  1  0  0  0  0
 20 21  1  0  0  0  0
 22 25  1  0  0  0  0
 23 25  2  0  0  0  0
 25 24  1  0  0  0  0
 27 32  1  0  0  0  0
 28 31  1  0  0  0  0
 29 27  1  0  0  0  0
 29 30  1  0  0  0  0
 30 31  1  0  0  0  0
 31 33  1  0  0  0  0
 32 26  1  1  0  0  0
 32 28  1  0  0  0  0
 33 34  1  0  0  0  0
 34 36  1  0  0  0  0
 36 35  1  0  0  0  0
M  END
>  <MODEL>
5

>  <REMARK>
 VINA RESULT:      -5.9      2.087      7.107
  Name = 
  16 active torsions:
  status: ('A' for Active; 'I' for Inactive)
    1  A    between atoms: C_1  and  C_12
    2  A    between atoms: C_1  and  C_30
    3  A    between atoms: C_2  and  C_11
    4  A    between atoms: C_5  and  C_10
    5  A    between atoms: C_6  and  C_26
    6  A    between atoms: C_6  and  N_31
    7  A    between atoms: C_10  and  C_36
    8  A    between atoms: C_11  and  C_21
    9  A    between atoms: C_12  and  C_24
   10  A    between atoms: O_18  and  C_26
   11  A    between atoms: C_20  and  C_34
   12  A    between atoms: C_21  and  C_30
   13  A    between atoms: O_23  and  C_30
   14  A    between atoms: O_23  and  C_32
   15  A    between atoms: C_24  and  C_33
   16  A    between atoms: C_24  and  C_34
                            x       y       z     vdW  Elec       q    Type
                         _______ _______ _______ _____ _____    ______ ____

>  <TORSDO>
F 16

$$$$
=
 OpenBabel11062422243D

 36 37  0  0  1  0  0  0  0  0999 V2000
  190.6550  174.4150  144.6150 C   0  0  2  0  0  3  0  0  0  0  0  0
  188.6220  176.7020  146.1640 C   0  0  2  0  0  3  0  0  0  0  0  0
  190.7190  176.8790  145.1500 C   0  0  0  0  0  2  0  0  0  0  0  0
  190.4900  175.4850  145.7250 C   0  0  1  0  0  0  0  0  0  0  0  0
  189.3540  177.4800  145.1060 C   0  0  0  0  0  2  0  0  0  0  0  0
  189.1750  175.4090  146.2370 O   0  0  0  0  0  0  0  0  0  0  0  0
  191.4840  175.2010  146.8610 C   0  0  0  0  0  2  0  0  0  0  0  0
  192.0440  176.4390  147.4860 C   0  0  0  0  0  0  0  0  0  0  0  0
  193.1750  176.8650  147.1350 O   0  0  0  0  0  0  0  0  0  0  0  0
  191.3100  177.1220  148.4960 N   0  0  0  0  0  1  0  0  0  0  0  0
  187.1450  176.6270  145.8230 C   0  0  0  0  0  2  0  0  0  0  0  0
  186.9980  178.2850  147.6820 O   0  0  0  0  0  1  0  0  0  0  0  0
  185.1440  177.7640  146.4390 O   0  0  0  0  0  0  0  0  0  0  0  0
  186.3680  177.5780  146.6670 C   0  0  0  0  0  0  0  0  0  0  0  0
  191.9980  173.6560  144.6860 C   0  0  1  0  0  3  0  0  0  0  0  0
  191.7880  172.2740  144.6980 O   0  0  0  0  0  1  0  0  0  0  0  0
  193.1370  172.9470  142.6700 O   0  0  0  0  0  1  0  0  0  0  0  0
  192.9220  174.0340  143.5270 C   0  0  2  0  0  3  0  0  0  0  0  0
  194.2410  174.6410  144.0150 C   0  0  1  0  0  3  0  0  0  0  0  0
  194.2170  176.1640  143.9700 C   0  0  0  0  0  2  0  0  0  0  0  0
  195.3560  176.6770  144.5900 O   0  0  0  0  0  1  0  0  0  0  0  0
  194.5580  174.1660  145.4280 C   0  0  0  0  0  2  0  0  0  0  0  0
  196.8240  173.5410  146.2590 O   0  0  0  0  0  1  0  0  0  0  0  0
  195.7810  172.2690  144.6630 O   0  0  0  0  0  0  0  0  0  0  0  0
  195.7450  173.2650  145.4300 C   0  0  0  0  0  0  0  0  0  0  0  0
  190.5100  175.0100  143.3530 O   0  0  0  0  0  0  0  0  0  0  0  0
  189.9920  173.7310  141.3960 C   0  0  0  0  0  2  0  0  0  0  0  0
  188.2720  175.2330  142.5150 C   0  0  0  0  0  2  0  0  0  0  0  0
  188.8500  173.5180  140.4070 C   0  0  0  0  0  2  0  0  0  0  0  0
  188.0880  174.8270  140.1410 C   0  0  0  0  0  2  0  0  0  0  0  0
  188.3130  175.8420  141.1830 N   0  0  0  0  0  0  0  0  0  0  0  0
  189.4780  174.3070  142.7210 C   0  0  2  0  0  3  0  0  0  0  0  0
  187.2900  176.8890  141.0850 C   0  0  0  0  0  2  0  0  0  0  0  0
  186.2980  176.8730  142.2480 C   0  0  0  0  0  2  0  0  0  0  0  0
  186.0230  178.9090  143.0460 C   0  0  0  0  0  1  0  0  0  0  0  0
  185.4650  177.9880  142.1610 O   0  0  0  0  0  0  0  0  0  0  0  0
  1 26  1  6  0  0  0
  1 15  1  0  0  0  0
  1  4  1  0  0  0  0
  2 11  1  6  0  0  0
  2  6  1  0  0  0  0
  3  4  1  0  0  0  0
  4  6  1  0  0  0  0
  4  7  1  1  0  0  0
  5  3  1  0  0  0  0
  5  2  1  0  0  0  0
  7  8  1  0  0  0  0
  8 10  1  0  0  0  0
  9  8  2  0  0  0  0
 11 14  1  0  0  0  0
 13 14  2  0  0  0  0
 14 12  1  0  0  0  0
 15 16  1  6  0  0  0
 18 17  1  1  0  0  0
 18 19  1  0  0  0  0
 18 15  1  0  0  0  0
 19 20  1  1  0  0  0
 19 22  1  0  0  0  0
 20 21  1  0  0  0  0
 22 25  1  0  0  0  0
 24 25  2  0  0  0  0
 25 23  1  0  0  0  0
 27 32  1  0  0  0  0
 28 32  1  0  0  0  0
 29 27  1  0  0  0  0
 30 29  1  0  0  0  0
 30 31  1  0  0  0  0
 31 28  1  0  0  0  0
 32 26  1  6  0  0  0
 33 31  1  0  0  0  0
 33 34  1  0  0  0  0
 36 34  1  0  0  0  0
 36 35  1  0  0  0  0
M  END
>  <MODEL>
6

>  <REMARK>
 VINA RESULT:      -5.8      2.402      6.838
  Name = 
  16 active torsions:
  status: ('A' for Active; 'I' for Inactive)
    1  A    between atoms: C_1  and  C_12
    2  A    between atoms: C_1  and  C_30
    3  A    between atoms: C_2  and  C_11
    4  A    between atoms: C_5  and  C_10
    5  A    between atoms: C_6  and  C_26
    6  A    between atoms: C_6  and  N_31
    7  A    between atoms: C_10  and  C_36
    8  A    between atoms: C_11  and  C_21
    9  A    between atoms: C_12  and  C_24
   10  A    between atoms: O_18  and  C_26
   11  A    between atoms: C_20  and  C_34
   12  A    between atoms: C_21  and  C_30
   13  A    between atoms: O_23  and  C_30
   14  A    between atoms: O_23  and  C_32
   15  A    between atoms: C_24  and  C_33
   16  A    between atoms: C_24  and  C_34
                            x       y       z     vdW  Elec       q    Type
                         _______ _______ _______ _____ _____    ______ ____

>  <TORSDO>
F 16

$$$$
=
 OpenBabel11062422243D

 36 37  0  0  1  0  0  0  0  0999 V2000
  189.2800  175.6590  142.4500 C   0  0  2  0  0  3  0  0  0  0  0  0
  189.2740  172.7910  140.5690 C   0  0  2  0  0  3  0  0  0  0  0  0
  189.5490  173.1840  142.8550 C   0  0  0  0  0  2  0  0  0  0  0  0
  190.0250  174.3690  142.0210 C   0  0  1  0  0  0  0  0  0  0  0  0
  188.7200  172.3850  141.9070 C   0  0  0  0  0  2  0  0  0  0  0  0
  189.7470  174.1140  140.6590 O   0  0  0  0  0  0  0  0  0  0  0  0
  191.5380  174.5720  142.1900 C   0  0  0  0  0  2  0  0  0  0  0  0
  192.2870  173.3010  142.4330 C   0  0  0  0  0  0  0  0  0  0  0  0
  192.5670  172.5410  141.4700 O   0  0  0  0  0  0  0  0  0  0  0  0
  192.6620  172.9360  143.7570 N   0  0  0  0  0  1  0  0  0  0  0  0
  188.1940  172.6860  139.5080 C   0  0  0  0  0  2  0  0  0  0  0  0
  189.6290  172.5390  137.4710 O   0  0  0  0  0  0  0  0  0  0  0  0
  188.2160  174.3190  137.7730 O   0  0  0  0  0  1  0  0  0  0  0  0
  188.6830  173.2360  138.2120 C   0  0  0  0  0  0  0  0  0  0  0  0
  190.1800  176.6750  143.1860 C   0  0  1  0  0  3  0  0  0  0  0  0
  190.1520  177.9190  142.5480 O   0  0  0  0  0  1  0  0  0  0  0  0
  189.5820  178.1760  144.9890 O   0  0  0  0  0  1  0  0  0  0  0  0
  189.7730  176.8310  144.6530 C   0  0  2  0  0  3  0  0  0  0  0  0
  190.7590  176.1430  145.6020 C   0  0  1  0  0  3  0  0  0  0  0  0
  192.1410  176.7830  145.5470 C   0  0  0  0  0  2  0  0  0  0  0  0
  193.1120  175.8050  145.3320 O   0  0  0  0  0  1  0  0  0  0  0  0
  190.2300  176.1670  147.0310 C   0  0  0  0  0  2  0  0  0  0  0  0
  187.7390  176.1080  147.1290 O   0  0  0  0  0  0  0  0  0  0  0  0
  188.9520  174.1670  147.2460 O   0  0  0  0  0  1  0  0  0  0  0  0
  188.9440  175.4190  147.1320 C   0  0  0  0  0  0  0  0  0  0  0  0
  188.1770  175.3290  143.2530 O   0  0  0  0  0  0  0  0  0  0  0  0
  187.5070  176.5040  141.2770 C   0  0  0  0  0  2  0  0  0  0  0  0
  186.2240  176.7070  143.4640 C   0  0  0  0  0  2  0  0  0  0  0  0
  186.4700  177.5250  140.8200 C   0  0  0  0  0  2  0  0  0  0  0  0
  186.1840  178.5630  141.9190 C   0  0  0  0  0  2  0  0  0  0  0  0
  186.5960  178.1090  143.2560 N   0  0  0  0  0  0  0  0  0  0  0  0
  187.0540  175.7890  142.5570 C   0  0  2  0  0  3  0  0  0  0  0  0
  185.9650  178.9460  144.2820 C   0  0  0  0  0  2  0  0  0  0  0  0
  184.8130  178.2490  145.0040 C   0  0  0  0  0  2  0  0  0  0  0  0
  185.1810  178.6170  147.1460 C   0  0  0  0  0  1  0  0  0  0  0  0
  184.3930  179.0370  146.0760 O   0  0  0  0  0  0  0  0  0  0  0  0
  1 15  1  0  0  0  0
  1 26  1  1  0  0  0
  2 11  1  6  0  0  0
  2  6  1  0  0  0  0
  2  5  1  0  0  0  0
  4  7  1  1  0  0  0
  4  1  1  0  0  0  0
  4  3  1  0  0  0  0
  5  3  1  0  0  0  0
  6  4  1  0  0  0  0
  7  8  1  0  0  0  0
  8 10  1  0  0  0  0
  9  8  2  0  0  0  0
 12 14  2  0  0  0  0
 13 14  1  0  0  0  0
 14 11  1  0  0  0  0
 15 16  1  6  0  0  0
 15 18  1  0  0  0  0
 18 17  1  1  0  0  0
 18 19  1  0  0  0  0
 19 20  1  1  0  0  0
 19 22  1  0  0  0  0
 21 20  1  0  0  0  0
 22 25  1  0  0  0  0
 23 25  2  0  0  0  0
 25 24  1  0  0  0  0
 27 32  1  0  0  0  0
 29 27  1  0  0  0  0
 29 30  1  0  0  0  0
 30 31  1  0  0  0  0
 31 28  1  0  0  0  0
 31 33  1  0  0  0  0
 32 26  1  1  0  0  0
 32 28  1  0  0  0  0
 33 34  1  0  0  0  0
 34 36  1  0  0  0  0
 36 35  1  0  0  0  0
M  END
>  <MODEL>
7

>  <REMARK>
 VINA RESULT:      -5.7      2.018      6.966
  Name = 
  16 active torsions:
  status: ('A' for Active; 'I' for Inactive)
    1  A    between atoms: C_1  and  C_12
    2  A    between atoms: C_1  and  C_30
    3  A    between atoms: C_2  and  C_11
    4  A    between atoms: C_5  and  C_10
    5  A    between atoms: C_6  and  C_26
    6  A    between atoms: C_6  and  N_31
    7  A    between atoms: C_10  and  C_36
    8  A    between atoms: C_11  and  C_21
    9  A    between atoms: C_12  and  C_24
   10  A    between atoms: O_18  and  C_26
   11  A    between atoms: C_20  and  C_34
   12  A    between atoms: C_21  and  C_30
   13  A    between atoms: O_23  and  C_30
   14  A    between atoms: O_23  and  C_32
   15  A    between atoms: C_24  and  C_33
   16  A    between atoms: C_24  and  C_34
                            x       y       z     vdW  Elec       q    Type
                         _______ _______ _______ _____ _____    ______ ____

>  <TORSDO>
F 16

$$$$
=
 OpenBabel11062422243D

 36 37  0  0  1  0  0  0  0  0999 V2000
  189.1650  175.3710  142.7530 C   0  0  2  0  0  3  0  0  0  0  0  0
  190.6500  176.8200  145.4850 C   0  0  2  0  0  3  0  0  0  0  0  0
  190.4930  177.4590  143.2430 C   0  0  0  0  0  2  0  0  0  0  0  0
  190.4540  175.9420  143.3980 C   0  0  1  0  0  0  0  0  0  0  0  0
  190.2160  177.9690  144.6180 C   0  0  0  0  0  2  0  0  0  0  0  0
  190.4560  175.6200  144.7740 O   0  0  0  0  0  0  0  0  0  0  0  0
  191.6840  175.3030  142.7360 C   0  0  0  0  0  2  0  0  0  0  0  0
  192.6270  174.6760  143.7110 C   0  0  0  0  0  0  0  0  0  0  0  0
  193.5510  175.3610  144.2230 O   0  0  0  0  0  0  0  0  0  0  0  0
  192.4990  173.2980  144.0440 N   0  0  0  0  0  1  0  0  0  0  0  0
  189.8450  176.8100  146.7720 C   0  0  0  0  0  2  0  0  0  0  0  0
  189.0020  174.6020  147.5740 O   0  0  0  0  0  0  0  0  0  0  0  0
  191.1560  175.2530  148.0100 O   0  0  0  0  0  1  0  0  0  0  0  0
  190.0400  175.5220  147.4950 C   0  0  0  0  0  0  0  0  0  0  0  0
  189.2780  173.8810  142.3660 C   0  0  1  0  0  3  0  0  0  0  0  0
  189.0520  173.0610  143.4760 O   0  0  0  0  0  1  0  0  0  0  0  0
  187.2820  172.6830  141.7000 O   0  0  0  0  0  1  0  0  0  0  0  0
  188.3090  173.5150  141.2400 C   0  0  2  0  0  3  0  0  0  0  0  0
  189.0300  172.9100  140.0310 C   0  0  1  0  0  3  0  0  0  0  0  0
  189.1070  173.8900  138.8670 C   0  0  0  0  0  2  0  0  0  0  0  0
  187.8240  174.1670  138.3910 O   0  0  0  0  0  1  0  0  0  0  0  0
  190.4310  172.4520  140.4200 C   0  0  0  0  0  2  0  0  0  0  0  0
  190.5910  170.3690  141.7820 O   0  0  0  0  0  1  0  0  0  0  0  0
  190.4750  170.2560  139.4960 O   0  0  0  0  0  0  0  0  0  0  0  0
  190.4890  170.9670  140.5330 C   0  0  0  0  0  0  0  0  0  0  0  0
  188.8180  176.1320  141.6260 O   0  0  0  0  0  0  0  0  0  0  0  0
  186.9600  177.2000  140.5570 C   0  0  0  0  0  2  0  0  0  0  0  0
  186.9700  176.6970  143.0500 C   0  0  0  0  0  2  0  0  0  0  0  0
  185.6160  177.8310  140.9050 C   0  0  0  0  0  2  0  0  0  0  0  0
  185.6770  178.5740  142.2500 C   0  0  0  0  0  2  0  0  0  0  0  0
  186.8140  178.1540  143.0850 N   0  0  0  0  0  0  0  0  0  0  0  0
  187.4230  176.2370  141.6580 C   0  0  2  0  0  3  0  0  0  0  0  0
  186.6060  178.5960  144.4680 C   0  0  0  0  0  2  0  0  0  0  0  0
  185.2720  179.3140  144.6770 C   0  0  0  0  0  2  0  0  0  0  0  0
  184.8140  177.6640  146.0650 C   0  0  0  0  0  1  0  0  0  0  0  0
  184.8040  179.0540  145.9640 O   0  0  0  0  0  0  0  0  0  0  0  0
  1 26  1  6  0  0  0
  1  4  1  0  0  0  0
  2 11  1  1  0  0  0
  3  4  1  0  0  0  0
  3  5  1  0  0  0  0
  4  7  1  6  0  0  0
  4  6  1  0  0  0  0
  5  2  1  0  0  0  0
  6  2  1  0  0  0  0
  7  8  1  0  0  0  0
  8 10  1  0  0  0  0
  8  9  2  0  0  0  0
 11 14  1  0  0  0  0
 14 12  2  0  0  0  0
 14 13  1  0  0  0  0
 15  1  1  0  0  0  0
 15 16  1  1  0  0  0
 18 17  1  1  0  0  0
 18 15  1  0  0  0  0
 19 20  1  6  0  0  0
 19 22  1  0  0  0  0
 19 18  1  0  0  0  0
 21 20  1  0  0  0  0
 22 25  1  0  0  0  0
 24 25  2  0  0  0  0
 25 23  1  0  0  0  0
 27 29  1  0  0  0  0
 27 32  1  0  0  0  0
 28 31  1  0  0  0  0
 29 30  1  0  0  0  0
 30 31  1  0  0  0  0
 31 33  1  0  0  0  0
 32 26  1  1  0  0  0
 32 28  1  0  0  0  0
 33 34  1  0  0  0  0
 34 36  1  0  0  0  0
 36 35  1  0  0  0  0
M  END
>  <MODEL>
8

>  <REMARK>
 VINA RESULT:      -5.6      2.362      6.418
  Name = 
  16 active torsions:
  status: ('A' for Active; 'I' for Inactive)
    1  A    between atoms: C_1  and  C_12
    2  A    between atoms: C_1  and  C_30
    3  A    between atoms: C_2  and  C_11
    4  A    between atoms: C_5  and  C_10
    5  A    between atoms: C_6  and  C_26
    6  A    between atoms: C_6  and  N_31
    7  A    between atoms: C_10  and  C_36
    8  A    between atoms: C_11  and  C_21
    9  A    between atoms: C_12  and  C_24
   10  A    between atoms: O_18  and  C_26
   11  A    between atoms: C_20  and  C_34
   12  A    between atoms: C_21  and  C_30
   13  A    between atoms: O_23  and  C_30
   14  A    between atoms: O_23  and  C_32
   15  A    between atoms: C_24  and  C_33
   16  A    between atoms: C_24  and  C_34
                            x       y       z     vdW  Elec       q    Type
                         _______ _______ _______ _____ _____    ______ ____

>  <TORSDO>
F 16

$$$$
=
 OpenBabel11062422243D

 36 37  0  0  1  0  0  0  0  0999 V2000
  188.9130  175.3210  143.7770 C   0  0  2  0  0  3  0  0  0  0  0  0
  186.8250  177.4880  145.4240 C   0  0  2  0  0  3  0  0  0  0  0  0
  186.5290  176.1150  143.5570 C   0  0  0  0  0  2  0  0  0  0  0  0
  187.9810  176.5580  143.7020 C   0  0  1  0  0  0  0  0  0  0  0  0
  185.9270  176.4060  144.8910 C   0  0  0  0  0  2  0  0  0  0  0  0
  188.1170  177.3030  144.8960 O   0  0  0  0  0  0  0  0  0  0  0  0
  188.3960  177.4390  142.5150 C   0  0  0  0  0  2  0  0  0  0  0  0
  187.2440  177.8960  141.6800 C   0  0  0  0  0  0  0  0  0  0  0  0
  187.0680  177.4130  140.5300 O   0  0  0  0  0  0  0  0  0  0  0  0
  186.3570  178.8940  142.1710 N   0  0  0  0  0  1  0  0  0  0  0  0
  186.8600  177.4330  146.9400 C   0  0  0  0  0  2  0  0  0  0  0  0
  186.9810  179.4490  148.4060 O   0  0  0  0  0  1  0  0  0  0  0  0
  185.0940  179.0140  147.1800 O   0  0  0  0  0  0  0  0  0  0  0  0
  186.2550  178.6650  147.5190 C   0  0  0  0  0  0  0  0  0  0  0  0
  189.9950  175.4300  144.8730 C   0  0  1  0  0  3  0  0  0  0  0  0
  189.7360  174.5380  145.9180 O   0  0  0  0  0  1  0  0  0  0  0  0
  191.9330  173.9810  144.7860 O   0  0  0  0  0  1  0  0  0  0  0  0
  191.3950  175.1830  144.3100 C   0  0  2  0  0  3  0  0  0  0  0  0
  192.3370  176.3650  144.5630 C   0  0  1  0  0  3  0  0  0  0  0  0
  191.7010  177.6930  144.1680 C   0  0  0  0  0  2  0  0  0  0  0  0
  191.6870  177.8200  142.7790 O   0  0  0  0  0  1  0  0  0  0  0  0
  192.7610  176.4050  146.0260 C   0  0  0  0  0  2  0  0  0  0  0  0
  194.8570  177.7420  145.8260 O   0  0  0  0  0  0  0  0  0  0  0  0
  194.9350  175.5550  146.5060 O   0  0  0  0  0  1  0  0  0  0  0  0
  194.2410  176.5390  146.1440 C   0  0  0  0  0  0  0  0  0  0  0  0
  189.5170  175.1030  142.5290 O   0  0  0  0  0  0  0  0  0  0  0  0
  190.3220  172.9470  141.8650 C   0  0  0  0  0  2  0  0  0  0  0  0
  188.2040  173.9550  140.8810 C   0  0  0  0  0  2  0  0  0  0  0  0
  190.0000  171.8350  140.8720 C   0  0  0  0  0  2  0  0  0  0  0  0
  189.4820  172.4040  139.5410 C   0  0  0  0  0  2  0  0  0  0  0  0
  188.9970  173.7890  139.6600 N   0  0  0  0  0  0  0  0  0  0  0  0
  189.0950  173.8320  142.1240 C   0  0  2  0  0  3  0  0  0  0  0  0
  188.1840  174.1330  138.4900 C   0  0  0  0  0  2  0  0  0  0  0  0
  188.9020  173.8900  137.1620 C   0  0  0  0  0  2  0  0  0  0  0  0
  189.5710  174.7410  135.2420 C   0  0  0  0  0  1  0  0  0  0  0  0
  188.7790  175.0190  136.3550 O   0  0  0  0  0  0  0  0  0  0  0  0
  1 26  1  6  0  0  0
  1 15  1  0  0  0  0
  2 11  1  1  0  0  0
  3  4  1  0  0  0  0
  3  5  1  0  0  0  0
  4  7  1  6  0  0  0
  4  1  1  0  0  0  0
  4  6  1  0  0  0  0
  5  2  1  0  0  0  0
  6  2  1  0  0  0  0
  8 10  1  0  0  0  0
  8  7  1  0  0  0  0
  9  8  2  0  0  0  0
 11 14  1  0  0  0  0
 13 14  2  0  0  0  0
 14 12  1  0  0  0  0
 15 16  1  1  0  0  0
 18 19  1  0  0  0  0
 18 17  1  1  0  0  0
 18 15  1  0  0  0  0
 19 20  1  1  0  0  0
 19 22  1  0  0  0  0
 21 20  1  0  0  0  0
 22 25  1  0  0  0  0
 23 25  2  0  0  0  0
 25 24  1  0  0  0  0
 27 32  1  0  0  0  0
 28 32  1  0  0  0  0
 29 27  1  0  0  0  0
 30 31  1  0  0  0  0
 30 29  1  0  0  0  0
 31 28  1  0  0  0  0
 32 26  1  6  0  0  0
 33 31  1  0  0  0  0
 34 33  1  0  0  0  0
 35 36  1  0  0  0  0
 36 34  1  0  0  0  0
M  END
>  <MODEL>
9

>  <REMARK>
 VINA RESULT:      -5.6      2.081      5.541
  Name = 
  16 active torsions:
  status: ('A' for Active; 'I' for Inactive)
    1  A    between atoms: C_1  and  C_12
    2  A    between atoms: C_1  and  C_30
    3  A    between atoms: C_2  and  C_11
    4  A    between atoms: C_5  and  C_10
    5  A    between atoms: C_6  and  C_26
    6  A    between atoms: C_6  and  N_31
    7  A    between atoms: C_10  and  C_36
    8  A    between atoms: C_11  and  C_21
    9  A    between atoms: C_12  and  C_24
   10  A    between atoms: O_18  and  C_26
   11  A    between atoms: C_20  and  C_34
   12  A    between atoms: C_21  and  C_30
   13  A    between atoms: O_23  and  C_30
   14  A    between atoms: O_23  and  C_32
   15  A    between atoms: C_24  and  C_33
   16  A    between atoms: C_24  and  C_34
                            x       y       z     vdW  Elec       q    Type
                         _______ _______ _______ _____ _____    ______ ____

>  <TORSDO>
F 16

$$$$
