=
 OpenBabel11062422473D

 67 77  0  0  1  0  0  0  0  0999 V2000
  196.2940  177.5400  144.2340 C   0  0  0  0  0  2  0  0  0  0  0  0
  191.5820  174.1420  143.1670 C   0  0  2  0  0  3  0  0  0  0  0  0
  192.5910  175.2050  142.0790 S   0  0  0  0  0  0  0  0  0  0  0  0
  189.2740  175.4850  141.9600 C   0  0  2  0  0  3  0  0  0  0  0  0
  186.9370  175.4620  141.2970 O   0  0  0  0  0  1  0  0  0  0  0  0
  194.1390  174.7510  142.9330 C   0  0  0  0  0  2  0  0  0  0  0  0
  195.1520  177.0100  143.3720 C   0  0  0  0  0  2  0  0  0  0  0  0
  190.5070  173.3780  142.4370 C   0  0  0  0  0  0  0  0  0  0  0  0
  190.0430  171.4610  140.1340 C   0  0  0  0  0  0  0  0  0  0  0  0
  187.9770  176.6220  143.6760 O   0  0  0  0  0  0  0  0  0  0  0  0
  187.9810  177.5870  141.4220 C   0  0  0  0  0  2  0  0  0  0  0  0
  195.8090  178.2320  145.5050 C   0  0  0  0  0  2  0  0  0  0  0  0
  191.7710  174.2440  145.5830 C   0  0  2  0  0  3  0  0  0  0  0  0
  193.4610  176.0770  145.0460 C   0  0  2  0  0  3  0  0  0  0  0  0
  188.1590  176.1070  141.0810 C   0  0  1  0  0  3  0  0  0  0  0  0
  190.6160  171.8920  142.4990 C   0  0  0  0  0  2  0  0  0  0  0  0
  194.5680  175.7540  144.0080 C   0  0  1  0  0  3  0  0  0  0  0  0
  188.7860  172.1440  140.2630 N   0  0  0  0  0  0  0  0  0  0  0  0
  188.5200  173.2070  140.9690 C   0  0  0  0  0  3  0  0  0  0  0  0
  189.4720  173.9790  141.8150 C   0  0  0  0  0  0  0  0  0  0  0  0
  193.6230  177.2990  145.7390 O   0  0  0  0  0  0  0  0  0  0  0  0
  189.2340  176.0480  143.4090 C   0  0  1  0  0  3  0  0  0  0  0  0
  193.0440  173.6890  145.3210 O   0  0  0  0  0  0  0  0  0  0  0  0
  187.9400  177.8250  142.9430 C   0  0  0  0  0  2  0  0  0  0  0  0
  189.7150  175.0830  144.5180 C   0  0  1  0  0  3  0  0  0  0  0  0
  191.1750  174.8730  144.3840 N   0  0  2  0  0  0  0  0  0  0  0  0
  190.8920  171.3330  141.1530 C   0  0  0  0  0  3  0  0  0  0  0  0
  194.8980  177.3300  146.3300 C   0  0  0  0  0  2  0  0  0  0  0  0
  193.0490  174.9280  145.9910 C   0  0  2  0  0  3  0  0  0  0  0  0
  190.3710  170.5880  138.6520 S   0  0  0  0  0  0  0  0  0  0  0  0
  190.3480  169.1140  138.9320 O   0  0  0  0  0  0  0  0  0  0  0  0
  189.3160  170.9080  137.6310 O   0  0  0  0  0  0  0  0  0  0  0  0
  193.0230  170.4260  138.4270 C   0  0  0  0  0  3  0  0  0  0  0  0
  191.9330  171.0510  138.0040 C   0  0  0  0  0  3  0  0  0  0  0  0
  194.2780  170.8040  137.9700 O   0  0  0  0  0  0  0  0  0  0  0  0
  194.4420  172.0140  137.2300 C   0  0  1  0  0  3  0  0  0  0  0  0
  195.0840  175.1240  139.3750 C   0  0  0  0  0  3  0  0  0  0  0  0
  197.0290  175.7820  140.6420 O   0  0  0  0  0  1  0  0  0  0  0  0
  196.4060  172.8100  138.5420 C   0  0  0  0  0  3  0  0  0  0  0  0
  194.4300  174.2200  138.5310 C   0  0  0  0  0  0  0  0  0  0  0  0
  197.0530  173.7180  139.3840 C   0  0  0  0  0  3  0  0  0  0  0  0
  195.0930  173.0460  138.1110 C   0  0  0  0  0  0  0  0  0  0  0  0
  196.3900  174.8760  139.8030 C   0  0  0  0  0  0  0  0  0  0  0  0
  193.0360  174.5370  138.1050 C   0  0  0  0  0  1  0  0  0  0  0  0
  195.2040  171.8290  135.9750 N   0  0  0  0  0  0  0  0  0  0  0  0
  196.5270  170.0370  134.7870 C   0  0  0  0  0  2  0  0  0  0  0  0
  195.3350  170.3940  135.6780 C   0  0  0  0  0  3  0  0  0  0  0  0
  196.6400  169.8990  136.2940 C   0  0  0  0  0  2  0  0  0  0  0  0
  194.4090  172.4750  134.9220 C   0  0  0  0  0  2  0  0  0  0  0  0
  195.6340  176.4880  134.6110 N   0  0  0  0  0  0  0  0  0  0  0  0
  194.2390  176.1670  134.5550 C   0  0  0  0  0  3  0  0  0  0  0  0
  194.8330  173.8570  134.7650 N   0  0  0  0  0  0  0  0  0  0  0  0
  196.2300  174.1810  134.8210 C   0  0  0  0  0  3  0  0  0  0  0  0
  196.6200  175.4540  134.7470 C   0  0  0  0  0  3  0  0  0  0  0  0
  193.8510  174.8950  134.6310 C   0  0  0  0  0  3  0  0  0  0  0  0
  196.0520  177.8700  134.5140 C   0  0  0  0  0  1  0  0  0  0  0  0
  189.3280  175.5460  145.9470 C   0  0  1  0  0  3  0  0  0  0  0  0
  188.5370  174.3120  147.8710 O   0  0  0  0  0  1  0  0  0  0  0  0
  189.6500  174.5500  147.0650 C   0  0  0  0  0  2  0  0  0  0  0  0
  189.7410  176.9780  146.2640 C   0  0  0  0  0  2  0  0  0  0  0  0
  188.6770  177.6730  147.1090 C   0  0  0  0  0  2  0  0  0  0  0  0
  187.2730  177.2870  146.6670 C   0  0  0  0  0  2  0  0  0  0  0  0
  186.3590  178.2550  147.0780 O   0  0  0  0  0  0  0  0  0  0  0  0
  184.8890  177.7510  145.2740 C   0  0  1  0  0  3  0  0  0  0  0  0
  184.7620  179.1840  144.8000 C   0  0  0  0  0  2  0  0  0  0  0  0
  185.1040  177.7180  146.7770 C   0  0  2  0  0  3  0  0  0  0  0  0
  184.2070  178.7750  146.1510 C   0  0  2  0  0  3  0  0  0  0  0  0
  1 12  1  0  0  0  0
  2  3  1  6  0  0  0
  2 26  1  0  0  0  0
  3  6  1  0  0  0  0
  4 20  1  1  0  0  0
  4 22  1  0  0  0  0
  7 17  1  0  0  0  0
  7  1  1  0  0  0  0
  8 16  1  0  0  0  0
  8  2  1  0  0  0  0
  9 18  1  0  0  0  0
  9 27  2  0  0  0  0
 11 24  1  0  0  0  0
 12 28  1  0  0  0  0
 13 23  1  6  0  0  0
 13 29  1  0  0  0  0
 14 21  1  1  0  0  0
 14 29  1  0  0  0  0
 15  5  1  1  0  0  0
 15 11  1  0  0  0  0
 15  4  1  0  0  0  0
 17  6  1  6  0  0  0
 17 14  1  0  0  0  0
 18 19  2  0  0  0  0
 19 20  1  0  0  0  0
 20  8  2  0  0  0  0
 21 28  1  0  0  0  0
 22 10  1  1  0  0  0
 22 25  1  0  0  0  0
 23 29  1  0  0  0  0
 24 10  1  0  0  0  0
 25 57  1  1  0  0  0
 26 25  1  0  0  0  0
 26 13  1  0  0  0  0
 27 16  1  0  0  0  0
 30 31  2  0  0  0  0
 30  9  1  0  0  0  0
 32 30  2  0  0  0  0
 34 33  2  0  0  0  0
 34 30  1  0  0  0  0
 35 33  1  0  0  0  0
 36 35  1  0  0  0  0
 36 42  1  0  0  0  0
 37 43  1  0  0  0  0
 39 41  1  0  0  0  0
 40 37  2  0  0  0  0
 41 43  2  0  0  0  0
 42 40  1  0  0  0  0
 42 39  2  0  0  0  0
 43 38  1  0  0  0  0
 44 40  1  0  0  0  0
 45 36  1  0  0  0  0
 46 47  1  0  0  0  0
 46 48  1  0  0  0  0
 47 45  1  0  0  0  0
 47 48  1  0  0  0  0
 49 45  1  0  0  0  0
 50 54  1  0  0  0  0
 51 50  1  0  0  0  0
 51 55  2  0  0  0  0
 52 53  1  0  0  0  0
 52 49  1  0  0  0  0
 54 53  2  0  0  0  0
 55 52  1  0  0  0  0
 56 50  1  0  0  0  0
 57 60  1  0  0  0  0
 57 59  1  0  0  0  0
 59 58  1  0  0  0  0
 60 61  1  0  0  0  0
 62 63  1  0  0  0  0
 62 61  1  0  0  0  0
 64 67  1  0  0  0  0
 64 66  1  0  0  0  0
 65 64  1  0  0  0  0
 65 67  1  0  0  0  0
 66 63  1  0  0  0  0
 67 66  1  0  0  0  0
M  END
>  <MODEL>
1

>  <REMARK>
 VINA RESULT:      -6.0      0.000      0.000
  Name = 
  16 active torsions:
  status: ('A' for Active; 'I' for Inactive)
    1  A    between atoms: C_4  and  O_6
    2  A    between atoms: O_6  and  C_30
    3  A    between atoms: C_8  and  N_9
    4  A    between atoms: C_8  and  N_48
    5  A    between atoms: C_18  and  O_42
    6  A    between atoms: C_20  and  O_42
    7  A    between atoms: C_20  and  C_43
    8  A    between atoms: C_26  and  S_29
    9  A    between atoms: S_29  and  C_46
   10  A    between atoms: C_30  and  N_48
   11  A    between atoms: C_30  and  C_58
   12  A    between atoms: C_31  and  C_41
   13  A    between atoms: C_35  and  N_48
   14  A    between atoms: C_41  and  C_59
   15  A    between atoms: C_41  and  C_67
   16  A    between atoms: C_43  and  C_67
                            x       y       z     vdW  Elec       q    Type
                         _______ _______ _______ _____ _____    ______ ____

>  <TORSDO>
F 16

$$$$
=
 OpenBabel11062422473D

 67 77  0  0  1  0  0  0  0  0999 V2000
  196.1350  177.1700  144.2800 C   0  0  0  0  0  2  0  0  0  0  0  0
  191.3290  174.0540  142.8390 C   0  0  2  0  0  3  0  0  0  0  0  0
  192.3800  175.1930  141.8730 S   0  0  0  0  0  0  0  0  0  0  0  0
  189.0750  175.5880  141.7670 C   0  0  2  0  0  3  0  0  0  0  0  0
  186.7430  175.7090  141.0940 O   0  0  0  0  0  1  0  0  0  0  0  0
  193.9050  174.6030  142.6830 C   0  0  0  0  0  2  0  0  0  0  0  0
  194.9840  176.7700  143.3620 C   0  0  0  0  0  2  0  0  0  0  0  0
  190.2370  173.4040  142.0280 C   0  0  0  0  0  0  0  0  0  0  0  0
  189.7330  171.7550  139.5340 C   0  0  0  0  0  0  0  0  0  0  0  0
  187.7990  176.5800  143.5870 O   0  0  0  0  0  0  0  0  0  0  0  0
  187.8520  177.7750  141.4460 C   0  0  0  0  0  2  0  0  0  0  0  0
  195.6610  177.7410  145.6140 C   0  0  0  0  0  2  0  0  0  0  0  0
  191.5010  173.8960  145.2540 C   0  0  2  0  0  3  0  0  0  0  0  0
  193.2520  175.7210  144.9190 C   0  0  2  0  0  3  0  0  0  0  0  0
  187.9870  176.3340  140.9530 C   0  0  1  0  0  3  0  0  0  0  0  0
  190.2990  171.9180  141.9350 C   0  0  0  0  0  2  0  0  0  0  0  0
  194.3560  175.4730  143.8590 C   0  0  1  0  0  3  0  0  0  0  0  0
  188.4970  172.4600  139.7280 N   0  0  0  0  0  0  0  0  0  0  0  0
  188.2580  173.4510  140.5400 C   0  0  0  0  0  3  0  0  0  0  0  0
  189.2270  174.1000  141.4670 C   0  0  0  0  0  0  0  0  0  0  0  0
  193.4450  176.8580  145.7380 O   0  0  0  0  0  0  0  0  0  0  0  0
  189.0390  175.9980  143.2680 C   0  0  1  0  0  3  0  0  0  0  0  0
  192.7590  173.3320  144.9410 O   0  0  0  0  0  0  0  0  0  0  0  0
  187.8050  177.8540  142.9840 C   0  0  0  0  0  2  0  0  0  0  0  0
  189.4810  174.9080  144.2720 C   0  0  1  0  0  3  0  0  0  0  0  0
  190.9350  174.6660  144.1240 N   0  0  2  0  0  0  0  0  0  0  0  0
  190.5690  171.4940  140.5380 C   0  0  0  0  0  3  0  0  0  0  0  0
  194.7160  176.7870  146.3350 C   0  0  0  0  0  2  0  0  0  0  0  0
  192.7960  174.4930  145.7370 C   0  0  2  0  0  3  0  0  0  0  0  0
  190.0470  171.0310  137.9710 S   0  0  0  0  0  0  0  0  0  0  0  0
  189.3890  169.6830  137.9100 O   0  0  0  0  0  0  0  0  0  0  0  0
  189.4770  171.9020  136.8860 O   0  0  0  0  0  0  0  0  0  0  0  0
  192.3270  169.6660  137.7610 C   0  0  0  0  0  3  0  0  0  0  0  0
  191.7720  170.8700  137.7090 C   0  0  0  0  0  3  0  0  0  0  0  0
  193.6980  169.5120  137.6060 O   0  0  0  0  0  0  0  0  0  0  0  0
  194.6030  170.3720  138.2990 C   0  0  1  0  0  3  0  0  0  0  0  0
  194.1280  171.2960  141.9880 C   0  0  0  0  0  3  0  0  0  0  0  0
  193.3930  169.9600  143.8580 O   0  0  0  0  0  1  0  0  0  0  0  0
  193.8920  169.0790  140.3070 C   0  0  0  0  0  3  0  0  0  0  0  0
  194.4390  171.4210  140.6300 C   0  0  0  0  0  0  0  0  0  0  0  0
  193.5830  168.9610  141.6650 C   0  0  0  0  0  3  0  0  0  0  0  0
  194.3170  170.3040  139.7750 C   0  0  0  0  0  0  0  0  0  0  0  0
  193.7000  170.0710  142.5060 C   0  0  0  0  0  0  0  0  0  0  0  0
  194.8940  172.7520  140.1320 C   0  0  0  0  0  1  0  0  0  0  0  0
  196.0240  170.0670  138.0190 N   0  0  0  0  0  0  0  0  0  0  0  0
  197.6670  168.1660  137.7840 C   0  0  0  0  0  2  0  0  0  0  0  0
  196.2730  168.6300  138.2110 C   0  0  0  0  0  3  0  0  0  0  0  0
  197.3850  168.4740  139.2430 C   0  0  0  0  0  2  0  0  0  0  0  0
  196.2400  170.4170  136.6080 C   0  0  0  0  0  2  0  0  0  0  0  0
  196.9160  174.5420  136.1380 N   0  0  0  0  0  0  0  0  0  0  0  0
  197.6680  173.8080  137.1120 C   0  0  0  0  0  3  0  0  0  0  0  0
  196.4400  171.8510  136.4820 N   0  0  0  0  0  0  0  0  0  0  0  0
  195.6880  172.5890  135.5070 C   0  0  0  0  0  3  0  0  0  0  0  0
  195.9170  173.8920  135.3400 C   0  0  0  0  0  3  0  0  0  0  0  0
  197.4390  172.5060  137.2770 C   0  0  0  0  0  3  0  0  0  0  0  0
  197.1570  175.9600  135.9720 C   0  0  0  0  0  1  0  0  0  0  0  0
  189.0960  175.2300  145.7390 C   0  0  1  0  0  3  0  0  0  0  0  0
  189.0500  174.4170  148.0160 O   0  0  0  0  0  1  0  0  0  0  0  0
  189.0380  174.0230  146.6790 C   0  0  0  0  0  2  0  0  0  0  0  0
  189.8400  176.4260  146.3230 C   0  0  0  0  0  2  0  0  0  0  0  0
  188.8640  177.5320  146.7110 C   0  0  0  0  0  2  0  0  0  0  0  0
  187.4410  177.0060  146.8270 C   0  0  0  0  0  2  0  0  0  0  0  0
  186.5330  178.0600  146.7440 O   0  0  0  0  0  0  0  0  0  0  0  0
  184.8470  177.7340  145.0940 C   0  0  1  0  0  3  0  0  0  0  0  0
  184.5320  179.2060  144.9300 C   0  0  0  0  0  2  0  0  0  0  0  0
  185.2940  177.4530  146.5180 C   0  0  2  0  0  3  0  0  0  0  0  0
  184.2280  178.5010  146.2390 C   0  0  2  0  0  3  0  0  0  0  0  0
  1 12  1  0  0  0  0
  2  3  1  6  0  0  0
  2 26  1  0  0  0  0
  3  6  1  0  0  0  0
  4 20  1  1  0  0  0
  4 22  1  0  0  0  0
  7 17  1  0  0  0  0
  7  1  1  0  0  0  0
  8  2  1  0  0  0  0
  9 18  1  0  0  0  0
  9 27  2  0  0  0  0
 11 24  1  0  0  0  0
 12 28  1  0  0  0  0
 13 23  1  6  0  0  0
 13 29  1  0  0  0  0
 14 29  1  0  0  0  0
 14 21  1  1  0  0  0
 15  5  1  1  0  0  0
 15 11  1  0  0  0  0
 15  4  1  0  0  0  0
 16  8  1  0  0  0  0
 17  6  1  6  0  0  0
 17 14  1  0  0  0  0
 18 19  2  0  0  0  0
 19 20  1  0  0  0  0
 20  8  2  0  0  0  0
 21 28  1  0  0  0  0
 22 10  1  1  0  0  0
 22 25  1  0  0  0  0
 23 29  1  0  0  0  0
 24 10  1  0  0  0  0
 25 57  1  1  0  0  0
 26 25  1  0  0  0  0
 26 13  1  0  0  0  0
 27 16  1  0  0  0  0
 30  9  1  0  0  0  0
 31 30  2  0  0  0  0
 32 30  2  0  0  0  0
 34 33  2  0  0  0  0
 34 30  1  0  0  0  0
 35 33  1  0  0  0  0
 35 36  1  0  0  0  0
 36 42  1  0  0  0  0
 37 43  1  0  0  0  0
 39 41  1  0  0  0  0
 40 37  2  0  0  0  0
 41 43  2  0  0  0  0
 42 39  2  0  0  0  0
 42 40  1  0  0  0  0
 43 38  1  0  0  0  0
 44 40  1  0  0  0  0
 45 47  1  0  0  0  0
 45 36  1  0  0  0  0
 46 47  1  0  0  0  0
 46 48  1  0  0  0  0
 47 48  1  0  0  0  0
 49 45  1  0  0  0  0
 50 51  1  0  0  0  0
 51 55  2  0  0  0  0
 52 49  1  0  0  0  0
 52 55  1  0  0  0  0
 53 52  1  0  0  0  0
 54 53  2  0  0  0  0
 54 50  1  0  0  0  0
 56 50  1  0  0  0  0
 57 60  1  0  0  0  0
 57 59  1  0  0  0  0
 59 58  1  0  0  0  0
 60 61  1  0  0  0  0
 61 62  1  0  0  0  0
 63 62  1  0  0  0  0
 64 67  1  0  0  0  0
 64 66  1  0  0  0  0
 65 64  1  0  0  0  0
 65 67  1  0  0  0  0
 66 63  1  0  0  0  0
 67 66  1  0  0  0  0
M  END
>  <MODEL>
2

>  <REMARK>
 VINA RESULT:      -5.6      1.497      2.350
  Name = 
  16 active torsions:
  status: ('A' for Active; 'I' for Inactive)
    1  A    between atoms: C_4  and  O_6
    2  A    between atoms: O_6  and  C_30
    3  A    between atoms: C_8  and  N_9
    4  A    between atoms: C_8  and  N_48
    5  A    between atoms: C_18  and  O_42
    6  A    between atoms: C_20  and  O_42
    7  A    between atoms: C_20  and  C_43
    8  A    between atoms: C_26  and  S_29
    9  A    between atoms: S_29  and  C_46
   10  A    between atoms: C_30  and  N_48
   11  A    between atoms: C_30  and  C_58
   12  A    between atoms: C_31  and  C_41
   13  A    between atoms: C_35  and  N_48
   14  A    between atoms: C_41  and  C_59
   15  A    between atoms: C_41  and  C_67
   16  A    between atoms: C_43  and  C_67
                            x       y       z     vdW  Elec       q    Type
                         _______ _______ _______ _____ _____    ______ ____

>  <TORSDO>
F 16

$$$$
=
 OpenBabel11062422473D

 67 77  0  0  1  0  0  0  0  0999 V2000
  187.7010  175.4010  136.8560 C   0  0  0  0  0  2  0  0  0  0  0  0
  192.1630  171.8940  138.4940 C   0  0  2  0  0  3  0  0  0  0  0  0
  191.3800  173.3320  139.3030 S   0  0  0  0  0  0  0  0  0  0  0  0
  194.7020  173.2320  139.0810 C   0  0  2  0  0  3  0  0  0  0  0  0
  197.0860  173.1130  139.5400 O   0  0  0  0  0  1  0  0  0  0  0  0
  189.7140  172.8480  138.7380 C   0  0  0  0  0  2  0  0  0  0  0  0
  188.8750  175.0000  137.7440 C   0  0  0  0  0  2  0  0  0  0  0  0
  193.2340  171.2400  139.3290 C   0  0  0  0  0  0  0  0  0  0  0  0
  193.7630  170.0000  142.0450 C   0  0  0  0  0  0  0  0  0  0  0  0
  195.9070  173.6800  137.0150 O   0  0  0  0  0  0  0  0  0  0  0  0
  196.2370  175.2290  138.8870 C   0  0  0  0  0  2  0  0  0  0  0  0
  188.1090  175.6480  135.4060 C   0  0  0  0  0  2  0  0  0  0  0  0
  191.7240  171.3400  136.1740 C   0  0  2  0  0  3  0  0  0  0  0  0
  190.2810  173.4400  136.2870 C   0  0  2  0  0  3  0  0  0  0  0  0
  195.9590  173.9360  139.6540 C   0  0  1  0  0  3  0  0  0  0  0  0
  192.9800  169.8200  139.7070 C   0  0  0  0  0  2  0  0  0  0  0  0
  189.2670  173.5550  137.4560 C   0  0  1  0  0  3  0  0  0  0  0  0
  195.0560  170.4630  141.6280 N   0  0  0  0  0  0  0  0  0  0  0  0
  195.3430  171.2470  140.6260 C   0  0  0  0  0  3  0  0  0  0  0  0
  194.3810  171.8610  139.6700 C   0  0  0  0  0  0  0  0  0  0  0  0
  190.1600  174.4300  135.2840 O   0  0  0  0  0  0  0  0  0  0  0  0
  194.6390  173.3590  137.5320 C   0  0  1  0  0  3  0  0  0  0  0  0
  190.4400  171.0380  136.6820 O   0  0  0  0  0  0  0  0  0  0  0  0
  196.1360  175.0270  137.3630 C   0  0  0  0  0  2  0  0  0  0  0  0
  193.9520  172.1890  136.7900 C   0  0  1  0  0  3  0  0  0  0  0  0
  192.5020  172.2020  137.0900 N   0  0  2  0  0  0  0  0  0  0  0  0
  192.8000  169.6960  141.1750 C   0  0  0  0  0  3  0  0  0  0  0  0
  188.8370  174.4490  134.8100 C   0  0  0  0  0  2  0  0  0  0  0  0
  190.4790  172.0320  135.6850 C   0  0  2  0  0  3  0  0  0  0  0  0
  193.5160  169.6200  143.7370 S   0  0  0  0  0  0  0  0  0  0  0  0
  192.2210  168.8780  143.8920 O   0  0  0  0  0  0  0  0  0  0  0  0
  194.6400  168.7520  144.2300 O   0  0  0  0  0  0  0  0  0  0  0  0
  192.5550  172.0030  144.4500 C   0  0  0  0  0  3  0  0  0  0  0  0
  193.4840  171.0880  144.6930 C   0  0  0  0  0  3  0  0  0  0  0  0
  192.5350  173.1970  145.1570 O   0  0  0  0  0  0  0  0  0  0  0  0
  191.3740  174.0280  145.1380 C   0  0  1  0  0  3  0  0  0  0  0  0
  190.6190  176.2250  148.1850 C   0  0  0  0  0  3  0  0  0  0  0  0
  191.9760  177.8800  149.3010 O   0  0  0  0  0  1  0  0  0  0  0  0
  192.6700  175.7810  146.3440 C   0  0  0  0  0  3  0  0  0  0  0  0
  190.4430  175.2810  147.1690 C   0  0  0  0  0  0  0  0  0  0  0  0
  192.8390  176.7230  147.3620 C   0  0  0  0  0  3  0  0  0  0  0  0
  191.4800  175.0490  146.2380 C   0  0  0  0  0  0  0  0  0  0  0  0
  191.8130  176.9440  148.2850 C   0  0  0  0  0  0  0  0  0  0  0  0
  189.1480  174.5440  147.1090 C   0  0  0  0  0  1  0  0  0  0  0  0
  191.1460  174.6780  143.8280 N   0  0  0  0  0  0  0  0  0  0  0  0
  192.6630  175.4610  141.9690 C   0  0  0  0  0  2  0  0  0  0  0  0
  192.2330  174.3260  142.9010 C   0  0  0  0  0  3  0  0  0  0  0  0
  193.4440  175.1880  143.2410 C   0  0  0  0  0  2  0  0  0  0  0  0
  189.8780  174.1340  143.3230 C   0  0  0  0  0  2  0  0  0  0  0  0
  187.2090  177.1930  142.2190 N   0  0  0  0  0  0  0  0  0  0  0  0
  187.8210  176.3870  141.2050 C   0  0  0  0  0  3  0  0  0  0  0  0
  188.9950  175.2220  142.9380 N   0  0  0  0  0  0  0  0  0  0  0  0
  188.3800  176.0310  143.9520 C   0  0  0  0  0  3  0  0  0  0  0  0
  187.5160  176.9850  143.6060 C   0  0  0  0  0  3  0  0  0  0  0  0
  188.6840  175.4330  141.5520 C   0  0  0  0  0  3  0  0  0  0  0  0
  186.2830  178.2380  141.8370 C   0  0  0  0  0  1  0  0  0  0  0  0
  194.2240  172.1850  135.2630 C   0  0  1  0  0  3  0  0  0  0  0  0
  193.3750  174.3570  134.6210 O   0  0  0  0  0  1  0  0  0  0  0  0
  194.5170  173.5570  134.6480 C   0  0  0  0  0  2  0  0  0  0  0  0
  195.1880  171.0930  134.8120 C   0  0  0  0  0  2  0  0  0  0  0  0
  194.4460  169.7810  134.5770 C   0  0  0  0  0  2  0  0  0  0  0  0
  195.2800  168.5830  135.0040 C   0  0  0  0  0  2  0  0  0  0  0  0
  196.5860  168.9830  135.2800 O   0  0  0  0  0  0  0  0  0  0  0  0
  196.4740  169.1210  137.6540 C   0  0  1  0  0  3  0  0  0  0  0  0
  197.2820  170.3980  137.7530 C   0  0  0  0  0  2  0  0  0  0  0  0
  196.9300  168.3080  136.4550 C   0  0  2  0  0  3  0  0  0  0  0  0
  197.9330  169.1190  137.2620 C   0  0  2  0  0  3  0  0  0  0  0  0
  1  7  1  0  0  0  0
  2  3  1  1  0  0  0
  2  8  1  0  0  0  0
  4 15  1  0  0  0  0
  4 20  1  6  0  0  0
  6  3  1  0  0  0  0
  8 20  2  0  0  0  0
  8 16  1  0  0  0  0
  9 30  1  0  0  0  0
 10 24  1  0  0  0  0
 11 15  1  0  0  0  0
 12  1  1  0  0  0  0
 13 23  1  1  0  0  0
 13 26  1  0  0  0  0
 14 21  1  6  0  0  0
 14 17  1  0  0  0  0
 15  5  1  6  0  0  0
 16 27  1  0  0  0  0
 17  7  1  1  0  0  0
 17  6  1  0  0  0  0
 18  9  1  0  0  0  0
 19 18  2  0  0  0  0
 20 19  1  0  0  0  0
 22 10  1  6  0  0  0
 22  4  1  0  0  0  0
 24 11  1  0  0  0  0
 25 57  1  6  0  0  0
 25 26  1  0  0  0  0
 25 22  1  0  0  0  0
 26  2  1  0  0  0  0
 27  9  2  0  0  0  0
 28 21  1  0  0  0  0
 28 12  1  0  0  0  0
 29 13  1  0  0  0  0
 29 14  1  0  0  0  0
 29 23  1  0  0  0  0
 30 31  2  0  0  0  0
 30 32  2  0  0  0  0
 30 34  1  0  0  0  0
 33 34  2  0  0  0  0
 33 35  1  0  0  0  0
 36 35  1  0  0  0  0
 36 42  1  0  0  0  0
 37 43  1  0  0  0  0
 39 41  1  0  0  0  0
 40 37  2  0  0  0  0
 41 43  2  0  0  0  0
 42 39  2  0  0  0  0
 42 40  1  0  0  0  0
 43 38  1  0  0  0  0
 44 40  1  0  0  0  0
 45 36  1  0  0  0  0
 46 47  1  0  0  0  0
 46 48  1  0  0  0  0
 47 48  1  0  0  0  0
 47 45  1  0  0  0  0
 49 45  1  0  0  0  0
 50 54  1  0  0  0  0
 51 55  2  0  0  0  0
 51 50  1  0  0  0  0
 52 49  1  0  0  0  0
 52 53  1  0  0  0  0
 54 53  2  0  0  0  0
 55 52  1  0  0  0  0
 56 50  1  0  0  0  0
 58 59  1  0  0  0  0
 59 57  1  0  0  0  0
 60 57  1  0  0  0  0
 61 60  1  0  0  0  0
 61 62  1  0  0  0  0
 62 63  1  0  0  0  0
 63 66  1  0  0  0  0
 64 65  1  0  0  0  0
 66 67  1  0  0  0  0
 66 64  1  0  0  0  0
 67 64  1  0  0  0  0
 67 65  1  0  0  0  0
M  END
>  <MODEL>
3

>  <REMARK>
 VINA RESULT:      -5.2      2.784     10.514
  Name = 
  16 active torsions:
  status: ('A' for Active; 'I' for Inactive)
    1  A    between atoms: C_4  and  O_6
    2  A    between atoms: O_6  and  C_30
    3  A    between atoms: C_8  and  N_9
    4  A    between atoms: C_8  and  N_48
    5  A    between atoms: C_18  and  O_42
    6  A    between atoms: C_20  and  O_42
    7  A    between atoms: C_20  and  C_43
    8  A    between atoms: C_26  and  S_29
    9  A    between atoms: S_29  and  C_46
   10  A    between atoms: C_30  and  N_48
   11  A    between atoms: C_30  and  C_58
   12  A    between atoms: C_31  and  C_41
   13  A    between atoms: C_35  and  N_48
   14  A    between atoms: C_41  and  C_59
   15  A    between atoms: C_41  and  C_67
   16  A    between atoms: C_43  and  C_67
                            x       y       z     vdW  Elec       q    Type
                         _______ _______ _______ _____ _____    ______ ____

>  <TORSDO>
F 16

$$$$
=
 OpenBabel11062422473D

 67 77  0  0  1  0  0  0  0  0999 V2000
  185.4900  178.6650  142.3250 C   0  0  0  0  0  2  0  0  0  0  0  0
  190.8450  176.2450  142.9150 C   0  0  2  0  0  3  0  0  0  0  0  0
  189.5040  175.9630  141.7080 S   0  0  0  0  0  0  0  0  0  0  0  0
  190.9170  173.3280  143.1760 C   0  0  2  0  0  3  0  0  0  0  0  0
  192.1450  171.2890  143.6670 O   0  0  0  0  0  1  0  0  0  0  0  0
  189.0670  177.7330  141.6550 C   0  0  0  0  0  2  0  0  0  0  0  0
  186.5770  177.6470  141.9990 C   0  0  0  0  0  2  0  0  0  0  0  0
  192.0930  175.4500  142.6290 C   0  0  0  0  0  0  0  0  0  0  0  0
  194.1510  174.8690  140.4780 C   0  0  0  0  0  0  0  0  0  0  0  0
  190.4500  172.6840  145.4760 O   0  0  0  0  0  0  0  0  0  0  0  0
  189.7790  171.1340  143.6990 C   0  0  0  0  0  2  0  0  0  0  0  0
  185.0380  178.6090  143.7810 C   0  0  0  0  0  2  0  0  0  0  0  0
  190.4860  177.5210  144.9460 C   0  0  2  0  0  3  0  0  0  0  0  0
  188.1010  177.6530  144.0510 C   0  0  2  0  0  3  0  0  0  0  0  0
  190.9960  171.7850  143.0410 C   0  0  1  0  0  3  0  0  0  0  0  0
  193.3190  176.2510  142.3520 C   0  0  0  0  0  2  0  0  0  0  0  0
  187.9070  178.1110  142.5810 C   0  0  1  0  0  3  0  0  0  0  0  0
  194.1740  173.6880  141.2950 N   0  0  0  0  0  0  0  0  0  0  0  0
  193.3350  173.3440  142.2310 C   0  0  0  0  0  3  0  0  0  0  0  0
  192.1320  174.1020  142.6750 C   0  0  0  0  0  0  0  0  0  0  0  0
  186.9120  177.5450  144.8100 O   0  0  0  0  0  0  0  0  0  0  0  0
  190.3430  173.7460  144.5610 C   0  0  1  0  0  3  0  0  0  0  0  0
  190.3530  178.5900  144.0300 O   0  0  0  0  0  0  0  0  0  0  0  0
  189.4810  171.7380  145.0840 C   0  0  0  0  0  2  0  0  0  0  0  0
  190.8570  175.0930  145.1200 C   0  0  1  0  0  3  0  0  0  0  0  0
  190.3250  176.2020  144.2960 N   0  0  2  0  0  0  0  0  0  0  0  0
  193.7660  176.0540  140.9500 C   0  0  0  0  0  3  0  0  0  0  0  0
  186.2100  178.7600  144.7450 C   0  0  0  0  0  2  0  0  0  0  0  0
  189.2300  178.3460  144.8440 C   0  0  2  0  0  3  0  0  0  0  0  0
  194.8520  174.7910  138.8760 S   0  0  0  0  0  0  0  0  0  0  0  0
  193.8580  175.3030  137.8760 O   0  0  0  0  0  0  0  0  0  0  0  0
  196.0860  175.6490  138.8220 O   0  0  0  0  0  0  0  0  0  0  0  0
  194.4860  172.4050  137.7450 C   0  0  0  0  0  3  0  0  0  0  0  0
  195.3020  173.1430  138.4860 C   0  0  0  0  0  3  0  0  0  0  0  0
  194.7910  171.0810  137.4610 O   0  0  0  0  0  0  0  0  0  0  0  0
  193.8750  170.0400  137.8030 C   0  0  1  0  0  3  0  0  0  0  0  0
  195.5390  168.2620  140.7620 C   0  0  0  0  0  3  0  0  0  0  0  0
  195.0000  168.2910  143.1140 O   0  0  0  0  0  1  0  0  0  0  0  0
  193.3880  169.9670  140.2460 C   0  0  0  0  0  3  0  0  0  0  0  0
  195.2790  168.6690  139.4500 C   0  0  0  0  0  0  0  0  0  0  0  0
  193.6540  169.5550  141.5540 C   0  0  0  0  0  3  0  0  0  0  0  0
  194.1950  169.5350  139.1840 C   0  0  0  0  0  0  0  0  0  0  0  0
  194.7310  168.7030  141.8130 C   0  0  0  0  0  0  0  0  0  0  0  0
  196.1730  168.1660  138.3670 C   0  0  0  0  0  1  0  0  0  0  0  0
  192.4580  170.4560  137.7040 N   0  0  0  0  0  0  0  0  0  0  0  0
  190.5110  169.2140  136.6850 C   0  0  0  0  0  2  0  0  0  0  0  0
  191.5860  169.2730  137.7730 C   0  0  0  0  0  3  0  0  0  0  0  0
  191.8080  168.4450  136.5120 C   0  0  0  0  0  2  0  0  0  0  0  0
  192.2090  171.3160  138.8690 C   0  0  0  0  0  2  0  0  0  0  0  0
  188.9360  173.8730  138.1990 N   0  0  0  0  0  0  0  0  0  0  0  0
  189.0140  173.1270  139.4200 C   0  0  0  0  0  3  0  0  0  0  0  0
  191.0530  172.1610  138.6180 N   0  0  0  0  0  0  0  0  0  0  0  0
  190.9730  172.9100  137.3960 C   0  0  0  0  0  3  0  0  0  0  0  0
  189.9490  173.7390  137.1920 C   0  0  0  0  0  3  0  0  0  0  0  0
  190.0380  172.3000  139.6230 C   0  0  0  0  0  3  0  0  0  0  0  0
  187.8140  174.7600  137.9750 C   0  0  0  0  0  1  0  0  0  0  0  0
  190.5440  175.2930  146.6270 C   0  0  1  0  0  3  0  0  0  0  0  0
  188.1800  175.3960  147.1250 O   0  0  0  0  0  1  0  0  0  0  0  0
  189.2980  174.5630  147.1370 C   0  0  0  0  0  2  0  0  0  0  0  0
  191.7590  175.1380  147.5340 C   0  0  0  0  0  2  0  0  0  0  0  0
  192.6280  176.3920  147.4930 C   0  0  0  0  0  2  0  0  0  0  0  0
  193.7860  176.2370  146.5190 C   0  0  0  0  0  2  0  0  0  0  0  0
  194.2990  174.9430  146.5870 O   0  0  0  0  0  0  0  0  0  0  0  0
  195.4810  173.3260  145.2990 C   0  0  1  0  0  3  0  0  0  0  0  0
  196.7180  173.3360  146.1730 C   0  0  0  0  0  2  0  0  0  0  0  0
  194.8220  174.6950  145.3140 C   0  0  2  0  0  3  0  0  0  0  0  0
  196.3370  174.5690  145.3750 C   0  0  2  0  0  3  0  0  0  0  0  0
  1 12  1  0  0  0  0
  2  3  1  6  0  0  0
  2 26  1  0  0  0  0
  4 20  1  1  0  0  0
  4 22  1  0  0  0  0
  6  3  1  0  0  0  0
  7  1  1  0  0  0  0
  7 17  1  0  0  0  0
  8 20  2  0  0  0  0
  8  2  1  0  0  0  0
  9 27  2  0  0  0  0
  9 18  1  0  0  0  0
 11 24  1  0  0  0  0
 12 28  1  0  0  0  0
 13 23  1  6  0  0  0
 14 21  1  1  0  0  0
 14 29  1  0  0  0  0
 15  4  1  0  0  0  0
 15  5  1  1  0  0  0
 15 11  1  0  0  0  0
 16  8  1  0  0  0  0
 17  6  1  6  0  0  0
 17 14  1  0  0  0  0
 18 19  2  0  0  0  0
 19 20  1  0  0  0  0
 22 25  1  0  0  0  0
 22 10  1  1  0  0  0
 23 29  1  0  0  0  0
 24 10  1  0  0  0  0
 25 57  1  1  0  0  0
 26 13  1  0  0  0  0
 26 25  1  0  0  0  0
 27 16  1  0  0  0  0
 28 21  1  0  0  0  0
 29 13  1  0  0  0  0
 30  9  1  0  0  0  0
 31 30  2  0  0  0  0
 32 30  2  0  0  0  0
 33 34  2  0  0  0  0
 34 30  1  0  0  0  0
 35 33  1  0  0  0  0
 35 36  1  0  0  0  0
 36 42  1  0  0  0  0
 37 43  1  0  0  0  0
 39 41  1  0  0  0  0
 40 37  2  0  0  0  0
 41 43  2  0  0  0  0
 42 40  1  0  0  0  0
 42 39  2  0  0  0  0
 43 38  1  0  0  0  0
 44 40  1  0  0  0  0
 45 47  1  0  0  0  0
 45 36  1  0  0  0  0
 45 49  1  0  0  0  0
 46 47  1  0  0  0  0
 48 46  1  0  0  0  0
 48 47  1  0  0  0  0
 50 51  1  0  0  0  0
 51 55  2  0  0  0  0
 52 49  1  0  0  0  0
 52 55  1  0  0  0  0
 53 52  1  0  0  0  0
 54 53  2  0  0  0  0
 54 50  1  0  0  0  0
 56 50  1  0  0  0  0
 57 59  1  0  0  0  0
 57 60  1  0  0  0  0
 58 59  1  0  0  0  0
 61 60  1  0  0  0  0
 62 63  1  0  0  0  0
 62 61  1  0  0  0  0
 64 66  1  0  0  0  0
 64 67  1  0  0  0  0
 64 65  1  0  0  0  0
 66 67  1  0  0  0  0
 66 63  1  0  0  0  0
 67 65  1  0  0  0  0
M  END
>  <MODEL>
4

>  <REMARK>
 VINA RESULT:      -4.7      2.812      6.418
  Name = 
  16 active torsions:
  status: ('A' for Active; 'I' for Inactive)
    1  A    between atoms: C_4  and  O_6
    2  A    between atoms: O_6  and  C_30
    3  A    between atoms: C_8  and  N_9
    4  A    between atoms: C_8  and  N_48
    5  A    between atoms: C_18  and  O_42
    6  A    between atoms: C_20  and  O_42
    7  A    between atoms: C_20  and  C_43
    8  A    between atoms: C_26  and  S_29
    9  A    between atoms: S_29  and  C_46
   10  A    between atoms: C_30  and  N_48
   11  A    between atoms: C_30  and  C_58
   12  A    between atoms: C_31  and  C_41
   13  A    between atoms: C_35  and  N_48
   14  A    between atoms: C_41  and  C_59
   15  A    between atoms: C_41  and  C_67
   16  A    between atoms: C_43  and  C_67
                            x       y       z     vdW  Elec       q    Type
                         _______ _______ _______ _____ _____    ______ ____

>  <TORSDO>
F 16

$$$$
=
 OpenBabel11062422473D

 67 77  0  0  1  0  0  0  0  0999 V2000
  187.5810  176.8520  144.0980 C   0  0  0  0  0  2  0  0  0  0  0  0
  192.9900  175.4070  142.2170 C   0  0  2  0  0  3  0  0  0  0  0  0
  191.3280  174.8850  141.6700 S   0  0  0  0  0  0  0  0  0  0  0  0
  193.6360  172.5490  142.2280 C   0  0  2  0  0  3  0  0  0  0  0  0
  195.2670  170.7600  142.0200 O   0  0  0  0  0  1  0  0  0  0  0  0
  190.6310  176.5520  141.9250 C   0  0  0  0  0  2  0  0  0  0  0  0
  188.5750  176.0350  143.2780 C   0  0  0  0  0  2  0  0  0  0  0  0
  194.1080  174.8390  141.3800 C   0  0  0  0  0  0  0  0  0  0  0  0
  195.1170  174.6070  138.5300 C   0  0  0  0  0  0  0  0  0  0  0  0
  194.3040  171.8530  144.4620 O   0  0  0  0  0  0  0  0  0  0  0  0
  193.1990  170.1950  143.0330 C   0  0  0  0  0  2  0  0  0  0  0  0
  187.8090  176.7290  145.6020 C   0  0  0  0  0  2  0  0  0  0  0  0
  193.3300  176.6180  144.2910 C   0  0  2  0  0  3  0  0  0  0  0  0
  190.8050  176.3250  144.4930 C   0  0  2  0  0  3  0  0  0  0  0  0
  193.8970  171.0430  141.9700 C   0  0  1  0  0  3  0  0  0  0  0  0
  194.9530  175.8390  140.6670 C   0  0  0  0  0  2  0  0  0  0  0  0
  189.9320  176.7290  143.2760 C   0  0  1  0  0  3  0  0  0  0  0  0
  195.6760  173.4560  139.1800 N   0  0  0  0  0  0  0  0  0  0  0  0
  195.3830  172.9790  140.3570 C   0  0  0  0  0  3  0  0  0  0  0  0
  194.3800  173.5190  141.3160 C   0  0  0  0  0  0  0  0  0  0  0  0
  190.0880  176.0170  145.6730 O   0  0  0  0  0  0  0  0  0  0  0  0
  193.6480  172.8730  143.7500 C   0  0  1  0  0  3  0  0  0  0  0  0
  192.6490  177.6390  143.5900 O   0  0  0  0  0  0  0  0  0  0  0  0
  193.4270  170.7500  144.4520 C   0  0  0  0  0  2  0  0  0  0  0  0
  194.1270  174.2930  144.1300 C   0  0  1  0  0  3  0  0  0  0  0  0
  193.1230  175.2860  143.6830 N   0  0  2  0  0  0  0  0  0  0  0  0
  194.7840  175.7110  139.1980 C   0  0  0  0  0  3  0  0  0  0  0  0
  189.2380  177.0900  145.9910 C   0  0  0  0  0  2  0  0  0  0  0  0
  192.0360  177.2100  144.7820 C   0  0  2  0  0  3  0  0  0  0  0  0
  195.0720  174.6400  136.7790 S   0  0  0  0  0  0  0  0  0  0  0  0
  195.4430  176.0130  136.3010 O   0  0  0  0  0  0  0  0  0  0  0  0
  196.0580  173.6470  136.2290 O   0  0  0  0  0  0  0  0  0  0  0  0
  193.2810  173.0370  135.6250 C   0  0  0  0  0  3  0  0  0  0  0  0
  193.4720  174.2160  136.2030 C   0  0  0  0  0  3  0  0  0  0  0  0
  192.0380  172.6920  135.1140 O   0  0  0  0  0  0  0  0  0  0  0  0
  191.2240  171.7290  135.7830 C   0  0  1  0  0  3  0  0  0  0  0  0
  193.1250  168.5550  136.7830 C   0  0  0  0  0  3  0  0  0  0  0  0
  194.6960  168.1660  138.5730 O   0  0  0  0  0  1  0  0  0  0  0  0
  192.8280  171.2040  137.6170 C   0  0  0  0  0  3  0  0  0  0  0  0
  192.2600  169.4060  136.0870 C   0  0  0  0  0  0  0  0  0  0  0  0
  193.6890  170.3470  138.3070 C   0  0  0  0  0  3  0  0  0  0  0  0
  192.1110  170.7480  136.5020 C   0  0  0  0  0  0  0  0  0  0  0  0
  193.8390  169.0220  137.8890 C   0  0  0  0  0  0  0  0  0  0  0  0
  191.5220  168.8540  134.9150 C   0  0  0  0  0  1  0  0  0  0  0  0
  190.2440  172.3390  136.7100 N   0  0  0  0  0  0  0  0  0  0  0  0
  188.8650  174.4520  136.6580 C   0  0  0  0  0  2  0  0  0  0  0  0
  189.2860  173.1600  135.9540 C   0  0  0  0  0  3  0  0  0  0  0  0
  189.9630  174.4830  135.6100 C   0  0  0  0  0  2  0  0  0  0  0  0
  189.5350  171.2170  137.3410 C   0  0  0  0  0  2  0  0  0  0  0  0
  189.4440  171.9200  141.4880 N   0  0  0  0  0  0  0  0  0  0  0  0
  190.3010  170.9000  140.9610 C   0  0  0  0  0  3  0  0  0  0  0  0
  189.4680  171.4250  138.7790 N   0  0  0  0  0  0  0  0  0  0  0  0
  188.6110  172.4470  139.3080 C   0  0  0  0  0  3  0  0  0  0  0  0
  188.5980  172.6870  140.6200 C   0  0  0  0  0  3  0  0  0  0  0  0
  190.3140  170.6610  139.6510 C   0  0  0  0  0  3  0  0  0  0  0  0
  189.4220  172.1670  142.9140 C   0  0  0  0  0  1  0  0  0  0  0  0
  194.4580  174.4480  145.6380 C   0  0  1  0  0  3  0  0  0  0  0  0
  193.0240  175.4610  147.3020 O   0  0  0  0  0  1  0  0  0  0  0  0
  193.2670  174.2880  146.5870 C   0  0  0  0  0  2  0  0  0  0  0  0
  195.6990  173.6810  146.0780 C   0  0  0  0  0  2  0  0  0  0  0  0
  196.8600  173.9390  145.1220 C   0  0  0  0  0  2  0  0  0  0  0  0
  197.6440  172.6660  144.8390 C   0  0  0  0  0  2  0  0  0  0  0  0
  197.1290  171.6100  145.5890 O   0  0  0  0  0  0  0  0  0  0  0  0
  196.6990  169.3560  144.9540 C   0  0  1  0  0  3  0  0  0  0  0  0
  196.2760  168.9050  146.3370 C   0  0  0  0  0  2  0  0  0  0  0  0
  197.7320  170.4640  145.0620 C   0  0  2  0  0  3  0  0  0  0  0  0
  197.7080  169.3330  146.0790 C   0  0  2  0  0  3  0  0  0  0  0  0
  1 12  1  0  0  0  0
  2  8  1  6  0  0  0
  2 26  1  0  0  0  0
  3  6  1  0  0  0  0
  3  2  1  0  0  0  0
  4 20  1  6  0  0  0
  4 22  1  0  0  0  0
  7  1  1  0  0  0  0
  9 18  1  0  0  0  0
  9 27  2  0  0  0  0
 11 24  1  0  0  0  0
 12 28  1  0  0  0  0
 13 23  1  6  0  0  0
 13 29  1  0  0  0  0
 14 29  1  0  0  0  0
 14 21  1  1  0  0  0
 15  5  1  1  0  0  0
 15  4  1  0  0  0  0
 15 11  1  0  0  0  0
 16  8  1  0  0  0  0
 17  6  1  6  0  0  0
 17  7  1  0  0  0  0
 17 14  1  0  0  0  0
 18 19  2  0  0  0  0
 19 20  1  0  0  0  0
 20  8  2  0  0  0  0
 21 28  1  0  0  0  0
 22 25  1  0  0  0  0
 22 10  1  1  0  0  0
 23 29  1  0  0  0  0
 24 10  1  0  0  0  0
 25 57  1  1  0  0  0
 26 25  1  0  0  0  0
 26 13  1  0  0  0  0
 27 16  1  0  0  0  0
 30  9  1  0  0  0  0
 31 30  2  0  0  0  0
 32 30  2  0  0  0  0
 33 34  2  0  0  0  0
 34 30  1  0  0  0  0
 35 33  1  0  0  0  0
 35 36  1  0  0  0  0
 36 42  1  0  0  0  0
 36 45  1  0  0  0  0
 37 43  1  0  0  0  0
 39 41  1  0  0  0  0
 40 42  1  0  0  0  0
 40 37  2  0  0  0  0
 42 39  2  0  0  0  0
 43 41  2  0  0  0  0
 43 38  1  0  0  0  0
 44 40  1  0  0  0  0
 45 49  1  0  0  0  0
 47 46  1  0  0  0  0
 47 45  1  0  0  0  0
 48 47  1  0  0  0  0
 48 46  1  0  0  0  0
 49 52  1  0  0  0  0
 50 56  1  0  0  0  0
 51 50  1  0  0  0  0
 52 53  1  0  0  0  0
 52 55  1  0  0  0  0
 53 54  2  0  0  0  0
 54 50  1  0  0  0  0
 55 51  2  0  0  0  0
 57 60  1  0  0  0  0
 57 59  1  0  0  0  0
 59 58  1  0  0  0  0
 61 60  1  0  0  0  0
 62 61  1  0  0  0  0
 62 63  1  0  0  0  0
 64 66  1  0  0  0  0
 64 67  1  0  0  0  0
 64 65  1  0  0  0  0
 66 63  1  0  0  0  0
 66 67  1  0  0  0  0
 67 65  1  0  0  0  0
M  END
>  <MODEL>
5

>  <REMARK>
 VINA RESULT:      -4.5      2.993      7.614
  Name = 
  16 active torsions:
  status: ('A' for Active; 'I' for Inactive)
    1  A    between atoms: C_4  and  O_6
    2  A    between atoms: O_6  and  C_30
    3  A    between atoms: C_8  and  N_9
    4  A    between atoms: C_8  and  N_48
    5  A    between atoms: C_18  and  O_42
    6  A    between atoms: C_20  and  O_42
    7  A    between atoms: C_20  and  C_43
    8  A    between atoms: C_26  and  S_29
    9  A    between atoms: S_29  and  C_46
   10  A    between atoms: C_30  and  N_48
   11  A    between atoms: C_30  and  C_58
   12  A    between atoms: C_31  and  C_41
   13  A    between atoms: C_35  and  N_48
   14  A    between atoms: C_41  and  C_59
   15  A    between atoms: C_41  and  C_67
   16  A    between atoms: C_43  and  C_67
                            x       y       z     vdW  Elec       q    Type
                         _______ _______ _______ _____ _____    ______ ____

>  <TORSDO>
F 16

$$$$
=
 OpenBabel11062422473D

 67 77  0  0  1  0  0  0  0  0999 V2000
  187.5110  176.7310  141.3970 C   0  0  0  0  0  2  0  0  0  0  0  0
  191.4310  172.4500  140.3110 C   0  0  2  0  0  3  0  0  0  0  0  0
  191.5790  174.0470  141.1830 S   0  0  0  0  0  0  0  0  0  0  0  0
  193.8610  173.2600  138.8880 C   0  0  2  0  0  3  0  0  0  0  0  0
  195.9040  172.6740  137.7100 O   0  0  0  0  0  1  0  0  0  0  0  0
  189.9160  173.8930  141.9180 C   0  0  0  0  0  2  0  0  0  0  0  0
  188.9130  176.1320  141.3660 C   0  0  0  0  0  2  0  0  0  0  0  0
  192.6910  171.6220  140.3480 C   0  0  0  0  0  0  0  0  0  0  0  0
  194.7290  170.4040  142.2350 C   0  0  0  0  0  0  0  0  0  0  0  0
  193.4300  173.3740  136.4960 O   0  0  0  0  0  0  0  0  0  0  0  0
  195.1170  174.8920  137.4250 C   0  0  0  0  0  2  0  0  0  0  0  0
  186.8770  176.8350  140.0130 C   0  0  0  0  0  2  0  0  0  0  0  0
  189.4940  171.9100  138.9560 C   0  0  2  0  0  3  0  0  0  0  0  0
  188.7770  174.2630  139.6280 C   0  0  2  0  0  3  0  0  0  0  0  0
  195.2570  173.7130  138.3880 C   0  0  1  0  0  3  0  0  0  0  0  0
  192.5740  170.3000  141.0270 C   0  0  0  0  0  2  0  0  0  0  0  0
  188.8240  174.6280  141.1350 C   0  0  1  0  0  3  0  0  0  0  0  0
  195.4610  170.5760  141.0120 N   0  0  0  0  0  0  0  0  0  0  0  0
  195.1060  171.2460  139.9520 C   0  0  0  0  0  3  0  0  0  0  0  0
  193.8410  172.0080  139.7590 C   0  0  0  0  0  0  0  0  0  0  0  0
  188.1480  175.2190  138.7960 O   0  0  0  0  0  0  0  0  0  0  0  0
  192.8000  173.3400  137.7530 C   0  0  1  0  0  3  0  0  0  0  0  0
  188.8490  171.8970  140.2130 O   0  0  0  0  0  0  0  0  0  0  0  0
  194.0020  174.6580  136.3870 C   0  0  0  0  0  2  0  0  0  0  0  0
  191.6510  172.3080  137.8360 C   0  0  1  0  0  3  0  0  0  0  0  0
  190.7860  172.6280  138.9940 N   0  0  2  0  0  0  0  0  0  0  0  0
  193.4030  170.2700  142.2580 C   0  0  0  0  0  3  0  0  0  0  0  0
  186.8620  175.4900  139.2940 C   0  0  0  0  0  2  0  0  0  0  0  0
  188.3420  172.8230  139.2820 C   0  0  2  0  0  3  0  0  0  0  0  0
  195.6240  170.1470  143.7170 S   0  0  0  0  0  0  0  0  0  0  0  0
  195.4460  168.7250  144.1620 O   0  0  0  0  0  0  0  0  0  0  0  0
  197.0860  170.4040  143.4770 O   0  0  0  0  0  0  0  0  0  0  0  0
  195.2160  172.5480  144.8020 C   0  0  0  0  0  3  0  0  0  0  0  0
  195.0630  171.2410  144.9660 C   0  0  0  0  0  3  0  0  0  0  0  0
  194.8270  173.4370  145.7940 O   0  0  0  0  0  0  0  0  0  0  0  0
  194.4080  174.7590  145.4560 C   0  0  1  0  0  3  0  0  0  0  0  0
  196.2360  176.7020  142.7040 C   0  0  0  0  0  3  0  0  0  0  0  0
  196.8110  176.0620  140.4490 O   0  0  0  0  0  1  0  0  0  0  0  0
  195.0190  174.2200  143.1010 C   0  0  0  0  0  3  0  0  0  0  0  0
  195.6460  176.4100  143.9380 C   0  0  0  0  0  0  0  0  0  0  0  0
  195.6100  174.5190  141.8700 C   0  0  0  0  0  3  0  0  0  0  0  0
  195.0340  175.1540  144.1450 C   0  0  0  0  0  0  0  0  0  0  0  0
  196.2200  175.7600  141.6720 C   0  0  0  0  0  0  0  0  0  0  0  0
  195.6910  177.4530  145.0030 C   0  0  0  0  0  1  0  0  0  0  0  0
  192.9370  174.9080  145.4080 N   0  0  0  0  0  0  0  0  0  0  0  0
  190.8440  173.4980  145.3560 C   0  0  0  0  0  2  0  0  0  0  0  0
  192.2940  173.6500  145.8200 C   0  0  0  0  0  3  0  0  0  0  0  0
  191.9650  172.8520  144.5630 C   0  0  0  0  0  2  0  0  0  0  0  0
  192.6080  175.9640  146.3760 C   0  0  0  0  0  2  0  0  0  0  0  0
  188.7670  177.4210  145.4700 N   0  0  0  0  0  0  0  0  0  0  0  0
  189.7870  177.4410  144.4650 C   0  0  0  0  0  3  0  0  0  0  0  0
  191.2960  176.5140  146.0770 N   0  0  0  0  0  0  0  0  0  0  0  0
  190.2720  176.4940  147.0820 C   0  0  0  0  0  3  0  0  0  0  0  0
  189.0480  176.9330  146.7910 C   0  0  0  0  0  3  0  0  0  0  0  0
  191.0100  177.0010  144.7570 C   0  0  0  0  0  3  0  0  0  0  0  0
  187.4430  177.9140  145.1540 C   0  0  0  0  0  1  0  0  0  0  0  0
  190.8340  172.1900  136.5220 C   0  0  1  0  0  3  0  0  0  0  0  0
  191.2030  170.0020  135.5600 O   0  0  0  0  0  1  0  0  0  0  0  0
  190.2710  170.7970  136.2270 C   0  0  0  0  0  2  0  0  0  0  0  0
  189.8250  173.3140  136.3210 C   0  0  0  0  0  2  0  0  0  0  0  0
  190.5310  174.6640  136.2290 C   0  0  0  0  0  2  0  0  0  0  0  0
  190.0610  175.4590  135.0210 C   0  0  0  0  0  2  0  0  0  0  0  0
  188.7070  175.2220  134.7900 O   0  0  0  0  0  0  0  0  0  0  0  0
  187.3830  176.9690  135.7220 C   0  0  1  0  0  3  0  0  0  0  0  0
  186.1530  176.1100  135.9280 C   0  0  0  0  0  2  0  0  0  0  0  0
  188.1630  176.4800  134.5130 C   0  0  2  0  0  3  0  0  0  0  0  0
  186.6430  176.4180  134.5250 C   0  0  2  0  0  3  0  0  0  0  0  0
  2  8  1  6  0  0  0
  2  3  1  0  0  0  0
  3  6  1  0  0  0  0
  4 20  1  6  0  0  0
  7  1  1  0  0  0  0
  8 16  1  0  0  0  0
  9 27  2  0  0  0  0
  9 30  1  0  0  0  0
 11 15  1  0  0  0  0
 12  1  1  0  0  0  0
 13 26  1  0  0  0  0
 13 29  1  0  0  0  0
 13 23  1  1  0  0  0
 14 21  1  6  0  0  0
 14 17  1  0  0  0  0
 15  5  1  6  0  0  0
 15  4  1  0  0  0  0
 16 27  1  0  0  0  0
 17  7  1  6  0  0  0
 17  6  1  0  0  0  0
 18  9  1  0  0  0  0
 19 18  2  0  0  0  0
 20 19  1  0  0  0  0
 20  8  2  0  0  0  0
 21 28  1  0  0  0  0
 22 10  1  6  0  0  0
 22 25  1  0  0  0  0
 22  4  1  0  0  0  0
 24 10  1  0  0  0  0
 24 11  1  0  0  0  0
 25 57  1  6  0  0  0
 25 26  1  0  0  0  0
 26  2  1  0  0  0  0
 28 12  1  0  0  0  0
 29 14  1  0  0  0  0
 29 23  1  0  0  0  0
 30 31  2  0  0  0  0
 30 34  1  0  0  0  0
 32 30  2  0  0  0  0
 33 34  2  0  0  0  0
 33 35  1  0  0  0  0
 36 35  1  0  0  0  0
 37 40  1  0  0  0  0
 38 43  1  0  0  0  0
 39 42  1  0  0  0  0
 40 42  2  0  0  0  0
 40 44  1  0  0  0  0
 41 39  2  0  0  0  0
 42 36  1  0  0  0  0
 43 41  1  0  0  0  0
 43 37  2  0  0  0  0
 45 36  1  0  0  0  0
 45 47  1  0  0  0  0
 45 49  1  0  0  0  0
 46 47  1  0  0  0  0
 48 46  1  0  0  0  0
 48 47  1  0  0  0  0
 50 54  1  0  0  0  0
 51 55  2  0  0  0  0
 51 50  1  0  0  0  0
 52 49  1  0  0  0  0
 52 53  1  0  0  0  0
 54 53  2  0  0  0  0
 55 52  1  0  0  0  0
 56 50  1  0  0  0  0
 58 59  1  0  0  0  0
 59 57  1  0  0  0  0
 60 57  1  0  0  0  0
 61 60  1  0  0  0  0
 62 61  1  0  0  0  0
 63 62  1  0  0  0  0
 64 65  1  0  0  0  0
 66 67  1  0  0  0  0
 66 63  1  0  0  0  0
 66 64  1  0  0  0  0
 67 64  1  0  0  0  0
 67 65  1  0  0  0  0
M  END
>  <MODEL>
6

>  <REMARK>
 VINA RESULT:      -4.3      2.968      8.971
  Name = 
  16 active torsions:
  status: ('A' for Active; 'I' for Inactive)
    1  A    between atoms: C_4  and  O_6
    2  A    between atoms: O_6  and  C_30
    3  A    between atoms: C_8  and  N_9
    4  A    between atoms: C_8  and  N_48
    5  A    between atoms: C_18  and  O_42
    6  A    between atoms: C_20  and  O_42
    7  A    between atoms: C_20  and  C_43
    8  A    between atoms: C_26  and  S_29
    9  A    between atoms: S_29  and  C_46
   10  A    between atoms: C_30  and  N_48
   11  A    between atoms: C_30  and  C_58
   12  A    between atoms: C_31  and  C_41
   13  A    between atoms: C_35  and  N_48
   14  A    between atoms: C_41  and  C_59
   15  A    between atoms: C_41  and  C_67
   16  A    between atoms: C_43  and  C_67
                            x       y       z     vdW  Elec       q    Type
                         _______ _______ _______ _____ _____    ______ ____

>  <TORSDO>
F 16

$$$$
=
 OpenBabel11062422473D

 67 77  0  0  1  0  0  0  0  0999 V2000
  185.2370  178.0810  141.3260 C   0  0  0  0  0  2  0  0  0  0  0  0
  190.6360  176.0570  142.6060 C   0  0  2  0  0  3  0  0  0  0  0  0
  189.4110  175.5560  141.3470 S   0  0  0  0  0  0  0  0  0  0  0  0
  190.8240  173.2010  143.2300 C   0  0  2  0  0  3  0  0  0  0  0  0
  192.1040  171.3080  144.0590 O   0  0  0  0  0  1  0  0  0  0  0  0
  188.8960  177.2800  141.0430 C   0  0  0  0  0  2  0  0  0  0  0  0
  186.3940  177.0940  141.2100 C   0  0  0  0  0  2  0  0  0  0  0  0
  191.9390  175.3050  142.5140 C   0  0  0  0  0  0  0  0  0  0  0  0
  194.1880  174.5890  140.6100 C   0  0  0  0  0  0  0  0  0  0  0  0
  190.2060  172.8110  145.5510 O   0  0  0  0  0  0  0  0  0  0  0  0
  189.7530  171.0230  143.9340 C   0  0  0  0  0  2  0  0  0  0  0  0
  184.6730  178.1730  142.7400 C   0  0  0  0  0  2  0  0  0  0  0  0
  190.0540  177.5440  144.4310 C   0  0  2  0  0  3  0  0  0  0  0  0
  187.7460  177.4320  143.3520 C   0  0  2  0  0  3  0  0  0  0  0  0
  190.9870  171.6600  143.2930 C   0  0  1  0  0  3  0  0  0  0  0  0
  193.1450  176.1350  142.2310 C   0  0  0  0  0  2  0  0  0  0  0  0
  187.6500  177.6990  141.8270 C   0  0  1  0  0  3  0  0  0  0  0  0
  194.2020  173.5180  141.5660 N   0  0  0  0  0  0  0  0  0  0  0  0
  193.3070  173.2410  142.4720 C   0  0  0  0  0  3  0  0  0  0  0  0
  192.0380  173.9770  142.7290 C   0  0  0  0  0  0  0  0  0  0  0  0
  186.5070  177.3480  144.0290 O   0  0  0  0  0  0  0  0  0  0  0  0
  190.1220  173.7480  144.5060 C   0  0  1  0  0  3  0  0  0  0  0  0
  189.9450  178.4860  143.3830 O   0  0  0  0  0  0  0  0  0  0  0  0
  189.3170  171.7720  145.2090 C   0  0  0  0  0  2  0  0  0  0  0  0
  190.5250  175.1790  144.9320 C   0  0  1  0  0  3  0  0  0  0  0  0
  190.0090  176.1500  143.9400 N   0  0  2  0  0  0  0  0  0  0  0  0
  193.7110  175.7980  140.9010 C   0  0  0  0  0  3  0  0  0  0  0  0
  185.7550  178.5050  143.7620 C   0  0  0  0  0  2  0  0  0  0  0  0
  188.7730  178.2780  144.1350 C   0  0  2  0  0  3  0  0  0  0  0  0
  195.0190  174.3600  139.0860 S   0  0  0  0  0  0  0  0  0  0  0  0
  195.7150  175.6350  138.7060 O   0  0  0  0  0  0  0  0  0  0  0  0
  196.0430  173.2680  139.2260 O   0  0  0  0  0  0  0  0  0  0  0  0
  192.8930  174.7260  137.5190 C   0  0  0  0  0  3  0  0  0  0  0  0
  193.8830  173.9010  137.8330 C   0  0  0  0  0  3  0  0  0  0  0  0
  191.9480  174.3690  136.5680 O   0  0  0  0  0  0  0  0  0  0  0  0
  190.6340  173.9780  136.9660 C   0  0  1  0  0  3  0  0  0  0  0  0
  187.4480  175.9740  136.2240 C   0  0  0  0  0  3  0  0  0  0  0  0
  186.9860  177.6150  134.5150 O   0  0  0  0  0  1  0  0  0  0  0  0
  190.0350  175.6560  135.2230 C   0  0  0  0  0  3  0  0  0  0  0  0
  188.3200  175.0700  136.8370 C   0  0  0  0  0  0  0  0  0  0  0  0
  189.1580  176.5570  134.6140 C   0  0  0  0  0  3  0  0  0  0  0  0
  189.6310  174.9090  136.3380 C   0  0  0  0  0  0  0  0  0  0  0  0
  187.8630  176.7180  135.1160 C   0  0  0  0  0  0  0  0  0  0  0  0
  187.8230  174.3010  138.0150 C   0  0  0  0  0  1  0  0  0  0  0  0
  190.3240  172.5670  136.6450 N   0  0  0  0  0  0  0  0  0  0  0  0
  190.5060  171.2290  134.5130 C   0  0  0  0  0  2  0  0  0  0  0  0
  189.9330  172.4530  135.2310 C   0  0  0  0  0  3  0  0  0  0  0  0
  189.0960  171.1880  135.0710 C   0  0  0  0  0  2  0  0  0  0  0  0
  191.5690  171.8200  136.8700 C   0  0  0  0  0  2  0  0  0  0  0  0
  191.3290  169.3930  140.2980 N   0  0  0  0  0  0  0  0  0  0  0  0
  191.1160  168.8150  139.0040 C   0  0  0  0  0  3  0  0  0  0  0  0
  191.4360  170.9900  138.0560 N   0  0  0  0  0  0  0  0  0  0  0  0
  191.6500  171.5670  139.3530 C   0  0  0  0  0  3  0  0  0  0  0  0
  191.5970  170.7950  140.4390 C   0  0  0  0  0  3  0  0  0  0  0  0
  191.1700  169.5870  137.9200 C   0  0  0  0  0  3  0  0  0  0  0  0
  191.2550  168.5540  141.4750 C   0  0  0  0  0  1  0  0  0  0  0  0
  190.0830  175.5390  146.3740 C   0  0  1  0  0  3  0  0  0  0  0  0
  188.9350  174.2670  148.0810 O   0  0  0  0  0  1  0  0  0  0  0  0
  188.7800  174.8840  146.8400 C   0  0  0  0  0  2  0  0  0  0  0  0
  191.2080  175.4640  147.4000 C   0  0  0  0  0  2  0  0  0  0  0  0
  191.9710  176.7840  147.4630 C   0  0  0  0  0  2  0  0  0  0  0  0
  193.4650  176.5760  147.2630 C   0  0  0  0  0  2  0  0  0  0  0  0
  193.6860  175.5390  146.3580 O   0  0  0  0  0  0  0  0  0  0  0  0
  195.2720  174.7630  144.7610 C   0  0  1  0  0  3  0  0  0  0  0  0
  195.3450  173.3560  145.3170 C   0  0  0  0  0  2  0  0  0  0  0  0
  194.9820  175.7500  145.8790 C   0  0  2  0  0  3  0  0  0  0  0  0
  195.8510  174.5280  146.1360 C   0  0  2  0  0  3  0  0  0  0  0  0
  1 12  1  0  0  0  0
  2  3  1  6  0  0  0
  2 26  1  0  0  0  0
  4 20  1  1  0  0  0
  4 15  1  0  0  0  0
  4 22  1  0  0  0  0
  6  3  1  0  0  0  0
  7  1  1  0  0  0  0
  7 17  1  0  0  0  0
  8  2  1  0  0  0  0
  8 20  2  0  0  0  0
  9 27  2  0  0  0  0
  9 18  1  0  0  0  0
 11 24  1  0  0  0  0
 12 28  1  0  0  0  0
 13 23  1  6  0  0  0
 14 21  1  1  0  0  0
 14 29  1  0  0  0  0
 15 11  1  0  0  0  0
 15  5  1  1  0  0  0
 16  8  1  0  0  0  0
 17  6  1  6  0  0  0
 17 14  1  0  0  0  0
 18 19  2  0  0  0  0
 19 20  1  0  0  0  0
 22 25  1  0  0  0  0
 22 10  1  1  0  0  0
 23 29  1  0  0  0  0
 24 10  1  0  0  0  0
 25 57  1  1  0  0  0
 26 13  1  0  0  0  0
 26 25  1  0  0  0  0
 27 16  1  0  0  0  0
 28 21  1  0  0  0  0
 29 13  1  0  0  0  0
 30 32  2  0  0  0  0
 30  9  1  0  0  0  0
 31 30  2  0  0  0  0
 33 34  2  0  0  0  0
 34 30  1  0  0  0  0
 35 36  1  0  0  0  0
 35 33  1  0  0  0  0
 37 40  1  0  0  0  0
 38 43  1  0  0  0  0
 39 42  1  0  0  0  0
 40 44  1  0  0  0  0
 41 43  1  0  0  0  0
 41 39  2  0  0  0  0
 42 40  2  0  0  0  0
 42 36  1  0  0  0  0
 43 37  2  0  0  0  0
 45 49  1  0  0  0  0
 45 36  1  0  0  0  0
 46 48  1  0  0  0  0
 46 47  1  0  0  0  0
 47 45  1  0  0  0  0
 48 47  1  0  0  0  0
 49 52  1  0  0  0  0
 50 54  1  0  0  0  0
 50 56  1  0  0  0  0
 51 50  1  0  0  0  0
 52 53  1  0  0  0  0
 53 54  2  0  0  0  0
 55 52  1  0  0  0  0
 55 51  2  0  0  0  0
 57 59  1  0  0  0  0
 57 60  1  0  0  0  0
 59 58  1  0  0  0  0
 60 61  1  0  0  0  0
 62 61  1  0  0  0  0
 63 62  1  0  0  0  0
 64 65  1  0  0  0  0
 64 66  1  0  0  0  0
 64 67  1  0  0  0  0
 65 67  1  0  0  0  0
 66 67  1  0  0  0  0
 66 63  1  0  0  0  0
M  END
>  <MODEL>
7

>  <REMARK>
 VINA RESULT:      -4.3      2.940      6.962
  Name = 
  16 active torsions:
  status: ('A' for Active; 'I' for Inactive)
    1  A    between atoms: C_4  and  O_6
    2  A    between atoms: O_6  and  C_30
    3  A    between atoms: C_8  and  N_9
    4  A    between atoms: C_8  and  N_48
    5  A    between atoms: C_18  and  O_42
    6  A    between atoms: C_20  and  O_42
    7  A    between atoms: C_20  and  C_43
    8  A    between atoms: C_26  and  S_29
    9  A    between atoms: S_29  and  C_46
   10  A    between atoms: C_30  and  N_48
   11  A    between atoms: C_30  and  C_58
   12  A    between atoms: C_31  and  C_41
   13  A    between atoms: C_35  and  N_48
   14  A    between atoms: C_41  and  C_59
   15  A    between atoms: C_41  and  C_67
   16  A    between atoms: C_43  and  C_67
                            x       y       z     vdW  Elec       q    Type
                         _______ _______ _______ _____ _____    ______ ____

>  <TORSDO>
F 16

$$$$
=
 OpenBabel11062422473D

 67 77  0  0  1  0  0  0  0  0999 V2000
  184.0660  178.5030  142.9000 C   0  0  0  0  0  2  0  0  0  0  0  0
  189.0230  175.5220  141.7060 C   0  0  2  0  0  3  0  0  0  0  0  0
  187.2830  174.9880  141.8520 S   0  0  0  0  0  0  0  0  0  0  0  0
  189.6270  173.2680  143.4760 C   0  0  2  0  0  3  0  0  0  0  0  0
  191.1720  171.5630  144.2610 O   0  0  0  0  0  1  0  0  0  0  0  0
  186.6630  176.5100  141.0580 C   0  0  0  0  0  2  0  0  0  0  0  0
  184.8840  177.2340  142.6800 C   0  0  0  0  0  2  0  0  0  0  0  0
  189.9620  174.4170  141.2960 C   0  0  0  0  0  0  0  0  0  0  0  0
  190.4310  172.3050  139.1710 C   0  0  0  0  0  0  0  0  0  0  0  0
  190.6840  174.0680  145.5170 O   0  0  0  0  0  0  0  0  0  0  0  0
  189.3180  172.0370  145.6610 C   0  0  0  0  0  2  0  0  0  0  0  0
  184.5620  179.3340  144.0800 C   0  0  0  0  0  2  0  0  0  0  0  0
  189.7500  177.7180  142.4360 C   0  0  2  0  0  3  0  0  0  0  0  0
  187.3010  177.9430  143.1120 C   0  0  2  0  0  3  0  0  0  0  0  0
  189.8190  171.9210  144.2210 C   0  0  1  0  0  3  0  0  0  0  0  0
  190.6740  174.6200  140.0020 C   0  0  0  0  0  2  0  0  0  0  0  0
  186.2250  177.5900  142.0510 C   0  0  1  0  0  3  0  0  0  0  0  0
  191.0860  171.7680  140.3300 N   0  0  0  0  0  0  0  0  0  0  0  0
  191.0080  172.1870  141.5620 C   0  0  0  0  0  3  0  0  0  0  0  0
  190.2020  173.3350  142.0650 C   0  0  0  0  0  0  0  0  0  0  0  0
  186.8080  178.5470  144.2920 O   0  0  0  0  0  0  0  0  0  0  0  0
  189.9200  174.4780  144.4090 C   0  0  1  0  0  3  0  0  0  0  0  0
  188.9640  178.1390  141.3400 O   0  0  0  0  0  0  0  0  0  0  0  0
  189.8070  173.3310  146.3380 C   0  0  0  0  0  2  0  0  0  0  0  0
  190.4770  175.7410  143.7130 C   0  0  1  0  0  3  0  0  0  0  0  0
  189.4200  176.3420  142.8680 N   0  0  2  0  0  0  0  0  0  0  0  0
  190.2390  173.6130  139.0030 C   0  0  0  0  0  3  0  0  0  0  0  0
  186.0430  179.6750  143.9500 C   0  0  0  0  0  2  0  0  0  0  0  0
  188.5740  178.6450  142.5940 C   0  0  2  0  0  3  0  0  0  0  0  0
  190.0670  171.2260  137.8400 S   0  0  0  0  0  0  0  0  0  0  0  0
  189.3130  170.0380  138.3600 O   0  0  0  0  0  0  0  0  0  0  0  0
  189.2150  171.9410  136.8280 O   0  0  0  0  0  0  0  0  0  0  0  0
  192.1300  171.5040  136.1750 C   0  0  0  0  0  3  0  0  0  0  0  0
  191.5450  170.7040  137.0560 C   0  0  0  0  0  3  0  0  0  0  0  0
  193.2740  171.0980  135.5010 O   0  0  0  0  0  0  0  0  0  0  0  0
  194.4590  171.8920  135.5470 C   0  0  1  0  0  3  0  0  0  0  0  0
  193.4490  175.2720  137.0450 C   0  0  0  0  0  3  0  0  0  0  0  0
  193.1160  177.4170  135.9920 O   0  0  0  0  0  1  0  0  0  0  0  0
  194.0520  174.1450  134.5630 C   0  0  0  0  0  3  0  0  0  0  0  0
  193.7660  173.9120  136.9610 C   0  0  0  0  0  0  0  0  0  0  0  0
  193.7340  175.5020  134.6530 C   0  0  0  0  0  3  0  0  0  0  0  0
  194.0780  173.3390  135.7090 C   0  0  0  0  0  0  0  0  0  0  0  0
  193.4330  176.0670  135.8960 C   0  0  0  0  0  0  0  0  0  0  0  0
  193.7660  173.1110  138.2200 C   0  0  0  0  0  1  0  0  0  0  0  0
  195.4020  171.4690  136.6070 N   0  0  0  0  0  0  0  0  0  0  0  0
  196.8290  169.4760  137.2070 C   0  0  0  0  0  2  0  0  0  0  0  0
  195.5230  170.0030  136.6100 C   0  0  0  0  0  3  0  0  0  0  0  0
  195.5760  169.5340  138.0600 C   0  0  0  0  0  2  0  0  0  0  0  0
  196.6970  172.0660  136.2560 C   0  0  0  0  0  2  0  0  0  0  0  0
  197.6300  174.9650  139.1580 N   0  0  0  0  0  0  0  0  0  0  0  0
  197.5940  175.3340  137.7750 C   0  0  0  0  0  3  0  0  0  0  0  0
  197.0690  173.0570  137.2520 N   0  0  0  0  0  0  0  0  0  0  0  0
  197.1040  172.6890  138.6390 C   0  0  0  0  0  3  0  0  0  0  0  0
  197.3760  173.6110  139.5630 C   0  0  0  0  0  3  0  0  0  0  0  0
  197.3210  174.4120  136.8530 C   0  0  0  0  0  3  0  0  0  0  0  0
  197.9410  175.9660  140.1560 C   0  0  0  0  0  1  0  0  0  0  0  0
  191.0790  176.7730  144.7030 C   0  0  1  0  0  3  0  0  0  0  0  0
  189.2450  177.5660  146.0650 O   0  0  0  0  0  1  0  0  0  0  0  0
  190.4200  176.8150  146.0840 C   0  0  0  0  0  2  0  0  0  0  0  0
  192.6030  176.7630  144.7510 C   0  0  0  0  0  2  0  0  0  0  0  0
  193.0970  176.4260  146.1550 C   0  0  0  0  0  2  0  0  0  0  0  0
  193.5370  174.9730  146.2580 C   0  0  0  0  0  2  0  0  0  0  0  0
  194.8940  174.8630  145.9600 O   0  0  0  0  0  0  0  0  0  0  0  0
  195.9130  172.7260  145.7050 C   0  0  1  0  0  3  0  0  0  0  0  0
  197.3330  173.2490  145.7330 C   0  0  0  0  0  2  0  0  0  0  0  0
  194.9870  173.7660  145.0980 C   0  0  2  0  0  3  0  0  0  0  0  0
  196.4100  173.6090  144.5840 C   0  0  2  0  0  3  0  0  0  0  0  0
  1 12  1  0  0  0  0
  2  8  1  1  0  0  0
  2  3  1  0  0  0  0
  2 26  1  0  0  0  0
  4 20  1  6  0  0  0
  4 15  1  0  0  0  0
  4 22  1  0  0  0  0
  6  3  1  0  0  0  0
  7  1  1  0  0  0  0
  8 20  2  0  0  0  0
  9 18  1  0  0  0  0
 10 24  1  0  0  0  0
 11 24  1  0  0  0  0
 13 23  1  6  0  0  0
 13 29  1  0  0  0  0
 13 26  1  0  0  0  0
 14 21  1  1  0  0  0
 15  5  1  1  0  0  0
 15 11  1  0  0  0  0
 16  8  1  0  0  0  0
 17  6  1  1  0  0  0
 17  7  1  0  0  0  0
 17 14  1  0  0  0  0
 18 19  2  0  0  0  0
 19 20  1  0  0  0  0
 22 10  1  1  0  0  0
 23 29  1  0  0  0  0
 25 22  1  0  0  0  0
 25 57  1  1  0  0  0
 26 25  1  0  0  0  0
 27  9  2  0  0  0  0
 27 16  1  0  0  0  0
 28 12  1  0  0  0  0
 28 21  1  0  0  0  0
 29 14  1  0  0  0  0
 30 31  2  0  0  0  0
 30  9  1  0  0  0  0
 32 30  2  0  0  0  0
 33 34  2  0  0  0  0
 34 30  1  0  0  0  0
 35 36  1  0  0  0  0
 35 33  1  0  0  0  0
 36 42  1  0  0  0  0
 36 45  1  0  0  0  0
 39 41  2  0  0  0  0
 39 42  1  0  0  0  0
 40 37  1  0  0  0  0
 40 44  1  0  0  0  0
 41 43  1  0  0  0  0
 42 40  2  0  0  0  0
 43 38  1  0  0  0  0
 43 37  2  0  0  0  0
 45 47  1  0  0  0  0
 46 48  1  0  0  0  0
 47 46  1  0  0  0  0
 47 48  1  0  0  0  0
 49 45  1  0  0  0  0
 49 52  1  0  0  0  0
 50 54  1  0  0  0  0
 50 56  1  0  0  0  0
 51 50  1  0  0  0  0
 52 53  1  0  0  0  0
 53 54  2  0  0  0  0
 55 52  1  0  0  0  0
 55 51  2  0  0  0  0
 57 60  1  0  0  0  0
 57 59  1  0  0  0  0
 58 59  1  0  0  0  0
 60 61  1  0  0  0  0
 61 62  1  0  0  0  0
 63 62  1  0  0  0  0
 64 65  1  0  0  0  0
 66 64  1  0  0  0  0
 66 63  1  0  0  0  0
 67 66  1  0  0  0  0
 67 64  1  0  0  0  0
 67 65  1  0  0  0  0
M  END
>  <MODEL>
8

>  <REMARK>
 VINA RESULT:      -4.1      2.233      5.844
  Name = 
  16 active torsions:
  status: ('A' for Active; 'I' for Inactive)
    1  A    between atoms: C_4  and  O_6
    2  A    between atoms: O_6  and  C_30
    3  A    between atoms: C_8  and  N_9
    4  A    between atoms: C_8  and  N_48
    5  A    between atoms: C_18  and  O_42
    6  A    between atoms: C_20  and  O_42
    7  A    between atoms: C_20  and  C_43
    8  A    between atoms: C_26  and  S_29
    9  A    between atoms: S_29  and  C_46
   10  A    between atoms: C_30  and  N_48
   11  A    between atoms: C_30  and  C_58
   12  A    between atoms: C_31  and  C_41
   13  A    between atoms: C_35  and  N_48
   14  A    between atoms: C_41  and  C_59
   15  A    between atoms: C_41  and  C_67
   16  A    between atoms: C_43  and  C_67
                            x       y       z     vdW  Elec       q    Type
                         _______ _______ _______ _____ _____    ______ ____

>  <TORSDO>
F 16

$$$$
=
 OpenBabel11062422473D

 67 77  0  0  1  0  0  0  0  0999 V2000
  184.1890  178.4730  142.5560 C   0  0  0  0  0  2  0  0  0  0  0  0
  189.2950  175.6020  141.7970 C   0  0  2  0  0  3  0  0  0  0  0  0
  187.5600  175.0310  141.7880 S   0  0  0  0  0  0  0  0  0  0  0  0
  189.7880  173.3540  143.6090 C   0  0  2  0  0  3  0  0  0  0  0  0
  191.2940  171.6790  144.5220 O   0  0  0  0  0  1  0  0  0  0  0  0
  186.9810  176.5430  140.9450 C   0  0  0  0  0  2  0  0  0  0  0  0
  185.0500  177.2230  142.4060 C   0  0  0  0  0  2  0  0  0  0  0  0
  190.2900  174.5180  141.4690 C   0  0  0  0  0  0  0  0  0  0  0  0
  190.9890  172.4260  139.3880 C   0  0  0  0  0  0  0  0  0  0  0  0
  190.6450  174.1680  145.7360 O   0  0  0  0  0  0  0  0  0  0  0  0
  189.3140  172.1080  145.7540 C   0  0  0  0  0  2  0  0  0  0  0  0
  184.5630  179.3100  143.7760 C   0  0  0  0  0  2  0  0  0  0  0  0
  189.9070  177.8100  142.5930 C   0  0  2  0  0  3  0  0  0  0  0  0
  187.4040  177.9800  143.0510 C   0  0  2  0  0  3  0  0  0  0  0  0
  189.9430  172.0090  144.3640 C   0  0  1  0  0  3  0  0  0  0  0  0
  191.1080  174.7420  140.2430 C   0  0  0  0  0  2  0  0  0  0  0  0
  186.4340  177.6090  141.8980 C   0  0  1  0  0  3  0  0  0  0  0  0
  191.5510  171.8980  140.5990 N   0  0  0  0  0  0  0  0  0  0  0  0
  191.3550  172.3100  141.8210 C   0  0  0  0  0  3  0  0  0  0  0  0
  190.4840  173.4380  142.2540 C   0  0  0  0  0  0  0  0  0  0  0  0
  186.7970  178.5690  144.1840 O   0  0  0  0  0  0  0  0  0  0  0  0
  189.9730  174.5660  144.5660 C   0  0  1  0  0  3  0  0  0  0  0  0
  189.2130  178.2180  141.4320 O   0  0  0  0  0  0  0  0  0  0  0  0
  189.7150  173.4090  146.4750 C   0  0  0  0  0  2  0  0  0  0  0  0
  190.5610  175.8440  143.9250 C   0  0  1  0  0  3  0  0  0  0  0  0
  189.5700  176.4260  142.9910 N   0  0  2  0  0  0  0  0  0  0  0  0
  190.7840  173.7300  139.2070 C   0  0  0  0  0  3  0  0  0  0  0  0
  186.0410  179.6820  143.7780 C   0  0  0  0  0  2  0  0  0  0  0  0
  188.7030  178.7120  142.6480 C   0  0  2  0  0  3  0  0  0  0  0  0
  190.7660  171.3450  138.0290 S   0  0  0  0  0  0  0  0  0  0  0  0
  191.0580  169.9390  138.4630 O   0  0  0  0  0  0  0  0  0  0  0  0
  189.3440  171.4230  137.5480 O   0  0  0  0  0  0  0  0  0  0  0  0
  193.1310  171.8960  136.9270 C   0  0  0  0  0  3  0  0  0  0  0  0
  191.8260  171.7980  136.7090 C   0  0  0  0  0  3  0  0  0  0  0  0
  193.9890  172.3010  135.9150 O   0  0  0  0  0  0  0  0  0  0  0  0
  195.3370  172.6650  136.2140 C   0  0  1  0  0  3  0  0  0  0  0  0
  194.9570  176.4270  135.5880 C   0  0  0  0  0  3  0  0  0  0  0  0
  196.4420  177.9960  134.5130 O   0  0  0  0  0  1  0  0  0  0  0  0
  196.7730  174.3650  135.0920 C   0  0  0  0  0  3  0  0  0  0  0  0
  194.6590  175.1270  136.0080 C   0  0  0  0  0  0  0  0  0  0  0  0
  197.0640  175.6660  134.6750 C   0  0  0  0  0  3  0  0  0  0  0  0
  195.5760  174.0820  135.7640 C   0  0  0  0  0  0  0  0  0  0  0  0
  196.1560  176.6990  134.9250 C   0  0  0  0  0  0  0  0  0  0  0  0
  193.3630  174.8940  136.7110 C   0  0  0  0  0  1  0  0  0  0  0  0
  195.6810  172.4970  137.6440 N   0  0  0  0  0  0  0  0  0  0  0  0
  196.1940  170.3010  138.7770 C   0  0  0  0  0  2  0  0  0  0  0  0
  196.6380  171.3900  137.7980 C   0  0  0  0  0  3  0  0  0  0  0  0
  195.9770  170.1150  137.2870 C   0  0  0  0  0  2  0  0  0  0  0  0
  196.3180  173.7550  138.0560 C   0  0  0  0  0  2  0  0  0  0  0  0
  195.7900  174.1910  142.2070 N   0  0  0  0  0  0  0  0  0  0  0  0
  194.6450  174.0440  141.3590 C   0  0  0  0  0  3  0  0  0  0  0  0
  196.1320  173.9560  139.4830 N   0  0  0  0  0  0  0  0  0  0  0  0
  197.2780  174.1020  140.3350 C   0  0  0  0  0  3  0  0  0  0  0  0
  197.1140  174.2160  141.6530 C   0  0  0  0  0  3  0  0  0  0  0  0
  194.8100  173.9290  140.0420 C   0  0  0  0  0  3  0  0  0  0  0  0
  195.6070  174.3310  143.6360 C   0  0  0  0  0  1  0  0  0  0  0  0
  191.0520  176.8840  144.9660 C   0  0  1  0  0  3  0  0  0  0  0  0
  193.4280  177.1420  145.3410 O   0  0  0  0  0  1  0  0  0  0  0  0
  192.3470  177.6140  144.5970 C   0  0  0  0  0  2  0  0  0  0  0  0
  189.9540  177.8060  145.4810 C   0  0  0  0  0  2  0  0  0  0  0  0
  189.5240  177.4020  146.8880 C   0  0  0  0  0  2  0  0  0  0  0  0
  188.1310  176.7910  146.8920 C   0  0  0  0  0  2  0  0  0  0  0  0
  187.1670  177.7970  146.8330 O   0  0  0  0  0  0  0  0  0  0  0  0
  185.0060  176.8650  147.1890 C   0  0  1  0  0  3  0  0  0  0  0  0
  184.2710  177.9150  146.3830 C   0  0  0  0  0  2  0  0  0  0  0  0
  186.2430  177.4700  147.8290 C   0  0  2  0  0  3  0  0  0  0  0  0
  184.9750  178.2960  147.6720 C   0  0  2  0  0  3  0  0  0  0  0  0
  1 12  1  0  0  0  0
  2  8  1  1  0  0  0
  2 26  1  0  0  0  0
  3  2  1  0  0  0  0
  4 20  1  6  0  0  0
  4 15  1  0  0  0  0
  4 22  1  0  0  0  0
  6  3  1  0  0  0  0
  7  1  1  0  0  0  0
  8 20  2  0  0  0  0
  9 18  1  0  0  0  0
 10 24  1  0  0  0  0
 11 24  1  0  0  0  0
 12 28  1  0  0  0  0
 13 23  1  6  0  0  0
 13 29  1  0  0  0  0
 13 26  1  0  0  0  0
 14 21  1  1  0  0  0
 15  5  1  1  0  0  0
 15 11  1  0  0  0  0
 16  8  1  0  0  0  0
 17  6  1  1  0  0  0
 17  7  1  0  0  0  0
 17 14  1  0  0  0  0
 18 19  2  0  0  0  0
 19 20  1  0  0  0  0
 22 10  1  1  0  0  0
 23 29  1  0  0  0  0
 25 22  1  0  0  0  0
 25 57  1  1  0  0  0
 26 25  1  0  0  0  0
 27  9  2  0  0  0  0
 27 16  1  0  0  0  0
 28 21  1  0  0  0  0
 29 14  1  0  0  0  0
 30 31  2  0  0  0  0
 30  9  1  0  0  0  0
 32 30  2  0  0  0  0
 34 33  2  0  0  0  0
 34 30  1  0  0  0  0
 35 36  1  0  0  0  0
 35 33  1  0  0  0  0
 36 45  1  0  0  0  0
 37 40  1  0  0  0  0
 38 43  1  0  0  0  0
 39 42  1  0  0  0  0
 40 44  1  0  0  0  0
 41 43  1  0  0  0  0
 41 39  2  0  0  0  0
 42 40  2  0  0  0  0
 42 36  1  0  0  0  0
 43 37  2  0  0  0  0
 45 47  1  0  0  0  0
 45 49  1  0  0  0  0
 47 46  1  0  0  0  0
 48 47  1  0  0  0  0
 48 46  1  0  0  0  0
 49 52  1  0  0  0  0
 50 56  1  0  0  0  0
 51 50  1  0  0  0  0
 52 55  1  0  0  0  0
 52 53  1  0  0  0  0
 53 54  2  0  0  0  0
 54 50  1  0  0  0  0
 55 51  2  0  0  0  0
 57 60  1  0  0  0  0
 59 57  1  0  0  0  0
 59 58  1  0  0  0  0
 60 61  1  0  0  0  0
 61 62  1  0  0  0  0
 63 62  1  0  0  0  0
 63 66  1  0  0  0  0
 64 67  1  0  0  0  0
 64 66  1  0  0  0  0
 65 64  1  0  0  0  0
 65 67  1  0  0  0  0
 67 66  1  0  0  0  0
M  END
>  <MODEL>
9

>  <REMARK>
 VINA RESULT:      -4.1      2.111      5.090
  Name = 
  16 active torsions:
  status: ('A' for Active; 'I' for Inactive)
    1  A    between atoms: C_4  and  O_6
    2  A    between atoms: O_6  and  C_30
    3  A    between atoms: C_8  and  N_9
    4  A    between atoms: C_8  and  N_48
    5  A    between atoms: C_18  and  O_42
    6  A    between atoms: C_20  and  O_42
    7  A    between atoms: C_20  and  C_43
    8  A    between atoms: C_26  and  S_29
    9  A    between atoms: S_29  and  C_46
   10  A    between atoms: C_30  and  N_48
   11  A    between atoms: C_30  and  C_58
   12  A    between atoms: C_31  and  C_41
   13  A    between atoms: C_35  and  N_48
   14  A    between atoms: C_41  and  C_59
   15  A    between atoms: C_41  and  C_67
   16  A    between atoms: C_43  and  C_67
                            x       y       z     vdW  Elec       q    Type
                         _______ _______ _______ _____ _____    ______ ____

>  <TORSDO>
F 16

$$$$
