=
 OpenBabel11072408383D

 47 52  0  0  1  0  0  0  0  0999 V2000
  188.6090  174.0130  140.5690 C   0  0  0  0  0  3  0  0  0  0  0  0
  190.1050  173.0690  142.1470 C   0  0  0  0  0  0  0  0  0  0  0  0
  192.8360  172.5750  141.9350 C   0  0  0  0  0  0  0  0  0  0  0  0
  192.1310  173.1370  140.8590 C   0  0  0  0  0  3  0  0  0  0  0  0
  190.7560  172.4880  143.2460 C   0  0  0  0  0  0  0  0  0  0  0  0
  192.1590  172.2370  143.1430 C   0  0  0  0  0  0  0  0  0  0  0  0
  190.7710  173.3720  141.0010 C   0  0  0  0  0  0  0  0  0  0  0  0
  189.9340  173.9200  140.0540 O   0  0  0  0  0  0  0  0  0  0  0  0
  188.6700  173.4420  142.0000 C   0  0  0  0  0  3  0  0  0  0  0  0
  195.1150  173.6160  141.7890 C   0  0  0  0  0  2  0  0  0  0  0  0
  194.3040  172.3220  141.7170 C   0  0  2  0  0  3  0  0  0  0  0  0
  194.6230  171.8100  140.3650 C   0  0  0  0  0  0  0  0  0  0  0  0
  195.5740  172.5690  139.7240 O   0  0  0  0  0  0  0  0  0  0  0  0
  196.0300  173.6240  140.5540 C   0  0  1  0  0  3  0  0  0  0  0  0
  194.1150  170.7750  139.8570 O   0  0  0  0  0  0  0  0  0  0  0  0
  195.8870  175.2090  139.6780 S   0  0  0  0  0  0  0  0  0  0  0  0
  197.0840  175.9590  140.6570 O   0  0  0  0  0  0  0  0  0  0  0  0
  196.3740  176.8430  141.4720 C   0  0  0  0  0  2  0  0  0  0  0  0
  195.8000  176.8420  143.7850 O   0  0  0  0  0  1  0  0  0  0  0  0
  196.8730  176.7430  142.9000 C   0  0  0  0  0  2  0  0  0  0  0  0
  189.9580  172.1730  144.4790 C   0  0  0  0  0  2  0  0  0  0  0  0
  189.3480  173.4310  145.0900 C   0  0  0  0  0  2  0  0  0  0  0  0
  190.9440  175.2470  145.8820 C   0  0  2  0  0  0  0  0  0  0  0  0
  192.1710  175.5430  146.7260 C   0  0  0  0  0  1  0  0  0  0  0  0
  189.6640  175.3270  146.6850 C   0  0  0  0  0  2  0  0  0  0  0  0
  190.1920  173.9680  146.2440 C   0  0  1  0  0  3  0  0  0  0  0  0
  190.8260  175.8260  144.4620 C   0  0  1  0  0  3  0  0  0  0  0  0
  189.9030  177.0040  144.4140 C   0  0  0  0  0  0  0  0  0  0  0  0
  188.5860  176.8300  143.8970 N   0  0  0  0  0  2  0  0  0  0  0  0
  190.2740  178.1280  144.8470 O   0  0  0  0  0  0  0  0  0  0  0  0
  187.6780  177.8970  143.8490 N   0  0  0  0  0  2  0  0  0  0  0  0
  185.5250  178.9650  144.6180 C   0  0  0  0  0  0  0  0  0  0  0  0
  185.5930  179.9330  143.8190 O   0  0  0  0  0  0  0  0  0  0  0  0
  184.9900  177.2100  146.3640 C   0  0  0  0  0  2  0  0  0  0  0  0
  184.1980  178.7630  145.7830 S   0  0  0  0  0  0  0  0  0  0  0  0
  186.5170  177.9220  144.6840 C   0  0  0  0  0  0  0  0  0  0  0  0
  186.2570  177.0000  145.5940 C   0  0  0  0  0  3  0  0  0  0  0  0
  192.0550  176.4740  142.5150 O   0  0  0  0  0  1  0  0  0  0  0  0
  192.1850  176.1740  143.8700 C   0  0  0  0  0  2  0  0  0  0  0  0
  192.9260  171.6970  144.1920 O   0  0  0  0  0  0  0  0  0  0  0  0
  193.3340  172.3940  145.3600 C   0  0  0  0  0  2  0  0  0  0  0  0
  195.3470  173.8680  145.5620 C   0  0  0  0  0  3  0  0  0  0  0  0
  195.6530  171.5080  145.1090 C   0  0  0  0  0  3  0  0  0  0  0  0
  197.0400  171.6900  145.0990 C   0  0  0  0  0  3  0  0  0  0  0  0
  196.7340  174.0490  145.5520 C   0  0  0  0  0  3  0  0  0  0  0  0
  197.5800  172.9610  145.3200 C   0  0  0  0  0  3  0  0  0  0  0  0
  194.8060  172.5980  145.3350 C   0  0  0  0  0  0  0  0  0  0  0  0
  1  9  2  0  0  0  0
  2  5  1  0  0  0  0
  3  6  1  0  0  0  0
  4  7  1  0  0  0  0
  4  3  2  0  0  0  0
  5 21  1  0  0  0  0
  6  5  2  0  0  0  0
  6 40  1  0  0  0  0
  7  2  2  0  0  0  0
  8  1  1  0  0  0  0
  8  7  1  0  0  0  0
  9  2  1  0  0  0  0
 11 10  1  0  0  0  0
 11  3  1  6  0  0  0
 12 11  1  0  0  0  0
 13 12  1  0  0  0  0
 13 14  1  0  0  0  0
 14 16  1  6  0  0  0
 14 10  1  0  0  0  0
 15 12  2  0  0  0  0
 16 17  1  0  0  0  0
 17 18  1  0  0  0  0
 18 20  1  0  0  0  0
 20 19  1  0  0  0  0
 21 22  1  0  0  0  0
 23 26  1  0  0  0  0
 23 25  1  0  0  0  0
 23 24  1  1  0  0  0
 26 22  1  6  0  0  0
 26 25  1  0  0  0  0
 27 39  1  1  0  0  0
 27 23  1  0  0  0  0
 28 27  1  0  0  0  0
 28 30  2  0  0  0  0
 29 28  1  0  0  0  0
 31 29  1  0  0  0  0
 31 36  1  0  0  0  0
 32 36  1  0  0  0  0
 32 35  1  0  0  0  0
 33 32  2  0  0  0  0
 35 34  1  0  0  0  0
 36 37  2  0  0  0  0
 37 34  1  0  0  0  0
 38 39  1  0  0  0  0
 40 41  1  0  0  0  0
 43 47  1  0  0  0  0
 44 43  2  0  0  0  0
 44 46  1  0  0  0  0
 45 42  1  0  0  0  0
 46 45  2  0  0  0  0
 47 41  1  0  0  0  0
 47 42  2  0  0  0  0
M  END
>  <MODEL>
1

>  <REMARK>
 VINA RESULT:      -6.3      0.000      0.000
  Name = 
  16 active torsions:
  status: ('A' for Active; 'I' for Inactive)
    1  A    between atoms: N_2  and  N_19
    2  A    between atoms: N_2  and  C_42
    3  A    between atoms: C_6  and  C_20
    4  A    between atoms: S_8  and  O_30
    5  A    between atoms: S_8  and  C_33
    6  A    between atoms: C_15  and  O_25
    7  A    between atoms: C_15  and  C_39
    8  A    between atoms: C_18  and  C_37
    9  A    between atoms: C_22  and  C_31
   10  A    between atoms: C_23  and  C_37
   11  A    between atoms: C_24  and  O_25
   12  A    between atoms: C_27  and  C_37
   13  A    between atoms: O_30  and  C_35
   14  A    between atoms: C_31  and  C_40
   15  A    between atoms: C_35  and  C_45
   16  A    between atoms: C_36  and  C_40
                            x       y       z     vdW  Elec       q    Type
                         _______ _______ _______ _____ _____    ______ ____

>  <TORSDO>
F 16

$$$$
=
 OpenBabel11072408383D

 47 52  0  0  1  0  0  0  0  0999 V2000
  190.7250  177.2280  147.8990 C   0  0  0  0  0  3  0  0  0  0  0  0
  190.7310  176.3680  145.6890 C   0  0  0  0  0  0  0  0  0  0  0  0
  188.9340  176.8020  143.6070 C   0  0  0  0  0  0  0  0  0  0  0  0
  188.7320  177.4080  144.8570 C   0  0  0  0  0  3  0  0  0  0  0  0
  190.9710  175.7220  144.4670 C   0  0  0  0  0  0  0  0  0  0  0  0
  190.0530  175.9450  143.3940 C   0  0  0  0  0  0  0  0  0  0  0  0
  189.6480  177.1720  145.8710 C   0  0  0  0  0  0  0  0  0  0  0  0
  189.6060  177.6900  147.1470 O   0  0  0  0  0  0  0  0  0  0  0  0
  191.5270  176.3180  146.9460 C   0  0  0  0  0  3  0  0  0  0  0  0
  187.3400  178.4950  142.6650 C   0  0  0  0  0  2  0  0  0  0  0  0
  187.8960  177.0750  142.5520 C   0  0  2  0  0  3  0  0  0  0  0  0
  186.6830  176.2360  142.6820 C   0  0  0  0  0  0  0  0  0  0  0  0
  185.5290  176.9830  142.7390 O   0  0  0  0  0  0  0  0  0  0  0  0
  185.8090  178.3670  142.6110 C   0  0  1  0  0  3  0  0  0  0  0  0
  186.6870  174.9780  142.7050 O   0  0  0  0  0  0  0  0  0  0  0  0
  185.0540  179.2810  143.9890 S   0  0  0  0  0  0  0  0  0  0  0  0
  185.0560  177.9050  145.0180 O   0  0  0  0  0  0  0  0  0  0  0  0
  184.3500  178.3070  146.1530 C   0  0  0  0  0  2  0  0  0  0  0  0
  186.0460  177.1400  147.3530 O   0  0  0  0  0  1  0  0  0  0  0  0
  185.2640  178.2950  147.3620 C   0  0  0  0  0  2  0  0  0  0  0  0
  192.1810  174.8420  144.3370 C   0  0  0  0  0  2  0  0  0  0  0  0
  193.4090  175.6380  143.9050 C   0  0  0  0  0  2  0  0  0  0  0  0
  195.0110  175.1460  141.9910 C   0  0  2  0  0  0  0  0  0  0  0  0
  195.4620  175.5750  140.6060 C   0  0  0  0  0  1  0  0  0  0  0  0
  193.8610  174.1640  141.9400 C   0  0  0  0  0  2  0  0  0  0  0  0
  193.6080  175.5970  142.3910 C   0  0  1  0  0  3  0  0  0  0  0  0
  196.0520  174.8310  143.0790 C   0  0  1  0  0  3  0  0  0  0  0  0
  196.4650  173.3920  143.0560 C   0  0  0  0  0  0  0  0  0  0  0  0
  196.0260  172.5290  144.1000 N   0  0  0  0  0  0  0  0  0  0  0  0
  197.1730  172.9430  142.1130 O   0  0  0  0  0  0  0  0  0  0  0  0
  196.3690  171.1700  144.1120 N   0  0  0  0  0  0  0  0  0  0  0  0
  194.8360  169.8400  145.6120 C   0  0  0  0  0  0  0  0  0  0  0  0
  193.8030  170.0590  144.9320 O   0  0  0  0  0  0  0  0  0  0  0  0
  196.6370  169.1530  147.2560 C   0  0  0  0  0  2  0  0  0  0  0  0
  194.8260  168.8770  147.1060 S   0  0  0  0  0  0  0  0  0  0  0  0
  196.1370  170.3550  145.2640 C   0  0  0  0  0  0  0  0  0  0  0  0
  197.0880  170.0100  146.1140 C   0  0  0  0  0  3  0  0  0  0  0  0
  196.9090  177.0450  143.3650 O   0  0  0  0  0  1  0  0  0  0  0  0
  197.2640  175.7480  142.9960 C   0  0  0  0  0  2  0  0  0  0  0  0
  190.2120  175.3840  142.1140 O   0  0  0  0  0  0  0  0  0  0  0  0
  189.9410  174.0340  141.7650 C   0  0  0  0  0  2  0  0  0  0  0  0
  190.7600  173.4850  139.4640 C   0  0  0  0  0  3  0  0  0  0  0  0
  188.4790  174.2460  139.7540 C   0  0  0  0  0  3  0  0  0  0  0  0
  188.2670  174.1340  138.3760 C   0  0  0  0  0  3  0  0  0  0  0  0
  190.5470  173.3720  138.0860 C   0  0  0  0  0  3  0  0  0  0  0  0
  189.3010  173.6980  137.5420 C   0  0  0  0  0  3  0  0  0  0  0  0
  189.7270  173.9280  140.2980 C   0  0  0  0  0  0  0  0  0  0  0  0
  2  7  1  0  0  0  0
  2  9  1  0  0  0  0
  3  4  1  0  0  0  0
  4  7  2  0  0  0  0
  5  2  2  0  0  0  0
  6  3  2  0  0  0  0
  6  5  1  0  0  0  0
  7  8  1  0  0  0  0
  8  1  1  0  0  0  0
  9  1  2  0  0  0  0
 11 10  1  0  0  0  0
 11 12  1  0  0  0  0
 11  3  1  1  0  0  0
 12 15  2  0  0  0  0
 12 13  1  0  0  0  0
 14 10  1  0  0  0  0
 14 13  1  0  0  0  0
 14 16  1  1  0  0  0
 16 17  1  0  0  0  0
 17 18  1  0  0  0  0
 18 20  1  0  0  0  0
 19 20  1  0  0  0  0
 21  5  1  0  0  0  0
 22 21  1  0  0  0  0
 23 24  1  6  0  0  0
 23 26  1  0  0  0  0
 23 27  1  0  0  0  0
 25 23  1  0  0  0  0
 25 26  1  0  0  0  0
 26 22  1  1  0  0  0
 27 39  1  6  0  0  0
 28 27  1  0  0  0  0
 28 29  1  0  0  0  0
 29 31  2  0  0  0  0
 30 28  2  0  0  0  0
 31 36  1  0  0  0  0
 32 35  1  0  0  0  0
 33 32  2  0  0  0  0
 35 34  1  0  0  0  0
 36 32  1  0  0  0  0
 36 37  2  0  0  0  0
 37 34  1  0  0  0  0
 39 38  1  0  0  0  0
 40  6  1  0  0  0  0
 41 40  1  0  0  0  0
 42 47  1  0  0  0  0
 43 47  2  0  0  0  0
 44 43  1  0  0  0  0
 45 42  2  0  0  0  0
 46 45  1  0  0  0  0
 46 44  2  0  0  0  0
 47 41  1  0  0  0  0
M  END
>  <MODEL>
2

>  <REMARK>
 VINA RESULT:      -6.2      3.189      9.173
  Name = 
  16 active torsions:
  status: ('A' for Active; 'I' for Inactive)
    1  A    between atoms: N_2  and  N_19
    2  A    between atoms: N_2  and  C_42
    3  A    between atoms: C_6  and  C_20
    4  A    between atoms: S_8  and  O_30
    5  A    between atoms: S_8  and  C_33
    6  A    between atoms: C_15  and  O_25
    7  A    between atoms: C_15  and  C_39
    8  A    between atoms: C_18  and  C_37
    9  A    between atoms: C_22  and  C_31
   10  A    between atoms: C_23  and  C_37
   11  A    between atoms: C_24  and  O_25
   12  A    between atoms: C_27  and  C_37
   13  A    between atoms: O_30  and  C_35
   14  A    between atoms: C_31  and  C_40
   15  A    between atoms: C_35  and  C_45
   16  A    between atoms: C_36  and  C_40
                            x       y       z     vdW  Elec       q    Type
                         _______ _______ _______ _____ _____    ______ ____

>  <TORSDO>
F 16

$$$$
=
 OpenBabel11072408383D

 47 52  0  0  1  0  0  0  0  0999 V2000
  190.9910  177.0920  148.4860 C   0  0  0  0  0  3  0  0  0  0  0  0
  191.9970  176.3780  146.4620 C   0  0  0  0  0  0  0  0  0  0  0  0
  190.9800  176.3830  143.8710 C   0  0  0  0  0  0  0  0  0  0  0  0
  190.1980  176.8460  144.9410 C   0  0  0  0  0  3  0  0  0  0  0  0
  192.8150  175.8860  145.4330 C   0  0  0  0  0  0  0  0  0  0  0  0
  192.2980  175.8910  144.1000 C   0  0  0  0  0  0  0  0  0  0  0  0
  190.7380  176.8310  146.2190 C   0  0  0  0  0  0  0  0  0  0  0  0
  190.1160  177.2530  147.3730 O   0  0  0  0  0  0  0  0  0  0  0  0
  192.2940  176.4950  147.9170 C   0  0  0  0  0  3  0  0  0  0  0  0
  189.4430  177.6290  142.3270 C   0  0  0  0  0  2  0  0  0  0  0  0
  190.3350  176.4010  142.5110 C   0  0  2  0  0  3  0  0  0  0  0  0
  189.3970  175.2780  142.2850 C   0  0  0  0  0  0  0  0  0  0  0  0
  188.1480  175.7030  141.8950 O   0  0  0  0  0  0  0  0  0  0  0  0
  188.1050  177.1150  141.7710 C   0  0  1  0  0  3  0  0  0  0  0  0
  189.7030  174.0620  142.3970 O   0  0  0  0  0  0  0  0  0  0  0  0
  186.7230  177.7810  142.7440 S   0  0  0  0  0  0  0  0  0  0  0  0
  186.7480  176.4610  143.8450 O   0  0  0  0  0  0  0  0  0  0  0  0
  186.2490  176.9840  145.0400 C   0  0  0  0  0  2  0  0  0  0  0  0
  185.5260  179.0540  145.9740 O   0  0  0  0  0  1  0  0  0  0  0  0
  186.4060  178.4920  145.0490 C   0  0  0  0  0  2  0  0  0  0  0  0
  194.1930  175.3940  145.7730 C   0  0  0  0  0  2  0  0  0  0  0  0
  194.2900  173.8760  145.6610 C   0  0  0  0  0  2  0  0  0  0  0  0
  195.8280  171.9060  145.1860 C   0  0  2  0  0  0  0  0  0  0  0  0
  197.2180  171.3330  145.4020 C   0  0  0  0  0  1  0  0  0  0  0  0
  195.7570  172.7870  143.9570 C   0  0  0  0  0  2  0  0  0  0  0  0
  195.7130  173.4200  145.3420 C   0  0  1  0  0  3  0  0  0  0  0  0
  194.5880  171.0200  145.3910 C   0  0  1  0  0  3  0  0  0  0  0  0
  194.0260  170.5380  144.0900 C   0  0  0  0  0  0  0  0  0  0  0  0
  192.7190  170.9540  143.7040 N   0  0  0  0  0  2  0  0  0  0  0  0
  194.7060  169.7930  143.3330 O   0  0  0  0  0  0  0  0  0  0  0  0
  192.1560  170.5470  142.4860 N   0  0  0  0  0  2  0  0  0  0  0  0
  191.2280  171.1730  140.2250 C   0  0  0  0  0  0  0  0  0  0  0  0
  190.5420  170.1280  140.0960 O   0  0  0  0  0  0  0  0  0  0  0  0
  192.4380  173.3940  140.0710 C   0  0  0  0  0  2  0  0  0  0  0  0
  191.2920  172.4480  138.9880 S   0  0  0  0  0  0  0  0  0  0  0  0
  192.0460  171.4460  141.3810 C   0  0  0  0  0  0  0  0  0  0  0  0
  192.6880  172.5990  141.3150 C   0  0  0  0  0  3  0  0  0  0  0  0
  193.9750  168.8130  146.0760 O   0  0  0  0  0  1  0  0  0  0  0  0
  194.8650  169.8550  146.3310 C   0  0  0  0  0  2  0  0  0  0  0  0
  193.0380  175.4610  142.9840 O   0  0  0  0  0  0  0  0  0  0  0  0
  193.7470  176.3060  142.0890 C   0  0  0  0  0  2  0  0  0  0  0  0
  195.6850  175.0790  141.0840 C   0  0  0  0  0  3  0  0  0  0  0  0
  196.0470  176.4530  143.0460 C   0  0  0  0  0  3  0  0  0  0  0  0
  197.4050  176.1160  143.0310 C   0  0  0  0  0  3  0  0  0  0  0  0
  197.0420  174.7430  141.0700 C   0  0  0  0  0  3  0  0  0  0  0  0
  197.9020  175.2600  142.0440 C   0  0  0  0  0  3  0  0  0  0  0  0
  195.1850  175.9310  142.0760 C   0  0  0  0  0  0  0  0  0  0  0  0
  2  9  1  0  0  0  0
  3  6  2  0  0  0  0
  3  4  1  0  0  0  0
  4  7  2  0  0  0  0
  5 21  1  0  0  0  0
  5  2  2  0  0  0  0
  6  5  1  0  0  0  0
  7  2  1  0  0  0  0
  7  8  1  0  0  0  0
  8  1  1  0  0  0  0
  9  1  2  0  0  0  0
 10 11  1  0  0  0  0
 11  3  1  1  0  0  0
 12 15  2  0  0  0  0
 12 11  1  0  0  0  0
 13 12  1  0  0  0  0
 14 13  1  0  0  0  0
 14 10  1  0  0  0  0
 14 16  1  1  0  0  0
 16 17  1  0  0  0  0
 17 18  1  0  0  0  0
 18 20  1  0  0  0  0
 20 19  1  0  0  0  0
 22 21  1  0  0  0  0
 23 26  1  0  0  0  0
 23 27  1  0  0  0  0
 23 24  1  1  0  0  0
 25 23  1  0  0  0  0
 25 26  1  0  0  0  0
 26 22  1  1  0  0  0
 27 39  1  1  0  0  0
 28 27  1  0  0  0  0
 29 28  1  0  0  0  0
 30 28  2  0  0  0  0
 31 29  1  0  0  0  0
 32 36  1  0  0  0  0
 33 32  2  0  0  0  0
 34 37  1  0  0  0  0
 35 34  1  0  0  0  0
 35 32  1  0  0  0  0
 36 31  1  0  0  0  0
 37 36  2  0  0  0  0
 38 39  1  0  0  0  0
 40  6  1  0  0  0  0
 41 40  1  0  0  0  0
 42 47  1  0  0  0  0
 44 43  1  0  0  0  0
 45 42  2  0  0  0  0
 45 46  1  0  0  0  0
 46 44  2  0  0  0  0
 47 41  1  0  0  0  0
 47 43  2  0  0  0  0
M  END
>  <MODEL>
3

>  <REMARK>
 VINA RESULT:      -6.0      2.805      7.619
  Name = 
  16 active torsions:
  status: ('A' for Active; 'I' for Inactive)
    1  A    between atoms: N_2  and  N_19
    2  A    between atoms: N_2  and  C_42
    3  A    between atoms: C_6  and  C_20
    4  A    between atoms: S_8  and  O_30
    5  A    between atoms: S_8  and  C_33
    6  A    between atoms: C_15  and  O_25
    7  A    between atoms: C_15  and  C_39
    8  A    between atoms: C_18  and  C_37
    9  A    between atoms: C_22  and  C_31
   10  A    between atoms: C_23  and  C_37
   11  A    between atoms: C_24  and  O_25
   12  A    between atoms: C_27  and  C_37
   13  A    between atoms: O_30  and  C_35
   14  A    between atoms: C_31  and  C_40
   15  A    between atoms: C_35  and  C_45
   16  A    between atoms: C_36  and  C_40
                            x       y       z     vdW  Elec       q    Type
                         _______ _______ _______ _____ _____    ______ ____

>  <TORSDO>
F 16

$$$$
=
 OpenBabel11072408383D

 47 52  0  0  1  0  0  0  0  0999 V2000
  188.6520  172.9240  140.5280 C   0  0  0  0  0  3  0  0  0  0  0  0
  190.1210  172.5760  142.3550 C   0  0  0  0  0  0  0  0  0  0  0  0
  192.8170  171.8820  142.3620 C   0  0  0  0  0  0  0  0  0  0  0  0
  192.1250  172.0270  141.1500 C   0  0  0  0  0  3  0  0  0  0  0  0
  190.7590  172.4260  143.5960 C   0  0  0  0  0  0  0  0  0  0  0  0
  192.1440  172.0740  143.6040 C   0  0  0  0  0  0  0  0  0  0  0  0
  190.7820  172.3760  141.1840 C   0  0  0  0  0  0  0  0  0  0  0  0
  189.9610  172.5650  140.0950 O   0  0  0  0  0  0  0  0  0  0  0  0
  188.7070  172.9460  142.0690 C   0  0  0  0  0  3  0  0  0  0  0  0
  195.1150  172.5880  141.6430 C   0  0  0  0  0  2  0  0  0  0  0  0
  194.2650  171.4800  142.2650 C   0  0  2  0  0  3  0  0  0  0  0  0
  194.5020  170.3350  141.3580 C   0  0  0  0  0  0  0  0  0  0  0  0
  195.4430  170.6120  140.3930 O   0  0  0  0  0  0  0  0  0  0  0  0
  195.9700  171.9190  140.5540 C   0  0  1  0  0  3  0  0  0  0  0  0
  193.9410  169.2130  141.4660 O   0  0  0  0  0  0  0  0  0  0  0  0
  195.8310  172.8390  138.9940 S   0  0  0  0  0  0  0  0  0  0  0  0
  194.7070  173.9600  139.6530 O   0  0  0  0  0  0  0  0  0  0  0  0
  194.6130  174.9740  138.6980 C   0  0  0  0  0  2  0  0  0  0  0  0
  192.4020  174.1560  138.3520 O   0  0  0  0  0  1  0  0  0  0  0  0
  193.5310  174.6360  137.6910 C   0  0  0  0  0  2  0  0  0  0  0  0
  189.9670  172.6560  144.8520 C   0  0  0  0  0  2  0  0  0  0  0  0
  189.4730  174.0960  144.9480 C   0  0  0  0  0  2  0  0  0  0  0  0
  191.1730  175.9700  145.2100 C   0  0  2  0  0  0  0  0  0  0  0  0
  192.3910  176.4460  145.9820 C   0  0  0  0  0  1  0  0  0  0  0  0
  189.8770  176.3800  145.8760 C   0  0  0  0  0  2  0  0  0  0  0  0
  190.3180  174.9220  145.9160 C   0  0  1  0  0  3  0  0  0  0  0  0
  191.1440  176.0720  143.6750 C   0  0  1  0  0  3  0  0  0  0  0  0
  190.3820  177.2730  143.2090 C   0  0  0  0  0  0  0  0  0  0  0  0
  189.2310  177.0870  142.3890 N   0  0  0  0  0  2  0  0  0  0  0  0
  190.7360  178.4320  143.5550 O   0  0  0  0  0  0  0  0  0  0  0  0
  188.4720  178.1780  141.9440 N   0  0  0  0  0  2  0  0  0  0  0  0
  186.3820  178.2790  143.3540 C   0  0  0  0  0  0  0  0  0  0  0  0
  186.9930  178.3450  144.4500 O   0  0  0  0  0  0  0  0  0  0  0  0
  184.7660  178.1670  141.4070 C   0  0  0  0  0  2  0  0  0  0  0  0
  184.6080  178.2610  143.2350 S   0  0  0  0  0  0  0  0  0  0  0  0
  187.0490  178.1980  142.0790 C   0  0  0  0  0  0  0  0  0  0  0  0
  186.2200  178.1340  141.0510 C   0  0  0  0  0  3  0  0  0  0  0  0
  192.5190  175.3990  141.8380 O   0  0  0  0  0  1  0  0  0  0  0  0
  192.5420  176.0460  143.0720 C   0  0  0  0  0  2  0  0  0  0  0  0
  192.8980  171.9360  144.7840 O   0  0  0  0  0  0  0  0  0  0  0  0
  193.3700  173.0050  145.5920 C   0  0  0  0  0  2  0  0  0  0  0  0
  195.3110  174.4280  144.9070 C   0  0  0  0  0  3  0  0  0  0  0  0
  195.7160  172.1580  145.6490 C   0  0  0  0  0  3  0  0  0  0  0  0
  197.0890  172.3390  145.4560 C   0  0  0  0  0  3  0  0  0  0  0  0
  196.6850  174.6090  144.7140 C   0  0  0  0  0  3  0  0  0  0  0  0
  197.5740  173.5640  144.9870 C   0  0  0  0  0  3  0  0  0  0  0  0
  194.8260  173.1990  145.3700 C   0  0  0  0  0  0  0  0  0  0  0  0
  1  9  2  0  0  0  0
  2  5  1  0  0  0  0
  3  6  1  0  0  0  0
  4  7  1  0  0  0  0
  4  3  2  0  0  0  0
  5  6  2  0  0  0  0
  5 21  1  0  0  0  0
  6 40  1  0  0  0  0
  7  2  2  0  0  0  0
  8  1  1  0  0  0  0
  8  7  1  0  0  0  0
  9  2  1  0  0  0  0
 10 11  1  0  0  0  0
 11  3  1  6  0  0  0
 12 15  2  0  0  0  0
 12 11  1  0  0  0  0
 13 14  1  0  0  0  0
 13 12  1  0  0  0  0
 14 16  1  6  0  0  0
 14 10  1  0  0  0  0
 16 17  1  0  0  0  0
 18 17  1  0  0  0  0
 20 19  1  0  0  0  0
 20 18  1  0  0  0  0
 21 22  1  0  0  0  0
 23 25  1  0  0  0  0
 23 26  1  0  0  0  0
 23 24  1  1  0  0  0
 25 26  1  0  0  0  0
 26 22  1  6  0  0  0
 27 39  1  1  0  0  0
 27 23  1  0  0  0  0
 28 30  2  0  0  0  0
 28 27  1  0  0  0  0
 29 28  1  0  0  0  0
 31 36  1  0  0  0  0
 31 29  1  0  0  0  0
 32 33  2  0  0  0  0
 34 35  1  0  0  0  0
 35 32  1  0  0  0  0
 36 32  1  0  0  0  0
 37 34  1  0  0  0  0
 37 36  2  0  0  0  0
 38 39  1  0  0  0  0
 40 41  1  0  0  0  0
 42 47  1  0  0  0  0
 44 43  1  0  0  0  0
 45 42  2  0  0  0  0
 45 46  1  0  0  0  0
 46 44  2  0  0  0  0
 47 41  1  0  0  0  0
 47 43  2  0  0  0  0
M  END
>  <MODEL>
4

>  <REMARK>
 VINA RESULT:      -5.9      1.682      2.263
  Name = 
  16 active torsions:
  status: ('A' for Active; 'I' for Inactive)
    1  A    between atoms: N_2  and  N_19
    2  A    between atoms: N_2  and  C_42
    3  A    between atoms: C_6  and  C_20
    4  A    between atoms: S_8  and  O_30
    5  A    between atoms: S_8  and  C_33
    6  A    between atoms: C_15  and  O_25
    7  A    between atoms: C_15  and  C_39
    8  A    between atoms: C_18  and  C_37
    9  A    between atoms: C_22  and  C_31
   10  A    between atoms: C_23  and  C_37
   11  A    between atoms: C_24  and  O_25
   12  A    between atoms: C_27  and  C_37
   13  A    between atoms: O_30  and  C_35
   14  A    between atoms: C_31  and  C_40
   15  A    between atoms: C_35  and  C_45
   16  A    between atoms: C_36  and  C_40
                            x       y       z     vdW  Elec       q    Type
                         _______ _______ _______ _____ _____    ______ ____

>  <TORSDO>
F 16

$$$$
=
 OpenBabel11072408383D

 47 52  0  0  1  0  0  0  0  0999 V2000
  190.8280  177.0080  148.1490 C   0  0  0  0  0  3  0  0  0  0  0  0
  191.5070  176.5890  145.9170 C   0  0  0  0  0  0  0  0  0  0  0  0
  190.0340  176.7070  143.5570 C   0  0  0  0  0  0  0  0  0  0  0  0
  189.4230  176.9860  144.7900 C   0  0  0  0  0  3  0  0  0  0  0  0
  192.1630  176.2820  144.7140 C   0  0  0  0  0  0  0  0  0  0  0  0
  191.4120  176.3460  143.5000 C   0  0  0  0  0  0  0  0  0  0  0  0
  190.1880  176.9190  145.9460 C   0  0  0  0  0  0  0  0  0  0  0  0
  189.7520  177.1680  147.2280 O   0  0  0  0  0  0  0  0  0  0  0  0
  192.0540  176.6110  147.3010 C   0  0  0  0  0  3  0  0  0  0  0  0
  188.5240  178.1560  142.1730 C   0  0  0  0  0  2  0  0  0  0  0  0
  189.1510  176.7720  142.3400 C   0  0  2  0  0  3  0  0  0  0  0  0
  187.9690  175.8840  142.4170 C   0  0  0  0  0  0  0  0  0  0  0  0
  186.7880  176.5570  142.2070 O   0  0  0  0  0  0  0  0  0  0  0  0
  187.0240  177.9270  141.9260 C   0  0  1  0  0  3  0  0  0  0  0  0
  188.0240  174.6420  142.6170 O   0  0  0  0  0  0  0  0  0  0  0  0
  186.0380  178.9670  143.0430 S   0  0  0  0  0  0  0  0  0  0  0  0
  185.0660  177.6460  143.5570 O   0  0  0  0  0  0  0  0  0  0  0  0
  184.7880  177.9100  144.9000 C   0  0  0  0  0  2  0  0  0  0  0  0
  186.2650  176.7390  146.3570 O   0  0  0  0  0  1  0  0  0  0  0  0
  186.0780  177.9520  145.6960 C   0  0  0  0  0  2  0  0  0  0  0  0
  193.6200  175.9180  144.7550 C   0  0  0  0  0  2  0  0  0  0  0  0
  193.8290  174.4940  145.2590 C   0  0  0  0  0  2  0  0  0  0  0  0
  195.8570  172.9600  145.1850 C   0  0  2  0  0  0  0  0  0  0  0  0
  197.0170  172.3920  145.9830 C   0  0  0  0  0  1  0  0  0  0  0  0
  196.2060  174.2760  144.5250 C   0  0  0  0  0  2  0  0  0  0  0  0
  195.2660  174.2600  145.7230 C   0  0  1  0  0  3  0  0  0  0  0  0
  194.9950  172.0330  144.3100 C   0  0  1  0  0  3  0  0  0  0  0  0
  195.5580  171.8850  142.9310 C   0  0  0  0  0  0  0  0  0  0  0  0
  194.8720  172.4850  141.8350 N   0  0  0  0  0  0  0  0  0  0  0  0
  196.6360  171.2590  142.7410 O   0  0  0  0  0  0  0  0  0  0  0  0
  195.3690  172.3930  140.5280 N   0  0  0  0  0  0  0  0  0  0  0  0
  194.9070  174.3550  139.0100 C   0  0  0  0  0  0  0  0  0  0  0  0
  195.7280  175.1230  139.5730 O   0  0  0  0  0  0  0  0  0  0  0  0
  193.1720  173.1680  137.5960 C   0  0  0  0  0  2  0  0  0  0  0  0
  193.9030  174.8540  137.6310 S   0  0  0  0  0  0  0  0  0  0  0  0
  194.6820  172.9930  139.4280 C   0  0  0  0  0  0  0  0  0  0  0  0
  193.7760  172.3600  138.7030 C   0  0  0  0  0  3  0  0  0  0  0  0
  193.4770  170.2310  144.7170 O   0  0  0  0  0  1  0  0  0  0  0  0
  194.7760  170.6730  144.9580 C   0  0  0  0  0  2  0  0  0  0  0  0
  191.9710  176.1000  142.2330 O   0  0  0  0  0  0  0  0  0  0  0  0
  192.5950  174.8900  141.8270 C   0  0  0  0  0  2  0  0  0  0  0  0
  190.8140  173.5690  140.6670 C   0  0  0  0  0  3  0  0  0  0  0  0
  191.4560  172.9590  142.9210 C   0  0  0  0  0  3  0  0  0  0  0  0
  190.5270  171.9130  142.9030 C   0  0  0  0  0  3  0  0  0  0  0  0
  189.8860  172.5230  140.6490 C   0  0  0  0  0  3  0  0  0  0  0  0
  189.7420  171.6950  141.7670 C   0  0  0  0  0  3  0  0  0  0  0  0
  191.5960  173.7910  141.8060 C   0  0  0  0  0  0  0  0  0  0  0  0
  2  7  1  0  0  0  0
  2  9  1  0  0  0  0
  3  4  1  0  0  0  0
  4  7  2  0  0  0  0
  5 21  1  0  0  0  0
  5  2  2  0  0  0  0
  6  3  2  0  0  0  0
  6  5  1  0  0  0  0
  7  8  1  0  0  0  0
  8  1  1  0  0  0  0
  9  1  2  0  0  0  0
 10 11  1  0  0  0  0
 11 12  1  0  0  0  0
 11  3  1  1  0  0  0
 12 15  2  0  0  0  0
 13 12  1  0  0  0  0
 14 10  1  0  0  0  0
 14 13  1  0  0  0  0
 14 16  1  1  0  0  0
 16 17  1  0  0  0  0
 17 18  1  0  0  0  0
 18 20  1  0  0  0  0
 20 19  1  0  0  0  0
 21 22  1  0  0  0  0
 23 26  1  0  0  0  0
 23 24  1  1  0  0  0
 25 23  1  0  0  0  0
 25 26  1  0  0  0  0
 26 22  1  6  0  0  0
 27 39  1  1  0  0  0
 27 23  1  0  0  0  0
 28 27  1  0  0  0  0
 29 28  1  0  0  0  0
 30 28  2  0  0  0  0
 31 29  2  0  0  0  0
 32 36  1  0  0  0  0
 32 33  2  0  0  0  0
 34 35  1  0  0  0  0
 34 37  1  0  0  0  0
 35 32  1  0  0  0  0
 36 31  1  0  0  0  0
 37 36  2  0  0  0  0
 38 39  1  0  0  0  0
 40  6  1  0  0  0  0
 41 40  1  0  0  0  0
 42 47  1  0  0  0  0
 44 43  1  0  0  0  0
 45 42  2  0  0  0  0
 45 46  1  0  0  0  0
 46 44  2  0  0  0  0
 47 41  1  0  0  0  0
 47 43  2  0  0  0  0
M  END
>  <MODEL>
5

>  <REMARK>
 VINA RESULT:      -5.8      2.672      8.318
  Name = 
  16 active torsions:
  status: ('A' for Active; 'I' for Inactive)
    1  A    between atoms: N_2  and  N_19
    2  A    between atoms: N_2  and  C_42
    3  A    between atoms: C_6  and  C_20
    4  A    between atoms: S_8  and  O_30
    5  A    between atoms: S_8  and  C_33
    6  A    between atoms: C_15  and  O_25
    7  A    between atoms: C_15  and  C_39
    8  A    between atoms: C_18  and  C_37
    9  A    between atoms: C_22  and  C_31
   10  A    between atoms: C_23  and  C_37
   11  A    between atoms: C_24  and  O_25
   12  A    between atoms: C_27  and  C_37
   13  A    between atoms: O_30  and  C_35
   14  A    between atoms: C_31  and  C_40
   15  A    between atoms: C_35  and  C_45
   16  A    between atoms: C_36  and  C_40
                            x       y       z     vdW  Elec       q    Type
                         _______ _______ _______ _____ _____    ______ ____

>  <TORSDO>
F 16

$$$$
=
 OpenBabel11072408383D

 47 52  0  0  1  0  0  0  0  0999 V2000
  187.3070  176.6850  140.4700 C   0  0  0  0  0  3  0  0  0  0  0  0
  188.8460  176.4090  142.2520 C   0  0  0  0  0  0  0  0  0  0  0  0
  190.3910  174.1980  142.9410 C   0  0  0  0  0  0  0  0  0  0  0  0
  189.5230  174.1420  141.8390 C   0  0  0  0  0  3  0  0  0  0  0  0
  189.6810  176.5150  143.3740 C   0  0  0  0  0  0  0  0  0  0  0  0
  190.4790  175.3830  143.7300 C   0  0  0  0  0  0  0  0  0  0  0  0
  188.7700  175.2630  141.5230 C   0  0  0  0  0  0  0  0  0  0  0  0
  187.8810  175.3810  140.4770 O   0  0  0  0  0  0  0  0  0  0  0  0
  187.9340  177.4300  141.6650 C   0  0  0  0  0  3  0  0  0  0  0  0
  192.0940  172.5590  142.1010 C   0  0  0  0  0  2  0  0  0  0  0  0
  191.1650  172.9450  143.2520 C   0  0  2  0  0  3  0  0  0  0  0  0
  190.3130  171.7440  143.4030 C   0  0  0  0  0  0  0  0  0  0  0  0
  190.7060  170.7120  142.5830 O   0  0  0  0  0  0  0  0  0  0  0  0
  191.8600  171.0630  141.8370 C   0  0  1  0  0  3  0  0  0  0  0  0
  189.3550  171.6490  144.2130 O   0  0  0  0  0  0  0  0  0  0  0  0
  191.5630  170.7780  140.0670 S   0  0  0  0  0  0  0  0  0  0  0  0
  191.6480  172.4520  139.6920 O   0  0  0  0  0  0  0  0  0  0  0  0
  191.2160  172.5440  138.3670 C   0  0  0  0  0  2  0  0  0  0  0  0
  189.3460  171.9320  137.0230 O   0  0  0  0  0  1  0  0  0  0  0  0
  189.7130  172.3540  138.3000 C   0  0  0  0  0  2  0  0  0  0  0  0
  189.7110  177.8070  144.1380 C   0  0  0  0  0  2  0  0  0  0  0  0
  188.3890  178.0670  144.8540 C   0  0  0  0  0  2  0  0  0  0  0  0
  186.7210  177.1490  146.5400 C   0  0  2  0  0  0  0  0  0  0  0  0
  186.5350  176.2200  147.7260 C   0  0  0  0  0  1  0  0  0  0  0  0
  186.5340  176.4360  145.2190 C   0  0  0  0  0  2  0  0  0  0  0  0
  187.9310  176.8530  145.6590 C   0  0  1  0  0  3  0  0  0  0  0  0
  186.1280  178.5690  146.5710 C   0  0  1  0  0  3  0  0  0  0  0  0
  184.7770  178.6230  145.9280 C   0  0  0  0  0  0  0  0  0  0  0  0
  184.6530  179.1820  144.6240 N   0  0  0  0  0  2  0  0  0  0  0  0
  183.7650  178.1600  146.5210 O   0  0  0  0  0  0  0  0  0  0  0  0
  183.4140  179.2380  143.9710 N   0  0  0  0  0  2  0  0  0  0  0  0
  181.9800  178.7040  141.9640 C   0  0  0  0  0  0  0  0  0  0  0  0
  180.9070  179.0900  142.4920 O   0  0  0  0  0  0  0  0  0  0  0  0
  183.8790  177.8330  140.5310 C   0  0  0  0  0  2  0  0  0  0  0  0
  182.0650  178.0340  140.3200 S   0  0  0  0  0  0  0  0  0  0  0  0
  183.2550  178.7520  142.6360 C   0  0  0  0  0  0  0  0  0  0  0  0
  184.2570  178.2970  141.9040 C   0  0  0  0  0  3  0  0  0  0  0  0
  187.3790  179.3300  148.4610 O   0  0  0  0  0  1  0  0  0  0  0  0
  186.0840  179.1400  147.9820 C   0  0  0  0  0  2  0  0  0  0  0  0
  191.3830  175.3840  144.8080 O   0  0  0  0  0  0  0  0  0  0  0  0
  192.5900  176.1290  144.8720 C   0  0  0  0  0  2  0  0  0  0  0  0
  193.5150  176.2610  142.5500 C   0  0  0  0  0  3  0  0  0  0  0  0
  194.4360  174.6410  144.0970 C   0  0  0  0  0  3  0  0  0  0  0  0
  195.3300  174.2080  143.1110 C   0  0  0  0  0  3  0  0  0  0  0  0
  194.4080  175.8280  141.5650 C   0  0  0  0  0  3  0  0  0  0  0  0
  195.3150  174.8000  141.8450 C   0  0  0  0  0  3  0  0  0  0  0  0
  193.5250  175.6630  143.8150 C   0  0  0  0  0  0  0  0  0  0  0  0
  1  8  1  0  0  0  0
  1  9  2  0  0  0  0
  2  5  1  0  0  0  0
  3  6  1  0  0  0  0
  4  3  2  0  0  0  0
  5  6  2  0  0  0  0
  5 21  1  0  0  0  0
  6 40  1  0  0  0  0
  7  4  1  0  0  0  0
  7  2  2  0  0  0  0
  8  7  1  0  0  0  0
  9  2  1  0  0  0  0
 10 11  1  0  0  0  0
 11  3  1  6  0  0  0
 11 12  1  0  0  0  0
 12 15  2  0  0  0  0
 13 12  1  0  0  0  0
 14 16  1  6  0  0  0
 14 10  1  0  0  0  0
 14 13  1  0  0  0  0
 17 16  1  0  0  0  0
 18 17  1  0  0  0  0
 19 20  1  0  0  0  0
 20 18  1  0  0  0  0
 21 22  1  0  0  0  0
 23 27  1  0  0  0  0
 23 24  1  1  0  0  0
 25 26  1  0  0  0  0
 25 23  1  0  0  0  0
 26 22  1  6  0  0  0
 26 23  1  0  0  0  0
 27 39  1  1  0  0  0
 28 30  2  0  0  0  0
 28 27  1  0  0  0  0
 29 28  1  0  0  0  0
 31 29  1  0  0  0  0
 32 33  2  0  0  0  0
 32 36  1  0  0  0  0
 34 37  1  0  0  0  0
 35 34  1  0  0  0  0
 35 32  1  0  0  0  0
 36 31  1  0  0  0  0
 37 36  2  0  0  0  0
 39 38  1  0  0  0  0
 40 41  1  0  0  0  0
 42 47  1  0  0  0  0
 44 43  1  0  0  0  0
 45 46  1  0  0  0  0
 45 42  2  0  0  0  0
 46 44  2  0  0  0  0
 47 43  2  0  0  0  0
 47 41  1  0  0  0  0
M  END
>  <MODEL>
6

>  <REMARK>
 VINA RESULT:      -5.7      2.867      5.247
  Name = 
  16 active torsions:
  status: ('A' for Active; 'I' for Inactive)
    1  A    between atoms: N_2  and  N_19
    2  A    between atoms: N_2  and  C_42
    3  A    between atoms: C_6  and  C_20
    4  A    between atoms: S_8  and  O_30
    5  A    between atoms: S_8  and  C_33
    6  A    between atoms: C_15  and  O_25
    7  A    between atoms: C_15  and  C_39
    8  A    between atoms: C_18  and  C_37
    9  A    between atoms: C_22  and  C_31
   10  A    between atoms: C_23  and  C_37
   11  A    between atoms: C_24  and  O_25
   12  A    between atoms: C_27  and  C_37
   13  A    between atoms: O_30  and  C_35
   14  A    between atoms: C_31  and  C_40
   15  A    between atoms: C_35  and  C_45
   16  A    between atoms: C_36  and  C_40
                            x       y       z     vdW  Elec       q    Type
                         _______ _______ _______ _____ _____    ______ ____

>  <TORSDO>
F 16

$$$$
=
 OpenBabel11072408383D

 47 52  0  0  1  0  0  0  0  0999 V2000
  190.2790  172.7470  141.0820 C   0  0  0  0  0  3  0  0  0  0  0  0
  189.5040  174.2710  142.7230 C   0  0  0  0  0  0  0  0  0  0  0  0
  190.9430  175.8110  144.5420 C   0  0  0  0  0  0  0  0  0  0  0  0
  191.6100  174.9520  143.6540 C   0  0  0  0  0  3  0  0  0  0  0  0
  188.7840  175.0980  143.6000 C   0  0  0  0  0  0  0  0  0  0  0  0
  189.5200  175.8930  144.5330 C   0  0  0  0  0  0  0  0  0  0  0  0
  190.8620  174.2010  142.7600 C   0  0  0  0  0  0  0  0  0  0  0  0
  191.3530  173.3210  141.8210 O   0  0  0  0  0  0  0  0  0  0  0  0
  188.9900  173.3640  141.6600 C   0  0  0  0  0  3  0  0  0  0  0  0
  193.1640  176.9240  144.8950 C   0  0  0  0  0  2  0  0  0  0  0  0
  191.8040  176.5830  145.5050 C   0  0  2  0  0  3  0  0  0  0  0  0
  192.1710  175.8170  146.7180 C   0  0  0  0  0  0  0  0  0  0  0  0
  193.5300  175.7790  146.9270 O   0  0  0  0  0  0  0  0  0  0  0  0
  194.2200  176.5290  145.9400 C   0  0  1  0  0  3  0  0  0  0  0  0
  191.3420  175.2830  147.5000 O   0  0  0  0  0  0  0  0  0  0  0  0
  195.5090  175.5040  145.1720 S   0  0  0  0  0  0  0  0  0  0  0  0
  195.4740  176.4010  143.7070 O   0  0  0  0  0  0  0  0  0  0  0  0
  196.1720  175.6130  142.7900 C   0  0  0  0  0  2  0  0  0  0  0  0
  194.2210  176.0250  141.4860 O   0  0  0  0  0  1  0  0  0  0  0  0
  195.2220  175.0860  141.7320 C   0  0  0  0  0  2  0  0  0  0  0  0
  187.2850  175.1220  143.5090 C   0  0  0  0  0  2  0  0  0  0  0  0
  186.7730  176.4790  143.0370 C   0  0  0  0  0  2  0  0  0  0  0  0
  186.2240  177.8970  140.9990 C   0  0  2  0  0  0  0  0  0  0  0  0
  185.8650  177.8680  139.5230 C   0  0  0  0  0  1  0  0  0  0  0  0
  187.7200  177.9120  141.2240 C   0  0  0  0  0  2  0  0  0  0  0  0
  186.9240  176.6490  141.5270 C   0  0  1  0  0  3  0  0  0  0  0  0
  185.4390  178.8000  141.9660 C   0  0  1  0  0  3  0  0  0  0  0  0
  184.0560  178.2830  142.2150 C   0  0  0  0  0  0  0  0  0  0  0  0
  183.0800  178.3940  141.1820 N   0  0  0  0  0  2  0  0  0  0  0  0
  183.7630  177.7360  143.3120 O   0  0  0  0  0  0  0  0  0  0  0  0
  181.7770  177.9070  141.3580 N   0  0  0  0  0  2  0  0  0  0  0  0
  179.2940  178.3440  141.4640 C   0  0  0  0  0  0  0  0  0  0  0  0
  179.0170  177.2570  142.0320 O   0  0  0  0  0  0  0  0  0  0  0  0
  179.3970  180.6130  140.3430 C   0  0  0  0  0  2  0  0  0  0  0  0
  178.0620  179.5430  141.0140 S   0  0  0  0  0  0  0  0  0  0  0  0
  180.6360  178.7300  141.1060 C   0  0  0  0  0  0  0  0  0  0  0  0
  180.7080  179.9100  140.5150 C   0  0  0  0  0  3  0  0  0  0  0  0
  185.7180  180.1750  143.9020 O   0  0  0  0  0  1  0  0  0  0  0  0
  186.1830  179.0200  143.2760 C   0  0  0  0  0  2  0  0  0  0  0  0
  188.9110  176.7880  145.4320 O   0  0  0  0  0  0  0  0  0  0  0  0
  188.2420  176.4250  146.6310 C   0  0  0  0  0  2  0  0  0  0  0  0
  187.1040  178.5340  147.3550 C   0  0  0  0  0  3  0  0  0  0  0  0
  185.7850  176.7610  146.3630 C   0  0  0  0  0  3  0  0  0  0  0  0
  184.6320  177.5420  146.5010 C   0  0  0  0  0  3  0  0  0  0  0  0
  185.9520  179.3140  147.4920 C   0  0  0  0  0  3  0  0  0  0  0  0
  184.7150  178.8180  147.0670 C   0  0  0  0  0  3  0  0  0  0  0  0
  187.0200  177.2540  146.7950 C   0  0  0  0  0  0  0  0  0  0  0  0
  1  9  2  0  0  0  0
  1  8  1  0  0  0  0
  2  7  2  0  0  0  0
  2  5  1  0  0  0  0
  4  3  2  0  0  0  0
  5  6  2  0  0  0  0
  6  3  1  0  0  0  0
  6 40  1  0  0  0  0
  7  4  1  0  0  0  0
  8  7  1  0  0  0  0
  9  2  1  0  0  0  0
 10 11  1  0  0  0  0
 10 14  1  0  0  0  0
 11  3  1  6  0  0  0
 11 12  1  0  0  0  0
 12 13  1  0  0  0  0
 12 15  2  0  0  0  0
 14 16  1  6  0  0  0
 14 13  1  0  0  0  0
 17 16  1  0  0  0  0
 18 17  1  0  0  0  0
 19 20  1  0  0  0  0
 20 18  1  0  0  0  0
 21  5  1  0  0  0  0
 22 21  1  0  0  0  0
 23 24  1  6  0  0  0
 23 25  1  0  0  0  0
 23 26  1  0  0  0  0
 23 27  1  0  0  0  0
 25 26  1  0  0  0  0
 26 22  1  1  0  0  0
 27 28  1  0  0  0  0
 27 39  1  1  0  0  0
 28 30  2  0  0  0  0
 29 31  1  0  0  0  0
 29 28  1  0  0  0  0
 32 33  2  0  0  0  0
 34 37  1  0  0  0  0
 34 35  1  0  0  0  0
 35 32  1  0  0  0  0
 36 31  1  0  0  0  0
 36 32  1  0  0  0  0
 37 36  2  0  0  0  0
 39 38  1  0  0  0  0
 40 41  1  0  0  0  0
 41 47  1  0  0  0  0
 42 45  1  0  0  0  0
 43 44  2  0  0  0  0
 43 47  1  0  0  0  0
 44 46  1  0  0  0  0
 46 45  2  0  0  0  0
 47 42  2  0  0  0  0
M  END
>  <MODEL>
7

>  <REMARK>
 VINA RESULT:      -5.6      3.567      7.038
  Name = 
  16 active torsions:
  status: ('A' for Active; 'I' for Inactive)
    1  A    between atoms: N_2  and  N_19
    2  A    between atoms: N_2  and  C_42
    3  A    between atoms: C_6  and  C_20
    4  A    between atoms: S_8  and  O_30
    5  A    between atoms: S_8  and  C_33
    6  A    between atoms: C_15  and  O_25
    7  A    between atoms: C_15  and  C_39
    8  A    between atoms: C_18  and  C_37
    9  A    between atoms: C_22  and  C_31
   10  A    between atoms: C_23  and  C_37
   11  A    between atoms: C_24  and  O_25
   12  A    between atoms: C_27  and  C_37
   13  A    between atoms: O_30  and  C_35
   14  A    between atoms: C_31  and  C_40
   15  A    between atoms: C_35  and  C_45
   16  A    between atoms: C_36  and  C_40
                            x       y       z     vdW  Elec       q    Type
                         _______ _______ _______ _____ _____    ______ ____

>  <TORSDO>
F 16

$$$$
=
 OpenBabel11072408383D

 47 52  0  0  1  0  0  0  0  0999 V2000
  187.9310  172.6380  142.0410 C   0  0  0  0  0  3  0  0  0  0  0  0
  190.2890  172.5870  142.2810 C   0  0  0  0  0  0  0  0  0  0  0  0
  192.2790  173.0520  140.3900 C   0  0  0  0  0  0  0  0  0  0  0  0
  190.9250  173.1220  140.0270 C   0  0  0  0  0  3  0  0  0  0  0  0
  191.6270  172.4850  142.6940 C   0  0  0  0  0  0  0  0  0  0  0  0
  192.6520  172.7270  141.7280 C   0  0  0  0  0  0  0  0  0  0  0  0
  189.9600  172.8870  140.9960 C   0  0  0  0  0  0  0  0  0  0  0  0
  188.5950  172.9230  140.8130 O   0  0  0  0  0  0  0  0  0  0  0  0
  189.0460  172.4000  143.0800 C   0  0  0  0  0  3  0  0  0  0  0  0
  192.6670  174.0700  138.1300 C   0  0  0  0  0  2  0  0  0  0  0  0
  193.2820  173.2930  139.2940 C   0  0  2  0  0  3  0  0  0  0  0  0
  193.7600  172.0520  138.6440 C   0  0  0  0  0  0  0  0  0  0  0  0
  193.6000  172.0760  137.2780 O   0  0  0  0  0  0  0  0  0  0  0  0
  193.0550  173.3140  136.8490 C   0  0  1  0  0  3  0  0  0  0  0  0
  194.2880  171.0860  139.2550 O   0  0  0  0  0  0  0  0  0  0  0  0
  191.5840  173.0210  135.8230 S   0  0  0  0  0  0  0  0  0  0  0  0
  190.7410  174.3580  136.4960 O   0  0  0  0  0  0  0  0  0  0  0  0
  189.9140  174.8130  135.4670 C   0  0  0  0  0  2  0  0  0  0  0  0
  188.2000  176.4690  135.4310 O   0  0  0  0  0  1  0  0  0  0  0  0
  188.5860  175.2730  136.0360 C   0  0  0  0  0  2  0  0  0  0  0  0
  191.9190  172.1430  144.1270 C   0  0  0  0  0  2  0  0  0  0  0  0
  191.4290  173.2330  145.0750 C   0  0  0  0  0  2  0  0  0  0  0  0
  192.0500  175.6920  144.8870 C   0  0  2  0  0  0  0  0  0  0  0  0
  193.1710  176.6730  144.5880 C   0  0  0  0  0  1  0  0  0  0  0  0
  192.0050  175.3030  146.3480 C   0  0  0  0  0  2  0  0  0  0  0  0
  192.4980  174.2980  145.3160 C   0  0  1  0  0  3  0  0  0  0  0  0
  190.6630  175.8880  144.2500 C   0  0  1  0  0  3  0  0  0  0  0  0
  189.8500  176.9070  144.9860 C   0  0  0  0  0  0  0  0  0  0  0  0
  188.6830  176.4850  145.6870 N   0  0  0  0  0  2  0  0  0  0  0  0
  190.2030  178.1170  145.0070 O   0  0  0  0  0  0  0  0  0  0  0  0
  187.8990  177.3970  146.4070 N   0  0  0  0  0  2  0  0  0  0  0  0
  185.5100  178.1310  146.7560 C   0  0  0  0  0  0  0  0  0  0  0  0
  185.5390  178.0020  148.0060 O   0  0  0  0  0  0  0  0  0  0  0  0
  185.0150  178.5300  144.3040 C   0  0  0  0  0  2  0  0  0  0  0  0
  184.0630  178.6620  145.8710 S   0  0  0  0  0  0  0  0  0  0  0  0
  186.6400  177.8540  145.9060 C   0  0  0  0  0  0  0  0  0  0  0  0
  186.3980  178.0520  144.6220 C   0  0  0  0  0  3  0  0  0  0  0  0
  189.5130  176.0630  142.1610 O   0  0  0  0  0  1  0  0  0  0  0  0
  190.7560  176.2300  142.7690 C   0  0  0  0  0  2  0  0  0  0  0  0
  194.0240  172.6930  142.0330 O   0  0  0  0  0  0  0  0  0  0  0  0
  194.8010  173.8000  142.4670 C   0  0  0  0  0  2  0  0  0  0  0  0
  196.0780  174.4640  144.5140 C   0  0  0  0  0  3  0  0  0  0  0  0
  195.5710  172.1240  144.1470 C   0  0  0  0  0  3  0  0  0  0  0  0
  196.2200  171.7960  145.3420 C   0  0  0  0  0  3  0  0  0  0  0  0
  196.7260  174.1360  145.7090 C   0  0  0  0  0  3  0  0  0  0  0  0
  196.7980  172.8010  146.1230 C   0  0  0  0  0  3  0  0  0  0  0  0
  195.5050  173.4570  143.7300 C   0  0  0  0  0  0  0  0  0  0  0  0
  1  9  2  0  0  0  0
  2  5  1  0  0  0  0
  2  9  1  0  0  0  0
  3  6  1  0  0  0  0
  4  3  2  0  0  0  0
  4  7  1  0  0  0  0
  5 21  1  0  0  0  0
  6 40  1  0  0  0  0
  6  5  2  0  0  0  0
  7  2  2  0  0  0  0
  8  7  1  0  0  0  0
  8  1  1  0  0  0  0
 10 11  1  0  0  0  0
 11  3  1  1  0  0  0
 12 15  2  0  0  0  0
 12 11  1  0  0  0  0
 13 12  1  0  0  0  0
 14 16  1  6  0  0  0
 14 13  1  0  0  0  0
 14 10  1  0  0  0  0
 16 17  1  0  0  0  0
 18 20  1  0  0  0  0
 18 17  1  0  0  0  0
 19 20  1  0  0  0  0
 21 22  1  0  0  0  0
 23 24  1  6  0  0  0
 23 26  1  0  0  0  0
 23 25  1  0  0  0  0
 26 22  1  6  0  0  0
 26 25  1  0  0  0  0
 27 39  1  6  0  0  0
 27 23  1  0  0  0  0
 27 28  1  0  0  0  0
 28 30  2  0  0  0  0
 28 29  1  0  0  0  0
 29 31  1  0  0  0  0
 32 33  2  0  0  0  0
 34 37  1  0  0  0  0
 34 35  1  0  0  0  0
 35 32  1  0  0  0  0
 36 31  1  0  0  0  0
 36 32  1  0  0  0  0
 37 36  2  0  0  0  0
 38 39  1  0  0  0  0
 40 41  1  0  0  0  0
 41 47  1  0  0  0  0
 42 45  1  0  0  0  0
 43 44  2  0  0  0  0
 44 46  1  0  0  0  0
 45 46  2  0  0  0  0
 47 43  1  0  0  0  0
 47 42  2  0  0  0  0
M  END
>  <MODEL>
8

>  <REMARK>
 VINA RESULT:      -5.6      2.338      3.647
  Name = 
  16 active torsions:
  status: ('A' for Active; 'I' for Inactive)
    1  A    between atoms: N_2  and  N_19
    2  A    between atoms: N_2  and  C_42
    3  A    between atoms: C_6  and  C_20
    4  A    between atoms: S_8  and  O_30
    5  A    between atoms: S_8  and  C_33
    6  A    between atoms: C_15  and  O_25
    7  A    between atoms: C_15  and  C_39
    8  A    between atoms: C_18  and  C_37
    9  A    between atoms: C_22  and  C_31
   10  A    between atoms: C_23  and  C_37
   11  A    between atoms: C_24  and  O_25
   12  A    between atoms: C_27  and  C_37
   13  A    between atoms: O_30  and  C_35
   14  A    between atoms: C_31  and  C_40
   15  A    between atoms: C_35  and  C_45
   16  A    between atoms: C_36  and  C_40
                            x       y       z     vdW  Elec       q    Type
                         _______ _______ _______ _____ _____    ______ ____

>  <TORSDO>
F 16

$$$$
=
 OpenBabel11072408383D

 47 52  0  0  1  0  0  0  0  0999 V2000
  194.6890  175.9430  141.3970 C   0  0  0  0  0  3  0  0  0  0  0  0
  194.1380  174.1520  142.8490 C   0  0  0  0  0  0  0  0  0  0  0  0
  192.7670  171.7880  142.3160 C   0  0  0  0  0  0  0  0  0  0  0  0
  192.9750  172.7330  141.2990 C   0  0  0  0  0  3  0  0  0  0  0  0
  193.9420  173.2520  143.9080 C   0  0  0  0  0  0  0  0  0  0  0  0
  193.2420  172.0350  143.6380 C   0  0  0  0  0  0  0  0  0  0  0  0
  193.6650  173.8980  141.5990 C   0  0  0  0  0  0  0  0  0  0  0  0
  193.9610  174.9200  140.7240 O   0  0  0  0  0  0  0  0  0  0  0  0
  194.8370  175.4670  142.8570 C   0  0  0  0  0  3  0  0  0  0  0  0
  192.6140  169.8470  140.7340 C   0  0  0  0  0  2  0  0  0  0  0  0
  191.9930  170.5530  141.9390 C   0  0  2  0  0  3  0  0  0  0  0  0
  190.6140  170.8350  141.4800 C   0  0  0  0  0  0  0  0  0  0  0  0
  190.3480  170.2920  140.2440 O   0  0  0  0  0  0  0  0  0  0  0  0
  191.4620  169.5630  139.7560 C   0  0  1  0  0  3  0  0  0  0  0  0
  189.7570  171.4700  142.1490 O   0  0  0  0  0  0  0  0  0  0  0  0
  191.8980  170.1400  138.0890 S   0  0  0  0  0  0  0  0  0  0  0  0
  190.3690  170.8890  137.8530 O   0  0  0  0  0  0  0  0  0  0  0  0
  190.0730  170.6770  136.5050 C   0  0  0  0  0  2  0  0  0  0  0  0
  190.1880  173.0550  136.4130 O   0  0  0  0  0  1  0  0  0  0  0  0
  190.4670  171.8940  135.6920 C   0  0  0  0  0  2  0  0  0  0  0  0
  194.4860  173.5970  145.2640 C   0  0  0  0  0  2  0  0  0  0  0  0
  193.4170  174.2230  146.1550 C   0  0  0  0  0  2  0  0  0  0  0  0
  191.9090  176.1120  145.3620 C   0  0  2  0  0  0  0  0  0  0  0  0
  191.8570  177.4280  144.6070 C   0  0  0  0  0  1  0  0  0  0  0  0
  192.2170  176.3070  146.8310 C   0  0  0  0  0  2  0  0  0  0  0  0
  193.2800  175.7240  145.9090 C   0  0  1  0  0  3  0  0  0  0  0  0
  190.8610  175.0210  145.0840 C   0  0  1  0  0  3  0  0  0  0  0  0
  189.6390  175.1920  145.9320 C   0  0  0  0  0  0  0  0  0  0  0  0
  188.8390  176.3600  145.7640 N   0  0  0  0  0  2  0  0  0  0  0  0
  189.3060  174.3070  146.7660 O   0  0  0  0  0  0  0  0  0  0  0  0
  187.6740  176.5570  146.5200 N   0  0  0  0  0  2  0  0  0  0  0  0
  185.5760  177.9400  146.7480 C   0  0  0  0  0  0  0  0  0  0  0  0
  185.6840  178.0970  147.9900 O   0  0  0  0  0  0  0  0  0  0  0  0
  184.9750  177.8810  144.2880 C   0  0  0  0  0  2  0  0  0  0  0  0
  184.2270  178.6070  145.8020 S   0  0  0  0  0  0  0  0  0  0  0  0
  186.5240  177.1940  145.9590 C   0  0  0  0  0  0  0  0  0  0  0  0
  186.2230  177.1490  144.6720 C   0  0  0  0  0  3  0  0  0  0  0  0
  189.2540  174.3230  143.4570 O   0  0  0  0  0  1  0  0  0  0  0  0
  190.4940  174.9400  143.6090 C   0  0  0  0  0  2  0  0  0  0  0  0
  193.0210  171.0400  144.6080 O   0  0  0  0  0  0  0  0  0  0  0  0
  193.5010  169.7050  144.5450 C   0  0  0  0  0  2  0  0  0  0  0  0
  195.7520  170.1870  145.5280 C   0  0  0  0  0  3  0  0  0  0  0  0
  194.2860  168.6190  146.6490 C   0  0  0  0  0  3  0  0  0  0  0  0
  195.2530  168.4270  147.6430 C   0  0  0  0  0  3  0  0  0  0  0  0
  196.7170  169.9960  146.5210 C   0  0  0  0  0  3  0  0  0  0  0  0
  196.4680  169.1140  147.5780 C   0  0  0  0  0  3  0  0  0  0  0  0
  194.5380  169.4940  145.5890 C   0  0  0  0  0  0  0  0  0  0  0  0
  1  9  2  0  0  0  0
  2  9  1  0  0  0  0
  2  5  1  0  0  0  0
  3  6  1  0  0  0  0
  4  7  1  0  0  0  0
  4  3  2  0  0  0  0
  5 21  1  0  0  0  0
  6  5  2  0  0  0  0
  6 40  1  0  0  0  0
  7  2  2  0  0  0  0
  8  1  1  0  0  0  0
  8  7  1  0  0  0  0
 10 11  1  0  0  0  0
 11  3  1  6  0  0  0
 12 11  1  0  0  0  0
 12 15  2  0  0  0  0
 13 12  1  0  0  0  0
 14 16  1  6  0  0  0
 14 13  1  0  0  0  0
 14 10  1  0  0  0  0
 17 16  1  0  0  0  0
 18 17  1  0  0  0  0
 20 19  1  0  0  0  0
 20 18  1  0  0  0  0
 21 22  1  0  0  0  0
 23 24  1  6  0  0  0
 23 26  1  0  0  0  0
 23 25  1  0  0  0  0
 26 22  1  1  0  0  0
 26 25  1  0  0  0  0
 27 39  1  6  0  0  0
 27 23  1  0  0  0  0
 27 28  1  0  0  0  0
 28 30  2  0  0  0  0
 29 28  1  0  0  0  0
 29 31  1  0  0  0  0
 32 33  2  0  0  0  0
 34 37  1  0  0  0  0
 34 35  1  0  0  0  0
 35 32  1  0  0  0  0
 36 31  1  0  0  0  0
 36 32  1  0  0  0  0
 37 36  2  0  0  0  0
 38 39  1  0  0  0  0
 41 40  1  0  0  0  0
 41 47  1  0  0  0  0
 42 47  2  0  0  0  0
 42 45  1  0  0  0  0
 43 44  2  0  0  0  0
 45 46  2  0  0  0  0
 46 44  1  0  0  0  0
 47 43  1  0  0  0  0
M  END
>  <MODEL>
9

>  <REMARK>
 VINA RESULT:      -5.6      2.762      4.601
  Name = 
  16 active torsions:
  status: ('A' for Active; 'I' for Inactive)
    1  A    between atoms: N_2  and  N_19
    2  A    between atoms: N_2  and  C_42
    3  A    between atoms: C_6  and  C_20
    4  A    between atoms: S_8  and  O_30
    5  A    between atoms: S_8  and  C_33
    6  A    between atoms: C_15  and  O_25
    7  A    between atoms: C_15  and  C_39
    8  A    between atoms: C_18  and  C_37
    9  A    between atoms: C_22  and  C_31
   10  A    between atoms: C_23  and  C_37
   11  A    between atoms: C_24  and  O_25
   12  A    between atoms: C_27  and  C_37
   13  A    between atoms: O_30  and  C_35
   14  A    between atoms: C_31  and  C_40
   15  A    between atoms: C_35  and  C_45
   16  A    between atoms: C_36  and  C_40
                            x       y       z     vdW  Elec       q    Type
                         _______ _______ _______ _____ _____    ______ ____

>  <TORSDO>
F 16

$$$$
