=
 OpenBabel11072408363D

 47 51  0  0  1  0  0  0  0  0999 V2000
  192.3410  174.0970  142.9560 C   0  0  0  0  0  0  0  0  0  0  0  0
  193.2660  174.5420  143.6880 O   0  0  0  0  0  0  0  0  0  0  0  0
  191.3740  174.9960  142.4140 N   0  0  0  0  0  2  0  0  0  0  0  0
  192.1950  172.6430  142.7190 C   0  0  0  0  0  0  0  0  0  0  0  0
  193.0570  170.3510  142.3120 C   0  0  0  0  0  2  0  0  0  0  0  0
  190.8360  169.9670  141.5850 C   0  0  0  0  0  2  0  0  0  0  0  0
  190.2780  171.3820  141.7170 C   0  0  0  0  0  2  0  0  0  0  0  0
  190.8310  172.0600  142.9660 C   0  0  0  0  0  2  0  0  0  0  0  0
  193.2290  171.8440  142.3640 C   0  0  0  0  0  0  0  0  0  0  0  0
  192.2330  169.9890  141.1680 N   0  0  0  0  0  2  0  0  0  0  0  0
  194.7990  172.4970  141.7740 S   0  0  0  0  0  0  0  0  0  0  0  0
  193.6680  172.2960  139.2520 C   0  0  0  0  0  2  0  0  0  0  0  0
  194.7020  174.5600  139.9140 C   0  0  0  0  0  0  0  0  0  0  0  0
  194.4100  173.9290  137.5970 N   0  0  2  0  0  0  0  0  0  0  0  0
  194.6120  175.6470  140.6270 C   0  0  0  0  0  0  0  0  0  0  0  0
  195.2790  174.6430  138.5340 C   0  0  0  0  0  2  0  0  0  0  0  0
  194.4890  172.5220  137.9840 C   0  0  0  0  0  2  0  0  0  0  0  0
  194.5260  176.6780  141.3020 O   0  0  0  0  0  0  0  0  0  0  0  0
  193.9820  173.3110  140.3650 C   0  0  2  0  0  3  0  0  0  0  0  0
  193.7390  175.8100  135.0240 C   0  0  1  0  0  3  0  0  0  0  0  0
  194.9810  175.5560  135.8570 C   0  0  1  0  0  3  0  0  0  0  0  0
  193.9470  173.5170  135.2330 C   0  0  0  0  0  2  0  0  0  0  0  0
  192.9850  174.5660  134.9410 N   0  0  0  0  0  2  0  0  0  0  0  0
  194.9360  174.0880  136.2360 C   0  0  2  0  0  3  0  0  0  0  0  0
  192.8920  176.8730  135.6860 C   0  0  0  0  0  1  0  0  0  0  0  0
  196.1150  175.8100  135.0840 O   0  0  0  0  0  1  0  0  0  0  0  0
  191.2760  176.3790  142.8540 C   0  0  0  0  0  2  0  0  0  0  0  0
  189.9900  176.6160  143.6440 C   0  0  1  0  0  3  0  0  0  0  0  0
  188.4720  175.8790  146.0650 C   0  0  0  0  0  2  0  0  0  0  0  0
  190.2440  177.3720  144.9610 C   0  0  2  0  0  3  0  0  0  0  0  0
  189.3360  174.9100  146.8610 C   0  0  0  0  0  2  0  0  0  0  0  0
  191.6030  177.0300  145.5930 C   0  0  0  0  0  2  0  0  0  0  0  0
  189.0800  177.2800  145.9630 C   0  0  0  0  0  2  0  0  0  0  0  0
  190.6780  174.6650  146.1910 C   0  0  0  0  0  2  0  0  0  0  0  0
  191.6290  175.8130  146.5390 C   0  0  1  0  0  3  0  0  0  0  0  0
  192.9370  175.3830  146.8410 O   0  0  0  0  0  0  0  0  0  0  0  0
  193.8270  176.4340  146.5630 C   0  0  0  0  0  1  0  0  0  0  0  0
  188.7420  177.4710  142.6130 S   0  0  0  0  0  0  0  0  0  0  0  0
  187.6150  176.0780  142.6330 C   0  0  0  0  0  0  0  0  0  0  0  0
  187.9460  174.8880  141.9010 S   0  0  0  0  0  0  0  0  0  0  0  0
  186.2560  176.2440  143.2290 C   0  0  0  0  0  2  0  0  0  0  0  0
  186.0260  177.6970  143.6400 C   0  0  0  0  0  2  0  0  0  0  0  0
  184.3270  178.8780  145.2080 C   0  0  0  0  0  2  0  0  0  0  0  0
  185.2230  176.6960  145.7830 O   0  0  0  0  0  1  0  0  0  0  0  0
  185.6350  178.9320  147.3210 C   0  0  0  0  0  1  0  0  0  0  0  0
  185.7040  179.1470  145.8200 C   0  0  1  0  0  3  0  0  0  0  0  0
  185.4350  177.8630  145.0430 C   0  0  1  0  0  0  0  0  0  0  0  0
  1  2  2  0  0  0  0
  3 27  1  0  0  0  0
  3  1  1  0  0  0  0
  4  1  1  0  0  0  0
  4  8  1  0  0  0  0
  5  9  1  0  0  0  0
  6  7  1  0  0  0  0
  7  8  1  0  0  0  0
  9  4  2  0  0  0  0
 10  6  1  0  0  0  0
 10  5  1  0  0  0  0
 11  9  1  0  0  0  0
 12 19  1  0  0  0  0
 13 19  1  0  0  0  0
 13 15  2  0  0  0  0
 14 17  1  1  0  0  0
 14 16  1  0  0  0  0
 15 18  2  0  0  0  0
 16 13  1  0  0  0  0
 17 12  1  0  0  0  0
 19 11  1  1  0  0  0
 20 25  1  1  0  0  0
 20 21  1  0  0  0  0
 21 26  1  6  0  0  0
 21 24  1  0  0  0  0
 23 20  1  0  0  0  0
 23 22  1  0  0  0  0
 24 22  1  6  0  0  0
 24 14  1  0  0  0  0
 28 27  1  6  0  0  0
 29 31  1  0  0  0  0
 30 28  1  6  0  0  0
 30 32  1  0  0  0  0
 30 33  1  0  0  0  0
 32 35  1  0  0  0  0
 33 29  1  0  0  0  0
 34 35  1  0  0  0  0
 34 31  1  0  0  0  0
 35 36  1  6  0  0  0
 37 36  1  0  0  0  0
 38 39  1  0  0  0  0
 38 28  1  0  0  0  0
 39 41  1  0  0  0  0
 40 39  2  0  0  0  0
 41 42  1  0  0  0  0
 42 47  1  0  0  0  0
 43 46  1  0  0  0  0
 46 45  1  1  0  0  0
 47 43  1  0  0  0  0
 47 44  1  1  0  0  0
 47 46  1  0  0  0  0
M  END
>  <MODEL>
1

>  <REMARK>
 VINA RESULT:      -6.7      0.000      0.000
  Name = 
  13 active torsions:
  status: ('A' for Active; 'I' for Inactive)
    1  A    between atoms: C_2  and  C_7
    2  A    between atoms: C_2  and  S_10
    3  A    between atoms: C_3  and  C_9
    4  A    between atoms: C_7  and  C_14
    5  A    between atoms: S_10  and  C_34
    6  A    between atoms: C_14  and  C_40
    7  A    between atoms: C_15  and  C_34
    8  A    between atoms: O_16  and  C_45
    9  A    between atoms: S_18  and  C_38
   10  A    between atoms: S_18  and  C_47
   11  A    between atoms: N_19  and  C_31
   12  A    between atoms: N_21  and  C_32
   13  A    between atoms: C_32  and  C_34
                            x       y       z     vdW  Elec       q    Type
                         _______ _______ _______ _____ _____    ______ ____

>  <TORSDO>
F 13

$$$$
=
 OpenBabel11072408363D

 47 51  0  0  1  0  0  0  0  0999 V2000
  193.1890  174.7040  142.9400 C   0  0  0  0  0  0  0  0  0  0  0  0
  194.1280  175.5290  142.7800 O   0  0  0  0  0  0  0  0  0  0  0  0
  191.8360  175.1530  142.8750 N   0  0  0  0  0  2  0  0  0  0  0  0
  193.4720  173.2920  143.2780 C   0  0  0  0  0  0  0  0  0  0  0  0
  193.2230  170.8380  142.9980 C   0  0  0  0  0  2  0  0  0  0  0  0
  194.1370  170.7960  145.1820 C   0  0  0  0  0  2  0  0  0  0  0  0
  194.2170  172.2970  145.4520 C   0  0  0  0  0  2  0  0  0  0  0  0
  194.6410  173.0440  144.1910 C   0  0  0  0  0  2  0  0  0  0  0  0
  192.7760  172.2530  142.7570 C   0  0  0  0  0  0  0  0  0  0  0  0
  192.9630  170.4680  144.3830 N   0  0  0  0  0  2  0  0  0  0  0  0
  191.2070  172.4700  141.9030 S   0  0  0  0  0  0  0  0  0  0  0  0
  192.4120  173.2220  139.5230 C   0  0  0  0  0  2  0  0  0  0  0  0
  191.0980  171.0060  139.5430 C   0  0  0  0  0  0  0  0  0  0  0  0
  191.5180  172.2130  137.4890 N   0  0  2  0  0  0  0  0  0  0  0  0
  191.0410  169.7620  139.9260 C   0  0  0  0  0  0  0  0  0  0  0  0
  190.5480  171.3790  138.2010 C   0  0  0  0  0  2  0  0  0  0  0  0
  191.5990  173.4570  138.2510 C   0  0  0  0  0  2  0  0  0  0  0  0
  190.9880  168.5820  140.2870 O   0  0  0  0  0  0  0  0  0  0  0  0
  191.9520  171.9850  140.3150 C   0  0  2  0  0  3  0  0  0  0  0  0
  191.3260  170.6150  134.6570 C   0  0  1  0  0  3  0  0  0  0  0  0
  190.3140  171.2810  135.5700 C   0  0  1  0  0  3  0  0  0  0  0  0
  192.1720  172.7010  135.1850 C   0  0  0  0  0  2  0  0  0  0  0  0
  192.5630  171.3840  134.7110 N   0  0  0  0  0  2  0  0  0  0  0  0
  191.0090  172.5010  136.1420 C   0  0  2  0  0  3  0  0  0  0  0  0
  191.5850  169.2040  135.1300 C   0  0  0  0  0  1  0  0  0  0  0  0
  189.2060  171.6780  134.8190 O   0  0  0  0  0  1  0  0  0  0  0  0
  191.4920  176.5670  142.8570 C   0  0  0  0  0  2  0  0  0  0  0  0
  190.1370  176.8130  143.5190 C   0  0  1  0  0  3  0  0  0  0  0  0
  188.3220  176.0070  145.7020 C   0  0  0  0  0  2  0  0  0  0  0  0
  190.2760  177.4680  144.9050 C   0  0  2  0  0  3  0  0  0  0  0  0
  189.0450  174.9430  146.5190 C   0  0  0  0  0  2  0  0  0  0  0  0
  191.5370  177.0140  145.6580 C   0  0  0  0  0  2  0  0  0  0  0  0
  189.0030  177.3760  145.7650 C   0  0  0  0  0  2  0  0  0  0  0  0
  190.4400  174.6690  145.9850 C   0  0  0  0  0  2  0  0  0  0  0  0
  191.3990  175.7400  146.5140 C   0  0  1  0  0  3  0  0  0  0  0  0
  192.6420  175.2210  146.9280 O   0  0  0  0  0  0  0  0  0  0  0  0
  193.6580  176.0720  146.4600 C   0  0  0  0  0  1  0  0  0  0  0  0
  189.0460  177.7920  142.4230 S   0  0  0  0  0  0  0  0  0  0  0  0
  187.8380  176.4770  142.2750 C   0  0  0  0  0  0  0  0  0  0  0  0
  188.2330  175.2100  141.7270 S   0  0  0  0  0  0  0  0  0  0  0  0
  186.3960  176.7770  142.5210 C   0  0  0  0  0  2  0  0  0  0  0  0
  186.1630  178.2860  142.5650 C   0  0  0  0  0  2  0  0  0  0  0  0
  185.3960  180.0390  144.3200 C   0  0  0  0  0  2  0  0  0  0  0  0
  183.7880  178.5320  143.3000 O   0  0  0  0  0  1  0  0  0  0  0  0
  184.3180  178.5510  145.9940 C   0  0  0  0  0  1  0  0  0  0  0  0
  185.5240  178.7210  145.0870 C   0  0  1  0  0  3  0  0  0  0  0  0
  185.1370  178.7290  143.6120 C   0  0  1  0  0  0  0  0  0  0  0  0
  1  4  1  0  0  0  0
  2  1  2  0  0  0  0
  3  1  1  0  0  0  0
  4  8  1  0  0  0  0
  5 10  1  0  0  0  0
  6  7  1  0  0  0  0
  8  7  1  0  0  0  0
  9  5  1  0  0  0  0
  9  4  2  0  0  0  0
 10  6  1  0  0  0  0
 11  9  1  0  0  0  0
 12 19  1  0  0  0  0
 13 15  2  0  0  0  0
 13 19  1  0  0  0  0
 14 16  1  1  0  0  0
 14 17  1  0  0  0  0
 15 18  2  0  0  0  0
 16 13  1  0  0  0  0
 17 12  1  0  0  0  0
 19 11  1  1  0  0  0
 20 23  1  0  0  0  0
 20 25  1  1  0  0  0
 20 21  1  0  0  0  0
 21 26  1  6  0  0  0
 21 24  1  0  0  0  0
 23 22  1  0  0  0  0
 24 22  1  6  0  0  0
 24 14  1  0  0  0  0
 27  3  1  0  0  0  0
 28 27  1  6  0  0  0
 29 33  1  0  0  0  0
 29 31  1  0  0  0  0
 30 28  1  6  0  0  0
 30 32  1  0  0  0  0
 30 33  1  0  0  0  0
 32 35  1  0  0  0  0
 34 35  1  0  0  0  0
 34 31  1  0  0  0  0
 35 36  1  6  0  0  0
 37 36  1  0  0  0  0
 38 28  1  0  0  0  0
 39 38  1  0  0  0  0
 39 41  1  0  0  0  0
 40 39  2  0  0  0  0
 41 42  1  0  0  0  0
 42 47  1  0  0  0  0
 43 46  1  0  0  0  0
 46 45  1  1  0  0  0
 47 44  1  6  0  0  0
 47 43  1  0  0  0  0
 47 46  1  0  0  0  0
M  END
>  <MODEL>
2

>  <REMARK>
 VINA RESULT:      -6.7      2.630      3.500
  Name = 
  13 active torsions:
  status: ('A' for Active; 'I' for Inactive)
    1  A    between atoms: C_2  and  C_7
    2  A    between atoms: C_2  and  S_10
    3  A    between atoms: C_3  and  C_9
    4  A    between atoms: C_7  and  C_14
    5  A    between atoms: S_10  and  C_34
    6  A    between atoms: C_14  and  C_40
    7  A    between atoms: C_15  and  C_34
    8  A    between atoms: O_16  and  C_45
    9  A    between atoms: S_18  and  C_38
   10  A    between atoms: S_18  and  C_47
   11  A    between atoms: N_19  and  C_31
   12  A    between atoms: N_21  and  C_32
   13  A    between atoms: C_32  and  C_34
                            x       y       z     vdW  Elec       q    Type
                         _______ _______ _______ _____ _____    ______ ____

>  <TORSDO>
F 13

$$$$
=
 OpenBabel11072408363D

 47 51  0  0  1  0  0  0  0  0999 V2000
  193.6480  172.9090  144.3570 C   0  0  0  0  0  0  0  0  0  0  0  0
  193.5090  171.7110  144.7210 O   0  0  0  0  0  0  0  0  0  0  0  0
  194.0050  173.1990  143.0050 N   0  0  0  0  0  2  0  0  0  0  0  0
  193.5290  174.0160  145.3310 C   0  0  0  0  0  0  0  0  0  0  0  0
  192.2920  175.4620  146.9250 C   0  0  0  0  0  2  0  0  0  0  0  0
  194.1550  176.8910  146.6130 C   0  0  0  0  0  2  0  0  0  0  0  0
  194.9100  176.0930  145.5520 C   0  0  0  0  0  2  0  0  0  0  0  0
  194.8180  174.5990  145.8410 C   0  0  0  0  0  2  0  0  0  0  0  0
  192.3400  174.4590  145.8070 C   0  0  0  0  0  0  0  0  0  0  0  0
  192.7130  176.7670  146.4360 N   0  0  0  0  0  2  0  0  0  0  0  0
  190.7700  174.0230  145.0430 S   0  0  0  0  0  0  0  0  0  0  0  0
  188.8930  175.6330  146.2960 C   0  0  0  0  0  2  0  0  0  0  0  0
  189.8980  176.4810  144.0810 C   0  0  0  0  0  0  0  0  0  0  0  0
  187.7610  177.2740  144.8890 N   0  0  2  0  0  0  0  0  0  0  0  0
  190.9280  176.9780  143.4570 C   0  0  0  0  0  0  0  0  0  0  0  0
  188.5240  176.9310  143.6890 C   0  0  0  0  0  2  0  0  0  0  0  0
  187.5820  176.0170  145.6120 C   0  0  0  0  0  2  0  0  0  0  0  0
  191.9040  177.4510  142.8660 O   0  0  0  0  0  0  0  0  0  0  0  0
  190.1070  175.6910  145.3520 C   0  0  2  0  0  3  0  0  0  0  0  0
  185.3300  178.8770  146.3490 C   0  0  1  0  0  3  0  0  0  0  0  0
  186.2010  179.1470  145.1360 C   0  0  1  0  0  3  0  0  0  0  0  0
  185.3480  176.9360  145.0940 C   0  0  0  0  0  2  0  0  0  0  0  0
  185.0990  177.4410  146.4330 N   0  0  0  0  0  2  0  0  0  0  0  0
  186.4470  177.7960  144.4920 C   0  0  2  0  0  3  0  0  0  0  0  0
  186.0370  179.3510  147.5980 C   0  0  0  0  0  1  0  0  0  0  0  0
  185.5120  179.9760  144.2490 O   0  0  0  0  0  1  0  0  0  0  0  0
  194.4390  172.1620  142.0820 C   0  0  0  0  0  2  0  0  0  0  0  0
  193.7490  172.3070  140.7270 C   0  0  1  0  0  3  0  0  0  0  0  0
  193.1690  173.8520  138.2800 C   0  0  0  0  0  2  0  0  0  0  0  0
  194.7500  172.2840  139.5580 C   0  0  2  0  0  3  0  0  0  0  0  0
  193.8870  175.1890  138.4110 C   0  0  0  0  0  2  0  0  0  0  0  0
  196.0390  173.0650  139.8600 C   0  0  0  0  0  2  0  0  0  0  0  0
  194.1280  172.6610  138.2010 C   0  0  0  0  0  2  0  0  0  0  0  0
  194.6760  175.2840  139.7060 C   0  0  0  0  0  2  0  0  0  0  0  0
  196.0190  174.5700  139.5290 C   0  0  1  0  0  3  0  0  0  0  0  0
  197.1030  175.2700  140.0970 O   0  0  0  0  0  0  0  0  0  0  0  0
  197.1840  174.9360  141.4590 C   0  0  0  0  0  1  0  0  0  0  0  0
  192.4500  171.0340  140.5190 S   0  0  0  0  0  0  0  0  0  0  0  0
  191.2430  171.9580  141.4670 C   0  0  0  0  0  0  0  0  0  0  0  0
  190.3740  171.2650  142.3760 S   0  0  0  0  0  0  0  0  0  0  0  0
  191.0100  173.3990  141.1490 C   0  0  0  0  0  2  0  0  0  0  0  0
  189.5210  173.7320  141.2350 C   0  0  0  0  0  2  0  0  0  0  0  0
  188.2500  172.6590  139.2420 C   0  0  0  0  0  2  0  0  0  0  0  0
  188.0440  175.0340  139.6990 O   0  0  0  0  0  1  0  0  0  0  0  0
  189.1060  174.0480  137.3670 C   0  0  0  0  0  1  0  0  0  0  0  0
  189.4960  173.3040  138.6320 C   0  0  1  0  0  3  0  0  0  0  0  0
  188.8400  173.8980  139.8730 C   0  0  1  0  0  0  0  0  0  0  0  0
  1  2  2  0  0  0  0
  1  4  1  0  0  0  0
  3  1  1  0  0  0  0
  4  9  2  0  0  0  0
  4  8  1  0  0  0  0
  7  8  1  0  0  0  0
  7  6  1  0  0  0  0
  9  5  1  0  0  0  0
 10  6  1  0  0  0  0
 10  5  1  0  0  0  0
 11  9  1  0  0  0  0
 13 19  1  0  0  0  0
 14 16  1  6  0  0  0
 14 17  1  0  0  0  0
 15 13  2  0  0  0  0
 16 13  1  0  0  0  0
 17 12  1  0  0  0  0
 18 15  2  0  0  0  0
 19 11  1  6  0  0  0
 19 12  1  0  0  0  0
 20 23  1  0  0  0  0
 20 25  1  1  0  0  0
 21 26  1  6  0  0  0
 21 20  1  0  0  0  0
 22 23  1  0  0  0  0
 24 14  1  0  0  0  0
 24 22  1  1  0  0  0
 24 21  1  0  0  0  0
 27  3  1  0  0  0  0
 28 27  1  1  0  0  0
 29 31  1  0  0  0  0
 30 32  1  0  0  0  0
 30 28  1  1  0  0  0
 31 34  1  0  0  0  0
 33 29  1  0  0  0  0
 33 30  1  0  0  0  0
 35 34  1  0  0  0  0
 35 32  1  0  0  0  0
 35 36  1  1  0  0  0
 36 37  1  0  0  0  0
 38 28  1  0  0  0  0
 38 39  1  0  0  0  0
 39 40  2  0  0  0  0
 41 42  1  0  0  0  0
 41 39  1  0  0  0  0
 43 47  1  0  0  0  0
 46 45  1  6  0  0  0
 46 43  1  0  0  0  0
 46 47  1  0  0  0  0
 47 44  1  6  0  0  0
 47 42  1  0  0  0  0
M  END
>  <MODEL>
3

>  <REMARK>
 VINA RESULT:      -6.3      2.852      8.701
  Name = 
  13 active torsions:
  status: ('A' for Active; 'I' for Inactive)
    1  A    between atoms: C_2  and  C_7
    2  A    between atoms: C_2  and  S_10
    3  A    between atoms: C_3  and  C_9
    4  A    between atoms: C_7  and  C_14
    5  A    between atoms: S_10  and  C_34
    6  A    between atoms: C_14  and  C_40
    7  A    between atoms: C_15  and  C_34
    8  A    between atoms: O_16  and  C_45
    9  A    between atoms: S_18  and  C_38
   10  A    between atoms: S_18  and  C_47
   11  A    between atoms: N_19  and  C_31
   12  A    between atoms: N_21  and  C_32
   13  A    between atoms: C_32  and  C_34
                            x       y       z     vdW  Elec       q    Type
                         _______ _______ _______ _____ _____    ______ ____

>  <TORSDO>
F 13

$$$$
=
 OpenBabel11072408363D

 47 51  0  0  1  0  0  0  0  0999 V2000
  190.2600  173.7670  143.7440 C   0  0  0  0  0  0  0  0  0  0  0  0
  189.8740  172.8840  144.5560 O   0  0  0  0  0  0  0  0  0  0  0  0
  191.6160  173.7730  143.2990 N   0  0  0  0  0  2  0  0  0  0  0  0
  189.3470  174.8490  143.3120 C   0  0  0  0  0  0  0  0  0  0  0  0
  187.2280  175.7390  142.3750 C   0  0  0  0  0  2  0  0  0  0  0  0
  188.5330  177.6890  142.0600 C   0  0  0  0  0  2  0  0  0  0  0  0
  189.8890  177.1650  142.5280 C   0  0  0  0  0  2  0  0  0  0  0  0
  189.7190  176.2440  143.7320 C   0  0  0  0  0  2  0  0  0  0  0  0
  188.1990  174.6200  142.6300 C   0  0  0  0  0  0  0  0  0  0  0  0
  187.7740  176.6490  141.3780 N   0  0  0  0  0  2  0  0  0  0  0  0
  187.8370  173.0410  141.8480 S   0  0  0  0  0  0  0  0  0  0  0  0
  188.5420  174.2670  139.4640 C   0  0  0  0  0  2  0  0  0  0  0  0
  189.7350  172.0650  140.0670 C   0  0  0  0  0  0  0  0  0  0  0  0
  189.5910  172.8440  137.7810 N   0  0  2  0  0  0  0  0  0  0  0  0
  190.6090  171.4530  140.8140 C   0  0  0  0  0  0  0  0  0  0  0  0
  189.5920  171.6540  138.6340 C   0  0  0  0  0  2  0  0  0  0  0  0
  188.3650  173.5660  138.1180 C   0  0  0  0  0  2  0  0  0  0  0  0
  191.4400  170.8750  141.5220 O   0  0  0  0  0  0  0  0  0  0  0  0
  189.0910  173.3390  140.5620 C   0  0  2  0  0  3  0  0  0  0  0  0
  191.7030  172.6390  135.3100 C   0  0  1  0  0  3  0  0  0  0  0  0
  190.7870  171.6510  136.0070 C   0  0  1  0  0  3  0  0  0  0  0  0
  189.6300  173.6500  135.4740 C   0  0  0  0  0  2  0  0  0  0  0  0
  191.0430  173.9380  135.2940 N   0  0  0  0  0  2  0  0  0  0  0  0
  189.5370  172.4290  136.3740 C   0  0  2  0  0  3  0  0  0  0  0  0
  193.0070  172.7430  136.0670 C   0  0  0  0  0  1  0  0  0  0  0  0
  190.4590  170.6220  135.1230 O   0  0  0  0  0  1  0  0  0  0  0  0
  192.6340  172.9380  143.9180 C   0  0  0  0  0  2  0  0  0  0  0  0
  194.0130  173.2170  143.3210 C   0  0  1  0  0  3  0  0  0  0  0  0
  196.8780  172.9120  143.9600 C   0  0  0  0  0  2  0  0  0  0  0  0
  194.7480  171.9250  142.9220 C   0  0  2  0  0  3  0  0  0  0  0  0
  196.9680  172.1440  145.2710 C   0  0  0  0  0  2  0  0  0  0  0  0
  194.3320  170.7140  143.7720 C   0  0  0  0  0  2  0  0  0  0  0  0
  196.2750  172.0870  142.8200 C   0  0  0  0  0  2  0  0  0  0  0  0
  195.5950  171.7620  145.8000 C   0  0  0  0  0  2  0  0  0  0  0  0
  195.1160  170.4980  145.0810 C   0  0  1  0  0  3  0  0  0  0  0  0
  194.4980  169.5670  145.9410 O   0  0  0  0  0  0  0  0  0  0  0  0
  193.8220  168.6160  145.1570 C   0  0  0  0  0  1  0  0  0  0  0  0
  193.8880  174.3790  141.9120 S   0  0  0  0  0  0  0  0  0  0  0  0
  194.8630  175.6410  142.7270 C   0  0  0  0  0  0  0  0  0  0  0  0
  195.8440  176.3740  141.9780 S   0  0  0  0  0  0  0  0  0  0  0  0
  194.7970  175.7700  144.2140 C   0  0  0  0  0  2  0  0  0  0  0  0
  193.5360  176.5250  144.6300 C   0  0  0  0  0  2  0  0  0  0  0  0
  192.7880  175.0460  146.6280 C   0  0  0  0  0  2  0  0  0  0  0  0
  194.0310  177.0970  147.0110 O   0  0  0  0  0  1  0  0  0  0  0  0
  191.4780  176.7000  147.9410 C   0  0  0  0  0  1  0  0  0  0  0  0
  191.7560  176.1730  146.5450 C   0  0  1  0  0  3  0  0  0  0  0  0
  193.2020  176.4080  146.1200 C   0  0  1  0  0  0  0  0  0  0  0  0
  1  2  2  0  0  0  0
  3  1  1  0  0  0  0
  3 27  1  0  0  0  0
  4  8  1  0  0  0  0
  4  1  1  0  0  0  0
  5  9  1  0  0  0  0
  6  7  1  0  0  0  0
  7  8  1  0  0  0  0
  9  4  2  0  0  0  0
 10  6  1  0  0  0  0
 10  5  1  0  0  0  0
 11  9  1  0  0  0  0
 12 19  1  0  0  0  0
 13 19  1  0  0  0  0
 13 15  2  0  0  0  0
 14 17  1  1  0  0  0
 14 16  1  0  0  0  0
 15 18  2  0  0  0  0
 16 13  1  0  0  0  0
 17 12  1  0  0  0  0
 19 11  1  1  0  0  0
 20 21  1  0  0  0  0
 20 25  1  1  0  0  0
 21 26  1  6  0  0  0
 21 24  1  0  0  0  0
 23 20  1  0  0  0  0
 23 22  1  0  0  0  0
 24 22  1  6  0  0  0
 24 14  1  0  0  0  0
 28 27  1  6  0  0  0
 29 31  1  0  0  0  0
 30 28  1  1  0  0  0
 30 32  1  0  0  0  0
 31 34  1  0  0  0  0
 32 35  1  0  0  0  0
 33 30  1  0  0  0  0
 33 29  1  0  0  0  0
 35 34  1  0  0  0  0
 35 36  1  1  0  0  0
 37 36  1  0  0  0  0
 38 39  1  0  0  0  0
 38 28  1  0  0  0  0
 39 41  1  0  0  0  0
 40 39  2  0  0  0  0
 41 42  1  0  0  0  0
 42 47  1  0  0  0  0
 46 43  1  0  0  0  0
 46 45  1  1  0  0  0
 47 46  1  0  0  0  0
 47 43  1  0  0  0  0
 47 44  1  1  0  0  0
M  END
>  <MODEL>
4

>  <REMARK>
 VINA RESULT:      -6.3      3.210      6.483
  Name = 
  13 active torsions:
  status: ('A' for Active; 'I' for Inactive)
    1  A    between atoms: C_2  and  C_7
    2  A    between atoms: C_2  and  S_10
    3  A    between atoms: C_3  and  C_9
    4  A    between atoms: C_7  and  C_14
    5  A    between atoms: S_10  and  C_34
    6  A    between atoms: C_14  and  C_40
    7  A    between atoms: C_15  and  C_34
    8  A    between atoms: O_16  and  C_45
    9  A    between atoms: S_18  and  C_38
   10  A    between atoms: S_18  and  C_47
   11  A    between atoms: N_19  and  C_31
   12  A    between atoms: N_21  and  C_32
   13  A    between atoms: C_32  and  C_34
                            x       y       z     vdW  Elec       q    Type
                         _______ _______ _______ _____ _____    ______ ____

>  <TORSDO>
F 13

$$$$
=
 OpenBabel11072408363D

 47 51  0  0  1  0  0  0  0  0999 V2000
  193.6490  175.2840  142.7540 C   0  0  0  0  0  0  0  0  0  0  0  0
  193.4340  176.2270  141.9460 O   0  0  0  0  0  0  0  0  0  0  0  0
  193.7530  173.9460  142.2660 N   0  0  0  0  0  2  0  0  0  0  0  0
  193.7120  175.5340  144.2100 C   0  0  0  0  0  0  0  0  0  0  0  0
  192.9760  175.2260  146.5610 C   0  0  0  0  0  2  0  0  0  0  0  0
  194.1760  177.2410  146.8880 C   0  0  0  0  0  2  0  0  0  0  0  0
  194.5700  177.5390  145.4420 C   0  0  0  0  0  2  0  0  0  0  0  0
  194.9360  176.2500  144.7130 C   0  0  0  0  0  2  0  0  0  0  0  0
  192.7680  175.0970  145.0780 C   0  0  0  0  0  0  0  0  0  0  0  0
  192.8580  176.6220  146.9560 N   0  0  0  0  0  2  0  0  0  0  0  0
  191.1590  174.5010  144.5360 S   0  0  0  0  0  0  0  0  0  0  0  0
  189.2350  175.3530  146.3400 C   0  0  0  0  0  2  0  0  0  0  0  0
  189.8610  176.9560  144.4230 C   0  0  0  0  0  0  0  0  0  0  0  0
  187.7400  177.1240  145.5750 N   0  0  2  0  0  0  0  0  0  0  0  0
  190.7370  177.7720  143.9110 C   0  0  0  0  0  0  0  0  0  0  0  0
  188.4030  177.2710  144.2790 C   0  0  0  0  0  2  0  0  0  0  0  0
  187.8150  175.7000  145.8950 C   0  0  0  0  0  2  0  0  0  0  0  0
  191.5670  178.5480  143.4260 O   0  0  0  0  0  0  0  0  0  0  0  0
  190.3160  175.8770  145.3780 C   0  0  2  0  0  3  0  0  0  0  0  0
  185.6480  178.9640  147.2630 C   0  0  1  0  0  3  0  0  0  0  0  0
  186.1540  178.9730  145.8330 C   0  0  1  0  0  3  0  0  0  0  0  0
  185.4960  176.7910  146.4850 C   0  0  0  0  0  2  0  0  0  0  0  0
  185.5600  177.5780  147.7050 N   0  0  0  0  0  2  0  0  0  0  0  0
  186.3320  177.5180  145.4440 C   0  0  2  0  0  3  0  0  0  0  0  0
  186.6120  179.7180  148.1490 C   0  0  0  0  0  1  0  0  0  0  0  0
  185.1980  179.5690  145.0090 O   0  0  0  0  0  1  0  0  0  0  0  0
  193.3940  173.5940  140.9000 C   0  0  0  0  0  2  0  0  0  0  0  0
  193.8490  172.1760  140.5600 C   0  0  1  0  0  3  0  0  0  0  0  0
  193.3320  169.4630  141.6000 C   0  0  0  0  0  2  0  0  0  0  0  0
  192.7160  171.3300  139.9500 C   0  0  2  0  0  3  0  0  0  0  0  0
  192.2170  169.5800  142.6310 C   0  0  0  0  0  2  0  0  0  0  0  0
  191.3180  171.8440  140.3270 C   0  0  0  0  0  2  0  0  0  0  0  0
  192.8780  169.8170  140.1820 C   0  0  0  0  0  2  0  0  0  0  0  0
  191.7190  171.0090  142.7670 C   0  0  0  0  0  2  0  0  0  0  0  0
  190.7220  171.3010  141.6410 C   0  0  1  0  0  3  0  0  0  0  0  0
  189.5920  172.0260  142.0700 O   0  0  0  0  0  0  0  0  0  0  0  0
  189.0250  172.6690  140.9560 C   0  0  0  0  0  1  0  0  0  0  0  0
  195.3200  172.2080  139.4710 S   0  0  0  0  0  0  0  0  0  0  0  0
  196.3570  171.3690  140.6660 C   0  0  0  0  0  0  0  0  0  0  0  0
  196.8240  170.0390  140.3900 S   0  0  0  0  0  0  0  0  0  0  0  0
  196.5480  171.9710  142.0200 C   0  0  0  0  0  2  0  0  0  0  0  0
  196.6450  170.8780  143.0830 C   0  0  0  0  0  2  0  0  0  0  0  0
  195.1420  171.9210  144.9250 C   0  0  0  0  0  2  0  0  0  0  0  0
  197.1170  170.6420  145.5240 O   0  0  0  0  0  1  0  0  0  0  0  0
  196.8160  173.3010  146.1370 C   0  0  0  0  0  1  0  0  0  0  0  0
  196.3200  172.8840  144.7640 C   0  0  1  0  0  3  0  0  0  0  0  0
  196.4970  171.3900  144.5190 C   0  0  1  0  0  0  0  0  0  0  0  0
  1  4  1  0  0  0  0
  2  1  2  0  0  0  0
  3  1  1  0  0  0  0
  4  8  1  0  0  0  0
  4  9  2  0  0  0  0
  5 10  1  0  0  0  0
  6 10  1  0  0  0  0
  7  6  1  0  0  0  0
  8  7  1  0  0  0  0
  9  5  1  0  0  0  0
 11  9  1  0  0  0  0
 13 19  1  0  0  0  0
 14 16  1  6  0  0  0
 14 17  1  0  0  0  0
 15 13  2  0  0  0  0
 16 13  1  0  0  0  0
 17 12  1  0  0  0  0
 18 15  2  0  0  0  0
 19 11  1  6  0  0  0
 19 12  1  0  0  0  0
 20 23  1  0  0  0  0
 20 25  1  1  0  0  0
 21 26  1  6  0  0  0
 21 20  1  0  0  0  0
 22 23  1  0  0  0  0
 24 14  1  0  0  0  0
 24 21  1  0  0  0  0
 24 22  1  1  0  0  0
 27  3  1  0  0  0  0
 28 27  1  6  0  0  0
 29 31  1  0  0  0  0
 30 33  1  0  0  0  0
 30 32  1  0  0  0  0
 30 28  1  1  0  0  0
 31 34  1  0  0  0  0
 32 35  1  0  0  0  0
 33 29  1  0  0  0  0
 35 36  1  1  0  0  0
 35 34  1  0  0  0  0
 37 36  1  0  0  0  0
 38 28  1  0  0  0  0
 38 39  1  0  0  0  0
 39 41  1  0  0  0  0
 40 39  2  0  0  0  0
 41 42  1  0  0  0  0
 42 47  1  0  0  0  0
 46 43  1  0  0  0  0
 46 45  1  1  0  0  0
 47 46  1  0  0  0  0
 47 43  1  0  0  0  0
 47 44  1  1  0  0  0
M  END
>  <MODEL>
5

>  <REMARK>
 VINA RESULT:      -6.1      3.199      9.669
  Name = 
  13 active torsions:
  status: ('A' for Active; 'I' for Inactive)
    1  A    between atoms: C_2  and  C_7
    2  A    between atoms: C_2  and  S_10
    3  A    between atoms: C_3  and  C_9
    4  A    between atoms: C_7  and  C_14
    5  A    between atoms: S_10  and  C_34
    6  A    between atoms: C_14  and  C_40
    7  A    between atoms: C_15  and  C_34
    8  A    between atoms: O_16  and  C_45
    9  A    between atoms: S_18  and  C_38
   10  A    between atoms: S_18  and  C_47
   11  A    between atoms: N_19  and  C_31
   12  A    between atoms: N_21  and  C_32
   13  A    between atoms: C_32  and  C_34
                            x       y       z     vdW  Elec       q    Type
                         _______ _______ _______ _____ _____    ______ ____

>  <TORSDO>
F 13

$$$$
=
 OpenBabel11072408363D

 47 51  0  0  1  0  0  0  0  0999 V2000
  192.6610  172.4660  143.9280 C   0  0  0  0  0  0  0  0  0  0  0  0
  191.7960  171.6230  144.2900 O   0  0  0  0  0  0  0  0  0  0  0  0
  193.3890  172.2550  142.7180 N   0  0  0  0  0  2  0  0  0  0  0  0
  192.9900  173.6270  144.7830 C   0  0  0  0  0  0  0  0  0  0  0  0
  192.5680  175.8690  145.7610 C   0  0  0  0  0  2  0  0  0  0  0  0
  194.8870  175.7730  146.2320 C   0  0  0  0  0  2  0  0  0  0  0  0
  195.2280  174.4470  145.5550 C   0  0  0  0  0  2  0  0  0  0  0  0
  194.1080  173.4340  145.7710 C   0  0  0  0  0  2  0  0  0  0  0  0
  192.3000  174.7920  144.7470 C   0  0  0  0  0  0  0  0  0  0  0  0
  193.8570  176.4910  145.4920 N   0  0  0  0  0  2  0  0  0  0  0  0
  191.1610  175.2010  143.4160 S   0  0  0  0  0  0  0  0  0  0  0  0
  188.9550  175.4070  145.0810 C   0  0  0  0  0  2  0  0  0  0  0  0
  189.7950  177.5630  143.9480 C   0  0  0  0  0  0  0  0  0  0  0  0
  187.5210  177.3540  144.7450 N   0  0  2  0  0  0  0  0  0  0  0  0
  190.7040  178.4940  143.8880 C   0  0  0  0  0  0  0  0  0  0  0  0
  188.3650  177.9280  143.6960 C   0  0  0  0  0  2  0  0  0  0  0  0
  187.6050  175.9060  144.5670 C   0  0  0  0  0  2  0  0  0  0  0  0
  191.5660  179.3770  143.8320 O   0  0  0  0  0  0  0  0  0  0  0  0
  190.1450  176.2160  144.5360 C   0  0  2  0  0  3  0  0  0  0  0  0
  185.2440  178.8620  146.5200 C   0  0  1  0  0  3  0  0  0  0  0  0
  185.9050  179.1420  145.1830 C   0  0  1  0  0  3  0  0  0  0  0  0
  185.1920  176.8860  145.3210 C   0  0  0  0  0  2  0  0  0  0  0  0
  185.1160  177.4190  146.6710 N   0  0  0  0  0  2  0  0  0  0  0  0
  186.1330  177.7880  144.5400 C   0  0  2  0  0  3  0  0  0  0  0  0
  186.1000  179.4150  147.6360 C   0  0  0  0  0  1  0  0  0  0  0  0
  185.0430  179.9020  144.3910 O   0  0  0  0  0  1  0  0  0  0  0  0
  193.3390  170.9920  141.9980 C   0  0  0  0  0  2  0  0  0  0  0  0
  194.7390  170.5290  141.6000 C   0  0  1  0  0  3  0  0  0  0  0  0
  197.4970  170.1200  142.5690 C   0  0  0  0  0  2  0  0  0  0  0  0
  195.1220  169.1940  142.2640 C   0  0  2  0  0  3  0  0  0  0  0  0
  197.5080  170.4610  144.0530 C   0  0  0  0  0  2  0  0  0  0  0  0
  194.5050  169.0230  143.6610 C   0  0  0  0  0  2  0  0  0  0  0  0
  196.6330  168.9000  142.2400 C   0  0  0  0  0  2  0  0  0  0  0  0
  196.1300  170.8590  144.5540 C   0  0  0  0  0  2  0  0  0  0  0  0
  195.3160  169.5930  144.8410 C   0  0  1  0  0  3  0  0  0  0  0  0
  194.5690  169.6690  146.0340 O   0  0  0  0  0  0  0  0  0  0  0  0
  195.2470  168.9460  147.0300 C   0  0  0  0  0  1  0  0  0  0  0  0
  194.9020  170.4400  139.7790 S   0  0  0  0  0  0  0  0  0  0  0  0
  195.1260  172.2090  139.6060 C   0  0  0  0  0  0  0  0  0  0  0  0
  194.1770  172.9730  138.8470 S   0  0  0  0  0  0  0  0  0  0  0  0
  196.4020  172.8330  140.0680 C   0  0  0  0  0  2  0  0  0  0  0  0
  196.2550  174.3510  140.1510 C   0  0  0  0  0  2  0  0  0  0  0  0
  194.9570  175.5740  142.0370 C   0  0  0  0  0  2  0  0  0  0  0  0
  196.8140  174.1050  142.5740 O   0  0  0  0  0  1  0  0  0  0  0  0
  196.8190  176.7900  143.1450 C   0  0  0  0  0  1  0  0  0  0  0  0
  196.2190  176.4060  141.8050 C   0  0  1  0  0  3  0  0  0  0  0  0
  196.2290  174.8980  141.5820 C   0  0  1  0  0  0  0  0  0  0  0  0
  1  2  2  0  0  0  0
  1  4  1  0  0  0  0
  3  1  1  0  0  0  0
  4  8  1  0  0  0  0
  7  8  1  0  0  0  0
  7  6  1  0  0  0  0
  9  4  2  0  0  0  0
  9  5  1  0  0  0  0
 10  5  1  0  0  0  0
 10  6  1  0  0  0  0
 11  9  1  0  0  0  0
 13 19  1  0  0  0  0
 14 16  1  6  0  0  0
 15 13  2  0  0  0  0
 16 13  1  0  0  0  0
 17 14  1  0  0  0  0
 17 12  1  0  0  0  0
 18 15  2  0  0  0  0
 19 11  1  6  0  0  0
 19 12  1  0  0  0  0
 20 23  1  0  0  0  0
 20 25  1  1  0  0  0
 21 26  1  6  0  0  0
 21 20  1  0  0  0  0
 22 23  1  0  0  0  0
 24 14  1  0  0  0  0
 24 21  1  0  0  0  0
 24 22  1  1  0  0  0
 27  3  1  0  0  0  0
 28 27  1  6  0  0  0
 29 31  1  0  0  0  0
 30 28  1  1  0  0  0
 30 32  1  0  0  0  0
 31 34  1  0  0  0  0
 32 35  1  0  0  0  0
 33 30  1  0  0  0  0
 33 29  1  0  0  0  0
 34 35  1  0  0  0  0
 35 36  1  1  0  0  0
 36 37  1  0  0  0  0
 38 28  1  0  0  0  0
 39 38  1  0  0  0  0
 39 41  1  0  0  0  0
 40 39  2  0  0  0  0
 41 42  1  0  0  0  0
 42 47  1  0  0  0  0
 46 43  1  0  0  0  0
 46 45  1  1  0  0  0
 47 46  1  0  0  0  0
 47 43  1  0  0  0  0
 47 44  1  1  0  0  0
M  END
>  <MODEL>
6

>  <REMARK>
 VINA RESULT:      -6.1      3.203      9.473
  Name = 
  13 active torsions:
  status: ('A' for Active; 'I' for Inactive)
    1  A    between atoms: C_2  and  C_7
    2  A    between atoms: C_2  and  S_10
    3  A    between atoms: C_3  and  C_9
    4  A    between atoms: C_7  and  C_14
    5  A    between atoms: S_10  and  C_34
    6  A    between atoms: C_14  and  C_40
    7  A    between atoms: C_15  and  C_34
    8  A    between atoms: O_16  and  C_45
    9  A    between atoms: S_18  and  C_38
   10  A    between atoms: S_18  and  C_47
   11  A    between atoms: N_19  and  C_31
   12  A    between atoms: N_21  and  C_32
   13  A    between atoms: C_32  and  C_34
                            x       y       z     vdW  Elec       q    Type
                         _______ _______ _______ _____ _____    ______ ____

>  <TORSDO>
F 13

$$$$
=
 OpenBabel11072408363D

 47 51  0  0  1  0  0  0  0  0999 V2000
  193.3750  171.5140  140.2360 C   0  0  0  0  0  0  0  0  0  0  0  0
  193.1620  170.4150  140.8130 O   0  0  0  0  0  0  0  0  0  0  0  0
  194.0900  172.5440  140.9200 N   0  0  0  0  0  2  0  0  0  0  0  0
  192.8220  171.7840  138.8900 C   0  0  0  0  0  0  0  0  0  0  0  0
  191.0530  172.5180  137.3110 C   0  0  0  0  0  2  0  0  0  0  0  0
  192.3720  171.3270  135.7460 C   0  0  0  0  0  2  0  0  0  0  0  0
  193.4330  170.7600  136.6880 C   0  0  0  0  0  2  0  0  0  0  0  0
  193.8050  171.7880  137.7520 C   0  0  0  0  0  2  0  0  0  0  0  0
  191.5180  172.0800  138.6720 C   0  0  0  0  0  0  0  0  0  0  0  0
  191.0690  171.3850  136.3960 N   0  0  0  0  0  2  0  0  0  0  0  0
  190.2450  171.8130  139.9150 S   0  0  0  0  0  0  0  0  0  0  0  0
  190.8050  173.9500  141.5880 C   0  0  0  0  0  2  0  0  0  0  0  0
  188.7350  174.1420  140.0660 C   0  0  0  0  0  0  0  0  0  0  0  0
  188.9460  175.4510  142.0900 N   0  0  2  0  0  0  0  0  0  0  0  0
  188.2630  174.3110  138.8640 C   0  0  0  0  0  0  0  0  0  0  0  0
  188.0010  174.7420  141.2260 C   0  0  0  0  0  2  0  0  0  0  0  0
  189.8130  174.4170  142.6530 C   0  0  0  0  0  2  0  0  0  0  0  0
  187.8160  174.4740  137.7240 O   0  0  0  0  0  0  0  0  0  0  0  0
  190.1330  173.5990  140.2490 C   0  0  2  0  0  3  0  0  0  0  0  0
  186.7340  177.8300  142.3230 C   0  0  1  0  0  3  0  0  0  0  0  0
  186.7770  176.3760  142.7520 C   0  0  1  0  0  3  0  0  0  0  0  0
  188.7570  177.5080  143.3960 C   0  0  0  0  0  2  0  0  0  0  0  0
  188.0760  178.3830  142.4580 N   0  0  0  0  0  2  0  0  0  0  0  0
  188.2080  176.1080  143.1760 C   0  0  2  0  0  3  0  0  0  0  0  0
  186.2910  177.9220  140.8820 C   0  0  0  0  0  1  0  0  0  0  0  0
  185.9200  176.1900  143.8380 O   0  0  0  0  0  1  0  0  0  0  0  0
  194.3880  172.4610  142.3420 C   0  0  0  0  0  2  0  0  0  0  0  0
  195.6020  173.3160  142.7000 C   0  0  1  0  0  3  0  0  0  0  0  0
  197.2560  173.7470  145.1070 C   0  0  0  0  0  2  0  0  0  0  0  0
  196.8690  172.4680  142.9150 C   0  0  2  0  0  3  0  0  0  0  0  0
  196.8160  172.7220  146.1450 C   0  0  0  0  0  2  0  0  0  0  0  0
  196.5560  171.0070  143.2750 C   0  0  0  0  0  2  0  0  0  0  0  0
  197.8920  173.1110  143.8680 C   0  0  0  0  0  2  0  0  0  0  0  0
  195.7230  171.8100  145.6140 C   0  0  0  0  0  2  0  0  0  0  0  0
  196.3600  170.7000  144.7730 C   0  0  1  0  0  3  0  0  0  0  0  0
  195.7910  169.4310  145.0020 O   0  0  0  0  0  0  0  0  0  0  0  0
  194.3970  169.5770  145.0930 C   0  0  0  0  0  1  0  0  0  0  0  0
  195.8750  174.6190  141.4440 S   0  0  0  0  0  0  0  0  0  0  0  0
  195.6870  175.9500  142.6280 C   0  0  0  0  0  0  0  0  0  0  0  0
  196.8110  176.7860  142.9390 S   0  0  0  0  0  0  0  0  0  0  0  0
  194.4320  176.0420  143.4320 C   0  0  0  0  0  2  0  0  0  0  0  0
  194.7560  176.2690  144.9070 C   0  0  0  0  0  2  0  0  0  0  0  0
  193.1860  174.5780  146.0960 C   0  0  0  0  0  2  0  0  0  0  0  0
  193.5080  176.8070  147.0030 O   0  0  0  0  0  1  0  0  0  0  0  0
  191.0720  175.8830  146.1350 C   0  0  0  0  0  1  0  0  0  0  0  0
  192.2640  175.4880  145.2830 C   0  0  1  0  0  3  0  0  0  0  0  0
  193.5770  176.0160  145.8510 C   0  0  1  0  0  0  0  0  0  0  0  0
  1  2  2  0  0  0  0
  1  3  1  0  0  0  0
  3 27  1  0  0  0  0
  4  1  1  0  0  0  0
  5  9  1  0  0  0  0
  6 10  1  0  0  0  0
  6  7  1  0  0  0  0
  7  8  1  0  0  0  0
  8  4  1  0  0  0  0
  9  4  2  0  0  0  0
  9 11  1  0  0  0  0
 10  5  1  0  0  0  0
 12 17  1  0  0  0  0
 13 19  1  0  0  0  0
 13 16  1  0  0  0  0
 14 16  1  6  0  0  0
 14 17  1  0  0  0  0
 14 24  1  0  0  0  0
 15 13  2  0  0  0  0
 18 15  2  0  0  0  0
 19 11  1  1  0  0  0
 19 12  1  0  0  0  0
 20 25  1  6  0  0  0
 20 23  1  0  0  0  0
 20 21  1  0  0  0  0
 21 24  1  0  0  0  0
 21 26  1  1  0  0  0
 23 22  1  0  0  0  0
 24 22  1  6  0  0  0
 28 27  1  6  0  0  0
 29 31  1  0  0  0  0
 30 28  1  1  0  0  0
 30 32  1  0  0  0  0
 30 33  1  0  0  0  0
 32 35  1  0  0  0  0
 33 29  1  0  0  0  0
 34 31  1  0  0  0  0
 35 36  1  6  0  0  0
 35 34  1  0  0  0  0
 36 37  1  0  0  0  0
 38 39  1  0  0  0  0
 38 28  1  0  0  0  0
 39 40  2  0  0  0  0
 39 41  1  0  0  0  0
 41 42  1  0  0  0  0
 42 47  1  0  0  0  0
 46 47  1  0  0  0  0
 46 43  1  0  0  0  0
 46 45  1  1  0  0  0
 47 43  1  0  0  0  0
 47 44  1  1  0  0  0
M  END
>  <MODEL>
7

>  <REMARK>
 VINA RESULT:      -6.1      3.270      7.604
  Name = 
  13 active torsions:
  status: ('A' for Active; 'I' for Inactive)
    1  A    between atoms: C_2  and  C_7
    2  A    between atoms: C_2  and  S_10
    3  A    between atoms: C_3  and  C_9
    4  A    between atoms: C_7  and  C_14
    5  A    between atoms: S_10  and  C_34
    6  A    between atoms: C_14  and  C_40
    7  A    between atoms: C_15  and  C_34
    8  A    between atoms: O_16  and  C_45
    9  A    between atoms: S_18  and  C_38
   10  A    between atoms: S_18  and  C_47
   11  A    between atoms: N_19  and  C_31
   12  A    between atoms: N_21  and  C_32
   13  A    between atoms: C_32  and  C_34
                            x       y       z     vdW  Elec       q    Type
                         _______ _______ _______ _____ _____    ______ ____

>  <TORSDO>
F 13

$$$$
=
 OpenBabel11072408363D

 47 51  0  0  1  0  0  0  0  0999 V2000
  192.3530  173.1450  144.6140 C   0  0  0  0  0  0  0  0  0  0  0  0
  192.1750  174.0040  145.5190 O   0  0  0  0  0  0  0  0  0  0  0  0
  193.4140  172.1990  144.7380 N   0  0  0  0  0  2  0  0  0  0  0  0
  191.5300  173.1590  143.3840 C   0  0  0  0  0  0  0  0  0  0  0  0
  190.4650  174.2480  141.4240 C   0  0  0  0  0  2  0  0  0  0  0  0
  189.1330  172.2900  141.4350 C   0  0  0  0  0  2  0  0  0  0  0  0
  189.6780  171.6200  142.6950 C   0  0  0  0  0  2  0  0  0  0  0  0
  191.1870  171.8190  142.7950 C   0  0  0  0  0  2  0  0  0  0  0  0
  191.1460  174.3000  142.7640 C   0  0  0  0  0  0  0  0  0  0  0  0
  189.1090  173.7400  141.5800 N   0  0  0  0  0  2  0  0  0  0  0  0
  191.2630  175.9150  143.5490 S   0  0  0  0  0  0  0  0  0  0  0  0
  188.7960  176.9540  142.8290 C   0  0  0  0  0  2  0  0  0  0  0  0
  189.0840  176.1480  145.2590 C   0  0  0  0  0  0  0  0  0  0  0  0
  187.3860  177.7600  144.6510 N   0  0  2  0  0  0  0  0  0  0  0  0
  189.1970  175.1450  146.0810 C   0  0  0  0  0  0  0  0  0  0  0  0
  188.3280  177.3650  145.6990 C   0  0  0  0  0  2  0  0  0  0  0  0
  188.2110  178.1840  143.5210 C   0  0  0  0  0  2  0  0  0  0  0  0
  189.3030  174.1920  146.8610 O   0  0  0  0  0  0  0  0  0  0  0  0
  189.4610  175.9690  143.8070 C   0  0  2  0  0  3  0  0  0  0  0  0
  184.6090  178.1600  146.3070 C   0  0  1  0  0  3  0  0  0  0  0  0
  186.0410  178.6190  146.5100 C   0  0  1  0  0  3  0  0  0  0  0  0
  185.3270  179.0260  144.2870 C   0  0  0  0  0  2  0  0  0  0  0  0
  184.3360  178.1410  144.8750 N   0  0  0  0  0  2  0  0  0  0  0  0
  186.5890  178.8990  145.1230 C   0  0  2  0  0  3  0  0  0  0  0  0
  184.4360  176.7700  146.8730 C   0  0  0  0  0  1  0  0  0  0  0  0
  186.0470  179.7920  147.2660 O   0  0  0  0  0  1  0  0  0  0  0  0
  194.4440  172.3230  145.7580 C   0  0  0  0  0  2  0  0  0  0  0  0
  195.8330  172.4210  145.1290 C   0  0  1  0  0  3  0  0  0  0  0  0
  197.4300  173.9850  143.2020 C   0  0  0  0  0  2  0  0  0  0  0  0
  196.6060  173.6610  145.6110 C   0  0  2  0  0  3  0  0  0  0  0  0
  196.5590  175.1430  142.7300 C   0  0  0  0  0  2  0  0  0  0  0  0
  195.6860  174.8430  145.9530 C   0  0  0  0  0  2  0  0  0  0  0  0
  197.7740  174.0610  144.6910 C   0  0  0  0  0  2  0  0  0  0  0  0
  195.1990  175.1410  143.4070 C   0  0  0  0  0  2  0  0  0  0  0  0
  195.3270  175.7880  144.7900 C   0  0  1  0  0  3  0  0  0  0  0  0
  194.2620  176.6580  145.0990 O   0  0  0  0  0  0  0  0  0  0  0  0
  194.1800  176.7820  146.4970 C   0  0  0  0  0  1  0  0  0  0  0  0
  196.7860  170.8850  145.4170 S   0  0  0  0  0  0  0  0  0  0  0  0
  195.9550  169.9950  144.1030 C   0  0  0  0  0  0  0  0  0  0  0  0
  195.4200  168.6880  144.3600 S   0  0  0  0  0  0  0  0  0  0  0  0
  196.0130  170.5270  142.7090 C   0  0  0  0  0  2  0  0  0  0  0  0
  194.8150  170.0360  141.8980 C   0  0  0  0  0  2  0  0  0  0  0  0
  195.4480  171.5400  139.8790 C   0  0  0  0  0  2  0  0  0  0  0  0
  193.1870  170.6880  140.1190 O   0  0  0  0  0  1  0  0  0  0  0  0
  193.7850  173.3680  140.1460 C   0  0  0  0  0  1  0  0  0  0  0  0
  194.7630  172.4700  140.8830 C   0  0  1  0  0  3  0  0  0  0  0  0
  194.3720  170.9990  140.7920 C   0  0  1  0  0  0  0  0  0  0  0  0
  1  3  1  0  0  0  0
  1  2  2  0  0  0  0
  3 27  1  0  0  0  0
  4  1  1  0  0  0  0
  5 10  1  0  0  0  0
  5  9  1  0  0  0  0
  6 10  1  0  0  0  0
  6  7  1  0  0  0  0
  7  8  1  0  0  0  0
  8  4  1  0  0  0  0
  9  4  2  0  0  0  0
  9 11  1  0  0  0  0
 12 17  1  0  0  0  0
 12 19  1  0  0  0  0
 13 16  1  0  0  0  0
 13 15  2  0  0  0  0
 14 17  1  6  0  0  0
 14 24  1  0  0  0  0
 14 16  1  0  0  0  0
 15 18  2  0  0  0  0
 19 11  1  1  0  0  0
 19 13  1  0  0  0  0
 20 21  1  0  0  0  0
 20 25  1  6  0  0  0
 21 26  1  1  0  0  0
 22 23  1  0  0  0  0
 23 20  1  0  0  0  0
 24 22  1  6  0  0  0
 24 21  1  0  0  0  0
 28 38  1  0  0  0  0
 28 27  1  1  0  0  0
 29 33  1  0  0  0  0
 30 28  1  6  0  0  0
 30 32  1  0  0  0  0
 31 29  1  0  0  0  0
 31 34  1  0  0  0  0
 33 30  1  0  0  0  0
 34 35  1  0  0  0  0
 35 36  1  1  0  0  0
 35 32  1  0  0  0  0
 36 37  1  0  0  0  0
 39 40  2  0  0  0  0
 39 38  1  0  0  0  0
 41 39  1  0  0  0  0
 42 41  1  0  0  0  0
 43 47  1  0  0  0  0
 43 46  1  0  0  0  0
 46 45  1  6  0  0  0
 47 44  1  6  0  0  0
 47 46  1  0  0  0  0
 47 42  1  0  0  0  0
M  END
>  <MODEL>
8

>  <REMARK>
 VINA RESULT:      -6.1      3.214      9.219
  Name = 
  13 active torsions:
  status: ('A' for Active; 'I' for Inactive)
    1  A    between atoms: C_2  and  C_7
    2  A    between atoms: C_2  and  S_10
    3  A    between atoms: C_3  and  C_9
    4  A    between atoms: C_7  and  C_14
    5  A    between atoms: S_10  and  C_34
    6  A    between atoms: C_14  and  C_40
    7  A    between atoms: C_15  and  C_34
    8  A    between atoms: O_16  and  C_45
    9  A    between atoms: S_18  and  C_38
   10  A    between atoms: S_18  and  C_47
   11  A    between atoms: N_19  and  C_31
   12  A    between atoms: N_21  and  C_32
   13  A    between atoms: C_32  and  C_34
                            x       y       z     vdW  Elec       q    Type
                         _______ _______ _______ _____ _____    ______ ____

>  <TORSDO>
F 13

$$$$
=
 OpenBabel11072408363D

 47 51  0  0  1  0  0  0  0  0999 V2000
  193.6480  172.9020  144.7850 C   0  0  0  0  0  0  0  0  0  0  0  0
  193.8160  171.8890  145.5160 O   0  0  0  0  0  0  0  0  0  0  0  0
  193.5560  172.7430  143.3690 N   0  0  0  0  0  2  0  0  0  0  0  0
  193.6300  174.2620  145.3670 C   0  0  0  0  0  0  0  0  0  0  0  0
  192.5160  176.2960  146.2520 C   0  0  0  0  0  2  0  0  0  0  0  0
  194.6370  177.2700  145.8550 C   0  0  0  0  0  2  0  0  0  0  0  0
  195.3440  176.0810  145.2080 C   0  0  0  0  0  2  0  0  0  0  0  0
  194.9400  174.7810  145.8950 C   0  0  0  0  0  2  0  0  0  0  0  0
  192.5000  174.9980  145.4920 C   0  0  0  0  0  0  0  0  0  0  0  0
  193.2280  177.3080  145.4850 N   0  0  0  0  0  2  0  0  0  0  0  0
  190.9730  174.5800  144.6370 S   0  0  0  0  0  0  0  0  0  0  0  0
  189.1150  175.6140  146.4150 C   0  0  0  0  0  2  0  0  0  0  0  0
  189.5960  176.9670  144.2760 C   0  0  0  0  0  0  0  0  0  0  0  0
  187.5300  177.2330  145.5070 N   0  0  2  0  0  0  0  0  0  0  0  0
  190.4200  177.7310  143.6170 C   0  0  0  0  0  0  0  0  0  0  0  0
  188.1240  177.2260  144.1690 C   0  0  0  0  0  2  0  0  0  0  0  0
  187.6650  175.8650  146.0040 C   0  0  0  0  0  2  0  0  0  0  0  0
  191.2020  178.4560  142.9940 O   0  0  0  0  0  0  0  0  0  0  0  0
  190.1300  176.0340  145.3380 C   0  0  2  0  0  3  0  0  0  0  0  0
  185.4120  179.0400  147.1980 C   0  0  1  0  0  3  0  0  0  0  0  0
  185.8840  179.0300  145.7560 C   0  0  1  0  0  3  0  0  0  0  0  0
  185.3210  176.8440  146.4790 C   0  0  0  0  0  2  0  0  0  0  0  0
  185.3860  177.6640  147.6770 N   0  0  0  0  0  2  0  0  0  0  0  0
  186.1060  177.5720  145.4000 C   0  0  2  0  0  3  0  0  0  0  0  0
  186.3680  179.8510  148.0400 C   0  0  0  0  0  1  0  0  0  0  0  0
  184.8870  179.5690  144.9410 O   0  0  0  0  0  1  0  0  0  0  0  0
  193.8750  171.4850  142.7120 C   0  0  0  0  0  2  0  0  0  0  0  0
  194.8110  171.7050  141.5250 C   0  0  1  0  0  3  0  0  0  0  0  0
  197.3290  172.9990  140.6900 C   0  0  0  0  0  2  0  0  0  0  0  0
  196.1440  170.9520  141.6860 C   0  0  2  0  0  3  0  0  0  0  0  0
  197.9410  173.6360  141.9310 C   0  0  0  0  0  2  0  0  0  0  0  0
  196.5850  170.8240  143.1520 C   0  0  0  0  0  2  0  0  0  0  0  0
  197.2650  171.4720  140.7690 C   0  0  0  0  0  2  0  0  0  0  0  0
  197.1020  173.3810  143.1720 C   0  0  0  0  0  2  0  0  0  0  0  0
  197.4240  171.9870  143.7160 C   0  0  1  0  0  3  0  0  0  0  0  0
  197.5380  171.9490  145.1210 O   0  0  0  0  0  0  0  0  0  0  0  0
  197.1130  170.6870  145.5690 C   0  0  0  0  0  1  0  0  0  0  0  0
  193.9820  171.2690  139.9530 S   0  0  0  0  0  0  0  0  0  0  0  0
  193.2380  172.8880  139.7720 C   0  0  0  0  0  0  0  0  0  0  0  0
  194.0470  174.0630  139.9340 S   0  0  0  0  0  0  0  0  0  0  0  0
  191.7520  173.0030  139.6670 C   0  0  0  0  0  2  0  0  0  0  0  0
  191.0710  172.0340  140.6310 C   0  0  0  0  0  2  0  0  0  0  0  0
  188.6340  172.7400  140.0790 C   0  0  0  0  0  2  0  0  0  0  0  0
  189.2050  171.9060  142.2860 O   0  0  0  0  0  1  0  0  0  0  0  0
  188.2520  174.4430  141.8480 C   0  0  0  0  0  1  0  0  0  0  0  0
  189.2460  173.9300  140.8220 C   0  0  1  0  0  3  0  0  0  0  0  0
  189.7000  172.5060  141.1240 C   0  0  1  0  0  0  0  0  0  0  0  0
  1  4  1  0  0  0  0
  1  2  2  0  0  0  0
  3  1  1  0  0  0  0
  4  9  2  0  0  0  0
  4  8  1  0  0  0  0
  7  6  1  0  0  0  0
  7  8  1  0  0  0  0
  9  5  1  0  0  0  0
 10  6  1  0  0  0  0
 10  5  1  0  0  0  0
 11  9  1  0  0  0  0
 13 19  1  0  0  0  0
 14 16  1  6  0  0  0
 14 17  1  0  0  0  0
 15 13  2  0  0  0  0
 16 13  1  0  0  0  0
 17 12  1  0  0  0  0
 18 15  2  0  0  0  0
 19 11  1  6  0  0  0
 19 12  1  0  0  0  0
 20 23  1  0  0  0  0
 20 25  1  1  0  0  0
 21 26  1  6  0  0  0
 21 20  1  0  0  0  0
 22 23  1  0  0  0  0
 24 14  1  0  0  0  0
 24 21  1  0  0  0  0
 24 22  1  1  0  0  0
 27  3  1  0  0  0  0
 28 27  1  1  0  0  0
 29 33  1  0  0  0  0
 29 31  1  0  0  0  0
 30 28  1  1  0  0  0
 30 32  1  0  0  0  0
 31 34  1  0  0  0  0
 32 35  1  0  0  0  0
 33 30  1  0  0  0  0
 34 35  1  0  0  0  0
 35 36  1  1  0  0  0
 36 37  1  0  0  0  0
 38 28  1  0  0  0  0
 39 40  2  0  0  0  0
 39 38  1  0  0  0  0
 41 39  1  0  0  0  0
 41 42  1  0  0  0  0
 42 47  1  0  0  0  0
 43 46  1  0  0  0  0
 43 47  1  0  0  0  0
 46 47  1  0  0  0  0
 46 45  1  1  0  0  0
 47 44  1  1  0  0  0
M  END
>  <MODEL>
9

>  <REMARK>
 VINA RESULT:      -6.0      3.377      8.995
  Name = 
  13 active torsions:
  status: ('A' for Active; 'I' for Inactive)
    1  A    between atoms: C_2  and  C_7
    2  A    between atoms: C_2  and  S_10
    3  A    between atoms: C_3  and  C_9
    4  A    between atoms: C_7  and  C_14
    5  A    between atoms: S_10  and  C_34
    6  A    between atoms: C_14  and  C_40
    7  A    between atoms: C_15  and  C_34
    8  A    between atoms: O_16  and  C_45
    9  A    between atoms: S_18  and  C_38
   10  A    between atoms: S_18  and  C_47
   11  A    between atoms: N_19  and  C_31
   12  A    between atoms: N_21  and  C_32
   13  A    between atoms: C_32  and  C_34
                            x       y       z     vdW  Elec       q    Type
                         _______ _______ _______ _____ _____    ______ ____

>  <TORSDO>
F 13

$$$$
