=
 OpenBabel11062419253D

 38 41  0  0  1  0  0  0  0  0999 V2000
  193.1670  171.4700  142.3600 C   0  0  2  0  0  3  0  0  0  0  0  0
  191.1170  171.9730  142.2240 C   0  0  1  0  0  3  0  0  0  0  0  0
  192.3920  172.3820  140.9950 S   0  0  0  0  0  0  0  0  0  0  0  0
  191.9780  171.2880  143.1780 N   0  0  0  0  0  2  0  0  0  0  0  0
  190.5500  173.2450  142.8610 C   0  0  1  0  0  3  0  0  0  0  0  0
  189.0080  174.8640  142.6720 N   0  0  0  0  0  0  0  0  0  0  0  0
  191.1650  174.4080  142.3490 O   0  0  0  0  0  0  0  0  0  0  0  0
  186.6840  175.0210  142.7220 O   0  0  0  0  0  0  0  0  0  0  0  0
  190.2780  175.4370  142.5370 N   0  0  0  0  0  2  0  0  0  0  0  0
  187.7890  175.6240  142.8110 C   0  0  0  0  0  0  0  0  0  0  0  0
  189.0580  173.4340  142.7150 C   0  0  1  0  0  3  0  0  0  0  0  0
  188.5140  172.8770  141.3980 C   0  0  0  0  0  1  0  0  0  0  0  0
  187.7760  177.0910  143.0510 C   0  0  0  0  0  0  0  0  0  0  0  0
  188.7680  178.7440  141.3890 O   0  0  0  0  0  0  0  0  0  0  0  0
  188.2840  177.9380  142.1940 C   0  0  0  0  0  0  0  0  0  0  0  0
  187.1640  177.6400  144.3110 C   0  0  0  0  0  2  0  0  0  0  0  0
  184.9370  177.7310  145.4470 C   0  0  0  0  0  1  0  0  0  0  0  0
  185.6910  178.0940  144.1790 C   0  0  0  0  0  0  0  0  0  0  0  0
  185.5780  179.6100  144.0090 C   0  0  0  0  0  1  0  0  0  0  0  0
  185.0550  177.4110  143.1130 O   0  0  0  0  0  0  0  0  0  0  0  0
  184.2560  178.3040  142.3740 C   0  0  0  0  0  2  0  0  0  0  0  0
  184.6340  178.2280  140.9100 C   0  0  0  0  0  1  0  0  0  0  0  0
  194.1180  172.3370  143.0450 N   0  0  0  0  0  2  0  0  0  0  0  0
  194.4230  173.3950  142.1740 N   0  0  0  0  0  2  0  0  0  0  0  0
  195.4520  174.1970  142.8190 C   0  0  0  0  0  2  0  0  0  0  0  0
  195.0370  175.6720  142.8430 C   0  0  1  0  0  3  0  0  0  0  0  0
  194.7250  174.9080  145.5420 S   0  0  0  0  0  0  0  0  0  0  0  0
  193.1900  176.4780  144.3960 C   0  0  0  0  0  2  0  0  0  0  0  0
  192.9940  175.4720  145.5160 C   0  0  2  0  0  3  0  0  0  0  0  0
  194.6680  176.1890  144.2470 C   0  0  2  0  0  3  0  0  0  0  0  0
  192.6760  176.1900  146.8180 C   0  0  0  0  0  2  0  0  0  0  0  0
  191.4990  175.5350  147.5140 C   0  0  0  0  0  2  0  0  0  0  0  0
  190.5690  174.9430  146.4750 C   0  0  0  0  0  3  0  0  0  0  0  0
  189.3660  175.8450  146.3180 C   0  0  0  0  0  2  0  0  0  0  0  0
  189.2580  174.5810  147.1420 C   0  0  0  0  0  2  0  0  0  0  0  0
  196.8100  175.8210  141.0720 C   0  0  0  0  0  1  0  0  0  0  0  0
  196.1260  176.5490  142.2160 C   0  0  2  0  0  3  0  0  0  0  0  0
  197.1300  176.9030  143.2050 N   0  0  0  0  0  1  0  0  0  0  0  0
  1 23  1  1  0  0  0
  1  4  1  0  0  0  0
  2  3  1  6  0  0  0
  2  5  1  0  0  0  0
  2  4  1  0  0  0  0
  3  1  1  0  0  0  0
  5  7  1  6  0  0  0
  6 11  1  0  0  0  0
  6 10  1  0  0  0  0
  7  9  1  0  0  0  0
  8 10  2  0  0  0  0
  9  6  1  0  0  0  0
 10 13  1  0  0  0  0
 11 12  1  6  0  0  0
 11  5  1  0  0  0  0
 13 16  1  0  0  0  0
 14 15  2  0  0  0  0
 15 13  2  0  0  0  0
 18 16  1  0  0  0  0
 18 17  1  0  0  0  0
 19 18  1  0  0  0  0
 20 18  1  0  0  0  0
 21 20  1  0  0  0  0
 22 21  1  0  0  0  0
 24 25  1  0  0  0  0
 24 23  1  0  0  0  0
 26 25  1  1  0  0  0
 28 29  1  0  0  0  0
 29 27  1  0  0  0  0
 29 31  1  1  0  0  0
 30 26  1  6  0  0  0
 30 28  1  0  0  0  0
 30 27  1  0  0  0  0
 31 32  1  0  0  0  0
 33 35  1  0  0  0  0
 33 32  1  0  0  0  0
 34 33  1  0  0  0  0
 34 35  1  0  0  0  0
 37 36  1  6  0  0  0
 37 26  1  0  0  0  0
 37 38  1  0  0  0  0
M  END
>  <MODEL>
1

>  <REMARK>
 VINA RESULT:      -6.2      0.000      0.000
  Name = 
  15 active torsions:
  status: ('A' for Active; 'I' for Inactive)
    1  A    between atoms: O_1  and  C_12
    2  A    between atoms: O_1  and  C_17
    3  A    between atoms: C_2  and  C_11
    4  A    between atoms: N_3  and  C_23
    5  A    between atoms: N_3  and  N_36
    6  A    between atoms: C_4  and  C_18
    7  A    between atoms: C_7  and  C_24
    8  A    between atoms: C_7  and  C_31
    9  A    between atoms: C_11  and  C_35
   10  A    between atoms: C_12  and  C_31
   11  A    between atoms: C_14  and  C_23
   12  A    between atoms: C_14  and  C_25
   13  A    between atoms: C_14  and  C_28
   14  A    between atoms: C_16  and  N_36
   15  A    between atoms: C_27  and  C_35
                            x       y       z     vdW  Elec       q    Type
                         _______ _______ _______ _____ _____    ______ ____

>  <TORSDO>
F 15

$$$$
=
 OpenBabel11062419253D

 38 41  0  0  1  0  0  0  0  0999 V2000
  192.6340  171.2130  141.8170 C   0  0  2  0  0  3  0  0  0  0  0  0
  190.6950  172.0530  141.7170 C   0  0  1  0  0  3  0  0  0  0  0  0
  192.0530  172.3780  140.5530 S   0  0  0  0  0  0  0  0  0  0  0  0
  191.4080  171.1390  142.5980 N   0  0  0  0  0  2  0  0  0  0  0  0
  190.3210  173.3250  142.4830 C   0  0  1  0  0  3  0  0  0  0  0  0
  188.9000  175.0580  142.5850 N   0  0  0  0  0  0  0  0  0  0  0  0
  190.9520  174.4670  141.9440 O   0  0  0  0  0  0  0  0  0  0  0  0
  186.6240  175.3780  142.9640 O   0  0  0  0  0  0  0  0  0  0  0  0
  190.1810  175.5450  142.3010 N   0  0  0  0  0  2  0  0  0  0  0  0
  187.7750  175.8940  142.9260 C   0  0  0  0  0  0  0  0  0  0  0  0
  188.8430  173.6280  142.5540 C   0  0  1  0  0  3  0  0  0  0  0  0
  188.0840  173.1860  141.3020 C   0  0  0  0  0  1  0  0  0  0  0  0
  187.9100  177.3430  143.2320 C   0  0  0  0  0  0  0  0  0  0  0  0
  189.8540  178.2650  144.5930 O   0  0  0  0  0  0  0  0  0  0  0  0
  188.9120  177.8130  143.9300 C   0  0  0  0  0  0  0  0  0  0  0  0
  186.8750  178.3150  142.7340 C   0  0  0  0  0  2  0  0  0  0  0  0
  185.5840  180.0300  144.0170 C   0  0  0  0  0  1  0  0  0  0  0  0
  185.6840  178.5500  143.6920 C   0  0  0  0  0  0  0  0  0  0  0  0
  184.3550  178.1400  143.0540 C   0  0  0  0  0  1  0  0  0  0  0  0
  185.8920  177.8720  144.9180 O   0  0  0  0  0  0  0  0  0  0  0  0
  185.5920  178.7220  145.9990 C   0  0  0  0  0  2  0  0  0  0  0  0
  184.5070  178.0960  146.8500 C   0  0  0  0  0  1  0  0  0  0  0  0
  193.6920  171.8360  142.6030 N   0  0  0  0  0  2  0  0  0  0  0  0
  194.0970  172.9920  141.9170 N   0  0  0  0  0  2  0  0  0  0  0  0
  195.2810  173.4990  142.5940 C   0  0  0  0  0  2  0  0  0  0  0  0
  195.2690  175.0310  142.6090 C   0  0  1  0  0  3  0  0  0  0  0  0
  194.6320  174.4060  145.2860 S   0  0  0  0  0  0  0  0  0  0  0  0
  193.3720  176.0680  143.9510 C   0  0  0  0  0  2  0  0  0  0  0  0
  192.9750  175.1310  145.0750 C   0  0  2  0  0  3  0  0  0  0  0  0
  194.8230  175.6350  143.9540 C   0  0  2  0  0  3  0  0  0  0  0  0
  192.6080  175.9250  146.3180 C   0  0  0  0  0  2  0  0  0  0  0  0
  191.4450  175.2760  147.0420 C   0  0  0  0  0  2  0  0  0  0  0  0
  190.2420  175.2350  146.1220 C   0  0  0  0  0  3  0  0  0  0  0  0
  188.9920  175.4950  146.9300 C   0  0  0  0  0  2  0  0  0  0  0  0
  189.3510  174.0810  146.5320 C   0  0  0  0  0  2  0  0  0  0  0  0
  197.0390  176.7440  143.0930 C   0  0  0  0  0  1  0  0  0  0  0  0
  196.6380  175.5850  142.1980 C   0  0  2  0  0  3  0  0  0  0  0  0
  196.6090  176.0500  140.8220 N   0  0  0  0  0  1  0  0  0  0  0  0
  1  4  1  0  0  0  0
  1 23  1  1  0  0  0
  2  3  1  6  0  0  0
  2  5  1  0  0  0  0
  2  4  1  0  0  0  0
  3  1  1  0  0  0  0
  5  7  1  6  0  0  0
  5 11  1  0  0  0  0
  6 10  1  0  0  0  0
  7  9  1  0  0  0  0
  9  6  1  0  0  0  0
 10  8  2  0  0  0  0
 10 13  1  0  0  0  0
 11 12  1  6  0  0  0
 11  6  1  0  0  0  0
 13 15  2  0  0  0  0
 15 14  2  0  0  0  0
 16 13  1  0  0  0  0
 16 18  1  0  0  0  0
 18 17  1  0  0  0  0
 18 20  1  0  0  0  0
 19 18  1  0  0  0  0
 20 21  1  0  0  0  0
 21 22  1  0  0  0  0
 24 25  1  0  0  0  0
 24 23  1  0  0  0  0
 26 25  1  1  0  0  0
 28 30  1  0  0  0  0
 28 29  1  0  0  0  0
 29 27  1  0  0  0  0
 29 31  1  1  0  0  0
 30 26  1  6  0  0  0
 30 27  1  0  0  0  0
 31 32  1  0  0  0  0
 33 35  1  0  0  0  0
 33 34  1  0  0  0  0
 33 32  1  0  0  0  0
 35 34  1  0  0  0  0
 37 26  1  0  0  0  0
 37 36  1  1  0  0  0
 38 37  1  0  0  0  0
M  END
>  <MODEL>
2

>  <REMARK>
 VINA RESULT:      -6.0      1.089      1.681
  Name = 
  15 active torsions:
  status: ('A' for Active; 'I' for Inactive)
    1  A    between atoms: O_1  and  C_12
    2  A    between atoms: O_1  and  C_17
    3  A    between atoms: C_2  and  C_11
    4  A    between atoms: N_3  and  C_23
    5  A    between atoms: N_3  and  N_36
    6  A    between atoms: C_4  and  C_18
    7  A    between atoms: C_7  and  C_24
    8  A    between atoms: C_7  and  C_31
    9  A    between atoms: C_11  and  C_35
   10  A    between atoms: C_12  and  C_31
   11  A    between atoms: C_14  and  C_23
   12  A    between atoms: C_14  and  C_25
   13  A    between atoms: C_14  and  C_28
   14  A    between atoms: C_16  and  N_36
   15  A    between atoms: C_27  and  C_35
                            x       y       z     vdW  Elec       q    Type
                         _______ _______ _______ _____ _____    ______ ____

>  <TORSDO>
F 15

$$$$
=
 OpenBabel11062419253D

 38 41  0  0  1  0  0  0  0  0999 V2000
  193.7650  175.1070  145.9440 C   0  0  2  0  0  3  0  0  0  0  0  0
  192.3200  176.5440  145.3820 C   0  0  1  0  0  3  0  0  0  0  0  0
  192.2440  175.4880  146.8590 S   0  0  0  0  0  0  0  0  0  0  0  0
  193.5760  176.0420  144.8460 N   0  0  0  0  0  2  0  0  0  0  0  0
  191.1770  176.2130  144.4180 C   0  0  1  0  0  3  0  0  0  0  0  0
  189.4280  177.0450  143.2860 N   0  0  0  0  0  0  0  0  0  0  0  0
  189.9880  175.8870  145.1060 O   0  0  0  0  0  0  0  0  0  0  0  0
  189.0820  178.5730  141.5610 O   0  0  0  0  0  0  0  0  0  0  0  0
  188.9530  176.1390  144.2420 N   0  0  0  0  0  2  0  0  0  0  0  0
  188.6140  177.6180  142.2420 C   0  0  0  0  0  0  0  0  0  0  0  0
  190.8300  177.2970  143.4260 C   0  0  1  0  0  3  0  0  0  0  0  0
  191.0290  178.7050  143.9880 C   0  0  0  0  0  1  0  0  0  0  0  0
  187.2420  177.1370  141.9320 C   0  0  0  0  0  0  0  0  0  0  0  0
  186.3240  177.0960  139.5580 O   0  0  0  0  0  0  0  0  0  0  0  0
  186.7740  177.1150  140.7100 C   0  0  0  0  0  0  0  0  0  0  0  0
  186.3470  176.6560  143.0420 C   0  0  0  0  0  2  0  0  0  0  0  0
  186.2310  179.0330  143.8100 C   0  0  0  0  0  1  0  0  0  0  0  0
  185.4440  177.7420  143.6710 C   0  0  0  0  0  0  0  0  0  0  0  0
  184.2300  178.0500  142.7920 C   0  0  0  0  0  1  0  0  0  0  0  0
  185.0450  177.3620  144.9760 O   0  0  0  0  0  0  0  0  0  0  0  0
  184.2930  178.3900  145.5730 C   0  0  0  0  0  2  0  0  0  0  0  0
  184.5990  178.4480  147.0550 C   0  0  0  0  0  1  0  0  0  0  0  0
  193.7040  173.7360  145.4510 N   0  0  0  0  0  2  0  0  0  0  0  0
  194.0170  173.7690  144.0830 N   0  0  0  0  0  2  0  0  0  0  0  0
  194.0160  172.3940  143.6100 C   0  0  0  0  0  2  0  0  0  0  0  0
  193.0490  171.5460  144.4430 C   0  0  1  0  0  3  0  0  0  0  0  0
  191.6260  171.8120  142.0200 S   0  0  0  0  0  0  0  0  0  0  0  0
  190.6520  172.3740  144.2270 C   0  0  0  0  0  2  0  0  0  0  0  0
  190.4290  172.9190  142.8280 C   0  0  2  0  0  3  0  0  0  0  0  0
  191.6710  171.3470  143.7820 C   0  0  2  0  0  3  0  0  0  0  0  0
  189.0250  172.5830  142.3510 C   0  0  0  0  0  2  0  0  0  0  0  0
  188.5090  173.6570  141.4130 C   0  0  0  0  0  2  0  0  0  0  0  0
  188.3610  173.0780  140.0210 C   0  0  0  0  0  3  0  0  0  0  0  0
  189.6040  173.3890  139.2210 C   0  0  0  0  0  2  0  0  0  0  0  0
  188.3510  174.2120  139.0170 C   0  0  0  0  0  2  0  0  0  0  0  0
  194.7010  170.3470  145.9040 C   0  0  0  0  0  1  0  0  0  0  0  0
  193.6790  170.1930  144.7910 C   0  0  2  0  0  3  0  0  0  0  0  0
  194.3410  169.6240  143.6290 N   0  0  0  0  0  1  0  0  0  0  0  0
  1 23  1  6  0  0  0
  1  3  1  0  0  0  0
  2  4  1  6  0  0  0
  2  3  1  0  0  0  0
  4  1  1  0  0  0  0
  5  7  1  1  0  0  0
  5  2  1  0  0  0  0
  6 11  1  0  0  0  0
  6  9  1  0  0  0  0
  8 10  2  0  0  0  0
  9  7  1  0  0  0  0
 10  6  1  0  0  0  0
 11 12  1  1  0  0  0
 11  5  1  0  0  0  0
 13 10  1  0  0  0  0
 13 16  1  0  0  0  0
 14 15  2  0  0  0  0
 15 13  2  0  0  0  0
 16 18  1  0  0  0  0
 18 17  1  0  0  0  0
 18 20  1  0  0  0  0
 19 18  1  0  0  0  0
 20 21  1  0  0  0  0
 21 22  1  0  0  0  0
 24 23  1  0  0  0  0
 25 24  1  0  0  0  0
 26 25  1  6  0  0  0
 26 37  1  0  0  0  0
 27 29  1  0  0  0  0
 27 30  1  0  0  0  0
 29 31  1  6  0  0  0
 29 28  1  0  0  0  0
 30 28  1  0  0  0  0
 30 26  1  1  0  0  0
 32 31  1  0  0  0  0
 33 32  1  0  0  0  0
 34 33  1  0  0  0  0
 35 34  1  0  0  0  0
 35 33  1  0  0  0  0
 37 36  1  1  0  0  0
 38 37  1  0  0  0  0
M  END
>  <MODEL>
3

>  <REMARK>
 VINA RESULT:      -5.8      2.332      4.948
  Name = 
  15 active torsions:
  status: ('A' for Active; 'I' for Inactive)
    1  A    between atoms: O_1  and  C_12
    2  A    between atoms: O_1  and  C_17
    3  A    between atoms: C_2  and  C_11
    4  A    between atoms: N_3  and  C_23
    5  A    between atoms: N_3  and  N_36
    6  A    between atoms: C_4  and  C_18
    7  A    between atoms: C_7  and  C_24
    8  A    between atoms: C_7  and  C_31
    9  A    between atoms: C_11  and  C_35
   10  A    between atoms: C_12  and  C_31
   11  A    between atoms: C_14  and  C_23
   12  A    between atoms: C_14  and  C_25
   13  A    between atoms: C_14  and  C_28
   14  A    between atoms: C_16  and  N_36
   15  A    between atoms: C_27  and  C_35
                            x       y       z     vdW  Elec       q    Type
                         _______ _______ _______ _____ _____    ______ ____

>  <TORSDO>
F 15

$$$$
=
 OpenBabel11062419253D

 38 41  0  0  1  0  0  0  0  0999 V2000
  191.7090  170.6600  142.0340 C   0  0  2  0  0  3  0  0  0  0  0  0
  190.2010  171.8320  141.1270 C   0  0  1  0  0  3  0  0  0  0  0  0
  191.9920  172.0660  140.9220 S   0  0  0  0  0  0  0  0  0  0  0  0
  190.2550  170.7000  142.0400 N   0  0  0  0  0  2  0  0  0  0  0  0
  189.5750  173.0380  141.8340 C   0  0  1  0  0  3  0  0  0  0  0  0
  188.9020  175.1650  141.5930 N   0  0  0  0  0  0  0  0  0  0  0  0
  190.5550  173.8940  142.3810 O   0  0  0  0  0  0  0  0  0  0  0  0
  187.2740  176.3130  140.3850 O   0  0  0  0  0  0  0  0  0  0  0  0
  189.9770  175.1330  142.4890 N   0  0  0  0  0  2  0  0  0  0  0  0
  188.0830  176.3280  141.3540 C   0  0  0  0  0  0  0  0  0  0  0  0
  188.6690  173.8920  140.9790 C   0  0  1  0  0  3  0  0  0  0  0  0
  189.1150  173.9550  139.5180 C   0  0  0  0  0  1  0  0  0  0  0  0
  188.1520  177.5500  142.1970 C   0  0  0  0  0  0  0  0  0  0  0  0
  190.2700  178.2200  143.4410 O   0  0  0  0  0  0  0  0  0  0  0  0
  189.2430  177.8930  142.8330 C   0  0  0  0  0  0  0  0  0  0  0  0
  186.9430  178.4350  142.3370 C   0  0  0  0  0  2  0  0  0  0  0  0
  184.5020  178.0160  142.6860 C   0  0  0  0  0  1  0  0  0  0  0  0
  185.8740  177.9280  143.3330 C   0  0  0  0  0  0  0  0  0  0  0  0
  186.0980  176.4630  143.7090 C   0  0  0  0  0  1  0  0  0  0  0  0
  185.8380  178.7520  144.4850 O   0  0  0  0  0  0  0  0  0  0  0  0
  184.8350  178.3080  145.3670 C   0  0  0  0  0  2  0  0  0  0  0  0
  185.1540  178.7740  146.7720 C   0  0  0  0  0  1  0  0  0  0  0  0
  192.2240  170.9780  143.3600 N   0  0  0  0  0  2  0  0  0  0  0  0
  193.4180  171.6950  143.1840 N   0  0  0  0  0  2  0  0  0  0  0  0
  193.8010  172.2160  144.4870 C   0  0  0  0  0  2  0  0  0  0  0  0
  194.4540  173.5940  144.3370 C   0  0  1  0  0  3  0  0  0  0  0  0
  194.1600  175.7120  146.1790 S   0  0  0  0  0  0  0  0  0  0  0  0
  192.2670  174.3010  145.4290 C   0  0  0  0  0  2  0  0  0  0  0  0
  192.5620  175.0330  146.7260 C   0  0  2  0  0  3  0  0  0  0  0  0
  193.5390  174.7630  144.7510 C   0  0  2  0  0  3  0  0  0  0  0  0
  191.5710  176.1680  146.9250 C   0  0  0  0  0  2  0  0  0  0  0  0
  190.2090  175.6250  147.3110 C   0  0  0  0  0  2  0  0  0  0  0  0
  189.2060  175.9730  146.2300 C   0  0  0  0  0  3  0  0  0  0  0  0
  188.6350  177.3440  146.5080 C   0  0  0  0  0  2  0  0  0  0  0  0
  187.8350  176.1100  146.8600 C   0  0  0  0  0  2  0  0  0  0  0  0
  196.9470  173.8220  144.1500 C   0  0  0  0  0  1  0  0  0  0  0  0
  195.7790  173.6500  145.1050 C   0  0  2  0  0  3  0  0  0  0  0  0
  195.9800  172.4290  145.8670 N   0  0  0  0  0  1  0  0  0  0  0  0
  1  4  1  0  0  0  0
  1 23  1  1  0  0  0
  2  3  1  1  0  0  0
  2  5  1  0  0  0  0
  2  4  1  0  0  0  0
  3  1  1  0  0  0  0
  5  7  1  6  0  0  0
  6  9  1  0  0  0  0
  7  9  1  0  0  0  0
  8 10  2  0  0  0  0
 10  6  1  0  0  0  0
 10 13  1  0  0  0  0
 11 12  1  6  0  0  0
 11  6  1  0  0  0  0
 11  5  1  0  0  0  0
 13 16  1  0  0  0  0
 13 15  2  0  0  0  0
 15 14  2  0  0  0  0
 16 18  1  0  0  0  0
 17 18  1  0  0  0  0
 18 19  1  0  0  0  0
 18 20  1  0  0  0  0
 20 21  1  0  0  0  0
 21 22  1  0  0  0  0
 24 23  1  0  0  0  0
 24 25  1  0  0  0  0
 26 25  1  1  0  0  0
 26 37  1  0  0  0  0
 27 29  1  0  0  0  0
 28 29  1  0  0  0  0
 29 31  1  6  0  0  0
 30 26  1  1  0  0  0
 30 28  1  0  0  0  0
 30 27  1  0  0  0  0
 31 32  1  0  0  0  0
 33 34  1  0  0  0  0
 33 35  1  0  0  0  0
 33 32  1  0  0  0  0
 34 35  1  0  0  0  0
 37 36  1  6  0  0  0
 37 38  1  0  0  0  0
M  END
>  <MODEL>
4

>  <REMARK>
 VINA RESULT:      -5.6      1.848      2.438
  Name = 
  15 active torsions:
  status: ('A' for Active; 'I' for Inactive)
    1  A    between atoms: O_1  and  C_12
    2  A    between atoms: O_1  and  C_17
    3  A    between atoms: C_2  and  C_11
    4  A    between atoms: N_3  and  C_23
    5  A    between atoms: N_3  and  N_36
    6  A    between atoms: C_4  and  C_18
    7  A    between atoms: C_7  and  C_24
    8  A    between atoms: C_7  and  C_31
    9  A    between atoms: C_11  and  C_35
   10  A    between atoms: C_12  and  C_31
   11  A    between atoms: C_14  and  C_23
   12  A    between atoms: C_14  and  C_25
   13  A    between atoms: C_14  and  C_28
   14  A    between atoms: C_16  and  N_36
   15  A    between atoms: C_27  and  C_35
                            x       y       z     vdW  Elec       q    Type
                         _______ _______ _______ _____ _____    ______ ____

>  <TORSDO>
F 15

$$$$
=
 OpenBabel11062419253D

 38 41  0  0  1  0  0  0  0  0999 V2000
  188.1990  173.6850  141.6080 C   0  0  2  0  0  3  0  0  0  0  0  0
  190.0180  172.7300  141.1060 C   0  0  1  0  0  3  0  0  0  0  0  0
  188.9860  172.3520  142.5540 S   0  0  0  0  0  0  0  0  0  0  0  0
  189.1970  173.7990  140.5550 N   0  0  0  0  0  2  0  0  0  0  0  0
  191.3750  173.2920  141.5390 C   0  0  1  0  0  3  0  0  0  0  0  0
  193.5940  173.1770  141.2300 N   0  0  0  0  0  0  0  0  0  0  0  0
  191.9460  172.5370  142.5860 O   0  0  0  0  0  0  0  0  0  0  0  0
  195.1030  173.6170  139.5090 O   0  0  0  0  0  0  0  0  0  0  0  0
  193.3000  172.7480  142.5290 N   0  0  0  0  0  2  0  0  0  0  0  0
  194.9290  173.4320  140.7460 C   0  0  0  0  0  0  0  0  0  0  0  0
  192.4140  173.3890  140.4470 C   0  0  1  0  0  3  0  0  0  0  0  0
  192.2960  172.2710  139.4110 C   0  0  0  0  0  1  0  0  0  0  0  0
  196.1160  173.4840  141.6400 C   0  0  0  0  0  0  0  0  0  0  0  0
  196.9680  171.4300  142.8790 O   0  0  0  0  0  0  0  0  0  0  0  0
  196.5530  172.4260  142.2740 C   0  0  0  0  0  0  0  0  0  0  0  0
  196.8510  174.7810  141.8370 C   0  0  0  0  0  2  0  0  0  0  0  0
  197.1610  176.8880  143.1500 C   0  0  0  0  0  1  0  0  0  0  0  0
  196.5960  175.4780  143.1940 C   0  0  0  0  0  0  0  0  0  0  0  0
  195.1010  175.6040  143.4940 C   0  0  0  0  0  1  0  0  0  0  0  0
  197.2700  174.7980  144.2370 O   0  0  0  0  0  0  0  0  0  0  0  0
  196.3830  174.5320  145.2970 C   0  0  0  0  0  2  0  0  0  0  0  0
  196.8740  173.3340  146.0800 C   0  0  0  0  0  1  0  0  0  0  0  0
  188.1760  174.9030  142.4100 N   0  0  0  0  0  2  0  0  0  0  0  0
  187.2460  175.7740  141.8210 N   0  0  0  0  0  2  0  0  0  0  0  0
  187.5790  177.1190  142.2650 C   0  0  0  0  0  2  0  0  0  0  0  0
  186.7690  177.4810  143.5140 C   0  0  1  0  0  3  0  0  0  0  0  0
  189.4290  177.8430  144.3850 S   0  0  0  0  0  0  0  0  0  0  0  0
  187.6740  176.8140  145.7970 C   0  0  0  0  0  2  0  0  0  0  0  0
  189.1760  176.6210  145.7100 C   0  0  2  0  0  3  0  0  0  0  0  0
  187.6380  177.8800  144.7230 C   0  0  2  0  0  3  0  0  0  0  0  0
  189.8440  177.1100  146.9850 C   0  0  0  0  0  2  0  0  0  0  0  0
  190.9800  176.1860  147.3810 C   0  0  0  0  0  2  0  0  0  0  0  0
  191.9430  176.0500  146.2200 C   0  0  0  0  0  3  0  0  0  0  0  0
  192.7720  174.8010  146.4100 C   0  0  0  0  0  2  0  0  0  0  0  0
  193.3600  176.1530  146.7460 C   0  0  0  0  0  2  0  0  0  0  0  0
  185.6480  179.5660  144.3490 C   0  0  0  0  0  1  0  0  0  0  0  0
  185.7510  178.5820  143.1980 C   0  0  2  0  0  3  0  0  0  0  0  0
  184.4370  178.0100  142.9590 N   0  0  0  0  0  1  0  0  0  0  0  0
  1 23  1  1  0  0  0
  1  3  1  0  0  0  0
  2  4  1  6  0  0  0
  2  5  1  0  0  0  0
  2  3  1  0  0  0  0
  4  1  1  0  0  0  0
  5  7  1  1  0  0  0
  6  9  1  0  0  0  0
  8 10  2  0  0  0  0
  9  7  1  0  0  0  0
 10  6  1  0  0  0  0
 10 13  1  0  0  0  0
 11 12  1  6  0  0  0
 11  6  1  0  0  0  0
 11  5  1  0  0  0  0
 13 16  1  0  0  0  0
 13 15  2  0  0  0  0
 15 14  2  0  0  0  0
 16 18  1  0  0  0  0
 17 18  1  0  0  0  0
 18 19  1  0  0  0  0
 18 20  1  0  0  0  0
 20 21  1  0  0  0  0
 21 22  1  0  0  0  0
 24 25  1  0  0  0  0
 24 23  1  0  0  0  0
 26 25  1  6  0  0  0
 27 30  1  0  0  0  0
 27 29  1  0  0  0  0
 29 28  1  0  0  0  0
 29 31  1  1  0  0  0
 30 26  1  6  0  0  0
 30 28  1  0  0  0  0
 31 32  1  0  0  0  0
 33 34  1  0  0  0  0
 33 35  1  0  0  0  0
 33 32  1  0  0  0  0
 34 35  1  0  0  0  0
 37 26  1  0  0  0  0
 37 36  1  1  0  0  0
 38 37  1  0  0  0  0
M  END
>  <MODEL>
5

>  <REMARK>
 VINA RESULT:      -5.6      2.876      8.074
  Name = 
  15 active torsions:
  status: ('A' for Active; 'I' for Inactive)
    1  A    between atoms: O_1  and  C_12
    2  A    between atoms: O_1  and  C_17
    3  A    between atoms: C_2  and  C_11
    4  A    between atoms: N_3  and  C_23
    5  A    between atoms: N_3  and  N_36
    6  A    between atoms: C_4  and  C_18
    7  A    between atoms: C_7  and  C_24
    8  A    between atoms: C_7  and  C_31
    9  A    between atoms: C_11  and  C_35
   10  A    between atoms: C_12  and  C_31
   11  A    between atoms: C_14  and  C_23
   12  A    between atoms: C_14  and  C_25
   13  A    between atoms: C_14  and  C_28
   14  A    between atoms: C_16  and  N_36
   15  A    between atoms: C_27  and  C_35
                            x       y       z     vdW  Elec       q    Type
                         _______ _______ _______ _____ _____    ______ ____

>  <TORSDO>
F 15

$$$$
=
 OpenBabel11062419253D

 38 41  0  0  1  0  0  0  0  0999 V2000
  189.0650  175.9530  147.3620 C   0  0  2  0  0  3  0  0  0  0  0  0
  191.0030  175.7110  146.5530 C   0  0  1  0  0  3  0  0  0  0  0  0
  190.1180  177.2890  146.7310 S   0  0  0  0  0  0  0  0  0  0  0  0
  189.9690  174.8440  147.0980 N   0  0  0  0  0  2  0  0  0  0  0  0
  191.2300  175.3800  145.0750 C   0  0  1  0  0  3  0  0  0  0  0  0
  192.7700  174.9080  143.5130 N   0  0  0  0  0  0  0  0  0  0  0  0
  191.4770  176.5400  144.3090 O   0  0  0  0  0  0  0  0  0  0  0  0
  194.2950  173.1990  143.0820 O   0  0  0  0  0  0  0  0  0  0  0  0
  192.1750  176.1350  143.2000 N   0  0  0  0  0  2  0  0  0  0  0  0
  193.6540  174.1880  142.6290 C   0  0  0  0  0  0  0  0  0  0  0  0
  192.3580  174.4150  144.7930 C   0  0  1  0  0  3  0  0  0  0  0  0
  193.5190  174.5520  145.7770 C   0  0  0  0  0  1  0  0  0  0  0  0
  193.8500  174.5630  141.2040 C   0  0  0  0  0  0  0  0  0  0  0  0
  195.8170  175.9830  140.4340 O   0  0  0  0  0  0  0  0  0  0  0  0
  194.8640  175.2910  140.8110 C   0  0  0  0  0  0  0  0  0  0  0  0
  192.8650  174.1020  140.1640 C   0  0  0  0  0  2  0  0  0  0  0  0
  192.8080  172.7710  138.0470 C   0  0  0  0  0  1  0  0  0  0  0  0
  193.1880  172.7350  139.5170 C   0  0  0  0  0  0  0  0  0  0  0  0
  194.6820  172.4140  139.5860 C   0  0  0  0  0  1  0  0  0  0  0  0
  192.4180  171.7080  140.1160 O   0  0  0  0  0  0  0  0  0  0  0  0
  193.2600  170.7790  140.7540 C   0  0  0  0  0  2  0  0  0  0  0  0
  192.4720  169.5320  141.0960 C   0  0  0  0  0  1  0  0  0  0  0  0
  187.8740  175.8380  146.5290 N   0  0  0  0  0  2  0  0  0  0  0  0
  186.8830  176.6510  147.1010 N   0  0  0  0  0  2  0  0  0  0  0  0
  185.9350  176.9770  146.0470 C   0  0  0  0  0  2  0  0  0  0  0  0
  186.3930  178.2280  145.2900 C   0  0  1  0  0  3  0  0  0  0  0  0
  186.0510  176.4140  143.1550 S   0  0  0  0  0  0  0  0  0  0  0  0
  188.1930  177.5680  143.6180 C   0  0  0  0  0  2  0  0  0  0  0  0
  187.8550  176.2160  143.0170 C   0  0  2  0  0  3  0  0  0  0  0  0
  186.7460  177.9660  143.8130 C   0  0  2  0  0  3  0  0  0  0  0  0
  188.2500  176.1800  141.5490 C   0  0  0  0  0  2  0  0  0  0  0  0
  188.8390  174.8300  141.1890 C   0  0  0  0  0  2  0  0  0  0  0  0
  189.0190  174.0090  142.4490 C   0  0  0  0  0  3  0  0  0  0  0  0
  190.0020  172.8950  142.1770 C   0  0  0  0  0  2  0  0  0  0  0  0
  188.5190  172.6030  142.1930 C   0  0  0  0  0  2  0  0  0  0  0  0
  183.9730  178.7590  145.6990 C   0  0  0  0  0  1  0  0  0  0  0  0
  185.3440  179.3400  145.4020 C   0  0  2  0  0  3  0  0  0  0  0  0
  185.2680  180.0980  144.1640 N   0  0  0  0  0  1  0  0  0  0  0  0
  1 23  1  6  0  0  0
  2  3  1  6  0  0  0
  2  4  1  0  0  0  0
  3  1  1  0  0  0  0
  4  1  1  0  0  0  0
  5  7  1  6  0  0  0
  5  2  1  0  0  0  0
  6 11  1  0  0  0  0
  9  6  1  0  0  0  0
  9  7  1  0  0  0  0
 10  8  2  0  0  0  0
 10  6  1  0  0  0  0
 11  5  1  0  0  0  0
 11 12  1  1  0  0  0
 13 10  1  0  0  0  0
 14 15  2  0  0  0  0
 15 13  2  0  0  0  0
 16 13  1  0  0  0  0
 17 18  1  0  0  0  0
 18 19  1  0  0  0  0
 18 20  1  0  0  0  0
 18 16  1  0  0  0  0
 20 21  1  0  0  0  0
 21 22  1  0  0  0  0
 23 24  1  0  0  0  0
 25 24  1  0  0  0  0
 26 37  1  0  0  0  0
 26 25  1  6  0  0  0
 27 30  1  0  0  0  0
 28 30  1  0  0  0  0
 29 31  1  6  0  0  0
 29 27  1  0  0  0  0
 29 28  1  0  0  0  0
 30 26  1  1  0  0  0
 32 31  1  0  0  0  0
 32 33  1  0  0  0  0
 34 35  1  0  0  0  0
 34 33  1  0  0  0  0
 35 33  1  0  0  0  0
 37 36  1  6  0  0  0
 38 37  1  0  0  0  0
M  END
>  <MODEL>
6

>  <REMARK>
 VINA RESULT:      -5.5      3.125      8.261
  Name = 
  15 active torsions:
  status: ('A' for Active; 'I' for Inactive)
    1  A    between atoms: O_1  and  C_12
    2  A    between atoms: O_1  and  C_17
    3  A    between atoms: C_2  and  C_11
    4  A    between atoms: N_3  and  C_23
    5  A    between atoms: N_3  and  N_36
    6  A    between atoms: C_4  and  C_18
    7  A    between atoms: C_7  and  C_24
    8  A    between atoms: C_7  and  C_31
    9  A    between atoms: C_11  and  C_35
   10  A    between atoms: C_12  and  C_31
   11  A    between atoms: C_14  and  C_23
   12  A    between atoms: C_14  and  C_25
   13  A    between atoms: C_14  and  C_28
   14  A    between atoms: C_16  and  N_36
   15  A    between atoms: C_27  and  C_35
                            x       y       z     vdW  Elec       q    Type
                         _______ _______ _______ _____ _____    ______ ____

>  <TORSDO>
F 15

$$$$
=
 OpenBabel11062419253D

 38 41  0  0  1  0  0  0  0  0999 V2000
  193.4700  175.6050  145.3590 C   0  0  2  0  0  3  0  0  0  0  0  0
  191.6710  175.6270  146.4700 C   0  0  1  0  0  3  0  0  0  0  0  0
  191.9690  174.6690  144.9540 S   0  0  0  0  0  0  0  0  0  0  0  0
  192.9750  176.2700  146.5550 N   0  0  0  0  0  2  0  0  0  0  0  0
  190.5870  176.6850  146.2390 C   0  0  1  0  0  3  0  0  0  0  0  0
  188.3840  177.0370  146.0030 N   0  0  0  0  0  0  0  0  0  0  0  0
  190.2920  176.8430  144.8680 O   0  0  0  0  0  0  0  0  0  0  0  0
  186.4730  176.8310  147.3190 O   0  0  0  0  0  0  0  0  0  0  0  0
  189.0200  177.3520  144.7970 N   0  0  0  0  0  2  0  0  0  0  0  0
  187.0020  177.3350  146.2890 C   0  0  0  0  0  0  0  0  0  0  0  0
  189.2770  176.4350  146.9470 C   0  0  1  0  0  3  0  0  0  0  0  0
  188.9410  174.9490  147.0720 C   0  0  0  0  0  1  0  0  0  0  0  0
  186.1680  178.2070  145.4210 C   0  0  0  0  0  0  0  0  0  0  0  0
  183.8730  179.0400  146.1430 O   0  0  0  0  0  0  0  0  0  0  0  0
  184.9900  178.6350  145.7960 C   0  0  0  0  0  0  0  0  0  0  0  0
  186.6740  178.6220  144.0660 C   0  0  0  0  0  2  0  0  0  0  0  0
  186.0310  176.4070  143.0990 C   0  0  0  0  0  1  0  0  0  0  0  0
  186.0010  177.9080  142.8700 C   0  0  0  0  0  0  0  0  0  0  0  0
  184.5320  178.3100  142.7230 C   0  0  0  0  0  1  0  0  0  0  0  0
  186.7210  178.1570  141.6750 O   0  0  0  0  0  0  0  0  0  0  0  0
  185.9020  177.9140  140.5570 C   0  0  0  0  0  2  0  0  0  0  0  0
  186.6920  177.1660  139.5040 C   0  0  0  0  0  1  0  0  0  0  0  0
  193.7280  176.5860  144.3110 N   0  0  0  0  0  2  0  0  0  0  0  0
  193.1470  176.0990  143.1300 N   0  0  0  0  0  2  0  0  0  0  0  0
  194.1960  176.0550  142.1230 C   0  0  0  0  0  2  0  0  0  0  0  0
  194.9250  174.7090  142.1750 C   0  0  1  0  0  3  0  0  0  0  0  0
  193.4910  174.4080  139.7620 S   0  0  0  0  0  0  0  0  0  0  0  0
  193.2030  172.8960  141.7030 C   0  0  0  0  0  2  0  0  0  0  0  0
  192.2630  173.3630  140.6070 C   0  0  2  0  0  3  0  0  0  0  0  0
  194.3870  173.6720  141.1690 C   0  0  2  0  0  3  0  0  0  0  0  0
  191.8850  172.1980  139.7060 C   0  0  0  0  0  2  0  0  0  0  0  0
  190.3820  172.1430  139.5080 C   0  0  0  0  0  2  0  0  0  0  0  0
  189.7980  173.5240  139.7210 C   0  0  0  0  0  3  0  0  0  0  0  0
  188.5660  173.4120  140.5880 C   0  0  0  0  0  2  0  0  0  0  0  0
  188.4210  173.5750  139.0920 C   0  0  0  0  0  2  0  0  0  0  0  0
  197.1120  175.1500  143.3260 C   0  0  0  0  0  1  0  0  0  0  0  0
  196.4340  174.9050  141.9900 C   0  0  2  0  0  3  0  0  0  0  0  0
  196.6990  176.0380  141.1210 N   0  0  0  0  0  1  0  0  0  0  0  0
  1 23  1  6  0  0  0
  1  4  1  0  0  0  0
  2  3  1  6  0  0  0
  2  4  1  0  0  0  0
  3  1  1  0  0  0  0
  5  7  1  6  0  0  0
  5  2  1  0  0  0  0
  5 11  1  0  0  0  0
  6 10  1  0  0  0  0
  6 11  1  0  0  0  0
  9  7  1  0  0  0  0
  9  6  1  0  0  0  0
 10  8  2  0  0  0  0
 11 12  1  6  0  0  0
 13 15  2  0  0  0  0
 13 10  1  0  0  0  0
 15 14  2  0  0  0  0
 16 13  1  0  0  0  0
 18 17  1  0  0  0  0
 18 16  1  0  0  0  0
 19 18  1  0  0  0  0
 20 18  1  0  0  0  0
 21 20  1  0  0  0  0
 22 21  1  0  0  0  0
 24 23  1  0  0  0  0
 25 24  1  0  0  0  0
 26 25  1  6  0  0  0
 27 29  1  0  0  0  0
 27 30  1  0  0  0  0
 29 31  1  6  0  0  0
 29 28  1  0  0  0  0
 30 28  1  0  0  0  0
 30 26  1  1  0  0  0
 32 31  1  0  0  0  0
 32 33  1  0  0  0  0
 33 34  1  0  0  0  0
 35 33  1  0  0  0  0
 35 34  1  0  0  0  0
 37 26  1  0  0  0  0
 37 36  1  1  0  0  0
 38 37  1  0  0  0  0
M  END
>  <MODEL>
7

>  <REMARK>
 VINA RESULT:      -5.4      2.393      4.720
  Name = 
  15 active torsions:
  status: ('A' for Active; 'I' for Inactive)
    1  A    between atoms: O_1  and  C_12
    2  A    between atoms: O_1  and  C_17
    3  A    between atoms: C_2  and  C_11
    4  A    between atoms: N_3  and  C_23
    5  A    between atoms: N_3  and  N_36
    6  A    between atoms: C_4  and  C_18
    7  A    between atoms: C_7  and  C_24
    8  A    between atoms: C_7  and  C_31
    9  A    between atoms: C_11  and  C_35
   10  A    between atoms: C_12  and  C_31
   11  A    between atoms: C_14  and  C_23
   12  A    between atoms: C_14  and  C_25
   13  A    between atoms: C_14  and  C_28
   14  A    between atoms: C_16  and  N_36
   15  A    between atoms: C_27  and  C_35
                            x       y       z     vdW  Elec       q    Type
                         _______ _______ _______ _____ _____    ______ ____

>  <TORSDO>
F 15

$$$$
=
 OpenBabel11062419253D

 38 41  0  0  1  0  0  0  0  0999 V2000
  192.2400  171.4930  139.7490 C   0  0  2  0  0  3  0  0  0  0  0  0
  190.3500  172.3250  140.2030 C   0  0  1  0  0  3  0  0  0  0  0  0
  191.7010  173.1760  139.3360 S   0  0  0  0  0  0  0  0  0  0  0  0
  191.0270  171.0550  140.4230 N   0  0  0  0  0  2  0  0  0  0  0  0
  190.0600  172.9960  141.5490 C   0  0  1  0  0  3  0  0  0  0  0  0
  189.1780  174.7990  142.5510 N   0  0  0  0  0  0  0  0  0  0  0  0
  191.1050  173.8610  141.9390 O   0  0  0  0  0  0  0  0  0  0  0  0
  187.0720  175.7730  142.7640 O   0  0  0  0  0  0  0  0  0  0  0  0
  190.5550  174.7760  142.8000 N   0  0  0  0  0  2  0  0  0  0  0  0
  188.2530  175.6930  143.2040 C   0  0  0  0  0  0  0  0  0  0  0  0
  188.7790  173.7930  141.6140 C   0  0  1  0  0  3  0  0  0  0  0  0
  188.4260  174.4620  140.2850 C   0  0  0  0  0  1  0  0  0  0  0  0
  188.6290  176.5310  144.3730 C   0  0  0  0  0  0  0  0  0  0  0  0
  190.4390  178.3160  144.2330 O   0  0  0  0  0  0  0  0  0  0  0  0
  189.5580  177.4490  144.2970 C   0  0  0  0  0  0  0  0  0  0  0  0
  187.9340  176.3350  145.6920 C   0  0  0  0  0  2  0  0  0  0  0  0
  185.5750  176.7850  146.3940 C   0  0  0  0  0  1  0  0  0  0  0  0
  186.9080  177.4330  146.0600 C   0  0  0  0  0  0  0  0  0  0  0  0
  187.3430  178.2250  147.2950 C   0  0  0  0  0  1  0  0  0  0  0  0
  186.6820  178.2920  144.9560 O   0  0  0  0  0  0  0  0  0  0  0  0
  185.3040  178.3790  144.6830 C   0  0  0  0  0  2  0  0  0  0  0  0
  184.9610  179.7900  144.2560 C   0  0  0  0  0  1  0  0  0  0  0  0
  193.3450  171.5560  140.6970 N   0  0  0  0  0  2  0  0  0  0  0  0
  193.8640  172.8590  140.6510 N   0  0  0  0  0  2  0  0  0  0  0  0
  195.1950  172.8120  141.2370 C   0  0  0  0  0  2  0  0  0  0  0  0
  195.8170  174.2120  141.2540 C   0  0  1  0  0  3  0  0  0  0  0  0
  195.5300  173.6410  144.0030 S   0  0  0  0  0  0  0  0  0  0  0  0
  195.1820  175.9000  143.0490 C   0  0  0  0  0  2  0  0  0  0  0  0
  194.5760  175.1740  144.2360 C   0  0  2  0  0  3  0  0  0  0  0  0
  196.0920  174.7510  142.6710 C   0  0  2  0  0  3  0  0  0  0  0  0
  195.0000  175.8420  145.5340 C   0  0  0  0  0  2  0  0  0  0  0  0
  193.9100  175.7140  146.5810 C   0  0  0  0  0  2  0  0  0  0  0  0
  192.5730  176.0530  145.9550 C   0  0  0  0  0  3  0  0  0  0  0  0
  191.6340  176.5450  147.0320 C   0  0  0  0  0  2  0  0  0  0  0  0
  191.5180  175.1260  146.5220 C   0  0  0  0  0  2  0  0  0  0  0  0
  197.5240  175.6770  140.1410 C   0  0  0  0  0  1  0  0  0  0  0  0
  197.0940  174.2460  140.4090 C   0  0  2  0  0  3  0  0  0  0  0  0
  196.8820  173.5800  139.1350 N   0  0  0  0  0  1  0  0  0  0  0  0
  1  4  1  0  0  0  0
  1 23  1  1  0  0  0
  2  3  1  6  0  0  0
  2  4  1  0  0  0  0
  2  5  1  0  0  0  0
  3  1  1  0  0  0  0
  5 11  1  0  0  0  0
  5  7  1  6  0  0  0
  6  9  1  0  0  0  0
  6 10  1  0  0  0  0
  7  9  1  0  0  0  0
  8 10  2  0  0  0  0
 10 13  1  0  0  0  0
 11 12  1  6  0  0  0
 11  6  1  0  0  0  0
 13 16  1  0  0  0  0
 14 15  2  0  0  0  0
 15 13  2  0  0  0  0
 16 18  1  0  0  0  0
 18 17  1  0  0  0  0
 18 19  1  0  0  0  0
 20 18  1  0  0  0  0
 21 20  1  0  0  0  0
 22 21  1  0  0  0  0
 24 23  1  0  0  0  0
 24 25  1  0  0  0  0
 26 25  1  1  0  0  0
 27 29  1  0  0  0  0
 28 29  1  0  0  0  0
 29 31  1  1  0  0  0
 30 26  1  6  0  0  0
 30 28  1  0  0  0  0
 30 27  1  0  0  0  0
 31 32  1  0  0  0  0
 33 35  1  0  0  0  0
 33 32  1  0  0  0  0
 33 34  1  0  0  0  0
 35 34  1  0  0  0  0
 37 36  1  6  0  0  0
 37 26  1  0  0  0  0
 38 37  1  0  0  0  0
M  END
>  <MODEL>
8

>  <REMARK>
 VINA RESULT:      -5.4      1.929      2.406
  Name = 
  15 active torsions:
  status: ('A' for Active; 'I' for Inactive)
    1  A    between atoms: O_1  and  C_12
    2  A    between atoms: O_1  and  C_17
    3  A    between atoms: C_2  and  C_11
    4  A    between atoms: N_3  and  C_23
    5  A    between atoms: N_3  and  N_36
    6  A    between atoms: C_4  and  C_18
    7  A    between atoms: C_7  and  C_24
    8  A    between atoms: C_7  and  C_31
    9  A    between atoms: C_11  and  C_35
   10  A    between atoms: C_12  and  C_31
   11  A    between atoms: C_14  and  C_23
   12  A    between atoms: C_14  and  C_25
   13  A    between atoms: C_14  and  C_28
   14  A    between atoms: C_16  and  N_36
   15  A    between atoms: C_27  and  C_35
                            x       y       z     vdW  Elec       q    Type
                         _______ _______ _______ _____ _____    ______ ____

>  <TORSDO>
F 15

$$$$
=
 OpenBabel11062419253D

 38 41  0  0  1  0  0  0  0  0999 V2000
  194.9900  174.6550  145.4000 C   0  0  2  0  0  3  0  0  0  0  0  0
  193.1000  174.6890  146.3480 C   0  0  1  0  0  3  0  0  0  0  0  0
  193.7830  173.3000  145.3960 S   0  0  0  0  0  0  0  0  0  0  0  0
  194.2170  175.6080  146.1840 N   0  0  0  0  0  2  0  0  0  0  0  0
  191.8560  175.2590  145.6590 C   0  0  1  0  0  3  0  0  0  0  0  0
  189.7560  175.9850  145.9650 N   0  0  0  0  0  0  0  0  0  0  0  0
  190.9580  174.2420  145.2710 O   0  0  0  0  0  0  0  0  0  0  0  0
  188.7020  177.7440  147.0720 O   0  0  0  0  0  0  0  0  0  0  0  0
  189.7190  174.8240  145.1840 N   0  0  0  0  0  2  0  0  0  0  0  0
  188.6170  176.8410  146.1930 C   0  0  0  0  0  0  0  0  0  0  0  0
  191.0670  176.2600  146.4700 C   0  0  1  0  0  3  0  0  0  0  0  0
  191.0950  175.9650  147.9700 C   0  0  0  0  0  1  0  0  0  0  0  0
  187.3420  176.7060  145.4410 C   0  0  0  0  0  0  0  0  0  0  0  0
  185.0730  177.0150  146.5540 O   0  0  0  0  0  0  0  0  0  0  0  0
  186.1780  176.8680  146.0150 C   0  0  0  0  0  0  0  0  0  0  0  0
  187.3670  176.3730  143.9740 C   0  0  0  0  0  2  0  0  0  0  0  0
  187.9280  177.0580  141.6340 C   0  0  0  0  0  1  0  0  0  0  0  0
  187.6500  177.5710  143.0370 C   0  0  0  0  0  0  0  0  0  0  0  0
  186.4460  178.5110  142.9400 C   0  0  0  0  0  1  0  0  0  0  0  0
  188.8090  178.2680  143.4570 O   0  0  0  0  0  0  0  0  0  0  0  0
  189.9500  177.7350  142.8290 C   0  0  0  0  0  2  0  0  0  0  0  0
  191.1960  178.2740  143.4990 C   0  0  0  0  0  1  0  0  0  0  0  0
  195.1670  175.1520  144.0410 N   0  0  0  0  0  2  0  0  0  0  0  0
  194.9840  174.0660  143.1720 N   0  0  0  0  0  2  0  0  0  0  0  0
  195.1240  174.5740  141.8160 C   0  0  0  0  0  2  0  0  0  0  0  0
  195.4800  173.4340  140.8560 C   0  0  1  0  0  3  0  0  0  0  0  0
  192.9600  174.1750  139.8220 S   0  0  0  0  0  0  0  0  0  0  0  0
  193.4390  171.9200  140.7270 C   0  0  0  0  0  2  0  0  0  0  0  0
  192.1820  172.7670  140.6740 C   0  0  2  0  0  3  0  0  0  0  0  0
  194.2910  172.9430  140.0070 C   0  0  2  0  0  3  0  0  0  0  0  0
  191.1530  172.1260  139.7570 C   0  0  0  0  0  2  0  0  0  0  0  0
  189.8470  171.9040  140.4930 C   0  0  0  0  0  2  0  0  0  0  0  0
  189.6950  172.9550  141.5740 C   0  0  0  0  0  3  0  0  0  0  0  0
  189.0140  172.3370  142.7730 C   0  0  0  0  0  2  0  0  0  0  0  0
  188.2200  173.1990  141.8160 C   0  0  0  0  0  2  0  0  0  0  0  0
  196.8290  175.3430  139.9380 C   0  0  0  0  0  1  0  0  0  0  0  0
  196.6540  173.8340  139.9550 C   0  0  2  0  0  3  0  0  0  0  0  0
  196.4330  173.3780  138.5940 N   0  0  0  0  0  1  0  0  0  0  0  0
  1 23  1  6  0  0  0
  1  4  1  0  0  0  0
  2  3  1  6  0  0  0
  3  1  1  0  0  0  0
  4  2  1  0  0  0  0
  5  7  1  1  0  0  0
  5  2  1  0  0  0  0
  5 11  1  0  0  0  0
  6 10  1  0  0  0  0
  6 11  1  0  0  0  0
  9  7  1  0  0  0  0
  9  6  1  0  0  0  0
 10  8  2  0  0  0  0
 11 12  1  1  0  0  0
 13 15  2  0  0  0  0
 13 10  1  0  0  0  0
 15 14  2  0  0  0  0
 16 13  1  0  0  0  0
 17 18  1  0  0  0  0
 18 20  1  0  0  0  0
 18 16  1  0  0  0  0
 19 18  1  0  0  0  0
 21 20  1  0  0  0  0
 21 22  1  0  0  0  0
 24 23  1  0  0  0  0
 25 24  1  0  0  0  0
 26 25  1  6  0  0  0
 27 30  1  0  0  0  0
 27 29  1  0  0  0  0
 29 31  1  6  0  0  0
 29 28  1  0  0  0  0
 30 28  1  0  0  0  0
 30 26  1  1  0  0  0
 31 32  1  0  0  0  0
 32 33  1  0  0  0  0
 33 35  1  0  0  0  0
 33 34  1  0  0  0  0
 35 34  1  0  0  0  0
 37 36  1  6  0  0  0
 37 26  1  0  0  0  0
 38 37  1  0  0  0  0
M  END
>  <MODEL>
9

>  <REMARK>
 VINA RESULT:      -5.4      2.290      4.866
  Name = 
  15 active torsions:
  status: ('A' for Active; 'I' for Inactive)
    1  A    between atoms: O_1  and  C_12
    2  A    between atoms: O_1  and  C_17
    3  A    between atoms: C_2  and  C_11
    4  A    between atoms: N_3  and  C_23
    5  A    between atoms: N_3  and  N_36
    6  A    between atoms: C_4  and  C_18
    7  A    between atoms: C_7  and  C_24
    8  A    between atoms: C_7  and  C_31
    9  A    between atoms: C_11  and  C_35
   10  A    between atoms: C_12  and  C_31
   11  A    between atoms: C_14  and  C_23
   12  A    between atoms: C_14  and  C_25
   13  A    between atoms: C_14  and  C_28
   14  A    between atoms: C_16  and  N_36
   15  A    between atoms: C_27  and  C_35
                            x       y       z     vdW  Elec       q    Type
                         _______ _______ _______ _____ _____    ______ ____

>  <TORSDO>
F 15

$$$$
