=
 OpenBabel11062422043D

 34 36  0  0  1  0  0  0  0  0999 V2000
  184.0950  177.6020  142.3260 O   0  0  0  0  0  0  0  0  0  0  0  0
  184.9470  178.5050  142.5470 C   0  0  0  0  0  0  0  0  0  0  0  0
  184.7510  179.4430  143.5640 O   0  0  0  0  0  0  0  0  0  0  0  0
  185.7960  179.8480  144.4400 C   0  0  0  0  0  2  0  0  0  0  0  0
  185.5800  177.9810  147.7250 C   0  0  0  0  0  3  0  0  0  0  0  0
  186.0160  178.8210  145.4980 C   0  0  0  0  0  0  0  0  0  0  0  0
  186.9080  177.7660  145.2770 C   0  0  0  0  0  3  0  0  0  0  0  0
  187.1350  176.8060  146.2700 C   0  0  0  0  0  0  0  0  0  0  0  0
  185.3560  178.9300  146.7250 C   0  0  0  0  0  3  0  0  0  0  0  0
  186.4670  176.9240  147.4990 C   0  0  0  0  0  3  0  0  0  0  0  0
  188.0550  175.7790  146.0060 O   0  0  0  0  0  0  0  0  0  0  0  0
  193.4780  176.1850  146.9190 O   0  0  0  0  0  0  0  0  0  0  0  0
  190.3530  176.4540  145.2200 C   0  0  0  0  0  3  0  0  0  0  0  0
  192.2490  176.0390  146.6850 C   0  0  0  0  0  0  0  0  0  0  0  0
  189.4430  175.8270  146.2040 C   0  0  0  0  0  0  0  0  0  0  0  0
  192.5190  177.2130  144.4070 C   0  0  0  0  0  1  0  0  0  0  0  0
  191.6630  176.5600  145.4360 C   0  0  0  0  0  0  0  0  0  0  0  0
  189.9310  175.3240  147.3420 C   0  0  0  0  0  3  0  0  0  0  0  0
  191.3980  175.3050  147.6820 C   0  0  0  0  0  2  0  0  0  0  0  0
  186.1600  178.5970  141.6860 C   0  0  0  0  0  2  0  0  0  0  0  0
  186.1840  177.4890  139.4640 C   0  0  0  0  0  1  0  0  0  0  0  0
  186.4030  177.2830  140.9560 C   0  0  1  0  0  3  0  0  0  0  0  0
  188.4830  177.6330  142.1130 O   0  0  0  0  0  1  0  0  0  0  0  0
  187.8230  176.7800  141.2200 C   0  0  1  0  0  3  0  0  0  0  0  0
  186.8570  175.2200  142.7750 O   0  0  0  0  0  1  0  0  0  0  0  0
  187.8190  175.3520  141.7680 C   0  0  2  0  0  3  0  0  0  0  0  0
  189.1970  174.9910  142.3060 C   0  0  0  0  0  2  0  0  0  0  0  0
  189.9320  174.0490  141.3610 C   0  0  0  0  0  2  0  0  0  0  0  0
  190.6580  173.0320  142.1080 N   0  0  0  0  0  0  0  0  0  0  0  0
  191.6170  172.9540  144.3020 C   0  0  0  0  0  2  0  0  0  0  0  0
  191.5630  173.7320  143.0060 C   0  0  0  0  0  2  0  0  0  0  0  0
  190.4040  172.0570  144.2820 C   0  0  1  0  0  3  0  0  0  0  0  0
  189.5630  172.3750  145.3470 O   0  0  0  0  0  1  0  0  0  0  0  0
  189.7030  172.3570  142.9760 C   0  0  0  0  0  2  0  0  0  0  0  0
  1  2  2  0  0  0  0
  2  3  1  0  0  0  0
  3  4  1  0  0  0  0
  4  6  1  0  0  0  0
  6  9  1  0  0  0  0
  7  6  2  0  0  0  0
  7  8  1  0  0  0  0
  8 10  2  0  0  0  0
  9  5  2  0  0  0  0
 10  5  1  0  0  0  0
 11 15  1  0  0  0  0
 11  8  1  0  0  0  0
 13 17  2  0  0  0  0
 13 15  1  0  0  0  0
 14 12  2  0  0  0  0
 14 19  1  0  0  0  0
 15 18  2  0  0  0  0
 16 17  1  0  0  0  0
 17 14  1  0  0  0  0
 18 19  1  0  0  0  0
 20  2  1  0  0  0  0
 22 21  1  6  0  0  0
 22 24  1  0  0  0  0
 22 20  1  0  0  0  0
 24 26  1  0  0  0  0
 24 23  1  1  0  0  0
 26 27  1  0  0  0  0
 26 25  1  1  0  0  0
 28 29  1  0  0  0  0
 28 27  1  0  0  0  0
 29 34  1  0  0  0  0
 29 31  1  0  0  0  0
 31 30  1  0  0  0  0
 32 30  1  0  0  0  0
 32 33  1  1  0  0  0
 34 32  1  0  0  0  0
M  END
>  <MODEL>
1

>  <REMARK>
 VINA RESULT:      -6.8      0.000      0.000
  Name = 
  12 active torsions:
  status: ('A' for Active; 'I' for Inactive)
    1  A    between atoms: C_1  and  O_12
    2  A    between atoms: C_1  and  C_14
    3  A    between atoms: N_3  and  C_21
    4  A    between atoms: C_4  and  C_21
    5  A    between atoms: C_4  and  C_24
    6  A    between atoms: C_7  and  O_12
    7  A    between atoms: C_7  and  C_13
    8  A    between atoms: O_8  and  C_19
    9  A    between atoms: O_8  and  C_25
   10  A    between atoms: C_13  and  C_32
   11  A    between atoms: C_23  and  C_24
   12  A    between atoms: C_23  and  C_32
                            x       y       z     vdW  Elec       q    Type
                         _______ _______ _______ _____ _____    ______ ____

>  <TORSDO>
F 12

$$$$
=
 OpenBabel11062422043D

 34 36  0  0  1  0  0  0  0  0999 V2000
  184.0960  178.2990  146.1030 O   0  0  0  0  0  0  0  0  0  0  0  0
  185.3080  178.1980  145.7700 C   0  0  0  0  0  0  0  0  0  0  0  0
  186.2720  177.7760  146.6890 O   0  0  0  0  0  0  0  0  0  0  0  0
  187.6210  178.2230  146.6400 C   0  0  0  0  0  2  0  0  0  0  0  0
  188.9270  174.7090  147.1610 C   0  0  0  0  0  3  0  0  0  0  0  0
  188.5570  177.0750  146.8050 C   0  0  0  0  0  0  0  0  0  0  0  0
  189.9380  177.2900  146.8150 C   0  0  0  0  0  3  0  0  0  0  0  0
  190.8250  176.2210  146.9870 C   0  0  0  0  0  0  0  0  0  0  0  0
  188.0520  175.7830  146.9830 C   0  0  0  0  0  3  0  0  0  0  0  0
  190.3080  174.9280  147.1650 C   0  0  0  0  0  3  0  0  0  0  0  0
  192.2010  176.4930  147.0110 O   0  0  0  0  0  0  0  0  0  0  0  0
  195.7720  174.8330  143.1490 O   0  0  0  0  0  0  0  0  0  0  0  0
  194.3830  175.3930  146.3870 C   0  0  0  0  0  3  0  0  0  0  0  0
  194.9870  175.2640  144.0340 C   0  0  0  0  0  0  0  0  0  0  0  0
  193.1450  176.1250  146.0390 C   0  0  0  0  0  0  0  0  0  0  0  0
  196.4660  174.2410  145.8790 C   0  0  0  0  0  1  0  0  0  0  0  0
  195.2470  174.9840  145.4590 C   0  0  0  0  0  0  0  0  0  0  0  0
  192.8750  176.4180  144.7630 C   0  0  0  0  0  3  0  0  0  0  0  0
  193.8000  176.0870  143.6200 C   0  0  0  0  0  2  0  0  0  0  0  0
  185.7230  178.5710  144.3880 C   0  0  0  0  0  2  0  0  0  0  0  0
  184.0550  178.1670  142.5940 C   0  0  0  0  0  1  0  0  0  0  0  0
  185.2070  177.5550  143.3770 C   0  0  1  0  0  3  0  0  0  0  0  0
  186.0960  177.6340  141.1430 O   0  0  0  0  0  1  0  0  0  0  0  0
  186.3290  177.1290  142.4280 C   0  0  1  0  0  3  0  0  0  0  0  0
  188.3690  178.3000  141.9300 O   0  0  0  0  0  1  0  0  0  0  0  0
  187.6960  177.5940  142.9310 C   0  0  2  0  0  3  0  0  0  0  0  0
  188.5250  176.3990  143.3800 C   0  0  0  0  0  2  0  0  0  0  0  0
  189.8300  176.3050  142.6000 C   0  0  0  0  0  2  0  0  0  0  0  0
  190.1720  174.9160  142.3290 N   0  0  0  0  0  0  0  0  0  0  0  0
  189.4390  172.8220  143.2350 C   0  0  0  0  0  2  0  0  0  0  0  0
  189.9960  174.1870  143.5760 C   0  0  0  0  0  2  0  0  0  0  0  0
  188.8950  172.9490  141.8340 C   0  0  1  0  0  3  0  0  0  0  0  0
  187.5220  172.7110  141.8360 O   0  0  0  0  0  1  0  0  0  0  0  0
  189.1600  174.3810  141.4280 C   0  0  0  0  0  2  0  0  0  0  0  0
  2  1  2  0  0  0  0
  2  3  1  0  0  0  0
  4  3  1  0  0  0  0
  4  6  1  0  0  0  0
  5 10  1  0  0  0  0
  6  7  2  0  0  0  0
  6  9  1  0  0  0  0
  7  8  1  0  0  0  0
  8 11  1  0  0  0  0
  8 10  2  0  0  0  0
  9  5  2  0  0  0  0
 12 14  2  0  0  0  0
 14 17  1  0  0  0  0
 15 13  1  0  0  0  0
 15 11  1  0  0  0  0
 17 16  1  0  0  0  0
 17 13  2  0  0  0  0
 18 15  2  0  0  0  0
 19 14  1  0  0  0  0
 19 18  1  0  0  0  0
 20  2  1  0  0  0  0
 22 21  1  6  0  0  0
 22 20  1  0  0  0  0
 24 23  1  6  0  0  0
 24 26  1  0  0  0  0
 24 22  1  0  0  0  0
 26 25  1  6  0  0  0
 26 27  1  0  0  0  0
 28 27  1  0  0  0  0
 29 28  1  0  0  0  0
 29 31  1  0  0  0  0
 30 31  1  0  0  0  0
 32 33  1  1  0  0  0
 32 30  1  0  0  0  0
 34 32  1  0  0  0  0
 34 29  1  0  0  0  0
M  END
>  <MODEL>
2

>  <REMARK>
 VINA RESULT:      -6.8      2.074      3.557
  Name = 
  12 active torsions:
  status: ('A' for Active; 'I' for Inactive)
    1  A    between atoms: C_1  and  O_12
    2  A    between atoms: C_1  and  C_14
    3  A    between atoms: N_3  and  C_21
    4  A    between atoms: C_4  and  C_21
    5  A    between atoms: C_4  and  C_24
    6  A    between atoms: C_7  and  O_12
    7  A    between atoms: C_7  and  C_13
    8  A    between atoms: O_8  and  C_19
    9  A    between atoms: O_8  and  C_25
   10  A    between atoms: C_13  and  C_32
   11  A    between atoms: C_23  and  C_24
   12  A    between atoms: C_23  and  C_32
                            x       y       z     vdW  Elec       q    Type
                         _______ _______ _______ _____ _____    ______ ____

>  <TORSDO>
F 12

$$$$
=
 OpenBabel11062422043D

 34 36  0  0  1  0  0  0  0  0999 V2000
  195.0850  177.6740  145.3870 O   0  0  0  0  0  0  0  0  0  0  0  0
  194.3910  176.6920  145.7640 C   0  0  0  0  0  0  0  0  0  0  0  0
  193.0030  176.7990  145.8870 O   0  0  0  0  0  0  0  0  0  0  0  0
  192.3460  176.7920  147.1480 C   0  0  0  0  0  2  0  0  0  0  0  0
  189.3320  174.6160  146.4390 C   0  0  0  0  0  3  0  0  0  0  0  0
  190.9330  176.3440  146.9970 C   0  0  0  0  0  0  0  0  0  0  0  0
  189.8840  177.2420  147.2140 C   0  0  0  0  0  3  0  0  0  0  0  0
  188.5540  176.8360  147.0580 C   0  0  0  0  0  0  0  0  0  0  0  0
  190.6550  175.0310  146.6030 C   0  0  0  0  0  3  0  0  0  0  0  0
  188.2850  175.5150  146.6630 C   0  0  0  0  0  3  0  0  0  0  0  0
  187.5380  177.7820  147.2680 O   0  0  0  0  0  0  0  0  0  0  0  0
  183.5260  178.9710  143.6760 O   0  0  0  0  0  0  0  0  0  0  0  0
  186.8060  178.3120  144.9150 C   0  0  0  0  0  3  0  0  0  0  0  0
  184.4500  178.7580  144.5040 C   0  0  0  0  0  0  0  0  0  0  0  0
  186.5330  178.1470  146.3590 C   0  0  0  0  0  0  0  0  0  0  0  0
  186.1850  178.7340  142.5990 C   0  0  0  0  0  1  0  0  0  0  0  0
  185.8410  178.5950  144.0410 C   0  0  0  0  0  0  0  0  0  0  0  0
  185.2920  178.3040  146.8290 C   0  0  0  0  0  3  0  0  0  0  0  0
  184.1200  178.7000  145.9690 C   0  0  0  0  0  2  0  0  0  0  0  0
  195.0640  175.4110  146.1220 C   0  0  0  0  0  2  0  0  0  0  0  0
  196.9250  174.3600  144.8570 C   0  0  0  0  0  1  0  0  0  0  0  0
  195.4260  174.6250  144.8680 C   0  0  1  0  0  3  0  0  0  0  0  0
  193.8020  173.2030  145.9300 O   0  0  0  0  0  1  0  0  0  0  0  0
  194.6530  173.3050  144.8230 C   0  0  1  0  0  3  0  0  0  0  0  0
  194.6770  173.3500  142.4190 O   0  0  0  0  0  1  0  0  0  0  0  0
  193.8470  173.1720  143.5310 C   0  0  2  0  0  3  0  0  0  0  0  0
  192.7150  174.1900  143.5090 C   0  0  0  0  0  2  0  0  0  0  0  0
  191.4050  173.5550  143.0610 C   0  0  0  0  0  2  0  0  0  0  0  0
  190.5960  174.5100  142.3180 N   0  0  0  0  0  0  0  0  0  0  0  0
  188.6890  175.8510  142.8710 C   0  0  0  0  0  2  0  0  0  0  0  0
  189.2530  174.4470  142.8720 C   0  0  0  0  0  2  0  0  0  0  0  0
  189.8830  176.7620  142.7190 C   0  0  1  0  0  3  0  0  0  0  0  0
  189.9960  177.5840  143.8390 O   0  0  0  0  0  1  0  0  0  0  0  0
  191.0820  175.8440  142.6410 C   0  0  0  0  0  2  0  0  0  0  0  0
  1  2  2  0  0  0  0
  2  3  1  0  0  0  0
  2 20  1  0  0  0  0
  3  4  1  0  0  0  0
  5  9  2  0  0  0  0
  5 10  1  0  0  0  0
  6  4  1  0  0  0  0
  6  7  2  0  0  0  0
  8  7  1  0  0  0  0
  8 11  1  0  0  0  0
  9  6  1  0  0  0  0
 10  8  2  0  0  0  0
 12 14  2  0  0  0  0
 13 15  1  0  0  0  0
 14 19  1  0  0  0  0
 15 18  2  0  0  0  0
 15 11  1  0  0  0  0
 16 17  1  0  0  0  0
 17 14  1  0  0  0  0
 17 13  2  0  0  0  0
 19 18  1  0  0  0  0
 22 21  1  1  0  0  0
 22 20  1  0  0  0  0
 24 22  1  0  0  0  0
 24 23  1  1  0  0  0
 26 25  1  6  0  0  0
 26 24  1  0  0  0  0
 27 26  1  0  0  0  0
 28 27  1  0  0  0  0
 29 34  1  0  0  0  0
 29 31  1  0  0  0  0
 29 28  1  0  0  0  0
 30 31  1  0  0  0  0
 32 30  1  0  0  0  0
 32 33  1  1  0  0  0
 34 32  1  0  0  0  0
M  END
>  <MODEL>
3

>  <REMARK>
 VINA RESULT:      -6.6      2.242      6.931
  Name = 
  12 active torsions:
  status: ('A' for Active; 'I' for Inactive)
    1  A    between atoms: C_1  and  O_12
    2  A    between atoms: C_1  and  C_14
    3  A    between atoms: N_3  and  C_21
    4  A    between atoms: C_4  and  C_21
    5  A    between atoms: C_4  and  C_24
    6  A    between atoms: C_7  and  O_12
    7  A    between atoms: C_7  and  C_13
    8  A    between atoms: O_8  and  C_19
    9  A    between atoms: O_8  and  C_25
   10  A    between atoms: C_13  and  C_32
   11  A    between atoms: C_23  and  C_24
   12  A    between atoms: C_23  and  C_32
                            x       y       z     vdW  Elec       q    Type
                         _______ _______ _______ _____ _____    ______ ____

>  <TORSDO>
F 12

$$$$
=
 OpenBabel11062422043D

 34 36  0  0  1  0  0  0  0  0999 V2000
  184.9360  180.2060  144.3010 O   0  0  0  0  0  0  0  0  0  0  0  0
  184.6250  179.0160  144.5770 C   0  0  0  0  0  0  0  0  0  0  0  0
  184.2020  178.1350  143.5790 O   0  0  0  0  0  0  0  0  0  0  0  0
  184.7350  178.1640  142.2600 C   0  0  0  0  0  2  0  0  0  0  0  0
  188.5070  178.0550  141.9630 C   0  0  0  0  0  3  0  0  0  0  0  0
  186.1370  177.6570  142.2540 C   0  0  0  0  0  0  0  0  0  0  0  0
  186.3940  176.3010  142.4770 C   0  0  0  0  0  3  0  0  0  0  0  0
  187.7050  175.8120  142.4570 C   0  0  0  0  0  0  0  0  0  0  0  0
  187.1950  178.5330  141.9920 C   0  0  0  0  0  3  0  0  0  0  0  0
  188.7610  176.6990  142.1920 C   0  0  0  0  0  3  0  0  0  0  0  0
  187.9080  174.4390  142.6660 O   0  0  0  0  0  0  0  0  0  0  0  0
  190.6550  171.0880  139.2540 O   0  0  0  0  0  0  0  0  0  0  0  0
  188.3700  173.6070  140.3310 C   0  0  0  0  0  3  0  0  0  0  0  0
  189.9850  171.8120  140.0370 C   0  0  0  0  0  0  0  0  0  0  0  0
  188.5560  173.5460  141.7980 C   0  0  0  0  0  0  0  0  0  0  0  0
  188.8080  172.9280  138.0350 C   0  0  0  0  0  1  0  0  0  0  0  0
  189.0340  172.8040  139.5010 C   0  0  0  0  0  0  0  0  0  0  0  0
  189.3930  172.6510  142.3310 C   0  0  0  0  0  3  0  0  0  0  0  0
  190.1480  171.6310  141.5190 C   0  0  0  0  0  2  0  0  0  0  0  0
  184.6710  178.5540  145.9930 C   0  0  0  0  0  2  0  0  0  0  0  0
  186.1220  179.4060  147.8180 C   0  0  0  0  0  1  0  0  0  0  0  0
  186.0960  178.5990  146.5290 C   0  0  1  0  0  3  0  0  0  0  0  0
  185.9790  176.2730  145.9280 O   0  0  0  0  0  1  0  0  0  0  0  0
  186.6190  177.1830  146.7770 C   0  0  1  0  0  3  0  0  0  0  0  0
  188.5140  177.8010  145.4320 O   0  0  0  0  0  1  0  0  0  0  0  0
  188.1340  177.1030  146.5830 C   0  0  2  0  0  3  0  0  0  0  0  0
  188.5760  175.6500  146.4860 C   0  0  0  0  0  2  0  0  0  0  0  0
  189.8010  175.3840  147.3520 C   0  0  0  0  0  2  0  0  0  0  0  0
  190.9580  175.0680  146.5280 N   0  0  0  0  0  0  0  0  0  0  0  0
  191.3960  175.1740  144.1740 C   0  0  0  0  0  2  0  0  0  0  0  0
  190.4510  174.6460  145.2310 C   0  0  0  0  0  2  0  0  0  0  0  0
  192.1910  176.2620  144.8550 C   0  0  1  0  0  3  0  0  0  0  0  0
  191.9560  177.4830  144.2260 O   0  0  0  0  0  1  0  0  0  0  0  0
  191.6700  176.3130  146.2730 C   0  0  0  0  0  2  0  0  0  0  0  0
  1  2  2  0  0  0  0
  2 20  1  0  0  0  0
  3  2  1  0  0  0  0
  4  3  1  0  0  0  0
  5  9  2  0  0  0  0
  5 10  1  0  0  0  0
  6  4  1  0  0  0  0
  6  7  2  0  0  0  0
  8  7  1  0  0  0  0
  8 11  1  0  0  0  0
  9  6  1  0  0  0  0
 10  8  2  0  0  0  0
 12 14  2  0  0  0  0
 13 15  1  0  0  0  0
 14 19  1  0  0  0  0
 15 18  2  0  0  0  0
 15 11  1  0  0  0  0
 16 17  1  0  0  0  0
 17 14  1  0  0  0  0
 17 13  2  0  0  0  0
 19 18  1  0  0  0  0
 20 22  1  0  0  0  0
 22 24  1  0  0  0  0
 22 21  1  1  0  0  0
 24 23  1  6  0  0  0
 26 25  1  6  0  0  0
 26 24  1  0  0  0  0
 27 26  1  0  0  0  0
 27 28  1  0  0  0  0
 29 28  1  0  0  0  0
 30 32  1  0  0  0  0
 30 31  1  0  0  0  0
 31 29  1  0  0  0  0
 32 33  1  6  0  0  0
 32 34  1  0  0  0  0
 34 29  1  0  0  0  0
M  END
>  <MODEL>
4

>  <REMARK>
 VINA RESULT:      -6.6      2.116      5.467
  Name = 
  12 active torsions:
  status: ('A' for Active; 'I' for Inactive)
    1  A    between atoms: C_1  and  O_12
    2  A    between atoms: C_1  and  C_14
    3  A    between atoms: N_3  and  C_21
    4  A    between atoms: C_4  and  C_21
    5  A    between atoms: C_4  and  C_24
    6  A    between atoms: C_7  and  O_12
    7  A    between atoms: C_7  and  C_13
    8  A    between atoms: O_8  and  C_19
    9  A    between atoms: O_8  and  C_25
   10  A    between atoms: C_13  and  C_32
   11  A    between atoms: C_23  and  C_24
   12  A    between atoms: C_23  and  C_32
                            x       y       z     vdW  Elec       q    Type
                         _______ _______ _______ _____ _____    ______ ____

>  <TORSDO>
F 12

$$$$
=
 OpenBabel11062422043D

 34 36  0  0  1  0  0  0  0  0999 V2000
  194.6310  177.3540  146.1880 O   0  0  0  0  0  0  0  0  0  0  0  0
  193.9560  176.2960  146.0700 C   0  0  0  0  0  0  0  0  0  0  0  0
  192.9950  175.9490  147.0220 O   0  0  0  0  0  0  0  0  0  0  0  0
  192.0920  176.8970  147.5770 C   0  0  0  0  0  2  0  0  0  0  0  0
  189.0160  174.7290  147.1780 C   0  0  0  0  0  3  0  0  0  0  0  0
  190.6820  176.4770  147.3370 C   0  0  0  0  0  0  0  0  0  0  0  0
  189.7160  177.4270  146.9930 C   0  0  0  0  0  3  0  0  0  0  0  0
  188.3930  177.0400  146.7490 C   0  0  0  0  0  0  0  0  0  0  0  0
  190.3320  175.1260  147.4250 C   0  0  0  0  0  3  0  0  0  0  0  0
  188.0510  175.6810  146.8390 C   0  0  0  0  0  3  0  0  0  0  0  0
  187.4650  178.0290  146.3850 O   0  0  0  0  0  0  0  0  0  0  0  0
  185.1330  178.5310  141.4140 O   0  0  0  0  0  0  0  0  0  0  0  0
  187.6540  177.9610  143.8720 C   0  0  0  0  0  3  0  0  0  0  0  0
  185.6810  178.4740  142.5460 C   0  0  0  0  0  0  0  0  0  0  0  0
  186.8960  178.2180  145.1170 C   0  0  0  0  0  0  0  0  0  0  0  0
  187.9140  177.7900  141.4580 C   0  0  0  0  0  1  0  0  0  0  0  0
  187.0950  178.0760  142.6680 C   0  0  0  0  0  0  0  0  0  0  0  0
  185.6170  178.5990  145.0560 C   0  0  0  0  0  3  0  0  0  0  0  0
  184.8810  178.8440  143.7630 C   0  0  0  0  0  2  0  0  0  0  0  0
  194.2150  175.3850  144.9200 C   0  0  0  0  0  2  0  0  0  0  0  0
  194.4050  175.9780  142.5160 C   0  0  0  0  0  1  0  0  0  0  0  0
  193.4440  175.8400  143.6870 C   0  0  1  0  0  3  0  0  0  0  0  0
  192.2400  173.8660  144.3510 O   0  0  0  0  0  1  0  0  0  0  0  0
  192.3350  174.8400  143.3510 C   0  0  1  0  0  3  0  0  0  0  0  0
  190.9540  176.7290  143.9050 O   0  0  0  0  0  1  0  0  0  0  0  0
  190.9870  175.5390  143.1710 C   0  0  2  0  0  3  0  0  0  0  0  0
  189.8560  174.6200  143.6100 C   0  0  0  0  0  2  0  0  0  0  0  0
  188.8230  174.4420  142.5040 C   0  0  0  0  0  2  0  0  0  0  0  0
  188.7710  173.0560  142.0640 N   0  0  0  0  0  0  0  0  0  0  0  0
  190.3440  171.5910  141.0050 C   0  0  0  0  0  2  0  0  0  0  0  0
  189.6640  172.9400  140.9220 C   0  0  0  0  0  2  0  0  0  0  0  0
  190.1550  171.1350  142.4310 C   0  0  1  0  0  3  0  0  0  0  0  0
  191.3950  170.9910  143.0500 O   0  0  0  0  0  1  0  0  0  0  0  0
  189.3760  172.2400  143.1070 C   0  0  0  0  0  2  0  0  0  0  0  0
  2  1  2  0  0  0  0
  2  3  1  0  0  0  0
  3  4  1  0  0  0  0
  5  9  1  0  0  0  0
  6  9  2  0  0  0  0
  6  4  1  0  0  0  0
  7  6  1  0  0  0  0
  8 10  1  0  0  0  0
  8  7  2  0  0  0  0
 10  5  2  0  0  0  0
 11  8  1  0  0  0  0
 12 14  2  0  0  0  0
 13 15  1  0  0  0  0
 14 17  1  0  0  0  0
 14 19  1  0  0  0  0
 15 11  1  0  0  0  0
 16 17  1  0  0  0  0
 17 13  2  0  0  0  0
 18 15  2  0  0  0  0
 19 18  1  0  0  0  0
 20  2  1  0  0  0  0
 22 21  1  6  0  0  0
 22 20  1  0  0  0  0
 24 22  1  0  0  0  0
 24 23  1  1  0  0  0
 26 24  1  0  0  0  0
 26 27  1  0  0  0  0
 26 25  1  1  0  0  0
 28 27  1  0  0  0  0
 29 28  1  0  0  0  0
 29 34  1  0  0  0  0
 30 32  1  0  0  0  0
 31 30  1  0  0  0  0
 31 29  1  0  0  0  0
 32 33  1  1  0  0  0
 32 34  1  0  0  0  0
M  END
>  <MODEL>
5

>  <REMARK>
 VINA RESULT:      -6.5      1.858      5.985
  Name = 
  12 active torsions:
  status: ('A' for Active; 'I' for Inactive)
    1  A    between atoms: C_1  and  O_12
    2  A    between atoms: C_1  and  C_14
    3  A    between atoms: N_3  and  C_21
    4  A    between atoms: C_4  and  C_21
    5  A    between atoms: C_4  and  C_24
    6  A    between atoms: C_7  and  O_12
    7  A    between atoms: C_7  and  C_13
    8  A    between atoms: O_8  and  C_19
    9  A    between atoms: O_8  and  C_25
   10  A    between atoms: C_13  and  C_32
   11  A    between atoms: C_23  and  C_24
   12  A    between atoms: C_23  and  C_32
                            x       y       z     vdW  Elec       q    Type
                         _______ _______ _______ _____ _____    ______ ____

>  <TORSDO>
F 12

$$$$
=
 OpenBabel11062422043D

 34 36  0  0  1  0  0  0  0  0999 V2000
  186.7380  177.3250  140.1650 O   0  0  0  0  0  0  0  0  0  0  0  0
  186.8810  177.2890  141.4170 C   0  0  0  0  0  0  0  0  0  0  0  0
  186.7580  178.4490  142.1870 O   0  0  0  0  0  0  0  0  0  0  0  0
  185.5050  178.9110  142.6750 C   0  0  0  0  0  2  0  0  0  0  0  0
  184.0720  178.6110  146.1660 C   0  0  0  0  0  3  0  0  0  0  0  0
  185.4030  178.6830  144.1450 C   0  0  0  0  0  0  0  0  0  0  0  0
  186.5470  178.3820  144.8900 C   0  0  0  0  0  3  0  0  0  0  0  0
  186.4650  178.1830  146.2730 C   0  0  0  0  0  0  0  0  0  0  0  0
  184.1660  178.8020  144.7850 C   0  0  0  0  0  3  0  0  0  0  0  0
  185.2170  178.3050  146.9070 C   0  0  0  0  0  3  0  0  0  0  0  0
  187.6460  177.9040  146.9780 O   0  0  0  0  0  0  0  0  0  0  0  0
  191.5520  174.1680  145.8870 O   0  0  0  0  0  0  0  0  0  0  0  0
  189.9300  177.3400  146.0740 C   0  0  0  0  0  3  0  0  0  0  0  0
  190.6390  175.0130  146.0810 C   0  0  0  0  0  0  0  0  0  0  0  0
  188.6190  176.9520  146.6390 C   0  0  0  0  0  0  0  0  0  0  0  0
  192.1820  176.9050  145.2560 C   0  0  0  0  0  1  0  0  0  0  0  0
  190.8800  176.4430  145.8130 C   0  0  0  0  0  0  0  0  0  0  0  0
  188.3470  175.6660  146.8810 C   0  0  0  0  0  3  0  0  0  0  0  0
  189.2960  174.5400  146.5620 C   0  0  0  0  0  2  0  0  0  0  0  0
  187.2260  176.0000  142.0800 C   0  0  0  0  0  2  0  0  0  0  0  0
  189.5910  176.5930  142.5460 C   0  0  0  0  0  1  0  0  0  0  0  0
  188.6770  175.6250  141.8090 C   0  0  1  0  0  3  0  0  0  0  0  0
  187.8320  173.3830  142.0180 O   0  0  0  0  0  1  0  0  0  0  0  0
  188.9510  174.1890  142.2580 C   0  0  1  0  0  3  0  0  0  0  0  0
  189.8290  172.4440  140.8540 O   0  0  0  0  0  1  0  0  0  0  0  0
  190.1760  173.6050  141.5520 C   0  0  2  0  0  3  0  0  0  0  0  0
  191.2720  173.3020  142.5640 C   0  0  0  0  0  2  0  0  0  0  0  0
  192.3940  174.3310  142.4920 C   0  0  0  0  0  2  0  0  0  0  0  0
  193.6890  173.6980  142.6940 N   0  0  0  0  0  0  0  0  0  0  0  0
  195.3040  173.7540  144.4640 C   0  0  0  0  0  2  0  0  0  0  0  0
  194.4760  174.5990  143.5210 C   0  0  0  0  0  2  0  0  0  0  0  0
  194.6510  172.3930  144.4590 C   0  0  1  0  0  3  0  0  0  0  0  0
  194.1930  172.0830  145.7380 O   0  0  0  0  0  1  0  0  0  0  0  0
  193.4760  172.5130  143.5150 C   0  0  0  0  0  2  0  0  0  0  0  0
  1  2  2  0  0  0  0
  2 20  1  0  0  0  0
  2  3  1  0  0  0  0
  3  4  1  0  0  0  0
  4  6  1  0  0  0  0
  5 10  1  0  0  0  0
  6  9  1  0  0  0  0
  6  7  2  0  0  0  0
  7  8  1  0  0  0  0
  8 10  2  0  0  0  0
  8 11  1  0  0  0  0
  9  5  2  0  0  0  0
 12 14  2  0  0  0  0
 13 15  1  0  0  0  0
 14 19  1  0  0  0  0
 15 18  2  0  0  0  0
 15 11  1  0  0  0  0
 16 17  1  0  0  0  0
 17 13  2  0  0  0  0
 17 14  1  0  0  0  0
 19 18  1  0  0  0  0
 22 20  1  0  0  0  0
 22 24  1  0  0  0  0
 22 21  1  1  0  0  0
 24 23  1  6  0  0  0
 26 25  1  1  0  0  0
 26 24  1  0  0  0  0
 26 27  1  0  0  0  0
 28 27  1  0  0  0  0
 28 29  1  0  0  0  0
 29 34  1  0  0  0  0
 29 31  1  0  0  0  0
 31 30  1  0  0  0  0
 32 30  1  0  0  0  0
 32 33  1  1  0  0  0
 34 32  1  0  0  0  0
M  END
>  <MODEL>
6

>  <REMARK>
 VINA RESULT:      -6.4      2.054      2.867
  Name = 
  12 active torsions:
  status: ('A' for Active; 'I' for Inactive)
    1  A    between atoms: C_1  and  O_12
    2  A    between atoms: C_1  and  C_14
    3  A    between atoms: N_3  and  C_21
    4  A    between atoms: C_4  and  C_21
    5  A    between atoms: C_4  and  C_24
    6  A    between atoms: C_7  and  O_12
    7  A    between atoms: C_7  and  C_13
    8  A    between atoms: O_8  and  C_19
    9  A    between atoms: O_8  and  C_25
   10  A    between atoms: C_13  and  C_32
   11  A    between atoms: C_23  and  C_24
   12  A    between atoms: C_23  and  C_32
                            x       y       z     vdW  Elec       q    Type
                         _______ _______ _______ _____ _____    ______ ____

>  <TORSDO>
F 12

$$$$
=
 OpenBabel11062422043D

 34 36  0  0  1  0  0  0  0  0999 V2000
  190.2830  173.8670  141.6740 O   0  0  0  0  0  0  0  0  0  0  0  0
  189.2560  173.8600  142.4050 C   0  0  0  0  0  0  0  0  0  0  0  0
  189.2410  173.1610  143.6140 O   0  0  0  0  0  0  0  0  0  0  0  0
  190.4230  172.9080  144.3630 C   0  0  0  0  0  2  0  0  0  0  0  0
  189.7270  175.2820  147.2280 C   0  0  0  0  0  3  0  0  0  0  0  0
  190.6130  173.9550  145.4070 C   0  0  0  0  0  0  0  0  0  0  0  0
  191.8320  174.6310  145.5100 C   0  0  0  0  0  3  0  0  0  0  0  0
  192.0140  175.6280  146.4760 C   0  0  0  0  0  0  0  0  0  0  0  0
  189.5580  174.2850  146.2650 C   0  0  0  0  0  3  0  0  0  0  0  0
  190.9490  175.9520  147.3320 C   0  0  0  0  0  3  0  0  0  0  0  0
  193.2500  176.2920  146.5240 O   0  0  0  0  0  0  0  0  0  0  0  0
  197.6180  174.9170  143.4510 O   0  0  0  0  0  0  0  0  0  0  0  0
  195.2850  174.8520  146.1490 C   0  0  0  0  0  3  0  0  0  0  0  0
  196.6560  175.2680  144.1830 C   0  0  0  0  0  0  0  0  0  0  0  0
  194.3990  175.9780  145.7820 C   0  0  0  0  0  0  0  0  0  0  0  0
  197.1810  173.3580  145.8310 C   0  0  0  0  0  1  0  0  0  0  0  0
  196.3390  174.5110  145.4090 C   0  0  0  0  0  0  0  0  0  0  0  0
  194.6560  176.7050  144.6900 C   0  0  0  0  0  3  0  0  0  0  0  0
  195.8550  176.4820  143.8050 C   0  0  0  0  0  2  0  0  0  0  0  0
  188.0280  174.5740  141.9530 C   0  0  0  0  0  2  0  0  0  0  0  0
  189.3760  176.3690  143.0140 C   0  0  0  0  0  1  0  0  0  0  0  0
  187.9890  175.9880  142.5180 C   0  0  1  0  0  3  0  0  0  0  0  0
  187.1780  176.2970  140.2740 O   0  0  0  0  0  1  0  0  0  0  0  0
  187.5160  176.9770  141.4500 C   0  0  1  0  0  3  0  0  0  0  0  0
  186.7530  179.0340  142.4360 O   0  0  0  0  0  1  0  0  0  0  0  0
  186.3220  177.8000  141.9390 C   0  0  2  0  0  3  0  0  0  0  0  0
  185.5620  177.0360  143.0140 C   0  0  0  0  0  2  0  0  0  0  0  0
  184.9830  177.9800  144.0600 C   0  0  0  0  0  2  0  0  0  0  0  0
  185.0990  177.4070  145.3930 N   0  0  0  0  0  0  0  0  0  0  0  0
  186.7820  177.4980  147.0970 C   0  0  0  0  0  2  0  0  0  0  0  0
  186.5160  177.1920  145.6390 C   0  0  0  0  0  2  0  0  0  0  0  0
  185.5950  178.3060  147.5590 C   0  0  1  0  0  3  0  0  0  0  0  0
  186.0120  179.5730  147.9630 O   0  0  0  0  0  1  0  0  0  0  0  0
  184.6970  178.4310  146.3490 C   0  0  0  0  0  2  0  0  0  0  0  0
  1  2  2  0  0  0  0
  2  3  1  0  0  0  0
  3  4  1  0  0  0  0
  4  6  1  0  0  0  0
  5 10  1  0  0  0  0
  6  7  2  0  0  0  0
  6  9  1  0  0  0  0
  7  8  1  0  0  0  0
  8 11  1  0  0  0  0
  8 10  2  0  0  0  0
  9  5  2  0  0  0  0
 12 14  2  0  0  0  0
 14 17  1  0  0  0  0
 15 13  1  0  0  0  0
 15 11  1  0  0  0  0
 17 16  1  0  0  0  0
 17 13  2  0  0  0  0
 18 15  2  0  0  0  0
 19 14  1  0  0  0  0
 19 18  1  0  0  0  0
 20  2  1  0  0  0  0
 20 22  1  0  0  0  0
 22 21  1  6  0  0  0
 24 23  1  6  0  0  0
 24 26  1  0  0  0  0
 24 22  1  0  0  0  0
 26 25  1  1  0  0  0
 26 27  1  0  0  0  0
 27 28  1  0  0  0  0
 28 29  1  0  0  0  0
 29 31  1  0  0  0  0
 29 34  1  0  0  0  0
 30 32  1  0  0  0  0
 31 30  1  0  0  0  0
 32 33  1  6  0  0  0
 34 32  1  0  0  0  0
M  END
>  <MODEL>
7

>  <REMARK>
 VINA RESULT:      -6.4      2.845      5.943
  Name = 
  12 active torsions:
  status: ('A' for Active; 'I' for Inactive)
    1  A    between atoms: C_1  and  O_12
    2  A    between atoms: C_1  and  C_14
    3  A    between atoms: N_3  and  C_21
    4  A    between atoms: C_4  and  C_21
    5  A    between atoms: C_4  and  C_24
    6  A    between atoms: C_7  and  O_12
    7  A    between atoms: C_7  and  C_13
    8  A    between atoms: O_8  and  C_19
    9  A    between atoms: O_8  and  C_25
   10  A    between atoms: C_13  and  C_32
   11  A    between atoms: C_23  and  C_24
   12  A    between atoms: C_23  and  C_32
                            x       y       z     vdW  Elec       q    Type
                         _______ _______ _______ _____ _____    ______ ____

>  <TORSDO>
F 12

$$$$
=
 OpenBabel11062422043D

 34 36  0  0  1  0  0  0  0  0999 V2000
  189.4920  171.8160  145.0490 O   0  0  0  0  0  0  0  0  0  0  0  0
  189.6900  172.9060  144.4460 C   0  0  0  0  0  0  0  0  0  0  0  0
  189.1300  173.1410  143.1880 O   0  0  0  0  0  0  0  0  0  0  0  0
  189.7710  173.9440  142.2050 C   0  0  0  0  0  2  0  0  0  0  0  0
  187.4350  175.9190  139.9760 C   0  0  0  0  0  3  0  0  0  0  0  0
  188.8470  175.0080  141.7180 C   0  0  0  0  0  0  0  0  0  0  0  0
  188.5690  176.1180  142.5210 C   0  0  0  0  0  3  0  0  0  0  0  0
  187.7160  177.1310  142.0660 C   0  0  0  0  0  0  0  0  0  0  0  0
  188.2830  174.9110  140.4420 C   0  0  0  0  0  3  0  0  0  0  0  0
  187.1550  177.0250  140.7830 C   0  0  0  0  0  3  0  0  0  0  0  0
  187.4860  178.2340  142.9020 O   0  0  0  0  0  0  0  0  0  0  0  0
  184.1370  178.6660  147.2620 O   0  0  0  0  0  0  0  0  0  0  0  0
  186.8520  177.5380  145.2400 C   0  0  0  0  0  3  0  0  0  0  0  0
  184.8680  178.5220  146.2460 C   0  0  0  0  0  0  0  0  0  0  0  0
  186.6030  178.2900  143.9910 C   0  0  0  0  0  0  0  0  0  0  0  0
  186.3670  176.8640  147.5290 C   0  0  0  0  0  1  0  0  0  0  0  0
  186.0500  177.6410  146.2990 C   0  0  0  0  0  0  0  0  0  0  0  0
  185.5340  179.0870  143.8890 C   0  0  0  0  0  3  0  0  0  0  0  0
  184.5030  179.2390  144.9770 C   0  0  0  0  0  2  0  0  0  0  0  0
  190.5640  173.9400  145.0670 C   0  0  0  0  0  2  0  0  0  0  0  0
  189.3160  174.5950  147.1100 C   0  0  0  0  0  1  0  0  0  0  0  0
  189.7260  175.0360  145.7130 C   0  0  1  0  0  3  0  0  0  0  0  0
  190.0310  177.1540  146.8130 O   0  0  0  0  0  1  0  0  0  0  0  0
  190.5170  176.3440  145.7800 C   0  0  1  0  0  3  0  0  0  0  0  0
  192.3920  176.4070  147.2850 O   0  0  0  0  0  1  0  0  0  0  0  0
  192.0110  176.0860  145.9780 C   0  0  2  0  0  3  0  0  0  0  0  0
  192.8230  176.8990  144.9790 C   0  0  0  0  0  2  0  0  0  0  0  0
  194.2320  177.1640  145.4940 C   0  0  0  0  0  2  0  0  0  0  0  0
  195.2200  176.4880  144.6660 N   0  0  0  0  0  0  0  0  0  0  0  0
  195.8250  174.1910  144.3480 C   0  0  0  0  0  2  0  0  0  0  0  0
  195.6120  175.2810  145.3760 C   0  0  0  0  0  2  0  0  0  0  0  0
  195.1270  174.6760  143.1000 C   0  0  1  0  0  3  0  0  0  0  0  0
  194.1010  173.7970  142.7610 O   0  0  0  0  0  1  0  0  0  0  0  0
  194.5420  176.0220  143.4640 C   0  0  0  0  0  2  0  0  0  0  0  0
  2  1  2  0  0  0  0
  2 20  1  0  0  0  0
  3  2  1  0  0  0  0
  4  3  1  0  0  0  0
  5  9  2  0  0  0  0
  5 10  1  0  0  0  0
  6  4  1  0  0  0  0
  6  7  2  0  0  0  0
  8  7  1  0  0  0  0
  8 11  1  0  0  0  0
  9  6  1  0  0  0  0
 10  8  2  0  0  0  0
 11 15  1  0  0  0  0
 13 17  2  0  0  0  0
 14 17  1  0  0  0  0
 14 12  2  0  0  0  0
 15 13  1  0  0  0  0
 17 16  1  0  0  0  0
 18 15  2  0  0  0  0
 18 19  1  0  0  0  0
 19 14  1  0  0  0  0
 20 22  1  0  0  0  0
 22 24  1  0  0  0  0
 22 21  1  1  0  0  0
 24 26  1  0  0  0  0
 24 23  1  1  0  0  0
 26 25  1  1  0  0  0
 27 28  1  0  0  0  0
 27 26  1  0  0  0  0
 29 31  1  0  0  0  0
 29 28  1  0  0  0  0
 30 31  1  0  0  0  0
 32 33  1  1  0  0  0
 32 34  1  0  0  0  0
 32 30  1  0  0  0  0
 34 29  1  0  0  0  0
M  END
>  <MODEL>
8

>  <REMARK>
 VINA RESULT:      -6.2      2.262      6.520
  Name = 
  12 active torsions:
  status: ('A' for Active; 'I' for Inactive)
    1  A    between atoms: C_1  and  O_12
    2  A    between atoms: C_1  and  C_14
    3  A    between atoms: N_3  and  C_21
    4  A    between atoms: C_4  and  C_21
    5  A    between atoms: C_4  and  C_24
    6  A    between atoms: C_7  and  O_12
    7  A    between atoms: C_7  and  C_13
    8  A    between atoms: O_8  and  C_19
    9  A    between atoms: O_8  and  C_25
   10  A    between atoms: C_13  and  C_32
   11  A    between atoms: C_23  and  C_24
   12  A    between atoms: C_23  and  C_32
                            x       y       z     vdW  Elec       q    Type
                         _______ _______ _______ _____ _____    ______ ____

>  <TORSDO>
F 12

$$$$
=
 OpenBabel11062422043D

 34 36  0  0  1  0  0  0  0  0999 V2000
  189.4100  174.6360  147.3410 O   0  0  0  0  0  0  0  0  0  0  0  0
  189.0780  175.7320  146.8130 C   0  0  0  0  0  0  0  0  0  0  0  0
  187.7340  176.0480  146.6020 O   0  0  0  0  0  0  0  0  0  0  0  0
  187.0980  177.1460  147.2440 C   0  0  0  0  0  2  0  0  0  0  0  0
  183.9510  178.7270  145.8570 C   0  0  0  0  0  3  0  0  0  0  0  0
  186.1470  177.8150  146.3110 C   0  0  0  0  0  0  0  0  0  0  0  0
  186.5370  178.1070  145.0010 C   0  0  0  0  0  3  0  0  0  0  0  0
  185.6460  178.7200  144.1120 C   0  0  0  0  0  0  0  0  0  0  0  0
  184.8500  178.1210  146.7370 C   0  0  0  0  0  3  0  0  0  0  0  0
  184.3460  179.0230  144.5490 C   0  0  0  0  0  3  0  0  0  0  0  0
  186.0790  178.9730  142.8020 O   0  0  0  0  0  0  0  0  0  0  0  0
  187.7900  175.1280  139.2380 O   0  0  0  0  0  0  0  0  0  0  0  0
  187.4980  176.9530  142.2890 C   0  0  0  0  0  3  0  0  0  0  0  0
  187.4460  176.0400  140.0350 C   0  0  0  0  0  0  0  0  0  0  0  0
  186.5680  178.0300  141.8840 C   0  0  0  0  0  0  0  0  0  0  0  0
  188.8380  174.9550  141.9140 C   0  0  0  0  0  1  0  0  0  0  0  0
  187.9110  176.0180  141.4350 C   0  0  0  0  0  0  0  0  0  0  0  0
  186.1340  178.1020  140.6220 C   0  0  0  0  0  3  0  0  0  0  0  0
  186.5800  177.1600  139.5340 C   0  0  0  0  0  2  0  0  0  0  0  0
  190.1360  176.6850  146.3730 C   0  0  0  0  0  2  0  0  0  0  0  0
  190.3340  178.1490  144.3780 C   0  0  0  0  0  1  0  0  0  0  0  0
  190.2420  176.7070  144.8540 C   0  0  1  0  0  3  0  0  0  0  0  0
  192.0040  176.4850  143.2310 O   0  0  0  0  0  1  0  0  0  0  0  0
  191.4690  175.9170  144.3930 C   0  0  1  0  0  3  0  0  0  0  0  0
  193.5100  176.8370  145.2700 O   0  0  0  0  0  1  0  0  0  0  0  0
  192.5380  175.8550  145.4850 C   0  0  2  0  0  3  0  0  0  0  0  0
  193.1810  174.4760  145.5140 C   0  0  0  0  0  2  0  0  0  0  0  0
  194.6870  174.5700  145.7240 C   0  0  0  0  0  2  0  0  0  0  0  0
  195.3700  173.4670  145.0640 N   0  0  0  0  0  0  0  0  0  0  0  0
  196.7970  171.7010  145.8340 C   0  0  0  0  0  2  0  0  0  0  0  0
  196.5780  173.1990  145.8300 C   0  0  0  0  0  2  0  0  0  0  0  0
  195.4700  171.1020  145.4390 C   0  0  1  0  0  3  0  0  0  0  0  0
  194.9820  170.3070  146.4740 O   0  0  0  0  0  1  0  0  0  0  0  0
  194.5440  172.2780  145.2240 C   0  0  0  0  0  2  0  0  0  0  0  0
  2  1  2  0  0  0  0
  3  2  1  0  0  0  0
  3  4  1  0  0  0  0
  5  9  1  0  0  0  0
  6  9  2  0  0  0  0
  6  4  1  0  0  0  0
  7  6  1  0  0  0  0
  8 10  1  0  0  0  0
  8  7  2  0  0  0  0
 10  5  2  0  0  0  0
 11  8  1  0  0  0  0
 12 14  2  0  0  0  0
 14 17  1  0  0  0  0
 15 13  1  0  0  0  0
 15 11  1  0  0  0  0
 17 16  1  0  0  0  0
 17 13  2  0  0  0  0
 18 15  2  0  0  0  0
 19 14  1  0  0  0  0
 19 18  1  0  0  0  0
 20  2  1  0  0  0  0
 22 21  1  1  0  0  0
 22 20  1  0  0  0  0
 24 23  1  6  0  0  0
 24 22  1  0  0  0  0
 24 26  1  0  0  0  0
 26 25  1  6  0  0  0
 26 27  1  0  0  0  0
 27 28  1  0  0  0  0
 29 34  1  0  0  0  0
 29 28  1  0  0  0  0
 29 31  1  0  0  0  0
 31 30  1  0  0  0  0
 32 30  1  0  0  0  0
 32 33  1  1  0  0  0
 34 32  1  0  0  0  0
M  END
>  <MODEL>
9

>  <REMARK>
 VINA RESULT:      -6.2      2.607      5.777
  Name = 
  12 active torsions:
  status: ('A' for Active; 'I' for Inactive)
    1  A    between atoms: C_1  and  O_12
    2  A    between atoms: C_1  and  C_14
    3  A    between atoms: N_3  and  C_21
    4  A    between atoms: C_4  and  C_21
    5  A    between atoms: C_4  and  C_24
    6  A    between atoms: C_7  and  O_12
    7  A    between atoms: C_7  and  C_13
    8  A    between atoms: O_8  and  C_19
    9  A    between atoms: O_8  and  C_25
   10  A    between atoms: C_13  and  C_32
   11  A    between atoms: C_23  and  C_24
   12  A    between atoms: C_23  and  C_32
                            x       y       z     vdW  Elec       q    Type
                         _______ _______ _______ _____ _____    ______ ____

>  <TORSDO>
F 12

$$$$
