=
 OpenBabel11062422213D

 41 45  0  0  1  0  0  0  0  0999 V2000
  186.2360  177.8280  144.7360 C   0  0  0  0  0  0  0  0  0  0  0  0
  188.2300  177.5210  146.3060 C   0  0  0  0  0  2  0  0  0  0  0  0
  190.0030  175.6940  143.1040 C   0  0  0  0  0  3  0  0  0  0  0  0
  185.7430  177.4890  143.4740 C   0  0  0  0  0  0  0  0  0  0  0  0
  189.3470  174.7040  145.3370 C   0  0  1  0  0  3  0  0  0  0  0  0
  187.8940  176.3450  144.0560 C   0  0  0  0  0  0  0  0  0  0  0  0
  186.8150  176.4010  142.7600 S   0  0  0  0  0  0  0  0  0  0  0  0
  184.3680  179.3160  145.0570 C   0  0  0  0  0  3  0  0  0  0  0  0
  184.5500  178.0510  142.9730 C   0  0  0  0  0  0  0  0  0  0  0  0
  190.3590  174.7430  147.5110 O   0  0  0  0  0  1  0  0  0  0  0  0
  188.6010  176.2860  147.1170 C   0  0  0  0  0  2  0  0  0  0  0  0
  183.8730  178.9700  143.7900 C   0  0  0  0  0  3  0  0  0  0  0  0
  187.4370  177.1870  145.0730 C   0  0  0  0  0  0  0  0  0  0  0  0
  185.5550  178.7480  145.5360 C   0  0  0  0  0  3  0  0  0  0  0  0
  190.2040  173.6240  145.1070 O   0  0  0  0  0  1  0  0  0  0  0  0
  189.8010  175.5550  146.5220 C   0  0  2  0  0  3  0  0  0  0  0  0
  189.1200  175.5440  144.1010 C   0  0  0  0  0  0  0  0  0  0  0  0
  192.3030  175.9320  143.5960 O   0  0  0  0  0  0  0  0  0  0  0  0
  191.3530  175.0510  143.0380 C   0  0  2  0  0  3  0  0  0  0  0  0
  193.5560  175.2940  143.5530 C   0  0  1  0  0  3  0  0  0  0  0  0
  193.0150  174.1260  141.5250 O   0  0  0  0  0  0  0  0  0  0  0  0
  193.9380  175.0240  142.0940 C   0  0  0  0  0  2  0  0  0  0  0  0
  191.7370  174.7260  141.5750 C   0  0  1  0  0  3  0  0  0  0  0  0
  194.5830  176.1560  144.2010 C   0  0  0  0  0  0  0  0  0  0  0  0
  195.7940  176.0230  143.8780 O   0  0  0  0  0  0  0  0  0  0  0  0
  194.1850  176.8180  146.5370 C   0  0  0  0  0  1  0  0  0  0  0  0
  194.1960  177.1070  145.1470 O   0  0  0  0  0  0  0  0  0  0  0  0
  190.7080  173.8160  140.8980 C   0  0  1  0  0  3  0  0  0  0  0  0
  190.9950  173.7110  139.5490 F   0  0  0  0  0  0  0  0  0  0  0  0
  189.4270  172.2100  142.1140 O   0  0  0  0  0  1  0  0  0  0  0  0
  190.6740  172.4320  141.5310 C   0  0  0  0  0  2  0  0  0  0  0  0
  183.9930  177.7570  141.7200 O   0  0  0  0  0  0  0  0  0  0  0  0
  183.1370  178.6230  140.9880 C   0  0  0  0  0  2  0  0  0  0  0  0
  181.9510  177.8460  140.4360 C   0  0  0  0  0  2  0  0  0  0  0  0
  178.9060  180.2670  140.8050 C   0  0  0  0  0  3  0  0  0  0  0  0
  178.6700  178.4020  142.2710 C   0  0  0  0  0  0  0  0  0  0  0  0
  180.6580  178.4410  140.8870 C   0  0  0  0  0  0  0  0  0  0  0  0
  179.9280  177.8130  141.8110 C   0  0  0  0  0  3  0  0  0  0  0  0
  180.2690  179.8000  140.3560 C   0  0  0  0  0  2  0  0  0  0  0  0
  178.2050  179.6230  141.6900 N   0  0  0  0  0  0  0  0  0  0  0  0
  177.9890  177.8270  143.1590 O   0  0  0  0  0  0  0  0  0  0  0  0
  1 13  1  0  0  0  0
  1 14  1  0  0  0  0
  2 11  1  0  0  0  0
  3 17  2  0  0  0  0
  4  1  2  0  0  0  0
  5 15  1  6  0  0  0
  5 16  1  0  0  0  0
  6 17  1  0  0  0  0
  6 13  2  0  0  0  0
  7  4  1  0  0  0  0
  7  6  1  0  0  0  0
  8 14  2  0  0  0  0
  9  4  1  0  0  0  0
  9 12  2  0  0  0  0
 12  8  1  0  0  0  0
 13  2  1  0  0  0  0
 16 11  1  0  0  0  0
 16 10  1  1  0  0  0
 17  5  1  0  0  0  0
 19  3  1  6  0  0  0
 19 18  1  0  0  0  0
 20 18  1  0  0  0  0
 20 24  1  6  0  0  0
 21 23  1  0  0  0  0
 21 22  1  0  0  0  0
 22 20  1  0  0  0  0
 23 28  1  1  0  0  0
 23 19  1  0  0  0  0
 24 27  1  0  0  0  0
 25 24  2  0  0  0  0
 27 26  1  0  0  0  0
 28 29  1  6  0  0  0
 28 31  1  0  0  0  0
 31 30  1  0  0  0  0
 32  9  1  0  0  0  0
 33 32  1  0  0  0  0
 34 37  1  0  0  0  0
 34 33  1  0  0  0  0
 35 40  2  0  0  0  0
 36 41  2  0  0  0  0
 37 38  2  0  0  0  0
 38 36  1  0  0  0  0
 39 35  1  0  0  0  0
 39 37  1  0  0  0  0
 40 36  1  0  0  0  0
M  END
>  <MODEL>
1

>  <REMARK>
 VINA RESULT:      -8.1      0.000      0.000
  Name = 
  9 active torsions:
  status: ('A' for Active; 'I' for Inactive)
    1  A    between atoms: C_4  and  C_15
    2  A    between atoms: C_6  and  C_8
    3  A    between atoms: C_7  and  C_12
    4  A    between atoms: C_8  and  O_11
    5  A    between atoms: C_9  and  C_23
    6  A    between atoms: C_9  and  C_37
    7  A    between atoms: C_12  and  C_39
    8  A    between atoms: C_27  and  O_34
    9  A    between atoms: O_34  and  C_39
                            x       y       z     vdW  Elec       q    Type
                         _______ _______ _______ _____ _____    ______ ____

>  <TORSDO>
F 9

$$$$
=
 OpenBabel11062422213D

 41 45  0  0  1  0  0  0  0  0999 V2000
  188.0570  177.6730  146.9500 C   0  0  0  0  0  0  0  0  0  0  0  0
  190.5640  177.2120  147.1490 C   0  0  0  0  0  2  0  0  0  0  0  0
  190.1570  175.4420  143.4830 C   0  0  0  0  0  3  0  0  0  0  0  0
  186.9300  177.4100  146.1690 C   0  0  0  0  0  0  0  0  0  0  0  0
  190.7850  174.3890  145.6960 C   0  0  1  0  0  3  0  0  0  0  0  0
  188.9700  176.1470  145.4510 C   0  0  0  0  0  0  0  0  0  0  0  0
  187.3600  176.3060  144.9700 S   0  0  0  0  0  0  0  0  0  0  0  0
  186.7720  179.2300  148.2660 C   0  0  0  0  0  3  0  0  0  0  0  0
  185.6950  178.0460  146.4190 C   0  0  0  0  0  0  0  0  0  0  0  0
  192.8310  174.2920  146.9450 O   0  0  0  0  0  1  0  0  0  0  0  0
  191.2450  175.9280  147.6070 C   0  0  0  0  0  2  0  0  0  0  0  0
  185.6390  178.9590  147.4830 C   0  0  0  0  0  3  0  0  0  0  0  0
  189.2030  176.9660  146.5590 C   0  0  0  0  0  0  0  0  0  0  0  0
  187.9890  178.5890  148.0020 C   0  0  0  0  0  3  0  0  0  0  0  0
  191.3050  173.2820  145.0190 O   0  0  0  0  0  1  0  0  0  0  0  0
  191.8690  175.1690  146.4400 C   0  0  2  0  0  3  0  0  0  0  0  0
  189.9650  175.2900  144.8010 C   0  0  0  0  0  0  0  0  0  0  0  0
  192.3370  175.5760  142.5790 O   0  0  0  0  0  0  0  0  0  0  0  0
  191.2040  174.7420  142.6750 C   0  0  2  0  0  3  0  0  0  0  0  0
  193.3170  174.8840  141.8440 C   0  0  1  0  0  3  0  0  0  0  0  0
  191.6740  173.7590  140.5020 O   0  0  0  0  0  0  0  0  0  0  0  0
  192.7920  174.6110  140.4310 C   0  0  0  0  0  2  0  0  0  0  0  0
  190.6760  174.4120  141.2580 C   0  0  1  0  0  3  0  0  0  0  0  0
  194.5640  175.6970  141.7790 C   0  0  0  0  0  0  0  0  0  0  0  0
  194.9590  176.1340  140.6650 O   0  0  0  0  0  0  0  0  0  0  0  0
  196.5460  176.6050  142.9200 C   0  0  0  0  0  1  0  0  0  0  0  0
  195.2750  175.9730  142.9480 O   0  0  0  0  0  0  0  0  0  0  0  0
  189.4090  173.5540  141.3000 C   0  0  1  0  0  3  0  0  0  0  0  0
  188.3080  174.3300  140.9840 F   0  0  0  0  0  0  0  0  0  0  0  0
  188.4130  172.3840  139.4730 O   0  0  0  0  0  1  0  0  0  0  0  0
  189.4970  172.3690  140.3490 C   0  0  0  0  0  2  0  0  0  0  0  0
  184.5220  177.8300  145.6810 O   0  0  0  0  0  0  0  0  0  0  0  0
  183.9480  178.7630  144.7760 C   0  0  0  0  0  2  0  0  0  0  0  0
  185.0360  179.6160  144.1420 C   0  0  0  0  0  2  0  0  0  0  0  0
  185.2510  177.8790  140.6480 C   0  0  0  0  0  3  0  0  0  0  0  0
  187.4300  178.1580  141.5750 C   0  0  0  0  0  0  0  0  0  0  0  0
  185.5770  178.9720  142.9080 C   0  0  0  0  0  0  0  0  0  0  0  0
  186.8950  178.8060  142.7730 C   0  0  0  0  0  3  0  0  0  0  0  0
  184.6010  178.4280  141.8940 C   0  0  0  0  0  2  0  0  0  0  0  0
  186.5390  177.7510  140.5330 N   0  0  0  0  0  0  0  0  0  0  0  0
  188.6690  177.9770  141.4530 O   0  0  0  0  0  0  0  0  0  0  0  0
  1 14  1  0  0  0  0
  2 11  1  0  0  0  0
  3 17  2  0  0  0  0
  4  9  1  0  0  0  0
  4  1  2  0  0  0  0
  5 15  1  6  0  0  0
  5 16  1  0  0  0  0
  6 13  2  0  0  0  0
  7  6  1  0  0  0  0
  7  4  1  0  0  0  0
  9 12  2  0  0  0  0
 12  8  1  0  0  0  0
 13  1  1  0  0  0  0
 13  2  1  0  0  0  0
 14  8  2  0  0  0  0
 16 10  1  1  0  0  0
 16 11  1  0  0  0  0
 17  6  1  0  0  0  0
 17  5  1  0  0  0  0
 18 19  1  0  0  0  0
 19  3  1  1  0  0  0
 20 24  1  6  0  0  0
 20 18  1  0  0  0  0
 21 23  1  0  0  0  0
 22 21  1  0  0  0  0
 22 20  1  0  0  0  0
 23 28  1  1  0  0  0
 23 19  1  0  0  0  0
 24 27  1  0  0  0  0
 25 24  2  0  0  0  0
 26 27  1  0  0  0  0
 28 29  1  6  0  0  0
 30 31  1  0  0  0  0
 31 28  1  0  0  0  0
 32  9  1  0  0  0  0
 33 32  1  0  0  0  0
 34 33  1  0  0  0  0
 35 39  1  0  0  0  0
 36 38  1  0  0  0  0
 37 34  1  0  0  0  0
 38 37  2  0  0  0  0
 39 37  1  0  0  0  0
 40 35  2  0  0  0  0
 40 36  1  0  0  0  0
 41 36  2  0  0  0  0
M  END
>  <MODEL>
2

>  <REMARK>
 VINA RESULT:      -7.8      3.008      4.046
  Name = 
  9 active torsions:
  status: ('A' for Active; 'I' for Inactive)
    1  A    between atoms: C_4  and  C_15
    2  A    between atoms: C_6  and  C_8
    3  A    between atoms: C_7  and  C_12
    4  A    between atoms: C_8  and  O_11
    5  A    between atoms: C_9  and  C_23
    6  A    between atoms: C_9  and  C_37
    7  A    between atoms: C_12  and  C_39
    8  A    between atoms: C_27  and  O_34
    9  A    between atoms: O_34  and  C_39
                            x       y       z     vdW  Elec       q    Type
                         _______ _______ _______ _____ _____    ______ ____

>  <TORSDO>
F 9

$$$$
=
 OpenBabel11062422213D

 41 45  0  0  1  0  0  0  0  0999 V2000
  192.2560  173.4730  144.4080 C   0  0  0  0  0  0  0  0  0  0  0  0
  192.0230  175.8580  145.3020 C   0  0  0  0  0  2  0  0  0  0  0  0
  188.3840  175.8120  143.4320 C   0  0  0  0  0  3  0  0  0  0  0  0
  191.6540  172.5270  143.5760 C   0  0  0  0  0  0  0  0  0  0  0  0
  190.4090  177.2450  142.9360 C   0  0  1  0  0  3  0  0  0  0  0  0
  190.5520  174.7750  143.5060 C   0  0  0  0  0  0  0  0  0  0  0  0
  190.3460  173.2560  142.8010 S   0  0  0  0  0  0  0  0  0  0  0  0
  193.8410  171.8120  145.1390 C   0  0  0  0  0  3  0  0  0  0  0  0
  192.1330  171.2020  143.4990 C   0  0  0  0  0  0  0  0  0  0  0  0
  191.3050  179.2270  143.9470 O   0  0  0  0  0  1  0  0  0  0  0  0
  192.2970  177.1630  144.5670 C   0  0  0  0  0  2  0  0  0  0  0  0
  193.2380  170.8640  144.2970 C   0  0  0  0  0  3  0  0  0  0  0  0
  191.6480  174.7370  144.3720 C   0  0  0  0  0  0  0  0  0  0  0  0
  193.3500  173.1220  145.2010 C   0  0  0  0  0  3  0  0  0  0  0  0
  189.6010  178.1370  142.2260 O   0  0  0  0  0  1  0  0  0  0  0  0
  191.0070  177.8840  144.1890 C   0  0  2  0  0  3  0  0  0  0  0  0
  189.7070  175.9450  143.2550 C   0  0  0  0  0  0  0  0  0  0  0  0
  186.5880  176.9160  144.5010 O   0  0  0  0  0  0  0  0  0  0  0  0
  187.3820  176.9190  143.3360 C   0  0  2  0  0  3  0  0  0  0  0  0
  185.6770  177.9840  144.4010 C   0  0  1  0  0  3  0  0  0  0  0  0
  185.5370  177.7860  142.0120 O   0  0  0  0  0  0  0  0  0  0  0  0
  184.7660  177.7620  143.1900 C   0  0  0  0  0  2  0  0  0  0  0  0
  186.4830  176.7390  142.0890 C   0  0  1  0  0  3  0  0  0  0  0  0
  184.8640  178.0690  145.6460 C   0  0  0  0  0  0  0  0  0  0  0  0
  183.8370  178.7990  145.6640 O   0  0  0  0  0  0  0  0  0  0  0  0
  185.9140  177.9360  147.8680 C   0  0  0  0  0  1  0  0  0  0  0  0
  185.2380  177.3350  146.7730 O   0  0  0  0  0  0  0  0  0  0  0  0
  187.2970  176.6770  140.7940 C   0  0  1  0  0  3  0  0  0  0  0  0
  187.5190  175.3570  140.4450 F   0  0  0  0  0  0  0  0  0  0  0  0
  186.6490  176.6270  138.4970 O   0  0  0  0  0  1  0  0  0  0  0  0
  186.6000  177.4050  139.6530 C   0  0  0  0  0  2  0  0  0  0  0  0
  191.5850  170.2000  142.6860 O   0  0  0  0  0  0  0  0  0  0  0  0
  192.0490  169.8660  141.3850 C   0  0  0  0  0  2  0  0  0  0  0  0
  190.8880  169.8430  140.4030 C   0  0  0  0  0  2  0  0  0  0  0  0
  191.7410  173.2920  138.7750 C   0  0  0  0  0  3  0  0  0  0  0  0
  189.4060  172.8440  138.6020 C   0  0  0  0  0  0  0  0  0  0  0  0
  190.7500  171.1520  139.6980 C   0  0  0  0  0  0  0  0  0  0  0  0
  189.5490  171.5530  139.2750 C   0  0  0  0  0  3  0  0  0  0  0  0
  191.9680  172.0360  139.5810 C   0  0  0  0  0  2  0  0  0  0  0  0
  190.5630  173.6460  138.3550 N   0  0  0  0  0  0  0  0  0  0  0  0
  188.2730  173.2380  138.2230 O   0  0  0  0  0  0  0  0  0  0  0  0
  1 14  1  0  0  0  0
  4  1  2  0  0  0  0
  5 15  1  1  0  0  0
  5 17  1  0  0  0  0
  5 16  1  0  0  0  0
  6 13  2  0  0  0  0
  7  6  1  0  0  0  0
  7  4  1  0  0  0  0
  8 14  2  0  0  0  0
  9  4  1  0  0  0  0
  9 12  2  0  0  0  0
 11  2  1  0  0  0  0
 12  8  1  0  0  0  0
 13  1  1  0  0  0  0
 13  2  1  0  0  0  0
 16 10  1  6  0  0  0
 16 11  1  0  0  0  0
 17  3  2  0  0  0  0
 17  6  1  0  0  0  0
 19  3  1  1  0  0  0
 19 18  1  0  0  0  0
 20 18  1  0  0  0  0
 20 24  1  1  0  0  0
 21 23  1  0  0  0  0
 21 22  1  0  0  0  0
 22 20  1  0  0  0  0
 23 28  1  6  0  0  0
 23 19  1  0  0  0  0
 24 25  2  0  0  0  0
 24 27  1  0  0  0  0
 27 26  1  0  0  0  0
 28 29  1  6  0  0  0
 30 31  1  0  0  0  0
 31 28  1  0  0  0  0
 32  9  1  0  0  0  0
 33 32  1  0  0  0  0
 34 33  1  0  0  0  0
 35 39  1  0  0  0  0
 36 38  1  0  0  0  0
 37 34  1  0  0  0  0
 38 37  2  0  0  0  0
 39 37  1  0  0  0  0
 40 36  1  0  0  0  0
 40 35  2  0  0  0  0
 41 36  2  0  0  0  0
M  END
>  <MODEL>
3

>  <REMARK>
 VINA RESULT:      -7.3      4.103      8.948
  Name = 
  9 active torsions:
  status: ('A' for Active; 'I' for Inactive)
    1  A    between atoms: C_4  and  C_15
    2  A    between atoms: C_6  and  C_8
    3  A    between atoms: C_7  and  C_12
    4  A    between atoms: C_8  and  O_11
    5  A    between atoms: C_9  and  C_23
    6  A    between atoms: C_9  and  C_37
    7  A    between atoms: C_12  and  C_39
    8  A    between atoms: C_27  and  O_34
    9  A    between atoms: O_34  and  C_39
                            x       y       z     vdW  Elec       q    Type
                         _______ _______ _______ _____ _____    ______ ____

>  <TORSDO>
F 9

$$$$
=
 OpenBabel11062422213D

 41 45  0  0  1  0  0  0  0  0999 V2000
  193.9280  174.2470  141.4370 C   0  0  0  0  0  0  0  0  0  0  0  0
  191.8470  173.9130  139.9900 C   0  0  0  0  0  2  0  0  0  0  0  0
  189.9550  176.1620  142.8360 C   0  0  0  0  0  3  0  0  0  0  0  0
  194.3700  174.7540  142.6610 C   0  0  0  0  0  0  0  0  0  0  0  0
  189.5760  173.7400  142.2120 C   0  0  1  0  0  3  0  0  0  0  0  0
  191.8800  174.7900  142.3960 C   0  0  0  0  0  0  0  0  0  0  0  0
  193.0240  175.2390  143.5520 S   0  0  0  0  0  0  0  0  0  0  0  0
  196.2150  173.8650  140.7780 C   0  0  0  0  0  3  0  0  0  0  0  0
  195.7440  174.8260  142.9770 C   0  0  0  0  0  0  0  0  0  0  0  0
  188.3860  172.6730  140.4230 O   0  0  0  0  0  1  0  0  0  0  0  0
  190.7350  172.8880  140.1720 C   0  0  0  0  0  2  0  0  0  0  0  0
  196.6560  174.3710  142.0120 C   0  0  0  0  0  3  0  0  0  0  0  0
  192.5350  174.2580  141.2820 C   0  0  0  0  0  0  0  0  0  0  0  0
  194.8470  173.8030  140.4840 C   0  0  0  0  0  3  0  0  0  0  0  0
  188.3270  173.7770  142.8390 O   0  0  0  0  0  1  0  0  0  0  0  0
  189.4560  173.5260  140.7030 C   0  0  2  0  0  3  0  0  0  0  0  0
  190.4300  174.9440  142.5370 C   0  0  0  0  0  0  0  0  0  0  0  0
  188.0840  176.9580  141.6300 O   0  0  0  0  0  0  0  0  0  0  0  0
  188.5070  176.5340  142.9070 C   0  0  2  0  0  3  0  0  0  0  0  0
  186.7150  177.2700  141.7150 C   0  0  1  0  0  3  0  0  0  0  0  0
  186.9120  178.0140  143.9900 O   0  0  0  0  0  0  0  0  0  0  0  0
  186.5180  178.4240  142.7020 C   0  0  0  0  0  2  0  0  0  0  0  0
  188.2800  177.6670  143.9360 C   0  0  1  0  0  3  0  0  0  0  0  0
  186.2020  177.6520  140.3700 C   0  0  0  0  0  0  0  0  0  0  0  0
  186.6940  177.1100  139.3440 O   0  0  0  0  0  0  0  0  0  0  0  0
  183.8130  178.2410  140.4130 C   0  0  0  0  0  1  0  0  0  0  0  0
  185.1790  178.5960  140.2580 O   0  0  0  0  0  0  0  0  0  0  0  0
  188.7760  177.2840  145.3340 C   0  0  1  0  0  3  0  0  0  0  0  0
  189.9110  178.0120  145.6420 F   0  0  0  0  0  0  0  0  0  0  0  0
  187.1830  176.2910  146.8090 O   0  0  0  0  0  1  0  0  0  0  0  0
  187.7080  177.5140  146.3940 C   0  0  0  0  0  2  0  0  0  0  0  0
  196.2610  175.3180  144.1830 O   0  0  0  0  0  0  0  0  0  0  0  0
  196.1200  174.6830  145.4470 C   0  0  0  0  0  2  0  0  0  0  0  0
  197.0550  173.4870  145.5410 C   0  0  0  0  0  2  0  0  0  0  0  0
  194.1310  170.8950  145.4630 C   0  0  0  0  0  3  0  0  0  0  0  0
  196.1690  169.8320  146.0940 C   0  0  0  0  0  0  0  0  0  0  0  0
  196.2890  172.2090  145.6340 C   0  0  0  0  0  0  0  0  0  0  0  0
  196.9190  171.0840  145.9810 C   0  0  0  0  0  3  0  0  0  0  0  0
  194.7930  172.2520  145.4360 C   0  0  0  0  0  2  0  0  0  0  0  0
  194.7750  169.8120  145.7820 N   0  0  0  0  0  0  0  0  0  0  0  0
  196.7530  168.7750  146.4450 O   0  0  0  0  0  0  0  0  0  0  0  0
  1  4  1  0  0  0  0
  2 11  1  0  0  0  0
  2 13  1  0  0  0  0
  4  9  2  0  0  0  0
  4  7  1  0  0  0  0
  5 17  1  0  0  0  0
  5 15  1  6  0  0  0
  6 17  1  0  0  0  0
  6  7  1  0  0  0  0
  8 12  2  0  0  0  0
  9 32  1  0  0  0  0
 11 16  1  0  0  0  0
 12  9  1  0  0  0  0
 13  1  1  0  0  0  0
 13  6  2  0  0  0  0
 14  8  1  0  0  0  0
 14  1  2  0  0  0  0
 16 10  1  1  0  0  0
 16  5  1  0  0  0  0
 17  3  2  0  0  0  0
 18 20  1  0  0  0  0
 18 19  1  0  0  0  0
 19  3  1  6  0  0  0
 19 23  1  0  0  0  0
 20 24  1  6  0  0  0
 20 22  1  0  0  0  0
 22 21  1  0  0  0  0
 23 21  1  0  0  0  0
 23 28  1  1  0  0  0
 25 24  2  0  0  0  0
 27 24  1  0  0  0  0
 27 26  1  0  0  0  0
 28 29  1  1  0  0  0
 28 31  1  0  0  0  0
 31 30  1  0  0  0  0
 32 33  1  0  0  0  0
 33 34  1  0  0  0  0
 34 37  1  0  0  0  0
 35 40  2  0  0  0  0
 36 41  2  0  0  0  0
 37 38  2  0  0  0  0
 38 36  1  0  0  0  0
 39 35  1  0  0  0  0
 39 37  1  0  0  0  0
 40 36  1  0  0  0  0
M  END
>  <MODEL>
4

>  <REMARK>
 VINA RESULT:      -7.3      4.506     11.276
  Name = 
  9 active torsions:
  status: ('A' for Active; 'I' for Inactive)
    1  A    between atoms: C_4  and  C_15
    2  A    between atoms: C_6  and  C_8
    3  A    between atoms: C_7  and  C_12
    4  A    between atoms: C_8  and  O_11
    5  A    between atoms: C_9  and  C_23
    6  A    between atoms: C_9  and  C_37
    7  A    between atoms: C_12  and  C_39
    8  A    between atoms: C_27  and  O_34
    9  A    between atoms: O_34  and  C_39
                            x       y       z     vdW  Elec       q    Type
                         _______ _______ _______ _____ _____    ______ ____

>  <TORSDO>
F 9

$$$$
=
 OpenBabel11062422213D

 41 45  0  0  1  0  0  0  0  0999 V2000
  194.5620  174.2980  142.3650 C   0  0  0  0  0  0  0  0  0  0  0  0
  192.4820  174.5270  140.8960 C   0  0  0  0  0  2  0  0  0  0  0  0
  190.5500  175.3780  144.4010 C   0  0  0  0  0  3  0  0  0  0  0  0
  194.9990  174.2760  143.6910 C   0  0  0  0  0  0  0  0  0  0  0  0
  190.2290  173.4100  142.8460 C   0  0  1  0  0  3  0  0  0  0  0  0
  192.5060  174.3530  143.4520 C   0  0  0  0  0  0  0  0  0  0  0  0
  193.6460  174.3240  144.6960 S   0  0  0  0  0  0  0  0  0  0  0  0
  196.8530  174.2760  141.6190 C   0  0  0  0  0  3  0  0  0  0  0  0
  196.3720  174.2490  144.0160 C   0  0  0  0  0  0  0  0  0  0  0  0
  189.0560  173.1300  140.7730 O   0  0  0  0  0  1  0  0  0  0  0  0
  191.3970  173.4880  140.6420 C   0  0  0  0  0  2  0  0  0  0  0  0
  197.2890  174.2480  142.9530 C   0  0  0  0  0  3  0  0  0  0  0  0
  193.1680  174.3360  142.2210 C   0  0  0  0  0  0  0  0  0  0  0  0
  195.4860  174.3030  141.3180 C   0  0  0  0  0  3  0  0  0  0  0  0
  188.9830  173.1570  143.4280 O   0  0  0  0  0  1  0  0  0  0  0  0
  190.1050  173.8230  141.3800 C   0  0  2  0  0  3  0  0  0  0  0  0
  191.0540  174.3990  143.6360 C   0  0  0  0  0  0  0  0  0  0  0  0
  188.6890  176.6630  143.7140 O   0  0  0  0  0  0  0  0  0  0  0  0
  189.0940  175.6520  144.6100 C   0  0  2  0  0  3  0  0  0  0  0  0
  187.3120  176.8790  143.9070 C   0  0  1  0  0  3  0  0  0  0  0  0
  187.4460  176.3650  146.2480 O   0  0  0  0  0  0  0  0  0  0  0  0
  187.0710  177.3700  145.3370 C   0  0  0  0  0  2  0  0  0  0  0  0
  188.8220  176.1030  146.0650 C   0  0  1  0  0  3  0  0  0  0  0  0
  186.8190  177.8890  142.9280 C   0  0  0  0  0  0  0  0  0  0  0  0
  186.1450  178.8700  143.3400 O   0  0  0  0  0  0  0  0  0  0  0  0
  186.1270  177.9130  140.5670 C   0  0  0  0  0  1  0  0  0  0  0  0
  187.1160  177.7440  141.5720 O   0  0  0  0  0  0  0  0  0  0  0  0
  189.2960  175.0660  147.0880 C   0  0  1  0  0  3  0  0  0  0  0  0
  189.3200  173.8130  146.5050 F   0  0  0  0  0  0  0  0  0  0  0  0
  190.8260  176.7920  147.7050 O   0  0  0  0  0  1  0  0  0  0  0  0
  190.6720  175.4080  147.6420 C   0  0  0  0  0  2  0  0  0  0  0  0
  196.8840  174.2220  145.3210 O   0  0  0  0  0  0  0  0  0  0  0  0
  196.8140  173.1060  146.1980 C   0  0  0  0  0  2  0  0  0  0  0  0
  197.1920  171.8320  145.4580 C   0  0  0  0  0  2  0  0  0  0  0  0
  195.5290  168.6930  147.0860 C   0  0  0  0  0  3  0  0  0  0  0  0
  194.1790  169.5220  145.3050 C   0  0  0  0  0  0  0  0  0  0  0  0
  196.2310  170.7290  145.7550 C   0  0  0  0  0  0  0  0  0  0  0  0
  195.1150  170.6130  145.0320 C   0  0  0  0  0  3  0  0  0  0  0  0
  196.6080  169.7100  146.8020 C   0  0  0  0  0  2  0  0  0  0  0  0
  194.4410  168.6170  146.3800 N   0  0  0  0  0  0  0  0  0  0  0  0
  193.1380  169.3920  144.6110 O   0  0  0  0  0  0  0  0  0  0  0  0
  1  4  1  0  0  0  0
  2 13  1  0  0  0  0
  4  9  2  0  0  0  0
  4  7  1  0  0  0  0
  5 15  1  1  0  0  0
  5 17  1  0  0  0  0
  6 17  1  0  0  0  0
  6  7  1  0  0  0  0
  8 12  2  0  0  0  0
  9 32  1  0  0  0  0
 11  2  1  0  0  0  0
 11 16  1  0  0  0  0
 12  9  1  0  0  0  0
 13  1  1  0  0  0  0
 13  6  2  0  0  0  0
 14  8  1  0  0  0  0
 14  1  2  0  0  0  0
 16 10  1  6  0  0  0
 16  5  1  0  0  0  0
 17  3  2  0  0  0  0
 18 20  1  0  0  0  0
 18 19  1  0  0  0  0
 19  3  1  1  0  0  0
 19 23  1  0  0  0  0
 20 24  1  6  0  0  0
 20 22  1  0  0  0  0
 22 21  1  0  0  0  0
 23 21  1  0  0  0  0
 23 28  1  1  0  0  0
 24 25  2  0  0  0  0
 26 27  1  0  0  0  0
 27 24  1  0  0  0  0
 28 29  1  6  0  0  0
 28 31  1  0  0  0  0
 31 30  1  0  0  0  0
 32 33  1  0  0  0  0
 34 37  1  0  0  0  0
 34 33  1  0  0  0  0
 36 40  1  0  0  0  0
 37 39  1  0  0  0  0
 38 36  1  0  0  0  0
 38 37  2  0  0  0  0
 39 35  1  0  0  0  0
 40 35  2  0  0  0  0
 41 36  2  0  0  0  0
M  END
>  <MODEL>
5

>  <REMARK>
 VINA RESULT:      -7.2      4.877     11.263
  Name = 
  9 active torsions:
  status: ('A' for Active; 'I' for Inactive)
    1  A    between atoms: C_4  and  C_15
    2  A    between atoms: C_6  and  C_8
    3  A    between atoms: C_7  and  C_12
    4  A    between atoms: C_8  and  O_11
    5  A    between atoms: C_9  and  C_23
    6  A    between atoms: C_9  and  C_37
    7  A    between atoms: C_12  and  C_39
    8  A    between atoms: C_27  and  O_34
    9  A    between atoms: O_34  and  C_39
                            x       y       z     vdW  Elec       q    Type
                         _______ _______ _______ _____ _____    ______ ____

>  <TORSDO>
F 9

$$$$
=
 OpenBabel11062422213D

 41 45  0  0  1  0  0  0  0  0999 V2000
  189.6980  176.7270  146.2130 C   0  0  0  0  0  0  0  0  0  0  0  0
  192.2000  176.3190  145.8820 C   0  0  0  0  0  2  0  0  0  0  0  0
  191.0820  174.6510  142.3170 C   0  0  0  0  0  3  0  0  0  0  0  0
  188.4390  176.4620  145.6700 C   0  0  0  0  0  0  0  0  0  0  0  0
  192.1670  173.5470  144.3180 C   0  0  1  0  0  3  0  0  0  0  0  0
  190.3100  175.2680  144.5080 C   0  0  0  0  0  0  0  0  0  0  0  0
  188.6340  175.4040  144.3710 S   0  0  0  0  0  0  0  0  0  0  0  0
  188.6830  178.2130  147.8160 C   0  0  0  0  0  3  0  0  0  0  0  0
  187.2710  177.0600  146.1870 C   0  0  0  0  0  0  0  0  0  0  0  0
  194.4260  173.4600  145.1210 O   0  0  0  0  0  1  0  0  0  0  0  0
  192.9820  175.0380  146.1470 C   0  0  0  0  0  2  0  0  0  0  0  0
  187.4190  177.9400  147.2710 C   0  0  0  0  0  3  0  0  0  0  0  0
  190.7510  176.0590  145.5730 C   0  0  0  0  0  0  0  0  0  0  0  0
  189.8310  177.6090  147.2870 C   0  0  0  0  0  3  0  0  0  0  0  0
  192.5560  172.4740  143.5120 O   0  0  0  0  0  1  0  0  0  0  0  0
  193.3670  174.3290  144.8520 C   0  0  2  0  0  3  0  0  0  0  0  0
  191.1670  174.4550  143.6410 C   0  0  0  0  0  0  0  0  0  0  0  0
  193.0700  174.8280  141.0500 O   0  0  0  0  0  0  0  0  0  0  0  0
  191.9540  174.0010  141.2890 C   0  0  2  0  0  3  0  0  0  0  0  0
  193.8890  174.1810  140.1060 C   0  0  1  0  0  3  0  0  0  0  0  0
  192.0100  173.1710  139.0050 O   0  0  0  0  0  0  0  0  0  0  0  0
  193.1160  174.0150  138.7940 C   0  0  0  0  0  2  0  0  0  0  0  0
  191.1760  173.7780  139.9690 C   0  0  1  0  0  3  0  0  0  0  0  0
  195.1230  174.9840  139.8760 C   0  0  0  0  0  0  0  0  0  0  0  0
  195.4540  175.2830  138.6980 O   0  0  0  0  0  0  0  0  0  0  0  0
  196.0120  176.7760  141.3090 C   0  0  0  0  0  1  0  0  0  0  0  0
  195.8910  175.4040  140.9630 O   0  0  0  0  0  0  0  0  0  0  0  0
  189.9170  172.9320  140.1780 C   0  0  1  0  0  3  0  0  0  0  0  0
  188.8550  173.5000  139.4980 F   0  0  0  0  0  0  0  0  0  0  0  0
  190.5470  170.7110  140.7870 O   0  0  0  0  0  1  0  0  0  0  0  0
  190.1200  171.4950  139.7160 C   0  0  0  0  0  2  0  0  0  0  0  0
  185.9760  176.8390  145.6970 O   0  0  0  0  0  0  0  0  0  0  0  0
  184.9340  177.8060  145.6890 C   0  0  0  0  0  2  0  0  0  0  0  0
  185.3350  179.0030  144.8420 C   0  0  0  0  0  2  0  0  0  0  0  0
  184.3580  178.0960  141.1680 C   0  0  0  0  0  3  0  0  0  0  0  0
  186.7280  178.0720  141.4300 C   0  0  0  0  0  0  0  0  0  0  0  0
  185.4300  178.6350  143.3980 C   0  0  0  0  0  0  0  0  0  0  0  0
  186.6290  178.4530  142.8390 C   0  0  0  0  0  3  0  0  0  0  0  0
  184.1530  178.3720  142.6380 C   0  0  0  0  0  2  0  0  0  0  0  0
  185.5390  177.9470  140.6460 N   0  0  0  0  0  0  0  0  0  0  0  0
  187.8540  177.8760  140.9050 O   0  0  0  0  0  0  0  0  0  0  0  0
  1 14  1  0  0  0  0
  2 11  1  0  0  0  0
  3 17  2  0  0  0  0
  4  9  1  0  0  0  0
  4  1  2  0  0  0  0
  5 15  1  6  0  0  0
  5 16  1  0  0  0  0
  6 13  2  0  0  0  0
  7  6  1  0  0  0  0
  7  4  1  0  0  0  0
  9 12  2  0  0  0  0
 12  8  1  0  0  0  0
 13  2  1  0  0  0  0
 13  1  1  0  0  0  0
 14  8  2  0  0  0  0
 16 10  1  1  0  0  0
 16 11  1  0  0  0  0
 17  5  1  0  0  0  0
 17  6  1  0  0  0  0
 18 19  1  0  0  0  0
 19  3  1  1  0  0  0
 20 24  1  6  0  0  0
 20 18  1  0  0  0  0
 21 23  1  0  0  0  0
 22 21  1  0  0  0  0
 22 20  1  0  0  0  0
 23 28  1  1  0  0  0
 23 19  1  0  0  0  0
 24 27  1  0  0  0  0
 25 24  2  0  0  0  0
 27 26  1  0  0  0  0
 28 29  1  6  0  0  0
 31 28  1  0  0  0  0
 31 30  1  0  0  0  0
 32  9  1  0  0  0  0
 33 32  1  0  0  0  0
 34 33  1  0  0  0  0
 35 39  1  0  0  0  0
 36 38  1  0  0  0  0
 37 34  1  0  0  0  0
 38 37  2  0  0  0  0
 39 37  1  0  0  0  0
 40 35  2  0  0  0  0
 40 36  1  0  0  0  0
 41 36  2  0  0  0  0
M  END
>  <MODEL>
6

>  <REMARK>
 VINA RESULT:      -7.1      3.109      4.590
  Name = 
  9 active torsions:
  status: ('A' for Active; 'I' for Inactive)
    1  A    between atoms: C_4  and  C_15
    2  A    between atoms: C_6  and  C_8
    3  A    between atoms: C_7  and  C_12
    4  A    between atoms: C_8  and  O_11
    5  A    between atoms: C_9  and  C_23
    6  A    between atoms: C_9  and  C_37
    7  A    between atoms: C_12  and  C_39
    8  A    between atoms: C_27  and  O_34
    9  A    between atoms: O_34  and  C_39
                            x       y       z     vdW  Elec       q    Type
                         _______ _______ _______ _____ _____    ______ ____

>  <TORSDO>
F 9

$$$$
=
 OpenBabel11062422213D

 41 45  0  0  1  0  0  0  0  0999 V2000
  193.9260  172.7580  141.6830 C   0  0  0  0  0  0  0  0  0  0  0  0
  192.0810  173.8610  140.2970 C   0  0  0  0  0  2  0  0  0  0  0  0
  190.3590  174.6810  143.9170 C   0  0  0  0  0  3  0  0  0  0  0  0
  194.2770  172.3840  142.9810 C   0  0  0  0  0  0  0  0  0  0  0  0
  189.5130  173.1940  142.0540 C   0  0  1  0  0  3  0  0  0  0  0  0
  191.9430  173.2700  142.7860 C   0  0  0  0  0  0  0  0  0  0  0  0
  192.9640  172.6830  143.9950 S   0  0  0  0  0  0  0  0  0  0  0  0
  196.1280  172.1480  140.9190 C   0  0  0  0  0  3  0  0  0  0  0  0
  195.5600  171.8780  143.2810 C   0  0  0  0  0  0  0  0  0  0  0  0
  188.4000  173.6380  139.9760 O   0  0  0  0  0  1  0  0  0  0  0  0
  190.7420  173.2670  139.8820 C   0  0  0  0  0  2  0  0  0  0  0  0
  196.4770  171.7670  142.2250 C   0  0  0  0  0  3  0  0  0  0  0  0
  192.6180  173.2510  141.5630 C   0  0  0  0  0  0  0  0  0  0  0  0
  194.8500  172.6490  140.6420 C   0  0  0  0  0  3  0  0  0  0  0  0
  188.2270  173.2490  142.5980 O   0  0  0  0  0  1  0  0  0  0  0  0
  189.5850  173.8610  140.6800 C   0  0  2  0  0  3  0  0  0  0  0  0
  190.5680  173.7340  142.9910 C   0  0  0  0  0  0  0  0  0  0  0  0
  188.8350  176.3380  143.1970 O   0  0  0  0  0  0  0  0  0  0  0  0
  189.0500  175.3560  144.1850 C   0  0  2  0  0  3  0  0  0  0  0  0
  187.5860  176.9340  143.4510 C   0  0  1  0  0  3  0  0  0  0  0  0
  187.8100  176.6520  145.8250 O   0  0  0  0  0  0  0  0  0  0  0  0
  187.6210  177.6200  144.8200 C   0  0  0  0  0  2  0  0  0  0  0  0
  189.0470  176.0130  145.5860 C   0  0  1  0  0  3  0  0  0  0  0  0
  187.2780  177.9310  142.3870 C   0  0  0  0  0  0  0  0  0  0  0  0
  186.6140  178.9610  142.6790 O   0  0  0  0  0  0  0  0  0  0  0  0
  186.9180  177.1120  140.0940 C   0  0  0  0  0  1  0  0  0  0  0  0
  187.7350  177.7200  141.0840 O   0  0  0  0  0  0  0  0  0  0  0  0
  189.3350  175.0010  146.6980 C   0  0  1  0  0  3  0  0  0  0  0  0
  189.3060  173.7180  146.1810 F   0  0  0  0  0  0  0  0  0  0  0  0
  190.9230  176.6330  147.4140 O   0  0  0  0  0  1  0  0  0  0  0  0
  190.6780  175.2610  147.3650 C   0  0  0  0  0  2  0  0  0  0  0  0
  195.9830  171.4790  144.5570 O   0  0  0  0  0  0  0  0  0  0  0  0
  197.1850  171.9040  145.1850 C   0  0  0  0  0  2  0  0  0  0  0  0
  196.8950  173.0330  146.1620 C   0  0  0  0  0  2  0  0  0  0  0  0
  196.7140  175.9670  143.5870 C   0  0  0  0  0  3  0  0  0  0  0  0
  194.9800  176.1740  145.2100 C   0  0  0  0  0  0  0  0  0  0  0  0
  196.4570  174.2680  145.4470 C   0  0  0  0  0  0  0  0  0  0  0  0
  195.4010  174.9520  145.8950 C   0  0  0  0  0  3  0  0  0  0  0  0
  197.2940  174.7660  144.2940 C   0  0  0  0  0  2  0  0  0  0  0  0
  195.6700  176.6000  144.0330 N   0  0  0  0  0  0  0  0  0  0  0  0
  194.0010  176.8360  145.6420 O   0  0  0  0  0  0  0  0  0  0  0  0
  1  4  1  0  0  0  0
  2 13  1  0  0  0  0
  4  9  2  0  0  0  0
  4  7  1  0  0  0  0
  5 15  1  1  0  0  0
  5 17  1  0  0  0  0
  6 17  1  0  0  0  0
  6  7  1  0  0  0  0
  8 12  2  0  0  0  0
  9 32  1  0  0  0  0
 11  2  1  0  0  0  0
 11 16  1  0  0  0  0
 12  9  1  0  0  0  0
 13  1  1  0  0  0  0
 13  6  2  0  0  0  0
 14  8  1  0  0  0  0
 14  1  2  0  0  0  0
 16 10  1  6  0  0  0
 16  5  1  0  0  0  0
 17  3  2  0  0  0  0
 18 20  1  0  0  0  0
 18 19  1  0  0  0  0
 19  3  1  6  0  0  0
 19 23  1  0  0  0  0
 20 24  1  6  0  0  0
 20 22  1  0  0  0  0
 22 21  1  0  0  0  0
 23 21  1  0  0  0  0
 23 28  1  1  0  0  0
 24 25  2  0  0  0  0
 26 27  1  0  0  0  0
 27 24  1  0  0  0  0
 28 29  1  6  0  0  0
 28 31  1  0  0  0  0
 31 30  1  0  0  0  0
 32 33  1  0  0  0  0
 33 34  1  0  0  0  0
 35 40  2  0  0  0  0
 35 39  1  0  0  0  0
 36 41  2  0  0  0  0
 36 38  1  0  0  0  0
 37 38  2  0  0  0  0
 37 34  1  0  0  0  0
 39 37  1  0  0  0  0
 40 36  1  0  0  0  0
M  END
>  <MODEL>
7

>  <REMARK>
 VINA RESULT:      -7.1      4.886     10.828
  Name = 
  9 active torsions:
  status: ('A' for Active; 'I' for Inactive)
    1  A    between atoms: C_4  and  C_15
    2  A    between atoms: C_6  and  C_8
    3  A    between atoms: C_7  and  C_12
    4  A    between atoms: C_8  and  O_11
    5  A    between atoms: C_9  and  C_23
    6  A    between atoms: C_9  and  C_37
    7  A    between atoms: C_12  and  C_39
    8  A    between atoms: C_27  and  O_34
    9  A    between atoms: O_34  and  C_39
                            x       y       z     vdW  Elec       q    Type
                         _______ _______ _______ _____ _____    ______ ____

>  <TORSDO>
F 9

$$$$
=
 OpenBabel11062422213D

 41 45  0  0  1  0  0  0  0  0999 V2000
  193.2700  174.0840  140.2980 C   0  0  0  0  0  0  0  0  0  0  0  0
  190.9090  173.1290  140.0680 C   0  0  0  0  0  2  0  0  0  0  0  0
  189.7940  176.3000  142.4000 C   0  0  0  0  0  3  0  0  0  0  0  0
  194.0220  175.0620  140.9520 C   0  0  0  0  0  0  0  0  0  0  0  0
  189.6840  173.8270  142.9210 C   0  0  1  0  0  3  0  0  0  0  0  0
  191.6490  174.9200  141.7430 C   0  0  0  0  0  0  0  0  0  0  0  0
  193.0280  175.8360  142.0730 S   0  0  0  0  0  0  0  0  0  0  0  0
  195.1850  173.5260  138.9470 C   0  0  0  0  0  3  0  0  0  0  0  0
  195.3750  175.2940  140.6250 C   0  0  0  0  0  0  0  0  0  0  0  0
  188.1520  172.0870  142.3070 O   0  0  0  0  0  1  0  0  0  0  0  0
  190.1590  172.2410  141.0530 C   0  0  0  0  0  2  0  0  0  0  0  0
  195.9400  174.5060  139.6100 C   0  0  0  0  0  3  0  0  0  0  0  0
  191.9410  173.9940  140.7380 C   0  0  0  0  0  0  0  0  0  0  0  0
  193.8430  173.3120  139.2870 C   0  0  0  0  0  3  0  0  0  0  0  0
  188.7680  174.0860  143.9450 O   0  0  0  0  0  1  0  0  0  0  0  0
  189.0650  173.0070  141.7900 C   0  0  2  0  0  3  0  0  0  0  0  0
  190.3500  175.0800  142.4010 C   0  0  0  0  0  0  0  0  0  0  0  0
  187.6510  177.1370  141.8590 O   0  0  0  0  0  0  0  0  0  0  0  0
  188.4290  176.6300  142.9190 C   0  0  2  0  0  3  0  0  0  0  0  0
  186.3650  177.4080  142.3630 C   0  0  1  0  0  3  0  0  0  0  0  0
  187.2180  177.9850  144.5320 O   0  0  0  0  0  0  0  0  0  0  0  0
  186.4640  178.4800  143.4520 C   0  0  0  0  0  2  0  0  0  0  0  0
  188.5110  177.6770  144.0560 C   0  0  1  0  0  3  0  0  0  0  0  0
  185.4800  177.8770  141.2600 C   0  0  0  0  0  0  0  0  0  0  0  0
  185.9310  177.9230  140.0840 O   0  0  0  0  0  0  0  0  0  0  0  0
  183.1650  178.2750  140.5270 C   0  0  0  0  0  1  0  0  0  0  0  0
  184.1630  178.2490  141.5360 O   0  0  0  0  0  0  0  0  0  0  0  0
  189.3950  177.2030  145.2130 C   0  0  1  0  0  3  0  0  0  0  0  0
  190.4350  178.0950  145.4020 F   0  0  0  0  0  0  0  0  0  0  0  0
  188.5870  175.7140  146.8960 O   0  0  0  0  0  1  0  0  0  0  0  0
  188.6010  177.0520  146.5040 C   0  0  0  0  0  2  0  0  0  0  0  0
  196.1930  176.2530  141.2390 O   0  0  0  0  0  0  0  0  0  0  0  0
  197.1240  175.9810  142.2770 C   0  0  0  0  0  2  0  0  0  0  0  0
  196.7930  176.8090  143.5100 C   0  0  0  0  0  2  0  0  0  0  0  0
  194.8030  173.9790  145.3280 C   0  0  0  0  0  3  0  0  0  0  0  0
  193.9740  176.1220  145.9640 C   0  0  0  0  0  0  0  0  0  0  0  0
  195.8140  176.1020  144.3880 C   0  0  0  0  0  0  0  0  0  0  0  0
  194.9490  176.8100  145.1170 C   0  0  0  0  0  3  0  0  0  0  0  0
  195.7630  174.5940  144.3380 C   0  0  0  0  0  2  0  0  0  0  0  0
  193.9880  174.6940  146.0440 N   0  0  0  0  0  0  0  0  0  0  0  0
  193.1400  176.7830  146.6350 O   0  0  0  0  0  0  0  0  0  0  0  0
  1 13  1  0  0  0  0
  1  4  1  0  0  0  0
  2 13  1  0  0  0  0
  2 11  1  0  0  0  0
  3 17  2  0  0  0  0
  4  7  1  0  0  0  0
  5 15  1  1  0  0  0
  6  7  1  0  0  0  0
  6 17  1  0  0  0  0
  8 14  1  0  0  0  0
  8 12  2  0  0  0  0
  9  4  2  0  0  0  0
  9 32  1  0  0  0  0
 11 16  1  0  0  0  0
 12  9  1  0  0  0  0
 13  6  2  0  0  0  0
 14  1  2  0  0  0  0
 16 10  1  1  0  0  0
 16  5  1  0  0  0  0
 17  5  1  0  0  0  0
 18 20  1  0  0  0  0
 18 19  1  0  0  0  0
 19  3  1  6  0  0  0
 19 23  1  0  0  0  0
 20 24  1  6  0  0  0
 20 22  1  0  0  0  0
 22 21  1  0  0  0  0
 23 21  1  0  0  0  0
 23 28  1  1  0  0  0
 24 27  1  0  0  0  0
 25 24  2  0  0  0  0
 26 27  1  0  0  0  0
 28 29  1  1  0  0  0
 28 31  1  0  0  0  0
 31 30  1  0  0  0  0
 32 33  1  0  0  0  0
 33 34  1  0  0  0  0
 34 37  1  0  0  0  0
 35 40  2  0  0  0  0
 36 40  1  0  0  0  0
 36 41  2  0  0  0  0
 37 38  2  0  0  0  0
 38 36  1  0  0  0  0
 39 37  1  0  0  0  0
 39 35  1  0  0  0  0
M  END
>  <MODEL>
8

>  <REMARK>
 VINA RESULT:      -7.1      3.854     10.449
  Name = 
  9 active torsions:
  status: ('A' for Active; 'I' for Inactive)
    1  A    between atoms: C_4  and  C_15
    2  A    between atoms: C_6  and  C_8
    3  A    between atoms: C_7  and  C_12
    4  A    between atoms: C_8  and  O_11
    5  A    between atoms: C_9  and  C_23
    6  A    between atoms: C_9  and  C_37
    7  A    between atoms: C_12  and  C_39
    8  A    between atoms: C_27  and  O_34
    9  A    between atoms: O_34  and  C_39
                            x       y       z     vdW  Elec       q    Type
                         _______ _______ _______ _____ _____    ______ ____

>  <TORSDO>
F 9

$$$$
=
 OpenBabel11062422213D

 41 45  0  0  1  0  0  0  0  0999 V2000
  190.0180  172.2110  141.3690 C   0  0  0  0  0  0  0  0  0  0  0  0
  189.9110  173.2120  143.7190 C   0  0  0  0  0  2  0  0  0  0  0  0
  187.3450  175.9260  142.0480 C   0  0  0  0  0  3  0  0  0  0  0  0
  189.6210  172.4160  140.0460 C   0  0  0  0  0  0  0  0  0  0  0  0
  189.6340  176.3110  143.0540 C   0  0  1  0  0  3  0  0  0  0  0  0
  189.0770  174.3280  141.5700 C   0  0  0  0  0  0  0  0  0  0  0  0
  188.8780  173.9260  139.9430 S   0  0  0  0  0  0  0  0  0  0  0  0
  190.8530  170.0300  140.7720 C   0  0  0  0  0  3  0  0  0  0  0  0
  189.8330  171.4380  139.0520 C   0  0  0  0  0  0  0  0  0  0  0  0
  190.4230  176.5150  145.3100 O   0  0  0  0  0  1  0  0  0  0  0  0
  190.6890  174.4010  144.2660 C   0  0  0  0  0  2  0  0  0  0  0  0
  190.4570  170.2420  139.4410 C   0  0  0  0  0  3  0  0  0  0  0  0
  189.7230  173.2790  142.2290 C   0  0  0  0  0  0  0  0  0  0  0  0
  190.6330  171.0140  141.7440 C   0  0  0  0  0  3  0  0  0  0  0  0
  189.3480  177.6740  143.1750 O   0  0  0  0  0  1  0  0  0  0  0  0
  189.8080  175.6380  144.4140 C   0  0  2  0  0  3  0  0  0  0  0  0
  188.6320  175.5770  142.1930 C   0  0  0  0  0  0  0  0  0  0  0  0
  186.1530  176.6860  143.9420 O   0  0  0  0  0  0  0  0  0  0  0  0
  186.6870  177.0990  142.7040 C   0  0  2  0  0  3  0  0  0  0  0  0
  185.5690  177.8120  144.5530 C   0  0  1  0  0  3  0  0  0  0  0  0
  184.9400  178.7680  142.4420 O   0  0  0  0  0  0  0  0  0  0  0  0
  184.4250  178.3280  143.6760 C   0  0  0  0  0  2  0  0  0  0  0  0
  185.5580  177.6660  141.8110 C   0  0  1  0  0  3  0  0  0  0  0  0
  185.0560  177.4430  145.9020 C   0  0  0  0  0  0  0  0  0  0  0  0
  184.0110  177.9970  146.3380 O   0  0  0  0  0  0  0  0  0  0  0  0
  187.0390  176.7060  147.1590 C   0  0  0  0  0  1  0  0  0  0  0  0
  185.7270  176.4840  146.6630 O   0  0  0  0  0  0  0  0  0  0  0  0
  186.0700  178.0780  140.4270 C   0  0  1  0  0  3  0  0  0  0  0  0
  187.4520  178.1130  140.4330 F   0  0  0  0  0  0  0  0  0  0  0  0
  186.6440  176.7660  138.5170 O   0  0  0  0  0  1  0  0  0  0  0  0
  185.5790  177.1340  139.3390 C   0  0  0  0  0  2  0  0  0  0  0  0
  189.4660  171.5740  137.7060 O   0  0  0  0  0  0  0  0  0  0  0  0
  190.3070  172.0880  136.6820 C   0  0  0  0  0  2  0  0  0  0  0  0
  190.1190  173.5910  136.5530 C   0  0  0  0  0  2  0  0  0  0  0  0
  193.5740  174.6300  138.0530 C   0  0  0  0  0  3  0  0  0  0  0  0
  192.9510  176.1120  136.2930 C   0  0  0  0  0  0  0  0  0  0  0  0
  191.4000  174.3190  136.7940 C   0  0  0  0  0  0  0  0  0  0  0  0
  191.7060  175.3830  136.0480 C   0  0  0  0  0  3  0  0  0  0  0  0
  192.2630  173.8880  137.9540 C   0  0  0  0  0  2  0  0  0  0  0  0
  193.8570  175.6490  137.2980 N   0  0  0  0  0  0  0  0  0  0  0  0
  193.2340  177.1300  135.6100 O   0  0  0  0  0  0  0  0  0  0  0  0
  1 14  1  0  0  0  0
  1 13  1  0  0  0  0
  2 11  1  0  0  0  0
  3 17  2  0  0  0  0
  4  1  2  0  0  0  0
  5 15  1  1  0  0  0
  5 16  1  0  0  0  0
  6 17  1  0  0  0  0
  6 13  2  0  0  0  0
  7  4  1  0  0  0  0
  7  6  1  0  0  0  0
  8 14  2  0  0  0  0
  9 12  2  0  0  0  0
  9  4  1  0  0  0  0
 11 16  1  0  0  0  0
 12  8  1  0  0  0  0
 13  2  1  0  0  0  0
 16 10  1  1  0  0  0
 17  5  1  0  0  0  0
 18 20  1  0  0  0  0
 19  3  1  6  0  0  0
 19 18  1  0  0  0  0
 20 24  1  1  0  0  0
 21 22  1  0  0  0  0
 22 20  1  0  0  0  0
 23 28  1  6  0  0  0
 23 21  1  0  0  0  0
 23 19  1  0  0  0  0
 24 25  2  0  0  0  0
 24 27  1  0  0  0  0
 27 26  1  0  0  0  0
 28 29  1  1  0  0  0
 30 31  1  0  0  0  0
 31 28  1  0  0  0  0
 32  9  1  0  0  0  0
 33 32  1  0  0  0  0
 34 33  1  0  0  0  0
 34 37  1  0  0  0  0
 36 40  1  0  0  0  0
 37 39  1  0  0  0  0
 38 36  1  0  0  0  0
 38 37  2  0  0  0  0
 39 35  1  0  0  0  0
 40 35  2  0  0  0  0
 41 36  2  0  0  0  0
M  END
>  <MODEL>
9

>  <REMARK>
 VINA RESULT:      -6.9      4.361      9.274
  Name = 
  9 active torsions:
  status: ('A' for Active; 'I' for Inactive)
    1  A    between atoms: C_4  and  C_15
    2  A    between atoms: C_6  and  C_8
    3  A    between atoms: C_7  and  C_12
    4  A    between atoms: C_8  and  O_11
    5  A    between atoms: C_9  and  C_23
    6  A    between atoms: C_9  and  C_37
    7  A    between atoms: C_12  and  C_39
    8  A    between atoms: C_27  and  O_34
    9  A    between atoms: O_34  and  C_39
                            x       y       z     vdW  Elec       q    Type
                         _______ _______ _______ _____ _____    ______ ____

>  <TORSDO>
F 9

$$$$
