=
 OpenBabel11062421363D

 55 62  0  0  1  0  0  0  0  0999 V2000
  190.7020  170.4660  140.9830 C   0  0  0  0  0  0  0  0  0  0  0  0
  190.1210  169.3770  138.5040 N   0  0  0  0  0  0  0  0  0  0  0  0
  190.3790  171.3080  139.9010 C   0  0  0  0  0  0  0  0  0  0  0  0
  190.4550  168.5510  139.5310 C   0  0  0  0  0  3  0  0  0  0  0  0
  190.0730  170.7260  138.6620 C   0  0  0  0  0  3  0  0  0  0  0  0
  190.7440  169.0810  140.7900 C   0  0  0  0  0  3  0  0  0  0  0  0
  190.9200  171.0160  142.2820 N   0  0  0  0  0  2  0  0  0  0  0  0
  192.2200  171.1730  142.7900 N   0  0  0  0  0  2  0  0  0  0  0  0
  192.3620  172.5480  143.2600 C   0  0  0  0  0  2  0  0  0  0  0  0
  193.9080  175.6700  142.4270 C   0  0  0  0  0  2  0  0  0  0  0  0
  194.9180  178.1690  145.7250 O   0  0  0  0  0  0  0  0  0  0  0  0
  194.6790  176.9390  145.6150 C   0  0  0  0  0  0  0  0  0  0  0  0
  195.0060  174.6940  145.7840 C   0  0  2  0  0  3  0  0  0  0  0  0
  192.7190  172.6050  144.7580 C   0  0  1  0  0  3  0  0  0  0  0  0
  196.8580  173.2180  145.8830 F   0  0  0  0  0  0  0  0  0  0  0  0
  194.0930  171.9940  145.0910 C   0  0  0  0  0  2  0  0  0  0  0  0
  195.9480  173.7670  144.9980 C   0  0  0  0  0  0  0  0  0  0  0  0
  193.6880  175.6660  143.7400 C   0  0  0  0  0  0  0  0  0  0  0  0
  193.6580  174.9710  145.1010 C   0  0  1  0  0  0  0  0  0  0  0  0
  192.4960  173.9990  145.3880 C   0  0  1  0  0  3  0  0  0  0  0  0
  195.2190  172.6300  144.2720 C   0  0  0  0  0  2  0  0  0  0  0  0
  196.6460  174.5000  144.0520 F   0  0  0  0  0  0  0  0  0  0  0  0
  195.5770  175.9670  145.9950 O   0  0  0  0  0  0  0  0  0  0  0  0
  193.4140  176.3880  145.0740 C   0  0  1  0  0  3  0  0  0  0  0  0
  191.0890  174.5830  145.1190 C   0  0  1  0  0  3  0  0  0  0  0  0
  189.9830  173.5430  145.2050 C   0  0  0  0  0  2  0  0  0  0  0  0
  190.4470  175.3390  146.2920 C   0  0  1  0  0  3  0  0  0  0  0  0
  189.3180  174.3240  146.3250 C   0  0  0  0  0  2  0  0  0  0  0  0
  191.4390  176.6640  148.0880 O   0  0  0  0  0  1  0  0  0  0  0  0
  191.2240  175.3600  147.6190 C   0  0  0  0  0  2  0  0  0  0  0  0
  190.3170  172.8020  140.0860 C   0  0  1  0  0  3  0  0  0  0  0  0
  190.4690  173.6570  137.8070 O   0  0  0  0  0  1  0  0  0  0  0  0
  191.1260  173.5990  139.0430 C   0  0  2  0  0  3  0  0  0  0  0  0
  194.6650  172.6680  139.7960 C   0  0  0  0  0  3  0  0  0  0  0  0
  193.3870  173.1100  139.9370 N   0  0  0  0  0  0  0  0  0  0  0  0
  195.1040  172.1650  138.5680 C   0  0  0  0  0  3  0  0  0  0  0  0
  192.9340  172.5860  137.6870 N   0  0  0  0  0  0  0  0  0  0  0  0
  194.2050  172.1340  137.5090 C   0  0  0  0  0  3  0  0  0  0  0  0
  192.5220  173.0660  138.8930 C   0  0  0  0  0  0  0  0  0  0  0  0
  188.8680  173.2730  140.2220 C   0  0  0  0  0  2  0  0  0  0  0  0
  187.5340  175.4350  139.8960 C   0  0  0  0  0  2  0  0  0  0  0  0
  188.7340  174.9500  142.1280 C   0  0  0  0  0  2  0  0  0  0  0  0
  186.8590  176.6570  142.0340 C   0  0  2  0  0  3  0  0  0  0  0  0
  187.3720  175.3600  142.6810 C   0  0  0  0  0  2  0  0  0  0  0  0
  187.2450  176.7840  140.5500 C   0  0  0  0  0  2  0  0  0  0  0  0
  188.7080  174.7460  140.6060 C   0  0  1  0  0  3  0  0  0  0  0  0
  186.4600  178.6700  144.8980 C   0  0  2  0  0  3  0  0  0  0  0  0
  187.3320  177.8940  142.8060 C   0  0  2  0  0  3  0  0  0  0  0  0
  185.6810  179.1430  143.6900 C   0  0  0  0  0  2  0  0  0  0  0  0
  188.7920  177.8700  144.7960 C   0  0  0  0  0  1  0  0  0  0  0  0
  187.3830  177.6400  144.3000 C   0  0  1  0  0  3  0  0  0  0  0  0
  186.4880  178.9910  142.5560 O   0  0  0  0  0  0  0  0  0  0  0  0
  184.2090  178.5620  145.6670 C   0  0  0  0  0  1  0  0  0  0  0  0
  185.5610  178.0700  145.8970 N   0  0  0  0  0  0  0  0  0  0  0  0
  185.4940  176.6360  145.6440 C   0  0  0  0  0  1  0  0  0  0  0  0
  1  7  1  0  0  0  0
  2  5  2  0  0  0  0
  2  4  1  0  0  0  0
  3 31  1  0  0  0  0
  3  1  2  0  0  0  0
  4  6  2  0  0  0  0
  5  3  1  0  0  0  0
  6  1  1  0  0  0  0
  7  8  1  0  0  0  0
  8  9  1  0  0  0  0
 10 18  2  0  0  0  0
 12 11  2  0  0  0  0
 12 23  1  0  0  0  0
 13 23  1  6  0  0  0
 14  9  1  6  0  0  0
 14 16  1  0  0  0  0
 14 20  1  0  0  0  0
 17 13  1  0  0  0  0
 17 15  1  0  0  0  0
 19 18  1  6  0  0  0
 19 20  1  0  0  0  0
 19 13  1  0  0  0  0
 20 25  1  6  0  0  0
 21 17  1  0  0  0  0
 21 16  1  0  0  0  0
 22 17  1  0  0  0  0
 24 18  1  6  0  0  0
 24 19  1  0  0  0  0
 24 12  1  0  0  0  0
 25 26  1  1  0  0  0
 25 27  1  0  0  0  0
 26 28  1  0  0  0  0
 27 28  1  0  0  0  0
 27 30  1  1  0  0  0
 30 29  1  0  0  0  0
 31 40  1  6  0  0  0
 33 32  1  6  0  0  0
 33 31  1  0  0  0  0
 34 35  1  0  0  0  0
 36 34  2  0  0  0  0
 37 39  1  0  0  0  0
 38 37  2  0  0  0  0
 38 36  1  0  0  0  0
 39 33  1  0  0  0  0
 39 35  2  0  0  0  0
 41 45  1  0  0  0  0
 41 46  1  0  0  0  0
 42 44  1  0  0  0  0
 43 45  1  6  0  0  0
 43 44  1  0  0  0  0
 43 48  1  0  0  0  0
 46 40  1  1  0  0  0
 46 42  1  0  0  0  0
 47 54  1  1  0  0  0
 48 52  1  1  0  0  0
 48 51  1  0  0  0  0
 49 47  1  0  0  0  0
 51 50  1  1  0  0  0
 51 47  1  0  0  0  0
 52 49  1  0  0  0  0
 53 54  1  0  0  0  0
 55 54  1  0  0  0  0
M  END
>  <MODEL>
1

>  <REMARK>
 VINA RESULT:      -7.7      0.000      0.000
  Name = 
  13 active torsions:
  status: ('A' for Active; 'I' for Inactive)
    1  A    between atoms: C_3  and  N_27
    2  A    between atoms: C_4  and  N_17
    3  A    between atoms: C_9  and  C_53
    4  A    between atoms: C_13  and  C_32
    5  A    between atoms: N_17  and  N_45
    6  A    between atoms: C_21  and  C_33
    7  A    between atoms: C_23  and  C_35
    8  A    between atoms: C_32  and  N_45
    9  A    between atoms: C_37  and  C_38
   10  A    between atoms: C_37  and  C_53
   11  A    between atoms: C_41  and  C_55
   12  A    between atoms: C_49  and  C_53
   13  A    between atoms: C_49  and  C_54
                            x       y       z     vdW  Elec       q    Type
                         _______ _______ _______ _____ _____    ______ ____

>  <TORSDO>
F 13

$$$$
=
 OpenBabel11062421363D

 55 62  0  0  1  0  0  0  0  0999 V2000
  188.3110  174.7410  138.7740 C   0  0  0  0  0  0  0  0  0  0  0  0
  188.9210  174.3890  136.0950 N   0  0  0  0  0  0  0  0  0  0  0  0
  189.3890  173.9160  138.3980 C   0  0  0  0  0  0  0  0  0  0  0  0
  187.8620  175.1690  136.4380 C   0  0  0  0  0  3  0  0  0  0  0  0
  189.6840  173.7700  137.0340 C   0  0  0  0  0  3  0  0  0  0  0  0
  187.5430  175.3640  137.7840 C   0  0  0  0  0  3  0  0  0  0  0  0
  188.0440  174.9930  140.1530 N   0  0  0  0  0  2  0  0  0  0  0  0
  187.6400  176.2650  140.5890 N   0  0  0  0  0  2  0  0  0  0  0  0
  188.2870  176.5360  141.8680 C   0  0  0  0  0  2  0  0  0  0  0  0
  191.1230  177.5280  143.8180 C   0  0  0  0  0  2  0  0  0  0  0  0
  190.6000  177.3910  148.0430 O   0  0  0  0  0  0  0  0  0  0  0  0
  190.0000  176.8480  147.0800 C   0  0  0  0  0  0  0  0  0  0  0  0
  189.1180  175.1870  145.8000 C   0  0  2  0  0  3  0  0  0  0  0  0
  187.5240  175.8910  143.0420 C   0  0  1  0  0  3  0  0  0  0  0  0
  189.5370  172.8850  145.4250 F   0  0  0  0  0  0  0  0  0  0  0  0
  187.8680  174.4070  143.2630 C   0  0  0  0  0  2  0  0  0  0  0  0
  189.8160  174.1410  144.9160 C   0  0  0  0  0  0  0  0  0  0  0  0
  190.1090  177.3250  144.6560 C   0  0  0  0  0  0  0  0  0  0  0  0
  188.8790  176.5450  145.1220 C   0  0  1  0  0  0  0  0  0  0  0  0
  187.5660  176.7340  144.3370 C   0  0  1  0  0  3  0  0  0  0  0  0
  189.3720  174.1870  143.4490 C   0  0  0  0  0  2  0  0  0  0  0  0
  191.1870  174.3320  144.9540 F   0  0  0  0  0  0  0  0  0  0  0  0
  189.8710  175.4830  146.9570 O   0  0  0  0  0  0  0  0  0  0  0  0
  189.3600  177.6000  145.9750 C   0  0  1  0  0  3  0  0  0  0  0  0
  187.1470  178.2090  144.1320 C   0  0  1  0  0  3  0  0  0  0  0  0
  186.0850  178.3840  143.0570 C   0  0  0  0  0  2  0  0  0  0  0  0
  186.1660  178.7730  145.1710 C   0  0  1  0  0  3  0  0  0  0  0  0
  185.1380  178.9960  144.0760 C   0  0  0  0  0  2  0  0  0  0  0  0
  186.1830  178.0640  147.5080 O   0  0  0  0  0  1  0  0  0  0  0  0
  185.6440  177.7980  146.2410 C   0  0  0  0  0  2  0  0  0  0  0  0
  190.2370  173.2420  139.4450 C   0  0  1  0  0  3  0  0  0  0  0  0
  189.8290  171.7000  141.2900 O   0  0  0  0  0  1  0  0  0  0  0  0
  189.6980  171.8730  139.9060 C   0  0  2  0  0  3  0  0  0  0  0  0
  190.3880  169.3110  137.2770 C   0  0  0  0  0  3  0  0  0  0  0  0
  189.8450  170.3620  137.9450 N   0  0  0  0  0  0  0  0  0  0  0  0
  191.4570  168.6010  137.8320 C   0  0  0  0  0  3  0  0  0  0  0  0
  191.3690  170.0560  139.7130 N   0  0  0  0  0  0  0  0  0  0  0  0
  191.9390  168.9990  139.0740 C   0  0  0  0  0  3  0  0  0  0  0  0
  190.3330  170.7400  139.1530 C   0  0  0  0  0  0  0  0  0  0  0  0
  191.7040  173.2050  139.0150 C   0  0  0  0  0  2  0  0  0  0  0  0
  192.0110  174.5890  141.1470 C   0  0  0  0  0  2  0  0  0  0  0  0
  193.6450  172.6780  140.5700 C   0  0  0  0  0  2  0  0  0  0  0  0
  193.4840  173.5420  142.9510 C   0  0  2  0  0  3  0  0  0  0  0  0
  193.3720  172.3180  142.0270 C   0  0  0  0  0  2  0  0  0  0  0  0
  192.9900  174.8420  142.2920 C   0  0  0  0  0  2  0  0  0  0  0  0
  192.6880  173.7600  140.0470 C   0  0  1  0  0  3  0  0  0  0  0  0
  195.6060  175.2020  145.2230 C   0  0  2  0  0  3  0  0  0  0  0  0
  194.9160  173.7270  143.4650 C   0  0  2  0  0  3  0  0  0  0  0  0
  195.5080  175.8620  143.8640 C   0  0  0  0  0  2  0  0  0  0  0  0
  195.8270  172.7660  145.5470 C   0  0  0  0  0  1  0  0  0  0  0  0
  194.9600  173.8630  144.9740 C   0  0  1  0  0  3  0  0  0  0  0  0
  195.5130  174.8620  142.8850 O   0  0  0  0  0  0  0  0  0  0  0  0
  194.6610  177.3270  145.7320 C   0  0  0  0  0  1  0  0  0  0  0  0
  194.8670  175.9750  146.2330 N   0  0  0  0  0  0  0  0  0  0  0  0
  193.5310  175.4050  146.3550 C   0  0  0  0  0  1  0  0  0  0  0  0
  1  7  1  0  0  0  0
  2  4  2  0  0  0  0
  2  5  1  0  0  0  0
  3  1  1  0  0  0  0
  3 31  1  0  0  0  0
  4  6  1  0  0  0  0
  5  3  2  0  0  0  0
  6  1  2  0  0  0  0
  7  8  1  0  0  0  0
  8  9  1  0  0  0  0
 10 18  2  0  0  0  0
 12 11  2  0  0  0  0
 13 23  1  1  0  0  0
 14  9  1  6  0  0  0
 14 16  1  0  0  0  0
 14 20  1  0  0  0  0
 16 21  1  0  0  0  0
 17 22  1  0  0  0  0
 17 15  1  0  0  0  0
 17 13  1  0  0  0  0
 19 18  1  6  0  0  0
 19 13  1  0  0  0  0
 19 24  1  0  0  0  0
 20 25  1  6  0  0  0
 20 19  1  0  0  0  0
 21 17  1  0  0  0  0
 23 12  1  0  0  0  0
 24 18  1  6  0  0  0
 24 12  1  0  0  0  0
 25 26  1  6  0  0  0
 25 27  1  0  0  0  0
 26 28  1  0  0  0  0
 27 30  1  1  0  0  0
 28 27  1  0  0  0  0
 30 29  1  0  0  0  0
 31 40  1  6  0  0  0
 31 33  1  0  0  0  0
 33 32  1  1  0  0  0
 34 36  2  0  0  0  0
 34 35  1  0  0  0  0
 35 39  2  0  0  0  0
 36 38  1  0  0  0  0
 38 37  2  0  0  0  0
 39 37  1  0  0  0  0
 39 33  1  0  0  0  0
 41 45  1  0  0  0  0
 42 44  1  0  0  0  0
 43 44  1  6  0  0  0
 43 48  1  0  0  0  0
 45 43  1  0  0  0  0
 46 40  1  1  0  0  0
 46 42  1  0  0  0  0
 46 41  1  0  0  0  0
 47 54  1  1  0  0  0
 48 52  1  6  0  0  0
 48 51  1  0  0  0  0
 49 47  1  0  0  0  0
 51 47  1  0  0  0  0
 51 50  1  1  0  0  0
 52 49  1  0  0  0  0
 53 54  1  0  0  0  0
 54 55  1  0  0  0  0
M  END
>  <MODEL>
2

>  <REMARK>
 VINA RESULT:      -7.6      2.604      6.282
  Name = 
  13 active torsions:
  status: ('A' for Active; 'I' for Inactive)
    1  A    between atoms: C_3  and  N_27
    2  A    between atoms: C_4  and  N_17
    3  A    between atoms: C_9  and  C_53
    4  A    between atoms: C_13  and  C_32
    5  A    between atoms: N_17  and  N_45
    6  A    between atoms: C_21  and  C_33
    7  A    between atoms: C_23  and  C_35
    8  A    between atoms: C_32  and  N_45
    9  A    between atoms: C_37  and  C_38
   10  A    between atoms: C_37  and  C_53
   11  A    between atoms: C_41  and  C_55
   12  A    between atoms: C_49  and  C_53
   13  A    between atoms: C_49  and  C_54
                            x       y       z     vdW  Elec       q    Type
                         _______ _______ _______ _____ _____    ______ ____

>  <TORSDO>
F 13

$$$$
=
 OpenBabel11062421363D

 55 62  0  0  1  0  0  0  0  0999 V2000
  192.3400  175.2370  145.7680 C   0  0  0  0  0  0  0  0  0  0  0  0
  194.8610  176.3660  145.5600 N   0  0  0  0  0  0  0  0  0  0  0  0
  193.2020  174.8510  144.7240 C   0  0  0  0  0  0  0  0  0  0  0  0
  194.0330  176.7690  146.5600 C   0  0  0  0  0  3  0  0  0  0  0  0
  194.4790  175.4280  144.6540 C   0  0  0  0  0  3  0  0  0  0  0  0
  192.7610  176.2070  146.6850 C   0  0  0  0  0  3  0  0  0  0  0  0
  191.0740  174.5990  145.9300 N   0  0  0  0  0  2  0  0  0  0  0  0
  189.9820  175.2900  146.4810 N   0  0  0  0  0  2  0  0  0  0  0  0
  189.0520  175.6080  145.4020 C   0  0  0  0  0  2  0  0  0  0  0  0
  186.9450  174.7200  142.6450 C   0  0  0  0  0  2  0  0  0  0  0  0
  184.2340  177.7360  141.3460 O   0  0  0  0  0  0  0  0  0  0  0  0
  185.2950  177.7610  142.0200 C   0  0  0  0  0  0  0  0  0  0  0  0
  187.4060  178.3550  142.6250 C   0  0  2  0  0  3  0  0  0  0  0  0
  188.7640  177.1190  145.3230 C   0  0  1  0  0  3  0  0  0  0  0  0
  189.3580  179.1480  141.5410 F   0  0  0  0  0  0  0  0  0  0  0  0
  189.7110  177.8810  144.3770 C   0  0  0  0  0  2  0  0  0  0  0  0
  188.7590  177.9870  141.9940 C   0  0  0  0  0  0  0  0  0  0  0  0
  186.5600  175.9180  143.0780 C   0  0  0  0  0  0  0  0  0  0  0  0
  186.8560  177.3180  143.6160 C   0  0  1  0  0  0  0  0  0  0  0  0
  187.2710  177.4480  145.0960 C   0  0  1  0  0  3  0  0  0  0  0  0
  189.7160  177.2860  142.9660 C   0  0  0  0  0  2  0  0  0  0  0  0
  188.5590  177.1480  140.9110 F   0  0  0  0  0  0  0  0  0  0  0  0
  186.3950  178.5030  141.6520 O   0  0  0  0  0  0  0  0  0  0  0  0
  185.4910  177.0100  143.2820 C   0  0  1  0  0  3  0  0  0  0  0  0
  186.3220  176.7430  146.0930 C   0  0  1  0  0  3  0  0  0  0  0  0
  186.8720  176.6970  147.5100 C   0  0  0  0  0  2  0  0  0  0  0  0
  185.1410  177.5860  146.5960 C   0  0  1  0  0  3  0  0  0  0  0  0
  185.6720  177.4800  148.0150 C   0  0  0  0  0  2  0  0  0  0  0  0
  183.9380  179.3100  145.3520 O   0  0  0  0  0  1  0  0  0  0  0  0
  185.0770  179.0510  146.1280 C   0  0  0  0  0  2  0  0  0  0  0  0
  192.7760  173.8010  143.7300 C   0  0  1  0  0  3  0  0  0  0  0  0
  193.8310  172.1310  145.1600 O   0  0  0  0  0  1  0  0  0  0  0  0
  192.7500  172.3690  144.3010 C   0  0  2  0  0  3  0  0  0  0  0  0
  191.5020  169.6310  142.0870 C   0  0  0  0  0  3  0  0  0  0  0  0
  191.5560  170.5970  143.0410 N   0  0  0  0  0  0  0  0  0  0  0  0
  192.6110  169.3830  141.2720 C   0  0  0  0  0  3  0  0  0  0  0  0
  193.7740  171.1030  142.4350 N   0  0  0  0  0  0  0  0  0  0  0  0
  193.7560  170.1450  141.4690 C   0  0  0  0  0  3  0  0  0  0  0  0
  192.6810  171.3360  143.2140 C   0  0  0  0  0  0  0  0  0  0  0  0
  191.4730  174.2040  143.0380 C   0  0  0  0  0  2  0  0  0  0  0  0
  193.0230  174.2490  141.0000 C   0  0  0  0  0  2  0  0  0  0  0  0
  190.5020  173.7750  140.7280 C   0  0  0  0  0  2  0  0  0  0  0  0
  192.1280  173.1100  138.8970 C   0  0  2  0  0  3  0  0  0  0  0  0
  191.0460  172.6300  139.8790 C   0  0  0  0  0  2  0  0  0  0  0  0
  193.0100  174.2320  139.4730 C   0  0  0  0  0  2  0  0  0  0  0  0
  191.6030  174.4750  141.5370 C   0  0  1  0  0  3  0  0  0  0  0  0
  190.6170  172.1150  135.8740 C   0  0  2  0  0  3  0  0  0  0  0  0
  191.5170  173.5550  137.5640 C   0  0  2  0  0  3  0  0  0  0  0  0
  192.1150  172.3080  135.7890 C   0  0  0  0  0  2  0  0  0  0  0  0
  189.1040  173.6640  137.0580 C   0  0  0  0  0  1  0  0  0  0  0  0
  190.2900  172.7390  137.2060 C   0  0  1  0  0  3  0  0  0  0  0  0
  192.4580  173.4490  136.5230 O   0  0  0  0  0  0  0  0  0  0  0  0
  191.2610  169.9760  135.0520 C   0  0  0  0  0  1  0  0  0  0  0  0
  190.2710  170.6860  135.8510 N   0  0  0  0  0  0  0  0  0  0  0  0
  190.4230  170.1600  137.2020 C   0  0  0  0  0  1  0  0  0  0  0  0
  1  7  1  0  0  0  0
  1  6  1  0  0  0  0
  2  4  1  0  0  0  0
  3  1  2  0  0  0  0
  4  6  2  0  0  0  0
  5  3  1  0  0  0  0
  5  2  2  0  0  0  0
  7  8  1  0  0  0  0
  9  8  1  0  0  0  0
 10 18  2  0  0  0  0
 11 12  2  0  0  0  0
 13 23  1  6  0  0  0
 13 19  1  0  0  0  0
 14  9  1  6  0  0  0
 15 17  1  0  0  0  0
 16 14  1  0  0  0  0
 17 13  1  0  0  0  0
 17 21  1  0  0  0  0
 18 24  1  0  0  0  0
 19 18  1  6  0  0  0
 19 20  1  0  0  0  0
 20 14  1  0  0  0  0
 20 25  1  1  0  0  0
 21 16  1  0  0  0  0
 22 17  1  0  0  0  0
 23 12  1  0  0  0  0
 24 12  1  6  0  0  0
 24 19  1  0  0  0  0
 25 27  1  0  0  0  0
 25 26  1  1  0  0  0
 26 28  1  0  0  0  0
 27 30  1  6  0  0  0
 27 28  1  0  0  0  0
 29 30  1  0  0  0  0
 31 40  1  1  0  0  0
 31 33  1  0  0  0  0
 31  3  1  0  0  0  0
 33 32  1  6  0  0  0
 34 35  1  0  0  0  0
 35 39  2  0  0  0  0
 36 38  1  0  0  0  0
 36 34  2  0  0  0  0
 37 39  1  0  0  0  0
 38 37  2  0  0  0  0
 39 33  1  0  0  0  0
 41 46  1  0  0  0  0
 42 46  1  0  0  0  0
 43 45  1  1  0  0  0
 43 44  1  0  0  0  0
 44 42  1  0  0  0  0
 45 41  1  0  0  0  0
 46 40  1  1  0  0  0
 47 54  1  1  0  0  0
 47 51  1  0  0  0  0
 48 52  1  6  0  0  0
 48 43  1  0  0  0  0
 49 47  1  0  0  0  0
 49 52  1  0  0  0  0
 51 50  1  6  0  0  0
 51 48  1  0  0  0  0
 53 54  1  0  0  0  0
 54 55  1  0  0  0  0
M  END
>  <MODEL>
3

>  <REMARK>
 VINA RESULT:      -7.6      2.946      8.025
  Name = 
  13 active torsions:
  status: ('A' for Active; 'I' for Inactive)
    1  A    between atoms: C_3  and  N_27
    2  A    between atoms: C_4  and  N_17
    3  A    between atoms: C_9  and  C_53
    4  A    between atoms: C_13  and  C_32
    5  A    between atoms: N_17  and  N_45
    6  A    between atoms: C_21  and  C_33
    7  A    between atoms: C_23  and  C_35
    8  A    between atoms: C_32  and  N_45
    9  A    between atoms: C_37  and  C_38
   10  A    between atoms: C_37  and  C_53
   11  A    between atoms: C_41  and  C_55
   12  A    between atoms: C_49  and  C_53
   13  A    between atoms: C_49  and  C_54
                            x       y       z     vdW  Elec       q    Type
                         _______ _______ _______ _____ _____    ______ ____

>  <TORSDO>
F 13

$$$$
=
 OpenBabel11062421363D

 55 62  0  0  1  0  0  0  0  0999 V2000
  188.9740  174.2140  138.1220 C   0  0  0  0  0  0  0  0  0  0  0  0
  189.6160  174.1950  135.4280 N   0  0  0  0  0  0  0  0  0  0  0  0
  190.1230  173.5330  137.6760 C   0  0  0  0  0  0  0  0  0  0  0  0
  188.4890  174.8360  135.8380 C   0  0  0  0  0  3  0  0  0  0  0  0
  190.4310  173.5560  136.3080 C   0  0  0  0  0  3  0  0  0  0  0  0
  188.1530  174.8620  137.1930 C   0  0  0  0  0  3  0  0  0  0  0  0
  188.6840  174.2980  139.5170 N   0  0  0  0  0  2  0  0  0  0  0  0
  187.8310  175.2960  140.0180 N   0  0  0  0  0  2  0  0  0  0  0  0
  188.3840  175.7750  141.2810 C   0  0  0  0  0  2  0  0  0  0  0  0
  190.8600  177.4970  143.2130 C   0  0  0  0  0  2  0  0  0  0  0  0
  190.0760  177.7820  147.3890 O   0  0  0  0  0  0  0  0  0  0  0  0
  189.6490  177.0260  146.4800 C   0  0  0  0  0  0  0  0  0  0  0  0
  189.1630  175.0880  145.3910 C   0  0  2  0  0  3  0  0  0  0  0  0
  187.6650  175.1490  142.4920 C   0  0  1  0  0  3  0  0  0  0  0  0
  190.0030  172.8730  145.3420 F   0  0  0  0  0  0  0  0  0  0  0  0
  188.2480  173.7910  142.9230 C   0  0  0  0  0  2  0  0  0  0  0  0
  190.0930  174.0870  144.6860 C   0  0  0  0  0  0  0  0  0  0  0  0
  189.8410  177.2160  144.0220 C   0  0  0  0  0  0  0  0  0  0  0  0
  188.7380  176.2880  144.5290 C   0  0  1  0  0  0  0  0  0  0  0  0
  187.4690  176.1370  143.6660 C   0  0  1  0  0  3  0  0  0  0  0  0
  189.7500  173.8730  143.2060 C   0  0  0  0  0  2  0  0  0  0  0  0
  191.4030  174.5290  144.7620 F   0  0  0  0  0  0  0  0  0  0  0  0
  189.7690  175.6550  146.5320 O   0  0  0  0  0  0  0  0  0  0  0  0
  188.9650  177.5080  145.2560 C   0  0  1  0  0  3  0  0  0  0  0  0
  186.8140  177.4740  143.2480 C   0  0  1  0  0  3  0  0  0  0  0  0
  185.7440  177.3080  142.1800 C   0  0  0  0  0  2  0  0  0  0  0  0
  185.7470  178.0210  144.2090 C   0  0  1  0  0  3  0  0  0  0  0  0
  184.7030  177.9040  143.1130 C   0  0  0  0  0  2  0  0  0  0  0  0
  185.7330  177.7590  146.6370 O   0  0  0  0  0  1  0  0  0  0  0  0
  185.3870  177.1480  145.4240 C   0  0  0  0  0  2  0  0  0  0  0  0
  191.0290  172.8360  138.6580 C   0  0  1  0  0  3  0  0  0  0  0  0
  189.4620  170.9740  138.4960 O   0  0  0  0  0  1  0  0  0  0  0  0
  190.7960  171.3150  138.7570 C   0  0  2  0  0  3  0  0  0  0  0  0
  190.9180  170.4820  142.3960 C   0  0  0  0  0  3  0  0  0  0  0  0
  190.4930  170.9400  141.1890 N   0  0  0  0  0  0  0  0  0  0  0  0
  192.1490  169.8270  142.5070 C   0  0  0  0  0  3  0  0  0  0  0  0
  192.4560  170.1360  140.1670 N   0  0  0  0  0  0  0  0  0  0  0  0
  192.9140  169.6630  141.3570 C   0  0  0  0  0  3  0  0  0  0  0  0
  191.2510  170.7650  140.0780 C   0  0  0  0  0  0  0  0  0  0  0  0
  192.4900  173.2140  138.4130 C   0  0  0  0  0  2  0  0  0  0  0  0
  192.2340  174.2830  140.7250 C   0  0  0  0  0  2  0  0  0  0  0  0
  194.5720  173.8470  139.7260 C   0  0  0  0  0  2  0  0  0  0  0  0
  194.2990  174.1970  142.2250 C   0  0  2  0  0  3  0  0  0  0  0  0
  194.8000  173.2570  141.1150 C   0  0  0  0  0  2  0  0  0  0  0  0
  193.0300  174.9730  141.8310 C   0  0  0  0  0  2  0  0  0  0  0  0
  193.0920  174.1550  139.4590 C   0  0  1  0  0  3  0  0  0  0  0  0
  197.1220  174.7230  144.2660 C   0  0  2  0  0  3  0  0  0  0  0  0
  195.3940  175.1730  142.6690 C   0  0  2  0  0  3  0  0  0  0  0  0
  195.8150  175.1760  144.8800 C   0  0  0  0  0  2  0  0  0  0  0  0
  197.7430  175.1330  141.9140 C   0  0  0  0  0  1  0  0  0  0  0  0
  196.7340  174.4820  142.8310 C   0  0  1  0  0  3  0  0  0  0  0  0
  195.0480  175.7920  143.8840 O   0  0  0  0  0  0  0  0  0  0  0  0
  197.0430  173.4130  146.2520 C   0  0  0  0  0  1  0  0  0  0  0  0
  197.6010  173.4890  144.9090 N   0  0  0  0  0  0  0  0  0  0  0  0
  197.0300  172.3550  144.1940 C   0  0  0  0  0  1  0  0  0  0  0  0
  1  7  1  0  0  0  0
  2  4  2  0  0  0  0
  2  5  1  0  0  0  0
  3  1  1  0  0  0  0
  3 31  1  0  0  0  0
  4  6  1  0  0  0  0
  5  3  2  0  0  0  0
  6  1  2  0  0  0  0
  7  8  1  0  0  0  0
  8  9  1  0  0  0  0
 10 18  2  0  0  0  0
 12 23  1  0  0  0  0
 12 11  2  0  0  0  0
 13 23  1  1  0  0  0
 14  9  1  6  0  0  0
 14 16  1  0  0  0  0
 14 20  1  0  0  0  0
 16 21  1  0  0  0  0
 17 22  1  0  0  0  0
 17 15  1  0  0  0  0
 17 13  1  0  0  0  0
 19 18  1  6  0  0  0
 19 24  1  0  0  0  0
 19 13  1  0  0  0  0
 20 25  1  6  0  0  0
 20 19  1  0  0  0  0
 21 17  1  0  0  0  0
 24 18  1  6  0  0  0
 24 12  1  0  0  0  0
 25 26  1  6  0  0  0
 25 27  1  0  0  0  0
 26 28  1  0  0  0  0
 27 30  1  1  0  0  0
 28 27  1  0  0  0  0
 30 29  1  0  0  0  0
 31 40  1  6  0  0  0
 31 33  1  0  0  0  0
 33 32  1  1  0  0  0
 33 39  1  0  0  0  0
 34 36  2  0  0  0  0
 35 34  1  0  0  0  0
 37 38  2  0  0  0  0
 38 36  1  0  0  0  0
 39 37  1  0  0  0  0
 39 35  2  0  0  0  0
 41 45  1  0  0  0  0
 42 44  1  0  0  0  0
 43 44  1  6  0  0  0
 43 48  1  0  0  0  0
 45 43  1  0  0  0  0
 46 40  1  6  0  0  0
 46 42  1  0  0  0  0
 46 41  1  0  0  0  0
 47 49  1  0  0  0  0
 47 54  1  1  0  0  0
 48 51  1  0  0  0  0
 48 52  1  1  0  0  0
 51 50  1  6  0  0  0
 51 47  1  0  0  0  0
 52 49  1  0  0  0  0
 54 53  1  0  0  0  0
 55 54  1  0  0  0  0
M  END
>  <MODEL>
4

>  <REMARK>
 VINA RESULT:      -7.5      2.622      6.714
  Name = 
  13 active torsions:
  status: ('A' for Active; 'I' for Inactive)
    1  A    between atoms: C_3  and  N_27
    2  A    between atoms: C_4  and  N_17
    3  A    between atoms: C_9  and  C_53
    4  A    between atoms: C_13  and  C_32
    5  A    between atoms: N_17  and  N_45
    6  A    between atoms: C_21  and  C_33
    7  A    between atoms: C_23  and  C_35
    8  A    between atoms: C_32  and  N_45
    9  A    between atoms: C_37  and  C_38
   10  A    between atoms: C_37  and  C_53
   11  A    between atoms: C_41  and  C_55
   12  A    between atoms: C_49  and  C_53
   13  A    between atoms: C_49  and  C_54
                            x       y       z     vdW  Elec       q    Type
                         _______ _______ _______ _____ _____    ______ ____

>  <TORSDO>
F 13

$$$$
=
 OpenBabel11062421363D

 55 62  0  0  1  0  0  0  0  0999 V2000
  192.4930  175.7700  145.4460 C   0  0  0  0  0  0  0  0  0  0  0  0
  194.9290  177.0090  145.8910 N   0  0  0  0  0  0  0  0  0  0  0  0
  193.4740  175.7810  144.4360 C   0  0  0  0  0  0  0  0  0  0  0  0
  193.9840  177.0300  146.8690 C   0  0  0  0  0  3  0  0  0  0  0  0
  194.7040  176.4020  144.6970 C   0  0  0  0  0  3  0  0  0  0  0  0
  192.7530  176.4050  146.6660 C   0  0  0  0  0  3  0  0  0  0  0  0
  191.2690  175.0610  145.2530 N   0  0  0  0  0  2  0  0  0  0  0  0
  190.1520  175.3150  146.0660 N   0  0  0  0  0  2  0  0  0  0  0  0
  189.0240  175.6450  145.2010 C   0  0  0  0  0  2  0  0  0  0  0  0
  186.7070  174.8300  142.5940 C   0  0  0  0  0  2  0  0  0  0  0  0
  183.9790  177.9170  141.5150 O   0  0  0  0  0  0  0  0  0  0  0  0
  185.0860  177.9120  142.1120 C   0  0  0  0  0  0  0  0  0  0  0  0
  187.2470  178.4540  142.5710 C   0  0  2  0  0  3  0  0  0  0  0  0
  188.7660  177.1630  145.1540 C   0  0  1  0  0  3  0  0  0  0  0  0
  189.1350  179.2140  141.3560 F   0  0  0  0  0  0  0  0  0  0  0  0
  189.6600  177.9130  144.1490 C   0  0  0  0  0  2  0  0  0  0  0  0
  188.5430  178.0620  141.8410 C   0  0  0  0  0  0  0  0  0  0  0  0
  186.3810  176.0320  143.0630 C   0  0  0  0  0  0  0  0  0  0  0  0
  186.7450  177.4190  143.5900 C   0  0  1  0  0  0  0  0  0  0  0  0
  187.2680  177.5270  145.0370 C   0  0  1  0  0  3  0  0  0  0  0  0
  189.5510  177.3310  142.7370 C   0  0  0  0  0  2  0  0  0  0  0  0
  188.2480  177.2380  140.7680 F   0  0  0  0  0  0  0  0  0  0  0  0
  186.1730  178.6330  141.6730 O   0  0  0  0  0  0  0  0  0  0  0  0
  185.3540  177.1450  143.3520 C   0  0  1  0  0  3  0  0  0  0  0  0
  186.3760  176.8330  146.0930 C   0  0  1  0  0  3  0  0  0  0  0  0
  187.0190  176.7730  147.4710 C   0  0  0  0  0  2  0  0  0  0  0  0
  185.2450  177.6930  146.6770 C   0  0  1  0  0  3  0  0  0  0  0  0
  185.8680  177.5730  148.0560 C   0  0  0  0  0  2  0  0  0  0  0  0
  184.0340  179.4170  145.4410 O   0  0  0  0  0  1  0  0  0  0  0  0
  185.1730  179.1590  146.2180 C   0  0  0  0  0  2  0  0  0  0  0  0
  193.2220  175.0950  143.1180 C   0  0  1  0  0  3  0  0  0  0  0  0
  193.8150  175.6710  140.8240 O   0  0  0  0  0  1  0  0  0  0  0  0
  194.3360  175.3120  142.0740 C   0  0  2  0  0  3  0  0  0  0  0  0
  196.8420  172.6730  142.9200 C   0  0  0  0  0  3  0  0  0  0  0  0
  195.9910  173.7280  143.0250 N   0  0  0  0  0  0  0  0  0  0  0  0
  196.9570  171.9790  141.7120 C   0  0  0  0  0  3  0  0  0  0  0  0
  195.3430  173.4570  140.7780 N   0  0  0  0  0  0  0  0  0  0  0  0
  196.1840  172.3970  140.6360 C   0  0  0  0  0  3  0  0  0  0  0  0
  195.2390  174.1170  141.9650 C   0  0  0  0  0  0  0  0  0  0  0  0
  192.8650  173.6230  143.3300 C   0  0  0  0  0  2  0  0  0  0  0  0
  190.7400  174.2410  142.0430 C   0  0  0  0  0  2  0  0  0  0  0  0
  192.1510  172.1950  141.3520 C   0  0  0  0  0  2  0  0  0  0  0  0
  190.5230  173.2350  139.7070 C   0  0  2  0  0  3  0  0  0  0  0  0
  191.9830  172.8370  139.9770 C   0  0  0  0  0  2  0  0  0  0  0  0
  189.7880  173.7250  140.9670 C   0  0  0  0  0  2  0  0  0  0  0  0
  191.6910  173.1210  142.4870 C   0  0  1  0  0  3  0  0  0  0  0  0
  190.1950  171.1040  136.9200 C   0  0  2  0  0  3  0  0  0  0  0  0
  189.7400  172.0880  139.0560 C   0  0  2  0  0  3  0  0  0  0  0  0
  189.3380  172.3490  136.8580 C   0  0  0  0  0  2  0  0  0  0  0  0
  190.4700  169.7330  138.9530 C   0  0  0  0  0  1  0  0  0  0  0  0
  190.6580  171.1070  138.3540 C   0  0  1  0  0  3  0  0  0  0  0  0
  188.8050  172.5840  138.1300 O   0  0  0  0  0  0  0  0  0  0  0  0
  190.8250  171.5720  134.6730 C   0  0  0  0  0  1  0  0  0  0  0  0
  191.3290  171.2030  135.9890 N   0  0  0  0  0  0  0  0  0  0  0  0
  192.1630  172.3230  136.4060 C   0  0  0  0  0  1  0  0  0  0  0  0
  1  6  1  0  0  0  0
  2  4  1  0  0  0  0
  3  5  1  0  0  0  0
  3  1  2  0  0  0  0
  5  2  2  0  0  0  0
  6  4  2  0  0  0  0
  7  1  1  0  0  0  0
  7  8  1  0  0  0  0
  9  8  1  0  0  0  0
 10 18  2  0  0  0  0
 11 12  2  0  0  0  0
 13 23  1  6  0  0  0
 13 19  1  0  0  0  0
 14  9  1  6  0  0  0
 15 17  1  0  0  0  0
 16 14  1  0  0  0  0
 17 13  1  0  0  0  0
 17 21  1  0  0  0  0
 18 24  1  0  0  0  0
 19 18  1  6  0  0  0
 19 20  1  0  0  0  0
 20 14  1  0  0  0  0
 20 25  1  1  0  0  0
 21 16  1  0  0  0  0
 22 17  1  0  0  0  0
 23 12  1  0  0  0  0
 24 12  1  6  0  0  0
 24 19  1  0  0  0  0
 25 27  1  0  0  0  0
 25 26  1  1  0  0  0
 26 28  1  0  0  0  0
 27 30  1  6  0  0  0
 27 28  1  0  0  0  0
 29 30  1  0  0  0  0
 31 40  1  1  0  0  0
 31  3  1  0  0  0  0
 33 32  1  6  0  0  0
 33 31  1  0  0  0  0
 34 35  1  0  0  0  0
 36 34  2  0  0  0  0
 37 39  1  0  0  0  0
 38 37  2  0  0  0  0
 38 36  1  0  0  0  0
 39 33  1  0  0  0  0
 39 35  2  0  0  0  0
 41 46  1  0  0  0  0
 42 46  1  0  0  0  0
 43 44  1  1  0  0  0
 43 45  1  0  0  0  0
 44 42  1  0  0  0  0
 45 41  1  0  0  0  0
 46 40  1  6  0  0  0
 47 54  1  6  0  0  0
 47 51  1  0  0  0  0
 48 52  1  6  0  0  0
 48 43  1  0  0  0  0
 49 47  1  0  0  0  0
 49 52  1  0  0  0  0
 51 50  1  1  0  0  0
 51 48  1  0  0  0  0
 53 54  1  0  0  0  0
 54 55  1  0  0  0  0
M  END
>  <MODEL>
5

>  <REMARK>
 VINA RESULT:      -7.2      3.136      7.904
  Name = 
  13 active torsions:
  status: ('A' for Active; 'I' for Inactive)
    1  A    between atoms: C_3  and  N_27
    2  A    between atoms: C_4  and  N_17
    3  A    between atoms: C_9  and  C_53
    4  A    between atoms: C_13  and  C_32
    5  A    between atoms: N_17  and  N_45
    6  A    between atoms: C_21  and  C_33
    7  A    between atoms: C_23  and  C_35
    8  A    between atoms: C_32  and  N_45
    9  A    between atoms: C_37  and  C_38
   10  A    between atoms: C_37  and  C_53
   11  A    between atoms: C_41  and  C_55
   12  A    between atoms: C_49  and  C_53
   13  A    between atoms: C_49  and  C_54
                            x       y       z     vdW  Elec       q    Type
                         _______ _______ _______ _____ _____    ______ ____

>  <TORSDO>
F 13

$$$$
=
 OpenBabel11062421363D

 55 62  0  0  1  0  0  0  0  0999 V2000
  195.0250  175.0340  142.6160 C   0  0  0  0  0  0  0  0  0  0  0  0
  196.7040  177.1520  143.2200 N   0  0  0  0  0  0  0  0  0  0  0  0
  195.2210  175.4180  143.9560 C   0  0  0  0  0  0  0  0  0  0  0  0
  196.5460  176.7780  141.9220 C   0  0  0  0  0  3  0  0  0  0  0  0
  196.0640  176.5050  144.2300 C   0  0  0  0  0  3  0  0  0  0  0  0
  195.6980  175.7180  141.5970 C   0  0  0  0  0  3  0  0  0  0  0  0
  194.0960  173.9980  142.2920 N   0  0  0  0  0  2  0  0  0  0  0  0
  194.4830  172.9040  141.5010 N   0  0  0  0  0  2  0  0  0  0  0  0
  193.3210  172.4610  140.7370 C   0  0  0  0  0  2  0  0  0  0  0  0
  192.2090  169.9980  138.3870 C   0  0  0  0  0  2  0  0  0  0  0  0
  189.0150  171.1900  135.8330 O   0  0  0  0  0  0  0  0  0  0  0  0
  189.8540  171.8260  136.5220 C   0  0  0  0  0  0  0  0  0  0  0  0
  191.5020  173.3180  137.0060 C   0  0  2  0  0  3  0  0  0  0  0  0
  192.5970  173.6420  140.0620 C   0  0  1  0  0  3  0  0  0  0  0  0
  193.2860  174.3610  135.8460 F   0  0  0  0  0  0  0  0  0  0  0  0
  193.4300  174.3350  138.9690 C   0  0  0  0  0  2  0  0  0  0  0  0
  193.0010  173.2840  136.6650 C   0  0  0  0  0  0  0  0  0  0  0  0
  191.3880  171.0420  138.2960 C   0  0  0  0  0  0  0  0  0  0  0  0
  191.1130  172.5450  138.2760 C   0  0  1  0  0  0  0  0  0  0  0  0
  191.1550  173.3040  139.6180 C   0  0  1  0  0  3  0  0  0  0  0  0
  193.9090  173.3500  137.8990 C   0  0  0  0  0  2  0  0  0  0  0  0
  193.3000  172.1210  135.9760 F   0  0  0  0  0  0  0  0  0  0  0  0
  190.7170  172.7510  135.9790 O   0  0  0  0  0  0  0  0  0  0  0  0
  190.0120  171.6660  137.9870 C   0  0  1  0  0  3  0  0  0  0  0  0
  190.2920  172.6760  140.7370 C   0  0  1  0  0  3  0  0  0  0  0  0
  190.6930  173.1370  142.1300 C   0  0  0  0  0  2  0  0  0  0  0  0
  188.9080  173.3090  140.9440 C   0  0  1  0  0  3  0  0  0  0  0  0
  189.3040  173.7100  142.3540 C   0  0  0  0  0  2  0  0  0  0  0  0
  187.9350  174.1890  138.8840 O   0  0  0  0  0  1  0  0  0  0  0  0
  188.5670  174.5400  140.0850 C   0  0  0  0  0  2  0  0  0  0  0  0
  194.5000  174.7040  145.0700 C   0  0  1  0  0  3  0  0  0  0  0  0
  196.7090  173.7760  145.5230 O   0  0  0  0  0  1  0  0  0  0  0  0
  195.3380  173.6110  145.7630 C   0  0  2  0  0  3  0  0  0  0  0  0
  195.3480  169.9420  145.0600 C   0  0  0  0  0  3  0  0  0  0  0  0
  195.7430  171.1860  145.4410 N   0  0  0  0  0  0  0  0  0  0  0  0
  194.0460  169.7280  144.5990 C   0  0  0  0  0  3  0  0  0  0  0  0
  193.6110  172.0440  144.9310 N   0  0  0  0  0  0  0  0  0  0  0  0
  193.1800  170.8140  144.5420 C   0  0  0  0  0  3  0  0  0  0  0  0
  194.8810  172.2320  145.3840 C   0  0  0  0  0  0  0  0  0  0  0  0
  193.8790  175.7050  146.0450 C   0  0  0  0  0  2  0  0  0  0  0  0
  191.8240  176.4140  147.3990 C   0  0  0  0  0  2  0  0  0  0  0  0
  191.5810  175.6020  144.9620 C   0  0  0  0  0  2  0  0  0  0  0  0
  189.7350  176.9690  146.0400 C   0  0  2  0  0  3  0  0  0  0  0  0
  190.7300  176.8650  144.8720 C   0  0  0  0  0  2  0  0  0  0  0  0
  190.2970  176.4180  147.3620 C   0  0  0  0  0  2  0  0  0  0  0  0
  192.3760  175.5270  146.2740 C   0  0  1  0  0  3  0  0  0  0  0  0
  186.2390  177.3000  145.7440 C   0  0  2  0  0  3  0  0  0  0  0  0
  188.4060  176.2790  145.7080 C   0  0  2  0  0  3  0  0  0  0  0  0
  186.7060  176.7910  147.0910 C   0  0  0  0  0  2  0  0  0  0  0  0
  187.1580  176.5160  143.5930 C   0  0  0  0  0  1  0  0  0  0  0  0
  187.4870  177.1820  144.9090 C   0  0  1  0  0  3  0  0  0  0  0  0
  187.7450  175.8770  146.8830 O   0  0  0  0  0  0  0  0  0  0  0  0
  184.4240  178.7850  145.3350 C   0  0  0  0  0  1  0  0  0  0  0  0
  185.7880  178.6970  145.8410 N   0  0  0  0  0  0  0  0  0  0  0  0
  185.6940  179.0470  147.2530 C   0  0  0  0  0  1  0  0  0  0  0  0
  1  3  1  0  0  0  0
  2  5  1  0  0  0  0
  3  5  2  0  0  0  0
  3 31  1  0  0  0  0
  4  2  2  0  0  0  0
  6  4  1  0  0  0  0
  6  1  2  0  0  0  0
  7  1  1  0  0  0  0
  8  7  1  0  0  0  0
  9  8  1  0  0  0  0
 11 12  2  0  0  0  0
 13 23  1  6  0  0  0
 13 19  1  0  0  0  0
 14  9  1  6  0  0  0
 15 17  1  0  0  0  0
 16 14  1  0  0  0  0
 17 13  1  0  0  0  0
 17 21  1  0  0  0  0
 18 10  2  0  0  0  0
 19 18  1  1  0  0  0
 19 20  1  0  0  0  0
 20 14  1  0  0  0  0
 20 25  1  1  0  0  0
 21 16  1  0  0  0  0
 22 17  1  0  0  0  0
 23 12  1  0  0  0  0
 24 12  1  6  0  0  0
 24 19  1  0  0  0  0
 24 18  1  0  0  0  0
 25 27  1  0  0  0  0
 25 26  1  1  0  0  0
 26 28  1  0  0  0  0
 27 30  1  6  0  0  0
 27 28  1  0  0  0  0
 29 30  1  0  0  0  0
 31 33  1  0  0  0  0
 31 40  1  1  0  0  0
 33 32  1  6  0  0  0
 34 35  1  0  0  0  0
 36 34  2  0  0  0  0
 37 39  1  0  0  0  0
 38 36  1  0  0  0  0
 38 37  2  0  0  0  0
 39 35  2  0  0  0  0
 39 33  1  0  0  0  0
 42 46  1  0  0  0  0
 43 44  1  6  0  0  0
 43 45  1  0  0  0  0
 44 42  1  0  0  0  0
 45 41  1  0  0  0  0
 46 40  1  6  0  0  0
 46 41  1  0  0  0  0
 47 54  1  1  0  0  0
 47 49  1  0  0  0  0
 48 43  1  0  0  0  0
 48 52  1  1  0  0  0
 51 50  1  6  0  0  0
 51 48  1  0  0  0  0
 51 47  1  0  0  0  0
 52 49  1  0  0  0  0
 53 54  1  0  0  0  0
 54 55  1  0  0  0  0
M  END
>  <MODEL>
6

>  <REMARK>
 VINA RESULT:      -7.2      2.890      7.216
  Name = 
  13 active torsions:
  status: ('A' for Active; 'I' for Inactive)
    1  A    between atoms: C_3  and  N_27
    2  A    between atoms: C_4  and  N_17
    3  A    between atoms: C_9  and  C_53
    4  A    between atoms: C_13  and  C_32
    5  A    between atoms: N_17  and  N_45
    6  A    between atoms: C_21  and  C_33
    7  A    between atoms: C_23  and  C_35
    8  A    between atoms: C_32  and  N_45
    9  A    between atoms: C_37  and  C_38
   10  A    between atoms: C_37  and  C_53
   11  A    between atoms: C_41  and  C_55
   12  A    between atoms: C_49  and  C_53
   13  A    between atoms: C_49  and  C_54
                            x       y       z     vdW  Elec       q    Type
                         _______ _______ _______ _____ _____    ______ ____

>  <TORSDO>
F 13

$$$$
=
 OpenBabel11062421363D

 55 62  0  0  1  0  0  0  0  0999 V2000
  193.7450  176.1290  143.9400 C   0  0  0  0  0  0  0  0  0  0  0  0
  194.9150  175.5730  146.3880 N   0  0  0  0  0  0  0  0  0  0  0  0
  194.8440  175.2520  144.0140 C   0  0  0  0  0  0  0  0  0  0  0  0
  193.8710  176.4420  146.3320 C   0  0  0  0  0  3  0  0  0  0  0  0
  195.4050  174.9770  145.2700 C   0  0  0  0  0  3  0  0  0  0  0  0
  193.2630  176.7290  145.1080 C   0  0  0  0  0  3  0  0  0  0  0  0
  193.0860  176.3540  142.6940 N   0  0  0  0  0  2  0  0  0  0  0  0
  191.8630  175.7270  142.4010 N   0  0  0  0  0  2  0  0  0  0  0  0
  190.7950  176.4960  143.0320 C   0  0  0  0  0  2  0  0  0  0  0  0
  190.3830  178.3620  146.0610 C   0  0  0  0  0  2  0  0  0  0  0  0
  186.5330  178.1250  147.8680 O   0  0  0  0  0  0  0  0  0  0  0  0
  187.1420  177.4070  147.0350 C   0  0  0  0  0  0  0  0  0  0  0  0
  188.0540  175.5340  146.1190 C   0  0  2  0  0  3  0  0  0  0  0  0
  189.5130  175.6590  143.2030 C   0  0  1  0  0  3  0  0  0  0  0  0
  188.9360  173.4790  146.9020 F   0  0  0  0  0  0  0  0  0  0  0  0
  189.7220  174.3640  144.0080 C   0  0  0  0  0  2  0  0  0  0  0  0
  189.3160  174.7510  146.5150 C   0  0  0  0  0  0  0  0  0  0  0  0
  189.1950  177.8600  145.7320 C   0  0  0  0  0  0  0  0  0  0  0  0
  188.3060  176.7370  145.1970 C   0  0  1  0  0  0  0  0  0  0  0  0
  188.2970  176.4890  143.6750 C   0  0  1  0  0  3  0  0  0  0  0  0
  190.3430  174.6340  145.3810 C   0  0  0  0  0  2  0  0  0  0  0  0
  189.9340  175.3670  147.5900 F   0  0  0  0  0  0  0  0  0  0  0  0
  187.3930  176.0690  147.2450 O   0  0  0  0  0  0  0  0  0  0  0  0
  187.6540  177.9010  145.7350 C   0  0  1  0  0  3  0  0  0  0  0  0
  188.0390  177.7520  142.8210 C   0  0  1  0  0  3  0  0  0  0  0  0
  188.1960  177.5060  141.3280 C   0  0  0  0  0  2  0  0  0  0  0  0
  186.5620  178.1090  142.5900 C   0  0  1  0  0  3  0  0  0  0  0  0
  186.7510  177.9160  141.0960 C   0  0  0  0  0  2  0  0  0  0  0  0
  184.5760  177.7830  143.9740 O   0  0  0  0  0  1  0  0  0  0  0  0
  185.5120  177.1360  143.1540 C   0  0  0  0  0  2  0  0  0  0  0  0
  195.3750  174.5840  142.7710 C   0  0  1  0  0  3  0  0  0  0  0  0
  196.7290  176.5950  142.5060 O   0  0  0  0  0  1  0  0  0  0  0  0
  196.6610  175.2260  142.2140 C   0  0  2  0  0  3  0  0  0  0  0  0
  196.0700  175.2780  138.5260 C   0  0  0  0  0  3  0  0  0  0  0  0
  195.9590  175.5350  139.8560 N   0  0  0  0  0  0  0  0  0  0  0  0
  197.0730  174.4250  138.0550 C   0  0  0  0  0  3  0  0  0  0  0  0
  197.7980  174.1350  140.3030 N   0  0  0  0  0  0  0  0  0  0  0  0
  197.9400  173.8550  138.9800 C   0  0  0  0  0  3  0  0  0  0  0  0
  196.8190  174.9740  140.7430 C   0  0  0  0  0  0  0  0  0  0  0  0
  195.4860  173.0720  142.9710 C   0  0  0  0  0  2  0  0  0  0  0  0
  192.9990  172.4640  142.9880 C   0  0  0  0  0  2  0  0  0  0  0  0
  194.3550  172.4100  140.7930 C   0  0  0  0  0  2  0  0  0  0  0  0
  191.8210  172.5380  140.7240 C   0  0  2  0  0  3  0  0  0  0  0  0
  193.1440  173.1970  140.3000 C   0  0  0  0  0  2  0  0  0  0  0  0
  191.8940  171.8780  142.1120 C   0  0  0  0  0  2  0  0  0  0  0  0
  194.3660  172.2570  142.3210 C   0  0  1  0  0  3  0  0  0  0  0  0
  190.0880  172.0080  137.7020 C   0  0  2  0  0  3  0  0  0  0  0  0
  191.3440  171.5190  139.6830 C   0  0  2  0  0  3  0  0  0  0  0  0
  189.2420  171.8380  138.9450 C   0  0  0  0  0  2  0  0  0  0  0  0
  192.3820  171.1270  137.4790 C   0  0  0  0  0  1  0  0  0  0  0  0
  191.4830  172.0490  138.2700 C   0  0  1  0  0  3  0  0  0  0  0  0
  190.0010  171.1650  139.9100 O   0  0  0  0  0  0  0  0  0  0  0  0
  188.6870  173.9330  137.7420 C   0  0  0  0  0  1  0  0  0  0  0  0
  189.7530  173.2620  137.0090 N   0  0  0  0  0  0  0  0  0  0  0  0
  190.9010  174.1530  137.1020 C   0  0  0  0  0  1  0  0  0  0  0  0
  1  3  2  0  0  0  0
  1  6  1  0  0  0  0
  3  5  1  0  0  0  0
  4  2  1  0  0  0  0
  5  2  2  0  0  0  0
  6  4  2  0  0  0  0
  7  1  1  0  0  0  0
  8  7  1  0  0  0  0
  8  9  1  0  0  0  0
 12 23  1  0  0  0  0
 12 11  2  0  0  0  0
 13 17  1  0  0  0  0
 13 23  1  1  0  0  0
 14  9  1  1  0  0  0
 14 20  1  0  0  0  0
 14 16  1  0  0  0  0
 16 21  1  0  0  0  0
 17 15  1  0  0  0  0
 17 22  1  0  0  0  0
 18 10  2  0  0  0  0
 19 18  1  1  0  0  0
 19 24  1  0  0  0  0
 19 13  1  0  0  0  0
 20 25  1  6  0  0  0
 20 19  1  0  0  0  0
 21 17  1  0  0  0  0
 24 18  1  1  0  0  0
 24 12  1  0  0  0  0
 25 26  1  6  0  0  0
 27 25  1  0  0  0  0
 27 30  1  1  0  0  0
 28 26  1  0  0  0  0
 28 27  1  0  0  0  0
 30 29  1  0  0  0  0
 31 40  1  1  0  0  0
 31  3  1  0  0  0  0
 33 32  1  6  0  0  0
 33 31  1  0  0  0  0
 34 35  1  0  0  0  0
 35 39  2  0  0  0  0
 36 34  2  0  0  0  0
 36 38  1  0  0  0  0
 37 39  1  0  0  0  0
 38 37  2  0  0  0  0
 39 33  1  0  0  0  0
 42 46  1  0  0  0  0
 43 44  1  6  0  0  0
 43 45  1  0  0  0  0
 44 42  1  0  0  0  0
 45 41  1  0  0  0  0
 46 40  1  1  0  0  0
 46 41  1  0  0  0  0
 47 54  1  1  0  0  0
 47 51  1  0  0  0  0
 47 49  1  0  0  0  0
 48 52  1  1  0  0  0
 48 43  1  0  0  0  0
 49 52  1  0  0  0  0
 51 50  1  6  0  0  0
 51 48  1  0  0  0  0
 54 55  1  0  0  0  0
 54 53  1  0  0  0  0
M  END
>  <MODEL>
7

>  <REMARK>
 VINA RESULT:      -7.1      2.868      7.333
  Name = 
  13 active torsions:
  status: ('A' for Active; 'I' for Inactive)
    1  A    between atoms: C_3  and  N_27
    2  A    between atoms: C_4  and  N_17
    3  A    between atoms: C_9  and  C_53
    4  A    between atoms: C_13  and  C_32
    5  A    between atoms: N_17  and  N_45
    6  A    between atoms: C_21  and  C_33
    7  A    between atoms: C_23  and  C_35
    8  A    between atoms: C_32  and  N_45
    9  A    between atoms: C_37  and  C_38
   10  A    between atoms: C_37  and  C_53
   11  A    between atoms: C_41  and  C_55
   12  A    between atoms: C_49  and  C_53
   13  A    between atoms: C_49  and  C_54
                            x       y       z     vdW  Elec       q    Type
                         _______ _______ _______ _____ _____    ______ ____

>  <TORSDO>
F 13

$$$$
=
 OpenBabel11062421363D

 55 62  0  0  1  0  0  0  0  0999 V2000
  193.9820  170.7070  143.7970 C   0  0  0  0  0  0  0  0  0  0  0  0
  195.4870  168.4850  144.4870 N   0  0  0  0  0  0  0  0  0  0  0  0
  195.3010  170.5710  143.3200 C   0  0  0  0  0  0  0  0  0  0  0  0
  194.2250  168.6120  144.9770 C   0  0  0  0  0  3  0  0  0  0  0  0
  196.0320  169.4270  143.6730 C   0  0  0  0  0  3  0  0  0  0  0  0
  193.4490  169.7210  144.6340 C   0  0  0  0  0  3  0  0  0  0  0  0
  193.1750  171.8060  143.3780 N   0  0  0  0  0  2  0  0  0  0  0  0
  191.8000  171.8420  143.6640 N   0  0  0  0  0  2  0  0  0  0  0  0
  191.5620  172.9190  144.6200 C   0  0  0  0  0  2  0  0  0  0  0  0
  189.2120  174.1680  147.0170 C   0  0  0  0  0  2  0  0  0  0  0  0
  189.2960  178.3770  147.6670 O   0  0  0  0  0  0  0  0  0  0  0  0
  189.7040  177.6390  146.7340 C   0  0  0  0  0  0  0  0  0  0  0  0
  189.9480  176.8390  144.6180 C   0  0  2  0  0  3  0  0  0  0  0  0
  191.9070  174.2970  144.0240 C   0  0  1  0  0  3  0  0  0  0  0  0
  188.6760  176.8180  142.6190 F   0  0  0  0  0  0  0  0  0  0  0  0
  190.9820  174.7220  142.8690 C   0  0  0  0  0  2  0  0  0  0  0  0
  188.9640  176.0540  143.7350 C   0  0  0  0  0  0  0  0  0  0  0  0
  189.9890  175.1830  146.6470 C   0  0  0  0  0  0  0  0  0  0  0  0
  190.7640  175.9770  145.5950 C   0  0  1  0  0  0  0  0  0  0  0  0
  192.1020  175.3960  145.0940 C   0  0  1  0  0  3  0  0  0  0  0  0
  189.5060  174.6950  143.2750 C   0  0  0  0  0  2  0  0  0  0  0  0
  187.7850  175.8330  144.4280 F   0  0  0  0  0  0  0  0  0  0  0  0
  189.2870  177.7850  145.4300 O   0  0  0  0  0  0  0  0  0  0  0  0
  190.6780  176.5360  146.9170 C   0  0  1  0  0  3  0  0  0  0  0  0
  193.0890  175.0010  146.2170 C   0  0  1  0  0  3  0  0  0  0  0  0
  194.1440  174.0040  145.7610 C   0  0  0  0  0  2  0  0  0  0  0  0
  194.2020  176.0190  146.5130 C   0  0  1  0  0  3  0  0  0  0  0  0
  195.2450  174.9920  146.1100 C   0  0  0  0  0  2  0  0  0  0  0  0
  195.1030  178.2580  146.1430 O   0  0  0  0  0  1  0  0  0  0  0  0
  194.2650  177.2660  145.6140 C   0  0  0  0  0  2  0  0  0  0  0  0
  195.8950  171.6140  142.4090 C   0  0  1  0  0  3  0  0  0  0  0  0
  197.0550  172.2440  144.4590 O   0  0  0  0  0  1  0  0  0  0  0  0
  196.9200  172.5380  143.0960 C   0  0  2  0  0  3  0  0  0  0  0  0
  197.1890  176.2640  143.0670 C   0  0  0  0  0  3  0  0  0  0  0  0
  197.4930  174.9480  143.2200 N   0  0  0  0  0  0  0  0  0  0  0  0
  195.9420  176.6450  142.5630 C   0  0  0  0  0  3  0  0  0  0  0  0
  195.3730  174.3410  142.3950 N   0  0  0  0  0  0  0  0  0  0  0  0
  195.0340  175.6480  142.2280 C   0  0  0  0  0  3  0  0  0  0  0  0
  196.5950  173.9880  142.8810 C   0  0  0  0  0  0  0  0  0  0  0  0
  196.4180  170.9760  141.1210 C   0  0  0  0  0  2  0  0  0  0  0  0
  194.4110  169.7800  140.0720 C   0  0  0  0  0  2  0  0  0  0  0  0
  194.7640  172.3130  139.7280 C   0  0  0  0  0  2  0  0  0  0  0  0
  192.4770  171.2820  139.3470 C   0  0  2  0  0  3  0  0  0  0  0  0
  193.2890  172.3350  140.1190 C   0  0  0  0  0  2  0  0  0  0  0  0
  193.2650  169.9870  139.0840 C   0  0  0  0  0  2  0  0  0  0  0  0
  195.4110  170.9410  139.9690 C   0  0  1  0  0  3  0  0  0  0  0  0
  189.9300  173.1210  137.7520 C   0  0  2  0  0  3  0  0  0  0  0  0
  191.9390  171.8450  138.0270 C   0  0  2  0  0  3  0  0  0  0  0  0
  189.7180  171.6230  137.7410 C   0  0  0  0  0  2  0  0  0  0  0  0
  192.1030  174.1980  137.3000 C   0  0  0  0  0  1  0  0  0  0  0  0
  191.3630  173.2370  138.2010 C   0  0  1  0  0  3  0  0  0  0  0  0
  190.9480  171.0030  137.4910 O   0  0  0  0  0  0  0  0  0  0  0  0
  188.0270  174.5370  137.9530 C   0  0  0  0  0  1  0  0  0  0  0  0
  189.0150  173.7720  138.7020 N   0  0  0  0  0  0  0  0  0  0  0  0
  188.2550  172.7330  139.3850 C   0  0  0  0  0  1  0  0  0  0  0  0
  1  6  1  0  0  0  0
  2  4  1  0  0  0  0
  3  5  1  0  0  0  0
  3  1  2  0  0  0  0
  5  2  2  0  0  0  0
  6  4  2  0  0  0  0
  7  8  1  0  0  0  0
  7  1  1  0  0  0  0
  8  9  1  0  0  0  0
 12 24  1  0  0  0  0
 12 11  2  0  0  0  0
 13 23  1  1  0  0  0
 13 19  1  0  0  0  0
 14  9  1  1  0  0  0
 14 20  1  0  0  0  0
 15 17  1  0  0  0  0
 16 21  1  0  0  0  0
 16 14  1  0  0  0  0
 17 22  1  0  0  0  0
 17 13  1  0  0  0  0
 18 10  2  0  0  0  0
 19 18  1  1  0  0  0
 19 24  1  0  0  0  0
 20 19  1  0  0  0  0
 20 25  1  1  0  0  0
 21 17  1  0  0  0  0
 23 12  1  0  0  0  0
 24 18  1  1  0  0  0
 25 26  1  6  0  0  0
 25 27  1  0  0  0  0
 26 28  1  0  0  0  0
 27 30  1  6  0  0  0
 28 27  1  0  0  0  0
 30 29  1  0  0  0  0
 31 40  1  6  0  0  0
 31 33  1  0  0  0  0
 31  3  1  0  0  0  0
 33 32  1  1  0  0  0
 34 35  1  0  0  0  0
 36 34  2  0  0  0  0
 37 39  1  0  0  0  0
 38 37  2  0  0  0  0
 38 36  1  0  0  0  0
 39 33  1  0  0  0  0
 39 35  2  0  0  0  0
 42 46  1  0  0  0  0
 42 44  1  0  0  0  0
 43 45  1  6  0  0  0
 43 44  1  0  0  0  0
 45 41  1  0  0  0  0
 46 41  1  0  0  0  0
 46 40  1  1  0  0  0
 47 51  1  0  0  0  0
 47 54  1  1  0  0  0
 48 52  1  1  0  0  0
 48 51  1  0  0  0  0
 48 43  1  0  0  0  0
 49 47  1  0  0  0  0
 51 50  1  6  0  0  0
 52 49  1  0  0  0  0
 53 54  1  0  0  0  0
 54 55  1  0  0  0  0
M  END
>  <MODEL>
8

>  <REMARK>
 VINA RESULT:      -6.9      3.174      6.740
  Name = 
  13 active torsions:
  status: ('A' for Active; 'I' for Inactive)
    1  A    between atoms: C_3  and  N_27
    2  A    between atoms: C_4  and  N_17
    3  A    between atoms: C_9  and  C_53
    4  A    between atoms: C_13  and  C_32
    5  A    between atoms: N_17  and  N_45
    6  A    between atoms: C_21  and  C_33
    7  A    between atoms: C_23  and  C_35
    8  A    between atoms: C_32  and  N_45
    9  A    between atoms: C_37  and  C_38
   10  A    between atoms: C_37  and  C_53
   11  A    between atoms: C_41  and  C_55
   12  A    between atoms: C_49  and  C_53
   13  A    between atoms: C_49  and  C_54
                            x       y       z     vdW  Elec       q    Type
                         _______ _______ _______ _____ _____    ______ ____

>  <TORSDO>
F 13

$$$$
=
 OpenBabel11062421363D

 55 62  0  0  1  0  0  0  0  0999 V2000
  191.0690  176.2090  145.3850 C   0  0  0  0  0  0  0  0  0  0  0  0
  189.5480  174.9280  147.3120 N   0  0  0  0  0  0  0  0  0  0  0  0
  189.7510  175.8090  145.0920 C   0  0  0  0  0  0  0  0  0  0  0  0
  190.8270  175.2850  147.6050 C   0  0  0  0  0  3  0  0  0  0  0  0
  189.0000  175.1770  146.0940 C   0  0  0  0  0  3  0  0  0  0  0  0
  191.6070  175.9380  146.6480 C   0  0  0  0  0  3  0  0  0  0  0  0
  191.8280  176.9430  144.4250 N   0  0  0  0  0  2  0  0  0  0  0  0
  193.2270  176.8240  144.3670 N   0  0  0  0  0  2  0  0  0  0  0  0
  193.5490  175.5890  143.6580 C   0  0  0  0  0  2  0  0  0  0  0  0
  193.0450  172.0880  144.2190 C   0  0  0  0  0  2  0  0  0  0  0  0
  196.2160  169.5390  142.9570 O   0  0  0  0  0  0  0  0  0  0  0  0
  196.1470  170.7670  143.2200 C   0  0  0  0  0  0  0  0  0  0  0  0
  196.6490  172.7520  144.2130 C   0  0  2  0  0  3  0  0  0  0  0  0
  195.0590  175.4730  143.3710 C   0  0  1  0  0  3  0  0  0  0  0  0
  197.5750  173.4700  146.2720 F   0  0  0  0  0  0  0  0  0  0  0  0
  195.9380  175.5670  144.6310 C   0  0  0  0  0  2  0  0  0  0  0  0
  196.3650  173.2450  145.6410 C   0  0  0  0  0  0  0  0  0  0  0  0
  194.1750  172.2270  143.5300 C   0  0  0  0  0  0  0  0  0  0  0  0
  195.4890  172.9460  143.2240 C   0  0  1  0  0  0  0  0  0  0  0  0
  195.4190  174.2810  142.4550 C   0  0  1  0  0  3  0  0  0  0  0  0
  195.5380  174.5350  145.6890 C   0  0  0  0  0  2  0  0  0  0  0  0
  195.6800  172.2710  146.3480 F   0  0  0  0  0  0  0  0  0  0  0  0
  196.9290  171.3690  144.1810 O   0  0  0  0  0  0  0  0  0  0  0  0
  195.2330  171.7100  142.5340 C   0  0  1  0  0  3  0  0  0  0  0  0
  194.5880  174.2270  141.1510 C   0  0  1  0  0  3  0  0  0  0  0  0
  194.2420  175.6040  140.6060 C   0  0  0  0  0  2  0  0  0  0  0  0
  195.3820  173.9360  139.8690 C   0  0  1  0  0  3  0  0  0  0  0  0
  194.9790  175.2910  139.3140 C   0  0  0  0  0  2  0  0  0  0  0  0
  197.3620  172.5090  139.7780 O   0  0  0  0  0  1  0  0  0  0  0  0
  196.9100  173.8170  140.0040 C   0  0  0  0  0  2  0  0  0  0  0  0
  189.1460  176.0980  143.7430 C   0  0  1  0  0  3  0  0  0  0  0  0
  188.2650  178.1040  144.8140 O   0  0  0  0  0  1  0  0  0  0  0  0
  188.6290  177.5420  143.5830 C   0  0  2  0  0  3  0  0  0  0  0  0
  186.7390  177.5740  140.3610 C   0  0  0  0  0  3  0  0  0  0  0  0
  187.7450  177.4580  141.2680 N   0  0  0  0  0  0  0  0  0  0  0  0
  185.4410  177.8740  140.7850 C   0  0  0  0  0  3  0  0  0  0  0  0
  186.2470  177.9250  143.0230 N   0  0  0  0  0  0  0  0  0  0  0  0
  185.2150  178.0490  142.1450 C   0  0  0  0  0  3  0  0  0  0  0  0
  187.5040  177.6260  142.5920 C   0  0  0  0  0  0  0  0  0  0  0  0
  190.0870  175.6610  142.6200 C   0  0  0  0  0  2  0  0  0  0  0  0
  188.6290  174.0210  141.3000 C   0  0  0  0  0  2  0  0  0  0  0  0
  191.1710  173.6400  141.5220 C   0  0  0  0  0  2  0  0  0  0  0  0
  189.8690  172.4950  139.6700 C   0  0  2  0  0  3  0  0  0  0  0  0
  191.0370  173.4330  140.0160 C   0  0  0  0  0  2  0  0  0  0  0  0
  188.6650  172.6560  140.6150 C   0  0  0  0  0  2  0  0  0  0  0  0
  189.8930  174.2180  142.1480 C   0  0  1  0  0  3  0  0  0  0  0  0
  191.9670  170.0900  138.1770 C   0  0  2  0  0  3  0  0  0  0  0  0
  190.3170  171.0290  139.6390 C   0  0  2  0  0  3  0  0  0  0  0  0
  190.5800  170.1670  137.5760 C   0  0  0  0  0  2  0  0  0  0  0  0
  192.4120  170.1510  140.6030 C   0  0  0  0  0  1  0  0  0  0  0  0
  191.8140  170.9030  139.4360 C   0  0  1  0  0  3  0  0  0  0  0  0
  189.6550  170.3270  138.6160 O   0  0  0  0  0  0  0  0  0  0  0  0
  193.3660  169.6810  136.2940 C   0  0  0  0  0  1  0  0  0  0  0  0
  192.9620  170.6840  137.2710 N   0  0  0  0  0  0  0  0  0  0  0  0
  192.3040  171.7280  136.4960 C   0  0  0  0  0  1  0  0  0  0  0  0
  1  6  1  0  0  0  0
  2  4  1  0  0  0  0
  3  1  2  0  0  0  0
  3  5  1  0  0  0  0
  5  2  2  0  0  0  0
  6  4  2  0  0  0  0
  7  1  1  0  0  0  0
  8  7  1  0  0  0  0
  9  8  1  0  0  0  0
 11 12  2  0  0  0  0
 12 23  1  0  0  0  0
 13 23  1  1  0  0  0
 13 17  1  0  0  0  0
 14  9  1  1  0  0  0
 14 16  1  0  0  0  0
 16 21  1  0  0  0  0
 17 21  1  0  0  0  0
 17 15  1  0  0  0  0
 17 22  1  0  0  0  0
 18 10  2  0  0  0  0
 19 18  1  1  0  0  0
 19 13  1  0  0  0  0
 20 25  1  6  0  0  0
 20 19  1  0  0  0  0
 20 14  1  0  0  0  0
 24 12  1  1  0  0  0
 24 19  1  0  0  0  0
 24 18  1  0  0  0  0
 25 26  1  6  0  0  0
 27 30  1  1  0  0  0
 27 25  1  0  0  0  0
 28 27  1  0  0  0  0
 28 26  1  0  0  0  0
 29 30  1  0  0  0  0
 31 40  1  6  0  0  0
 31  3  1  0  0  0  0
 33 31  1  0  0  0  0
 33 32  1  1  0  0  0
 34 36  2  0  0  0  0
 34 35  1  0  0  0  0
 35 39  2  0  0  0  0
 36 38  1  0  0  0  0
 38 37  2  0  0  0  0
 39 37  1  0  0  0  0
 39 33  1  0  0  0  0
 41 46  1  0  0  0  0
 42 46  1  0  0  0  0
 43 44  1  1  0  0  0
 43 45  1  0  0  0  0
 44 42  1  0  0  0  0
 45 41  1  0  0  0  0
 46 40  1  6  0  0  0
 47 54  1  6  0  0  0
 47 51  1  0  0  0  0
 48 52  1  6  0  0  0
 48 43  1  0  0  0  0
 49 47  1  0  0  0  0
 49 52  1  0  0  0  0
 51 48  1  0  0  0  0
 51 50  1  1  0  0  0
 53 54  1  0  0  0  0
 55 54  1  0  0  0  0
M  END
>  <MODEL>
9

>  <REMARK>
 VINA RESULT:      -6.8      2.687      7.800
  Name = 
  13 active torsions:
  status: ('A' for Active; 'I' for Inactive)
    1  A    between atoms: C_3  and  N_27
    2  A    between atoms: C_4  and  N_17
    3  A    between atoms: C_9  and  C_53
    4  A    between atoms: C_13  and  C_32
    5  A    between atoms: N_17  and  N_45
    6  A    between atoms: C_21  and  C_33
    7  A    between atoms: C_23  and  C_35
    8  A    between atoms: C_32  and  N_45
    9  A    between atoms: C_37  and  C_38
   10  A    between atoms: C_37  and  C_53
   11  A    between atoms: C_41  and  C_55
   12  A    between atoms: C_49  and  C_53
   13  A    between atoms: C_49  and  C_54
                            x       y       z     vdW  Elec       q    Type
                         _______ _______ _______ _____ _____    ______ ____

>  <TORSDO>
F 13

$$$$
