=
 OpenBabel11062420043D

 42 48  0  0  1  0  0  0  0  0999 V2000
  191.7970  174.4180  143.5790 C   0  0  1  0  0  3  0  0  0  0  0  0
  191.6430  172.9530  141.5390 C   0  0  2  0  0  3  0  0  0  0  0  0
  192.2230  176.1080  145.0700 C   0  0  1  0  0  3  0  0  0  0  0  0
  188.7200  172.7420  139.7510 N   0  0  0  0  0  0  0  0  0  0  0  0
  193.0400  176.5730  146.2660 C   0  0  0  0  0  2  0  0  0  0  0  0
  194.4020  177.0770  145.7480 C   0  0  0  0  0  2  0  0  0  0  0  0
  190.4790  172.0230  141.1840 C   0  0  2  0  0  3  0  0  0  0  0  0
  188.2750  172.8460  141.0680 N   0  0  0  0  0  0  0  0  0  0  0  0
  190.0160  173.4820  145.1810 C   0  0  0  0  0  2  0  0  0  0  0  0
  196.0060  174.9410  142.3860 N   0  0  0  0  0  0  0  0  0  0  0  0
  189.9420  172.2430  144.3070 C   0  0  1  0  0  3  0  0  0  0  0  0
  192.7800  172.5860  140.8190 O   0  0  0  0  0  1  0  0  0  0  0  0
  194.9640  176.2880  144.5750 C   0  0  0  0  0  0  0  0  0  0  0  0
  190.0470  172.2600  139.7770 C   0  0  0  0  0  0  0  0  0  0  0  0
  191.9920  172.9950  143.0240 C   0  0  2  0  0  3  0  0  0  0  0  0
  190.5170  174.6960  144.3960 C   0  0  1  0  0  3  0  0  0  0  0  0
  192.8810  174.8810  144.5070 C   0  0  2  0  0  3  0  0  0  0  0  0
  194.7690  174.6020  142.8360 C   0  0  0  0  0  3  0  0  0  0  0  0
  190.8400  175.7550  145.3600 N   0  0  0  0  0  0  0  0  0  0  0  0
  188.0680  173.3870  138.6240 C   0  0  0  0  0  1  0  0  0  0  0  0
  196.7350  175.9300  142.9740 C   0  0  0  0  0  3  0  0  0  0  0  0
  194.2030  175.2850  143.9180 C   0  0  0  0  0  0  0  0  0  0  0  0
  189.2030  172.4510  141.8830 C   0  0  0  0  0  0  0  0  0  0  0  0
  196.2250  176.6200  144.0780 C   0  0  0  0  0  3  0  0  0  0  0  0
  188.9750  172.4270  143.2650 O   0  0  0  0  0  0  0  0  0  0  0  0
  191.3530  171.8760  143.8520 C   0  0  0  0  0  2  0  0  0  0  0  0
  190.7500  172.0720  138.7460 O   0  0  0  0  0  0  0  0  0  0  0  0
  190.0210  176.9060  145.0040 C   0  0  0  0  0  2  0  0  0  0  0  0
  189.2040  177.3520  146.2030 C   0  0  2  0  0  3  0  0  0  0  0  0
  190.0820  177.4190  147.4390 C   0  0  0  0  0  1  0  0  0  0  0  0
  188.1650  175.4410  147.0950 O   0  0  0  0  0  0  0  0  0  0  0  0
  188.0250  176.4450  146.4140 C   0  0  0  0  0  0  0  0  0  0  0  0
  184.4020  177.7090  146.3980 C   0  0  0  0  0  2  0  0  0  0  0  0
  186.6710  176.7940  145.8590 C   0  0  1  0  0  3  0  0  0  0  0  0
  186.3030  179.9430  145.0720 F   0  0  0  0  0  0  0  0  0  0  0  0
  183.4280  178.7910  144.5420 O   0  0  0  0  0  0  0  0  0  0  0  0
  185.8030  177.4380  146.9400 C   0  0  0  0  0  2  0  0  0  0  0  0
  184.4620  178.4610  145.0970 C   0  0  0  0  0  0  0  0  0  0  0  0
  185.7870  178.8060  144.4730 C   0  0  2  0  0  3  0  0  0  0  0  0
  186.8000  177.6540  144.5860 C   0  0  2  0  0  3  0  0  0  0  0  0
  186.7160  176.7980  143.3970 C   0  0  0  0  0  0  0  0  0  0  0  0
  186.6500  176.0910  142.4200 C   0  0  0  0  0  3  0  0  0  0  0  0
  1 16  1  0  0  0  0
  1 17  1  0  0  0  0
  2 15  1  0  0  0  0
  3 19  1  0  0  0  0
  3  5  1  0  0  0  0
  4 14  1  0  0  0  0
  4  8  1  0  0  0  0
  6  5  1  0  0  0  0
  7  2  1  0  0  0  0
  7 23  1  0  0  0  0
  8 23  2  0  0  0  0
 10 18  2  0  0  0  0
 10 21  1  0  0  0  0
 11  9  1  0  0  0  0
 12  2  1  0  0  0  0
 13  6  1  0  0  0  0
 14  7  1  0  0  0  0
 15  1  1  0  0  0  0
 15 26  1  0  0  0  0
 16  9  1  0  0  0  0
 16 19  1  0  0  0  0
 17  3  1  0  0  0  0
 18 22  1  0  0  0  0
 20  4  1  0  0  0  0
 21 24  2  0  0  0  0
 22 17  1  0  0  0  0
 22 13  2  0  0  0  0
 23 25  1  0  0  0  0
 24 13  1  0  0  0  0
 25 11  1  0  0  0  0
 26 11  1  0  0  0  0
 27 14  2  0  0  0  0
 28 19  1  0  0  0  0
 28 29  1  0  0  0  0
 29 32  1  0  0  0  0
 29 30  1  0  0  0  0
 32 31  2  0  0  0  0
 33 37  1  0  0  0  0
 34 32  1  0  0  0  0
 34 37  1  0  0  0  0
 36 38  2  0  0  0  0
 38 33  1  0  0  0  0
 39 40  1  0  0  0  0
 39 35  1  0  0  0  0
 39 38  1  0  0  0  0
 40 34  1  0  0  0  0
 41 40  1  0  0  0  0
 42 41  3  0  0  0  0
M  END
>  <MODEL>
1

>  <REMARK>
 VINA RESULT:      -9.8      0.000      0.000
  Name = 
  5 active torsions:
  status: ('A' for Active; 'I' for Inactive)
    1  A    between atoms: C_3  and  C_41
    2  A    between atoms: C_14  and  C_20
    3  A    between atoms: C_14  and  N_29
    4  A    between atoms: C_20  and  C_41
    5  A    between atoms: C_39  and  C_40
                            x       y       z     vdW  Elec       q    Type
                         _______ _______ _______ _____ _____    ______ ____

>  <TORSDO>
F 5

$$$$
=
 OpenBabel11062420043D

 42 48  0  0  1  0  0  0  0  0999 V2000
  192.1740  174.7330  143.1560 C   0  0  1  0  0  3  0  0  0  0  0  0
  191.7220  173.6980  140.9080 C   0  0  2  0  0  3  0  0  0  0  0  0
  192.8380  176.0940  144.8800 C   0  0  1  0  0  3  0  0  0  0  0  0
  188.5960  173.8690  139.4990 N   0  0  0  0  0  0  0  0  0  0  0  0
  193.8100  176.3080  146.0300 C   0  0  0  0  0  2  0  0  0  0  0  0
  195.1140  176.8910  145.4500 C   0  0  0  0  0  2  0  0  0  0  0  0
  190.4920  172.8670  140.5310 C   0  0  2  0  0  3  0  0  0  0  0  0
  188.3200  173.7170  140.8570 N   0  0  0  0  0  0  0  0  0  0  0  0
  190.5740  173.5170  144.7600 C   0  0  0  0  0  2  0  0  0  0  0  0
  196.2210  175.4420  141.5620 N   0  0  0  0  0  0  0  0  0  0  0  0
  190.3500  172.4740  143.6800 C   0  0  1  0  0  3  0  0  0  0  0  0
  192.7480  173.4700  139.9920 O   0  0  0  0  0  1  0  0  0  0  0  0
  195.5020  176.3420  144.0850 C   0  0  0  0  0  0  0  0  0  0  0  0
  189.8990  173.3790  139.2630 C   0  0  0  0  0  0  0  0  0  0  0  0
  192.2520  173.4450  142.3170 C   0  0  2  0  0  3  0  0  0  0  0  0
  191.0150  174.8570  144.1680 C   0  0  1  0  0  3  0  0  0  0  0  0
  193.3790  174.9950  144.0110 C   0  0  2  0  0  3  0  0  0  0  0  0
  195.0370  175.0330  142.0920 C   0  0  0  0  0  3  0  0  0  0  0  0
  191.4900  175.7040  145.2700 N   0  0  0  0  0  0  0  0  0  0  0  0
  187.8320  174.7280  138.6110 C   0  0  0  0  0  1  0  0  0  0  0  0
  197.0490  176.2890  142.2330 C   0  0  0  0  0  3  0  0  0  0  0  0
  194.6320  175.4950  143.3480 C   0  0  0  0  0  0  0  0  0  0  0  0
  189.3270  173.1610  141.4560 C   0  0  0  0  0  0  0  0  0  0  0  0
  196.7030  176.7540  143.5060 C   0  0  0  0  0  3  0  0  0  0  0  0
  189.2700  172.8680  142.8250 O   0  0  0  0  0  0  0  0  0  0  0  0
  191.6820  172.1910  142.9870 C   0  0  0  0  0  2  0  0  0  0  0  0
  190.4630  173.3910  138.1340 O   0  0  0  0  0  0  0  0  0  0  0  0
  190.6720  176.9090  145.2500 C   0  0  0  0  0  2  0  0  0  0  0  0
  189.9590  177.0750  146.5800 C   0  0  2  0  0  3  0  0  0  0  0  0
  190.7450  176.3900  147.6840 C   0  0  0  0  0  1  0  0  0  0  0  0
  188.3210  175.4150  146.8800 O   0  0  0  0  0  0  0  0  0  0  0  0
  188.5530  176.5520  146.5010 C   0  0  0  0  0  0  0  0  0  0  0  0
  185.8250  177.8960  144.1610 C   0  0  0  0  0  2  0  0  0  0  0  0
  187.4260  177.4320  146.0300 C   0  0  1  0  0  3  0  0  0  0  0  0
  184.4450  176.1830  146.5110 F   0  0  0  0  0  0  0  0  0  0  0  0
  183.8060  178.8310  144.9440 O   0  0  0  0  0  0  0  0  0  0  0  0
  186.9060  176.9510  144.6760 C   0  0  0  0  0  2  0  0  0  0  0  0
  184.7670  178.1260  145.2030 C   0  0  0  0  0  0  0  0  0  0  0  0
  184.8840  177.4960  146.5650 C   0  0  2  0  0  3  0  0  0  0  0  0
  186.3240  177.5410  147.1030 C   0  0  2  0  0  3  0  0  0  0  0  0
  186.5220  178.7600  147.8970 C   0  0  0  0  0  0  0  0  0  0  0  0
  186.6890  179.7620  148.5490 C   0  0  0  0  0  3  0  0  0  0  0  0
  1 17  1  0  0  0  0
  1 16  1  0  0  0  0
  2 15  1  0  0  0  0
  3 19  1  0  0  0  0
  3  5  1  0  0  0  0
  4  8  1  0  0  0  0
  6  5  1  0  0  0  0
  7  2  1  0  0  0  0
  7 23  1  0  0  0  0
  8 23  2  0  0  0  0
 10 18  2  0  0  0  0
 10 21  1  0  0  0  0
 11  9  1  0  0  0  0
 12  2  1  0  0  0  0
 13  6  1  0  0  0  0
 14  4  1  0  0  0  0
 14  7  1  0  0  0  0
 15 26  1  0  0  0  0
 15  1  1  0  0  0  0
 16  9  1  0  0  0  0
 16 19  1  0  0  0  0
 17  3  1  0  0  0  0
 18 22  1  0  0  0  0
 20  4  1  0  0  0  0
 21 24  2  0  0  0  0
 22 17  1  0  0  0  0
 22 13  2  0  0  0  0
 23 25  1  0  0  0  0
 24 13  1  0  0  0  0
 25 11  1  0  0  0  0
 26 11  1  0  0  0  0
 27 14  2  0  0  0  0
 28 19  1  0  0  0  0
 28 29  1  0  0  0  0
 29 30  1  0  0  0  0
 32 29  1  0  0  0  0
 32 31  2  0  0  0  0
 33 37  1  0  0  0  0
 33 38  1  0  0  0  0
 34 32  1  0  0  0  0
 34 40  1  0  0  0  0
 35 39  1  0  0  0  0
 36 38  2  0  0  0  0
 37 34  1  0  0  0  0
 38 39  1  0  0  0  0
 39 40  1  0  0  0  0
 40 41  1  0  0  0  0
 41 42  3  0  0  0  0
M  END
>  <MODEL>
2

>  <REMARK>
 VINA RESULT:      -9.7      1.207      1.888
  Name = 
  5 active torsions:
  status: ('A' for Active; 'I' for Inactive)
    1  A    between atoms: C_3  and  C_41
    2  A    between atoms: C_14  and  C_20
    3  A    between atoms: C_14  and  N_29
    4  A    between atoms: C_20  and  C_41
    5  A    between atoms: C_39  and  C_40
                            x       y       z     vdW  Elec       q    Type
                         _______ _______ _______ _____ _____    ______ ____

>  <TORSDO>
F 5

$$$$
=
 OpenBabel11062420043D

 42 48  0  0  1  0  0  0  0  0999 V2000
  192.0200  173.9980  143.5430 C   0  0  1  0  0  3  0  0  0  0  0  0
  191.5880  172.6340  141.4750 C   0  0  2  0  0  3  0  0  0  0  0  0
  192.7960  175.5170  145.0780 C   0  0  1  0  0  3  0  0  0  0  0  0
  188.7790  173.1740  139.5770 N   0  0  0  0  0  0  0  0  0  0  0  0
  193.6540  175.7550  146.3110 C   0  0  0  0  0  2  0  0  0  0  0  0
  195.1180  175.9060  145.8530 C   0  0  0  0  0  2  0  0  0  0  0  0
  190.2440  172.0270  141.0610 C   0  0  2  0  0  3  0  0  0  0  0  0
  188.3220  173.3770  140.8780 N   0  0  0  0  0  0  0  0  0  0  0  0
  190.0000  173.5260  145.0630 C   0  0  0  0  0  2  0  0  0  0  0  0
  196.2720  173.4610  142.5160 N   0  0  0  0  0  0  0  0  0  0  0  0
  189.6540  172.3510  144.1650 C   0  0  1  0  0  3  0  0  0  0  0  0
  192.6250  172.0000  140.7910 O   0  0  0  0  0  1  0  0  0  0  0  0
  195.5120  175.0090  144.6880 C   0  0  0  0  0  0  0  0  0  0  0  0
  189.9410  172.3750  139.6430 C   0  0  0  0  0  0  0  0  0  0  0  0
  191.8760  172.5760  142.9720 C   0  0  2  0  0  3  0  0  0  0  0  0
  190.8190  174.5820  144.3180 C   0  0  1  0  0  3  0  0  0  0  0  0
  193.1480  174.1690  144.5180 C   0  0  2  0  0  3  0  0  0  0  0  0
  194.9720  173.4400  142.9140 C   0  0  0  0  0  3  0  0  0  0  0  0
  191.3580  175.5200  145.3110 N   0  0  0  0  0  0  0  0  0  0  0  0
  188.3540  173.9700  138.4380 C   0  0  0  0  0  1  0  0  0  0  0  0
  197.2000  174.2320  143.1470 C   0  0  0  0  0  3  0  0  0  0  0  0
  194.5510  174.2340  143.9860 C   0  0  0  0  0  0  0  0  0  0  0  0
  189.0880  172.7560  141.7190 C   0  0  0  0  0  0  0  0  0  0  0  0
  196.8350  175.0190  144.2430 C   0  0  0  0  0  3  0  0  0  0  0  0
  188.8060  172.7790  143.0920 O   0  0  0  0  0  0  0  0  0  0  0  0
  190.9460  171.6460  143.7570 C   0  0  0  0  0  2  0  0  0  0  0  0
  190.6150  172.0250  138.6360 O   0  0  0  0  0  0  0  0  0  0  0  0
  190.8660  176.8410  144.9440 C   0  0  0  0  0  2  0  0  0  0  0  0
  189.9380  177.3680  146.0240 C   0  0  2  0  0  3  0  0  0  0  0  0
  190.4470  176.9620  147.3950 C   0  0  0  0  0  1  0  0  0  0  0  0
  188.0890  175.9950  146.4970 O   0  0  0  0  0  0  0  0  0  0  0  0
  188.5310  176.8920  145.7970 C   0  0  0  0  0  0  0  0  0  0  0  0
  187.5000  178.3850  142.4160 C   0  0  0  0  0  2  0  0  0  0  0  0
  187.6470  177.5510  144.7730 C   0  0  1  0  0  3  0  0  0  0  0  0
  186.1590  175.4760  142.7340 F   0  0  0  0  0  0  0  0  0  0  0  0
  185.2980  178.2670  141.5780 O   0  0  0  0  0  0  0  0  0  0  0  0
  188.3640  177.6370  143.4270 C   0  0  0  0  0  2  0  0  0  0  0  0
  186.1120  177.8100  142.3610 C   0  0  0  0  0  0  0  0  0  0  0  0
  185.7180  176.6750  143.2690 C   0  0  2  0  0  3  0  0  0  0  0  0
  186.2770  176.8480  144.6910 C   0  0  2  0  0  3  0  0  0  0  0  0
  185.3020  177.5590  145.5270 C   0  0  0  0  0  0  0  0  0  0  0  0
  184.4990  178.1400  146.2170 C   0  0  0  0  0  3  0  0  0  0  0  0
  1 16  1  0  0  0  0
  1 17  1  0  0  0  0
  2 15  1  0  0  0  0
  3 19  1  0  0  0  0
  3  5  1  0  0  0  0
  4 14  1  0  0  0  0
  4  8  1  0  0  0  0
  6  5  1  0  0  0  0
  7  2  1  0  0  0  0
  7 23  1  0  0  0  0
  8 23  2  0  0  0  0
 10 18  2  0  0  0  0
 10 21  1  0  0  0  0
 11  9  1  0  0  0  0
 12  2  1  0  0  0  0
 13  6  1  0  0  0  0
 14  7  1  0  0  0  0
 15  1  1  0  0  0  0
 15 26  1  0  0  0  0
 16  9  1  0  0  0  0
 16 19  1  0  0  0  0
 17  3  1  0  0  0  0
 18 22  1  0  0  0  0
 20  4  1  0  0  0  0
 21 24  2  0  0  0  0
 22 17  1  0  0  0  0
 22 13  2  0  0  0  0
 23 25  1  0  0  0  0
 24 13  1  0  0  0  0
 25 11  1  0  0  0  0
 26 11  1  0  0  0  0
 27 14  2  0  0  0  0
 28 19  1  0  0  0  0
 28 29  1  0  0  0  0
 29 30  1  0  0  0  0
 32 29  1  0  0  0  0
 32 31  2  0  0  0  0
 33 37  1  0  0  0  0
 34 32  1  0  0  0  0
 35 39  1  0  0  0  0
 36 38  2  0  0  0  0
 37 34  1  0  0  0  0
 38 33  1  0  0  0  0
 38 39  1  0  0  0  0
 39 40  1  0  0  0  0
 40 34  1  0  0  0  0
 40 41  1  0  0  0  0
 41 42  3  0  0  0  0
M  END
>  <MODEL>
3

>  <REMARK>
 VINA RESULT:      -9.6      1.339      1.933
  Name = 
  5 active torsions:
  status: ('A' for Active; 'I' for Inactive)
    1  A    between atoms: C_3  and  C_41
    2  A    between atoms: C_14  and  C_20
    3  A    between atoms: C_14  and  N_29
    4  A    between atoms: C_20  and  C_41
    5  A    between atoms: C_39  and  C_40
                            x       y       z     vdW  Elec       q    Type
                         _______ _______ _______ _____ _____    ______ ____

>  <TORSDO>
F 5

$$$$
=
 OpenBabel11062420043D

 42 48  0  0  1  0  0  0  0  0999 V2000
  191.4500  174.6920  142.0140 C   0  0  1  0  0  3  0  0  0  0  0  0
  191.7480  173.4720  139.8340 C   0  0  2  0  0  3  0  0  0  0  0  0
  191.5750  176.1670  143.7670 C   0  0  1  0  0  3  0  0  0  0  0  0
  189.3950  173.7320  137.3470 N   0  0  0  0  0  0  0  0  0  0  0  0
  192.0740  176.4240  145.1800 C   0  0  0  0  0  2  0  0  0  0  0  0
  193.5530  176.8460  145.0960 C   0  0  0  0  0  2  0  0  0  0  0  0
  190.6610  172.7010  139.0780 C   0  0  2  0  0  3  0  0  0  0  0  0
  188.6250  173.7390  138.5090 N   0  0  0  0  0  0  0  0  0  0  0  0
  189.2520  173.7670  142.9770 C   0  0  0  0  0  2  0  0  0  0  0  0
  195.8500  174.9340  142.0110 N   0  0  0  0  0  0  0  0  0  0  0  0
  189.3320  172.6400  141.9620 C   0  0  1  0  0  3  0  0  0  0  0  0
  193.0080  173.0770  139.3870 O   0  0  0  0  0  1  0  0  0  0  0  0
  194.3540  176.1350  144.0150 C   0  0  0  0  0  0  0  0  0  0  0  0
  190.6330  173.1250  137.6500 C   0  0  0  0  0  0  0  0  0  0  0  0
  191.6920  173.3240  141.3520 C   0  0  2  0  0  3  0  0  0  0  0  0
  190.0200  175.0040  142.5060 C   0  0  1  0  0  3  0  0  0  0  0  0
  192.2770  174.9490  143.2390 C   0  0  2  0  0  3  0  0  0  0  0  0
  194.5180  174.6700  142.0840 C   0  0  0  0  0  3  0  0  0  0  0  0
  190.1440  175.9200  143.6470 N   0  0  0  0  0  0  0  0  0  0  0  0
  189.1070  174.5510  136.1820 C   0  0  0  0  0  1  0  0  0  0  0  0
  196.4590  175.7810  142.8860 C   0  0  0  0  0  3  0  0  0  0  0  0
  193.7310  175.2850  143.0630 C   0  0  0  0  0  0  0  0  0  0  0  0
  189.2760  173.1720  139.4770 C   0  0  0  0  0  0  0  0  0  0  0  0
  195.7210  176.3960  143.9020 C   0  0  0  0  0  3  0  0  0  0  0  0
  188.6890  173.0240  140.7400 O   0  0  0  0  0  0  0  0  0  0  0  0
  190.7860  172.1900  141.8400 C   0  0  0  0  0  2  0  0  0  0  0  0
  191.5700  172.9810  136.8170 O   0  0  0  0  0  0  0  0  0  0  0  0
  189.5240  177.1740  143.2420 C   0  0  0  0  0  2  0  0  0  0  0  0
  188.2800  176.8960  142.4190 C   0  0  2  0  0  3  0  0  0  0  0  0
  188.0770  177.9940  141.3900 C   0  0  0  0  0  1  0  0  0  0  0  0
  186.2380  175.9020  143.0260 O   0  0  0  0  0  0  0  0  0  0  0  0
  187.0760  176.7440  143.3050 C   0  0  0  0  0  0  0  0  0  0  0  0
  185.7530  179.5030  145.6200 C   0  0  0  0  0  2  0  0  0  0  0  0
  186.9290  177.5640  144.5590 C   0  0  1  0  0  3  0  0  0  0  0  0
  184.4110  176.6990  146.4520 F   0  0  0  0  0  0  0  0  0  0  0  0
  185.5260  179.2240  147.9510 O   0  0  0  0  0  0  0  0  0  0  0  0
  185.8380  178.6190  144.3810 C   0  0  0  0  0  2  0  0  0  0  0  0
  185.6390  178.6750  146.8690 C   0  0  0  0  0  0  0  0  0  0  0  0
  185.6670  177.1710  146.7960 C   0  0  2  0  0  3  0  0  0  0  0  0
  186.7090  176.6590  145.7880 C   0  0  2  0  0  3  0  0  0  0  0  0
  187.9880  176.4250  146.4690 C   0  0  0  0  0  0  0  0  0  0  0  0
  189.0420  176.2360  147.0280 C   0  0  0  0  0  3  0  0  0  0  0  0
  1 16  1  0  0  0  0
  1 17  1  0  0  0  0
  2 15  1  0  0  0  0
  3  5  1  0  0  0  0
  4 14  1  0  0  0  0
  4  8  1  0  0  0  0
  6  5  1  0  0  0  0
  7 23  1  0  0  0  0
  7  2  1  0  0  0  0
  8 23  2  0  0  0  0
 10 18  2  0  0  0  0
 10 21  1  0  0  0  0
 11  9  1  0  0  0  0
 12  2  1  0  0  0  0
 13  6  1  0  0  0  0
 14  7  1  0  0  0  0
 15 26  1  0  0  0  0
 15  1  1  0  0  0  0
 16  9  1  0  0  0  0
 16 19  1  0  0  0  0
 17  3  1  0  0  0  0
 18 22  1  0  0  0  0
 19  3  1  0  0  0  0
 20  4  1  0  0  0  0
 21 24  2  0  0  0  0
 22 17  1  0  0  0  0
 22 13  2  0  0  0  0
 23 25  1  0  0  0  0
 24 13  1  0  0  0  0
 25 11  1  0  0  0  0
 26 11  1  0  0  0  0
 27 14  2  0  0  0  0
 28 19  1  0  0  0  0
 29 28  1  0  0  0  0
 29 32  1  0  0  0  0
 30 29  1  0  0  0  0
 31 32  2  0  0  0  0
 32 34  1  0  0  0  0
 33 38  1  0  0  0  0
 34 40  1  0  0  0  0
 35 39  1  0  0  0  0
 37 34  1  0  0  0  0
 37 33  1  0  0  0  0
 38 36  2  0  0  0  0
 39 38  1  0  0  0  0
 40 41  1  0  0  0  0
 40 39  1  0  0  0  0
 41 42  3  0  0  0  0
M  END
>  <MODEL>
4

>  <REMARK>
 VINA RESULT:      -9.6      1.786      2.624
  Name = 
  5 active torsions:
  status: ('A' for Active; 'I' for Inactive)
    1  A    between atoms: C_3  and  C_41
    2  A    between atoms: C_14  and  C_20
    3  A    between atoms: C_14  and  N_29
    4  A    between atoms: C_20  and  C_41
    5  A    between atoms: C_39  and  C_40
                            x       y       z     vdW  Elec       q    Type
                         _______ _______ _______ _____ _____    ______ ____

>  <TORSDO>
F 5

$$$$
=
 OpenBabel11062420043D

 42 48  0  0  1  0  0  0  0  0999 V2000
  191.8460  173.7770  143.1960 C   0  0  1  0  0  3  0  0  0  0  0  0
  191.6170  173.0450  140.8000 C   0  0  2  0  0  3  0  0  0  0  0  0
  192.3560  174.8870  145.1380 C   0  0  1  0  0  3  0  0  0  0  0  0
  188.6790  173.5350  139.0940 N   0  0  0  0  0  0  0  0  0  0  0  0
  193.1990  174.9140  146.4040 C   0  0  0  0  0  2  0  0  0  0  0  0
  194.5800  175.4990  146.0470 C   0  0  0  0  0  2  0  0  0  0  0  0
  190.4100  172.3250  140.1910 C   0  0  2  0  0  3  0  0  0  0  0  0
  188.2450  173.2330  140.3840 N   0  0  0  0  0  0  0  0  0  0  0  0
  190.0330  172.4550  144.4520 C   0  0  0  0  0  2  0  0  0  0  0  0
  196.0700  174.4780  142.1510 N   0  0  0  0  0  0  0  0  0  0  0  0
  189.8980  171.5630  143.2320 C   0  0  1  0  0  3  0  0  0  0  0  0
  192.7320  172.8790  139.9800 O   0  0  0  0  0  1  0  0  0  0  0  0
  195.1000  175.1010  144.6740 C   0  0  0  0  0  0  0  0  0  0  0  0
  189.9820  173.0150  138.9400 C   0  0  0  0  0  0  0  0  0  0  0  0
  191.9740  172.5980  142.2150 C   0  0  2  0  0  3  0  0  0  0  0  0
  190.5840  173.8340  144.0840 C   0  0  1  0  0  3  0  0  0  0  0  0
  192.9550  173.8760  144.2020 C   0  0  2  0  0  3  0  0  0  0  0  0
  194.8200  174.0650  142.4940 C   0  0  0  0  0  3  0  0  0  0  0  0
  190.9600  174.5180  145.3280 N   0  0  0  0  0  0  0  0  0  0  0  0
  188.0510  174.5300  138.2420 C   0  0  0  0  0  1  0  0  0  0  0  0
  196.8450  175.1970  143.0090 C   0  0  0  0  0  3  0  0  0  0  0  0
  194.2910  174.3920  143.7470 C   0  0  0  0  0  0  0  0  0  0  0  0
  189.1580  172.5610  141.0130 C   0  0  0  0  0  0  0  0  0  0  0  0
  196.3720  175.5210  144.2840 C   0  0  0  0  0  3  0  0  0  0  0  0
  188.9360  172.1080  142.3200 O   0  0  0  0  0  0  0  0  0  0  0  0
  191.2890  171.3010  142.6570 C   0  0  0  0  0  2  0  0  0  0  0  0
  190.6700  173.1350  137.8900 O   0  0  0  0  0  0  0  0  0  0  0  0
  190.1920  175.7550  145.3710 C   0  0  0  0  0  2  0  0  0  0  0  0
  189.6540  175.9830  146.7720 C   0  0  2  0  0  3  0  0  0  0  0  0
  189.0560  174.7000  147.3190 C   0  0  0  0  0  1  0  0  0  0  0  0
  188.8640  178.0770  147.4920 O   0  0  0  0  0  0  0  0  0  0  0  0
  188.6550  177.1050  146.7850 C   0  0  0  0  0  0  0  0  0  0  0  0
  184.9440  176.9690  145.8190 C   0  0  0  0  0  2  0  0  0  0  0  0
  187.4450  177.0730  145.8900 C   0  0  1  0  0  3  0  0  0  0  0  0
  186.0200  179.9790  145.4400 F   0  0  0  0  0  0  0  0  0  0  0  0
  184.0730  178.0460  143.9090 O   0  0  0  0  0  0  0  0  0  0  0  0
  186.1650  177.0910  146.7250 C   0  0  0  0  0  2  0  0  0  0  0  0
  184.9920  177.9810  144.7080 C   0  0  0  0  0  0  0  0  0  0  0  0
  186.1680  178.9110  144.5700 C   0  0  2  0  0  3  0  0  0  0  0  0
  187.5040  178.2010  144.8400 C   0  0  2  0  0  3  0  0  0  0  0  0
  188.0550  177.6820  143.5830 C   0  0  0  0  0  0  0  0  0  0  0  0
  188.5120  177.2540  142.5500 C   0  0  0  0  0  3  0  0  0  0  0  0
  1 16  1  0  0  0  0
  1 17  1  0  0  0  0
  2 15  1  0  0  0  0
  3 19  1  0  0  0  0
  3  5  1  0  0  0  0
  4  8  1  0  0  0  0
  6  5  1  0  0  0  0
  7  2  1  0  0  0  0
  7 23  1  0  0  0  0
  8 23  2  0  0  0  0
 10 18  2  0  0  0  0
 10 21  1  0  0  0  0
 11  9  1  0  0  0  0
 12  2  1  0  0  0  0
 13  6  1  0  0  0  0
 14  4  1  0  0  0  0
 14  7  1  0  0  0  0
 15 26  1  0  0  0  0
 15  1  1  0  0  0  0
 16  9  1  0  0  0  0
 16 19  1  0  0  0  0
 17  3  1  0  0  0  0
 18 22  1  0  0  0  0
 19 28  1  0  0  0  0
 20  4  1  0  0  0  0
 21 24  2  0  0  0  0
 22 17  1  0  0  0  0
 22 13  2  0  0  0  0
 23 25  1  0  0  0  0
 24 13  1  0  0  0  0
 25 11  1  0  0  0  0
 26 11  1  0  0  0  0
 27 14  2  0  0  0  0
 28 29  1  0  0  0  0
 29 32  1  0  0  0  0
 29 30  1  0  0  0  0
 32 31  2  0  0  0  0
 33 37  1  0  0  0  0
 34 37  1  0  0  0  0
 34 32  1  0  0  0  0
 36 38  2  0  0  0  0
 38 33  1  0  0  0  0
 39 38  1  0  0  0  0
 39 40  1  0  0  0  0
 39 35  1  0  0  0  0
 40 34  1  0  0  0  0
 41 40  1  0  0  0  0
 42 41  3  0  0  0  0
M  END
>  <MODEL>
5

>  <REMARK>
 VINA RESULT:      -9.6      1.175      1.252
  Name = 
  5 active torsions:
  status: ('A' for Active; 'I' for Inactive)
    1  A    between atoms: C_3  and  C_41
    2  A    between atoms: C_14  and  C_20
    3  A    between atoms: C_14  and  N_29
    4  A    between atoms: C_20  and  C_41
    5  A    between atoms: C_39  and  C_40
                            x       y       z     vdW  Elec       q    Type
                         _______ _______ _______ _____ _____    ______ ____

>  <TORSDO>
F 5

$$$$
=
 OpenBabel11062420043D

 42 48  0  0  1  0  0  0  0  0999 V2000
  192.2580  173.0370  142.7160 C   0  0  1  0  0  3  0  0  0  0  0  0
  193.4150  171.7310  140.9040 C   0  0  2  0  0  3  0  0  0  0  0  0
  191.6570  174.5900  144.2950 C   0  0  1  0  0  3  0  0  0  0  0  0
  192.2600  171.8200  137.6730 N   0  0  0  0  0  0  0  0  0  0  0  0
  191.5440  174.9210  145.7750 C   0  0  0  0  0  2  0  0  0  0  0  0
  192.9300  175.3790  146.2700 C   0  0  0  0  0  2  0  0  0  0  0  0
  192.7300  170.8990  139.8160 C   0  0  2  0  0  3  0  0  0  0  0  0
  191.0870  171.8570  138.4250 N   0  0  0  0  0  0  0  0  0  0  0  0
  189.8650  172.0960  142.7620 C   0  0  0  0  0  2  0  0  0  0  0  0
  196.2850  173.3950  144.4680 N   0  0  0  0  0  0  0  0  0  0  0  0
  190.3530  170.9290  141.9230 C   0  0  1  0  0  3  0  0  0  0  0  0
  194.7510  171.3500  141.0210 O   0  0  0  0  0  1  0  0  0  0  0  0
  194.1020  174.6430  145.6390 C   0  0  0  0  0  0  0  0  0  0  0  0
  193.2760  171.2600  138.4770 C   0  0  0  0  0  0  0  0  0  0  0  0
  192.7550  171.6480  142.2770 C   0  0  2  0  0  3  0  0  0  0  0  0
  190.7480  173.3320  142.5770 C   0  0  1  0  0  3  0  0  0  0  0  0
  192.5210  173.3690  144.1550 C   0  0  2  0  0  3  0  0  0  0  0  0
  195.0390  173.0990  144.0130 C   0  0  0  0  0  3  0  0  0  0  0  0
  190.3970  174.3000  143.6240 N   0  0  0  0  0  0  0  0  0  0  0  0
  192.4590  172.5790  136.4500 C   0  0  0  0  0  1  0  0  0  0  0  0
  196.4850  174.2960  145.4690 C   0  0  0  0  0  3  0  0  0  0  0  0
  193.9200  173.7360  144.5610 C   0  0  0  0  0  0  0  0  0  0  0  0
  191.2980  171.3510  139.6010 C   0  0  0  0  0  0  0  0  0  0  0  0
  195.3970  174.9350  146.0710 C   0  0  0  0  0  3  0  0  0  0  0  0
  190.2540  171.2420  140.5280 O   0  0  0  0  0  0  0  0  0  0  0  0
  191.7370  170.5130  142.4180 C   0  0  0  0  0  2  0  0  0  0  0  0
  194.4690  171.1040  138.0990 O   0  0  0  0  0  0  0  0  0  0  0  0
  189.9840  175.5180  142.9410 C   0  0  0  0  0  2  0  0  0  0  0  0
  188.5360  175.8320  143.2700 C   0  0  2  0  0  3  0  0  0  0  0  0
  187.6120  175.1170  142.3010 C   0  0  0  0  0  1  0  0  0  0  0  0
  188.5900  177.9600  142.2730 O   0  0  0  0  0  0  0  0  0  0  0  0
  188.2950  177.3150  143.2660 C   0  0  0  0  0  0  0  0  0  0  0  0
  185.6440  179.3060  145.1970 C   0  0  0  0  0  2  0  0  0  0  0  0
  187.6380  177.9950  144.4370 C   0  0  1  0  0  3  0  0  0  0  0  0
  185.3780  176.1890  145.9560 F   0  0  0  0  0  0  0  0  0  0  0  0
  185.1630  178.9300  147.4760 O   0  0  0  0  0  0  0  0  0  0  0  0
  186.2680  178.5410  144.0340 C   0  0  0  0  0  2  0  0  0  0  0  0
  185.6560  178.4830  146.4550 C   0  0  0  0  0  0  0  0  0  0  0  0
  186.2770  177.1110  146.4660 C   0  0  2  0  0  3  0  0  0  0  0  0
  187.5870  177.0610  145.6630 C   0  0  2  0  0  3  0  0  0  0  0  0
  188.7260  177.3380  146.5470 C   0  0  0  0  0  0  0  0  0  0  0  0
  189.6650  177.5650  147.2710 C   0  0  0  0  0  3  0  0  0  0  0  0
  1 17  1  0  0  0  0
  2 12  1  0  0  0  0
  2 15  1  0  0  0  0
  3  5  1  0  0  0  0
  4  8  1  0  0  0  0
  4 14  1  0  0  0  0
  5  6  1  0  0  0  0
  7  2  1  0  0  0  0
  8 23  2  0  0  0  0
 10 21  1  0  0  0  0
 11 26  1  0  0  0  0
 11  9  1  0  0  0  0
 13 24  1  0  0  0  0
 13  6  1  0  0  0  0
 14  7  1  0  0  0  0
 15 26  1  0  0  0  0
 15  1  1  0  0  0  0
 16  1  1  0  0  0  0
 16  9  1  0  0  0  0
 16 19  1  0  0  0  0
 17  3  1  0  0  0  0
 17 22  1  0  0  0  0
 18 10  2  0  0  0  0
 18 22  1  0  0  0  0
 19  3  1  0  0  0  0
 20  4  1  0  0  0  0
 21 24  2  0  0  0  0
 22 13  2  0  0  0  0
 23  7  1  0  0  0  0
 23 25  1  0  0  0  0
 25 11  1  0  0  0  0
 27 14  2  0  0  0  0
 28 29  1  0  0  0  0
 28 19  1  0  0  0  0
 30 29  1  0  0  0  0
 31 32  2  0  0  0  0
 32 29  1  0  0  0  0
 32 34  1  0  0  0  0
 33 38  1  0  0  0  0
 34 40  1  0  0  0  0
 35 39  1  0  0  0  0
 37 34  1  0  0  0  0
 37 33  1  0  0  0  0
 38 39  1  0  0  0  0
 38 36  2  0  0  0  0
 40 39  1  0  0  0  0
 40 41  1  0  0  0  0
 41 42  3  0  0  0  0
M  END
>  <MODEL>
6

>  <REMARK>
 VINA RESULT:      -9.0      2.283      3.154
  Name = 
  5 active torsions:
  status: ('A' for Active; 'I' for Inactive)
    1  A    between atoms: C_3  and  C_41
    2  A    between atoms: C_14  and  C_20
    3  A    between atoms: C_14  and  N_29
    4  A    between atoms: C_20  and  C_41
    5  A    between atoms: C_39  and  C_40
                            x       y       z     vdW  Elec       q    Type
                         _______ _______ _______ _____ _____    ______ ____

>  <TORSDO>
F 5

$$$$
=
 OpenBabel11062420043D

 42 48  0  0  1  0  0  0  0  0999 V2000
  192.4900  174.1720  142.9980 C   0  0  1  0  0  3  0  0  0  0  0  0
  194.4240  172.6000  142.6610 C   0  0  2  0  0  3  0  0  0  0  0  0
  190.4120  175.1150  143.2370 C   0  0  1  0  0  3  0  0  0  0  0  0
  196.3060  171.5420  145.3300 N   0  0  0  0  0  0  0  0  0  0  0  0
  189.3280  175.9800  142.6120 C   0  0  0  0  0  2  0  0  0  0  0  0
  188.4990  175.0940  141.6610 C   0  0  0  0  0  2  0  0  0  0  0  0
  195.8020  172.7130  143.3210 C   0  0  2  0  0  3  0  0  0  0  0  0
  196.0040  172.8610  145.6630 N   0  0  0  0  0  0  0  0  0  0  0  0
  193.5410  176.2750  144.0410 C   0  0  0  0  0  2  0  0  0  0  0  0
  190.7030  172.0600  139.5680 N   0  0  0  0  0  0  0  0  0  0  0  0
  194.9030  175.7440  143.6350 C   0  0  1  0  0  3  0  0  0  0  0  0
  194.5000  171.7680  141.5440 O   0  0  0  0  0  1  0  0  0  0  0  0
  189.3050  174.0460  140.9090 C   0  0  0  0  0  0  0  0  0  0  0  0
  196.1850  171.4080  143.9300 C   0  0  0  0  0  0  0  0  0  0  0  0
  193.8100  173.9330  142.2430 C   0  0  2  0  0  3  0  0  0  0  0  0
  192.5190  175.1470  144.1960 C   0  0  1  0  0  3  0  0  0  0  0  0
  191.3790  174.7280  142.1560 C   0  0  2  0  0  3  0  0  0  0  0  0
  191.3590  172.8180  140.4860 C   0  0  0  0  0  3  0  0  0  0  0  0
  191.1850  175.7540  144.2930 N   0  0  0  0  0  0  0  0  0  0  0  0
  196.3410  170.4540  146.2920 C   0  0  0  0  0  1  0  0  0  0  0  0
  189.3800  172.2440  139.3030 C   0  0  0  0  0  3  0  0  0  0  0  0
  190.6740  173.8060  141.2020 C   0  0  0  0  0  0  0  0  0  0  0  0
  195.7350  173.5390  144.5910 C   0  0  0  0  0  0  0  0  0  0  0  0
  188.6590  173.2400  139.9700 C   0  0  0  0  0  3  0  0  0  0  0  0
  195.4390  174.9070  144.6680 O   0  0  0  0  0  0  0  0  0  0  0  0
  194.7910  175.1080  142.2500 C   0  0  0  0  0  2  0  0  0  0  0  0
  196.3710  170.3270  143.3060 O   0  0  0  0  0  0  0  0  0  0  0  0
  190.6210  175.3170  145.5620 C   0  0  0  0  0  2  0  0  0  0  0  0
  190.0240  176.5010  146.3010 C   0  0  2  0  0  3  0  0  0  0  0  0
  190.8030  176.7690  147.5760 C   0  0  0  0  0  1  0  0  0  0  0  0
  188.2350  175.3060  147.2480 O   0  0  0  0  0  0  0  0  0  0  0  0
  188.5660  176.2760  146.5840 C   0  0  0  0  0  0  0  0  0  0  0  0
  186.0070  177.9120  144.2410 C   0  0  0  0  0  2  0  0  0  0  0  0
  187.5270  177.2600  146.1210 C   0  0  1  0  0  3  0  0  0  0  0  0
  184.4430  176.2540  146.5140 F   0  0  0  0  0  0  0  0  0  0  0  0
  184.0590  178.9910  145.0190 O   0  0  0  0  0  0  0  0  0  0  0  0
  186.9950  176.8650  144.7440 C   0  0  0  0  0  2  0  0  0  0  0  0
  184.9510  178.2000  145.2720 C   0  0  0  0  0  0  0  0  0  0  0  0
  184.9900  177.5230  146.6160 C   0  0  2  0  0  3  0  0  0  0  0  0
  186.4170  177.4310  147.1790 C   0  0  2  0  0  3  0  0  0  0  0  0
  186.7010  178.6050  148.0130 C   0  0  0  0  0  0  0  0  0  0  0  0
  186.9350  179.5730  148.6950 C   0  0  0  0  0  3  0  0  0  0  0  0
  1 16  1  0  0  0  0
  2  7  1  0  0  0  0
  3 19  1  0  0  0  0
  4  8  1  0  0  0  0
  4 20  1  0  0  0  0
  5  3  1  0  0  0  0
  6  5  1  0  0  0  0
  7 14  1  0  0  0  0
  7 23  1  0  0  0  0
  9 16  1  0  0  0  0
 10 18  1  0  0  0  0
 11  9  1  0  0  0  0
 11 25  1  0  0  0  0
 12  2  1  0  0  0  0
 13 22  1  0  0  0  0
 13  6  1  0  0  0  0
 14  4  1  0  0  0  0
 15 26  1  0  0  0  0
 15  2  1  0  0  0  0
 15  1  1  0  0  0  0
 16 19  1  0  0  0  0
 17  1  1  0  0  0  0
 17  3  1  0  0  0  0
 18 22  2  0  0  0  0
 19 28  1  0  0  0  0
 21 10  2  0  0  0  0
 21 24  1  0  0  0  0
 22 17  1  0  0  0  0
 23 25  1  0  0  0  0
 23  8  2  0  0  0  0
 24 13  2  0  0  0  0
 26 11  1  0  0  0  0
 27 14  2  0  0  0  0
 28 29  1  0  0  0  0
 29 32  1  0  0  0  0
 29 30  1  0  0  0  0
 32 31  2  0  0  0  0
 33 37  1  0  0  0  0
 33 38  1  0  0  0  0
 34 32  1  0  0  0  0
 34 40  1  0  0  0  0
 35 39  1  0  0  0  0
 36 38  2  0  0  0  0
 37 34  1  0  0  0  0
 38 39  1  0  0  0  0
 39 40  1  0  0  0  0
 40 41  1  0  0  0  0
 41 42  3  0  0  0  0
M  END
>  <MODEL>
7

>  <REMARK>
 VINA RESULT:      -9.0      2.321      5.331
  Name = 
  5 active torsions:
  status: ('A' for Active; 'I' for Inactive)
    1  A    between atoms: C_3  and  C_41
    2  A    between atoms: C_14  and  C_20
    3  A    between atoms: C_14  and  N_29
    4  A    between atoms: C_20  and  C_41
    5  A    between atoms: C_39  and  C_40
                            x       y       z     vdW  Elec       q    Type
                         _______ _______ _______ _____ _____    ______ ____

>  <TORSDO>
F 5

$$$$
=
 OpenBabel11062420043D

 42 48  0  0  1  0  0  0  0  0999 V2000
  192.5070  174.6120  145.0180 C   0  0  1  0  0  3  0  0  0  0  0  0
  190.0830  174.5760  144.3500 C   0  0  2  0  0  3  0  0  0  0  0  0
  194.7850  174.3590  145.1200 C   0  0  1  0  0  3  0  0  0  0  0  0
  188.5770  177.3870  143.0770 N   0  0  0  0  0  0  0  0  0  0  0  0
  195.9570  173.6330  145.7630 C   0  0  0  0  0  2  0  0  0  0  0  0
  196.1290  172.2770  145.0500 C   0  0  0  0  0  2  0  0  0  0  0  0
  189.0490  175.6660  144.6520 C   0  0  2  0  0  3  0  0  0  0  0  0
  189.4470  177.9040  144.0350 N   0  0  0  0  0  0  0  0  0  0  0  0
  192.6470  176.4160  146.8460 C   0  0  0  0  0  2  0  0  0  0  0  0
  192.4900  170.3830  143.7800 N   0  0  0  0  0  0  0  0  0  0  0  0
  191.1330  176.3750  146.9430 C   0  0  1  0  0  3  0  0  0  0  0  0
  189.4340  173.3850  144.0240 O   0  0  0  0  0  1  0  0  0  0  0  0
  194.8250  171.6110  144.6340 C   0  0  0  0  0  0  0  0  0  0  0  0
  188.3200  176.0380  143.4060 C   0  0  0  0  0  0  0  0  0  0  0  0
  191.0710  174.3080  145.4810 C   0  0  2  0  0  3  0  0  0  0  0  0
  193.1370  175.9460  145.4750 C   0  0  1  0  0  3  0  0  0  0  0  0
  193.5310  173.6050  145.4550 C   0  0  2  0  0  3  0  0  0  0  0  0
  192.4140  171.6200  144.3370 C   0  0  0  0  0  3  0  0  0  0  0  0
  194.5870  175.7330  145.5620 N   0  0  0  0  0  0  0  0  0  0  0  0
  188.3220  178.0160  141.7930 C   0  0  0  0  0  1  0  0  0  0  0  0
  193.6810  169.7430  143.6200 C   0  0  0  0  0  3  0  0  0  0  0  0
  193.5770  172.2800  144.7480 C   0  0  0  0  0  0  0  0  0  0  0  0
  189.7210  176.9990  144.9220 C   0  0  0  0  0  0  0  0  0  0  0  0
  194.8690  170.3470  144.0440 C   0  0  0  0  0  3  0  0  0  0  0  0
  190.5490  177.2960  146.0120 O   0  0  0  0  0  0  0  0  0  0  0  0
  190.6710  174.9230  146.8250 C   0  0  0  0  0  2  0  0  0  0  0  0
  187.5830  175.2740  142.7240 O   0  0  0  0  0  0  0  0  0  0  0  0
  195.1950  176.5970  144.5590 C   0  0  0  0  0  2  0  0  0  0  0  0
  195.7990  175.7570  143.4480 C   0  0  2  0  0  3  0  0  0  0  0  0
  197.2060  176.2340  143.1380 C   0  0  0  0  0  1  0  0  0  0  0  0
  194.8810  176.8020  141.5520 O   0  0  0  0  0  0  0  0  0  0  0  0
  194.9270  175.7840  142.2240 C   0  0  0  0  0  0  0  0  0  0  0  0
  191.9160  173.6150  141.2520 C   0  0  0  0  0  2  0  0  0  0  0  0
  194.1740  174.5580  141.7840 C   0  0  1  0  0  3  0  0  0  0  0  0
  193.5110  174.4550  138.5860 F   0  0  0  0  0  0  0  0  0  0  0  0
  192.0390  171.8900  139.6480 O   0  0  0  0  0  0  0  0  0  0  0  0
  192.6890  174.8790  141.6120 C   0  0  0  0  0  2  0  0  0  0  0  0
  192.5510  172.9040  140.0900 C   0  0  0  0  0  0  0  0  0  0  0  0
  193.8170  173.4320  139.4690 C   0  0  2  0  0  3  0  0  0  0  0  0
  194.8140  173.9380  140.5250 C   0  0  2  0  0  3  0  0  0  0  0  0
  195.7230  172.8530  140.9130 C   0  0  0  0  0  0  0  0  0  0  0  0
  196.4740  171.9620  141.2300 C   0  0  0  0  0  3  0  0  0  0  0  0
  1 17  1  0  0  0  0
  1 16  1  0  0  0  0
  1 15  1  0  0  0  0
  2  7  1  0  0  0  0
  2 15  1  0  0  0  0
  3 17  1  0  0  0  0
  3 19  1  0  0  0  0
  3  5  1  0  0  0  0
  4 14  1  0  0  0  0
  4  8  1  0  0  0  0
  6  5  1  0  0  0  0
  7 23  1  0  0  0  0
  8 23  2  0  0  0  0
  9 11  1  0  0  0  0
 10 18  1  0  0  0  0
 12  2  1  0  0  0  0
 13 22  1  0  0  0  0
 13  6  1  0  0  0  0
 14  7  1  0  0  0  0
 15 26  1  0  0  0  0
 16 19  1  0  0  0  0
 16  9  1  0  0  0  0
 18 22  2  0  0  0  0
 20  4  1  0  0  0  0
 21 10  2  0  0  0  0
 21 24  1  0  0  0  0
 22 17  1  0  0  0  0
 23 25  1  0  0  0  0
 24 13  2  0  0  0  0
 25 11  1  0  0  0  0
 26 11  1  0  0  0  0
 27 14  2  0  0  0  0
 28 19  1  0  0  0  0
 29 28  1  0  0  0  0
 30 29  1  0  0  0  0
 31 32  2  0  0  0  0
 32 29  1  0  0  0  0
 33 37  1  0  0  0  0
 34 32  1  0  0  0  0
 35 39  1  0  0  0  0
 36 38  2  0  0  0  0
 37 34  1  0  0  0  0
 38 33  1  0  0  0  0
 39 38  1  0  0  0  0
 39 40  1  0  0  0  0
 40 41  1  0  0  0  0
 40 34  1  0  0  0  0
 41 42  3  0  0  0  0
M  END
>  <MODEL>
8

>  <REMARK>
 VINA RESULT:      -8.9      3.220      6.894
  Name = 
  5 active torsions:
  status: ('A' for Active; 'I' for Inactive)
    1  A    between atoms: C_3  and  C_41
    2  A    between atoms: C_14  and  C_20
    3  A    between atoms: C_14  and  N_29
    4  A    between atoms: C_20  and  C_41
    5  A    between atoms: C_39  and  C_40
                            x       y       z     vdW  Elec       q    Type
                         _______ _______ _______ _____ _____    ______ ____

>  <TORSDO>
F 5

$$$$
=
 OpenBabel11062420043D

 42 48  0  0  1  0  0  0  0  0999 V2000
  192.8860  174.0930  144.0080 C   0  0  1  0  0  3  0  0  0  0  0  0
  195.3460  174.5800  143.8080 C   0  0  2  0  0  3  0  0  0  0  0  0
  190.6110  174.2280  144.2810 C   0  0  1  0  0  3  0  0  0  0  0  0
  196.8620  174.6990  140.7310 N   0  0  0  0  0  0  0  0  0  0  0  0
  189.4200  173.9520  145.1850 C   0  0  0  0  0  2  0  0  0  0  0  0
  189.3200  175.1010  146.2070 C   0  0  0  0  0  2  0  0  0  0  0  0
  196.3350  173.8540  142.8920 C   0  0  2  0  0  3  0  0  0  0  0  0
  195.9260  173.6770  140.5790 N   0  0  0  0  0  0  0  0  0  0  0  0
  192.6000  171.7650  142.9540 C   0  0  0  0  0  2  0  0  0  0  0  0
  193.0670  176.7210  147.5410 N   0  0  0  0  0  0  0  0  0  0  0  0
  194.1070  171.5940  143.0260 C   0  0  1  0  0  3  0  0  0  0  0  0
  196.0370  175.2580  144.8110 O   0  0  0  0  0  1  0  0  0  0  0  0
  190.6600  175.6400  146.6870 C   0  0  0  0  0  0  0  0  0  0  0  0
  197.1280  174.8440  142.1090 C   0  0  0  0  0  0  0  0  0  0  0  0
  194.2990  173.6770  144.4540 C   0  0  2  0  0  3  0  0  0  0  0  0
  192.2010  173.2420  142.9170 C   0  0  1  0  0  3  0  0  0  0  0  0
  191.8610  174.0990  145.1040 C   0  0  2  0  0  3  0  0  0  0  0  0
  193.0840  175.7650  146.5750 C   0  0  0  0  0  3  0  0  0  0  0  0
  190.7530  173.3250  143.1460 N   0  0  0  0  0  0  0  0  0  0  0  0
  197.1770  175.6660  139.6930 C   0  0  0  0  0  1  0  0  0  0  0  0
  191.9020  177.1680  148.0850 C   0  0  0  0  0  3  0  0  0  0  0  0
  191.8840  175.2230  146.1000 C   0  0  0  0  0  0  0  0  0  0  0  0
  195.6200  173.1800  141.7370 C   0  0  0  0  0  0  0  0  0  0  0  0
  190.6780  176.6350  147.6660 C   0  0  0  0  0  3  0  0  0  0  0  0
  194.7230  172.1080  141.8380 O   0  0  0  0  0  0  0  0  0  0  0  0
  194.6060  172.1800  144.3460 C   0  0  0  0  0  2  0  0  0  0  0  0
  197.9200  175.7020  142.5880 O   0  0  0  0  0  0  0  0  0  0  0  0
  190.1870  174.0000  141.9870 C   0  0  0  0  0  2  0  0  0  0  0  0
  188.7170  174.2960  142.2260 C   0  0  2  0  0  3  0  0  0  0  0  0
  187.8900  173.0410  142.0150 C   0  0  0  0  0  1  0  0  0  0  0  0
  188.1920  175.2410  140.1380 O   0  0  0  0  0  0  0  0  0  0  0  0
  188.2480  175.4190  141.3450 C   0  0  0  0  0  0  0  0  0  0  0  0
  185.8560  178.3050  142.1640 C   0  0  0  0  0  2  0  0  0  0  0  0
  187.7840  176.7240  141.9350 C   0  0  1  0  0  3  0  0  0  0  0  0
  186.1730  176.4320  144.7620 F   0  0  0  0  0  0  0  0  0  0  0  0
  185.9460  179.5120  144.1880 O   0  0  0  0  0  0  0  0  0  0  0  0
  186.3010  176.9430  141.6410 C   0  0  0  0  0  2  0  0  0  0  0  0
  186.2540  178.4900  143.6010 C   0  0  0  0  0  0  0  0  0  0  0  0
  187.0350  177.4230  144.3220 C   0  0  2  0  0  3  0  0  0  0  0  0
  188.1290  176.8050  143.4360 C   0  0  2  0  0  3  0  0  0  0  0  0
  189.3890  177.5350  143.6180 C   0  0  0  0  0  0  0  0  0  0  0  0
  190.4280  178.1340  143.7640 C   0  0  0  0  0  3  0  0  0  0  0  0
  1 15  1  0  0  0  0
  1 17  1  0  0  0  0
  2 15  1  0  0  0  0
  2 12  1  0  0  0  0
  3 17  1  0  0  0  0
  3  5  1  0  0  0  0
  4 14  1  0  0  0  0
  5  6  1  0  0  0  0
  6 13  1  0  0  0  0
  7  2  1  0  0  0  0
  8  4  1  0  0  0  0
  8 23  2  0  0  0  0
  9 11  1  0  0  0  0
 10 21  1  0  0  0  0
 11 26  1  0  0  0  0
 13 24  1  0  0  0  0
 14 27  2  0  0  0  0
 14  7  1  0  0  0  0
 16  9  1  0  0  0  0
 16 19  1  0  0  0  0
 16  1  1  0  0  0  0
 17 22  1  0  0  0  0
 18 10  2  0  0  0  0
 19  3  1  0  0  0  0
 20  4  1  0  0  0  0
 22 18  1  0  0  0  0
 22 13  2  0  0  0  0
 23 25  1  0  0  0  0
 23  7  1  0  0  0  0
 24 21  2  0  0  0  0
 25 11  1  0  0  0  0
 26 15  1  0  0  0  0
 28 29  1  0  0  0  0
 28 19  1  0  0  0  0
 30 29  1  0  0  0  0
 31 32  2  0  0  0  0
 32 34  1  0  0  0  0
 32 29  1  0  0  0  0
 33 38  1  0  0  0  0
 34 40  1  0  0  0  0
 37 34  1  0  0  0  0
 37 33  1  0  0  0  0
 38 36  2  0  0  0  0
 38 39  1  0  0  0  0
 39 35  1  0  0  0  0
 40 41  1  0  0  0  0
 40 39  1  0  0  0  0
 41 42  3  0  0  0  0
M  END
>  <MODEL>
9

>  <REMARK>
 VINA RESULT:      -8.9      2.369      5.229
  Name = 
  5 active torsions:
  status: ('A' for Active; 'I' for Inactive)
    1  A    between atoms: C_3  and  C_41
    2  A    between atoms: C_14  and  C_20
    3  A    between atoms: C_14  and  N_29
    4  A    between atoms: C_20  and  C_41
    5  A    between atoms: C_39  and  C_40
                            x       y       z     vdW  Elec       q    Type
                         _______ _______ _______ _____ _____    ______ ____

>  <TORSDO>
F 5

$$$$
