=
 OpenBabel11072408263D

 34 36  0  0  1  0  0  0  0  0999 V2000
  193.2180  174.2190  145.9250 C   0  0  2  0  0  3  0  0  0  0  0  0
  192.9590  175.6810  146.0620 C   0  0  0  0  0  2  0  0  0  0  0  0
  191.5750  175.8620  145.4650 C   0  0  1  0  0  0  0  0  0  0  0  0
  194.5690  173.9830  145.6660 O   0  0  0  0  0  1  0  0  0  0  0  0
  192.3150  173.8100  144.7750 C   0  0  1  0  0  3  0  0  0  0  0  0
  191.2580  174.7370  144.6700 O   0  0  0  0  0  0  0  0  0  0  0  0
  190.8590  177.0240  147.4680 O   0  0  0  0  0  1  0  0  0  0  0  0
  190.5260  175.9880  146.5910 C   0  0  1  0  0  3  0  0  0  0  0  0
  189.0760  176.8460  144.6480 C   0  0  2  0  0  3  0  0  0  0  0  0
  191.5880  177.1160  144.5710 C   0  0  0  0  0  2  0  0  0  0  0  0
  189.1060  176.2200  146.0480 C   0  0  0  0  0  2  0  0  0  0  0  0
  190.2320  177.8270  144.4680 C   0  0  0  0  0  2  0  0  0  0  0  0
  193.0320  173.6560  143.4260 C   0  0  2  0  0  3  0  0  0  0  0  0
  192.7510  174.7330  142.5750 O   0  0  0  0  0  1  0  0  0  0  0  0
  190.8610  168.9520  141.8040 O   0  0  0  0  0  1  0  0  0  0  0  0
  192.2270  171.5200  143.7610 O   0  0  0  0  0  0  0  0  0  0  0  0
  192.6850  172.3770  142.8020 N   0  0  0  0  0  0  0  0  0  0  0  0
  191.6070  172.6270  141.8340 C   0  0  0  0  0  2  0  0  0  0  0  0
  191.6450  170.1060  141.8540 C   0  0  1  0  0  3  0  0  0  0  0  0
  189.6360  171.3560  142.2920 O   0  0  0  0  0  1  0  0  0  0  0  0
  190.8080  171.3500  141.5330 C   0  0  1  0  0  3  0  0  0  0  0  0
  192.3410  170.2220  143.2200 C   0  0  0  0  0  2  0  0  0  0  0  0
  187.7460  177.5390  144.4320 C   0  0  0  0  0  2  0  0  0  0  0  0
  186.6700  176.5160  143.3760 S   0  0  0  0  0  0  0  0  0  0  0  0
  185.5330  177.8720  142.9120 C   0  0  1  0  0  3  0  0  0  0  0  0
  185.9760  179.2100  143.4990 C   0  0  0  0  0  2  0  0  0  0  0  0
  184.8590  179.8630  144.2980 C   0  0  0  0  0  2  0  0  0  0  0  0
  184.0750  178.8160  145.0740 C   0  0  0  0  0  2  0  0  0  0  0  0
  184.6920  178.6160  146.4460 C   0  0  0  0  0  2  0  0  0  0  0  0
  185.9490  177.2990  147.6940 C   0  0  0  0  0  1  0  0  0  0  0  0
  185.0780  177.2840  146.6050 O   0  0  0  0  0  0  0  0  0  0  0  0
  185.3830  177.9550  141.3980 C   0  0  0  0  0  2  0  0  0  0  0  0
  186.4740  177.1860  139.4140 O   0  0  0  0  0  1  0  0  0  0  0  0
  186.7060  177.6800  140.6990 C   0  0  0  0  0  2  0  0  0  0  0  0
  1  4  1  6  0  0  0
  1  2  1  0  0  0  0
  3 10  1  6  0  0  0
  3  2  1  0  0  0  0
  3  8  1  0  0  0  0
  5 13  1  6  0  0  0
  5  1  1  0  0  0  0
  6  5  1  0  0  0  0
  6  3  1  0  0  0  0
  8  7  1  1  0  0  0
  9 23  1  1  0  0  0
  9 11  1  0  0  0  0
 11  8  1  0  0  0  0
 12 10  1  0  0  0  0
 12  9  1  0  0  0  0
 13 14  1  6  0  0  0
 17 13  1  0  0  0  0
 17 16  1  0  0  0  0
 18 17  1  0  0  0  0
 19 15  1  1  0  0  0
 19 22  1  0  0  0  0
 21 18  1  0  0  0  0
 21 19  1  0  0  0  0
 21 20  1  1  0  0  0
 22 16  1  0  0  0  0
 24 23  1  0  0  0  0
 25 32  1  6  0  0  0
 25 24  1  0  0  0  0
 25 26  1  0  0  0  0
 26 27  1  0  0  0  0
 27 28  1  0  0  0  0
 28 29  1  0  0  0  0
 29 31  1  0  0  0  0
 31 30  1  0  0  0  0
 33 34  1  0  0  0  0
 34 32  1  0  0  0  0
M  END
>  <MODEL>
1

>  <REMARK>
 VINA RESULT:      -6.2      0.000      0.000
  Name = 
  12 active torsions:
  status: ('A' for Active; 'I' for Inactive)
    1  A    between atoms: C_2  and  C_10
    2  A    between atoms: C_2  and  C_27
    3  A    between atoms: C_4  and  C_13
    4  A    between atoms: C_4  and  N_19
    5  A    between atoms: C_8  and  S_9
    6  A    between atoms: C_8  and  C_24
    7  A    between atoms: S_9  and  C_10
    8  A    between atoms: C_10  and  C_22
    9  A    between atoms: C_15  and  C_22
   10  A    between atoms: C_23  and  O_33
   11  A    between atoms: C_23  and  C_34
   12  A    between atoms: C_27  and  C_34
                            x       y       z     vdW  Elec       q    Type
                         _______ _______ _______ _____ _____    ______ ____

>  <TORSDO>
F 12

$$$$
=
 OpenBabel11072408263D

 34 36  0  0  1  0  0  0  0  0999 V2000
  187.7670  175.2470  142.3290 C   0  0  2  0  0  3  0  0  0  0  0  0
  188.9300  174.6760  141.5910 C   0  0  0  0  0  2  0  0  0  0  0  0
  189.9520  174.4020  142.6790 C   0  0  1  0  0  0  0  0  0  0  0  0
  187.1280  176.2200  141.5580 O   0  0  0  0  0  1  0  0  0  0  0  0
  188.3960  175.8100  143.5910 C   0  0  1  0  0  3  0  0  0  0  0  0
  189.6100  175.1380  143.8370 O   0  0  0  0  0  0  0  0  0  0  0  0
  190.1880  172.1230  141.8900 O   0  0  0  0  0  1  0  0  0  0  0  0
  189.9600  172.8980  143.0300 C   0  0  1  0  0  3  0  0  0  0  0  0
  192.1730  173.5480  144.1680 C   0  0  2  0  0  3  0  0  0  0  0  0
  191.3340  174.8680  142.1830 C   0  0  0  0  0  2  0  0  0  0  0  0
  191.0110  172.5500  144.0980 C   0  0  0  0  0  2  0  0  0  0  0  0
  192.5110  174.0850  142.7790 C   0  0  0  0  0  2  0  0  0  0  0  0
  188.6160  177.3300  143.5690 C   0  0  2  0  0  3  0  0  0  0  0  0
  189.9530  177.6540  143.8380 O   0  0  0  0  0  1  0  0  0  0  0  0
  184.4870  179.0640  146.6370 O   0  0  0  0  0  1  0  0  0  0  0  0
  186.4890  178.1540  143.9060 O   0  0  0  0  0  0  0  0  0  0  0  0
  187.7060  177.9960  144.5030 N   0  0  0  0  0  0  0  0  0  0  0  0
  187.5490  177.1240  145.6770 C   0  0  0  0  0  2  0  0  0  0  0  0
  185.7730  178.8530  146.1370 C   0  0  1  0  0  3  0  0  0  0  0  0
  185.2770  176.5000  146.0730 O   0  0  0  0  0  1  0  0  0  0  0  0
  186.2520  177.4290  146.4400 C   0  0  1  0  0  3  0  0  0  0  0  0
  185.8200  179.1630  144.6310 C   0  0  0  0  0  2  0  0  0  0  0  0
  193.3810  172.8760  144.7900 C   0  0  0  0  0  2  0  0  0  0  0  0
  194.8480  173.1240  143.7390 S   0  0  0  0  0  0  0  0  0  0  0  0
  195.3270  174.7290  144.4750 C   0  0  1  0  0  3  0  0  0  0  0  0
  195.0840  174.7560  145.9830 C   0  0  0  0  0  2  0  0  0  0  0  0
  194.5930  176.1200  146.4410 C   0  0  0  0  0  2  0  0  0  0  0  0
  193.2120  176.4090  145.8740 C   0  0  0  0  0  2  0  0  0  0  0  0
  192.1860  176.4320  146.9920 C   0  0  0  0  0  2  0  0  0  0  0  0
  190.3580  175.2420  147.3290 C   0  0  0  0  0  1  0  0  0  0  0  0
  191.7470  175.1350  147.2630 O   0  0  0  0  0  0  0  0  0  0  0  0
  196.7750  175.0630  144.1430 C   0  0  0  0  0  2  0  0  0  0  0  0
  195.6540  176.5020  142.5970 O   0  0  0  0  0  1  0  0  0  0  0  0
  196.8660  176.2970  143.2570 C   0  0  0  0  0  2  0  0  0  0  0  0
  1  4  1  6  0  0  0
  1  5  1  0  0  0  0
  2  1  1  0  0  0  0
  3  2  1  6  0  0  0
  3  8  1  0  0  0  0
  3  6  1  0  0  0  0
  5 13  1  6  0  0  0
  5  6  1  0  0  0  0
  8  7  1  6  0  0  0
  8 11  1  0  0  0  0
  9 23  1  6  0  0  0
 10  3  1  0  0  0  0
 10 12  1  0  0  0  0
 11  9  1  0  0  0  0
 12  9  1  0  0  0  0
 13 14  1  1  0  0  0
 13 17  1  0  0  0  0
 16 17  1  0  0  0  0
 16 22  1  0  0  0  0
 17 18  1  0  0  0  0
 18 21  1  0  0  0  0
 19 21  1  0  0  0  0
 19 15  1  6  0  0  0
 21 20  1  6  0  0  0
 22 19  1  0  0  0  0
 24 25  1  0  0  0  0
 24 23  1  0  0  0  0
 25 32  1  1  0  0  0
 25 26  1  0  0  0  0
 26 27  1  0  0  0  0
 28 27  1  0  0  0  0
 28 29  1  0  0  0  0
 29 31  1  0  0  0  0
 31 30  1  0  0  0  0
 33 34  1  0  0  0  0
 34 32  1  0  0  0  0
M  END
>  <MODEL>
2

>  <REMARK>
 VINA RESULT:      -6.2      2.969      8.021
  Name = 
  12 active torsions:
  status: ('A' for Active; 'I' for Inactive)
    1  A    between atoms: C_2  and  C_10
    2  A    between atoms: C_2  and  C_27
    3  A    between atoms: C_4  and  C_13
    4  A    between atoms: C_4  and  N_19
    5  A    between atoms: C_8  and  S_9
    6  A    between atoms: C_8  and  C_24
    7  A    between atoms: S_9  and  C_10
    8  A    between atoms: C_10  and  C_22
    9  A    between atoms: C_15  and  C_22
   10  A    between atoms: C_23  and  O_33
   11  A    between atoms: C_23  and  C_34
   12  A    between atoms: C_27  and  C_34
                            x       y       z     vdW  Elec       q    Type
                         _______ _______ _______ _____ _____    ______ ____

>  <TORSDO>
F 12

$$$$
=
 OpenBabel11072408263D

 34 36  0  0  1  0  0  0  0  0999 V2000
  193.3790  175.3660  146.2460 C   0  0  2  0  0  3  0  0  0  0  0  0
  192.3250  176.3810  146.5270 C   0  0  0  0  0  2  0  0  0  0  0  0
  191.2890  176.1390  145.4440 C   0  0  1  0  0  0  0  0  0  0  0  0
  194.6440  175.8760  146.5470 O   0  0  0  0  0  1  0  0  0  0  0  0
  193.1960  175.0710  144.7680 C   0  0  1  0  0  3  0  0  0  0  0  0
  191.8740  175.3900  144.3970 O   0  0  0  0  0  0  0  0  0  0  0  0
  189.5540  175.9950  147.1300 O   0  0  0  0  0  1  0  0  0  0  0  0
  190.0980  175.3430  146.0210 C   0  0  1  0  0  3  0  0  0  0  0  0
  188.9850  176.1330  143.8410 C   0  0  2  0  0  3  0  0  0  0  0  0
  190.8340  177.5010  144.8880 C   0  0  0  0  0  2  0  0  0  0  0  0
  188.9920  175.1050  144.9780 C   0  0  0  0  0  2  0  0  0  0  0  0
  189.3950  177.5110  144.3530 C   0  0  0  0  0  2  0  0  0  0  0  0
  194.1990  175.7820  143.8480 C   0  0  2  0  0  3  0  0  0  0  0  0
  193.5490  176.4190  142.7820 O   0  0  0  0  0  1  0  0  0  0  0  0
  197.9310  172.9210  141.1360 O   0  0  0  0  0  1  0  0  0  0  0  0
  194.9620  174.5370  142.0620 O   0  0  0  0  0  0  0  0  0  0  0  0
  195.2150  174.8410  143.3690 N   0  0  0  0  0  0  0  0  0  0  0  0
  196.5220  175.5080  143.4570 C   0  0  0  0  0  2  0  0  0  0  0  0
  197.1400  173.4310  142.1660 C   0  0  1  0  0  3  0  0  0  0  0  0
  197.6400  175.6390  141.3480 O   0  0  0  0  0  1  0  0  0  0  0  0
  197.5490  174.8680  142.5100 C   0  0  1  0  0  3  0  0  0  0  0  0
  195.6500  173.3350  141.7950 C   0  0  0  0  0  2  0  0  0  0  0  0
  187.6060  176.1840  143.2120 C   0  0  0  0  0  2  0  0  0  0  0  0
  187.5540  177.4680  141.9210 S   0  0  0  0  0  0  0  0  0  0  0  0
  185.8700  178.0580  142.3240 C   0  0  1  0  0  3  0  0  0  0  0  0
  185.9020  179.3320  143.1660 C   0  0  0  0  0  2  0  0  0  0  0  0
  185.8490  179.0150  144.6530 C   0  0  0  0  0  2  0  0  0  0  0  0
  184.6980  178.0690  144.9560 C   0  0  0  0  0  2  0  0  0  0  0  0
  185.0750  177.1400  146.0960 C   0  0  0  0  0  2  0  0  0  0  0  0
  186.3750  177.6470  147.8060 C   0  0  0  0  0  1  0  0  0  0  0  0
  186.4120  177.3360  146.4480 O   0  0  0  0  0  0  0  0  0  0  0  0
  185.0500  178.2550  141.0550 C   0  0  0  0  0  2  0  0  0  0  0  0
  182.8670  177.8110  140.1880 O   0  0  0  0  0  1  0  0  0  0  0  0
  183.5590  178.1740  141.3450 C   0  0  0  0  0  2  0  0  0  0  0  0
  1  2  1  0  0  0  0
  1  4  1  6  0  0  0
  3 10  1  6  0  0  0
  3  8  1  0  0  0  0
  3  2  1  0  0  0  0
  5 13  1  6  0  0  0
  5  1  1  0  0  0  0
  6  5  1  0  0  0  0
  6  3  1  0  0  0  0
  8  7  1  1  0  0  0
  9 23  1  1  0  0  0
  9 12  1  0  0  0  0
  9 11  1  0  0  0  0
 11  8  1  0  0  0  0
 12 10  1  0  0  0  0
 13 14  1  6  0  0  0
 16 17  1  0  0  0  0
 17 18  1  0  0  0  0
 17 13  1  0  0  0  0
 19 15  1  6  0  0  0
 19 21  1  0  0  0  0
 21 20  1  6  0  0  0
 21 18  1  0  0  0  0
 22 16  1  0  0  0  0
 22 19  1  0  0  0  0
 24 25  1  0  0  0  0
 24 23  1  0  0  0  0
 25 32  1  6  0  0  0
 25 26  1  0  0  0  0
 26 27  1  0  0  0  0
 27 28  1  0  0  0  0
 28 29  1  0  0  0  0
 29 31  1  0  0  0  0
 31 30  1  0  0  0  0
 32 34  1  0  0  0  0
 33 34  1  0  0  0  0
M  END
>  <MODEL>
3

>  <REMARK>
 VINA RESULT:      -6.2      2.723      3.466
  Name = 
  12 active torsions:
  status: ('A' for Active; 'I' for Inactive)
    1  A    between atoms: C_2  and  C_10
    2  A    between atoms: C_2  and  C_27
    3  A    between atoms: C_4  and  C_13
    4  A    between atoms: C_4  and  N_19
    5  A    between atoms: C_8  and  S_9
    6  A    between atoms: C_8  and  C_24
    7  A    between atoms: S_9  and  C_10
    8  A    between atoms: C_10  and  C_22
    9  A    between atoms: C_15  and  C_22
   10  A    between atoms: C_23  and  O_33
   11  A    between atoms: C_23  and  C_34
   12  A    between atoms: C_27  and  C_34
                            x       y       z     vdW  Elec       q    Type
                         _______ _______ _______ _____ _____    ______ ____

>  <TORSDO>
F 12

$$$$
=
 OpenBabel11072408263D

 34 36  0  0  1  0  0  0  0  0999 V2000
  193.9080  174.6830  145.5980 C   0  0  2  0  0  3  0  0  0  0  0  0
  193.3360  176.0220  145.9180 C   0  0  0  0  0  2  0  0  0  0  0  0
  191.8360  175.8060  145.8350 C   0  0  1  0  0  0  0  0  0  0  0  0
  195.1000  174.8190  144.8840 O   0  0  0  0  0  1  0  0  0  0  0  0
  192.8080  174.0170  144.7910 C   0  0  1  0  0  3  0  0  0  0  0  0
  191.5740  174.6180  145.1140 O   0  0  0  0  0  0  0  0  0  0  0  0
  191.5690  176.7750  148.0400 O   0  0  0  0  0  1  0  0  0  0  0  0
  191.2420  175.6670  147.2540 C   0  0  1  0  0  3  0  0  0  0  0  0
  189.0420  176.0520  145.9770 C   0  0  2  0  0  3  0  0  0  0  0  0
  191.2100  176.9940  145.0810 C   0  0  0  0  0  2  0  0  0  0  0  0
  189.7140  175.4910  147.2360 C   0  0  0  0  0  2  0  0  0  0  0  0
  189.7640  177.3060  145.4910 C   0  0  0  0  0  2  0  0  0  0  0  0
  193.0330  174.0320  143.2730 C   0  0  2  0  0  3  0  0  0  0  0  0
  192.4090  175.1380  142.6770 O   0  0  0  0  0  1  0  0  0  0  0  0
  190.6660  169.3340  141.9340 O   0  0  0  0  0  1  0  0  0  0  0  0
  192.3960  171.8500  143.6580 O   0  0  0  0  0  0  0  0  0  0  0  0
  192.5810  172.7760  142.6720 N   0  0  0  0  0  0  0  0  0  0  0  0
  191.2920  173.0310  142.0120 C   0  0  0  0  0  2  0  0  0  0  0  0
  191.4050  170.5170  141.8640 C   0  0  1  0  0  3  0  0  0  0  0  0
  189.5300  171.6530  142.8540 O   0  0  0  0  0  1  0  0  0  0  0  0
  190.4810  171.7390  141.8350 C   0  0  1  0  0  3  0  0  0  0  0  0
  192.4110  170.5890  143.0240 C   0  0  0  0  0  2  0  0  0  0  0  0
  187.5860  176.3510  146.2700 C   0  0  0  0  0  2  0  0  0  0  0  0
  186.6900  176.6830  144.7190 S   0  0  0  0  0  0  0  0  0  0  0  0
  185.8840  178.2180  145.3020 C   0  0  1  0  0  3  0  0  0  0  0  0
  185.4720  179.1200  144.1400 C   0  0  0  0  0  2  0  0  0  0  0  0
  184.0770  178.7790  143.6410 C   0  0  0  0  0  2  0  0  0  0  0  0
  184.1440  178.1220  142.2730 C   0  0  0  0  0  2  0  0  0  0  0  0
  185.4590  178.4650  141.5950 C   0  0  0  0  0  2  0  0  0  0  0  0
  186.2260  177.5090  139.7600 C   0  0  0  0  0  1  0  0  0  0  0  0
  186.0730  177.3010  141.1300 O   0  0  0  0  0  0  0  0  0  0  0  0
  184.6950  177.8940  146.1990 C   0  0  0  0  0  2  0  0  0  0  0  0
  186.0360  179.2270  147.6620 O   0  0  0  0  0  1  0  0  0  0  0  0
  184.7690  178.6620  147.5100 C   0  0  0  0  0  2  0  0  0  0  0  0
  1  4  1  6  0  0  0
  1  2  1  0  0  0  0
  3 10  1  6  0  0  0
  3  2  1  0  0  0  0
  3  8  1  0  0  0  0
  5 13  1  6  0  0  0
  5  6  1  0  0  0  0
  5  1  1  0  0  0  0
  6  3  1  0  0  0  0
  8  7  1  1  0  0  0
  9 23  1  1  0  0  0
  9 11  1  0  0  0  0
 10 12  1  0  0  0  0
 11  8  1  0  0  0  0
 12  9  1  0  0  0  0
 13 14  1  6  0  0  0
 17 13  1  0  0  0  0
 17 16  1  0  0  0  0
 18 17  1  0  0  0  0
 19 15  1  1  0  0  0
 19 22  1  0  0  0  0
 21 19  1  0  0  0  0
 21 18  1  0  0  0  0
 21 20  1  1  0  0  0
 22 16  1  0  0  0  0
 24 25  1  0  0  0  0
 24 23  1  0  0  0  0
 25 26  1  6  0  0  0
 25 32  1  0  0  0  0
 27 26  1  0  0  0  0
 28 27  1  0  0  0  0
 29 28  1  0  0  0  0
 30 31  1  0  0  0  0
 31 29  1  0  0  0  0
 32 34  1  0  0  0  0
 34 33  1  0  0  0  0
M  END
>  <MODEL>
4

>  <REMARK>
 VINA RESULT:      -6.1      1.054      2.988
  Name = 
  12 active torsions:
  status: ('A' for Active; 'I' for Inactive)
    1  A    between atoms: C_2  and  C_10
    2  A    between atoms: C_2  and  C_27
    3  A    between atoms: C_4  and  C_13
    4  A    between atoms: C_4  and  N_19
    5  A    between atoms: C_8  and  S_9
    6  A    between atoms: C_8  and  C_24
    7  A    between atoms: S_9  and  C_10
    8  A    between atoms: C_10  and  C_22
    9  A    between atoms: C_15  and  C_22
   10  A    between atoms: C_23  and  O_33
   11  A    between atoms: C_23  and  C_34
   12  A    between atoms: C_27  and  C_34
                            x       y       z     vdW  Elec       q    Type
                         _______ _______ _______ _____ _____    ______ ____

>  <TORSDO>
F 12

$$$$
=
 OpenBabel11072408263D

 34 36  0  0  1  0  0  0  0  0999 V2000
  187.0390  175.9190  141.8630 C   0  0  2  0  0  3  0  0  0  0  0  0
  188.2290  175.3300  141.1850 C   0  0  0  0  0  2  0  0  0  0  0  0
  189.0230  174.7090  142.3200 C   0  0  1  0  0  0  0  0  0  0  0  0
  186.6520  177.1030  141.2310 O   0  0  0  0  0  1  0  0  0  0  0  0
  187.5200  176.1380  143.2860 C   0  0  1  0  0  3  0  0  0  0  0  0
  188.5900  175.2600  143.5480 O   0  0  0  0  0  0  0  0  0  0  0  0
  189.1100  172.6080  141.1160 O   0  0  0  0  0  1  0  0  0  0  0  0
  188.7960  173.1820  142.3510 C   0  0  1  0  0  3  0  0  0  0  0  0
  190.8600  173.2730  143.8840 C   0  0  2  0  0  3  0  0  0  0  0  0
  190.5120  175.0490  142.1190 C   0  0  0  0  0  2  0  0  0  0  0  0
  189.6140  172.4890  143.4550 C   0  0  0  0  0  2  0  0  0  0  0  0
  191.4770  174.0030  142.6930 C   0  0  0  0  0  2  0  0  0  0  0  0
  187.9190  177.5850  143.6070 C   0  0  2  0  0  3  0  0  0  0  0  0
  189.2720  177.6710  143.9680 O   0  0  0  0  0  1  0  0  0  0  0  0
  184.3920  178.5690  147.6150 O   0  0  0  0  0  1  0  0  0  0  0  0
  185.8380  177.5180  144.5990 O   0  0  0  0  0  0  0  0  0  0  0  0
  187.0520  178.1390  144.6500 N   0  0  0  0  0  0  0  0  0  0  0  0
  187.6770  177.8570  145.9500 C   0  0  0  0  0  2  0  0  0  0  0  0
  185.4250  178.7200  146.6870 C   0  0  1  0  0  3  0  0  0  0  0  0
  186.2670  176.5810  147.3980 O   0  0  0  0  0  1  0  0  0  0  0  0
  186.6480  177.8890  147.0910 C   0  0  1  0  0  3  0  0  0  0  0  0
  184.9320  178.3620  145.2750 C   0  0  0  0  0  2  0  0  0  0  0  0
  191.8640  172.3250  144.5100 C   0  0  0  0  0  2  0  0  0  0  0  0
  193.4190  172.3430  143.5610 S   0  0  0  0  0  0  0  0  0  0  0  0
  194.4070  173.1810  144.8520 C   0  0  1  0  0  3  0  0  0  0  0  0
  193.5230  173.7750  145.9470 C   0  0  0  0  0  2  0  0  0  0  0  0
  193.7390  175.2740  146.0810 C   0  0  0  0  0  2  0  0  0  0  0  0
  192.4170  176.0160  145.9710 C   0  0  0  0  0  2  0  0  0  0  0  0
  191.4250  175.4640  146.9790 C   0  0  0  0  0  2  0  0  0  0  0  0
  189.3660  174.6980  147.1870 C   0  0  0  0  0  1  0  0  0  0  0  0
  190.1220  175.6620  146.5210 O   0  0  0  0  0  0  0  0  0  0  0  0
  195.4460  172.2320  145.4360 C   0  0  0  0  0  2  0  0  0  0  0  0
  194.7120  170.1300  146.3060 O   0  0  0  0  0  1  0  0  0  0  0  0
  195.0980  170.7820  145.1350 C   0  0  0  0  0  2  0  0  0  0  0  0
  1  4  1  6  0  0  0
  1  5  1  0  0  0  0
  2  1  1  0  0  0  0
  3  2  1  6  0  0  0
  3  8  1  0  0  0  0
  3  6  1  0  0  0  0
  5  6  1  0  0  0  0
  5 13  1  6  0  0  0
  8  7  1  6  0  0  0
  8 11  1  0  0  0  0
  9 23  1  6  0  0  0
 10  3  1  0  0  0  0
 10 12  1  0  0  0  0
 11  9  1  0  0  0  0
 12  9  1  0  0  0  0
 13 14  1  1  0  0  0
 13 17  1  0  0  0  0
 16 17  1  0  0  0  0
 16 22  1  0  0  0  0
 17 18  1  0  0  0  0
 18 21  1  0  0  0  0
 19 21  1  0  0  0  0
 19 15  1  1  0  0  0
 21 20  1  6  0  0  0
 22 19  1  0  0  0  0
 24 23  1  0  0  0  0
 24 25  1  0  0  0  0
 25 32  1  1  0  0  0
 25 26  1  0  0  0  0
 26 27  1  0  0  0  0
 28 27  1  0  0  0  0
 28 29  1  0  0  0  0
 31 29  1  0  0  0  0
 31 30  1  0  0  0  0
 34 32  1  0  0  0  0
 34 33  1  0  0  0  0
M  END
>  <MODEL>
5

>  <REMARK>
 VINA RESULT:      -6.1      2.954      8.241
  Name = 
  12 active torsions:
  status: ('A' for Active; 'I' for Inactive)
    1  A    between atoms: C_2  and  C_10
    2  A    between atoms: C_2  and  C_27
    3  A    between atoms: C_4  and  C_13
    4  A    between atoms: C_4  and  N_19
    5  A    between atoms: C_8  and  S_9
    6  A    between atoms: C_8  and  C_24
    7  A    between atoms: S_9  and  C_10
    8  A    between atoms: C_10  and  C_22
    9  A    between atoms: C_15  and  C_22
   10  A    between atoms: C_23  and  O_33
   11  A    between atoms: C_23  and  C_34
   12  A    between atoms: C_27  and  C_34
                            x       y       z     vdW  Elec       q    Type
                         _______ _______ _______ _____ _____    ______ ____

>  <TORSDO>
F 12

$$$$
=
 OpenBabel11072408263D

 34 36  0  0  1  0  0  0  0  0999 V2000
  193.3990  174.8920  146.1730 C   0  0  2  0  0  3  0  0  0  0  0  0
  192.8180  176.2620  146.2630 C   0  0  0  0  0  2  0  0  0  0  0  0
  191.4300  176.1080  145.6680 C   0  0  1  0  0  0  0  0  0  0  0  0
  194.7700  174.9570  145.9140 O   0  0  0  0  0  1  0  0  0  0  0  0
  192.6130  174.2520  145.0430 C   0  0  1  0  0  3  0  0  0  0  0  0
  191.3760  174.9130  144.9130 O   0  0  0  0  0  0  0  0  0  0  0  0
  190.4670  177.1450  147.6350 O   0  0  0  0  0  1  0  0  0  0  0  0
  190.3780  176.0320  146.7960 C   0  0  1  0  0  3  0  0  0  0  0  0
  188.7750  176.4750  144.8340 C   0  0  2  0  0  3  0  0  0  0  0  0
  191.1620  177.3010  144.7330 C   0  0  0  0  0  2  0  0  0  0  0  0
  188.9420  175.9200  146.2530 C   0  0  0  0  0  2  0  0  0  0  0  0
  189.6800  177.6850  144.6140 C   0  0  0  0  0  2  0  0  0  0  0  0
  193.3490  174.2180  143.6960 C   0  0  2  0  0  3  0  0  0  0  0  0
  192.5700  174.7830  142.6760 O   0  0  0  0  0  1  0  0  0  0  0  0
  195.4750  169.2320  143.3930 O   0  0  0  0  0  1  0  0  0  0  0  0
  195.0920  172.7110  143.5870 O   0  0  0  0  0  0  0  0  0  0  0  0
  193.7530  172.8490  143.3630 N   0  0  0  0  0  0  0  0  0  0  0  0
  193.0250  171.9370  144.2580 C   0  0  0  0  0  2  0  0  0  0  0  0
  194.6540  170.3410  143.1810 C   0  0  1  0  0  3  0  0  0  0  0  0
  194.4800  170.5690  145.5700 O   0  0  0  0  0  1  0  0  0  0  0  0
  193.7380  170.5830  144.3870 C   0  0  1  0  0  3  0  0  0  0  0  0
  195.5020  171.5800  142.8500 C   0  0  0  0  0  2  0  0  0  0  0  0
  187.3230  176.8450  144.6020 C   0  0  0  0  0  2  0  0  0  0  0  0
  186.6930  176.0050  143.1120 S   0  0  0  0  0  0  0  0  0  0  0  0
  185.7250  177.4310  142.4990 C   0  0  1  0  0  3  0  0  0  0  0  0
  185.7210  178.5860  143.4990 C   0  0  0  0  0  2  0  0  0  0  0  0
  184.3840  178.6930  144.2160 C   0  0  0  0  0  2  0  0  0  0  0  0
  184.5880  179.0770  145.6720 C   0  0  0  0  0  2  0  0  0  0  0  0
  184.2440  177.9040  146.5720 C   0  0  0  0  0  2  0  0  0  0  0  0
  186.0120  178.6490  147.6630 C   0  0  0  0  0  1  0  0  0  0  0  0
  185.3850  177.4740  147.2510 O   0  0  0  0  0  0  0  0  0  0  0  0
  186.2360  177.8820  141.1360 C   0  0  0  0  0  2  0  0  0  0  0  0
  188.5660  178.3550  141.3850 O   0  0  0  0  0  1  0  0  0  0  0  0
  187.6620  177.4090  140.8990 C   0  0  0  0  0  2  0  0  0  0  0  0
  1  4  1  6  0  0  0
  1  2  1  0  0  0  0
  3 10  1  6  0  0  0
  3  2  1  0  0  0  0
  3  8  1  0  0  0  0
  5 13  1  6  0  0  0
  5  1  1  0  0  0  0
  6  5  1  0  0  0  0
  6  3  1  0  0  0  0
  8  7  1  6  0  0  0
  9 23  1  1  0  0  0
  9 11  1  0  0  0  0
 11  8  1  0  0  0  0
 12 10  1  0  0  0  0
 12  9  1  0  0  0  0
 13 14  1  6  0  0  0
 17 16  1  0  0  0  0
 17 13  1  0  0  0  0
 17 18  1  0  0  0  0
 18 21  1  0  0  0  0
 19 15  1  1  0  0  0
 19 21  1  0  0  0  0
 21 20  1  1  0  0  0
 22 19  1  0  0  0  0
 22 16  1  0  0  0  0
 24 23  1  0  0  0  0
 25 32  1  6  0  0  0
 25 24  1  0  0  0  0
 25 26  1  0  0  0  0
 26 27  1  0  0  0  0
 27 28  1  0  0  0  0
 28 29  1  0  0  0  0
 29 31  1  0  0  0  0
 31 30  1  0  0  0  0
 34 32  1  0  0  0  0
 34 33  1  0  0  0  0
M  END
>  <MODEL>
6

>  <REMARK>
 VINA RESULT:      -5.9      1.825      2.041
  Name = 
  12 active torsions:
  status: ('A' for Active; 'I' for Inactive)
    1  A    between atoms: C_2  and  C_10
    2  A    between atoms: C_2  and  C_27
    3  A    between atoms: C_4  and  C_13
    4  A    between atoms: C_4  and  N_19
    5  A    between atoms: C_8  and  S_9
    6  A    between atoms: C_8  and  C_24
    7  A    between atoms: S_9  and  C_10
    8  A    between atoms: C_10  and  C_22
    9  A    between atoms: C_15  and  C_22
   10  A    between atoms: C_23  and  O_33
   11  A    between atoms: C_23  and  C_34
   12  A    between atoms: C_27  and  C_34
                            x       y       z     vdW  Elec       q    Type
                         _______ _______ _______ _____ _____    ______ ____

>  <TORSDO>
F 12

$$$$
=
 OpenBabel11072408263D

 34 36  0  0  1  0  0  0  0  0999 V2000
  188.0580  175.1460  142.3200 C   0  0  2  0  0  3  0  0  0  0  0  0
  189.4110  174.7050  141.8730 C   0  0  0  0  0  2  0  0  0  0  0  0
  190.2640  174.8280  143.1220 C   0  0  1  0  0  0  0  0  0  0  0  0
  187.4020  175.8290  141.2930 O   0  0  0  0  0  1  0  0  0  0  0  0
  188.3560  176.0270  143.5200 C   0  0  1  0  0  3  0  0  0  0  0  0
  189.6080  175.6640  144.0550 O   0  0  0  0  0  0  0  0  0  0  0  0
  191.0200  172.5440  142.8360 O   0  0  0  0  0  1  0  0  0  0  0  0
  190.4710  173.4370  143.7600 C   0  0  1  0  0  3  0  0  0  0  0  0
  192.3130  174.6990  145.0370 C   0  0  2  0  0  3  0  0  0  0  0  0
  191.6090  175.4720  142.7360 C   0  0  0  0  0  2  0  0  0  0  0  0
  191.3690  173.4910  145.0080 C   0  0  0  0  0  2  0  0  0  0  0  0
  192.7850  175.0520  143.6290 C   0  0  0  0  0  2  0  0  0  0  0  0
  188.3120  177.5340  143.2300 C   0  0  2  0  0  3  0  0  0  0  0  0
  189.5770  178.1200  143.3820 O   0  0  0  0  0  1  0  0  0  0  0  0
  184.0100  179.0420  146.1780 O   0  0  0  0  0  1  0  0  0  0  0  0
  186.0720  177.9840  143.5470 O   0  0  0  0  0  0  0  0  0  0  0  0
  187.3140  178.1930  144.0760 N   0  0  0  0  0  0  0  0  0  0  0  0
  187.3740  177.5720  145.4070 C   0  0  0  0  0  2  0  0  0  0  0  0
  185.2970  178.9840  145.6390 C   0  0  1  0  0  3  0  0  0  0  0  0
  185.2890  176.6180  146.0810 O   0  0  0  0  0  1  0  0  0  0  0  0
  186.0650  177.7750  146.1850 C   0  0  1  0  0  3  0  0  0  0  0  0
  185.2340  178.9740  144.1030 C   0  0  0  0  0  2  0  0  0  0  0  0
  193.4940  174.3970  145.9380 C   0  0  0  0  0  2  0  0  0  0  0  0
  194.7760  175.6770  145.7410 S   0  0  0  0  0  0  0  0  0  0  0  0
  196.1240  174.5160  145.3140 C   0  0  1  0  0  3  0  0  0  0  0  0
  195.6840  173.0600  145.4520 C   0  0  0  0  0  2  0  0  0  0  0  0
  196.8080  172.1900  145.9910 C   0  0  0  0  0  2  0  0  0  0  0  0
  196.6870  170.7710  145.4600 C   0  0  0  0  0  2  0  0  0  0  0  0
  196.5010  169.8000  146.6120 C   0  0  0  0  0  2  0  0  0  0  0  0
  195.1520  168.4270  147.6920 C   0  0  0  0  0  1  0  0  0  0  0  0
  195.2140  169.2610  146.5760 O   0  0  0  0  0  0  0  0  0  0  0  0
  196.6570  174.8020  143.9150 C   0  0  0  0  0  2  0  0  0  0  0  0
  197.4800  176.9080  143.1380 O   0  0  0  0  0  1  0  0  0  0  0  0
  196.3150  176.2170  143.4740 C   0  0  0  0  0  2  0  0  0  0  0  0
  1  4  1  6  0  0  0
  1  5  1  0  0  0  0
  2  1  1  0  0  0  0
  3  2  1  6  0  0  0
  3  8  1  0  0  0  0
  3  6  1  0  0  0  0
  5 13  1  6  0  0  0
  5  6  1  0  0  0  0
  8  7  1  6  0  0  0
  8 11  1  0  0  0  0
  9 23  1  1  0  0  0
 10  3  1  0  0  0  0
 10 12  1  0  0  0  0
 11  9  1  0  0  0  0
 12  9  1  0  0  0  0
 13 14  1  1  0  0  0
 13 17  1  0  0  0  0
 16 17  1  0  0  0  0
 16 22  1  0  0  0  0
 17 18  1  0  0  0  0
 18 21  1  0  0  0  0
 19 15  1  1  0  0  0
 19 21  1  0  0  0  0
 21 20  1  6  0  0  0
 22 19  1  0  0  0  0
 24 23  1  0  0  0  0
 25 32  1  6  0  0  0
 25 26  1  0  0  0  0
 25 24  1  0  0  0  0
 26 27  1  0  0  0  0
 28 27  1  0  0  0  0
 28 29  1  0  0  0  0
 31 29  1  0  0  0  0
 31 30  1  0  0  0  0
 33 34  1  0  0  0  0
 34 32  1  0  0  0  0
M  END
>  <MODEL>
7

>  <REMARK>
 VINA RESULT:      -5.9      3.547      9.170
  Name = 
  12 active torsions:
  status: ('A' for Active; 'I' for Inactive)
    1  A    between atoms: C_2  and  C_10
    2  A    between atoms: C_2  and  C_27
    3  A    between atoms: C_4  and  C_13
    4  A    between atoms: C_4  and  N_19
    5  A    between atoms: C_8  and  S_9
    6  A    between atoms: C_8  and  C_24
    7  A    between atoms: S_9  and  C_10
    8  A    between atoms: C_10  and  C_22
    9  A    between atoms: C_15  and  C_22
   10  A    between atoms: C_23  and  O_33
   11  A    between atoms: C_23  and  C_34
   12  A    between atoms: C_27  and  C_34
                            x       y       z     vdW  Elec       q    Type
                         _______ _______ _______ _____ _____    ______ ____

>  <TORSDO>
F 12

$$$$
=
 OpenBabel11072408263D

 34 36  0  0  1  0  0  0  0  0999 V2000
  189.5980  176.1220  146.5990 C   0  0  2  0  0  3  0  0  0  0  0  0
  190.7250  175.1460  146.5740 C   0  0  0  0  0  2  0  0  0  0  0  0
  191.5460  175.5700  145.3700 C   0  0  1  0  0  0  0  0  0  0  0  0
  188.4270  175.5060  147.0450 O   0  0  0  0  0  1  0  0  0  0  0  0
  189.5090  176.5910  145.1580 C   0  0  1  0  0  3  0  0  0  0  0  0
  190.7570  176.3950  144.5350 O   0  0  0  0  0  0  0  0  0  0  0  0
  193.5410  175.6280  146.7440 O   0  0  0  0  0  1  0  0  0  0  0  0
  192.7860  176.3670  145.8290 C   0  0  1  0  0  3  0  0  0  0  0  0
  193.5330  175.8950  143.4140 C   0  0  2  0  0  3  0  0  0  0  0  0
  191.9510  174.3090  144.5850 C   0  0  0  0  0  2  0  0  0  0  0  0
  193.6830  176.7860  144.6520 C   0  0  0  0  0  2  0  0  0  0  0  0
  193.2730  174.4450  143.8170 C   0  0  0  0  0  2  0  0  0  0  0  0
  188.3900  175.9290  144.3420 C   0  0  2  0  0  3  0  0  0  0  0  0
  188.7480  175.8070  142.9920 O   0  0  0  0  0  1  0  0  0  0  0  0
  184.2260  179.4090  144.2330 O   0  0  0  0  0  1  0  0  0  0  0  0
  187.4090  177.9960  144.6300 O   0  0  0  0  0  0  0  0  0  0  0  0
  187.1330  176.6660  144.4970 N   0  0  0  0  0  0  0  0  0  0  0  0
  186.3410  176.4650  143.2750 C   0  0  0  0  0  2  0  0  0  0  0  0
  184.9870  178.2550  144.4240 C   0  0  1  0  0  3  0  0  0  0  0  0
  185.7980  178.5160  142.1740 O   0  0  0  0  0  1  0  0  0  0  0  0
  185.3020  177.5800  143.0840 C   0  0  1  0  0  3  0  0  0  0  0  0
  186.2660  178.5810  145.2140 C   0  0  0  0  0  2  0  0  0  0  0  0
  194.7810  175.9970  142.5600 C   0  0  0  0  0  2  0  0  0  0  0  0
  196.1610  176.6650  143.5450 S   0  0  0  0  0  0  0  0  0  0  0  0
  197.3920  175.4310  142.9890 C   0  0  1  0  0  3  0  0  0  0  0  0
  197.5070  174.2640  143.9680 C   0  0  0  0  0  2  0  0  0  0  0  0
  196.7370  174.5380  145.2500 C   0  0  0  0  0  2  0  0  0  0  0  0
  196.6880  173.2920  146.1200 C   0  0  0  0  0  2  0  0  0  0  0  0
  197.1650  172.0870  145.3300 C   0  0  0  0  0  2  0  0  0  0  0  0
  195.6230  170.5330  145.6020 C   0  0  0  0  0  1  0  0  0  0  0  0
  196.8910  170.9150  146.0360 O   0  0  0  0  0  0  0  0  0  0  0  0
  197.0670  174.9430  141.5830 C   0  0  0  0  0  2  0  0  0  0  0  0
  196.3190  172.9370  140.5180 O   0  0  0  0  0  1  0  0  0  0  0  0
  197.2010  173.4310  141.4800 C   0  0  0  0  0  2  0  0  0  0  0  0
  1  4  1  6  0  0  0
  2  1  1  0  0  0  0
  3 10  1  6  0  0  0
  3  8  1  0  0  0  0
  3  2  1  0  0  0  0
  5 13  1  6  0  0  0
  5  1  1  0  0  0  0
  6  5  1  0  0  0  0
  6  3  1  0  0  0  0
  8  7  1  1  0  0  0
  9 23  1  1  0  0  0
  9 12  1  0  0  0  0
  9 11  1  0  0  0  0
 11  8  1  0  0  0  0
 12 10  1  0  0  0  0
 13 14  1  6  0  0  0
 13 17  1  0  0  0  0
 16 22  1  0  0  0  0
 17 16  1  0  0  0  0
 18 17  1  0  0  0  0
 19 15  1  6  0  0  0
 19 22  1  0  0  0  0
 21 20  1  6  0  0  0
 21 18  1  0  0  0  0
 21 19  1  0  0  0  0
 23 24  1  0  0  0  0
 25 32  1  6  0  0  0
 25 24  1  0  0  0  0
 25 26  1  0  0  0  0
 26 27  1  0  0  0  0
 27 28  1  0  0  0  0
 29 31  1  0  0  0  0
 29 28  1  0  0  0  0
 30 31  1  0  0  0  0
 33 34  1  0  0  0  0
 34 32  1  0  0  0  0
M  END
>  <MODEL>
8

>  <REMARK>
 VINA RESULT:      -5.8      3.491      8.797
  Name = 
  12 active torsions:
  status: ('A' for Active; 'I' for Inactive)
    1  A    between atoms: C_2  and  C_10
    2  A    between atoms: C_2  and  C_27
    3  A    between atoms: C_4  and  C_13
    4  A    between atoms: C_4  and  N_19
    5  A    between atoms: C_8  and  S_9
    6  A    between atoms: C_8  and  C_24
    7  A    between atoms: S_9  and  C_10
    8  A    between atoms: C_10  and  C_22
    9  A    between atoms: C_15  and  C_22
   10  A    between atoms: C_23  and  O_33
   11  A    between atoms: C_23  and  C_34
   12  A    between atoms: C_27  and  C_34
                            x       y       z     vdW  Elec       q    Type
                         _______ _______ _______ _____ _____    ______ ____

>  <TORSDO>
F 12

$$$$
=
 OpenBabel11072408263D

 34 36  0  0  1  0  0  0  0  0999 V2000
  193.7690  173.4960  144.4360 C   0  0  2  0  0  3  0  0  0  0  0  0
  192.8670  173.6930  145.6070 C   0  0  0  0  0  2  0  0  0  0  0  0
  192.0350  174.9030  145.2250 C   0  0  1  0  0  0  0  0  0  0  0  0
  195.0190  173.0350  144.8530 O   0  0  0  0  0  1  0  0  0  0  0  0
  193.8280  174.8750  143.8040 C   0  0  1  0  0  3  0  0  0  0  0  0
  192.6760  175.5990  144.1740 O   0  0  0  0  0  0  0  0  0  0  0  0
  190.0070  173.6690  145.7130 O   0  0  0  0  0  1  0  0  0  0  0  0
  190.6380  174.4540  144.7440 C   0  0  1  0  0  3  0  0  0  0  0  0
  190.1170  176.9490  145.0880 C   0  0  2  0  0  3  0  0  0  0  0  0
  191.9320  175.8340  146.4480 C   0  0  0  0  0  2  0  0  0  0  0  0
  189.7300  175.6430  144.3850 C   0  0  0  0  0  2  0  0  0  0  0  0
  190.6480  176.6720  146.4930 C   0  0  0  0  0  2  0  0  0  0  0  0
  195.0960  175.6750  144.1380 C   0  0  2  0  0  3  0  0  0  0  0  0
  194.7850  176.8600  144.8190 O   0  0  0  0  0  1  0  0  0  0  0  0
  197.7670  175.5850  139.4130 O   0  0  0  0  0  1  0  0  0  0  0  0
  196.6940  174.8840  142.6770 O   0  0  0  0  0  0  0  0  0  0  0  0
  195.8710  175.9430  142.9250 N   0  0  0  0  0  0  0  0  0  0  0  0
  194.9240  176.0800  141.8080 C   0  0  0  0  0  2  0  0  0  0  0  0
  197.1160  176.0370  140.5630 C   0  0  1  0  0  3  0  0  0  0  0  0
  195.3270  174.5100  140.0520 O   0  0  0  0  0  1  0  0  0  0  0  0
  195.6020  175.8190  140.4550 C   0  0  1  0  0  3  0  0  0  0  0  0
  197.7030  175.3600  141.8120 C   0  0  0  0  0  2  0  0  0  0  0  0
  188.9150  177.8710  145.1420 C   0  0  0  0  0  2  0  0  0  0  0  0
  187.3760  176.8990  145.0810 S   0  0  0  0  0  0  0  0  0  0  0  0
  186.2510  178.3350  145.2200 C   0  0  1  0  0  3  0  0  0  0  0  0
  185.8930  178.9100  143.8510 C   0  0  0  0  0  2  0  0  0  0  0  0
  184.9700  177.9760  143.0830 C   0  0  0  0  0  2  0  0  0  0  0  0
  185.6800  177.4080  141.8650 C   0  0  0  0  0  2  0  0  0  0  0  0
  186.9040  178.2450  141.5380 C   0  0  0  0  0  2  0  0  0  0  0  0
  187.6830  176.2420  141.0380 C   0  0  0  0  0  1  0  0  0  0  0  0
  188.0530  177.4570  141.6130 O   0  0  0  0  0  0  0  0  0  0  0  0
  185.0010  177.9660  146.0090 C   0  0  0  0  0  2  0  0  0  0  0  0
  185.8350  177.7060  148.2350 O   0  0  0  0  0  1  0  0  0  0  0  0
  185.0550  178.5290  147.4210 C   0  0  0  0  0  2  0  0  0  0  0  0
  1  4  1  1  0  0  0
  1  2  1  0  0  0  0
  3  2  1  1  0  0  0
  3 10  1  0  0  0  0
  5 13  1  1  0  0  0
  5  6  1  0  0  0  0
  5  1  1  0  0  0  0
  6  3  1  0  0  0  0
  8  3  1  0  0  0  0
  8  7  1  1  0  0  0
  9 23  1  1  0  0  0
  9 12  1  0  0  0  0
 10 12  1  0  0  0  0
 11  8  1  0  0  0  0
 11  9  1  0  0  0  0
 13 14  1  6  0  0  0
 16 17  1  0  0  0  0
 17 13  1  0  0  0  0
 18 17  1  0  0  0  0
 19 15  1  6  0  0  0
 19 22  1  0  0  0  0
 21 20  1  1  0  0  0
 21 19  1  0  0  0  0
 21 18  1  0  0  0  0
 22 16  1  0  0  0  0
 24 23  1  0  0  0  0
 24 25  1  0  0  0  0
 25 26  1  6  0  0  0
 25 32  1  0  0  0  0
 27 26  1  0  0  0  0
 28 27  1  0  0  0  0
 29 31  1  0  0  0  0
 29 28  1  0  0  0  0
 30 31  1  0  0  0  0
 32 34  1  0  0  0  0
 34 33  1  0  0  0  0
M  END
>  <MODEL>
9

>  <REMARK>
 VINA RESULT:      -5.8      2.667      4.725
  Name = 
  12 active torsions:
  status: ('A' for Active; 'I' for Inactive)
    1  A    between atoms: C_2  and  C_10
    2  A    between atoms: C_2  and  C_27
    3  A    between atoms: C_4  and  C_13
    4  A    between atoms: C_4  and  N_19
    5  A    between atoms: C_8  and  S_9
    6  A    between atoms: C_8  and  C_24
    7  A    between atoms: S_9  and  C_10
    8  A    between atoms: C_10  and  C_22
    9  A    between atoms: C_15  and  C_22
   10  A    between atoms: C_23  and  O_33
   11  A    between atoms: C_23  and  C_34
   12  A    between atoms: C_27  and  C_34
                            x       y       z     vdW  Elec       q    Type
                         _______ _______ _______ _____ _____    ______ ____

>  <TORSDO>
F 12

$$$$
