=
 OpenBabel11062422343D

 59 65  0  0  1  0  0  0  0  0999 V2000
  190.9380  176.0440  142.4680 O   0  0  0  0  0  0  0  0  0  0  0  0
  196.8170  175.7470  142.5410 C   0  0  2  0  0  3  0  0  0  0  0  0
  192.5570  175.6430  144.9420 C   0  0  0  0  0  0  0  0  0  0  0  0
  191.7330  171.6540  135.9030 C   0  0  0  0  0  1  0  0  0  0  0  0
  193.3170  174.8530  143.9110 C   0  0  2  0  0  3  0  0  0  0  0  0
  191.5670  176.6610  148.3880 C   0  0  0  0  0  1  0  0  0  0  0  0
  190.8690  172.3070  138.7050 C   0  0  0  0  0  3  0  0  0  0  0  0
  194.7940  174.0570  138.2790 O   0  0  0  0  0  0  0  0  0  0  0  0
  192.5640  174.0430  141.5370 C   0  0  0  0  0  2  0  0  0  0  0  0
  196.7410  177.1410  142.5770 O   0  0  0  0  0  1  0  0  0  0  0  0
  195.2310  172.8520  137.7270 C   0  0  0  0  0  0  0  0  0  0  0  0
  194.3550  175.6860  143.1730 C   0  0  0  0  0  2  0  0  0  0  0  0
  191.2410  172.0430  141.0720 O   0  0  0  0  0  0  0  0  0  0  0  0
  191.5950  176.5590  144.7740 C   0  0  0  0  0  0  0  0  0  0  0  0
  196.4460  172.6760  137.4370 O   0  0  0  0  0  0  0  0  0  0  0  0
  193.4160  169.0930  137.3840 C   0  0  0  0  0  2  0  0  0  0  0  0
  192.6110  173.7650  143.0490 C   0  0  2  0  0  3  0  0  0  0  0  0
  192.3380  172.8260  140.6470 C   0  0  1  0  0  3  0  0  0  0  0  0
  191.4790  171.1710  138.3490 C   0  0  0  0  0  3  0  0  0  0  0  0
  191.1230  177.0310  146.0240 N   0  0  0  0  0  0  0  0  0  0  0  0
  194.6590  170.3110  136.8300 P   0  0  2  0  0  0  0  0  0  0  0  0
  195.5780  174.8820  140.3820 C   0  0  1  0  0  3  0  0  0  0  0  0
  192.0190  169.2690  136.7650 C   0  0  1  0  0  3  0  0  0  0  0  0
  190.9260  177.0040  143.4960 C   0  0  0  0  0  2  0  0  0  0  0  0
  190.0160  174.9980  142.7280 C   0  0  1  0  0  3  0  0  0  0  0  0
  194.3000  171.8240  137.5680 O   0  0  0  0  0  0  0  0  0  0  0  0
  191.7920  176.4200  146.9400 C   0  0  0  0  0  0  0  0  0  0  0  0
  191.4380  173.1460  143.5640 O   0  0  0  0  0  0  0  0  0  0  0  0
  197.9410  175.6580  140.2990 F   0  0  0  0  0  0  0  0  0  0  0  0
  191.3200  170.6290  136.9570 C   0  0  2  0  0  3  0  0  0  0  0  0
  190.4010  174.0580  143.8770 C   0  0  0  0  0  2  0  0  0  0  0  0
  192.0100  168.8670  135.4270 O   0  0  0  0  0  1  0  0  0  0  0  0
  194.6310  170.4380  135.3250 O   0  0  0  0  0  0  0  0  0  0  0  0
  196.5200  173.7890  140.8810 C   0  0  0  0  0  2  0  0  0  0  0  0
  192.8060  175.4730  146.4010 C   0  0  0  0  0  2  0  0  0  0  0  0
  196.8770  175.2460  141.0850 C   0  0  1  0  0  0  0  0  0  0  0  0
  196.1890  169.7680  137.3110 O   0  0  0  0  0  1  0  0  0  0  0  0
  195.7400  175.1090  143.4280 C   0  0  0  0  0  2  0  0  0  0  0  0
  190.9860  172.9740  140.0500 C   0  0  1  0  0  3  0  0  0  0  0  0
  195.6870  174.9920  138.8700 C   0  0  0  0  0  2  0  0  0  0  0  0
  188.5150  175.2950  142.5270 C   0  0  1  0  0  3  0  0  0  0  0  0
  187.9800  176.5110  143.3210 C   0  0  1  0  0  3  0  0  0  0  0  0
  186.1610  177.4650  141.6130 C   0  0  1  0  0  3  0  0  0  0  0  0
  186.5600  176.9390  142.9930 C   0  0  2  0  0  3  0  0  0  0  0  0
  186.1140  177.8210  144.1480 C   0  0  2  0  0  0  0  0  0  0  0  0
  186.6570  177.0320  145.3390 C   0  0  1  0  0  3  0  0  0  0  0  0
  184.1010  178.4280  142.7690 C   0  0  0  0  0  2  0  0  0  0  0  0
  187.9110  176.2910  144.8520 C   0  0  1  0  0  3  0  0  0  0  0  0
  184.5870  177.8650  144.1170 C   0  0  0  0  0  2  0  0  0  0  0  0
  184.6330  177.6070  141.5830 C   0  0  0  0  0  2  0  0  0  0  0  0
  187.7660  174.9390  145.1750 O   0  0  0  0  0  1  0  0  0  0  0  0
  186.7690  178.6760  141.3190 F   0  0  0  0  0  0  0  0  0  0  0  0
  186.8570  177.8100  146.6090 C   0  0  0  0  0  0  0  0  0  0  0  0
  188.0060  177.9520  147.1040 O   0  0  0  0  0  0  0  0  0  0  0  0
  185.7390  178.4220  147.2390 N   0  0  0  0  0  1  0  0  0  0  0  0
  185.6760  180.2280  144.3100 O   0  0  0  0  0  1  0  0  0  0  0  0
  186.6660  179.2680  144.0780 C   0  0  0  0  0  2  0  0  0  0  0  0
  188.1880  175.3310  141.0310 C   0  0  0  0  0  2  0  0  0  0  0  0
  187.9170  173.9480  140.4590 C   0  0  0  0  0  1  0  0  0  0  0  0
  1 25  1  0  0  0  0
  1 24  1  0  0  0  0
  2 10  1  6  0  0  0
  2 38  1  0  0  0  0
  3 35  1  0  0  0  0
  5 12  1  6  0  0  0
  5  3  1  0  0  0  0
  8 40  1  0  0  0  0
 11  8  1  0  0  0  0
 12 38  1  0  0  0  0
 14  3  2  0  0  0  0
 14 20  1  0  0  0  0
 15 11  2  0  0  0  0
 17  9  1  6  0  0  0
 17 28  1  0  0  0  0
 17  5  1  0  0  0  0
 18 13  1  0  0  0  0
 18  9  1  1  0  0  0
 19  7  2  0  0  0  0
 20 27  2  0  0  0  0
 21 33  2  6  0  0  0
 21 37  1  0  0  0  0
 21 16  1  0  0  0  0
 21 26  1  0  0  0  0
 22 40  1  6  0  0  0
 22 34  1  0  0  0  0
 22 36  1  0  0  0  0
 23 32  1  6  0  0  0
 23 30  1  0  0  0  0
 23 16  1  0  0  0  0
 24 14  1  0  0  0  0
 25 41  1  1  0  0  0
 25 31  1  0  0  0  0
 26 11  1  0  0  0  0
 27  6  1  0  0  0  0
 28 31  1  0  0  0  0
 30  4  1  6  0  0  0
 30 19  1  0  0  0  0
 34 36  1  0  0  0  0
 35 27  1  0  0  0  0
 36 29  1  6  0  0  0
 36  2  1  0  0  0  0
 39  7  1  6  0  0  0
 39 18  1  0  0  0  0
 39 13  1  0  0  0  0
 41 58  1  6  0  0  0
 42 41  1  6  0  0  0
 42 48  1  0  0  0  0
 43 52  1  1  0  0  0
 43 44  1  0  0  0  0
 44 42  1  0  0  0  0
 44 45  1  0  0  0  0
 45 46  1  0  0  0  0
 46 53  1  0  0  0  0
 47 49  1  0  0  0  0
 48 51  1  0  0  0  0
 48 46  1  0  0  0  0
 49 45  1  0  0  0  0
 50 43  1  0  0  0  0
 50 47  1  0  0  0  0
 53 54  2  0  0  0  0
 53 55  1  0  0  0  0
 57 45  1  0  0  0  0
 57 56  1  0  0  0  0
 59 58  1  0  0  0  0
M  END
>  <MODEL>
1

>  <REMARK>
 VINA RESULT:      -8.6      0.000      0.000
  Name = 
  5 active torsions:
  status: ('A' for Active; 'I' for Inactive)
    1  A    between atoms: C_3  and  C_55
    2  A    between atoms: C_9  and  C_47
    3  A    between atoms: C_23  and  C_55
    4  A    between atoms: C_24  and  C_29
    5  A    between atoms: C_38  and  C_55
                            x       y       z     vdW  Elec       q    Type
                         _______ _______ _______ _____ _____    ______ ____

>  <TORSDO>
F 5

$$$$
=
 OpenBabel11062422343D

 59 65  0  0  1  0  0  0  0  0999 V2000
  191.5800  173.3480  140.8990 O   0  0  0  0  0  0  0  0  0  0  0  0
  187.3100  175.5160  137.4750 C   0  0  2  0  0  3  0  0  0  0  0  0
  189.9790  171.7070  138.9910 C   0  0  0  0  0  0  0  0  0  0  0  0
  188.3940  178.1840  146.3280 C   0  0  0  0  0  1  0  0  0  0  0  0
  188.9680  172.6880  139.5210 C   0  0  2  0  0  3  0  0  0  0  0  0
  191.1180  168.5840  137.3070 C   0  0  0  0  0  1  0  0  0  0  0  0
  189.2360  175.5720  145.1060 C   0  0  0  0  0  3  0  0  0  0  0  0
  187.8270  177.9800  141.8080 O   0  0  0  0  0  0  0  0  0  0  0  0
  189.0930  174.2440  141.6230 C   0  0  0  0  0  2  0  0  0  0  0  0
  188.3640  175.8450  136.6190 O   0  0  0  0  0  1  0  0  0  0  0  0
  186.7020  178.2990  142.5700 C   0  0  0  0  0  0  0  0  0  0  0  0
  188.9130  173.9760  138.7120 C   0  0  0  0  0  2  0  0  0  0  0  0
  188.6000  173.5730  143.9190 O   0  0  0  0  0  0  0  0  0  0  0  0
  191.3140  171.7310  139.0740 C   0  0  2  0  0  3  0  0  0  0  0  0
  185.7610  178.9820  142.0800 O   0  0  0  0  0  0  0  0  0  0  0  0
  185.2710  176.8350  146.2240 C   0  0  0  0  0  2  0  0  0  0  0  0
  188.7390  172.8610  141.0520 C   0  0  2  0  0  3  0  0  0  0  0  0
  188.4420  174.5950  142.9560 C   0  0  1  0  0  3  0  0  0  0  0  0
  188.0250  175.8070  145.6250 C   0  0  0  0  0  3  0  0  0  0  0  0
  191.8790  170.5820  138.4680 N   0  0  0  0  0  0  0  0  0  0  0  0
  185.3370  178.1490  144.9570 P   0  0  2  0  0  0  0  0  0  0  0  0
  187.7130  176.6780  139.8050 C   0  0  1  0  0  3  0  0  0  0  0  0
  186.4100  176.8760  147.2570 C   0  0  1  0  0  3  0  0  0  0  0  0
  192.1970  172.7110  139.8080 C   0  0  0  0  0  2  0  0  0  0  0  0
  191.4410  172.4650  142.0010 C   0  0  1  0  0  3  0  0  0  0  0  0
  186.6150  177.7840  143.8650 O   0  0  0  0  0  0  0  0  0  0  0  0
  190.9050  169.8730  138.0120 C   0  0  0  0  0  0  0  0  0  0  0  0
  189.0600  171.7760  141.9130 O   0  0  0  0  0  0  0  0  0  0  0  0
  186.6510  177.8970  137.9150 F   0  0  0  0  0  0  0  0  0  0  0  0
  187.8560  176.8120  146.7280 C   0  0  2  0  0  3  0  0  0  0  0  0
  190.4060  171.3480  141.8160 C   0  0  0  0  0  2  0  0  0  0  0  0
  186.2330  177.9320  148.1550 O   0  0  0  0  0  1  0  0  0  0  0  0
  185.5680  179.4920  145.6110 O   0  0  0  0  0  1  0  0  0  0  0  0
  186.2370  176.3060  139.6900 C   0  0  0  0  0  2  0  0  0  0  0  0
  189.5680  170.4800  138.2530 C   0  0  0  0  0  3  0  0  0  0  0  0
  187.0250  176.6750  138.4500 C   0  0  1  0  0  0  0  0  0  0  0  0
  183.8530  178.1790  144.1420 O   0  0  0  0  0  0  0  0  0  0  0  0
  187.5220  174.1370  138.1130 C   0  0  0  0  0  2  0  0  0  0  0  0
  189.5280  174.6270  143.9710 C   0  0  1  0  0  3  0  0  0  0  0  0
  187.8390  178.0750  140.3900 C   0  0  0  0  0  2  0  0  0  0  0  0
  192.7040  172.1330  142.8220 C   0  0  1  0  0  3  0  0  0  0  0  0
  193.7280  173.2880  142.9360 C   0  0  1  0  0  3  0  0  0  0  0  0
  192.7020  174.6680  144.9800 C   0  0  1  0  0  3  0  0  0  0  0  0
  193.8570  173.9210  144.3100 C   0  0  2  0  0  3  0  0  0  0  0  0
  195.1680  174.6890  144.2940 C   0  0  2  0  0  0  0  0  0  0  0  0
  196.0780  173.6910  143.5780 C   0  0  1  0  0  3  0  0  0  0  0  0
  194.4780  175.7080  146.4860 C   0  0  0  0  0  2  0  0  0  0  0  0
  195.1880  172.8770  142.6260 C   0  0  1  0  0  3  0  0  0  0  0  0
  195.5750  174.9180  145.7490 C   0  0  0  0  0  2  0  0  0  0  0  0
  193.1180  174.9930  146.4210 C   0  0  0  0  0  2  0  0  0  0  0  0
  195.4100  171.5210  142.8810 O   0  0  0  0  0  1  0  0  0  0  0  0
  192.3640  175.8270  144.2970 F   0  0  0  0  0  0  0  0  0  0  0  0
  197.3070  174.2650  142.9310 C   0  0  0  0  0  0  0  0  0  0  0  0
  197.9400  175.2090  143.4750 O   0  0  0  0  0  0  0  0  0  0  0  0
  197.7800  173.7130  141.7100 N   0  0  0  0  0  1  0  0  0  0  0  0
  195.6280  177.0970  144.3280 O   0  0  0  0  0  1  0  0  0  0  0  0
  195.0820  176.0570  143.5690 C   0  0  0  0  0  2  0  0  0  0  0  0
  192.3050  171.5160  144.1660 C   0  0  0  0  0  2  0  0  0  0  0  0
  192.7740  170.0760  144.3090 C   0  0  0  0  0  1  0  0  0  0  0  0
  1 25  1  0  0  0  0
  2 10  1  1  0  0  0
  2 38  1  0  0  0  0
  2 36  1  0  0  0  0
  3 14  1  0  0  0  0
  3  5  1  0  0  0  0
  5 12  1  1  0  0  0
  5 17  1  0  0  0  0
  6 27  1  0  0  0  0
  7 19  2  0  0  0  0
  8 11  1  0  0  0  0
 11 26  1  0  0  0  0
 13 39  1  0  0  0  0
 14 24  1  1  0  0  0
 15 11  2  0  0  0  0
 16 23  1  0  0  0  0
 17  9  1  1  0  0  0
 17 28  1  0  0  0  0
 18  9  1  6  0  0  0
 18 13  1  0  0  0  0
 18 39  1  0  0  0  0
 19 30  1  0  0  0  0
 20 14  1  0  0  0  0
 21 37  2  6  0  0  0
 21 33  1  0  0  0  0
 21 16  1  0  0  0  0
 22 34  1  1  0  0  0
 22 40  1  0  0  0  0
 23 32  1  6  0  0  0
 24  1  1  0  0  0  0
 25 41  1  6  0  0  0
 26 21  1  0  0  0  0
 27 35  1  0  0  0  0
 27 20  2  0  0  0  0
 30  4  1  6  0  0  0
 30 23  1  0  0  0  0
 31 28  1  0  0  0  0
 31 25  1  0  0  0  0
 35  3  2  0  0  0  0
 36 29  1  6  0  0  0
 36 34  1  0  0  0  0
 36 22  1  0  0  0  0
 38 12  1  0  0  0  0
 39  7  1  1  0  0  0
 40  8  1  0  0  0  0
 41 58  1  1  0  0  0
 42 41  1  1  0  0  0
 42 44  1  0  0  0  0
 43 52  1  6  0  0  0
 43 50  1  0  0  0  0
 44 43  1  0  0  0  0
 45 44  1  0  0  0  0
 45 49  1  0  0  0  0
 46 45  1  0  0  0  0
 48 51  1  0  0  0  0
 48 42  1  0  0  0  0
 48 46  1  0  0  0  0
 49 47  1  0  0  0  0
 50 47  1  0  0  0  0
 53 54  2  0  0  0  0
 53 46  1  0  0  0  0
 55 53  1  0  0  0  0
 57 45  1  0  0  0  0
 57 56  1  0  0  0  0
 58 59  1  0  0  0  0
M  END
>  <MODEL>
2

>  <REMARK>
 VINA RESULT:      -7.4      3.945      9.904
  Name = 
  5 active torsions:
  status: ('A' for Active; 'I' for Inactive)
    1  A    between atoms: C_3  and  C_55
    2  A    between atoms: C_9  and  C_47
    3  A    between atoms: C_23  and  C_55
    4  A    between atoms: C_24  and  C_29
    5  A    between atoms: C_38  and  C_55
                            x       y       z     vdW  Elec       q    Type
                         _______ _______ _______ _____ _____    ______ ____

>  <TORSDO>
F 5

$$$$
=
 OpenBabel11062422343D

 59 65  0  0  1  0  0  0  0  0999 V2000
  193.1460  172.7970  144.1520 O   0  0  0  0  0  0  0  0  0  0  0  0
  188.0930  173.8760  141.3300 C   0  0  2  0  0  3  0  0  0  0  0  0
  191.4610  175.2150  144.6160 C   0  0  0  0  0  0  0  0  0  0  0  0
  195.5490  170.3900  136.9800 C   0  0  0  0  0  1  0  0  0  0  0  0
  191.3240  174.9890  143.1340 C   0  0  2  0  0  3  0  0  0  0  0  0
  191.2710  177.1700  147.7830 C   0  0  0  0  0  1  0  0  0  0  0  0
  195.5240  172.0760  139.4660 C   0  0  0  0  0  3  0  0  0  0  0  0
  191.3740  171.2520  138.5990 O   0  0  0  0  0  0  0  0  0  0  0  0
  192.7650  173.5010  141.5310 C   0  0  0  0  0  2  0  0  0  0  0  0
  187.5380  173.0550  142.3140 O   0  0  0  0  0  1  0  0  0  0  0  0
  191.6210  171.6050  137.2710 C   0  0  0  0  0  0  0  0  0  0  0  0
  190.1740  174.0560  142.7810 C   0  0  0  0  0  2  0  0  0  0  0  0
  194.8930  174.1490  140.5230 O   0  0  0  0  0  0  0  0  0  0  0  0
  191.9320  174.3950  145.5630 C   0  0  2  0  0  3  0  0  0  0  0  0
  190.6800  171.6570  136.4310 O   0  0  0  0  0  0  0  0  0  0  0  0
  194.9370  173.3340  135.3880 C   0  0  0  0  0  2  0  0  0  0  0  0
  192.5780  174.8640  142.2190 C   0  0  2  0  0  3  0  0  0  0  0  0
  193.6580  173.5010  140.2960 C   0  0  1  0  0  3  0  0  0  0  0  0
  195.5520  172.5670  138.2220 C   0  0  0  0  0  3  0  0  0  0  0  0
  191.9180  175.0260  146.8310 N   0  0  0  0  0  0  0  0  0  0  0  0
  193.4040  172.3450  135.3080 P   0  0  2  0  0  0  0  0  0  0  0  0
  189.9470  172.5210  140.0380 C   0  0  1  0  0  3  0  0  0  0  0  0
  196.1970  172.5420  135.7730 C   0  0  1  0  0  3  0  0  0  0  0  0
  192.5510  173.0270  145.4050 C   0  0  0  0  0  2  0  0  0  0  0  0
  194.3730  173.4990  144.0280 C   0  0  1  0  0  3  0  0  0  0  0  0
  192.9210  171.9650  136.9150 O   0  0  0  0  0  0  0  0  0  0  0  0
  191.4360  176.2100  146.6630 C   0  0  0  0  0  0  0  0  0  0  0  0
  193.7920  175.4730  142.6440 O   0  0  0  0  0  0  0  0  0  0  0  0
  187.5410  172.3280  139.4330 F   0  0  0  0  0  0  0  0  0  0  0  0
  196.1780  171.7750  137.1090 C   0  0  2  0  0  3  0  0  0  0  0  0
  194.2450  175.0220  143.9070 C   0  0  0  0  0  2  0  0  0  0  0  0
  196.6200  171.7310  134.7160 O   0  0  0  0  0  1  0  0  0  0  0  0
  193.6400  171.0820  134.5140 O   0  0  0  0  0  0  0  0  0  0  0  0
  189.5140  173.7050  139.1780 C   0  0  0  0  0  2  0  0  0  0  0  0
  191.0580  176.5000  145.2530 C   0  0  0  0  0  3  0  0  0  0  0  0
  188.5200  173.0410  140.1070 C   0  0  1  0  0  0  0  0  0  0  0  0
  192.2120  173.2690  134.5370 O   0  0  0  0  0  1  0  0  0  0  0  0
  189.1650  174.8030  141.9190 C   0  0  0  0  0  2  0  0  0  0  0  0
  194.8880  172.7490  140.6540 C   0  0  1  0  0  3  0  0  0  0  0  0
  190.0720  171.2820  139.1670 C   0  0  0  0  0  2  0  0  0  0  0  0
  195.5980  172.9470  144.7870 C   0  0  1  0  0  3  0  0  0  0  0  0
  195.5180  171.4440  145.1460 C   0  0  1  0  0  3  0  0  0  0  0  0
  195.9250  170.3340  142.7500 C   0  0  1  0  0  3  0  0  0  0  0  0
  196.2820  170.5060  144.2280 C   0  0  2  0  0  3  0  0  0  0  0  0
  196.4210  169.1990  144.9900 C   0  0  2  0  0  0  0  0  0  0  0  0
  196.7700  169.7140  146.3860 C   0  0  1  0  0  3  0  0  0  0  0  0
  197.2650  168.1660  142.8580 C   0  0  0  0  0  2  0  0  0  0  0  0
  196.1010  171.0880  146.5360 C   0  0  1  0  0  3  0  0  0  0  0  0
  197.5680  168.4210  144.3460 C   0  0  0  0  0  2  0  0  0  0  0  0
  197.0160  169.4770  142.0940 C   0  0  0  0  0  2  0  0  0  0  0  0
  197.0780  172.0040  146.9370 O   0  0  0  0  0  1  0  0  0  0  0  0
  194.6780  169.7510  142.5780 F   0  0  0  0  0  0  0  0  0  0  0  0
  196.5000  168.7710  147.5240 C   0  0  0  0  0  0  0  0  0  0  0  0
  197.4440  168.1660  148.0970 O   0  0  0  0  0  0  0  0  0  0  0  0
  195.1660  168.5870  147.9810 N   0  0  0  0  0  1  0  0  0  0  0  0
  193.9770  169.0790  145.1500 O   0  0  0  0  0  1  0  0  0  0  0  0
  195.1410  168.3250  144.9710 C   0  0  0  0  0  2  0  0  0  0  0  0
  196.8850  173.3500  144.0610 C   0  0  0  0  0  2  0  0  0  0  0  0
  197.5930  174.5160  144.7330 C   0  0  0  0  0  1  0  0  0  0  0  0
  1 24  1  0  0  0  0
  2 38  1  0  0  0  0
  2 10  1  1  0  0  0
  3 35  2  0  0  0  0
  3 14  1  0  0  0  0
  5 12  1  1  0  0  0
  5  3  1  0  0  0  0
  8 40  1  0  0  0  0
 11  8  1  0  0  0  0
 13 39  1  0  0  0  0
 14 24  1  6  0  0  0
 14 20  1  0  0  0  0
 15 11  2  0  0  0  0
 16 23  1  0  0  0  0
 17  9  1  1  0  0  0
 17 28  1  0  0  0  0
 17  5  1  0  0  0  0
 18 13  1  0  0  0  0
 18 39  1  0  0  0  0
 18  9  1  1  0  0  0
 19  7  2  0  0  0  0
 21 33  2  6  0  0  0
 21 16  1  0  0  0  0
 21 26  1  0  0  0  0
 22 40  1  6  0  0  0
 22 36  1  0  0  0  0
 23 32  1  6  0  0  0
 23 30  1  0  0  0  0
 25  1  1  0  0  0  0
 25 41  1  1  0  0  0
 26 11  1  0  0  0  0
 27 20  2  0  0  0  0
 27  6  1  0  0  0  0
 28 31  1  0  0  0  0
 30  4  1  6  0  0  0
 30 19  1  0  0  0  0
 31 25  1  0  0  0  0
 34 22  1  0  0  0  0
 34 36  1  0  0  0  0
 35 27  1  0  0  0  0
 36 29  1  6  0  0  0
 36  2  1  0  0  0  0
 37 21  1  0  0  0  0
 38 12  1  0  0  0  0
 39  7  1  6  0  0  0
 41 58  1  6  0  0  0
 42 41  1  6  0  0  0
 42 48  1  0  0  0  0
 43 52  1  1  0  0  0
 43 44  1  0  0  0  0
 44 45  1  0  0  0  0
 44 42  1  0  0  0  0
 45 46  1  0  0  0  0
 46 48  1  0  0  0  0
 46 53  1  0  0  0  0
 47 49  1  0  0  0  0
 48 51  1  0  0  0  0
 49 45  1  0  0  0  0
 50 43  1  0  0  0  0
 50 47  1  0  0  0  0
 53 55  1  0  0  0  0
 53 54  2  0  0  0  0
 57 45  1  0  0  0  0
 57 56  1  0  0  0  0
 58 59  1  0  0  0  0
M  END
>  <MODEL>
3

>  <REMARK>
 VINA RESULT:      -7.3      3.800      8.250
  Name = 
  5 active torsions:
  status: ('A' for Active; 'I' for Inactive)
    1  A    between atoms: C_3  and  C_55
    2  A    between atoms: C_9  and  C_47
    3  A    between atoms: C_23  and  C_55
    4  A    between atoms: C_24  and  C_29
    5  A    between atoms: C_38  and  C_55
                            x       y       z     vdW  Elec       q    Type
                         _______ _______ _______ _____ _____    ______ ____

>  <TORSDO>
F 5

$$$$
=
 OpenBabel11062422343D

 59 65  0  0  1  0  0  0  0  0999 V2000
  191.8690  173.4650  140.4830 O   0  0  0  0  0  0  0  0  0  0  0  0
  187.2740  175.3670  137.3320 C   0  0  2  0  0  3  0  0  0  0  0  0
  190.2320  171.7190  138.7010 C   0  0  0  0  0  0  0  0  0  0  0  0
  188.8000  178.1980  146.0670 C   0  0  0  0  0  1  0  0  0  0  0  0
  189.2090  172.6540  139.2890 C   0  0  2  0  0  3  0  0  0  0  0  0
  191.4200  168.6380  136.9740 C   0  0  0  0  0  1  0  0  0  0  0  0
  189.6950  175.6180  144.8160 C   0  0  0  0  0  3  0  0  0  0  0  0
  187.9460  177.9080  141.5980 O   0  0  0  0  0  0  0  0  0  0  0  0
  189.3910  174.2410  141.3630 C   0  0  0  0  0  2  0  0  0  0  0  0
  188.2500  175.7380  136.4050 O   0  0  0  0  0  1  0  0  0  0  0  0
  186.8600  178.1780  142.4310 C   0  0  0  0  0  0  0  0  0  0  0  0
  189.0330  173.9270  138.4730 C   0  0  0  0  0  2  0  0  0  0  0  0
  189.0870  173.5740  143.6930 O   0  0  0  0  0  0  0  0  0  0  0  0
  191.5670  171.8130  138.6950 C   0  0  2  0  0  3  0  0  0  0  0  0
  185.8540  178.8060  141.9980 O   0  0  0  0  0  0  0  0  0  0  0  0
  185.7520  176.6890  146.1850 C   0  0  0  0  0  2  0  0  0  0  0  0
  189.0730  172.8340  140.8300 C   0  0  2  0  0  3  0  0  0  0  0  0
  188.8130  174.5740  142.7340 C   0  0  1  0  0  3  0  0  0  0  0  0
  188.5110  175.7970  145.4130 C   0  0  0  0  0  3  0  0  0  0  0  0
  192.1510  170.6870  138.0630 N   0  0  0  0  0  0  0  0  0  0  0  0
  185.6650  177.9890  144.9050 P   0  0  2  0  0  0  0  0  0  0  0  0
  187.7690  176.5760  139.6190 C   0  0  1  0  0  3  0  0  0  0  0  0
  186.9530  176.8020  147.1390 C   0  0  1  0  0  3  0  0  0  0  0  0
  192.4450  172.8470  139.3590 C   0  0  0  0  0  2  0  0  0  0  0  0
  191.8490  172.5900  141.6000 C   0  0  1  0  0  3  0  0  0  0  0  0
  186.8850  177.6760  143.7320 O   0  0  0  0  0  0  0  0  0  0  0  0
  191.1860  169.9230  137.6800 C   0  0  0  0  0  0  0  0  0  0  0  0
  189.5060  171.7780  141.6770 O   0  0  0  0  0  0  0  0  0  0  0  0
  186.5220  177.7160  137.7930 F   0  0  0  0  0  0  0  0  0  0  0  0
  188.3620  176.8060  146.5150 C   0  0  2  0  0  3  0  0  0  0  0  0
  190.8640  171.4190  141.4950 C   0  0  0  0  0  2  0  0  0  0  0  0
  186.7810  177.8590  148.0370 O   0  0  0  0  0  1  0  0  0  0  0  0
  185.8690  179.3500  145.5290 O   0  0  0  0  0  1  0  0  0  0  0  0
  186.3100  176.1280  139.6060 C   0  0  0  0  0  2  0  0  0  0  0  0
  189.8380  170.4630  138.0040 C   0  0  0  0  0  3  0  0  0  0  0  0
  186.9930  176.5210  138.3130 C   0  0  1  0  0  0  0  0  0  0  0  0
  184.1310  177.9320  144.1890 O   0  0  0  0  0  0  0  0  0  0  0  0
  187.5990  174.0080  137.9670 C   0  0  0  0  0  2  0  0  0  0  0  0
  189.9600  174.6750  143.6730 C   0  0  1  0  0  3  0  0  0  0  0  0
  187.8590  177.9860  140.1820 C   0  0  0  0  0  2  0  0  0  0  0  0
  193.1800  172.3340  142.3380 C   0  0  1  0  0  3  0  0  0  0  0  0
  193.4420  173.2620  143.5470 C   0  0  1  0  0  3  0  0  0  0  0  0
  195.0370  171.7160  145.0300 C   0  0  1  0  0  3  0  0  0  0  0  0
  194.7450  173.0230  144.2910 C   0  0  2  0  0  3  0  0  0  0  0  0
  194.9870  174.2740  145.1200 C   0  0  2  0  0  0  0  0  0  0  0  0
  194.6110  175.3620  144.1150 C   0  0  1  0  0  3  0  0  0  0  0  0
  196.8410  173.0250  146.2710 C   0  0  0  0  0  2  0  0  0  0  0  0
  193.5430  174.7650  143.1870 C   0  0  1  0  0  3  0  0  0  0  0  0
  196.4720  174.2940  145.4820 C   0  0  0  0  0  2  0  0  0  0  0  0
  196.5020  171.7460  145.4870 C   0  0  0  0  0  2  0  0  0  0  0  0
  193.9640  174.9540  141.8670 O   0  0  0  0  0  1  0  0  0  0  0  0
  194.1930  171.5280  146.1140 F   0  0  0  0  0  0  0  0  0  0  0  0
  194.2420  176.6980  144.6970 C   0  0  0  0  0  0  0  0  0  0  0  0
  195.1050  177.4060  145.2820 O   0  0  0  0  0  0  0  0  0  0  0  0
  192.9140  177.1820  144.5550 N   0  0  0  0  0  1  0  0  0  0  0  0
  192.7750  174.2190  146.1750 O   0  0  0  0  0  1  0  0  0  0  0  0
  194.1470  174.3350  146.4200 C   0  0  0  0  0  2  0  0  0  0  0  0
  193.3220  170.8410  142.6520 C   0  0  0  0  0  2  0  0  0  0  0  0
  194.2970  170.1390  141.7200 C   0  0  0  0  0  1  0  0  0  0  0  0
  1 25  1  0  0  0  0
  2 10  1  1  0  0  0
  2 38  1  0  0  0  0
  2 36  1  0  0  0  0
  3  5  1  0  0  0  0
  5 12  1  6  0  0  0
  5 17  1  0  0  0  0
  6 27  1  0  0  0  0
  7 19  2  0  0  0  0
  8 11  1  0  0  0  0
 11 26  1  0  0  0  0
 14  3  1  0  0  0  0
 14 24  1  1  0  0  0
 15 11  2  0  0  0  0
 16 23  1  0  0  0  0
 17  9  1  1  0  0  0
 17 28  1  0  0  0  0
 18  9  1  6  0  0  0
 18 39  1  0  0  0  0
 18 13  1  0  0  0  0
 19 30  1  0  0  0  0
 20 14  1  0  0  0  0
 21 37  2  6  0  0  0
 21 33  1  0  0  0  0
 21 16  1  0  0  0  0
 22 34  1  1  0  0  0
 22 40  1  0  0  0  0
 23 32  1  6  0  0  0
 24  1  1  0  0  0  0
 25 41  1  6  0  0  0
 26 21  1  0  0  0  0
 27 35  1  0  0  0  0
 27 20  2  0  0  0  0
 30  4  1  6  0  0  0
 30 23  1  0  0  0  0
 31 25  1  0  0  0  0
 31 28  1  0  0  0  0
 35  3  2  0  0  0  0
 36 29  1  6  0  0  0
 36 34  1  0  0  0  0
 36 22  1  0  0  0  0
 38 12  1  0  0  0  0
 39 13  1  0  0  0  0
 39  7  1  1  0  0  0
 40  8  1  0  0  0  0
 41 58  1  1  0  0  0
 42 41  1  6  0  0  0
 42 44  1  0  0  0  0
 43 50  1  0  0  0  0
 43 52  1  1  0  0  0
 44 43  1  0  0  0  0
 44 45  1  0  0  0  0
 45 49  1  0  0  0  0
 45 57  1  0  0  0  0
 46 53  1  0  0  0  0
 46 45  1  0  0  0  0
 48 42  1  0  0  0  0
 48 46  1  0  0  0  0
 49 47  1  0  0  0  0
 50 47  1  0  0  0  0
 51 48  1  0  0  0  0
 53 54  2  0  0  0  0
 55 53  1  0  0  0  0
 56 57  1  0  0  0  0
 59 58  1  0  0  0  0
M  END
>  <MODEL>
4

>  <REMARK>
 VINA RESULT:      -7.2      3.616      9.812
  Name = 
  5 active torsions:
  status: ('A' for Active; 'I' for Inactive)
    1  A    between atoms: C_3  and  C_55
    2  A    between atoms: C_9  and  C_47
    3  A    between atoms: C_23  and  C_55
    4  A    between atoms: C_24  and  C_29
    5  A    between atoms: C_38  and  C_55
                            x       y       z     vdW  Elec       q    Type
                         _______ _______ _______ _____ _____    ______ ____

>  <TORSDO>
F 5

$$$$
=
 OpenBabel11062422343D

 59 65  0  0  1  0  0  0  0  0999 V2000
  193.1080  172.6570  139.6510 O   0  0  0  0  0  0  0  0  0  0  0  0
  187.5790  174.5410  138.9150 C   0  0  2  0  0  3  0  0  0  0  0  0
  190.9130  170.9840  138.5170 C   0  0  0  0  0  0  0  0  0  0  0  0
  192.5520  176.6280  146.5010 C   0  0  0  0  0  1  0  0  0  0  0  0
  190.2090  171.7890  139.5760 C   0  0  2  0  0  3  0  0  0  0  0  0
  191.3350  168.1660  136.1150 C   0  0  0  0  0  1  0  0  0  0  0  0
  192.8970  174.2430  144.7080 C   0  0  0  0  0  3  0  0  0  0  0  0
  189.9180  176.7060  142.7810 O   0  0  0  0  0  0  0  0  0  0  0  0
  191.2090  173.1810  141.5560 C   0  0  0  0  0  2  0  0  0  0  0  0
  188.0710  175.0620  137.7150 O   0  0  0  0  0  1  0  0  0  0  0  0
  189.2720  176.8240  144.0130 C   0  0  0  0  0  0  0  0  0  0  0  0
  189.6830  173.1190  139.0560 C   0  0  0  0  0  2  0  0  0  0  0  0
  191.9180  172.2780  143.7110 O   0  0  0  0  0  0  0  0  0  0  0  0
  192.1220  171.1660  137.9710 C   0  0  2  0  0  3  0  0  0  0  0  0
  188.1650  177.4220  144.1080 O   0  0  0  0  0  0  0  0  0  0  0  0
  189.8640  174.9160  147.6930 C   0  0  0  0  0  2  0  0  0  0  0  0
  190.7260  171.8140  141.0450 C   0  0  2  0  0  3  0  0  0  0  0  0
  191.2480  173.3450  143.0710 C   0  0  1  0  0  3  0  0  0  0  0  0
  192.0660  174.2850  145.7560 C   0  0  0  0  0  3  0  0  0  0  0  0
  192.4110  170.1470  137.0310 N   0  0  0  0  0  0  0  0  0  0  0  0
  189.2240  176.3230  146.7200 P   0  0  2  0  0  0  0  0  0  0  0  0
  188.9580  175.5590  140.9150 C   0  0  1  0  0  3  0  0  0  0  0  0
  191.3510  175.0170  148.0730 C   0  0  1  0  0  3  0  0  0  0  0  0
  193.1750  172.1880  138.3270 C   0  0  0  0  0  2  0  0  0  0  0  0
  193.5740  171.6810  140.5690 C   0  0  1  0  0  3  0  0  0  0  0  0
  189.8490  176.2040  145.1220 O   0  0  0  0  0  0  0  0  0  0  0  0
  191.3910  169.3600  136.9960 C   0  0  0  0  0  0  0  0  0  0  0  0
  191.4950  170.7120  141.5130 O   0  0  0  0  0  0  0  0  0  0  0  0
  187.0390  176.7810  139.9080 F   0  0  0  0  0  0  0  0  0  0  0  0
  192.3700  175.1730  146.9280 C   0  0  2  0  0  3  0  0  0  0  0  0
  192.6600  170.4630  140.7470 C   0  0  0  0  0  2  0  0  0  0  0  0
  191.5470  175.9700  149.0760 O   0  0  0  0  0  1  0  0  0  0  0  0
  189.6410  177.6280  147.3550 O   0  0  0  0  0  1  0  0  0  0  0  0
  187.6360  175.0180  141.4540 C   0  0  0  0  0  2  0  0  0  0  0  0
  190.2900  169.7760  137.9060 C   0  0  0  0  0  3  0  0  0  0  0  0
  187.7090  175.5760  140.0480 C   0  0  1  0  0  0  0  0  0  0  0  0
  187.5330  176.2320  146.7000 O   0  0  0  0  0  0  0  0  0  0  0  0
  188.1670  173.1530  139.2000 C   0  0  0  0  0  2  0  0  0  0  0  0
  192.6800  173.4320  143.4580 C   0  0  1  0  0  3  0  0  0  0  0  0
  189.2460  176.9120  141.5460 C   0  0  0  0  0  2  0  0  0  0  0  0
  195.0960  171.4450  140.6570 C   0  0  1  0  0  3  0  0  0  0  0  0
  195.8710  172.5000  141.4830 C   0  0  1  0  0  3  0  0  0  0  0  0
  195.2780  174.7280  140.1340 C   0  0  1  0  0  3  0  0  0  0  0  0
  195.3200  173.9140  141.4290 C   0  0  2  0  0  3  0  0  0  0  0  0
  195.9410  174.6480  142.6050 C   0  0  2  0  0  0  0  0  0  0  0  0
  195.8290  173.5870  143.6990 C   0  0  1  0  0  3  0  0  0  0  0  0
  195.0130  176.7740  141.6340 C   0  0  0  0  0  2  0  0  0  0  0  0
  195.9030  172.2190  143.0050 C   0  0  1  0  0  3  0  0  0  0  0  0
  195.0710  175.8740  142.8820 C   0  0  0  0  0  2  0  0  0  0  0  0
  194.4850  176.0140  140.4060 C   0  0  0  0  0  2  0  0  0  0  0  0
  194.7990  171.4660  143.4160 O   0  0  0  0  0  1  0  0  0  0  0  0
  196.5480  175.0300  139.6650 F   0  0  0  0  0  0  0  0  0  0  0  0
  196.7670  173.7380  144.8630 C   0  0  0  0  0  0  0  0  0  0  0  0
  196.5100  174.5420  145.7990 O   0  0  0  0  0  0  0  0  0  0  0  0
  197.9410  172.9390  144.9260 N   0  0  0  0  0  1  0  0  0  0  0  0
  197.7100  176.2920  143.0330 O   0  0  0  0  0  1  0  0  0  0  0  0
  197.4000  175.1080  142.3560 C   0  0  0  0  0  2  0  0  0  0  0  0
  195.3750  169.9970  141.0710 C   0  0  0  0  0  2  0  0  0  0  0  0
  196.6400  169.4420  140.4360 C   0  0  0  0  0  1  0  0  0  0  0  0
  1 25  1  0  0  0  0
  2 10  1  6  0  0  0
  2 38  1  0  0  0  0
  2 36  1  0  0  0  0
  3  5  1  0  0  0  0
  5 12  1  6  0  0  0
  5 17  1  0  0  0  0
  6 27  1  0  0  0  0
  7 19  2  0  0  0  0
  8 11  1  0  0  0  0
 11 15  2  0  0  0  0
 11 26  1  0  0  0  0
 12 38  1  0  0  0  0
 14 24  1  1  0  0  0
 14  3  1  0  0  0  0
 16 23  1  0  0  0  0
 17 28  1  0  0  0  0
 17  9  1  6  0  0  0
 18  9  1  6  0  0  0
 18 39  1  0  0  0  0
 18 13  1  0  0  0  0
 19 30  1  0  0  0  0
 20 14  1  0  0  0  0
 21 37  2  6  0  0  0
 21 33  1  0  0  0  0
 21 16  1  0  0  0  0
 22 34  1  1  0  0  0
 22 40  1  0  0  0  0
 23 32  1  1  0  0  0
 24  1  1  0  0  0  0
 25 41  1  6  0  0  0
 25 31  1  0  0  0  0
 26 21  1  0  0  0  0
 27 20  2  0  0  0  0
 27 35  1  0  0  0  0
 30  4  1  6  0  0  0
 30 23  1  0  0  0  0
 31 28  1  0  0  0  0
 35  3  2  0  0  0  0
 36 29  1  6  0  0  0
 36 22  1  0  0  0  0
 36 34  1  0  0  0  0
 39 13  1  0  0  0  0
 39  7  1  1  0  0  0
 40  8  1  0  0  0  0
 41 58  1  1  0  0  0
 42 41  1  6  0  0  0
 42 48  1  0  0  0  0
 43 52  1  1  0  0  0
 43 50  1  0  0  0  0
 43 44  1  0  0  0  0
 44 42  1  0  0  0  0
 44 45  1  0  0  0  0
 45 49  1  0  0  0  0
 45 46  1  0  0  0  0
 46 53  1  0  0  0  0
 47 49  1  0  0  0  0
 48 51  1  0  0  0  0
 48 46  1  0  0  0  0
 50 47  1  0  0  0  0
 53 55  1  0  0  0  0
 53 54  2  0  0  0  0
 57 45  1  0  0  0  0
 57 56  1  0  0  0  0
 59 58  1  0  0  0  0
M  END
>  <MODEL>
5

>  <REMARK>
 VINA RESULT:      -6.4      3.565      9.714
  Name = 
  5 active torsions:
  status: ('A' for Active; 'I' for Inactive)
    1  A    between atoms: C_3  and  C_55
    2  A    between atoms: C_9  and  C_47
    3  A    between atoms: C_23  and  C_55
    4  A    between atoms: C_24  and  C_29
    5  A    between atoms: C_38  and  C_55
                            x       y       z     vdW  Elec       q    Type
                         _______ _______ _______ _____ _____    ______ ____

>  <TORSDO>
F 5

$$$$
=
 OpenBabel11062422343D

 59 65  0  0  1  0  0  0  0  0999 V2000
  190.3030  176.2750  142.5590 O   0  0  0  0  0  0  0  0  0  0  0  0
  196.0180  175.9420  143.9340 C   0  0  2  0  0  3  0  0  0  0  0  0
  191.3400  176.1390  145.3530 C   0  0  0  0  0  0  0  0  0  0  0  0
  192.3490  171.1770  136.8290 C   0  0  0  0  0  1  0  0  0  0  0  0
  192.2780  175.2330  144.6010 C   0  0  2  0  0  3  0  0  0  0  0  0
  189.6670  177.5410  148.3730 C   0  0  0  0  0  1  0  0  0  0  0  0
  190.9240  172.1430  139.2910 C   0  0  0  0  0  3  0  0  0  0  0  0
  194.9040  173.8050  139.5410 O   0  0  0  0  0  0  0  0  0  0  0  0
  192.0270  174.1710  142.2210 C   0  0  0  0  0  2  0  0  0  0  0  0
  195.9800  177.3320  143.8040 O   0  0  0  0  0  1  0  0  0  0  0  0
  195.4100  172.5420  139.2290 C   0  0  0  0  0  0  0  0  0  0  0  0
  193.4760  175.9710  144.0210 C   0  0  0  0  0  2  0  0  0  0  0  0
  190.7720  172.1420  141.6970 O   0  0  0  0  0  0  0  0  0  0  0  0
  190.4660  177.0380  144.8840 C   0  0  0  0  0  0  0  0  0  0  0  0
  196.6530  172.3260  139.2300 O   0  0  0  0  0  0  0  0  0  0  0  0
  193.5930  168.7830  138.9040 C   0  0  0  0  0  2  0  0  0  0  0  0
  191.7390  174.0610  143.7280 C   0  0  2  0  0  3  0  0  0  0  0  0
  191.9590  172.8640  141.4390 C   0  0  1  0  0  3  0  0  0  0  0  0
  191.5600  170.9700  139.1990 C   0  0  0  0  0  3  0  0  0  0  0  0
  189.7520  177.6490  145.9440 N   0  0  0  0  0  0  0  0  0  0  0  0
  194.9640  169.9230  138.5060 P   0  0  2  0  0  0  0  0  0  0  0  0
  195.2440  174.8530  141.6640 C   0  0  1  0  0  3  0  0  0  0  0  0
  192.3680  168.9010  137.9820 C   0  0  1  0  0  3  0  0  0  0  0  0
  190.1010  177.3430  143.4510 C   0  0  0  0  0  2  0  0  0  0  0  0
  189.3140  175.2710  142.7230 C   0  0  1  0  0  3  0  0  0  0  0  0
  194.5030  171.5110  138.9830 O   0  0  0  0  0  0  0  0  0  0  0  0
  190.1900  177.1380  147.0430 C   0  0  0  0  0  0  0  0  0  0  0  0
  190.4650  173.5130  144.0400 O   0  0  0  0  0  0  0  0  0  0  0  0
  197.5930  175.5960  142.0120 F   0  0  0  0  0  0  0  0  0  0  0  0
  191.6870  170.2790  137.8720 C   0  0  2  0  0  3  0  0  0  0  0  0
  189.4140  174.4620  144.0210 C   0  0  0  0  0  2  0  0  0  0  0  0
  192.6330  168.3520  136.7240 O   0  0  0  0  0  1  0  0  0  0  0  0
  195.2630  169.8820  137.0260 O   0  0  0  0  0  0  0  0  0  0  0  0
  196.0210  173.8140  142.4680 C   0  0  0  0  0  2  0  0  0  0  0  0
  191.2650  176.1300  146.8410 C   0  0  0  0  0  2  0  0  0  0  0  0
  196.3720  175.2820  142.5880 C   0  0  1  0  0  0  0  0  0  0  0  0
  196.3370  169.4250  139.3620 O   0  0  0  0  0  1  0  0  0  0  0  0
  194.7560  175.4150  144.6300 C   0  0  0  0  0  2  0  0  0  0  0  0
  190.7720  172.9550  140.5500 C   0  0  1  0  0  3  0  0  0  0  0  0
  195.6770  174.7930  140.2080 C   0  0  0  0  0  2  0  0  0  0  0  0
  187.9010  175.5560  142.1710 C   0  0  1  0  0  3  0  0  0  0  0  0
  187.1750  176.7520  142.8290 C   0  0  1  0  0  3  0  0  0  0  0  0
  185.8350  177.7380  140.7390 C   0  0  1  0  0  3  0  0  0  0  0  0
  185.8790  177.1830  142.1640 C   0  0  2  0  0  3  0  0  0  0  0  0
  185.1500  178.0390  143.1870 C   0  0  2  0  0  0  0  0  0  0  0  0
  185.3820  177.2260  144.4600 C   0  0  1  0  0  3  0  0  0  0  0  0
  183.5430  178.6700  141.3590 C   0  0  0  0  0  2  0  0  0  0  0  0
  186.7240  176.4990  144.2890 C   0  0  1  0  0  3  0  0  0  0  0  0
  183.6790  178.0800  142.7740 C   0  0  0  0  0  2  0  0  0  0  0  0
  184.3620  177.8760  140.3280 C   0  0  0  0  0  2  0  0  0  0  0  0
  186.5140  175.1400  144.5380 O   0  0  0  0  0  1  0  0  0  0  0  0
  186.4870  178.9570  140.6320 F   0  0  0  0  0  0  0  0  0  0  0  0
  185.2500  177.9770  145.7550 C   0  0  0  0  0  0  0  0  0  0  0  0
  184.2590  178.7260  145.9670 O   0  0  0  0  0  0  0  0  0  0  0  0
  186.2370  177.8130  146.7650 N   0  0  0  0  0  1  0  0  0  0  0  0
  187.0820  179.5480  143.1840 O   0  0  0  0  0  1  0  0  0  0  0  0
  185.6890  179.4880  143.2880 C   0  0  0  0  0  2  0  0  0  0  0  0
  187.9430  175.6140  140.6400 C   0  0  0  0  0  2  0  0  0  0  0  0
  187.8750  174.2340  140.0030 C   0  0  0  0  0  1  0  0  0  0  0  0
  1 25  1  0  0  0  0
  1 24  1  0  0  0  0
  2 10  1  6  0  0  0
  2 38  1  0  0  0  0
  3 35  1  0  0  0  0
  5 12  1  6  0  0  0
  5  3  1  0  0  0  0
  8 40  1  0  0  0  0
 11 15  2  0  0  0  0
 11  8  1  0  0  0  0
 12 38  1  0  0  0  0
 14  3  2  0  0  0  0
 14 20  1  0  0  0  0
 17  9  1  6  0  0  0
 17 28  1  0  0  0  0
 17  5  1  0  0  0  0
 18 13  1  0  0  0  0
 18  9  1  1  0  0  0
 19  7  2  0  0  0  0
 20 27  2  0  0  0  0
 21 33  2  6  0  0  0
 21 16  1  0  0  0  0
 21 26  1  0  0  0  0
 21 37  1  0  0  0  0
 22 40  1  6  0  0  0
 22 34  1  0  0  0  0
 22 36  1  0  0  0  0
 23 32  1  6  0  0  0
 23 16  1  0  0  0  0
 24 14  1  0  0  0  0
 25 41  1  1  0  0  0
 25 31  1  0  0  0  0
 26 11  1  0  0  0  0
 27  6  1  0  0  0  0
 30  4  1  6  0  0  0
 30 23  1  0  0  0  0
 30 19  1  0  0  0  0
 31 28  1  0  0  0  0
 34 36  1  0  0  0  0
 35 27  1  0  0  0  0
 36 29  1  6  0  0  0
 36  2  1  0  0  0  0
 39  7  1  6  0  0  0
 39 18  1  0  0  0  0
 39 13  1  0  0  0  0
 41 58  1  6  0  0  0
 42 41  1  6  0  0  0
 42 48  1  0  0  0  0
 43 52  1  1  0  0  0
 43 44  1  0  0  0  0
 44 42  1  0  0  0  0
 44 45  1  0  0  0  0
 45 57  1  0  0  0  0
 45 46  1  0  0  0  0
 46 53  1  0  0  0  0
 47 49  1  0  0  0  0
 48 46  1  0  0  0  0
 48 51  1  0  0  0  0
 49 45  1  0  0  0  0
 50 43  1  0  0  0  0
 50 47  1  0  0  0  0
 53 54  2  0  0  0  0
 53 55  1  0  0  0  0
 56 57  1  0  0  0  0
 59 58  1  0  0  0  0
M  END
>  <MODEL>
6

>  <REMARK>
 VINA RESULT:      -6.2      1.290      1.442
  Name = 
  5 active torsions:
  status: ('A' for Active; 'I' for Inactive)
    1  A    between atoms: C_3  and  C_55
    2  A    between atoms: C_9  and  C_47
    3  A    between atoms: C_23  and  C_55
    4  A    between atoms: C_24  and  C_29
    5  A    between atoms: C_38  and  C_55
                            x       y       z     vdW  Elec       q    Type
                         _______ _______ _______ _____ _____    ______ ____

>  <TORSDO>
F 5

$$$$
=
 OpenBabel11062422343D

 59 65  0  0  1  0  0  0  0  0999 V2000
  192.3030  176.1150  143.5430 O   0  0  0  0  0  0  0  0  0  0  0  0
  195.9310  171.5450  144.3290 C   0  0  2  0  0  3  0  0  0  0  0  0
  192.4320  174.5000  146.0490 C   0  0  0  0  0  0  0  0  0  0  0  0
  191.4410  172.9790  136.3020 C   0  0  0  0  0  1  0  0  0  0  0  0
  192.6420  173.4680  144.9730 C   0  0  2  0  0  3  0  0  0  0  0  0
  191.5990  175.7130  149.4730 C   0  0  0  0  0  1  0  0  0  0  0  0
  190.6000  173.8930  139.0380 C   0  0  0  0  0  3  0  0  0  0  0  0
  194.5260  172.1700  139.5600 O   0  0  0  0  0  0  0  0  0  0  0  0
  192.1980  173.6270  142.3970 C   0  0  0  0  0  2  0  0  0  0  0  0
  196.8590  172.5300  144.6790 O   0  0  0  0  0  1  0  0  0  0  0  0
  194.1050  171.0740  138.8050 C   0  0  0  0  0  0  0  0  0  0  0  0
  194.1070  173.2970  144.5950 C   0  0  0  0  0  2  0  0  0  0  0  0
  190.0380  173.3020  141.3060 O   0  0  0  0  0  0  0  0  0  0  0  0
  192.4940  175.8350  145.9730 C   0  0  0  0  0  0  0  0  0  0  0  0
  194.8540  170.0710  138.6480 O   0  0  0  0  0  0  0  0  0  0  0  0
  190.3450  169.9350  137.3560 C   0  0  0  0  0  2  0  0  0  0  0  0
  191.6350  173.3180  143.7940 C   0  0  2  0  0  3  0  0  0  0  0  0
  191.4230  173.0340  141.2260 C   0  0  1  0  0  3  0  0  0  0  0  0
  190.2900  172.7030  138.5110 C   0  0  0  0  0  3  0  0  0  0  0  0
  192.1890  176.4270  147.2230 N   0  0  0  0  0  0  0  0  0  0  0  0
  192.1680  169.8570  137.2730 P   0  0  2  0  0  0  0  0  0  0  0  0
  195.0730  172.0150  141.8830 C   0  0  1  0  0  3  0  0  0  0  0  0
  189.7150  171.1260  136.6140 C   0  0  1  0  0  3  0  0  0  0  0  0
  192.7040  176.7030  144.7560 C   0  0  0  0  0  2  0  0  0  0  0  0
  190.8890  176.0860  143.4260 C   0  0  1  0  0  3  0  0  0  0  0  0
  192.8090  171.0890  138.2890 O   0  0  0  0  0  0  0  0  0  0  0  0
  191.9560  175.4690  148.0520 C   0  0  0  0  0  0  0  0  0  0  0  0
  190.2930  173.7460  143.9890 O   0  0  0  0  0  0  0  0  0  0  0  0
  197.1940  170.7820  142.3000 F   0  0  0  0  0  0  0  0  0  0  0  0
  190.1680  172.5410  137.0230 C   0  0  2  0  0  3  0  0  0  0  0  0
  190.1760  175.1060  144.3650 C   0  0  0  0  0  2  0  0  0  0  0  0
  189.7760  170.9420  135.2300 O   0  0  0  0  0  1  0  0  0  0  0  0
  192.6340  170.0500  135.8490 O   0  0  0  0  0  0  0  0  0  0  0  0
  194.7860  170.5570  142.2340 C   0  0  0  0  0  2  0  0  0  0  0  0
  192.0920  174.1160  147.4480 C   0  0  0  0  0  2  0  0  0  0  0  0
  195.9980  171.2520  142.8180 C   0  0  1  0  0  0  0  0  0  0  0  0
  192.6620  168.3300  137.8140 O   0  0  0  0  0  1  0  0  0  0  0  0
  194.5400  171.8680  144.8910 C   0  0  0  0  0  2  0  0  0  0  0  0
  190.7960  174.1720  140.5040 C   0  0  1  0  0  3  0  0  0  0  0  0
  195.6180  172.0960  140.4660 C   0  0  0  0  0  2  0  0  0  0  0  0
  190.1670  177.4110  143.1010 C   0  0  1  0  0  3  0  0  0  0  0  0
  188.6380  177.2860  142.9000 C   0  0  1  0  0  3  0  0  0  0  0  0
  187.7830  177.4780  145.4230 C   0  0  1  0  0  3  0  0  0  0  0  0
  187.7780  177.9420  143.9660 C   0  0  2  0  0  3  0  0  0  0  0  0
  186.3910  178.0730  143.3590 C   0  0  2  0  0  0  0  0  0  0  0  0
  186.7370  178.5390  141.9460 C   0  0  1  0  0  3  0  0  0  0  0  0
  185.5660  178.7200  145.6450 C   0  0  0  0  0  2  0  0  0  0  0  0
  188.1110  177.9450  141.6020 C   0  0  1  0  0  3  0  0  0  0  0  0
  185.6440  179.1360  144.1650 C   0  0  0  0  0  2  0  0  0  0  0  0
  186.9620  178.4810  146.2450 C   0  0  0  0  0  2  0  0  0  0  0  0
  188.9390  178.9890  141.1780 O   0  0  0  0  0  1  0  0  0  0  0  0
  187.2700  176.1970  145.5650 F   0  0  0  0  0  0  0  0  0  0  0  0
  185.6860  178.3040  140.8980 C   0  0  0  0  0  0  0  0  0  0  0  0
  184.4860  178.6300  141.1040 O   0  0  0  0  0  0  0  0  0  0  0  0
  186.0560  177.7390  139.6470 N   0  0  0  0  0  1  0  0  0  0  0  0
  186.2210  175.7160  142.7020 O   0  0  0  0  0  1  0  0  0  0  0  0
  185.5740  176.7550  143.3790 C   0  0  0  0  0  2  0  0  0  0  0  0
  190.5810  178.4890  144.1090 C   0  0  0  0  0  2  0  0  0  0  0  0
  191.6890  179.3870  143.5800 C   0  0  0  0  0  1  0  0  0  0  0  0
  1 24  1  0  0  0  0
  2 10  1  6  0  0  0
  2 38  1  0  0  0  0
  3 35  1  0  0  0  0
  5 12  1  6  0  0  0
  5  3  1  0  0  0  0
  8 40  1  0  0  0  0
 11  8  1  0  0  0  0
 12 38  1  0  0  0  0
 14  3  2  0  0  0  0
 14 20  1  0  0  0  0
 15 11  2  0  0  0  0
 17  9  1  6  0  0  0
 17 28  1  0  0  0  0
 17  5  1  0  0  0  0
 18 13  1  0  0  0  0
 18  9  1  1  0  0  0
 19  7  2  0  0  0  0
 20 27  2  0  0  0  0
 21 33  2  6  0  0  0
 21 16  1  0  0  0  0
 21 37  1  0  0  0  0
 21 26  1  0  0  0  0
 22 40  1  6  0  0  0
 22 34  1  0  0  0  0
 22 36  1  0  0  0  0
 23 32  1  6  0  0  0
 23 30  1  0  0  0  0
 23 16  1  0  0  0  0
 24 14  1  0  0  0  0
 25 41  1  1  0  0  0
 25  1  1  0  0  0  0
 25 31  1  0  0  0  0
 26 11  1  0  0  0  0
 27  6  1  0  0  0  0
 28 31  1  0  0  0  0
 30  4  1  6  0  0  0
 30 19  1  0  0  0  0
 34 36  1  0  0  0  0
 35 27  1  0  0  0  0
 36 29  1  6  0  0  0
 36  2  1  0  0  0  0
 39  7  1  6  0  0  0
 39 18  1  0  0  0  0
 39 13  1  0  0  0  0
 41 58  1  1  0  0  0
 42 41  1  1  0  0  0
 42 44  1  0  0  0  0
 43 52  1  6  0  0  0
 43 50  1  0  0  0  0
 44 43  1  0  0  0  0
 45 57  1  0  0  0  0
 45 44  1  0  0  0  0
 45 49  1  0  0  0  0
 46 45  1  0  0  0  0
 47 50  1  0  0  0  0
 48 46  1  0  0  0  0
 48 42  1  0  0  0  0
 49 47  1  0  0  0  0
 51 48  1  0  0  0  0
 53 54  2  0  0  0  0
 53 46  1  0  0  0  0
 55 53  1  0  0  0  0
 56 57  1  0  0  0  0
 59 58  1  0  0  0  0
M  END
>  <MODEL>
7

>  <REMARK>
 VINA RESULT:      -6.1      2.477      3.435
  Name = 
  5 active torsions:
  status: ('A' for Active; 'I' for Inactive)
    1  A    between atoms: C_3  and  C_55
    2  A    between atoms: C_9  and  C_47
    3  A    between atoms: C_23  and  C_55
    4  A    between atoms: C_24  and  C_29
    5  A    between atoms: C_38  and  C_55
                            x       y       z     vdW  Elec       q    Type
                         _______ _______ _______ _____ _____    ______ ____

>  <TORSDO>
F 5

$$$$
=
 OpenBabel11062422343D

 59 65  0  0  1  0  0  0  0  0999 V2000
  188.8740  172.7900  140.4950 O   0  0  0  0  0  0  0  0  0  0  0  0
  192.1250  170.3060  136.2620 C   0  0  2  0  0  3  0  0  0  0  0  0
  189.4800  174.0900  137.8780 C   0  0  0  0  0  0  0  0  0  0  0  0
  194.3970  169.6710  145.2670 C   0  0  0  0  0  1  0  0  0  0  0  0
  190.7580  173.3590  138.1950 C   0  0  2  0  0  3  0  0  0  0  0  0
  187.3520  176.6140  136.1500 C   0  0  0  0  0  1  0  0  0  0  0  0
  192.7810  171.8360  143.9530 C   0  0  0  0  0  3  0  0  0  0  0  0
  193.4460  168.8760  140.8790 O   0  0  0  0  0  0  0  0  0  0  0  0
  191.5760  172.3280  140.4590 C   0  0  0  0  0  2  0  0  0  0  0  0
  190.9240  169.6890  135.9040 O   0  0  0  0  0  1  0  0  0  0  0  0
  194.7920  168.8510  141.2460 C   0  0  0  0  0  0  0  0  0  0  0  0
  190.7670  171.9300  137.6710 C   0  0  0  0  0  2  0  0  0  0  0  0
  192.6570  173.5570  142.2710 O   0  0  0  0  0  0  0  0  0  0  0  0
  188.2650  173.9580  138.4260 C   0  0  2  0  0  3  0  0  0  0  0  0
  195.6270  168.1660  140.5940 O   0  0  0  0  0  0  0  0  0  0  0  0
  197.0480  171.2520  143.8320 C   0  0  0  0  0  2  0  0  0  0  0  0
  191.4900  173.5680  139.5540 C   0  0  2  0  0  3  0  0  0  0  0  0
  192.6680  172.3590  141.5210 C   0  0  1  0  0  3  0  0  0  0  0  0
  194.1150  171.8450  144.0520 C   0  0  0  0  0  3  0  0  0  0  0  0
  187.3510  174.8760  137.8530 N   0  0  0  0  0  0  0  0  0  0  0  0
  196.8030  169.6790  142.9350 P   0  0  2  0  0  0  0  0  0  0  0  0
  192.6910  169.6830  138.7580 C   0  0  1  0  0  3  0  0  0  0  0  0
  196.3230  171.3420  145.1860 C   0  0  1  0  0  3  0  0  0  0  0  0
  187.8420  173.0950  139.5900 C   0  0  0  0  0  2  0  0  0  0  0  0
  189.2080  173.9140  141.2950 C   0  0  1  0  0  3  0  0  0  0  0  0
  195.2000  169.6580  142.3090 O   0  0  0  0  0  0  0  0  0  0  0  0
  187.9940  175.5500  136.9620 C   0  0  0  0  0  0  0  0  0  0  0  0
  191.2830  174.7880  140.2550 O   0  0  0  0  0  0  0  0  0  0  0  0
  193.2820  168.1660  136.8770 F   0  0  0  0  0  0  0  0  0  0  0  0
  194.7960  171.1430  145.1920 C   0  0  2  0  0  3  0  0  0  0  0  0
  189.9250  175.0500  140.5570 C   0  0  0  0  0  2  0  0  0  0  0  0
  196.9540  170.5450  146.1450 O   0  0  0  0  0  1  0  0  0  0  0  0
  197.0230  168.5090  143.8650 O   0  0  0  0  0  1  0  0  0  0  0  0
  193.9670  170.1570  138.0680 C   0  0  0  0  0  2  0  0  0  0  0  0
  189.4200  175.1460  136.8290 C   0  0  0  0  0  3  0  0  0  0  0  0
  192.8990  169.4380  137.2720 C   0  0  1  0  0  0  0  0  0  0  0  0
  197.9300  169.6030  141.6740 O   0  0  0  0  0  0  0  0  0  0  0  0
  191.9000  171.7690  136.6660 C   0  0  0  0  0  2  0  0  0  0  0  0
  191.9860  172.4600  142.8380 C   0  0  1  0  0  3  0  0  0  0  0  0
  192.9970  168.4540  139.5980 C   0  0  0  0  0  2  0  0  0  0  0  0
  188.2360  174.3040  142.4280 C   0  0  1  0  0  3  0  0  0  0  0  0
  188.8870  175.0590  143.6110 C   0  0  1  0  0  3  0  0  0  0  0  0
  186.9210  176.7420  144.2750 C   0  0  1  0  0  3  0  0  0  0  0  0
  187.9230  175.6420  144.6300 C   0  0  2  0  0  3  0  0  0  0  0  0
  188.7530  175.9350  145.8690 C   0  0  2  0  0  0  0  0  0  0  0  0
  189.6210  174.6780  145.9380 C   0  0  1  0  0  3  0  0  0  0  0  0
  186.7630  177.1680  146.7850 C   0  0  0  0  0  2  0  0  0  0  0  0
  189.8080  174.1840  144.4960 C   0  0  1  0  0  3  0  0  0  0  0  0
  187.7840  176.0460  147.0460 C   0  0  0  0  0  2  0  0  0  0  0  0
  185.9870  176.9410  145.4760 C   0  0  0  0  0  2  0  0  0  0  0  0
  189.4420  172.8360  144.4500 O   0  0  0  0  0  1  0  0  0  0  0  0
  187.5480  177.9330  143.9430 F   0  0  0  0  0  0  0  0  0  0  0  0
  190.9000  174.8020  146.7170 C   0  0  0  0  0  0  0  0  0  0  0  0
  190.8820  175.0750  147.9470 O   0  0  0  0  0  0  0  0  0  0  0  0
  192.1430  174.5740  146.0650 N   0  0  0  0  0  1  0  0  0  0  0  0
  189.6430  177.9270  146.9870 O   0  0  0  0  0  1  0  0  0  0  0  0
  189.5850  177.2390  145.7710 C   0  0  0  0  0  2  0  0  0  0  0  0
  187.0060  175.0030  141.8400 C   0  0  0  0  0  2  0  0  0  0  0  0
  187.3410  176.3510  141.2210 C   0  0  0  0  0  1  0  0  0  0  0  0
  1 25  1  0  0  0  0
  2 10  1  1  0  0  0
  2 38  1  0  0  0  0
  2 36  1  0  0  0  0
  3  5  1  0  0  0  0
  3 14  1  0  0  0  0
  5 12  1  1  0  0  0
  5 17  1  0  0  0  0
  6 27  1  0  0  0  0
  7 19  2  0  0  0  0
  8 11  1  0  0  0  0
 11 26  1  0  0  0  0
 13 39  1  0  0  0  0
 14 24  1  1  0  0  0
 15 11  2  0  0  0  0
 16 23  1  0  0  0  0
 17 28  1  0  0  0  0
 17  9  1  1  0  0  0
 18  9  1  6  0  0  0
 18 13  1  0  0  0  0
 18 39  1  0  0  0  0
 19 30  1  0  0  0  0
 20 14  1  0  0  0  0
 21 37  2  6  0  0  0
 21 16  1  0  0  0  0
 21 33  1  0  0  0  0
 22 34  1  1  0  0  0
 22 40  1  0  0  0  0
 23 30  1  0  0  0  0
 23 32  1  1  0  0  0
 24  1  1  0  0  0  0
 25 41  1  6  0  0  0
 26 21  1  0  0  0  0
 27 20  2  0  0  0  0
 28 31  1  0  0  0  0
 30  4  1  6  0  0  0
 31 25  1  0  0  0  0
 35 27  1  0  0  0  0
 35  3  2  0  0  0  0
 36 29  1  6  0  0  0
 36 34  1  0  0  0  0
 36 22  1  0  0  0  0
 38 12  1  0  0  0  0
 39  7  1  1  0  0  0
 40  8  1  0  0  0  0
 41 58  1  6  0  0  0
 42 41  1  6  0  0  0
 42 48  1  0  0  0  0
 42 44  1  0  0  0  0
 43 52  1  1  0  0  0
 43 44  1  0  0  0  0
 43 50  1  0  0  0  0
 44 45  1  0  0  0  0
 45 46  1  0  0  0  0
 45 49  1  0  0  0  0
 46 53  1  0  0  0  0
 47 49  1  0  0  0  0
 48 46  1  0  0  0  0
 50 47  1  0  0  0  0
 51 48  1  0  0  0  0
 53 54  2  0  0  0  0
 55 53  1  0  0  0  0
 57 45  1  0  0  0  0
 57 56  1  0  0  0  0
 59 58  1  0  0  0  0
M  END
>  <MODEL>
8

>  <REMARK>
 VINA RESULT:      -5.6      3.349      6.486
  Name = 
  5 active torsions:
  status: ('A' for Active; 'I' for Inactive)
    1  A    between atoms: C_3  and  C_55
    2  A    between atoms: C_9  and  C_47
    3  A    between atoms: C_23  and  C_55
    4  A    between atoms: C_24  and  C_29
    5  A    between atoms: C_38  and  C_55
                            x       y       z     vdW  Elec       q    Type
                         _______ _______ _______ _____ _____    ______ ____

>  <TORSDO>
F 5

$$$$
