=
 OpenBabel11062418443D

 43 48  0  0  1  0  0  0  0  0999 V2000
  188.0060  174.2240  141.1590 C   0  0  0  0  0  0  0  0  0  0  0  0
  187.5050  176.0890  139.6880 C   0  0  0  0  0  3  0  0  0  0  0  0
  188.0530  174.8210  139.8870 C   0  0  0  0  0  3  0  0  0  0  0  0
  186.9100  176.7680  140.7550 C   0  0  0  0  0  3  0  0  0  0  0  0
  186.8850  176.1960  142.0380 C   0  0  0  0  0  0  0  0  0  0  0  0
  187.4250  174.9170  142.2250 C   0  0  0  0  0  3  0  0  0  0  0  0
  188.4670  172.8820  141.3710 N   0  0  0  0  0  2  0  0  0  0  0  0
  191.7550  172.4420  143.2150 N   0  0  0  0  0  0  0  0  0  0  0  0
  192.3090  171.3140  142.4380 C   0  0  2  0  0  0  0  0  0  0  0  0
  190.7720  173.0750  140.4510 C   0  0  0  0  0  2  0  0  0  0  0  0
  189.8590  172.4790  141.5490 C   0  0  1  0  0  3  0  0  0  0  0  0
  190.3100  172.6690  143.0110 C   0  0  1  0  0  3  0  0  0  0  0  0
  192.4580  171.6250  140.9550 C   0  0  2  0  0  3  0  0  0  0  0  0
  191.8470  170.0310  142.6830 F   0  0  0  0  0  0  0  0  0  0  0  0
  193.6860  171.5110  141.8500 C   0  0  0  0  0  2  0  0  0  0  0  0
  192.1540  172.9780  140.7290 O   0  0  0  0  0  0  0  0  0  0  0  0
  189.5520  171.8280  143.8180 F   0  0  0  0  0  0  0  0  0  0  0  0
  192.1230  172.4860  144.6430 C   0  0  0  0  0  2  0  0  0  0  0  0
  193.2990  174.6840  145.0930 C   0  0  0  0  0  0  0  0  0  0  0  0
  194.7520  174.2600  144.1540 S   0  0  0  0  0  0  0  0  0  0  0  0
  191.0800  174.3500  145.9870 C   0  0  0  0  0  3  0  0  0  0  0  0
  191.1330  175.6220  146.5780 C   0  0  0  0  0  3  0  0  0  0  0  0
  192.2780  176.4180  146.4340 C   0  0  0  0  0  3  0  0  0  0  0  0
  192.1660  173.8660  145.2440 C   0  0  0  0  0  0  0  0  0  0  0  0
  195.6310  175.6480  144.9600 C   0  0  0  0  0  2  0  0  0  0  0  0
  194.6130  176.6690  145.4730 C   0  0  0  0  0  2  0  0  0  0  0  0
  193.3520  175.9270  145.6910 C   0  0  0  0  0  0  0  0  0  0  0  0
  186.1890  176.8750  143.1940 C   0  0  2  0  0  3  0  0  0  0  0  0
  184.0580  178.0010  142.9700 O   0  0  0  0  0  1  0  0  0  0  0  0
  185.4290  178.1320  142.7430 C   0  0  1  0  0  3  0  0  0  0  0  0
  185.9490  179.3840  143.4260 C   0  0  0  0  0  1  0  0  0  0  0  0
  187.1250  177.2010  144.3710 C   0  0  1  0  0  3  0  0  0  0  0  0
  184.7240  177.8950  146.6140 C   0  0  0  0  0  3  0  0  0  0  0  0
  185.5660  179.0500  147.0620 C   0  0  0  0  0  2  0  0  0  0  0  0
  187.8360  178.0630  147.3880 C   0  0  0  0  0  2  0  0  0  0  0  0
  187.6090  176.6410  146.8790 C   0  0  0  0  0  2  0  0  0  0  0  0
  186.6520  176.5500  145.6820 C   0  0  1  0  0  3  0  0  0  0  0  0
  185.2040  176.7980  146.0140 C   0  0  0  0  0  3  0  0  0  0  0  0
  186.6040  178.6220  148.0840 C   0  0  0  0  0  2  0  0  0  0  0  0
  188.4760  176.8630  144.0770 O   0  0  0  0  0  0  0  0  0  0  0  0
  189.5780  178.2750  142.4470 O   0  0  0  0  0  0  0  0  0  0  0  0
  189.4140  177.8490  143.7590 C   0  0  0  0  0  0  0  0  0  0  0  0
  190.1220  178.3530  144.6700 O   0  0  0  0  0  1  0  0  0  0  0  0
  1  7  1  0  0  0  0
  1  6  1  0  0  0  0
  2  3  1  0  0  0  0
  2  4  2  0  0  0  0
  3  1  2  0  0  0  0
  4  5  1  0  0  0  0
  5  6  2  0  0  0  0
  5 28  1  0  0  0  0
  8 18  1  0  0  0  0
  9 14  1  1  0  0  0
  9  8  1  0  0  0  0
 10 16  1  0  0  0  0
 10 11  1  0  0  0  0
 11  7  1  1  0  0  0
 11 12  1  0  0  0  0
 12  8  1  0  0  0  0
 12 17  1  1  0  0  0
 13 15  1  1  0  0  0
 13  9  1  0  0  0  0
 15  9  1  0  0  0  0
 16 13  1  0  0  0  0
 18 24  1  0  0  0  0
 19 24  2  0  0  0  0
 19 27  1  0  0  0  0
 20 25  1  0  0  0  0
 20 19  1  0  0  0  0
 21 22  2  0  0  0  0
 23 22  1  0  0  0  0
 24 21  1  0  0  0  0
 25 26  1  0  0  0  0
 26 27  1  0  0  0  0
 27 23  2  0  0  0  0
 28 30  1  6  0  0  0
 28 32  1  0  0  0  0
 30 29  1  0  0  0  0
 30 31  1  1  0  0  0
 32 40  1  6  0  0  0
 33 34  1  0  0  0  0
 34 39  1  0  0  0  0
 35 39  1  0  0  0  0
 36 35  1  0  0  0  0
 37 32  1  6  0  0  0
 37 38  1  0  0  0  0
 37 36  1  0  0  0  0
 38 33  2  0  0  0  0
 41 42  2  0  0  0  0
 42 40  1  0  0  0  0
 42 43  1  0  0  0  0
M  END
>  <MODEL>
1

>  <REMARK>
 VINA RESULT:      -7.7      0.000      0.000
  Name = 
  10 active torsions:
  status: ('A' for Active; 'I' for Inactive)
    1  A    between atoms: O_1  and  C_9
    2  A    between atoms: O_1  and  C_17
    3  A    between atoms: N_3  and  C_30
    4  A    between atoms: C_9  and  C_20
    5  A    between atoms: C_9  and  C_29
    6  A    between atoms: C_10  and  N_13
    7  A    between atoms: N_13  and  C_23
    8  A    between atoms: C_15  and  C_29
    9  A    between atoms: C_28  and  C_30
   10  A    between atoms: C_29  and  C_31
                            x       y       z     vdW  Elec       q    Type
                         _______ _______ _______ _____ _____    ______ ____

>  <TORSDO>
F 10

$$$$
=
 OpenBabel11062418443D

 43 48  0  0  1  0  0  0  0  0999 V2000
  189.0270  173.3630  141.9690 C   0  0  0  0  0  0  0  0  0  0  0  0
  188.0390  174.7870  140.2690 C   0  0  0  0  0  3  0  0  0  0  0  0
  188.4400  173.5220  140.7020 C   0  0  0  0  0  3  0  0  0  0  0  0
  188.2230  175.8990  141.0960 C   0  0  0  0  0  3  0  0  0  0  0  0
  188.8390  175.7580  142.3510 C   0  0  0  0  0  0  0  0  0  0  0  0
  189.2250  174.4830  142.7830 C   0  0  0  0  0  3  0  0  0  0  0  0
  189.3560  172.0650  142.4830 N   0  0  0  0  0  2  0  0  0  0  0  0
  192.8260  171.8170  143.9990 N   0  0  0  0  0  0  0  0  0  0  0  0
  193.1200  170.4060  143.6790 C   0  0  2  0  0  0  0  0  0  0  0  0
  191.4910  171.5150  141.3290 C   0  0  0  0  0  2  0  0  0  0  0  0
  190.7050  171.5360  142.6610 C   0  0  1  0  0  3  0  0  0  0  0  0
  191.4010  172.1850  143.8730 C   0  0  1  0  0  3  0  0  0  0  0  0
  193.0640  170.1060  142.1870 C   0  0  2  0  0  3  0  0  0  0  0  0
  192.5640  169.4040  144.4580 F   0  0  0  0  0  0  0  0  0  0  0  0
  194.3990  170.1380  142.9220 C   0  0  0  0  0  2  0  0  0  0  0  0
  192.8800  171.3040  141.4770 O   0  0  0  0  0  0  0  0  0  0  0  0
  190.6930  171.8470  145.0200 F   0  0  0  0  0  0  0  0  0  0  0  0
  193.4190  172.3350  145.2470 C   0  0  0  0  0  2  0  0  0  0  0  0
  194.5400  174.5120  144.5980 C   0  0  0  0  0  0  0  0  0  0  0  0
  195.7080  173.7440  143.4940 S   0  0  0  0  0  0  0  0  0  0  0  0
  192.6680  174.5800  146.1230 C   0  0  0  0  0  3  0  0  0  0  0  0
  192.8040  175.9730  146.2170 C   0  0  0  0  0  3  0  0  0  0  0  0
  193.8180  176.6320  145.5080 C   0  0  0  0  0  3  0  0  0  0  0  0
  193.5410  173.8340  145.3170 C   0  0  0  0  0  0  0  0  0  0  0  0
  196.6880  175.2890  143.5160 C   0  0  0  0  0  2  0  0  0  0  0  0
  195.7870  176.4590  143.9180 C   0  0  0  0  0  2  0  0  0  0  0  0
  194.6790  175.8800  144.7080 C   0  0  0  0  0  0  0  0  0  0  0  0
  188.9880  176.9290  143.2940 C   0  0  2  0  0  3  0  0  0  0  0  0
  191.3230  176.7910  142.6700 O   0  0  0  0  0  1  0  0  0  0  0  0
  190.4540  177.1510  143.7000 C   0  0  1  0  0  3  0  0  0  0  0  0
  190.7140  178.5870  144.1190 C   0  0  0  0  0  1  0  0  0  0  0  0
  188.0890  176.8370  144.5390 C   0  0  1  0  0  3  0  0  0  0  0  0
  185.7960  179.1120  143.6210 C   0  0  0  0  0  3  0  0  0  0  0  0
  185.8060  179.5970  145.0390 C   0  0  0  0  0  2  0  0  0  0  0  0
  185.5550  177.5190  146.3990 C   0  0  0  0  0  2  0  0  0  0  0  0
  185.6200  176.4500  145.3100 C   0  0  0  0  0  2  0  0  0  0  0  0
  186.5970  176.7770  144.1710 C   0  0  1  0  0  3  0  0  0  0  0  0
  186.1400  177.8730  143.2450 C   0  0  0  0  0  3  0  0  0  0  0  0
  184.8660  178.7860  145.9130 C   0  0  0  0  0  2  0  0  0  0  0  0
  188.4650  175.7480  145.3780 O   0  0  0  0  0  0  0  0  0  0  0  0
  189.2470  174.9030  147.5080 O   0  0  0  0  0  1  0  0  0  0  0  0
  188.9870  175.9690  146.6550 C   0  0  0  0  0  0  0  0  0  0  0  0
  189.2200  177.1440  147.0390 O   0  0  0  0  0  0  0  0  0  0  0  0
  1  7  1  0  0  0  0
  1  6  1  0  0  0  0
  2  3  1  0  0  0  0
  2  4  2  0  0  0  0
  3  1  2  0  0  0  0
  4  5  1  0  0  0  0
  5  6  2  0  0  0  0
  5 28  1  0  0  0  0
  8 18  1  0  0  0  0
  9  8  1  0  0  0  0
  9 14  1  1  0  0  0
 10 16  1  0  0  0  0
 10 11  1  0  0  0  0
 11  7  1  6  0  0  0
 11 12  1  0  0  0  0
 12  8  1  0  0  0  0
 12 17  1  1  0  0  0
 13 15  1  6  0  0  0
 13  9  1  0  0  0  0
 15  9  1  0  0  0  0
 16 13  1  0  0  0  0
 18 24  1  0  0  0  0
 19 27  2  0  0  0  0
 19 24  1  0  0  0  0
 20 25  1  0  0  0  0
 20 19  1  0  0  0  0
 21 22  1  0  0  0  0
 23 22  2  0  0  0  0
 24 21  2  0  0  0  0
 25 26  1  0  0  0  0
 26 27  1  0  0  0  0
 27 23  1  0  0  0  0
 28 30  1  1  0  0  0
 28 32  1  0  0  0  0
 29 30  1  0  0  0  0
 30 31  1  6  0  0  0
 32 40  1  6  0  0  0
 33 34  1  0  0  0  0
 34 39  1  0  0  0  0
 36 35  1  0  0  0  0
 37 32  1  1  0  0  0
 37 36  1  0  0  0  0
 38 33  2  0  0  0  0
 38 37  1  0  0  0  0
 39 35  1  0  0  0  0
 40 42  1  0  0  0  0
 42 43  2  0  0  0  0
 42 41  1  0  0  0  0
M  END
>  <MODEL>
2

>  <REMARK>
 VINA RESULT:      -7.5      1.682      2.650
  Name = 
  10 active torsions:
  status: ('A' for Active; 'I' for Inactive)
    1  A    between atoms: O_1  and  C_9
    2  A    between atoms: O_1  and  C_17
    3  A    between atoms: N_3  and  C_30
    4  A    between atoms: C_9  and  C_20
    5  A    between atoms: C_9  and  C_29
    6  A    between atoms: C_10  and  N_13
    7  A    between atoms: N_13  and  C_23
    8  A    between atoms: C_15  and  C_29
    9  A    between atoms: C_28  and  C_30
   10  A    between atoms: C_29  and  C_31
                            x       y       z     vdW  Elec       q    Type
                         _______ _______ _______ _____ _____    ______ ____

>  <TORSDO>
F 10

$$$$
=
 OpenBabel11062418443D

 43 48  0  0  1  0  0  0  0  0999 V2000
  191.3820  176.2480  144.5790 C   0  0  0  0  0  0  0  0  0  0  0  0
  191.0200  178.2260  143.2180 C   0  0  0  0  0  3  0  0  0  0  0  0
  191.8670  177.4280  143.9890 C   0  0  0  0  0  3  0  0  0  0  0  0
  189.6860  177.8510  143.0320 C   0  0  0  0  0  3  0  0  0  0  0  0
  189.1800  176.6910  143.6430 C   0  0  0  0  0  0  0  0  0  0  0  0
  190.0410  175.8900  144.4040 C   0  0  0  0  0  3  0  0  0  0  0  0
  192.2520  175.3570  145.2900 N   0  0  0  0  0  2  0  0  0  0  0  0
  195.0810  173.1610  144.0370 N   0  0  0  0  0  0  0  0  0  0  0  0
  195.9980  174.2130  143.5550 C   0  0  2  0  0  0  0  0  0  0  0  0
  194.6190  175.3310  146.0570 C   0  0  0  0  0  2  0  0  0  0  0  0
  193.6230  175.0240  144.9140 C   0  0  1  0  0  3  0  0  0  0  0  0
  193.6990  173.6220  144.2790 C   0  0  1  0  0  3  0  0  0  0  0  0
  196.4030  175.1990  144.6430 C   0  0  2  0  0  3  0  0  0  0  0  0
  195.7510  174.8200  142.3340 F   0  0  0  0  0  0  0  0  0  0  0  0
  197.4050  174.1860  144.1030 C   0  0  0  0  0  2  0  0  0  0  0  0
  195.9000  174.7610  145.8800 O   0  0  0  0  0  0  0  0  0  0  0  0
  192.9610  173.6310  143.1010 F   0  0  0  0  0  0  0  0  0  0  0  0
  195.1140  171.8850  143.2960 C   0  0  0  0  0  2  0  0  0  0  0  0
  195.1840  170.2170  145.2020 C   0  0  0  0  0  0  0  0  0  0  0  0
  196.6240  170.9360  145.9640 S   0  0  0  0  0  0  0  0  0  0  0  0
  193.4030  170.0510  143.5780 C   0  0  0  0  0  3  0  0  0  0  0  0
  192.9010  168.9280  144.2520 C   0  0  0  0  0  3  0  0  0  0  0  0
  193.5520  168.4440  145.3970 C   0  0  0  0  0  3  0  0  0  0  0  0
  194.5550  170.7030  144.0430 C   0  0  0  0  0  0  0  0  0  0  0  0
  196.8140  169.4100  146.9560 C   0  0  0  0  0  2  0  0  0  0  0  0
  195.4690  168.6850  147.0400 C   0  0  0  0  0  2  0  0  0  0  0  0
  194.6950  169.1020  145.8510 C   0  0  0  0  0  0  0  0  0  0  0  0
  187.7630  176.2250  143.4060 C   0  0  2  0  0  3  0  0  0  0  0  0
  188.5860  175.8350  141.1630 O   0  0  0  0  0  1  0  0  0  0  0  0
  187.6370  175.4250  142.0990 C   0  0  1  0  0  3  0  0  0  0  0  0
  187.7570  173.9300  142.3370 C   0  0  0  0  0  1  0  0  0  0  0  0
  186.7260  177.3600  143.4470 C   0  0  1  0  0  3  0  0  0  0  0  0
  186.3330  176.8970  146.7500 C   0  0  0  0  0  3  0  0  0  0  0  0
  184.8550  176.8830  146.5060 C   0  0  0  0  0  2  0  0  0  0  0  0
  184.4470  178.9100  145.1060 C   0  0  0  0  0  2  0  0  0  0  0  0
  185.8760  179.3880  144.8640 C   0  0  0  0  0  2  0  0  0  0  0  0
  186.8950  178.2520  144.6900 C   0  0  1  0  0  3  0  0  0  0  0  0
  187.2240  177.5020  145.9530 C   0  0  0  0  0  3  0  0  0  0  0  0
  184.2790  178.2880  146.4850 C   0  0  0  0  0  2  0  0  0  0  0  0
  186.7400  178.1280  142.2470 O   0  0  0  0  0  0  0  0  0  0  0  0
  184.3710  178.2390  141.7590 O   0  0  0  0  0  1  0  0  0  0  0  0
  185.6830  178.0610  141.3360 C   0  0  0  0  0  0  0  0  0  0  0  0
  185.9190  177.8330  140.1220 O   0  0  0  0  0  0  0  0  0  0  0  0
  1  7  1  0  0  0  0
  2  3  1  0  0  0  0
  3  1  2  0  0  0  0
  4  2  2  0  0  0  0
  4  5  1  0  0  0  0
  5  6  2  0  0  0  0
  6  1  1  0  0  0  0
  8 12  1  0  0  0  0
  9 14  1  6  0  0  0
  9  8  1  0  0  0  0
  9 15  1  0  0  0  0
  9 13  1  0  0  0  0
 11  7  1  1  0  0  0
 11 10  1  0  0  0  0
 12 17  1  6  0  0  0
 12 11  1  0  0  0  0
 13 15  1  1  0  0  0
 13 16  1  0  0  0  0
 16 10  1  0  0  0  0
 18  8  1  0  0  0  0
 18 24  1  0  0  0  0
 19 27  1  0  0  0  0
 19 20  1  0  0  0  0
 20 25  1  0  0  0  0
 21 24  1  0  0  0  0
 21 22  2  0  0  0  0
 22 23  1  0  0  0  0
 23 27  2  0  0  0  0
 24 19  2  0  0  0  0
 25 26  1  0  0  0  0
 27 26  1  0  0  0  0
 28 30  1  6  0  0  0
 28 32  1  0  0  0  0
 28  5  1  0  0  0  0
 29 30  1  0  0  0  0
 30 31  1  1  0  0  0
 32 40  1  6  0  0  0
 34 33  1  0  0  0  0
 35 39  1  0  0  0  0
 36 35  1  0  0  0  0
 37 32  1  6  0  0  0
 37 36  1  0  0  0  0
 37 38  1  0  0  0  0
 38 33  2  0  0  0  0
 39 34  1  0  0  0  0
 42 41  1  0  0  0  0
 42 40  1  0  0  0  0
 43 42  2  0  0  0  0
M  END
>  <MODEL>
3

>  <REMARK>
 VINA RESULT:      -7.4      2.918      4.996
  Name = 
  10 active torsions:
  status: ('A' for Active; 'I' for Inactive)
    1  A    between atoms: O_1  and  C_9
    2  A    between atoms: O_1  and  C_17
    3  A    between atoms: N_3  and  C_30
    4  A    between atoms: C_9  and  C_20
    5  A    between atoms: C_9  and  C_29
    6  A    between atoms: C_10  and  N_13
    7  A    between atoms: N_13  and  C_23
    8  A    between atoms: C_15  and  C_29
    9  A    between atoms: C_28  and  C_30
   10  A    between atoms: C_29  and  C_31
                            x       y       z     vdW  Elec       q    Type
                         _______ _______ _______ _____ _____    ______ ____

>  <TORSDO>
F 10

$$$$
=
 OpenBabel11062418443D

 43 48  0  0  1  0  0  0  0  0999 V2000
  191.6050  176.4710  146.1550 C   0  0  0  0  0  0  0  0  0  0  0  0
  190.1160  174.9520  147.3270 C   0  0  0  0  0  3  0  0  0  0  0  0
  191.4080  175.3930  147.0360 C   0  0  0  0  0  3  0  0  0  0  0  0
  189.0150  175.5840  146.7410 C   0  0  0  0  0  3  0  0  0  0  0  0
  189.2000  176.6410  145.8330 C   0  0  0  0  0  0  0  0  0  0  0  0
  190.4990  177.0840  145.5580 C   0  0  0  0  0  3  0  0  0  0  0  0
  192.9120  177.0100  145.9160 N   0  0  0  0  0  2  0  0  0  0  0  0
  194.4020  174.8430  143.1800 N   0  0  0  0  0  0  0  0  0  0  0  0
  195.7440  175.4550  143.1020 C   0  0  2  0  0  0  0  0  0  0  0  0
  194.9140  175.5380  146.0540 C   0  0  0  0  0  2  0  0  0  0  0  0
  193.9720  176.3650  145.1470 C   0  0  1  0  0  3  0  0  0  0  0  0
  193.4030  175.6570  143.9020 C   0  0  1  0  0  3  0  0  0  0  0  0
  196.5010  175.4090  144.4220 C   0  0  2  0  0  3  0  0  0  0  0  0
  195.9030  176.6530  142.4230 F   0  0  0  0  0  0  0  0  0  0  0  0
  196.9220  174.5230  143.2560 C   0  0  0  0  0  2  0  0  0  0  0  0
  195.7680  174.6550  145.3540 O   0  0  0  0  0  0  0  0  0  0  0  0
  192.8430  176.6170  143.0670 F   0  0  0  0  0  0  0  0  0  0  0  0
  193.8630  174.3020  141.9180 C   0  0  0  0  0  2  0  0  0  0  0  0
  192.2440  172.4340  141.3630 C   0  0  0  0  0  0  0  0  0  0  0  0
  191.1560  173.4720  140.4080 S   0  0  0  0  0  0  0  0  0  0  0  0
  194.2080  171.9170  142.6710 C   0  0  0  0  0  3  0  0  0  0  0  0
  193.7910  170.5810  142.7570 C   0  0  0  0  0  3  0  0  0  0  0  0
  192.5910  170.1770  142.1550 C   0  0  0  0  0  3  0  0  0  0  0  0
  193.4340  172.8600  141.9770 C   0  0  0  0  0  0  0  0  0  0  0  0
  189.8780  172.1660  140.5150 C   0  0  0  0  0  2  0  0  0  0  0  0
  190.5470  170.8190  140.7960 C   0  0  0  0  0  2  0  0  0  0  0  0
  191.8300  171.1220  141.4670 C   0  0  0  0  0  0  0  0  0  0  0  0
  188.0280  177.3860  145.2380 C   0  0  2  0  0  3  0  0  0  0  0  0
  186.2550  178.4230  146.5190 O   0  0  0  0  0  1  0  0  0  0  0  0
  186.7490  177.1970  146.0700 C   0  0  1  0  0  3  0  0  0  0  0  0
  185.6740  176.4580  145.2950 C   0  0  0  0  0  1  0  0  0  0  0  0
  187.7680  177.0450  143.7610 C   0  0  1  0  0  3  0  0  0  0  0  0
  185.1940  178.9910  142.8290 C   0  0  0  0  0  3  0  0  0  0  0  0
  184.7630  177.8750  141.9260 C   0  0  0  0  0  2  0  0  0  0  0  0
  186.8390  177.2520  140.6880 C   0  0  0  0  0  2  0  0  0  0  0  0
  187.8700  178.1360  141.3860 C   0  0  0  0  0  2  0  0  0  0  0  0
  187.6280  178.3080  142.8930 C   0  0  1  0  0  3  0  0  0  0  0  0
  186.4530  179.1800  143.2470 C   0  0  0  0  0  3  0  0  0  0  0  0
  185.4800  177.9300  140.5890 C   0  0  0  0  0  2  0  0  0  0  0  0
  188.7580  176.1620  143.2430 O   0  0  0  0  0  0  0  0  0  0  0  0
  189.2640  173.8250  143.6240 O   0  0  0  0  0  1  0  0  0  0  0  0
  188.4800  174.8090  143.0350 C   0  0  0  0  0  0  0  0  0  0  0  0
  187.5120  174.4760  142.3030 O   0  0  0  0  0  0  0  0  0  0  0  0
  1  3  1  0  0  0  0
  3  2  2  0  0  0  0
  4  2  1  0  0  0  0
  5  4  2  0  0  0  0
  6  5  1  0  0  0  0
  6  1  2  0  0  0  0
  7  1  1  0  0  0  0
  8 12  1  0  0  0  0
  9 14  1  6  0  0  0
  9  8  1  0  0  0  0
  9 15  1  0  0  0  0
  9 13  1  0  0  0  0
 11  7  1  1  0  0  0
 11 10  1  0  0  0  0
 12 17  1  6  0  0  0
 12 11  1  0  0  0  0
 13 15  1  6  0  0  0
 13 16  1  0  0  0  0
 16 10  1  0  0  0  0
 18 24  1  0  0  0  0
 18  8  1  0  0  0  0
 19 27  2  0  0  0  0
 19 24  1  0  0  0  0
 20 25  1  0  0  0  0
 20 19  1  0  0  0  0
 21 22  1  0  0  0  0
 23 22  2  0  0  0  0
 24 21  2  0  0  0  0
 25 26  1  0  0  0  0
 26 27  1  0  0  0  0
 27 23  1  0  0  0  0
 28 32  1  6  0  0  0
 28  5  1  0  0  0  0
 28 30  1  0  0  0  0
 30 31  1  6  0  0  0
 30 29  1  0  0  0  0
 32 40  1  6  0  0  0
 33 38  2  0  0  0  0
 34 33  1  0  0  0  0
 35 36  1  0  0  0  0
 36 37  1  0  0  0  0
 37 38  1  0  0  0  0
 37 32  1  6  0  0  0
 39 35  1  0  0  0  0
 39 34  1  0  0  0  0
 42 40  1  0  0  0  0
 42 41  1  0  0  0  0
 43 42  2  0  0  0  0
M  END
>  <MODEL>
4

>  <REMARK>
 VINA RESULT:      -7.3      2.658      5.667
  Name = 
  10 active torsions:
  status: ('A' for Active; 'I' for Inactive)
    1  A    between atoms: O_1  and  C_9
    2  A    between atoms: O_1  and  C_17
    3  A    between atoms: N_3  and  C_30
    4  A    between atoms: C_9  and  C_20
    5  A    between atoms: C_9  and  C_29
    6  A    between atoms: C_10  and  N_13
    7  A    between atoms: N_13  and  C_23
    8  A    between atoms: C_15  and  C_29
    9  A    between atoms: C_28  and  C_30
   10  A    between atoms: C_29  and  C_31
                            x       y       z     vdW  Elec       q    Type
                         _______ _______ _______ _____ _____    ______ ____

>  <TORSDO>
F 10

$$$$
=
 OpenBabel11062418443D

 43 48  0  0  1  0  0  0  0  0999 V2000
  194.1240  176.2520  144.2210 C   0  0  0  0  0  0  0  0  0  0  0  0
  196.4040  175.7910  143.5250 C   0  0  0  0  0  3  0  0  0  0  0  0
  195.4990  176.5400  144.2780 C   0  0  0  0  0  3  0  0  0  0  0  0
  195.9440  174.7520  142.7110 C   0  0  0  0  0  3  0  0  0  0  0  0
  194.5690  174.4740  142.6210 C   0  0  0  0  0  0  0  0  0  0  0  0
  193.6700  175.2230  143.3900 C   0  0  0  0  0  3  0  0  0  0  0  0
  193.1820  176.9360  145.0590 N   0  0  0  0  0  2  0  0  0  0  0  0
  189.4920  176.3240  145.6970 N   0  0  0  0  0  0  0  0  0  0  0  0
  189.5770  174.9680  146.2750 C   0  0  2  0  0  0  0  0  0  0  0  0
  192.0630  176.4860  147.2350 C   0  0  0  0  0  2  0  0  0  0  0  0
  192.0160  176.3330  145.6970 C   0  0  1  0  0  3  0  0  0  0  0  0
  190.7140  176.7620  144.9920 C   0  0  1  0  0  3  0  0  0  0  0  0
  190.4490  174.9020  147.5220 C   0  0  2  0  0  3  0  0  0  0  0  0
  189.7470  173.8810  145.4330 F   0  0  0  0  0  0  0  0  0  0  0  0
  188.9340  174.7690  147.6280 C   0  0  0  0  0  2  0  0  0  0  0  0
  190.8410  176.2010  147.8860 O   0  0  0  0  0  0  0  0  0  0  0  0
  190.7400  176.2800  143.6890 F   0  0  0  0  0  0  0  0  0  0  0  0
  188.2720  176.6220  144.9210 C   0  0  0  0  0  2  0  0  0  0  0  0
  186.0450  177.8240  145.0210 C   0  0  0  0  0  0  0  0  0  0  0  0
  185.5710  177.3770  143.3630 S   0  0  0  0  0  0  0  0  0  0  0  0
  187.4580  177.8350  146.9800 C   0  0  0  0  0  3  0  0  0  0  0  0
  186.5110  178.6220  147.6510 C   0  0  0  0  0  3  0  0  0  0  0  0
  185.3350  179.0190  146.9980 C   0  0  0  0  0  3  0  0  0  0  0  0
  187.2370  177.4340  145.6540 C   0  0  0  0  0  0  0  0  0  0  0  0
  184.2720  178.6640  143.4280 C   0  0  0  0  0  2  0  0  0  0  0  0
  183.9290  178.9710  144.8870 C   0  0  0  0  0  2  0  0  0  0  0  0
  185.1250  178.6130  145.6800 C   0  0  0  0  0  0  0  0  0  0  0  0
  194.0490  173.3150  141.8040 C   0  0  2  0  0  3  0  0  0  0  0  0
  195.0980  171.2390  142.4760 O   0  0  0  0  0  1  0  0  0  0  0  0
  195.1430  172.2690  141.5360 C   0  0  1  0  0  3  0  0  0  0  0  0
  195.0450  171.6950  140.1340 C   0  0  0  0  0  1  0  0  0  0  0  0
  193.3730  173.7410  140.4890 C   0  0  1  0  0  3  0  0  0  0  0  0
  191.1840  171.5810  141.8380 C   0  0  0  0  0  3  0  0  0  0  0  0
  191.5260  170.6390  140.7230 C   0  0  0  0  0  2  0  0  0  0  0  0
  191.3450  172.0380  138.6630 C   0  0  0  0  0  2  0  0  0  0  0  0
  191.0830  173.4140  139.2700 C   0  0  0  0  0  2  0  0  0  0  0  0
  191.8390  173.6750  140.5810 C   0  0  1  0  0  3  0  0  0  0  0  0
  191.3180  172.9120  141.7700 C   0  0  0  0  0  3  0  0  0  0  0  0
  190.7040  170.9240  139.4790 C   0  0  0  0  0  2  0  0  0  0  0  0
  193.8170  175.0260  140.0640 O   0  0  0  0  0  0  0  0  0  0  0  0
  193.8910  175.2720  137.6560 O   0  0  0  0  0  0  0  0  0  0  0  0
  194.5420  175.1830  138.8800 C   0  0  0  0  0  0  0  0  0  0  0  0
  195.7990  175.2380  138.9210 O   0  0  0  0  0  1  0  0  0  0  0  0
  1  3  1  0  0  0  0
  1  7  1  0  0  0  0
  2  3  2  0  0  0  0
  4  2  1  0  0  0  0
  5  4  2  0  0  0  0
  5  6  1  0  0  0  0
  6  1  2  0  0  0  0
  8  9  1  0  0  0  0
  9 14  1  6  0  0  0
  9 13  1  0  0  0  0
  9 15  1  0  0  0  0
 10 16  1  0  0  0  0
 11  7  1  6  0  0  0
 11 10  1  0  0  0  0
 12 17  1  6  0  0  0
 12 11  1  0  0  0  0
 12  8  1  0  0  0  0
 13 15  1  1  0  0  0
 13 16  1  0  0  0  0
 18 24  1  0  0  0  0
 18  8  1  0  0  0  0
 19 24  2  0  0  0  0
 19 27  1  0  0  0  0
 20 25  1  0  0  0  0
 20 19  1  0  0  0  0
 21 22  2  0  0  0  0
 23 22  1  0  0  0  0
 24 21  1  0  0  0  0
 25 26  1  0  0  0  0
 26 27  1  0  0  0  0
 27 23  2  0  0  0  0
 28 32  1  6  0  0  0
 28  5  1  0  0  0  0
 30 31  1  6  0  0  0
 30 28  1  0  0  0  0
 30 29  1  0  0  0  0
 32 40  1  1  0  0  0
 34 33  1  0  0  0  0
 35 36  1  0  0  0  0
 35 39  1  0  0  0  0
 36 37  1  0  0  0  0
 37 32  1  6  0  0  0
 37 38  1  0  0  0  0
 38 33  2  0  0  0  0
 39 34  1  0  0  0  0
 41 42  2  0  0  0  0
 42 43  1  0  0  0  0
 42 40  1  0  0  0  0
M  END
>  <MODEL>
5

>  <REMARK>
 VINA RESULT:      -7.3      3.360      8.515
  Name = 
  10 active torsions:
  status: ('A' for Active; 'I' for Inactive)
    1  A    between atoms: O_1  and  C_9
    2  A    between atoms: O_1  and  C_17
    3  A    between atoms: N_3  and  C_30
    4  A    between atoms: C_9  and  C_20
    5  A    between atoms: C_9  and  C_29
    6  A    between atoms: C_10  and  N_13
    7  A    between atoms: N_13  and  C_23
    8  A    between atoms: C_15  and  C_29
    9  A    between atoms: C_28  and  C_30
   10  A    between atoms: C_29  and  C_31
                            x       y       z     vdW  Elec       q    Type
                         _______ _______ _______ _____ _____    ______ ____

>  <TORSDO>
F 10

$$$$
=
 OpenBabel11062418443D

 43 48  0  0  1  0  0  0  0  0999 V2000
  188.8840  173.4150  142.0950 C   0  0  0  0  0  0  0  0  0  0  0  0
  187.9490  174.8880  140.4060 C   0  0  0  0  0  3  0  0  0  0  0  0
  188.2990  173.6050  140.8310 C   0  0  0  0  0  3  0  0  0  0  0  0
  188.1810  175.9860  141.2390 C   0  0  0  0  0  3  0  0  0  0  0  0
  188.7950  175.8140  142.4910 C   0  0  0  0  0  0  0  0  0  0  0  0
  189.1300  174.5210  142.9140 C   0  0  0  0  0  3  0  0  0  0  0  0
  189.1620  172.1020  142.5990 N   0  0  0  0  0  2  0  0  0  0  0  0
  192.7320  171.6750  143.8130 N   0  0  0  0  0  0  0  0  0  0  0  0
  192.8970  170.2310  143.5490 C   0  0  2  0  0  0  0  0  0  0  0  0
  191.1380  171.3390  141.2930 C   0  0  0  0  0  2  0  0  0  0  0  0
  190.4810  171.4840  142.6860 C   0  0  1  0  0  3  0  0  0  0  0  0
  191.3300  172.1400  143.7930 C   0  0  1  0  0  3  0  0  0  0  0  0
  192.6820  169.8620  142.0870 C   0  0  2  0  0  3  0  0  0  0  0  0
  192.3470  169.3130  144.4290 F   0  0  0  0  0  0  0  0  0  0  0  0
  194.0790  169.8320  142.6970 C   0  0  0  0  0  2  0  0  0  0  0  0
  192.5170  171.0330  141.3290 O   0  0  0  0  0  0  0  0  0  0  0  0
  190.7100  171.9130  145.0160 F   0  0  0  0  0  0  0  0  0  0  0  0
  193.4730  172.2090  144.9720 C   0  0  0  0  0  2  0  0  0  0  0  0
  194.1340  174.6340  145.2860 C   0  0  0  0  0  0  0  0  0  0  0  0
  192.8830  174.9630  146.5100 S   0  0  0  0  0  0  0  0  0  0  0  0
  195.4050  173.2740  143.7460 C   0  0  0  0  0  3  0  0  0  0  0  0
  196.2060  174.3840  143.4370 C   0  0  0  0  0  3  0  0  0  0  0  0
  195.9600  175.6220  144.0470 C   0  0  0  0  0  3  0  0  0  0  0  0
  194.3560  173.3910  144.6700 C   0  0  0  0  0  0  0  0  0  0  0  0
  193.1610  176.7540  146.2580 C   0  0  0  0  0  2  0  0  0  0  0  0
  194.5550  176.9770  145.6670 C   0  0  0  0  0  2  0  0  0  0  0  0
  194.9150  175.7260  144.9650 C   0  0  0  0  0  0  0  0  0  0  0  0
  188.9950  176.9720  143.4400 C   0  0  2  0  0  3  0  0  0  0  0  0
  191.3040  176.6800  142.7720 O   0  0  0  0  0  1  0  0  0  0  0  0
  190.4800  177.1800  143.7810 C   0  0  1  0  0  3  0  0  0  0  0  0
  190.8020  178.6410  144.0360 C   0  0  0  0  0  1  0  0  0  0  0  0
  188.1550  176.8690  144.7240 C   0  0  1  0  0  3  0  0  0  0  0  0
  185.8030  179.1690  144.0460 C   0  0  0  0  0  3  0  0  0  0  0  0
  185.8770  179.5740  145.4870 C   0  0  0  0  0  2  0  0  0  0  0  0
  185.7070  177.4210  146.7380 C   0  0  0  0  0  2  0  0  0  0  0  0
  185.7280  176.4150  145.5890 C   0  0  0  0  0  2  0  0  0  0  0  0
  186.6460  176.8150  144.4240 C   0  0  1  0  0  3  0  0  0  0  0  0
  186.1370  177.9570  143.5840 C   0  0  0  0  0  3  0  0  0  0  0  0
  184.9860  178.7060  146.3570 C   0  0  0  0  0  2  0  0  0  0  0  0
  188.5660  175.7730  145.5350 O   0  0  0  0  0  0  0  0  0  0  0  0
  189.4180  174.9110  147.6310 O   0  0  0  0  0  1  0  0  0  0  0  0
  189.1550  175.9810  146.7850 C   0  0  0  0  0  0  0  0  0  0  0  0
  189.4450  177.1490  147.1510 O   0  0  0  0  0  0  0  0  0  0  0  0
  1  7  1  0  0  0  0
  1  6  1  0  0  0  0
  2  3  1  0  0  0  0
  2  4  2  0  0  0  0
  3  1  2  0  0  0  0
  4  5  1  0  0  0  0
  5  6  2  0  0  0  0
  5 28  1  0  0  0  0
  8 18  1  0  0  0  0
  9  8  1  0  0  0  0
  9 14  1  1  0  0  0
 10 16  1  0  0  0  0
 10 11  1  0  0  0  0
 11  7  1  6  0  0  0
 11 12  1  0  0  0  0
 12  8  1  0  0  0  0
 12 17  1  1  0  0  0
 13 15  1  6  0  0  0
 13  9  1  0  0  0  0
 15  9  1  0  0  0  0
 16 13  1  0  0  0  0
 19 20  1  0  0  0  0
 21 24  1  0  0  0  0
 22 21  2  0  0  0  0
 22 23  1  0  0  0  0
 23 27  2  0  0  0  0
 24 18  1  0  0  0  0
 24 19  2  0  0  0  0
 25 20  1  0  0  0  0
 26 25  1  0  0  0  0
 27 19  1  0  0  0  0
 27 26  1  0  0  0  0
 28 30  1  1  0  0  0
 28 32  1  0  0  0  0
 29 30  1  0  0  0  0
 30 31  1  6  0  0  0
 32 40  1  6  0  0  0
 33 34  1  0  0  0  0
 34 39  1  0  0  0  0
 36 35  1  0  0  0  0
 37 32  1  1  0  0  0
 37 36  1  0  0  0  0
 38 33  2  0  0  0  0
 38 37  1  0  0  0  0
 39 35  1  0  0  0  0
 40 42  1  0  0  0  0
 42 43  2  0  0  0  0
 42 41  1  0  0  0  0
M  END
>  <MODEL>
6

>  <REMARK>
 VINA RESULT:      -7.2      1.804      2.970
  Name = 
  10 active torsions:
  status: ('A' for Active; 'I' for Inactive)
    1  A    between atoms: O_1  and  C_9
    2  A    between atoms: O_1  and  C_17
    3  A    between atoms: N_3  and  C_30
    4  A    between atoms: C_9  and  C_20
    5  A    between atoms: C_9  and  C_29
    6  A    between atoms: C_10  and  N_13
    7  A    between atoms: N_13  and  C_23
    8  A    between atoms: C_15  and  C_29
    9  A    between atoms: C_28  and  C_30
   10  A    between atoms: C_29  and  C_31
                            x       y       z     vdW  Elec       q    Type
                         _______ _______ _______ _____ _____    ______ ____

>  <TORSDO>
F 10

$$$$
=
 OpenBabel11062418443D

 43 48  0  0  1  0  0  0  0  0999 V2000
  194.0800  176.4310  144.2590 C   0  0  0  0  0  0  0  0  0  0  0  0
  196.4550  176.0620  143.9140 C   0  0  0  0  0  3  0  0  0  0  0  0
  195.4180  176.7750  144.5180 C   0  0  0  0  0  3  0  0  0  0  0  0
  196.1620  175.0030  143.0490 C   0  0  0  0  0  3  0  0  0  0  0  0
  194.8280  174.6700  142.7570 C   0  0  0  0  0  0  0  0  0  0  0  0
  193.7950  175.3830  143.3780 C   0  0  0  0  0  3  0  0  0  0  0  0
  192.9970  177.0780  144.9410 N   0  0  0  0  0  2  0  0  0  0  0  0
  189.3750  176.1970  145.6530 N   0  0  0  0  0  0  0  0  0  0  0  0
  189.5740  174.8690  146.2670 C   0  0  2  0  0  0  0  0  0  0  0  0
  191.9460  176.6050  147.1460 C   0  0  0  0  0  2  0  0  0  0  0  0
  191.8900  176.4050  145.6140 C   0  0  1  0  0  3  0  0  0  0  0  0
  190.5490  176.7100  144.9170 C   0  0  1  0  0  3  0  0  0  0  0  0
  190.4650  174.9070  147.5010 C   0  0  2  0  0  3  0  0  0  0  0  0
  189.8180  173.7760  145.4520 F   0  0  0  0  0  0  0  0  0  0  0  0
  188.9670  174.6590  147.6340 C   0  0  0  0  0  2  0  0  0  0  0  0
  190.7590  176.2430  147.8230 O   0  0  0  0  0  0  0  0  0  0  0  0
  190.5960  176.1950  143.6270 F   0  0  0  0  0  0  0  0  0  0  0  0
  188.1260  176.3760  144.8880 C   0  0  0  0  0  2  0  0  0  0  0  0
  185.9660  177.7000  144.8450 C   0  0  0  0  0  0  0  0  0  0  0  0
  185.5630  177.2540  143.1680 S   0  0  0  0  0  0  0  0  0  0  0  0
  187.2640  177.6630  146.8820 C   0  0  0  0  0  3  0  0  0  0  0  0
  186.3250  178.5100  147.4880 C   0  0  0  0  0  3  0  0  0  0  0  0
  185.2120  178.9600  146.7640 C   0  0  0  0  0  3  0  0  0  0  0  0
  187.0970  177.2540  145.5500 C   0  0  0  0  0  0  0  0  0  0  0  0
  184.3350  178.6110  143.1430 C   0  0  0  0  0  2  0  0  0  0  0  0
  183.9280  178.9580  144.5770 C   0  0  0  0  0  2  0  0  0  0  0  0
  185.0550  178.5470  145.4410 C   0  0  0  0  0  0  0  0  0  0  0  0
  194.4820  173.4890  141.8810 C   0  0  2  0  0  3  0  0  0  0  0  0
  194.4840  175.2490  140.2190 O   0  0  0  0  0  1  0  0  0  0  0  0
  194.4810  173.8640  140.3900 C   0  0  1  0  0  3  0  0  0  0  0  0
  195.6550  173.2480  139.6510 C   0  0  0  0  0  1  0  0  0  0  0  0
  193.1610  172.8020  142.2670 C   0  0  1  0  0  3  0  0  0  0  0  0
  190.2460  174.1580  141.2970 C   0  0  0  0  0  3  0  0  0  0  0  0
  189.5890  173.3680  142.3880 C   0  0  0  0  0  2  0  0  0  0  0  0
  190.4680  171.0520  142.0790 C   0  0  0  0  0  2  0  0  0  0  0  0
  191.4860  171.2740  140.9630 C   0  0  0  0  0  2  0  0  0  0  0  0
  192.2330  172.6130  141.0540 C   0  0  1  0  0  3  0  0  0  0  0  0
  191.4030  173.8220  140.7120 C   0  0  0  0  0  3  0  0  0  0  0  0
  189.2550  171.9590  141.9330 C   0  0  0  0  0  2  0  0  0  0  0  0
  193.3880  171.5720  142.9480 O   0  0  0  0  0  0  0  0  0  0  0  0
  193.7650  170.3430  145.0000 O   0  0  0  0  0  0  0  0  0  0  0  0
  193.4020  171.5130  144.3440 C   0  0  0  0  0  0  0  0  0  0  0  0
  193.0780  172.5260  145.0150 O   0  0  0  0  0  1  0  0  0  0  0  0
  1  3  1  0  0  0  0
  1  7  1  0  0  0  0
  2  3  2  0  0  0  0
  4  2  1  0  0  0  0
  5  4  2  0  0  0  0
  5  6  1  0  0  0  0
  6  1  2  0  0  0  0
  8  9  1  0  0  0  0
  9 14  1  6  0  0  0
  9 13  1  0  0  0  0
  9 15  1  0  0  0  0
 10 16  1  0  0  0  0
 11  7  1  6  0  0  0
 11 10  1  0  0  0  0
 12 17  1  6  0  0  0
 12 11  1  0  0  0  0
 12  8  1  0  0  0  0
 13 15  1  1  0  0  0
 13 16  1  0  0  0  0
 18 24  1  0  0  0  0
 18  8  1  0  0  0  0
 19 27  2  0  0  0  0
 19 24  1  0  0  0  0
 20 19  1  0  0  0  0
 21 22  1  0  0  0  0
 23 22  2  0  0  0  0
 24 21  2  0  0  0  0
 25 20  1  0  0  0  0
 25 26  1  0  0  0  0
 26 27  1  0  0  0  0
 27 23  1  0  0  0  0
 28 30  1  6  0  0  0
 28 32  1  0  0  0  0
 28  5  1  0  0  0  0
 29 30  1  0  0  0  0
 30 31  1  6  0  0  0
 32 40  1  6  0  0  0
 33 34  1  0  0  0  0
 36 37  1  0  0  0  0
 36 35  1  0  0  0  0
 37 32  1  1  0  0  0
 38 37  1  0  0  0  0
 38 33  2  0  0  0  0
 39 35  1  0  0  0  0
 39 34  1  0  0  0  0
 40 42  1  0  0  0  0
 42 41  2  0  0  0  0
 42 43  1  0  0  0  0
M  END
>  <MODEL>
7

>  <REMARK>
 VINA RESULT:      -7.2      3.212      8.158
  Name = 
  10 active torsions:
  status: ('A' for Active; 'I' for Inactive)
    1  A    between atoms: O_1  and  C_9
    2  A    between atoms: O_1  and  C_17
    3  A    between atoms: N_3  and  C_30
    4  A    between atoms: C_9  and  C_20
    5  A    between atoms: C_9  and  C_29
    6  A    between atoms: C_10  and  N_13
    7  A    between atoms: N_13  and  C_23
    8  A    between atoms: C_15  and  C_29
    9  A    between atoms: C_28  and  C_30
   10  A    between atoms: C_29  and  C_31
                            x       y       z     vdW  Elec       q    Type
                         _______ _______ _______ _____ _____    ______ ____

>  <TORSDO>
F 10

$$$$
=
 OpenBabel11062418443D

 43 48  0  0  1  0  0  0  0  0999 V2000
  189.9480  172.5430  142.9120 C   0  0  0  0  0  0  0  0  0  0  0  0
  188.1330  173.4940  141.6090 C   0  0  0  0  0  3  0  0  0  0  0  0
  188.7620  173.2950  142.8390 C   0  0  0  0  0  3  0  0  0  0  0  0
  188.6830  172.9440  140.4470 C   0  0  0  0  0  3  0  0  0  0  0  0
  189.8490  172.1640  140.5110 C   0  0  0  0  0  0  0  0  0  0  0  0
  190.4810  171.9810  141.7480 C   0  0  0  0  0  3  0  0  0  0  0  0
  190.6710  172.4060  144.1430 N   0  0  0  0  0  2  0  0  0  0  0  0
  191.2140  175.8570  145.6260 N   0  0  0  0  0  0  0  0  0  0  0  0
  192.2720  175.5270  146.6030 C   0  0  2  0  0  0  0  0  0  0  0  0
  192.7620  173.7540  144.1480 C   0  0  0  0  0  2  0  0  0  0  0  0
  191.4010  173.4710  144.8250 C   0  0  1  0  0  3  0  0  0  0  0  0
  190.4890  174.6840  145.0960 C   0  0  1  0  0  3  0  0  0  0  0  0
  193.5110  174.9180  145.9600 C   0  0  2  0  0  3  0  0  0  0  0  0
  191.9250  174.9220  147.8000 F   0  0  0  0  0  0  0  0  0  0  0  0
  193.5440  176.3360  146.5180 C   0  0  0  0  0  2  0  0  0  0  0  0
  193.3780  174.9570  144.5620 O   0  0  0  0  0  0  0  0  0  0  0  0
  189.4750  174.2890  145.9600 F   0  0  0  0  0  0  0  0  0  0  0  0
  190.2940  176.9440  146.0120 C   0  0  0  0  0  2  0  0  0  0  0  0
  187.8970  177.3090  145.2780 C   0  0  0  0  0  0  0  0  0  0  0  0
  187.2060  176.9730  146.8860 S   0  0  0  0  0  0  0  0  0  0  0  0
  189.6650  177.6240  143.6630 C   0  0  0  0  0  3  0  0  0  0  0  0
  188.7080  177.9260  142.6830 C   0  0  0  0  0  3  0  0  0  0  0  0
  187.3430  177.9060  143.0020 C   0  0  0  0  0  3  0  0  0  0  0  0
  189.2670  177.3050  144.9700 C   0  0  0  0  0  0  0  0  0  0  0  0
  185.5630  176.7920  146.1000 C   0  0  0  0  0  2  0  0  0  0  0  0
  185.5530  177.5320  144.7610 C   0  0  0  0  0  2  0  0  0  0  0  0
  186.9590  177.5900  144.3060 C   0  0  0  0  0  0  0  0  0  0  0  0
  190.5030  171.6150  139.2650 C   0  0  2  0  0  3  0  0  0  0  0  0
  190.6200  169.1980  139.3330 O   0  0  0  0  0  1  0  0  0  0  0  0
  191.3470  170.3660  139.5660 C   0  0  1  0  0  3  0  0  0  0  0  0
  192.6330  170.3450  138.7600 C   0  0  0  0  0  1  0  0  0  0  0  0
  191.3320  172.6560  138.4940 C   0  0  1  0  0  3  0  0  0  0  0  0
  189.5590  171.1720  136.0590 C   0  0  0  0  0  3  0  0  0  0  0  0
  190.8530  170.6160  135.5450 C   0  0  0  0  0  2  0  0  0  0  0  0
  192.3730  172.5940  135.4510 C   0  0  0  0  0  2  0  0  0  0  0  0
  191.4930  173.6670  136.0880 C   0  0  0  0  0  2  0  0  0  0  0  0
  190.6070  173.1520  137.2310 C   0  0  1  0  0  3  0  0  0  0  0  0
  189.4550  172.2870  136.7940 C   0  0  0  0  0  3  0  0  0  0  0  0
  191.5600  171.6020  134.6320 C   0  0  0  0  0  2  0  0  0  0  0  0
  191.7240  173.7400  139.3320 O   0  0  0  0  0  0  0  0  0  0  0  0
  193.8150  174.9150  139.0020 O   0  0  0  0  0  0  0  0  0  0  0  0
  193.0660  173.9480  139.6610 C   0  0  0  0  0  0  0  0  0  0  0  0
  193.6030  173.2510  140.5600 O   0  0  0  0  0  1  0  0  0  0  0  0
  1  7  1  0  0  0  0
  2  3  2  0  0  0  0
  3  1  1  0  0  0  0
  4  5  2  0  0  0  0
  4  2  1  0  0  0  0
  5  6  1  0  0  0  0
  6  1  2  0  0  0  0
  8 18  1  0  0  0  0
  8  9  1  0  0  0  0
  9 14  1  1  0  0  0
 10 16  1  0  0  0  0
 10 11  1  0  0  0  0
 11  7  1  6  0  0  0
 11 12  1  0  0  0  0
 12  8  1  0  0  0  0
 12 17  1  1  0  0  0
 13 15  1  6  0  0  0
 13  9  1  0  0  0  0
 15  9  1  0  0  0  0
 16 13  1  0  0  0  0
 19 20  1  0  0  0  0
 21 24  2  0  0  0  0
 22 23  2  0  0  0  0
 22 21  1  0  0  0  0
 23 27  1  0  0  0  0
 24 19  1  0  0  0  0
 24 18  1  0  0  0  0
 25 20  1  0  0  0  0
 26 25  1  0  0  0  0
 27 26  1  0  0  0  0
 27 19  2  0  0  0  0
 28 32  1  1  0  0  0
 28 30  1  0  0  0  0
 28  5  1  0  0  0  0
 29 30  1  0  0  0  0
 30 31  1  6  0  0  0
 32 40  1  1  0  0  0
 33 38  2  0  0  0  0
 34 33  1  0  0  0  0
 35 36  1  0  0  0  0
 36 37  1  0  0  0  0
 37 32  1  1  0  0  0
 38 37  1  0  0  0  0
 39 35  1  0  0  0  0
 39 34  1  0  0  0  0
 40 42  1  0  0  0  0
 41 42  2  0  0  0  0
 42 43  1  0  0  0  0
M  END
>  <MODEL>
8

>  <REMARK>
 VINA RESULT:      -7.0      3.081      8.014
  Name = 
  10 active torsions:
  status: ('A' for Active; 'I' for Inactive)
    1  A    between atoms: O_1  and  C_9
    2  A    between atoms: O_1  and  C_17
    3  A    between atoms: N_3  and  C_30
    4  A    between atoms: C_9  and  C_20
    5  A    between atoms: C_9  and  C_29
    6  A    between atoms: C_10  and  N_13
    7  A    between atoms: N_13  and  C_23
    8  A    between atoms: C_15  and  C_29
    9  A    between atoms: C_28  and  C_30
   10  A    between atoms: C_29  and  C_31
                            x       y       z     vdW  Elec       q    Type
                         _______ _______ _______ _____ _____    ______ ____

>  <TORSDO>
F 10

$$$$
=
 OpenBabel11062418443D

 43 48  0  0  1  0  0  0  0  0999 V2000
  191.9110  175.1330  145.6930 C   0  0  0  0  0  0  0  0  0  0  0  0
  193.5350  176.4790  146.8960 C   0  0  0  0  0  3  0  0  0  0  0  0
  192.2070  176.1650  146.6000 C   0  0  0  0  0  3  0  0  0  0  0  0
  194.5730  175.7650  146.2890 C   0  0  0  0  0  3  0  0  0  0  0  0
  194.2900  174.7520  145.3570 C   0  0  0  0  0  0  0  0  0  0  0  0
  192.9550  174.4360  145.0760 C   0  0  0  0  0  3  0  0  0  0  0  0
  190.5600  174.7210  145.4460 N   0  0  0  0  0  2  0  0  0  0  0  0
  189.1040  174.1040  141.9960 N   0  0  0  0  0  0  0  0  0  0  0  0
  187.9340  175.0020  142.0730 C   0  0  2  0  0  0  0  0  0  0  0  0
  190.1950  176.3760  143.6250 C   0  0  0  0  0  2  0  0  0  0  0  0
  189.7830  175.0220  144.2470 C   0  0  1  0  0  3  0  0  0  0  0  0
  189.7280  173.8060  143.3010 C   0  0  1  0  0  3  0  0  0  0  0  0
  188.3090  176.4530  142.3460 C   0  0  2  0  0  3  0  0  0  0  0  0
  186.8080  174.5900  142.7670 F   0  0  0  0  0  0  0  0  0  0  0  0
  187.7980  176.0290  140.9740 C   0  0  0  0  0  2  0  0  0  0  0  0
  189.7070  176.5860  142.3150 O   0  0  0  0  0  0  0  0  0  0  0  0
  189.0620  172.7730  143.9500 F   0  0  0  0  0  0  0  0  0  0  0  0
  188.9350  172.8890  141.1770 C   0  0  0  0  0  2  0  0  0  0  0  0
  190.9480  171.5300  140.4570 C   0  0  0  0  0  0  0  0  0  0  0  0
  190.8180  170.3670  141.7990 S   0  0  0  0  0  0  0  0  0  0  0  0
  190.2770  173.4170  139.1050 C   0  0  0  0  0  3  0  0  0  0  0  0
  191.3530  173.1710  138.2390 C   0  0  0  0  0  3  0  0  0  0  0  0
  192.2330  172.1090  138.4930 C   0  0  0  0  0  3  0  0  0  0  0  0
  190.0680  172.6010  140.2270 C   0  0  0  0  0  0  0  0  0  0  0  0
  192.5240  169.8140  141.4340 C   0  0  0  0  0  2  0  0  0  0  0  0
  192.8750  170.1610  139.9860 C   0  0  0  0  0  2  0  0  0  0  0  0
  192.0150  171.3040  139.6110 C   0  0  0  0  0  0  0  0  0  0  0  0
  195.3870  173.9190  144.7380 C   0  0  2  0  0  3  0  0  0  0  0  0
  196.8360  173.1350  146.5130 O   0  0  0  0  0  1  0  0  0  0  0  0
  196.7180  174.0780  145.4910 C   0  0  1  0  0  3  0  0  0  0  0  0
  197.9110  173.9800  144.5570 C   0  0  0  0  0  1  0  0  0  0  0  0
  195.5830  174.1760  143.2340 C   0  0  1  0  0  3  0  0  0  0  0  0
  196.4050  171.0860  142.2070 C   0  0  0  0  0  3  0  0  0  0  0  0
  197.3900  171.7280  141.2770 C   0  0  0  0  0  2  0  0  0  0  0  0
  196.0720  173.5090  140.1250 C   0  0  0  0  0  2  0  0  0  0  0  0
  194.7450  173.4180  140.8750 C   0  0  0  0  0  2  0  0  0  0  0  0
  194.8920  173.1050  142.3710 C   0  0  1  0  0  3  0  0  0  0  0  0
  195.3080  171.6920  142.6810 C   0  0  0  0  0  3  0  0  0  0  0  0
  196.7340  172.1470  139.9730 C   0  0  0  0  0  2  0  0  0  0  0  0
  195.1700  175.4890  142.8680 O   0  0  0  0  0  0  0  0  0  0  0  0
  196.4100  176.8030  141.2550 O   0  0  0  0  0  0  0  0  0  0  0  0
  196.1060  176.4830  142.5730 C   0  0  0  0  0  0  0  0  0  0  0  0
  196.6860  177.0920  143.5090 O   0  0  0  0  0  1  0  0  0  0  0  0
  1  3  1  0  0  0  0
  3  2  2  0  0  0  0
  4  2  1  0  0  0  0
  5  4  2  0  0  0  0
  6  5  1  0  0  0  0
  6  1  2  0  0  0  0
  7  1  1  0  0  0  0
  8  9  1  0  0  0  0
  8 12  1  0  0  0  0
  9 13  1  0  0  0  0
  9 14  1  1  0  0  0
 10 11  1  0  0  0  0
 11  7  1  1  0  0  0
 12 17  1  1  0  0  0
 12 11  1  0  0  0  0
 13 15  1  6  0  0  0
 15  9  1  0  0  0  0
 16 13  1  0  0  0  0
 16 10  1  0  0  0  0
 18  8  1  0  0  0  0
 19 20  1  0  0  0  0
 21 24  2  0  0  0  0
 22 23  2  0  0  0  0
 22 21  1  0  0  0  0
 23 27  1  0  0  0  0
 24 19  1  0  0  0  0
 24 18  1  0  0  0  0
 25 20  1  0  0  0  0
 26 25  1  0  0  0  0
 27 26  1  0  0  0  0
 27 19  2  0  0  0  0
 28 32  1  6  0  0  0
 28  5  1  0  0  0  0
 28 30  1  0  0  0  0
 30 31  1  6  0  0  0
 30 29  1  0  0  0  0
 32 40  1  6  0  0  0
 33 38  2  0  0  0  0
 34 33  1  0  0  0  0
 35 36  1  0  0  0  0
 36 37  1  0  0  0  0
 37 38  1  0  0  0  0
 37 32  1  6  0  0  0
 39 35  1  0  0  0  0
 39 34  1  0  0  0  0
 41 42  2  0  0  0  0
 42 40  1  0  0  0  0
 42 43  1  0  0  0  0
M  END
>  <MODEL>
9

>  <REMARK>
 VINA RESULT:      -7.0      3.041      8.608
  Name = 
  10 active torsions:
  status: ('A' for Active; 'I' for Inactive)
    1  A    between atoms: O_1  and  C_9
    2  A    between atoms: O_1  and  C_17
    3  A    between atoms: N_3  and  C_30
    4  A    between atoms: C_9  and  C_20
    5  A    between atoms: C_9  and  C_29
    6  A    between atoms: C_10  and  N_13
    7  A    between atoms: N_13  and  C_23
    8  A    between atoms: C_15  and  C_29
    9  A    between atoms: C_28  and  C_30
   10  A    between atoms: C_29  and  C_31
                            x       y       z     vdW  Elec       q    Type
                         _______ _______ _______ _____ _____    ______ ____

>  <TORSDO>
F 10

$$$$
