=
 OpenBabel11062418193D

 49 52  0  0  1  0  0  0  0  0999 V2000
  188.6700  177.4910  147.0640 C   0  0  0  0  0  2  0  0  0  0  0  0
  194.4890  176.9420  146.3030 C   0  0  0  0  0  3  0  0  0  0  0  0
  195.9020  176.4590  144.4980 O   0  0  0  0  0  1  0  0  0  0  0  0
  194.7280  176.2240  145.2030 C   0  0  0  0  0  0  0  0  0  0  0  0
  189.7400  176.4470  146.7620 C   0  0  1  0  0  3  0  0  0  0  0  0
  190.1650  176.2820  145.2710 C   0  0  2  0  0  0  0  0  0  0  0  0
  192.0530  176.5370  146.7170 C   0  0  0  0  0  0  0  0  0  0  0  0
  191.6520  176.0970  145.3900 C   0  0  0  0  0  0  0  0  0  0  0  0
  192.4350  175.5170  144.4760 C   0  0  0  0  0  3  0  0  0  0  0  0
  193.2700  176.9040  147.1310 C   0  0  0  0  0  3  0  0  0  0  0  0
  190.9290  176.7140  147.4970 O   0  0  0  0  0  0  0  0  0  0  0  0
  193.8420  175.1070  144.7520 C   0  0  0  0  0  2  0  0  0  0  0  0
  189.8300  177.7740  144.2580 S   0  0  0  0  0  1  0  0  0  0  0  0
  189.4400  175.0510  144.7110 C   0  0  0  0  0  2  0  0  0  0  0  0
  189.7530  173.7710  145.4730 C   0  0  0  0  0  2  0  0  0  0  0  0
  189.7900  172.5690  144.5400 C   0  0  0  0  0  2  0  0  0  0  0  0
  191.1520  172.4100  143.8640 C   0  0  0  0  0  2  0  0  0  0  0  0
  191.8080  171.1770  144.2860 N   0  0  0  0  0  2  0  0  0  0  0  0
  193.0790  171.4900  144.6370 O   0  0  0  0  0  0  0  0  0  0  0  0
  193.7700  171.4680  143.4710 N   0  0  0  0  0  2  0  0  0  0  0  0
  195.1590  171.1960  143.8020 C   0  0  0  0  0  2  0  0  0  0  0  0
  196.5880  172.2300  145.6210 C   0  0  0  0  0  0  0  0  0  0  0  0
  196.9140  171.0960  146.0660 O   0  0  0  0  0  0  0  0  0  0  0  0
  195.7450  172.3480  144.4740 N   0  0  0  0  0  2  0  0  0  0  0  0
  197.0890  173.4600  146.2900 C   0  0  0  0  0  1  0  0  0  0  0  0
  187.2850  176.8900  146.9100 C   0  0  0  0  0  2  0  0  0  0  0  0
  186.3150  177.6240  147.8100 C   0  0  0  0  0  2  0  0  0  0  0  0
  185.1090  178.0570  147.0020 C   0  0  0  0  0  2  0  0  0  0  0  0
  184.6310  178.2910  144.6560 N   0  0  0  0  0  0  0  0  0  0  0  0
  185.5090  178.3330  145.5920 C   0  0  0  0  0  3  0  0  0  0  0  0
  184.9950  178.5530  143.2840 C   0  0  2  0  0  3  0  0  0  0  0  0
  182.5460  178.8390  142.8940 C   0  0  0  0  0  3  0  0  0  0  0  0
  183.9070  178.0150  141.0660 C   0  0  0  0  0  3  0  0  0  0  0  0
  181.4130  178.7740  142.0780 C   0  0  0  0  0  0  0  0  0  0  0  0
  182.7770  177.9520  140.2490 C   0  0  0  0  0  3  0  0  0  0  0  0
  181.5290  178.3300  140.7560 C   0  0  0  0  0  3  0  0  0  0  0  0
  183.7930  178.4560  142.3960 C   0  0  0  0  0  0  0  0  0  0  0  0
  180.1510  179.1720  142.5890 N   0  0  0  0  0  1  0  0  0  0  0  0
  187.2300  178.2450  142.0020 C   0  0  0  0  0  2  0  0  0  0  0  0
  187.7260  175.9590  141.1970 C   0  0  0  0  0  0  0  0  0  0  0  0
  187.1720  175.4350  142.5030 C   0  0  0  0  0  2  0  0  0  0  0  0
  186.0640  176.3190  143.0130 C   0  0  0  0  0  3  0  0  0  0  0  0
  187.7320  177.2740  140.9630 C   0  0  0  0  0  3  0  0  0  0  0  0
  186.1020  177.6480  142.8030 C   0  0  0  0  0  0  0  0  0  0  0  0
  188.2070  175.0940  140.2080 O   0  0  0  0  0  0  0  0  0  0  0  0
  189.2540  174.1840  140.3960 C   0  0  0  0  0  0  0  0  0  0  0  0
  190.1040  174.4120  141.2950 O   0  0  0  0  0  0  0  0  0  0  0  0
  189.3520  172.9720  139.6400 N   0  0  0  0  0  2  0  0  0  0  0  0
  188.2630  172.4590  138.8240 C   0  0  0  0  0  1  0  0  0  0  0  0
  2 10  1  0  0  0  0
  3  4  1  0  0  0  0
  4  2  2  0  0  0  0
  5  1  1  6  0  0  0
  5 11  1  0  0  0  0
  6 13  1  6  0  0  0
  6  8  1  0  0  0  0
  6  5  1  0  0  0  0
  7 10  2  0  0  0  0
  7 11  1  0  0  0  0
  8  7  1  0  0  0  0
  9 12  1  0  0  0  0
  9  8  2  0  0  0  0
 12  4  1  0  0  0  0
 14  6  1  0  0  0  0
 14 15  1  0  0  0  0
 16 15  1  0  0  0  0
 17 18  1  0  0  0  0
 17 16  1  0  0  0  0
 18 19  1  0  0  0  0
 20 21  1  0  0  0  0
 20 19  1  0  0  0  0
 21 24  1  0  0  0  0
 22 23  2  0  0  0  0
 22 25  1  0  0  0  0
 24 22  1  0  0  0  0
 26  1  1  0  0  0  0
 26 27  1  0  0  0  0
 28 27  1  0  0  0  0
 29 30  2  0  0  0  0
 30 28  1  0  0  0  0
 31 29  1  1  0  0  0
 33 37  2  0  0  0  0
 34 38  1  0  0  0  0
 34 32  2  0  0  0  0
 35 36  2  0  0  0  0
 35 33  1  0  0  0  0
 36 34  1  0  0  0  0
 37 32  1  0  0  0  0
 37 31  1  0  0  0  0
 39 44  1  0  0  0  0
 40 41  1  0  0  0  0
 41 42  1  0  0  0  0
 43 40  2  0  0  0  0
 43 39  1  0  0  0  0
 44 42  2  0  0  0  0
 44 31  1  0  0  0  0
 45 46  1  0  0  0  0
 45 40  1  0  0  0  0
 46 47  2  0  0  0  0
 48 46  1  0  0  0  0
 49 48  1  0  0  0  0
M  END
>  <MODEL>
1

>  <REMARK>
 VINA RESULT:      -7.2      0.000      0.000
  Name = 
  19 active torsions:
  status: ('A' for Active; 'I' for Inactive)
    1  A    between atoms: C_1  and  N_25
    2  A    between atoms: C_1  and  N_38
    3  A    between atoms: C_2  and  C_17
    4  A    between atoms: C_2  and  C_39
    5  A    between atoms: C_3  and  N_10
    6  A    between atoms: C_3  and  C_40
    7  A    between atoms: C_3  and  C_47
    8  A    between atoms: O_4  and  N_23
    9  A    between atoms: O_4  and  N_38
   10  A    between atoms: C_7  and  C_8
   11  A    between atoms: C_7  and  C_21
   12  A    between atoms: C_8  and  C_22
   13  A    between atoms: C_11  and  C_21
   14  A    between atoms: C_11  and  N_23
   15  A    between atoms: C_12  and  O_35
   16  A    between atoms: C_15  and  C_42
   17  A    between atoms: C_20  and  O_35
   18  A    between atoms: C_39  and  C_41
   19  A    between atoms: C_41  and  C_42
                            x       y       z     vdW  Elec       q    Type
                         _______ _______ _______ _____ _____    ______ ____

>  <TORSDO>
F 19

$$$$
=
 OpenBabel11062418193D

 49 52  0  0  1  0  0  0  0  0999 V2000
  188.3310  174.9390  142.9990 C   0  0  0  0  0  2  0  0  0  0  0  0
  193.9800  176.0310  144.2820 C   0  0  0  0  0  3  0  0  0  0  0  0
  195.4060  175.5700  146.0830 O   0  0  0  0  0  1  0  0  0  0  0  0
  194.1600  175.9530  145.6030 C   0  0  0  0  0  0  0  0  0  0  0  0
  189.2030  175.7620  143.9420 C   0  0  1  0  0  3  0  0  0  0  0  0
  189.6990  175.0580  145.2420 C   0  0  2  0  0  0  0  0  0  0  0  0
  191.4880  176.1180  144.0600 C   0  0  0  0  0  0  0  0  0  0  0  0
  191.1100  175.5640  145.3500 C   0  0  0  0  0  0  0  0  0  0  0  0
  191.8340  175.6000  146.4730 C   0  0  0  0  0  3  0  0  0  0  0  0
  192.7180  176.3290  143.5820 C   0  0  0  0  0  3  0  0  0  0  0  0
  190.3630  176.2410  143.2710 O   0  0  0  0  0  0  0  0  0  0  0  0
  193.1130  176.3580  146.5920 C   0  0  0  0  0  2  0  0  0  0  0  0
  189.7310  173.2290  145.1020 S   0  0  0  0  0  1  0  0  0  0  0  0
  188.7960  175.5160  146.3960 C   0  0  0  0  0  2  0  0  0  0  0  0
  188.0270  176.7930  146.0870 C   0  0  0  0  0  2  0  0  0  0  0  0
  186.6570  176.7860  146.7480 C   0  0  0  0  0  2  0  0  0  0  0  0
  186.2780  178.1600  147.2990 C   0  0  0  0  0  2  0  0  0  0  0  0
  185.8090  179.0420  146.2360 N   0  0  0  0  0  2  0  0  0  0  0  0
  184.4580  178.9390  146.1870 O   0  0  0  0  0  0  0  0  0  0  0  0
  184.1940  178.5100  144.9280 N   0  0  0  0  0  2  0  0  0  0  0  0
  184.9970  179.3160  144.0240 C   0  0  0  0  0  2  0  0  0  0  0  0
  186.1000  178.4140  141.9290 C   0  0  0  0  0  0  0  0  0  0  0  0
  187.2480  178.5150  142.4410 O   0  0  0  0  0  0  0  0  0  0  0  0
  184.9350  178.7640  142.6780 N   0  0  0  0  0  2  0  0  0  0  0  0
  185.9520  177.9210  140.5330 C   0  0  0  0  0  1  0  0  0  0  0  0
  188.5260  175.3930  141.5650 C   0  0  0  0  0  2  0  0  0  0  0  0
  188.8620  174.1980  140.7000 C   0  0  0  0  0  2  0  0  0  0  0  0
  189.1020  172.9900  141.5820 C   0  0  0  0  0  2  0  0  0  0  0  0
  191.4870  173.0640  141.8850 N   0  0  0  0  0  0  0  0  0  0  0  0
  190.4810  172.4630  141.3630 C   0  0  0  0  0  3  0  0  0  0  0  0
  192.8310  172.5750  141.6850 C   0  0  2  0  0  3  0  0  0  0  0  0
  194.0000  170.7390  142.9090 C   0  0  0  0  0  3  0  0  0  0  0  0
  193.2690  172.6730  144.1720 C   0  0  0  0  0  3  0  0  0  0  0  0
  194.5240  170.1760  144.0750 C   0  0  0  0  0  0  0  0  0  0  0  0
  193.7940  172.1130  145.3380 C   0  0  0  0  0  3  0  0  0  0  0  0
  194.4210  170.8640  145.2900 C   0  0  0  0  0  3  0  0  0  0  0  0
  193.3670  171.9840  142.9520 C   0  0  0  0  0  0  0  0  0  0  0  0
  195.1720  168.9160  144.0220 N   0  0  0  0  0  1  0  0  0  0  0  0
  193.2740  174.5110  140.0150 C   0  0  0  0  0  2  0  0  0  0  0  0
  195.6460  175.0490  139.5640 C   0  0  0  0  0  0  0  0  0  0  0  0
  195.9200  174.8350  141.0360 C   0  0  0  0  0  2  0  0  0  0  0  0
  195.0120  173.7770  141.6070 C   0  0  0  0  0  3  0  0  0  0  0  0
  194.4090  174.8760  139.0920 C   0  0  0  0  0  3  0  0  0  0  0  0
  193.7530  173.6400  141.1470 C   0  0  0  0  0  0  0  0  0  0  0  0
  196.6680  175.3940  138.6730 O   0  0  0  0  0  0  0  0  0  0  0  0
  197.1010  174.5830  137.6170 C   0  0  0  0  0  0  0  0  0  0  0  0
  197.6420  173.4780  137.8800 O   0  0  0  0  0  0  0  0  0  0  0  0
  196.8920  174.9440  136.2480 N   0  0  0  0  0  2  0  0  0  0  0  0
  196.0000  176.0190  135.8400 C   0  0  0  0  0  1  0  0  0  0  0  0
  2  4  2  0  0  0  0
  4  3  1  0  0  0  0
  4 12  1  0  0  0  0
  5  1  1  6  0  0  0
  5  6  1  0  0  0  0
  6 13  1  6  0  0  0
  6  8  1  0  0  0  0
  6 14  1  0  0  0  0
  7  8  1  0  0  0  0
  8  9  2  0  0  0  0
  9 12  1  0  0  0  0
 10  7  2  0  0  0  0
 10  2  1  0  0  0  0
 11  5  1  0  0  0  0
 11  7  1  0  0  0  0
 15 14  1  0  0  0  0
 15 16  1  0  0  0  0
 16 17  1  0  0  0  0
 18 17  1  0  0  0  0
 19 18  1  0  0  0  0
 20 19  1  0  0  0  0
 21 20  1  0  0  0  0
 22 23  2  0  0  0  0
 22 24  1  0  0  0  0
 24 21  1  0  0  0  0
 25 22  1  0  0  0  0
 26  1  1  0  0  0  0
 27 26  1  0  0  0  0
 27 28  1  0  0  0  0
 30 28  1  0  0  0  0
 30 29  2  0  0  0  0
 31 29  1  1  0  0  0
 31 37  1  0  0  0  0
 32 37  2  0  0  0  0
 32 34  1  0  0  0  0
 33 35  2  0  0  0  0
 34 36  2  0  0  0  0
 36 35  1  0  0  0  0
 37 33  1  0  0  0  0
 38 34  1  0  0  0  0
 39 44  1  0  0  0  0
 40 41  1  0  0  0  0
 41 42  1  0  0  0  0
 43 40  2  0  0  0  0
 43 39  1  0  0  0  0
 44 42  2  0  0  0  0
 44 31  1  0  0  0  0
 45 40  1  0  0  0  0
 46 47  2  0  0  0  0
 46 45  1  0  0  0  0
 48 46  1  0  0  0  0
 49 48  1  0  0  0  0
M  END
>  <MODEL>
2

>  <REMARK>
 VINA RESULT:      -6.9      3.473      9.169
  Name = 
  19 active torsions:
  status: ('A' for Active; 'I' for Inactive)
    1  A    between atoms: C_1  and  N_25
    2  A    between atoms: C_1  and  N_38
    3  A    between atoms: C_2  and  C_17
    4  A    between atoms: C_2  and  C_39
    5  A    between atoms: C_3  and  N_10
    6  A    between atoms: C_3  and  C_40
    7  A    between atoms: C_3  and  C_47
    8  A    between atoms: O_4  and  N_23
    9  A    between atoms: O_4  and  N_38
   10  A    between atoms: C_7  and  C_8
   11  A    between atoms: C_7  and  C_21
   12  A    between atoms: C_8  and  C_22
   13  A    between atoms: C_11  and  C_21
   14  A    between atoms: C_11  and  N_23
   15  A    between atoms: C_12  and  O_35
   16  A    between atoms: C_15  and  C_42
   17  A    between atoms: C_20  and  O_35
   18  A    between atoms: C_39  and  C_41
   19  A    between atoms: C_41  and  C_42
                            x       y       z     vdW  Elec       q    Type
                         _______ _______ _______ _____ _____    ______ ____

>  <TORSDO>
F 19

$$$$
=
 OpenBabel11062418193D

 49 52  0  0  1  0  0  0  0  0999 V2000
  188.2870  176.9290  143.5920 C   0  0  0  0  0  2  0  0  0  0  0  0
  194.0710  176.0960  144.3650 C   0  0  0  0  0  3  0  0  0  0  0  0
  195.4190  175.1760  146.0450 O   0  0  0  0  0  1  0  0  0  0  0  0
  194.3300  175.9510  145.6670 C   0  0  0  0  0  0  0  0  0  0  0  0
  189.4590  177.4110  144.4400 C   0  0  1  0  0  3  0  0  0  0  0  0
  189.8080  176.5710  145.7060 C   0  0  2  0  0  0  0  0  0  0  0  0
  191.7350  176.9980  144.3550 C   0  0  0  0  0  0  0  0  0  0  0  0
  191.3110  176.5850  145.6840 C   0  0  0  0  0  0  0  0  0  0  0  0
  192.1020  176.3710  146.7390 C   0  0  0  0  0  3  0  0  0  0  0  0
  192.9200  176.7980  143.7700 C   0  0  0  0  0  3  0  0  0  0  0  0
  190.6490  177.4900  143.6630 O   0  0  0  0  0  0  0  0  0  0  0  0
  193.5640  176.6670  146.7330 C   0  0  0  0  0  2  0  0  0  0  0  0
  189.2280  174.8340  145.6000 S   0  0  0  0  0  1  0  0  0  0  0  0
  189.2090  177.2870  146.9240 C   0  0  0  0  0  2  0  0  0  0  0  0
  187.7740  176.8710  147.2200 C   0  0  0  0  0  2  0  0  0  0  0  0
  186.8290  178.0620  147.1470 C   0  0  0  0  0  2  0  0  0  0  0  0
  185.3730  177.6290  146.9820 C   0  0  0  0  0  2  0  0  0  0  0  0
  184.6790  178.4760  146.0180 N   0  0  0  0  0  2  0  0  0  0  0  0
  185.6200  179.1640  145.3260 O   0  0  0  0  0  0  0  0  0  0  0  0
  184.9250  179.8220  144.3660 N   0  0  0  0  0  2  0  0  0  0  0  0
  184.2820  178.8150  143.5380 C   0  0  0  0  0  2  0  0  0  0  0  0
  184.6220  178.2230  141.0980 C   0  0  0  0  0  0  0  0  0  0  0  0
  183.3890  178.3320  140.8570 O   0  0  0  0  0  0  0  0  0  0  0  0
  185.1350  178.4850  142.4050 N   0  0  0  0  0  2  0  0  0  0  0  0
  185.5560  177.8250  140.0110 C   0  0  0  0  0  1  0  0  0  0  0  0
  188.5580  177.1810  142.1210 C   0  0  0  0  0  2  0  0  0  0  0  0
  188.2500  175.9290  141.3300 C   0  0  0  0  0  2  0  0  0  0  0  0
  187.7070  174.8650  142.2620 C   0  0  0  0  0  2  0  0  0  0  0  0
  189.6830  173.5260  141.9710 N   0  0  0  0  0  0  0  0  0  0  0  0
  188.4010  173.5680  142.0170 C   0  0  0  0  0  3  0  0  0  0  0  0
  190.3780  172.2820  141.7330 C   0  0  2  0  0  3  0  0  0  0  0  0
  191.8500  170.7190  143.0070 C   0  0  0  0  0  3  0  0  0  0  0  0
  191.8380  173.0570  143.6450 C   0  0  0  0  0  3  0  0  0  0  0  0
  192.7870  170.4520  144.0080 C   0  0  0  0  0  0  0  0  0  0  0  0
  192.7770  172.7920  144.6430 C   0  0  0  0  0  3  0  0  0  0  0  0
  193.2510  171.4880  144.8260 C   0  0  0  0  0  3  0  0  0  0  0  0
  191.3680  172.0180  142.8250 C   0  0  0  0  0  0  0  0  0  0  0  0
  193.2770  169.1320  144.1820 N   0  0  0  0  0  1  0  0  0  0  0  0
  192.0630  173.3000  140.0420 C   0  0  0  0  0  2  0  0  0  0  0  0
  191.6900  172.7520  137.6580 C   0  0  0  0  0  0  0  0  0  0  0  0
  191.3410  171.3450  138.0900 C   0  0  0  0  0  2  0  0  0  0  0  0
  190.6800  171.3440  139.4450 C   0  0  0  0  0  3  0  0  0  0  0  0
  192.0070  173.6650  138.5790 C   0  0  0  0  0  3  0  0  0  0  0  0
  191.0390  172.2470  140.3770 C   0  0  0  0  0  0  0  0  0  0  0  0
  191.6570  173.1320  136.3120 O   0  0  0  0  0  0  0  0  0  0  0  0
  190.6370  173.8980  135.7330 C   0  0  0  0  0  0  0  0  0  0  0  0
  190.7390  175.1510  135.7400 O   0  0  0  0  0  0  0  0  0  0  0  0
  189.5140  173.2960  135.0800 N   0  0  0  0  0  2  0  0  0  0  0  0
  189.4650  171.8850  134.7300 C   0  0  0  0  0  1  0  0  0  0  0  0
  2  4  2  0  0  0  0
  4  3  1  0  0  0  0
  4 12  1  0  0  0  0
  5  1  1  6  0  0  0
  5  6  1  0  0  0  0
  6 13  1  6  0  0  0
  6 14  1  0  0  0  0
  7  8  1  0  0  0  0
  8  6  1  0  0  0  0
  8  9  2  0  0  0  0
 10  7  2  0  0  0  0
 10  2  1  0  0  0  0
 11  7  1  0  0  0  0
 11  5  1  0  0  0  0
 12  9  1  0  0  0  0
 14 15  1  0  0  0  0
 16 15  1  0  0  0  0
 17 16  1  0  0  0  0
 18 17  1  0  0  0  0
 19 18  1  0  0  0  0
 20 19  1  0  0  0  0
 21 20  1  0  0  0  0
 22 24  1  0  0  0  0
 23 22  2  0  0  0  0
 24 21  1  0  0  0  0
 25 22  1  0  0  0  0
 26  1  1  0  0  0  0
 27 26  1  0  0  0  0
 27 28  1  0  0  0  0
 29 30  2  0  0  0  0
 30 28  1  0  0  0  0
 31 29  1  1  0  0  0
 31 37  1  0  0  0  0
 32 34  1  0  0  0  0
 33 35  2  0  0  0  0
 34 38  1  0  0  0  0
 34 36  2  0  0  0  0
 35 36  1  0  0  0  0
 37 32  2  0  0  0  0
 37 33  1  0  0  0  0
 39 44  1  0  0  0  0
 40 41  1  0  0  0  0
 40 43  2  0  0  0  0
 41 42  1  0  0  0  0
 42 44  2  0  0  0  0
 43 39  1  0  0  0  0
 44 31  1  0  0  0  0
 45 40  1  0  0  0  0
 46 47  2  0  0  0  0
 46 45  1  0  0  0  0
 48 46  1  0  0  0  0
 49 48  1  0  0  0  0
M  END
>  <MODEL>
3

>  <REMARK>
 VINA RESULT:      -6.8      2.671      8.404
  Name = 
  19 active torsions:
  status: ('A' for Active; 'I' for Inactive)
    1  A    between atoms: C_1  and  N_25
    2  A    between atoms: C_1  and  N_38
    3  A    between atoms: C_2  and  C_17
    4  A    between atoms: C_2  and  C_39
    5  A    between atoms: C_3  and  N_10
    6  A    between atoms: C_3  and  C_40
    7  A    between atoms: C_3  and  C_47
    8  A    between atoms: O_4  and  N_23
    9  A    between atoms: O_4  and  N_38
   10  A    between atoms: C_7  and  C_8
   11  A    between atoms: C_7  and  C_21
   12  A    between atoms: C_8  and  C_22
   13  A    between atoms: C_11  and  C_21
   14  A    between atoms: C_11  and  N_23
   15  A    between atoms: C_12  and  O_35
   16  A    between atoms: C_15  and  C_42
   17  A    between atoms: C_20  and  O_35
   18  A    between atoms: C_39  and  C_41
   19  A    between atoms: C_41  and  C_42
                            x       y       z     vdW  Elec       q    Type
                         _______ _______ _______ _____ _____    ______ ____

>  <TORSDO>
F 19

$$$$
=
 OpenBabel11062418193D

 49 52  0  0  1  0  0  0  0  0999 V2000
  193.3300  172.5910  145.0150 C   0  0  0  0  0  2  0  0  0  0  0  0
  194.9410  174.5940  139.7110 C   0  0  0  0  0  3  0  0  0  0  0  0
  196.9010  175.4770  138.7810 O   0  0  0  0  0  1  0  0  0  0  0  0
  196.0070  175.3890  139.8400 C   0  0  0  0  0  0  0  0  0  0  0  0
  193.7140  173.8780  144.2920 C   0  0  1  0  0  3  0  0  0  0  0  0
  195.2350  174.1980  144.1780 C   0  0  2  0  0  0  0  0  0  0  0  0
  194.1240  174.3670  142.0670 C   0  0  0  0  0  0  0  0  0  0  0  0
  195.3350  174.7420  142.7800 C   0  0  0  0  0  0  0  0  0  0  0  0
  196.3120  175.5300  142.3250 C   0  0  0  0  0  3  0  0  0  0  0  0
  193.9340  174.2980  140.7460 C   0  0  0  0  0  3  0  0  0  0  0  0
  193.1950  173.8890  142.9670 O   0  0  0  0  0  0  0  0  0  0  0  0
  196.2280  176.2660  141.0300 C   0  0  0  0  0  2  0  0  0  0  0  0
  196.2960  172.7070  144.3130 S   0  0  0  0  0  1  0  0  0  0  0  0
  195.5800  175.2300  145.2610 C   0  0  0  0  0  2  0  0  0  0  0  0
  194.5370  176.3310  145.3940 C   0  0  0  0  0  2  0  0  0  0  0  0
  193.9820  176.3960  146.8090 C   0  0  0  0  0  2  0  0  0  0  0  0
  192.4640  176.5750  146.8230 C   0  0  0  0  0  2  0  0  0  0  0  0
  191.7860  175.2990  147.0260 N   0  0  0  0  0  2  0  0  0  0  0  0
  190.6600  175.5430  147.7400 O   0  0  0  0  0  0  0  0  0  0  0  0
  189.7380  174.6930  147.2240 N   0  0  0  0  0  2  0  0  0  0  0  0
  188.8990  175.4680  146.3250 C   0  0  0  0  0  2  0  0  0  0  0  0
  187.0770  177.1810  146.7330 C   0  0  0  0  0  0  0  0  0  0  0  0
  187.4860  177.9030  145.7830 O   0  0  0  0  0  0  0  0  0  0  0  0
  187.7160  175.9390  147.0320 N   0  0  0  0  0  2  0  0  0  0  0  0
  185.9140  177.6220  147.5500 C   0  0  0  0  0  1  0  0  0  0  0  0
  192.2120  171.8800  144.2760 C   0  0  0  0  0  2  0  0  0  0  0  0
  192.7160  170.5510  143.7600 C   0  0  0  0  0  2  0  0  0  0  0  0
  192.5720  170.5080  142.2520 C   0  0  0  0  0  2  0  0  0  0  0  0
  191.2290  171.9060  140.8280 N   0  0  0  0  0  0  0  0  0  0  0  0
  191.2760  171.1240  141.8450 C   0  0  0  0  0  3  0  0  0  0  0  0
  189.9870  172.5160  140.4160 C   0  0  2  0  0  3  0  0  0  0  0  0
  191.3830  173.1740  138.4540 C   0  0  0  0  0  3  0  0  0  0  0  0
  188.9900  173.5310  138.3270 C   0  0  0  0  0  3  0  0  0  0  0  0
  191.5290  173.6950  137.1660 C   0  0  0  0  0  0  0  0  0  0  0  0
  189.1340  174.0490  137.0380 C   0  0  0  0  0  3  0  0  0  0  0  0
  190.4040  174.1320  136.4580 C   0  0  0  0  0  3  0  0  0  0  0  0
  190.1190  173.0950  139.0410 C   0  0  0  0  0  0  0  0  0  0  0  0
  192.8160  173.7640  136.5730 N   0  0  0  0  0  1  0  0  0  0  0  0
  188.1220  173.4090  141.9840 C   0  0  0  0  0  2  0  0  0  0  0  0
  188.2330  175.8120  142.5610 C   0  0  0  0  0  0  0  0  0  0  0  0
  189.7340  175.6620  142.6770 C   0  0  0  0  0  2  0  0  0  0  0  0
  190.2500  174.6300  141.7070 C   0  0  0  0  0  3  0  0  0  0  0  0
  187.4890  174.7580  142.2180 C   0  0  0  0  0  3  0  0  0  0  0  0
  189.5040  173.5510  141.4000 C   0  0  0  0  0  0  0  0  0  0  0  0
  187.6040  177.0430  142.7750 O   0  0  0  0  0  0  0  0  0  0  0  0
  186.8910  177.7460  141.7950 C   0  0  0  0  0  0  0  0  0  0  0  0
  187.3840  177.8510  140.6430 O   0  0  0  0  0  0  0  0  0  0  0  0
  185.5930  178.2930  142.0470 N   0  0  0  0  0  2  0  0  0  0  0  0
  184.8030  177.9490  143.2200 C   0  0  0  0  0  1  0  0  0  0  0  0
  2  4  2  0  0  0  0
  2 10  1  0  0  0  0
  3  4  1  0  0  0  0
  4 12  1  0  0  0  0
  5  1  1  6  0  0  0
  6  5  1  0  0  0  0
  6 13  1  1  0  0  0
  6 14  1  0  0  0  0
  7  8  1  0  0  0  0
  7 11  1  0  0  0  0
  8  6  1  0  0  0  0
  9  8  2  0  0  0  0
 10  7  2  0  0  0  0
 11  5  1  0  0  0  0
 12  9  1  0  0  0  0
 14 15  1  0  0  0  0
 15 16  1  0  0  0  0
 16 17  1  0  0  0  0
 17 18  1  0  0  0  0
 18 19  1  0  0  0  0
 20 19  1  0  0  0  0
 21 24  1  0  0  0  0
 21 20  1  0  0  0  0
 22 24  1  0  0  0  0
 22 25  1  0  0  0  0
 23 22  2  0  0  0  0
 26  1  1  0  0  0  0
 27 26  1  0  0  0  0
 28 27  1  0  0  0  0
 29 30  2  0  0  0  0
 30 28  1  0  0  0  0
 31 29  1  1  0  0  0
 31 44  1  0  0  0  0
 32 37  1  0  0  0  0
 33 37  2  0  0  0  0
 34 32  2  0  0  0  0
 35 33  1  0  0  0  0
 36 35  2  0  0  0  0
 36 34  1  0  0  0  0
 37 31  1  0  0  0  0
 38 34  1  0  0  0  0
 39 43  1  0  0  0  0
 40 41  1  0  0  0  0
 40 45  1  0  0  0  0
 42 41  1  0  0  0  0
 43 40  2  0  0  0  0
 44 42  2  0  0  0  0
 44 39  1  0  0  0  0
 46 48  1  0  0  0  0
 46 45  1  0  0  0  0
 47 46  2  0  0  0  0
 48 49  1  0  0  0  0
M  END
>  <MODEL>
4

>  <REMARK>
 VINA RESULT:      -6.7      3.122      7.670
  Name = 
  19 active torsions:
  status: ('A' for Active; 'I' for Inactive)
    1  A    between atoms: C_1  and  N_25
    2  A    between atoms: C_1  and  N_38
    3  A    between atoms: C_2  and  C_17
    4  A    between atoms: C_2  and  C_39
    5  A    between atoms: C_3  and  N_10
    6  A    between atoms: C_3  and  C_40
    7  A    between atoms: C_3  and  C_47
    8  A    between atoms: O_4  and  N_23
    9  A    between atoms: O_4  and  N_38
   10  A    between atoms: C_7  and  C_8
   11  A    between atoms: C_7  and  C_21
   12  A    between atoms: C_8  and  C_22
   13  A    between atoms: C_11  and  C_21
   14  A    between atoms: C_11  and  N_23
   15  A    between atoms: C_12  and  O_35
   16  A    between atoms: C_15  and  C_42
   17  A    between atoms: C_20  and  O_35
   18  A    between atoms: C_39  and  C_41
   19  A    between atoms: C_41  and  C_42
                            x       y       z     vdW  Elec       q    Type
                         _______ _______ _______ _____ _____    ______ ____

>  <TORSDO>
F 19

$$$$
=
 OpenBabel11062418193D

 49 52  0  0  1  0  0  0  0  0999 V2000
  189.3020  173.4950  138.5540 C   0  0  0  0  0  2  0  0  0  0  0  0
  194.8510  173.2370  136.5840 C   0  0  0  0  0  3  0  0  0  0  0  0
  195.8870  172.6180  134.5760 O   0  0  0  0  0  1  0  0  0  0  0  0
  194.9170  172.3990  135.5460 C   0  0  0  0  0  0  0  0  0  0  0  0
  190.3760  172.4940  138.1400 C   0  0  1  0  0  3  0  0  0  0  0  0
  190.4870  172.1650  136.6200 C   0  0  2  0  0  0  0  0  0  0  0  0
  192.6080  172.7290  137.5720 C   0  0  0  0  0  0  0  0  0  0  0  0
  191.9760  172.0950  136.4250 C   0  0  0  0  0  0  0  0  0  0  0  0
  192.5970  171.4550  135.4310 C   0  0  0  0  0  3  0  0  0  0  0  0
  193.8450  173.2260  137.6610 C   0  0  0  0  0  3  0  0  0  0  0  0
  191.6640  172.9310  138.5570 O   0  0  0  0  0  0  0  0  0  0  0  0
  194.0620  171.1780  135.4310 C   0  0  0  0  0  2  0  0  0  0  0  0
  189.8080  173.4880  135.5460 S   0  0  0  0  0  1  0  0  0  0  0  0
  189.7760  170.8260  136.3770 C   0  0  0  0  0  2  0  0  0  0  0  0
  189.7590  169.9240  137.6030 C   0  0  0  0  0  2  0  0  0  0  0  0
  190.6440  168.7030  137.4010 C   0  0  0  0  0  2  0  0  0  0  0  0
  191.4160  168.3370  138.6690 C   0  0  0  0  0  2  0  0  0  0  0  0
  191.8960  169.5320  139.3540 N   0  0  0  0  0  2  0  0  0  0  0  0
  191.7810  169.3130  140.6880 O   0  0  0  0  0  0  0  0  0  0  0  0
  190.8740  170.2290  141.1060 N   0  0  0  0  0  2  0  0  0  0  0  0
  191.4810  170.9610  142.2050 C   0  0  0  0  0  2  0  0  0  0  0  0
  191.7680  173.4610  142.4990 C   0  0  0  0  0  0  0  0  0  0  0  0
  191.2560  173.4260  143.6510 O   0  0  0  0  0  0  0  0  0  0  0  0
  191.9410  172.2630  141.7410 N   0  0  0  0  0  2  0  0  0  0  0  0
  192.2030  174.7610  141.9220 C   0  0  0  0  0  1  0  0  0  0  0  0
  188.1870  172.7950  139.3080 C   0  0  0  0  0  2  0  0  0  0  0  0
  188.3150  173.0910  140.7850 C   0  0  0  0  0  2  0  0  0  0  0  0
  188.3300  174.5920  140.9990 C   0  0  0  0  0  2  0  0  0  0  0  0
  187.9320  176.0240  142.8890 N   0  0  0  0  0  0  0  0  0  0  0  0
  188.3760  174.9000  142.4570 C   0  0  0  0  0  3  0  0  0  0  0  0
  187.9670  176.3470  144.2960 C   0  0  2  0  0  3  0  0  0  0  0  0
  186.4290  177.4800  145.9030 C   0  0  0  0  0  3  0  0  0  0  0  0
  186.5820  178.3600  143.6500 C   0  0  0  0  0  3  0  0  0  0  0  0
  185.5060  178.4770  146.2290 C   0  0  0  0  0  0  0  0  0  0  0  0
  185.6620  179.3580  143.9760 C   0  0  0  0  0  3  0  0  0  0  0  0
  185.1230  179.4160  145.2650 C   0  0  0  0  0  3  0  0  0  0  0  0
  186.9660  177.4130  144.6150 C   0  0  0  0  0  0  0  0  0  0  0  0
  184.9720  178.5430  147.5410 N   0  0  0  0  0  1  0  0  0  0  0  0
  190.0360  177.8990  144.0820 C   0  0  0  0  0  2  0  0  0  0  0  0
  192.1700  177.0110  144.9660 C   0  0  0  0  0  0  0  0  0  0  0  0
  191.3890  176.4390  146.1290 C   0  0  0  0  0  2  0  0  0  0  0  0
  190.0010  176.0370  145.7020 C   0  0  0  0  0  3  0  0  0  0  0  0
  191.5260  177.6760  144.0030 C   0  0  0  0  0  3  0  0  0  0  0  0
  189.3490  176.7410  144.7570 C   0  0  0  0  0  0  0  0  0  0  0  0
  193.5520  176.8330  144.8560 O   0  0  0  0  0  0  0  0  0  0  0  0
  194.4030  176.5730  145.9380 C   0  0  0  0  0  0  0  0  0  0  0  0
  194.5800  177.4710  146.8020 O   0  0  0  0  0  0  0  0  0  0  0  0
  195.0280  175.2990  146.1240 N   0  0  0  0  0  2  0  0  0  0  0  0
  194.6360  174.1100  145.3820 C   0  0  0  0  0  1  0  0  0  0  0  0
  1 26  1  0  0  0  0
  2 10  1  0  0  0  0
  3  4  1  0  0  0  0
  4  2  2  0  0  0  0
  5  1  1  6  0  0  0
  5 11  1  0  0  0  0
  6 13  1  6  0  0  0
  6  5  1  0  0  0  0
  7 10  2  0  0  0  0
  7 11  1  0  0  0  0
  8  6  1  0  0  0  0
  8  7  1  0  0  0  0
  9  8  2  0  0  0  0
 12  9  1  0  0  0  0
 12  4  1  0  0  0  0
 14  6  1  0  0  0  0
 14 15  1  0  0  0  0
 16 15  1  0  0  0  0
 16 17  1  0  0  0  0
 17 18  1  0  0  0  0
 18 19  1  0  0  0  0
 19 20  1  0  0  0  0
 20 21  1  0  0  0  0
 22 23  2  0  0  0  0
 24 21  1  0  0  0  0
 24 22  1  0  0  0  0
 25 22  1  0  0  0  0
 26 27  1  0  0  0  0
 27 28  1  0  0  0  0
 28 30  1  0  0  0  0
 30 29  2  0  0  0  0
 31 29  1  6  0  0  0
 31 37  1  0  0  0  0
 31 44  1  0  0  0  0
 32 34  1  0  0  0  0
 33 35  2  0  0  0  0
 33 37  1  0  0  0  0
 34 38  1  0  0  0  0
 35 36  1  0  0  0  0
 36 34  2  0  0  0  0
 37 32  2  0  0  0  0
 39 44  1  0  0  0  0
 40 41  1  0  0  0  0
 42 41  1  0  0  0  0
 43 39  1  0  0  0  0
 43 40  2  0  0  0  0
 44 42  2  0  0  0  0
 45 40  1  0  0  0  0
 45 46  1  0  0  0  0
 46 48  1  0  0  0  0
 46 47  2  0  0  0  0
 49 48  1  0  0  0  0
M  END
>  <MODEL>
5

>  <REMARK>
 VINA RESULT:      -6.5      3.766      7.477
  Name = 
  19 active torsions:
  status: ('A' for Active; 'I' for Inactive)
    1  A    between atoms: C_1  and  N_25
    2  A    between atoms: C_1  and  N_38
    3  A    between atoms: C_2  and  C_17
    4  A    between atoms: C_2  and  C_39
    5  A    between atoms: C_3  and  N_10
    6  A    between atoms: C_3  and  C_40
    7  A    between atoms: C_3  and  C_47
    8  A    between atoms: O_4  and  N_23
    9  A    between atoms: O_4  and  N_38
   10  A    between atoms: C_7  and  C_8
   11  A    between atoms: C_7  and  C_21
   12  A    between atoms: C_8  and  C_22
   13  A    between atoms: C_11  and  C_21
   14  A    between atoms: C_11  and  N_23
   15  A    between atoms: C_12  and  O_35
   16  A    between atoms: C_15  and  C_42
   17  A    between atoms: C_20  and  O_35
   18  A    between atoms: C_39  and  C_41
   19  A    between atoms: C_41  and  C_42
                            x       y       z     vdW  Elec       q    Type
                         _______ _______ _______ _____ _____    ______ ____

>  <TORSDO>
F 19

$$$$
=
 OpenBabel11062418193D

 49 52  0  0  1  0  0  0  0  0999 V2000
  193.3890  174.8290  143.6250 C   0  0  0  0  0  2  0  0  0  0  0  0
  194.9140  169.8190  146.3300 C   0  0  0  0  0  3  0  0  0  0  0  0
  196.7310  169.1020  147.6220 O   0  0  0  0  0  1  0  0  0  0  0  0
  196.2340  169.8070  146.5340 C   0  0  0  0  0  0  0  0  0  0  0  0
  194.4040  173.6930  143.5500 C   0  0  1  0  0  3  0  0  0  0  0  0
  195.6780  173.8240  144.4390 C   0  0  2  0  0  0  0  0  0  0  0  0
  194.6160  171.6960  144.7000 C   0  0  0  0  0  0  0  0  0  0  0  0
  195.8610  172.4140  144.9280 C   0  0  0  0  0  0  0  0  0  0  0  0
  197.0060  171.8940  145.3780 C   0  0  0  0  0  3  0  0  0  0  0  0
  194.1910  170.5760  145.2930 C   0  0  0  0  0  3  0  0  0  0  0  0
  193.7990  172.4500  143.8840 O   0  0  0  0  0  0  0  0  0  0  0  0
  197.2090  170.4310  145.5880 C   0  0  0  0  0  2  0  0  0  0  0  0
  195.4360  174.9280  145.8840 S   0  0  0  0  0  1  0  0  0  0  0  0
  196.8260  174.3140  143.5460 C   0  0  0  0  0  2  0  0  0  0  0  0
  196.9260  175.8310  143.4740 C   0  0  0  0  0  2  0  0  0  0  0  0
  197.0440  176.3080  142.0340 C   0  0  0  0  0  2  0  0  0  0  0  0
  197.7910  175.3040  141.1560 C   0  0  0  0  0  2  0  0  0  0  0  0
  197.7280  175.6860  139.7500 N   0  0  0  0  0  2  0  0  0  0  0  0
  196.5360  175.2620  139.2640 O   0  0  0  0  0  0  0  0  0  0  0  0
  196.8460  174.6340  138.1030 N   0  0  0  0  0  2  0  0  0  0  0  0
  196.0470  173.4210  138.0460 C   0  0  0  0  0  2  0  0  0  0  0  0
  196.6110  171.8790  139.9770 C   0  0  0  0  0  0  0  0  0  0  0  0
  195.7390  172.4160  140.7140 O   0  0  0  0  0  0  0  0  0  0  0  0
  196.7900  172.3100  138.6270 N   0  0  0  0  0  2  0  0  0  0  0  0
  197.4590  170.7820  140.5140 C   0  0  0  0  0  1  0  0  0  0  0  0
  192.0560  174.3160  144.1380 C   0  0  0  0  0  2  0  0  0  0  0  0
  191.6720  175.0740  145.3890 C   0  0  0  0  0  2  0  0  0  0  0  0
  191.8690  176.5590  145.1580 C   0  0  0  0  0  2  0  0  0  0  0  0
  189.5370  177.1450  145.0830 N   0  0  0  0  0  0  0  0  0  0  0  0
  190.6710  177.1350  144.4810 C   0  0  0  0  0  3  0  0  0  0  0  0
  188.3630  177.6940  144.4480 C   0  0  2  0  0  3  0  0  0  0  0  0
  186.0310  178.3710  145.0270 C   0  0  0  0  0  3  0  0  0  0  0  0
  187.3350  177.2090  146.7060 C   0  0  0  0  0  3  0  0  0  0  0  0
  184.9500  178.4340  145.9100 C   0  0  0  0  0  0  0  0  0  0  0  0
  186.2550  177.2690  147.5890 C   0  0  0  0  0  3  0  0  0  0  0  0
  185.0630  177.8830  147.1910 C   0  0  0  0  0  3  0  0  0  0  0  0
  187.2260  177.7660  145.4200 C   0  0  0  0  0  0  0  0  0  0  0  0
  183.7370  179.0440  145.5000 N   0  0  0  0  0  1  0  0  0  0  0  0
  187.6710  175.4570  143.3290 C   0  0  0  0  0  2  0  0  0  0  0  0
  188.0540  175.2870  140.8900 C   0  0  0  0  0  0  0  0  0  0  0  0
  187.5890  176.7210  140.7700 C   0  0  0  0  0  2  0  0  0  0  0  0
  187.9610  177.5150  141.9960 C   0  0  0  0  0  3  0  0  0  0  0  0
  188.1080  174.7100  142.0940 C   0  0  0  0  0  3  0  0  0  0  0  0
  187.9730  176.9290  143.2080 C   0  0  0  0  0  0  0  0  0  0  0  0
  188.4630  174.5550  139.7710 O   0  0  0  0  0  0  0  0  0  0  0  0
  188.7380  173.1820  139.7830 C   0  0  0  0  0  0  0  0  0  0  0  0
  187.8450  172.3780  139.4110 O   0  0  0  0  0  0  0  0  0  0  0  0
  190.0240  172.6690  140.1480 N   0  0  0  0  0  2  0  0  0  0  0  0
  191.2050  173.5090  140.2730 C   0  0  0  0  0  1  0  0  0  0  0  0
  1 26  1  0  0  0  0
  2  4  2  0  0  0  0
  4  3  1  0  0  0  0
  5  1  1  1  0  0  0
  5 11  1  0  0  0  0
  5  6  1  0  0  0  0
  6  8  1  0  0  0  0
  6 13  1  1  0  0  0
  7  8  1  0  0  0  0
  7 10  2  0  0  0  0
  8  9  2  0  0  0  0
  9 12  1  0  0  0  0
 10  2  1  0  0  0  0
 11  7  1  0  0  0  0
 12  4  1  0  0  0  0
 14  6  1  0  0  0  0
 15 14  1  0  0  0  0
 16 15  1  0  0  0  0
 17 16  1  0  0  0  0
 18 17  1  0  0  0  0
 19 18  1  0  0  0  0
 20 19  1  0  0  0  0
 21 20  1  0  0  0  0
 21 24  1  0  0  0  0
 22 25  1  0  0  0  0
 22 23  2  0  0  0  0
 24 22  1  0  0  0  0
 26 27  1  0  0  0  0
 28 27  1  0  0  0  0
 30 29  2  0  0  0  0
 30 28  1  0  0  0  0
 31 29  1  1  0  0  0
 31 37  1  0  0  0  0
 32 37  2  0  0  0  0
 32 34  1  0  0  0  0
 33 35  2  0  0  0  0
 34 36  2  0  0  0  0
 36 35  1  0  0  0  0
 37 33  1  0  0  0  0
 38 34  1  0  0  0  0
 40 43  2  0  0  0  0
 41 40  1  0  0  0  0
 41 42  1  0  0  0  0
 42 44  2  0  0  0  0
 43 39  1  0  0  0  0
 44 39  1  0  0  0  0
 44 31  1  0  0  0  0
 45 46  1  0  0  0  0
 45 40  1  0  0  0  0
 46 48  1  0  0  0  0
 47 46  2  0  0  0  0
 48 49  1  0  0  0  0
M  END
>  <MODEL>
6

>  <REMARK>
 VINA RESULT:      -6.4      3.039      5.814
  Name = 
  19 active torsions:
  status: ('A' for Active; 'I' for Inactive)
    1  A    between atoms: C_1  and  N_25
    2  A    between atoms: C_1  and  N_38
    3  A    between atoms: C_2  and  C_17
    4  A    between atoms: C_2  and  C_39
    5  A    between atoms: C_3  and  N_10
    6  A    between atoms: C_3  and  C_40
    7  A    between atoms: C_3  and  C_47
    8  A    between atoms: O_4  and  N_23
    9  A    between atoms: O_4  and  N_38
   10  A    between atoms: C_7  and  C_8
   11  A    between atoms: C_7  and  C_21
   12  A    between atoms: C_8  and  C_22
   13  A    between atoms: C_11  and  C_21
   14  A    between atoms: C_11  and  N_23
   15  A    between atoms: C_12  and  O_35
   16  A    between atoms: C_15  and  C_42
   17  A    between atoms: C_20  and  O_35
   18  A    between atoms: C_39  and  C_41
   19  A    between atoms: C_41  and  C_42
                            x       y       z     vdW  Elec       q    Type
                         _______ _______ _______ _____ _____    ______ ____

>  <TORSDO>
F 19

$$$$
=
 OpenBabel11062418193D

 49 52  0  0  1  0  0  0  0  0999 V2000
  189.9070  172.0120  141.6770 C   0  0  0  0  0  2  0  0  0  0  0  0
  193.5280  168.4020  144.6080 C   0  0  0  0  0  3  0  0  0  0  0  0
  194.5650  168.4160  146.7090 O   0  0  0  0  0  1  0  0  0  0  0  0
  194.1660  169.0880  145.5600 C   0  0  0  0  0  0  0  0  0  0  0  0
  191.3400  171.9190  142.1900 C   0  0  1  0  0  3  0  0  0  0  0  0
  191.5910  172.3470  143.6680 C   0  0  2  0  0  0  0  0  0  0  0  0
  192.5450  170.2080  143.1800 C   0  0  0  0  0  0  0  0  0  0  0  0
  192.5790  171.3110  144.1280 C   0  0  0  0  0  0  0  0  0  0  0  0
  193.4190  171.4470  145.1580 C   0  0  0  0  0  3  0  0  0  0  0  0
  192.9510  168.9490  143.3670 C   0  0  0  0  0  3  0  0  0  0  0  0
  191.8390  170.5930  142.0590 O   0  0  0  0  0  0  0  0  0  0  0  0
  194.5620  170.5210  145.4040 C   0  0  0  0  0  2  0  0  0  0  0  0
  190.0870  172.2390  144.7130 S   0  0  0  0  0  1  0  0  0  0  0  0
  192.1620  173.7710  143.6530 C   0  0  0  0  0  2  0  0  0  0  0  0
  193.1740  174.0010  142.5390 C   0  0  0  0  0  2  0  0  0  0  0  0
  193.3330  175.4840  142.2370 C   0  0  0  0  0  2  0  0  0  0  0  0
  194.6520  175.7860  141.5260 C   0  0  0  0  0  2  0  0  0  0  0  0
  194.5090  175.6660  140.0790 N   0  0  0  0  0  2  0  0  0  0  0  0
  195.1530  174.5350  139.6970 O   0  0  0  0  0  0  0  0  0  0  0  0
  195.8810  174.9060  138.6160 N   0  0  0  0  0  2  0  0  0  0  0  0
  195.4730  174.0520  137.5120 C   0  0  0  0  0  2  0  0  0  0  0  0
  197.2810  173.8640  135.7470 C   0  0  0  0  0  0  0  0  0  0  0  0
  197.7730  172.8440  136.3010 O   0  0  0  0  0  0  0  0  0  0  0  0
  196.1140  174.4920  136.2810 N   0  0  0  0  0  2  0  0  0  0  0  0
  197.9150  174.4190  134.5220 C   0  0  0  0  0  1  0  0  0  0  0  0
  189.8310  172.9410  140.4800 C   0  0  0  0  0  2  0  0  0  0  0  0
  189.8630  174.3770  140.9540 C   0  0  0  0  0  2  0  0  0  0  0  0
  188.4500  174.8470  141.2350 C   0  0  0  0  0  2  0  0  0  0  0  0
  188.3250  176.0720  143.3010 N   0  0  0  0  0  0  0  0  0  0  0  0
  188.2250  174.9390  142.7060 C   0  0  0  0  0  3  0  0  0  0  0  0
  188.1130  176.1860  144.7240 C   0  0  2  0  0  3  0  0  0  0  0  0
  186.5990  177.3830  146.3080 C   0  0  0  0  0  3  0  0  0  0  0  0
  186.7820  178.2240  144.0430 C   0  0  0  0  0  3  0  0  0  0  0  0
  185.7010  178.4080  146.6150 C   0  0  0  0  0  0  0  0  0  0  0  0
  185.8870  179.2510  144.3490 C   0  0  0  0  0  3  0  0  0  0  0  0
  185.3460  179.3420  145.6350 C   0  0  0  0  0  3  0  0  0  0  0  0
  187.1380  177.2820  145.0230 C   0  0  0  0  0  0  0  0  0  0  0  0
  185.1640  178.5080  147.9240 N   0  0  0  0  0  1  0  0  0  0  0  0
  190.3760  177.4270  144.9960 C   0  0  0  0  0  2  0  0  0  0  0  0
  192.1230  176.2510  146.2950 C   0  0  0  0  0  0  0  0  0  0  0  0
  191.0380  175.8030  147.2490 C   0  0  0  0  0  2  0  0  0  0  0  0
  189.7320  175.6000  146.5250 C   0  0  0  0  0  3  0  0  0  0  0  0
  191.8010  176.9940  145.2320 C   0  0  0  0  0  3  0  0  0  0  0  0
  189.4040  176.3830  145.4800 C   0  0  0  0  0  0  0  0  0  0  0  0
  193.4580  175.8770  146.4790 O   0  0  0  0  0  0  0  0  0  0  0  0
  194.5440  176.4910  145.8430 C   0  0  0  0  0  0  0  0  0  0  0  0
  194.7140  177.7290  145.9870 O   0  0  0  0  0  0  0  0  0  0  0  0
  195.5010  175.7430  145.0850 N   0  0  0  0  0  2  0  0  0  0  0  0
  195.5860  174.2910  145.1300 C   0  0  0  0  0  1  0  0  0  0  0  0
  2  4  2  0  0  0  0
  4  3  1  0  0  0  0
  5  1  1  1  0  0  0
  5  6  1  0  0  0  0
  6  8  1  0  0  0  0
  6 13  1  1  0  0  0
  7 10  2  0  0  0  0
  7  8  1  0  0  0  0
  8  9  2  0  0  0  0
  9 12  1  0  0  0  0
 10  2  1  0  0  0  0
 11  5  1  0  0  0  0
 11  7  1  0  0  0  0
 12  4  1  0  0  0  0
 14  6  1  0  0  0  0
 15 14  1  0  0  0  0
 16 15  1  0  0  0  0
 17 16  1  0  0  0  0
 18 17  1  0  0  0  0
 19 18  1  0  0  0  0
 20 19  1  0  0  0  0
 21 20  1  0  0  0  0
 22 24  1  0  0  0  0
 22 23  2  0  0  0  0
 24 21  1  0  0  0  0
 25 22  1  0  0  0  0
 26 27  1  0  0  0  0
 26  1  1  0  0  0  0
 27 28  1  0  0  0  0
 28 30  1  0  0  0  0
 30 29  2  0  0  0  0
 31 29  1  6  0  0  0
 31 37  1  0  0  0  0
 31 44  1  0  0  0  0
 32 34  1  0  0  0  0
 33 35  2  0  0  0  0
 33 37  1  0  0  0  0
 34 38  1  0  0  0  0
 35 36  1  0  0  0  0
 36 34  2  0  0  0  0
 37 32  2  0  0  0  0
 39 43  1  0  0  0  0
 39 44  1  0  0  0  0
 40 45  1  0  0  0  0
 40 41  1  0  0  0  0
 42 41  1  0  0  0  0
 43 40  2  0  0  0  0
 44 42  2  0  0  0  0
 46 47  2  0  0  0  0
 46 45  1  0  0  0  0
 48 49  1  0  0  0  0
 48 46  1  0  0  0  0
M  END
>  <MODEL>
7

>  <REMARK>
 VINA RESULT:      -6.4      3.760      6.863
  Name = 
  19 active torsions:
  status: ('A' for Active; 'I' for Inactive)
    1  A    between atoms: C_1  and  N_25
    2  A    between atoms: C_1  and  N_38
    3  A    between atoms: C_2  and  C_17
    4  A    between atoms: C_2  and  C_39
    5  A    between atoms: C_3  and  N_10
    6  A    between atoms: C_3  and  C_40
    7  A    between atoms: C_3  and  C_47
    8  A    between atoms: O_4  and  N_23
    9  A    between atoms: O_4  and  N_38
   10  A    between atoms: C_7  and  C_8
   11  A    between atoms: C_7  and  C_21
   12  A    between atoms: C_8  and  C_22
   13  A    between atoms: C_11  and  C_21
   14  A    between atoms: C_11  and  N_23
   15  A    between atoms: C_12  and  O_35
   16  A    between atoms: C_15  and  C_42
   17  A    between atoms: C_20  and  O_35
   18  A    between atoms: C_39  and  C_41
   19  A    between atoms: C_41  and  C_42
                            x       y       z     vdW  Elec       q    Type
                         _______ _______ _______ _____ _____    ______ ____

>  <TORSDO>
F 19

$$$$
=
 OpenBabel11062418193D

 49 52  0  0  1  0  0  0  0  0999 V2000
  190.1260  171.6070  141.8550 C   0  0  0  0  0  2  0  0  0  0  0  0
  193.7490  168.5680  145.3730 C   0  0  0  0  0  3  0  0  0  0  0  0
  195.0160  169.0470  147.2850 O   0  0  0  0  0  1  0  0  0  0  0  0
  194.5450  169.4150  146.0310 C   0  0  0  0  0  0  0  0  0  0  0  0
  191.5960  171.5000  142.2480 C   0  0  1  0  0  3  0  0  0  0  0  0
  192.0480  172.2900  143.5140 C   0  0  2  0  0  0  0  0  0  0  0  0
  192.7620  170.0070  143.5780 C   0  0  0  0  0  0  0  0  0  0  0  0
  192.9940  171.3180  144.1640 C   0  0  0  0  0  0  0  0  0  0  0  0
  193.9540  171.6390  145.0350 C   0  0  0  0  0  3  0  0  0  0  0  0
  193.0810  168.8110  144.0820 C   0  0  0  0  0  3  0  0  0  0  0  0
  191.9660  170.1430  142.4600 O   0  0  0  0  0  0  0  0  0  0  0  0
  195.0370  170.6960  145.4370 C   0  0  0  0  0  2  0  0  0  0  0  0
  190.6700  172.6430  144.6720 S   0  0  0  0  0  1  0  0  0  0  0  0
  192.7290  173.5820  143.0430 C   0  0  0  0  0  2  0  0  0  0  0  0
  193.6210  173.3810  141.8250 C   0  0  0  0  0  2  0  0  0  0  0  0
  193.7820  174.6750  141.0410 C   0  0  0  0  0  2  0  0  0  0  0  0
  194.6930  174.5000  139.8250 C   0  0  0  0  0  2  0  0  0  0  0  0
  193.9300  174.5650  138.5840 N   0  0  0  0  0  2  0  0  0  0  0  0
  193.6860  173.2920  138.1870 O   0  0  0  0  0  0  0  0  0  0  0  0
  192.3640  173.2750  137.8890 N   0  0  0  0  0  2  0  0  0  0  0  0
  192.2200  173.8210  136.5500 C   0  0  0  0  0  2  0  0  0  0  0  0
  189.7850  174.0780  135.9010 C   0  0  0  0  0  0  0  0  0  0  0  0
  189.7180  172.8800  135.5150 O   0  0  0  0  0  0  0  0  0  0  0  0
  190.9920  174.5990  136.4590 N   0  0  0  0  0  2  0  0  0  0  0  0
  188.5930  174.9610  135.7820 C   0  0  0  0  0  1  0  0  0  0  0  0
  189.9850  172.2990  140.5120 C   0  0  0  0  0  2  0  0  0  0  0  0
  189.7930  173.7830  140.7280 C   0  0  0  0  0  2  0  0  0  0  0  0
  188.3500  174.0560  141.1010 C   0  0  0  0  0  2  0  0  0  0  0  0
  188.1910  175.7260  142.8240 N   0  0  0  0  0  0  0  0  0  0  0  0
  188.2620  174.4790  142.5280 C   0  0  0  0  0  3  0  0  0  0  0  0
  188.1070  176.1610  144.1980 C   0  0  2  0  0  3  0  0  0  0  0  0
  186.6510  177.6430  145.5820 C   0  0  0  0  0  3  0  0  0  0  0  0
  186.8190  178.0970  143.2080 C   0  0  0  0  0  3  0  0  0  0  0  0
  185.7850  178.7300  145.7280 C   0  0  0  0  0  0  0  0  0  0  0  0
  185.9560  179.1860  143.3530 C   0  0  0  0  0  3  0  0  0  0  0  0
  185.4380  179.5010  144.6130 C   0  0  0  0  0  3  0  0  0  0  0  0
  187.1660  177.3190  144.3250 C   0  0  0  0  0  0  0  0  0  0  0  0
  185.2730  179.0580  147.0100 N   0  0  0  0  0  1  0  0  0  0  0  0
  190.4480  177.2470  143.9250 C   0  0  0  0  0  2  0  0  0  0  0  0
  192.2220  176.4230  145.4400 C   0  0  0  0  0  0  0  0  0  0  0  0
  191.1910  176.3910  146.5460 C   0  0  0  0  0  2  0  0  0  0  0  0
  189.8240  176.0650  146.0000 C   0  0  0  0  0  3  0  0  0  0  0  0
  191.8610  176.8060  144.2120 C   0  0  0  0  0  3  0  0  0  0  0  0
  189.4600  176.4920  144.7760 C   0  0  0  0  0  0  0  0  0  0  0  0
  193.5450  176.0280  145.6630 O   0  0  0  0  0  0  0  0  0  0  0  0
  194.6590  176.8550  145.4700 C   0  0  0  0  0  0  0  0  0  0  0  0
  194.7460  177.9230  146.1290 O   0  0  0  0  0  0  0  0  0  0  0  0
  195.7300  176.4930  144.5910 N   0  0  0  0  0  2  0  0  0  0  0  0
  195.8860  175.1540  144.0450 C   0  0  0  0  0  1  0  0  0  0  0  0
  2  4  2  0  0  0  0
  4  3  1  0  0  0  0
  5  1  1  1  0  0  0
  5 11  1  0  0  0  0
  5  6  1  0  0  0  0
  6  8  1  0  0  0  0
  6 13  1  1  0  0  0
  7 10  2  0  0  0  0
  7  8  1  0  0  0  0
  8  9  2  0  0  0  0
  9 12  1  0  0  0  0
 10  2  1  0  0  0  0
 11  7  1  0  0  0  0
 12  4  1  0  0  0  0
 14  6  1  0  0  0  0
 15 14  1  0  0  0  0
 16 15  1  0  0  0  0
 17 16  1  0  0  0  0
 18 17  1  0  0  0  0
 19 18  1  0  0  0  0
 20 19  1  0  0  0  0
 21 20  1  0  0  0  0
 22 24  1  0  0  0  0
 23 22  2  0  0  0  0
 24 21  1  0  0  0  0
 25 22  1  0  0  0  0
 26 27  1  0  0  0  0
 26  1  1  0  0  0  0
 27 28  1  0  0  0  0
 28 30  1  0  0  0  0
 30 29  2  0  0  0  0
 31 29  1  6  0  0  0
 31 37  1  0  0  0  0
 31 44  1  0  0  0  0
 32 34  1  0  0  0  0
 33 35  2  0  0  0  0
 33 37  1  0  0  0  0
 34 38  1  0  0  0  0
 35 36  1  0  0  0  0
 36 34  2  0  0  0  0
 37 32  2  0  0  0  0
 39 43  1  0  0  0  0
 39 44  1  0  0  0  0
 40 45  1  0  0  0  0
 40 41  1  0  0  0  0
 42 41  1  0  0  0  0
 43 40  2  0  0  0  0
 44 42  2  0  0  0  0
 46 45  1  0  0  0  0
 46 47  2  0  0  0  0
 48 46  1  0  0  0  0
 49 48  1  0  0  0  0
M  END
>  <MODEL>
8

>  <REMARK>
 VINA RESULT:      -6.3      3.026      7.099
  Name = 
  19 active torsions:
  status: ('A' for Active; 'I' for Inactive)
    1  A    between atoms: C_1  and  N_25
    2  A    between atoms: C_1  and  N_38
    3  A    between atoms: C_2  and  C_17
    4  A    between atoms: C_2  and  C_39
    5  A    between atoms: C_3  and  N_10
    6  A    between atoms: C_3  and  C_40
    7  A    between atoms: C_3  and  C_47
    8  A    between atoms: O_4  and  N_23
    9  A    between atoms: O_4  and  N_38
   10  A    between atoms: C_7  and  C_8
   11  A    between atoms: C_7  and  C_21
   12  A    between atoms: C_8  and  C_22
   13  A    between atoms: C_11  and  C_21
   14  A    between atoms: C_11  and  N_23
   15  A    between atoms: C_12  and  O_35
   16  A    between atoms: C_15  and  C_42
   17  A    between atoms: C_20  and  O_35
   18  A    between atoms: C_39  and  C_41
   19  A    between atoms: C_41  and  C_42
                            x       y       z     vdW  Elec       q    Type
                         _______ _______ _______ _____ _____    ______ ____

>  <TORSDO>
F 19

$$$$
=
 OpenBabel11062418193D

 49 52  0  0  1  0  0  0  0  0999 V2000
  191.4930  174.2530  145.4580 C   0  0  0  0  0  2  0  0  0  0  0  0
  192.7380  173.8410  139.7110 C   0  0  0  0  0  3  0  0  0  0  0  0
  192.9210  172.0960  138.1600 O   0  0  0  0  0  1  0  0  0  0  0  0
  193.1510  172.6020  139.4320 C   0  0  0  0  0  0  0  0  0  0  0  0
  192.5700  173.7460  144.5030 C   0  0  1  0  0  3  0  0  0  0  0  0
  192.3800  172.3120  143.9220 C   0  0  2  0  0  0  0  0  0  0  0  0
  192.8440  173.9180  142.2110 C   0  0  0  0  0  0  0  0  0  0  0  0
  192.8280  172.4920  142.4980 C   0  0  0  0  0  0  0  0  0  0  0  0
  193.2490  171.5150  141.6900 C   0  0  0  0  0  3  0  0  0  0  0  0
  192.8070  174.5190  141.0180 C   0  0  0  0  0  3  0  0  0  0  0  0
  192.7130  174.6210  143.3910 O   0  0  0  0  0  0  0  0  0  0  0  0
  193.9400  171.7720  140.3940 C   0  0  0  0  0  2  0  0  0  0  0  0
  190.6320  171.7570  143.9300 S   0  0  0  0  0  1  0  0  0  0  0  0
  193.2740  171.3580  144.7260 C   0  0  0  0  0  2  0  0  0  0  0  0
  194.6540  171.9320  145.0200 C   0  0  0  0  0  2  0  0  0  0  0  0
  195.7530  170.9850  144.5620 C   0  0  0  0  0  2  0  0  0  0  0  0
  197.0880  171.2820  145.2460 C   0  0  0  0  0  2  0  0  0  0  0  0
  197.9400  172.1090  144.4000 N   0  0  0  0  0  2  0  0  0  0  0  0
  197.2670  172.3450  143.2470 O   0  0  0  0  0  0  0  0  0  0  0  0
  197.8020  173.4940  142.7680 N   0  0  0  0  0  2  0  0  0  0  0  0
  197.9070  174.4160  143.8870 C   0  0  0  0  0  2  0  0  0  0  0  0
  195.8880  175.6990  144.7210 C   0  0  0  0  0  0  0  0  0  0  0  0
  195.8390  175.0160  145.7800 O   0  0  0  0  0  0  0  0  0  0  0  0
  196.9150  175.4740  143.7540 N   0  0  0  0  0  2  0  0  0  0  0  0
  194.8710  176.7570  144.4750 C   0  0  0  0  0  1  0  0  0  0  0  0
  192.1230  174.8130  146.7190 C   0  0  0  0  0  2  0  0  0  0  0  0
  192.1060  176.3250  146.6610 C   0  0  0  0  0  2  0  0  0  0  0  0
  190.7180  176.8260  147.0060 C   0  0  0  0  0  2  0  0  0  0  0  0
  188.9820  176.9610  145.3480 N   0  0  0  0  0  0  0  0  0  0  0  0
  190.0820  177.4390  145.8050 C   0  0  0  0  0  3  0  0  0  0  0  0
  188.3480  177.5360  144.1850 C   0  0  2  0  0  3  0  0  0  0  0  0
  186.4930  177.8800  145.8200 C   0  0  0  0  0  3  0  0  0  0  0  0
  186.3050  178.9220  143.6400 C   0  0  0  0  0  3  0  0  0  0  0  0
  185.2620  178.4270  146.1870 C   0  0  0  0  0  0  0  0  0  0  0  0
  185.0760  179.4720  144.0070 C   0  0  0  0  0  3  0  0  0  0  0  0
  184.5530  179.2240  145.2800 C   0  0  0  0  0  3  0  0  0  0  0  0
  187.0170  178.1180  144.5470 C   0  0  0  0  0  0  0  0  0  0  0  0
  184.7400  178.1870  147.4840 N   0  0  0  0  0  1  0  0  0  0  0  0
  188.5140  175.0920  143.3280 C   0  0  0  0  0  2  0  0  0  0  0  0
  188.8080  174.8030  140.8880 C   0  0  0  0  0  0  0  0  0  0  0  0
  187.8210  175.9320  140.6880 C   0  0  0  0  0  2  0  0  0  0  0  0
  187.9210  176.9410  141.8030 C   0  0  0  0  0  3  0  0  0  0  0  0
  189.1410  174.4300  142.1260 C   0  0  0  0  0  3  0  0  0  0  0  0
  188.2200  176.5440  143.0550 C   0  0  0  0  0  0  0  0  0  0  0  0
  189.4090  174.1580  139.8020 O   0  0  0  0  0  0  0  0  0  0  0  0
  188.7950  173.1540  139.0430 C   0  0  0  0  0  0  0  0  0  0  0  0
  187.8360  172.5120  139.5440 O   0  0  0  0  0  0  0  0  0  0  0  0
  189.1840  172.8780  137.6930 N   0  0  0  0  0  2  0  0  0  0  0  0
  190.0390  173.7660  136.9190 C   0  0  0  0  0  1  0  0  0  0  0  0
  1 26  1  0  0  0  0
  2 10  1  0  0  0  0
  3  4  1  0  0  0  0
  4  2  2  0  0  0  0
  4 12  1  0  0  0  0
  5  1  1  6  0  0  0
  6 13  1  1  0  0  0
  6  5  1  0  0  0  0
  6 14  1  0  0  0  0
  7  8  1  0  0  0  0
  7 11  1  0  0  0  0
  8  6  1  0  0  0  0
  9  8  2  0  0  0  0
 10  7  2  0  0  0  0
 11  5  1  0  0  0  0
 12  9  1  0  0  0  0
 14 15  1  0  0  0  0
 16 15  1  0  0  0  0
 16 17  1  0  0  0  0
 18 17  1  0  0  0  0
 19 18  1  0  0  0  0
 20 19  1  0  0  0  0
 20 21  1  0  0  0  0
 22 23  2  0  0  0  0
 24 21  1  0  0  0  0
 24 22  1  0  0  0  0
 25 22  1  0  0  0  0
 27 26  1  0  0  0  0
 27 28  1  0  0  0  0
 29 30  2  0  0  0  0
 30 28  1  0  0  0  0
 31 37  1  0  0  0  0
 31 29  1  1  0  0  0
 32 34  1  0  0  0  0
 33 35  2  0  0  0  0
 33 37  1  0  0  0  0
 34 38  1  0  0  0  0
 35 36  1  0  0  0  0
 36 34  2  0  0  0  0
 37 32  2  0  0  0  0
 40 43  2  0  0  0  0
 41 40  1  0  0  0  0
 41 42  1  0  0  0  0
 42 44  2  0  0  0  0
 43 39  1  0  0  0  0
 44 39  1  0  0  0  0
 44 31  1  0  0  0  0
 45 40  1  0  0  0  0
 46 47  2  0  0  0  0
 46 45  1  0  0  0  0
 48 46  1  0  0  0  0
 49 48  1  0  0  0  0
M  END
>  <MODEL>
9

>  <REMARK>
 VINA RESULT:      -6.3      2.741      4.836
  Name = 
  19 active torsions:
  status: ('A' for Active; 'I' for Inactive)
    1  A    between atoms: C_1  and  N_25
    2  A    between atoms: C_1  and  N_38
    3  A    between atoms: C_2  and  C_17
    4  A    between atoms: C_2  and  C_39
    5  A    between atoms: C_3  and  N_10
    6  A    between atoms: C_3  and  C_40
    7  A    between atoms: C_3  and  C_47
    8  A    between atoms: O_4  and  N_23
    9  A    between atoms: O_4  and  N_38
   10  A    between atoms: C_7  and  C_8
   11  A    between atoms: C_7  and  C_21
   12  A    between atoms: C_8  and  C_22
   13  A    between atoms: C_11  and  C_21
   14  A    between atoms: C_11  and  N_23
   15  A    between atoms: C_12  and  O_35
   16  A    between atoms: C_15  and  C_42
   17  A    between atoms: C_20  and  O_35
   18  A    between atoms: C_39  and  C_41
   19  A    between atoms: C_41  and  C_42
                            x       y       z     vdW  Elec       q    Type
                         _______ _______ _______ _____ _____    ______ ____

>  <TORSDO>
F 19

$$$$
