=
 OpenBabel11062421063D

 68 75  0  0  1  0  0  0  0  0999 V2000
  191.4440  174.7280  146.9960 C   0  0  0  0  0  2  0  0  0  0  0  0
  189.1320  176.7250  144.3150 C   0  0  0  0  0  0  0  0  0  0  0  0
  191.2700  176.1590  145.0470 O   0  0  0  0  0  0  0  0  0  0  0  0
  191.1810  173.7380  143.7960 O   0  0  0  0  0  0  0  0  0  0  0  0
  192.0900  175.1580  145.6590 C   0  0  1  0  0  0  0  0  0  0  0  0
  190.1080  175.8460  144.3490 C   0  0  0  0  0  0  0  0  0  0  0  0
  193.4880  175.7350  145.9080 C   0  0  0  0  0  2  0  0  0  0  0  0
  193.4760  176.9480  146.8530 C   0  0  0  0  0  2  0  0  0  0  0  0
  192.1770  173.9580  144.7490 C   0  0  0  0  0  0  0  0  0  0  0  0
  193.1330  173.1410  144.8480 O   0  0  0  0  0  0  0  0  0  0  0  0
  189.9560  174.4680  143.7620 C   0  0  1  0  0  3  0  0  0  0  0  0
  191.8320  175.5970  148.2070 C   0  0  0  0  0  2  0  0  0  0  0  0
  188.1690  177.6240  144.3180 C   0  0  0  0  0  3  0  0  0  0  0  0
  192.2400  176.9960  147.7650 C   0  0  1  0  0  3  0  0  0  0  0  0
  184.8880  179.5190  144.5600 S   0  0  0  0  0  0  0  0  0  0  0  0
  185.6650  177.6830  146.2530 O   0  0  0  0  0  0  0  0  0  0  0  0
  186.6950  177.3150  144.1550 C   0  0  2  0  0  3  0  0  0  0  0  0
  184.0580  178.3370  143.4970 C   0  0  2  0  0  3  0  0  0  0  0  0
  186.3470  177.4890  142.6520 C   0  0  2  0  0  3  0  0  0  0  0  0
  185.8200  178.0930  145.1190 C   0  0  0  0  0  0  0  0  0  0  0  0
  185.0420  178.1410  142.3730 C   0  0  1  0  0  0  0  0  0  0  0  0
  185.1890  176.7520  142.2450 O   0  0  0  0  0  0  0  0  0  0  0  0
  183.7120  178.8080  142.0910 C   0  0  1  0  0  3  0  0  0  0  0  0
  182.7880  177.9260  141.5180 O   0  0  0  0  0  0  0  0  0  0  0  0
  182.1250  178.5880  140.4690 C   0  0  0  0  0  2  0  0  0  0  0  0
  180.9850  179.2990  140.9050 O   0  0  0  0  0  0  0  0  0  0  0  0
  178.9630  179.0380  142.1130 C   0  0  2  0  0  3  0  0  0  0  0  0
  178.6140  179.4080  139.6650 N   0  0  0  0  0  1  0  0  0  0  0  0
  177.9690  177.1230  140.5770 C   0  0  0  0  0  1  0  0  0  0  0  0
  178.7250  178.4370  140.7420 C   0  0  2  0  0  0  0  0  0  0  0  0
  180.0990  178.3250  141.3810 C   0  0  1  0  0  3  0  0  0  0  0  0
  178.4550  178.1510  143.2440 C   0  0  0  0  0  2  0  0  0  0  0  0
  178.6690  178.8420  144.5460 C   0  0  0  0  0  0  0  0  0  0  0  0
  177.6920  178.7950  145.5310 O   0  0  0  0  0  1  0  0  0  0  0  0
  179.7350  179.4810  144.7430 O   0  0  0  0  0  0  0  0  0  0  0  0
  187.9840  173.7280  142.3530 C   0  0  0  0  0  1  0  0  0  0  0  0
  189.3250  174.4410  142.3640 C   0  0  2  0  0  3  0  0  0  0  0  0
  191.5630  174.7430  141.1660 C   0  0  0  0  0  1  0  0  0  0  0  0
  190.2050  174.0700  141.1560 C   0  0  1  0  0  3  0  0  0  0  0  0
  190.2770  172.2900  140.6750 P   0  0  1  0  0  0  0  0  0  0  0  0
  188.3110  173.6640  137.9000 C   0  0  0  0  0  1  0  0  0  0  0  0
  189.2870  172.0360  139.3210 O   0  0  0  0  0  0  0  0  0  0  0  0
  189.6100  173.0420  138.4040 C   0  0  1  0  0  3  0  0  0  0  0  0
  191.9660  171.7380  140.2320 C   0  0  1  0  0  3  0  0  0  0  0  0
  190.3780  172.4870  137.2760 N   0  0  0  0  0  0  0  0  0  0  0  0
  189.7530  171.4180  141.7890 O   0  0  0  0  0  0  0  0  0  0  0  0
  191.5750  171.7390  137.6860 C   0  0  1  0  0  3  0  0  0  0  0  0
  192.3760  172.3110  138.8740 C   0  0  0  0  0  2  0  0  0  0  0  0
  190.1760  169.7200  137.2500 O   0  0  0  0  0  0  0  0  0  0  0  0
  191.3980  170.2490  137.6380 C   0  0  0  0  0  0  0  0  0  0  0  0
  192.3370  169.4690  137.9500 O   0  0  0  0  0  1  0  0  0  0  0  0
  190.9590  173.8390  136.2900 S   0  0  0  0  0  0  0  0  0  0  0  0
  191.6120  172.7160  135.0210 C   0  0  0  0  0  2  0  0  0  0  0  0
  192.9680  173.2160  134.5610 C   0  0  0  0  0  1  0  0  0  0  0  0
  192.9490  172.0970  141.3530 C   0  0  0  0  0  2  0  0  0  0  0  0
  194.3950  171.7500  141.0120 C   0  0  0  0  0  2  0  0  0  0  0  0
  195.0560  171.0270  142.1750 C   0  0  0  0  0  2  0  0  0  0  0  0
  196.4230  171.5740  142.3890 C   0  0  0  0  0  0  0  0  0  0  0  0
  197.3290  170.8270  142.8640 O   0  0  0  0  0  0  0  0  0  0  0  0
  196.7010  172.9300  142.0220 N   0  0  0  0  0  0  0  0  0  0  0  0
  197.8750  174.0640  144.9180 C   0  0  0  0  0  1  0  0  0  0  0  0
  196.8890  175.3500  143.2130 O   0  0  0  0  0  0  0  0  0  0  0  0
  196.7150  173.9000  142.8800 C   0  0  0  0  0  0  0  0  0  0  0  0
  196.6110  174.4010  144.1590 C   0  0  1  0  0  3  0  0  0  0  0  0
  192.4970  177.8090  148.8730 O   0  0  0  0  0  0  0  0  0  0  0  0
  191.3130  177.8250  149.6130 C   0  0  1  0  0  3  0  0  0  0  0  0
  191.6270  178.0900  151.0120 N   0  0  0  0  0  1  0  0  0  0  0  0
  190.4680  178.8260  149.1350 O   0  0  0  0  0  1  0  0  0  0  0  0
  1 12  1  0  0  0  0
  2 13  2  0  0  0  0
  2  6  2  0  0  0  0
  3  5  1  0  0  0  0
  4  9  1  0  0  0  0
  5  7  1  1  0  0  0
  5  1  1  0  0  0  0
  6  3  1  0  0  0  0
  7  8  1  0  0  0  0
  8 14  1  0  0  0  0
  9 10  2  0  0  0  0
  9  5  1  0  0  0  0
 11 37  1  6  0  0  0
 11  4  1  0  0  0  0
 11  6  1  0  0  0  0
 14 12  1  0  0  0  0
 14 65  1  1  0  0  0
 15 20  1  0  0  0  0
 17 13  1  6  0  0  0
 17 20  1  0  0  0  0
 18 15  1  1  0  0  0
 19 22  1  6  0  0  0
 19 17  1  0  0  0  0
 20 16  2  0  0  0  0
 21 22  1  6  0  0  0
 21 19  1  0  0  0  0
 21 18  1  0  0  0  0
 23 24  1  6  0  0  0
 23 21  1  0  0  0  0
 23 18  1  0  0  0  0
 25 26  1  0  0  0  0
 25 24  1  0  0  0  0
 27 32  1  1  0  0  0
 28 30  1  0  0  0  0
 30 29  1  6  0  0  0
 30 31  1  0  0  0  0
 30 27  1  0  0  0  0
 31 26  1  6  0  0  0
 31 27  1  0  0  0  0
 32 33  1  0  0  0  0
 33 35  2  0  0  0  0
 33 34  1  0  0  0  0
 37 36  1  1  0  0  0
 39 38  1  1  0  0  0
 39 37  1  0  0  0  0
 40 39  1  0  0  0  0
 40 46  2  1  0  0  0
 42 40  1  0  0  0  0
 43 41  1  6  0  0  0
 43 42  1  0  0  0  0
 44 40  1  0  0  0  0
 44 55  1  1  0  0  0
 45 47  1  0  0  0  0
 45 43  1  0  0  0  0
 47 50  1  1  0  0  0
 47 48  1  0  0  0  0
 48 44  1  0  0  0  0
 49 50  2  0  0  0  0
 50 51  1  0  0  0  0
 52 45  1  0  0  0  0
 53 52  1  0  0  0  0
 54 53  1  0  0  0  0
 56 55  1  0  0  0  0
 56 57  1  0  0  0  0
 57 58  1  0  0  0  0
 58 59  2  0  0  0  0
 60 58  1  0  0  0  0
 60 63  2  0  0  0  0
 62 64  1  0  0  0  0
 63 62  1  0  0  0  0
 63 64  1  0  0  0  0
 64 61  1  1  0  0  0
 65 66  1  0  0  0  0
 66 68  1  6  0  0  0
 66 67  1  0  0  0  0
M  END
>  <MODEL>
1

>  <REMARK>
 VINA RESULT:      -6.3      0.000      0.000
  Name = 
  20 active torsions:
  status: ('A' for Active; 'I' for Inactive)
    1  A    between atoms: N_1  and  C_10
    2  A    between atoms: O_2  and  C_44
    3  A    between atoms: O_2  and  C_68
    4  A    between atoms: P_4  and  C_65
    5  A    between atoms: C_5  and  C_15
    6  A    between atoms: C_7  and  C_28
    7  A    between atoms: C_7  and  C_38
    8  A    between atoms: C_9  and  C_64
    9  A    between atoms: C_10  and  C_20
   10  A    between atoms: O_11  and  C_44
   11  A    between atoms: O_11  and  C_62
   12  A    between atoms: C_14  and  O_42
   13  A    between atoms: C_15  and  C_27
   14  A    between atoms: C_16  and  S_32
   15  A    between atoms: C_20  and  C_28
   16  A    between atoms: S_32  and  N_43
   17  A    between atoms: O_42  and  C_66
   18  A    between atoms: C_47  and  C_59
   19  A    between atoms: C_47  and  C_65
   20  A    between atoms: C_49  and  C_52
                            x       y       z     vdW  Elec       q    Type
                         _______ _______ _______ _____ _____    ______ ____

>  <TORSDO>
F 20

$$$$
=
 OpenBabel11062421063D

 68 75  0  0  1  0  0  0  0  0999 V2000
  191.5920  174.1840  146.3260 C   0  0  0  0  0  2  0  0  0  0  0  0
  190.3760  176.3250  143.0920 C   0  0  0  0  0  0  0  0  0  0  0  0
  192.1220  175.6800  144.4930 O   0  0  0  0  0  0  0  0  0  0  0  0
  192.4350  173.3020  143.1950 O   0  0  0  0  0  0  0  0  0  0  0  0
  192.6660  174.6390  145.3110 C   0  0  1  0  0  0  0  0  0  0  0  0
  191.2670  175.4200  143.4260 C   0  0  0  0  0  0  0  0  0  0  0  0
  193.9000  175.1700  146.0480 C   0  0  0  0  0  2  0  0  0  0  0  0
  193.5800  176.3520  146.9780 C   0  0  0  0  0  2  0  0  0  0  0  0
  193.0450  173.4660  144.4410 C   0  0  0  0  0  0  0  0  0  0  0  0
  193.8960  172.6210  144.8310 O   0  0  0  0  0  0  0  0  0  0  0  0
  191.3080  174.0660  142.7700 C   0  0  1  0  0  3  0  0  0  0  0  0
  191.5500  175.0040  147.6290 C   0  0  0  0  0  2  0  0  0  0  0  0
  189.4840  177.2490  142.7980 C   0  0  0  0  0  3  0  0  0  0  0  0
  192.1060  176.4050  147.4090 C   0  0  1  0  0  3  0  0  0  0  0  0
  185.9430  176.4100  143.8790 S   0  0  0  0  0  0  0  0  0  0  0  0
  187.5410  174.7560  142.6330 O   0  0  0  0  0  0  0  0  0  0  0  0
  188.1530  176.9850  142.1260 C   0  0  2  0  0  3  0  0  0  0  0  0
  185.2590  177.0630  142.3550 C   0  0  2  0  0  3  0  0  0  0  0  0
  187.4540  178.3560  141.9250 C   0  0  2  0  0  3  0  0  0  0  0  0
  187.3280  175.9340  142.8450 C   0  0  0  0  0  0  0  0  0  0  0  0
  185.9910  178.3690  142.1860 C   0  0  1  0  0  0  0  0  0  0  0  0
  186.4820  178.3530  140.8730 O   0  0  0  0  0  0  0  0  0  0  0  0
  184.5010  178.3800  142.4550 C   0  0  1  0  0  3  0  0  0  0  0  0
  183.7530  178.5770  141.2880 O   0  0  0  0  0  0  0  0  0  0  0  0
  182.3870  178.4910  141.6100 C   0  0  0  0  0  2  0  0  0  0  0  0
  181.5470  178.8210  140.5230 O   0  0  0  0  0  0  0  0  0  0  0  0
  179.6260  180.0710  139.9240 C   0  0  2  0  0  3  0  0  0  0  0  0
  179.1480  177.6490  140.3180 N   0  0  0  0  0  1  0  0  0  0  0  0
  178.1400  179.2950  141.9750 C   0  0  0  0  0  1  0  0  0  0  0  0
  179.1550  178.9910  140.8780 C   0  0  2  0  0  0  0  0  0  0  0  0
  180.5280  179.6130  141.0680 C   0  0  1  0  0  3  0  0  0  0  0  0
  179.0500  181.4440  140.2540 C   0  0  0  0  0  2  0  0  0  0  0  0
  179.1440  182.3200  139.0530 C   0  0  0  0  0  0  0  0  0  0  0  0
  179.0800  181.7710  137.7790 O   0  0  0  0  0  0  0  0  0  0  0  0
  179.2950  183.5610  139.2000 O   0  0  0  0  0  1  0  0  0  0  0  0
  190.1950  173.0880  140.7150 C   0  0  0  0  0  1  0  0  0  0  0  0
  191.1980  174.1000  141.2400 C   0  0  2  0  0  3  0  0  0  0  0  0
  193.5320  175.1020  140.9490 C   0  0  0  0  0  1  0  0  0  0  0  0
  192.4880  174.1490  140.4010 C   0  0  1  0  0  3  0  0  0  0  0  0
  193.1950  172.5400  139.8380 P   0  0  1  0  0  0  0  0  0  0  0  0
  192.2830  174.0430  136.6190 C   0  0  0  0  0  1  0  0  0  0  0  0
  192.9530  172.3770  138.1670 O   0  0  0  0  0  0  0  0  0  0  0  0
  193.3660  173.5830  137.5910 C   0  0  1  0  0  3  0  0  0  0  0  0
  194.9940  172.4020  140.1490 C   0  0  1  0  0  3  0  0  0  0  0  0
  194.6430  173.4080  136.8800 N   0  0  0  0  0  0  0  0  0  0  0  0
  192.4920  171.3870  140.5110 O   0  0  0  0  0  0  0  0  0  0  0  0
  195.7070  172.8260  137.7110 C   0  0  1  0  0  3  0  0  0  0  0  0
  195.7730  173.2940  139.1800 C   0  0  0  0  0  2  0  0  0  0  0  0
  196.9760  170.7150  138.1070 O   0  0  0  0  0  1  0  0  0  0  0  0
  195.9440  171.3670  137.4480 C   0  0  0  0  0  0  0  0  0  0  0  0
  195.2280  170.7250  136.6330 O   0  0  0  0  0  0  0  0  0  0  0  0
  195.2240  175.0090  136.3910 S   0  0  0  0  0  0  0  0  0  0  0  0
  196.6960  174.3020  135.5970 C   0  0  0  0  0  2  0  0  0  0  0  0
  197.8660  175.2510  135.7780 C   0  0  0  0  0  1  0  0  0  0  0  0
  195.3000  172.7110  141.6200 C   0  0  0  0  0  2  0  0  0  0  0  0
  196.7930  172.7060  141.9330 C   0  0  0  0  0  2  0  0  0  0  0  0
  197.0690  171.9080  143.1970 C   0  0  0  0  0  2  0  0  0  0  0  0
  196.7140  170.4810  142.9730 C   0  0  0  0  0  0  0  0  0  0  0  0
  197.0230  169.9230  141.8780 O   0  0  0  0  0  0  0  0  0  0  0  0
  196.0580  169.7500  144.0150 N   0  0  0  0  0  0  0  0  0  0  0  0
  193.6380  168.3090  142.2480 C   0  0  0  0  0  1  0  0  0  0  0  0
  193.5970  168.7650  144.5550 O   0  0  0  0  0  0  0  0  0  0  0  0
  194.8070  169.4200  143.9590 C   0  0  0  0  0  0  0  0  0  0  0  0
  193.5840  169.3680  143.3270 C   0  0  1  0  0  3  0  0  0  0  0  0
  191.9770  177.1750  148.5690 O   0  0  0  0  0  0  0  0  0  0  0  0
  191.0510  178.1730  148.2580 C   0  0  1  0  0  3  0  0  0  0  0  0
  189.9930  177.6040  147.4320 N   0  0  0  0  0  1  0  0  0  0  0  0
  190.4930  178.6840  149.4290 O   0  0  0  0  0  1  0  0  0  0  0  0
  1 12  1  0  0  0  0
  2  6  2  0  0  0  0
  3  5  1  0  0  0  0
  4  9  1  0  0  0  0
  5  7  1  1  0  0  0
  5  1  1  0  0  0  0
  6  3  1  0  0  0  0
  7  8  1  0  0  0  0
  8 14  1  0  0  0  0
  9 10  2  0  0  0  0
  9  5  1  0  0  0  0
 11 37  1  6  0  0  0
 11  4  1  0  0  0  0
 11  6  1  0  0  0  0
 13  2  2  0  0  0  0
 14 12  1  0  0  0  0
 14 65  1  1  0  0  0
 16 20  2  0  0  0  0
 17 13  1  1  0  0  0
 17 20  1  0  0  0  0
 18 23  1  0  0  0  0
 18 15  1  1  0  0  0
 19 22  1  6  0  0  0
 19 17  1  0  0  0  0
 19 21  1  0  0  0  0
 20 15  1  0  0  0  0
 21 22  1  6  0  0  0
 21 18  1  0  0  0  0
 21 23  1  0  0  0  0
 23 24  1  6  0  0  0
 24 25  1  0  0  0  0
 26 25  1  0  0  0  0
 27 32  1  1  0  0  0
 27 30  1  0  0  0  0
 27 31  1  0  0  0  0
 28 30  1  0  0  0  0
 30 31  1  0  0  0  0
 30 29  1  1  0  0  0
 31 26  1  6  0  0  0
 33 35  1  0  0  0  0
 33 32  1  0  0  0  0
 34 33  2  0  0  0  0
 37 36  1  6  0  0  0
 39 38  1  1  0  0  0
 39 37  1  0  0  0  0
 40 44  1  0  0  0  0
 40 39  1  0  0  0  0
 40 46  2  1  0  0  0
 42 40  1  0  0  0  0
 43 41  1  6  0  0  0
 43 42  1  0  0  0  0
 44 55  1  1  0  0  0
 45 43  1  0  0  0  0
 45 47  1  0  0  0  0
 47 50  1  1  0  0  0
 47 48  1  0  0  0  0
 48 44  1  0  0  0  0
 50 49  1  0  0  0  0
 51 50  2  0  0  0  0
 52 45  1  0  0  0  0
 53 54  1  0  0  0  0
 53 52  1  0  0  0  0
 55 56  1  0  0  0  0
 56 57  1  0  0  0  0
 58 57  1  0  0  0  0
 58 60  1  0  0  0  0
 59 58  2  0  0  0  0
 63 60  2  0  0  0  0
 63 62  1  0  0  0  0
 64 61  1  6  0  0  0
 64 63  1  0  0  0  0
 64 62  1  0  0  0  0
 66 67  1  6  0  0  0
 66 65  1  0  0  0  0
 66 68  1  0  0  0  0
M  END
>  <MODEL>
2

>  <REMARK>
 VINA RESULT:      -5.5      2.502      3.501
  Name = 
  20 active torsions:
  status: ('A' for Active; 'I' for Inactive)
    1  A    between atoms: N_1  and  C_10
    2  A    between atoms: O_2  and  C_44
    3  A    between atoms: O_2  and  C_68
    4  A    between atoms: P_4  and  C_65
    5  A    between atoms: C_5  and  C_15
    6  A    between atoms: C_7  and  C_28
    7  A    between atoms: C_7  and  C_38
    8  A    between atoms: C_9  and  C_64
    9  A    between atoms: C_10  and  C_20
   10  A    between atoms: O_11  and  C_44
   11  A    between atoms: O_11  and  C_62
   12  A    between atoms: C_14  and  O_42
   13  A    between atoms: C_15  and  C_27
   14  A    between atoms: C_16  and  S_32
   15  A    between atoms: C_20  and  C_28
   16  A    between atoms: S_32  and  N_43
   17  A    between atoms: O_42  and  C_66
   18  A    between atoms: C_47  and  C_59
   19  A    between atoms: C_47  and  C_65
   20  A    between atoms: C_49  and  C_52
                            x       y       z     vdW  Elec       q    Type
                         _______ _______ _______ _____ _____    ______ ____

>  <TORSDO>
F 20

$$$$
=
 OpenBabel11062421063D

 68 75  0  0  1  0  0  0  0  0999 V2000
  187.1700  178.7440  142.5970 C   0  0  0  0  0  2  0  0  0  0  0  0
  189.3850  176.0940  144.7410 C   0  0  0  0  0  0  0  0  0  0  0  0
  187.4400  176.5230  143.5310 O   0  0  0  0  0  0  0  0  0  0  0  0
  188.7030  176.1310  141.1460 O   0  0  0  0  0  0  0  0  0  0  0  0
  186.8550  177.2400  142.4380 C   0  0  1  0  0  0  0  0  0  0  0  0
  188.7940  176.2040  143.5720 C   0  0  0  0  0  0  0  0  0  0  0  0
  185.3400  177.0120  142.4420 C   0  0  0  0  0  2  0  0  0  0  0  0
  184.6610  177.5160  143.7260 C   0  0  0  0  0  2  0  0  0  0  0  0
  187.4510  176.7490  141.1420 C   0  0  0  0  0  0  0  0  0  0  0  0
  186.8380  176.9030  140.0500 O   0  0  0  0  0  0  0  0  0  0  0  0
  189.5650  176.1170  142.2820 C   0  0  1  0  0  3  0  0  0  0  0  0
  186.1680  179.5220  143.4710 C   0  0  0  0  0  2  0  0  0  0  0  0
  189.9450  176.0100  145.9300 C   0  0  0  0  0  3  0  0  0  0  0  0
  185.4730  178.5950  144.4590 C   0  0  1  0  0  3  0  0  0  0  0  0
  193.1670  174.0080  145.7750 S   0  0  0  0  0  0  0  0  0  0  0  0
  192.0280  174.8100  147.9890 O   0  0  0  0  0  0  0  0  0  0  0  0
  191.4140  176.2490  146.2140 C   0  0  2  0  0  3  0  0  0  0  0  0
  194.1540  175.4970  145.6200 C   0  0  2  0  0  3  0  0  0  0  0  0
  192.0500  176.8200  144.9180 C   0  0  2  0  0  3  0  0  0  0  0  0
  192.1070  175.0320  146.7960 C   0  0  0  0  0  0  0  0  0  0  0  0
  193.4020  176.2980  144.5900 C   0  0  1  0  0  0  0  0  0  0  0  0
  193.2450  177.5740  145.1520 O   0  0  0  0  0  0  0  0  0  0  0  0
  194.7790  175.7630  144.2560 C   0  0  1  0  0  3  0  0  0  0  0  0
  195.7720  176.7420  144.3820 O   0  0  0  0  0  0  0  0  0  0  0  0
  196.8130  176.4440  143.4850 C   0  0  0  0  0  2  0  0  0  0  0  0
  196.4820  176.7380  142.1440 O   0  0  0  0  0  0  0  0  0  0  0  0
  196.5460  174.4400  141.5720 C   0  0  2  0  0  3  0  0  0  0  0  0
  195.0100  175.7790  140.1230 N   0  0  0  0  0  1  0  0  0  0  0  0
  197.0780  174.8090  139.0030 C   0  0  0  0  0  1  0  0  0  0  0  0
  196.3350  175.1990  140.2770 C   0  0  2  0  0  0  0  0  0  0  0  0
  197.1920  175.8100  141.3730 C   0  0  1  0  0  3  0  0  0  0  0  0
  197.6130  173.3570  141.4560 C   0  0  0  0  0  2  0  0  0  0  0  0
  197.2060  172.1750  142.2650 C   0  0  0  0  0  0  0  0  0  0  0  0
  196.2550  172.3060  143.2670 O   0  0  0  0  0  1  0  0  0  0  0  0
  197.7430  171.0580  142.0450 O   0  0  0  0  0  0  0  0  0  0  0  0
  191.9750  175.3860  142.5610 C   0  0  0  0  0  1  0  0  0  0  0  0
  190.5610  174.9520  142.2170 C   0  0  2  0  0  3  0  0  0  0  0  0
  191.6970  174.1300  140.0790 C   0  0  0  0  0  1  0  0  0  0  0  0
  190.5110  173.9940  141.0130 C   0  0  1  0  0  3  0  0  0  0  0  0
  190.0410  172.2400  141.3430 P   0  0  1  0  0  0  0  0  0  0  0  0
  188.9700  172.5830  137.8520 C   0  0  0  0  0  1  0  0  0  0  0  0
  189.1830  171.6310  140.0120 O   0  0  0  0  0  0  0  0  0  0  0  0
  189.9230  171.9750  138.8760 C   0  0  1  0  0  3  0  0  0  0  0  0
  191.4880  171.1510  141.6090 C   0  0  1  0  0  3  0  0  0  0  0  0
  190.5850  170.7870  138.3110 N   0  0  0  0  0  0  0  0  0  0  0  0
  189.1340  172.1510  142.5450 O   0  0  0  0  0  0  0  0  0  0  0  0
  191.4110  170.0520  139.2800 C   0  0  1  0  0  3  0  0  0  0  0  0
  192.2170  170.9000  140.2860 C   0  0  0  0  0  2  0  0  0  0  0  0
  189.7910  168.1700  139.0410 O   0  0  0  0  0  0  0  0  0  0  0  0
  190.7550  168.8090  139.8070 C   0  0  0  0  0  0  0  0  0  0  0  0
  191.0590  168.3380  140.9360 O   0  0  0  0  0  1  0  0  0  0  0  0
  191.6900  171.3290  137.0370 S   0  0  0  0  0  0  0  0  0  0  0  0
  190.8070  170.3690  135.7740 C   0  0  0  0  0  2  0  0  0  0  0  0
  191.5810  169.0980  135.4810 C   0  0  0  0  0  1  0  0  0  0  0  0
  192.4020  171.7420  142.6900 C   0  0  0  0  0  2  0  0  0  0  0  0
  192.2590  171.0450  144.0390 C   0  0  0  0  0  2  0  0  0  0  0  0
  192.7580  169.6110  143.9520 C   0  0  0  0  0  2  0  0  0  0  0  0
  194.2020  169.5640  144.3050 C   0  0  0  0  0  0  0  0  0  0  0  0
  195.0450  169.1750  143.4420 O   0  0  0  0  0  0  0  0  0  0  0  0
  194.6200  169.9930  145.6060 N   0  0  0  0  0  0  0  0  0  0  0  0
  197.9070  169.5970  145.2940 C   0  0  0  0  0  1  0  0  0  0  0  0
  196.6840  169.5830  147.3040 O   0  0  0  0  0  0  0  0  0  0  0  0
  195.7200  169.5880  146.1570 C   0  0  0  0  0  0  0  0  0  0  0  0
  196.8960  168.8710  146.1540 C   0  0  1  0  0  3  0  0  0  0  0  0
  184.6370  179.3210  145.3140 O   0  0  0  0  0  0  0  0  0  0  0  0
  184.5750  178.5850  146.4980 C   0  0  1  0  0  3  0  0  0  0  0  0
  185.4750  177.4420  146.3980 N   0  0  0  0  0  1  0  0  0  0  0  0
  184.9650  179.3820  147.5740 O   0  0  0  0  0  1  0  0  0  0  0  0
  1 12  1  0  0  0  0
  2 13  2  0  0  0  0
  3  6  1  0  0  0  0
  4 11  1  0  0  0  0
  5  7  1  6  0  0  0
  5  1  1  0  0  0  0
  5  3  1  0  0  0  0
  6  2  2  0  0  0  0
  7  8  1  0  0  0  0
  8 14  1  0  0  0  0
  9  4  1  0  0  0  0
  9  5  1  0  0  0  0
 10  9  2  0  0  0  0
 11 37  1  1  0  0  0
 11  6  1  0  0  0  0
 12 14  1  0  0  0  0
 14 65  1  1  0  0  0
 15 20  1  0  0  0  0
 17 13  1  6  0  0  0
 17 20  1  0  0  0  0
 18 15  1  6  0  0  0
 19 22  1  1  0  0  0
 19 17  1  0  0  0  0
 20 16  2  0  0  0  0
 21 19  1  0  0  0  0
 21 22  1  1  0  0  0
 21 18  1  0  0  0  0
 23 24  1  1  0  0  0
 23 21  1  0  0  0  0
 23 18  1  0  0  0  0
 25 24  1  0  0  0  0
 26 25  1  0  0  0  0
 27 32  1  6  0  0  0
 28 30  1  0  0  0  0
 30 29  1  6  0  0  0
 30 31  1  0  0  0  0
 30 27  1  0  0  0  0
 31 27  1  0  0  0  0
 31 26  1  1  0  0  0
 32 33  1  0  0  0  0
 33 34  1  0  0  0  0
 35 33  2  0  0  0  0
 37 36  1  6  0  0  0
 39 38  1  1  0  0  0
 39 40  1  0  0  0  0
 39 37  1  0  0  0  0
 40 44  1  0  0  0  0
 40 46  2  1  0  0  0
 42 40  1  0  0  0  0
 43 41  1  6  0  0  0
 43 42  1  0  0  0  0
 44 55  1  1  0  0  0
 45 43  1  0  0  0  0
 45 47  1  0  0  0  0
 47 50  1  1  0  0  0
 47 48  1  0  0  0  0
 48 44  1  0  0  0  0
 49 50  2  0  0  0  0
 50 51  1  0  0  0  0
 52 45  1  0  0  0  0
 53 52  1  0  0  0  0
 54 53  1  0  0  0  0
 55 56  1  0  0  0  0
 57 56  1  0  0  0  0
 57 58  1  0  0  0  0
 58 60  1  0  0  0  0
 59 58  2  0  0  0  0
 60 63  2  0  0  0  0
 63 62  1  0  0  0  0
 64 61  1  6  0  0  0
 64 63  1  0  0  0  0
 64 62  1  0  0  0  0
 65 66  1  0  0  0  0
 66 67  1  6  0  0  0
 66 68  1  0  0  0  0
M  END
>  <MODEL>
3

>  <REMARK>
 VINA RESULT:      -5.5      3.607      9.088
  Name = 
  20 active torsions:
  status: ('A' for Active; 'I' for Inactive)
    1  A    between atoms: N_1  and  C_10
    2  A    between atoms: O_2  and  C_44
    3  A    between atoms: O_2  and  C_68
    4  A    between atoms: P_4  and  C_65
    5  A    between atoms: C_5  and  C_15
    6  A    between atoms: C_7  and  C_28
    7  A    between atoms: C_7  and  C_38
    8  A    between atoms: C_9  and  C_64
    9  A    between atoms: C_10  and  C_20
   10  A    between atoms: O_11  and  C_44
   11  A    between atoms: O_11  and  C_62
   12  A    between atoms: C_14  and  O_42
   13  A    between atoms: C_15  and  C_27
   14  A    between atoms: C_16  and  S_32
   15  A    between atoms: C_20  and  C_28
   16  A    between atoms: S_32  and  N_43
   17  A    between atoms: O_42  and  C_66
   18  A    between atoms: C_47  and  C_59
   19  A    between atoms: C_47  and  C_65
   20  A    between atoms: C_49  and  C_52
                            x       y       z     vdW  Elec       q    Type
                         _______ _______ _______ _____ _____    ______ ____

>  <TORSDO>
F 20

$$$$
=
 OpenBabel11062421063D

 68 75  0  0  1  0  0  0  0  0999 V2000
  191.4390  174.2290  145.9460 C   0  0  0  0  0  2  0  0  0  0  0  0
  189.9620  176.1580  142.6870 C   0  0  0  0  0  0  0  0  0  0  0  0
  191.8280  175.4960  143.9160 O   0  0  0  0  0  0  0  0  0  0  0  0
  191.7860  172.9890  142.8430 O   0  0  0  0  0  0  0  0  0  0  0  0
  192.3970  174.4920  144.7630 C   0  0  1  0  0  0  0  0  0  0  0  0
  190.8210  175.2130  142.9980 C   0  0  0  0  0  0  0  0  0  0  0  0
  193.7550  174.9800  145.2790 C   0  0  0  0  0  2  0  0  0  0  0  0
  193.6520  176.2670  146.1140 C   0  0  0  0  0  2  0  0  0  0  0  0
  192.5670  173.2150  143.9780 C   0  0  0  0  0  0  0  0  0  0  0  0
  193.3980  172.3390  144.3430 O   0  0  0  0  0  0  0  0  0  0  0  0
  190.6720  173.8060  142.4860 C   0  0  1  0  0  3  0  0  0  0  0  0
  191.6330  175.1690  147.1520 C   0  0  0  0  0  2  0  0  0  0  0  0
  189.1100  177.1250  142.4130 C   0  0  0  0  0  3  0  0  0  0  0  0
  192.2570  176.4890  146.7190 C   0  0  1  0  0  3  0  0  0  0  0  0
  185.6660  176.9290  143.9970 S   0  0  0  0  0  0  0  0  0  0  0  0
  186.9160  174.9010  142.9170 O   0  0  0  0  0  0  0  0  0  0  0  0
  187.6850  176.9170  141.9450 C   0  0  2  0  0  3  0  0  0  0  0  0
  184.8670  177.3910  142.4600 C   0  0  2  0  0  3  0  0  0  0  0  0
  187.1110  178.3090  141.5700 C   0  0  2  0  0  3  0  0  0  0  0  0
  186.8530  176.1150  142.9290 C   0  0  0  0  0  0  0  0  0  0  0  0
  185.7020  178.5470  141.9770 C   0  0  1  0  0  0  0  0  0  0  0  0
  186.0200  178.2470  140.6440 O   0  0  0  0  0  0  0  0  0  0  0  0
  184.2670  178.7890  142.3950 C   0  0  1  0  0  3  0  0  0  0  0  0
  183.4030  178.8750  141.2970 O   0  0  0  0  0  0  0  0  0  0  0  0
  182.1970  178.2280  141.6220 C   0  0  0  0  0  2  0  0  0  0  0  0
  181.2010  178.3970  140.6350 O   0  0  0  0  0  0  0  0  0  0  0  0
  179.1410  179.4780  140.1880 C   0  0  2  0  0  3  0  0  0  0  0  0
  178.8740  177.2640  141.3170 N   0  0  0  0  0  1  0  0  0  0  0  0
  178.2030  179.3180  142.6600 C   0  0  0  0  0  1  0  0  0  0  0  0
  178.9500  178.7070  141.4790 C   0  0  2  0  0  0  0  0  0  0  0  0
  180.3020  179.3280  141.1690 C   0  0  1  0  0  3  0  0  0  0  0  0
  178.5980  180.9000  140.2620 C   0  0  0  0  0  2  0  0  0  0  0  0
  178.9060  181.6140  138.9920 C   0  0  0  0  0  0  0  0  0  0  0  0
  179.8160  182.6610  138.9810 O   0  0  0  0  0  1  0  0  0  0  0  0
  178.3240  181.2700  137.9300 O   0  0  0  0  0  0  0  0  0  0  0  0
  188.9940  173.0970  140.7240 C   0  0  0  0  0  1  0  0  0  0  0  0
  190.3600  173.7070  140.9870 C   0  0  2  0  0  3  0  0  0  0  0  0
  192.8170  173.7630  140.2800 C   0  0  0  0  0  1  0  0  0  0  0  0
  191.4440  173.1690  140.0350 C   0  0  1  0  0  3  0  0  0  0  0  0
  191.4820  171.3480  139.7360 P   0  0  1  0  0  0  0  0  0  0  0  0
  189.3710  172.4500  136.9460 C   0  0  0  0  0  1  0  0  0  0  0  0
  190.4180  170.9670  138.4710 O   0  0  0  0  0  0  0  0  0  0  0  0
  190.6940  171.8700  137.4390 C   0  0  1  0  0  3  0  0  0  0  0  0
  193.1410  170.7370  139.2610 C   0  0  1  0  0  3  0  0  0  0  0  0
  191.3950  171.1960  136.3340 N   0  0  0  0  0  0  0  0  0  0  0  0
  191.0170  170.6000  140.9600 O   0  0  0  0  0  0  0  0  0  0  0  0
  192.6100  170.4820  136.7530 C   0  0  1  0  0  3  0  0  0  0  0  0
  193.4780  171.1650  137.8300 C   0  0  0  0  0  2  0  0  0  0  0  0
  191.3850  168.4970  137.6360 O   0  0  0  0  0  1  0  0  0  0  0  0
  192.4240  168.9970  136.8670 C   0  0  0  0  0  0  0  0  0  0  0  0
  193.2020  168.1940  136.2830 O   0  0  0  0  0  0  0  0  0  0  0  0
  191.9270  172.4340  135.1840 S   0  0  0  0  0  0  0  0  0  0  0  0
  192.0590  173.6850  136.4940 C   0  0  0  0  0  2  0  0  0  0  0  0
  193.2460  174.5850  136.2080 C   0  0  0  0  0  1  0  0  0  0  0  0
  194.1870  171.1990  140.2830 C   0  0  0  0  0  2  0  0  0  0  0  0
  195.5540  170.5560  140.0720 C   0  0  0  0  0  2  0  0  0  0  0  0
  196.6490  171.4290  140.6630 C   0  0  0  0  0  2  0  0  0  0  0  0
  197.2430  172.2760  139.5930 C   0  0  0  0  0  0  0  0  0  0  0  0
  197.0980  171.9440  138.3790 O   0  0  0  0  0  0  0  0  0  0  0  0
  197.9400  173.4740  139.9540 N   0  0  0  0  0  0  0  0  0  0  0  0
  195.8970  174.6200  142.3130 C   0  0  0  0  0  1  0  0  0  0  0  0
  197.3810  175.8990  141.0100 O   0  0  0  0  0  0  0  0  0  0  0  0
  197.3450  174.5040  140.4640 C   0  0  0  0  0  0  0  0  0  0  0  0
  196.2310  175.1600  140.9410 C   0  0  1  0  0  3  0  0  0  0  0  0
  192.3420  177.3720  147.8000 O   0  0  0  0  0  0  0  0  0  0  0  0
  191.0890  177.3410  148.4130 C   0  0  1  0  0  3  0  0  0  0  0  0
  191.1610  178.0470  149.6870 N   0  0  0  0  0  1  0  0  0  0  0  0
  190.1440  177.9630  147.5980 O   0  0  0  0  0  1  0  0  0  0  0  0
  1 12  1  0  0  0  0
  2  6  2  0  0  0  0
  3  5  1  0  0  0  0
  4  9  1  0  0  0  0
  5  7  1  1  0  0  0
  5  1  1  0  0  0  0
  6  3  1  0  0  0  0
  7  8  1  0  0  0  0
  8 14  1  0  0  0  0
  9 10  2  0  0  0  0
  9  5  1  0  0  0  0
 11 37  1  6  0  0  0
 11  4  1  0  0  0  0
 11  6  1  0  0  0  0
 13  2  2  0  0  0  0
 14 12  1  0  0  0  0
 14 65  1  1  0  0  0
 16 20  2  0  0  0  0
 17 13  1  1  0  0  0
 17 20  1  0  0  0  0
 18 15  1  1  0  0  0
 19 22  1  6  0  0  0
 19 17  1  0  0  0  0
 19 21  1  0  0  0  0
 20 15  1  0  0  0  0
 21 22  1  6  0  0  0
 21 23  1  0  0  0  0
 21 18  1  0  0  0  0
 23 24  1  6  0  0  0
 23 18  1  0  0  0  0
 24 25  1  0  0  0  0
 26 25  1  0  0  0  0
 27 32  1  1  0  0  0
 27 31  1  0  0  0  0
 27 30  1  0  0  0  0
 28 30  1  0  0  0  0
 30 29  1  1  0  0  0
 31 26  1  6  0  0  0
 31 30  1  0  0  0  0
 33 32  1  0  0  0  0
 34 33  1  0  0  0  0
 35 33  2  0  0  0  0
 37 36  1  1  0  0  0
 39 38  1  1  0  0  0
 39 37  1  0  0  0  0
 40 39  1  0  0  0  0
 40 46  2  1  0  0  0
 42 40  1  0  0  0  0
 43 41  1  6  0  0  0
 43 42  1  0  0  0  0
 44 40  1  0  0  0  0
 44 55  1  1  0  0  0
 45 47  1  0  0  0  0
 45 43  1  0  0  0  0
 47 50  1  1  0  0  0
 47 48  1  0  0  0  0
 48 44  1  0  0  0  0
 50 49  1  0  0  0  0
 51 50  2  0  0  0  0
 52 45  1  0  0  0  0
 52 53  1  0  0  0  0
 54 53  1  0  0  0  0
 56 55  1  0  0  0  0
 56 57  1  0  0  0  0
 58 60  1  0  0  0  0
 58 57  1  0  0  0  0
 59 58  2  0  0  0  0
 60 63  2  0  0  0  0
 63 64  1  0  0  0  0
 63 62  1  0  0  0  0
 64 62  1  0  0  0  0
 64 61  1  1  0  0  0
 65 66  1  0  0  0  0
 66 68  1  6  0  0  0
 66 67  1  0  0  0  0
M  END
>  <MODEL>
4

>  <REMARK>
 VINA RESULT:      -5.5      2.011      2.536
  Name = 
  20 active torsions:
  status: ('A' for Active; 'I' for Inactive)
    1  A    between atoms: N_1  and  C_10
    2  A    between atoms: O_2  and  C_44
    3  A    between atoms: O_2  and  C_68
    4  A    between atoms: P_4  and  C_65
    5  A    between atoms: C_5  and  C_15
    6  A    between atoms: C_7  and  C_28
    7  A    between atoms: C_7  and  C_38
    8  A    between atoms: C_9  and  C_64
    9  A    between atoms: C_10  and  C_20
   10  A    between atoms: O_11  and  C_44
   11  A    between atoms: O_11  and  C_62
   12  A    between atoms: C_14  and  O_42
   13  A    between atoms: C_15  and  C_27
   14  A    between atoms: C_16  and  S_32
   15  A    between atoms: C_20  and  C_28
   16  A    between atoms: S_32  and  N_43
   17  A    between atoms: O_42  and  C_66
   18  A    between atoms: C_47  and  C_59
   19  A    between atoms: C_47  and  C_65
   20  A    between atoms: C_49  and  C_52
                            x       y       z     vdW  Elec       q    Type
                         _______ _______ _______ _____ _____    ______ ____

>  <TORSDO>
F 20

$$$$
=
 OpenBabel11062421063D

 68 75  0  0  1  0  0  0  0  0999 V2000
  191.7680  174.0310  145.5890 C   0  0  0  0  0  2  0  0  0  0  0  0
  190.0260  175.9640  142.4660 C   0  0  0  0  0  0  0  0  0  0  0  0
  191.9850  175.3620  143.5740 O   0  0  0  0  0  0  0  0  0  0  0  0
  191.9970  172.8810  142.4400 O   0  0  0  0  0  0  0  0  0  0  0  0
  192.6460  174.3660  144.3620 C   0  0  1  0  0  0  0  0  0  0  0  0
  190.9430  175.0540  142.7050 C   0  0  0  0  0  0  0  0  0  0  0  0
  194.0070  174.9040  144.8150 C   0  0  0  0  0  2  0  0  0  0  0  0
  193.8930  176.1650  145.6870 C   0  0  0  0  0  2  0  0  0  0  0  0
  192.8300  173.1160  143.5360 C   0  0  0  0  0  0  0  0  0  0  0  0
  193.7180  172.2720  143.8330 O   0  0  0  0  0  0  0  0  0  0  0  0
  190.8290  173.6530  142.1660 C   0  0  1  0  0  3  0  0  0  0  0  0
  191.9870  174.9500  146.8060 C   0  0  0  0  0  2  0  0  0  0  0  0
  189.1170  176.8970  142.2640 C   0  0  0  0  0  3  0  0  0  0  0  0
  192.5260  176.3080  146.3740 C   0  0  1  0  0  3  0  0  0  0  0  0
  185.7130  177.0040  143.9390 S   0  0  0  0  0  0  0  0  0  0  0  0
  186.9170  174.8120  143.1740 O   0  0  0  0  0  0  0  0  0  0  0  0
  187.6790  176.6330  141.8700 C   0  0  2  0  0  3  0  0  0  0  0  0
  184.8790  177.2200  142.3660 C   0  0  2  0  0  3  0  0  0  0  0  0
  187.1080  177.9530  141.2860 C   0  0  2  0  0  3  0  0  0  0  0  0
  186.8660  176.0120  142.9900 C   0  0  0  0  0  0  0  0  0  0  0  0
  185.7120  178.2720  141.6820 C   0  0  1  0  0  0  0  0  0  0  0  0
  185.9940  177.7550  140.4090 O   0  0  0  0  0  0  0  0  0  0  0  0
  184.2900  178.5970  142.0890 C   0  0  1  0  0  3  0  0  0  0  0  0
  183.3990  178.5140  141.0120 O   0  0  0  0  0  0  0  0  0  0  0  0
  182.1340  178.9570  141.4390 C   0  0  0  0  0  2  0  0  0  0  0  0
  181.1130  178.0120  141.1980 O   0  0  0  0  0  0  0  0  0  0  0  0
  178.9660  177.7470  140.2310 C   0  0  2  0  0  3  0  0  0  0  0  0
  178.8930  178.4800  142.6200 N   0  0  0  0  0  1  0  0  0  0  0  0
  178.0690  180.1510  140.8880 C   0  0  0  0  0  1  0  0  0  0  0  0
  178.8530  178.8860  141.2240 C   0  0  2  0  0  0  0  0  0  0  0  0
  180.1450  178.6930  140.4500 C   0  0  1  0  0  3  0  0  0  0  0  0
  178.3090  178.0610  138.8920 C   0  0  0  0  0  2  0  0  0  0  0  0
  178.3770  176.8600  138.0140 C   0  0  0  0  0  0  0  0  0  0  0  0
  178.4290  177.0040  136.6340 O   0  0  0  0  0  0  0  0  0  0  0  0
  178.3730  175.7120  138.5310 O   0  0  0  0  0  1  0  0  0  0  0  0
  189.2050  172.7180  140.4610 C   0  0  0  0  0  1  0  0  0  0  0  0
  190.4390  173.5740  140.6840 C   0  0  2  0  0  3  0  0  0  0  0  0
  192.7870  174.1510  139.8510 C   0  0  0  0  0  1  0  0  0  0  0  0
  191.5380  173.3180  139.6370 C   0  0  1  0  0  3  0  0  0  0  0  0
  191.9010  171.5610  139.2020 P   0  0  1  0  0  0  0  0  0  0  0  0
  189.2150  172.3110  136.8190 C   0  0  0  0  0  1  0  0  0  0  0  0
  190.7580  171.0180  138.0710 O   0  0  0  0  0  0  0  0  0  0  0  0
  190.6860  172.0040  137.0810 C   0  0  1  0  0  3  0  0  0  0  0  0
  193.5590  171.3370  138.4580 C   0  0  1  0  0  3  0  0  0  0  0  0
  191.3360  171.5420  135.8430 N   0  0  0  0  0  0  0  0  0  0  0  0
  191.7870  170.6780  140.4190 O   0  0  0  0  0  0  0  0  0  0  0  0
  192.7190  171.0850  136.0360 C   0  0  1  0  0  3  0  0  0  0  0  0
  193.5830  171.8890  137.0300 C   0  0  0  0  0  2  0  0  0  0  0  0
  194.1240  169.0260  136.1310 O   0  0  0  0  0  1  0  0  0  0  0  0
  192.8590  169.5900  136.0640 C   0  0  0  0  0  0  0  0  0  0  0  0
  191.8490  168.8380  136.0200 O   0  0  0  0  0  0  0  0  0  0  0  0
  191.4260  172.9140  134.7250 S   0  0  0  0  0  0  0  0  0  0  0  0
  191.5710  174.1000  136.0930 C   0  0  0  0  0  2  0  0  0  0  0  0
  191.1200  175.4680  135.6170 C   0  0  0  0  0  1  0  0  0  0  0  0
  194.6300  171.9660  139.3580 C   0  0  0  0  0  2  0  0  0  0  0  0
  195.8400  172.4740  138.5800 C   0  0  0  0  0  2  0  0  0  0  0  0
  195.8990  173.9930  138.6230 C   0  0  0  0  0  2  0  0  0  0  0  0
  197.3050  174.4420  138.4340 C   0  0  0  0  0  0  0  0  0  0  0  0
  197.9390  174.9420  139.4100 O   0  0  0  0  0  0  0  0  0  0  0  0
  197.9300  174.2690  137.1570 N   0  0  0  0  0  0  0  0  0  0  0  0
  196.4580  176.7310  135.4760 C   0  0  0  0  0  1  0  0  0  0  0  0
  197.3920  174.7770  134.5560 O   0  0  0  0  0  0  0  0  0  0  0  0
  197.3750  174.6430  136.0490 C   0  0  0  0  0  0  0  0  0  0  0  0
  196.3570  175.2290  135.3290 C   0  0  1  0  0  3  0  0  0  0  0  0
  192.6310  177.1690  147.4700 O   0  0  0  0  0  0  0  0  0  0  0  0
  191.4390  177.0210  148.1830 C   0  0  1  0  0  3  0  0  0  0  0  0
  191.5210  177.7930  149.4160 N   0  0  0  0  0  1  0  0  0  0  0  0
  190.3690  177.4870  147.4200 O   0  0  0  0  0  1  0  0  0  0  0  0
  1 12  1  0  0  0  0
  2  6  2  0  0  0  0
  3  5  1  0  0  0  0
  4  9  1  0  0  0  0
  5  7  1  1  0  0  0
  5  1  1  0  0  0  0
  6  3  1  0  0  0  0
  7  8  1  0  0  0  0
  8 14  1  0  0  0  0
  9 10  2  0  0  0  0
  9  5  1  0  0  0  0
 11 37  1  6  0  0  0
 11  4  1  0  0  0  0
 11  6  1  0  0  0  0
 13  2  2  0  0  0  0
 14 12  1  0  0  0  0
 14 65  1  1  0  0  0
 17 13  1  1  0  0  0
 17 20  1  0  0  0  0
 18 15  1  1  0  0  0
 19 22  1  6  0  0  0
 19 21  1  0  0  0  0
 19 17  1  0  0  0  0
 20 16  2  0  0  0  0
 20 15  1  0  0  0  0
 21 22  1  6  0  0  0
 21 23  1  0  0  0  0
 21 18  1  0  0  0  0
 23 24  1  6  0  0  0
 23 18  1  0  0  0  0
 24 25  1  0  0  0  0
 26 25  1  0  0  0  0
 27 32  1  6  0  0  0
 27 31  1  0  0  0  0
 27 30  1  0  0  0  0
 30 29  1  6  0  0  0
 30 28  1  0  0  0  0
 31 26  1  1  0  0  0
 31 30  1  0  0  0  0
 33 35  1  0  0  0  0
 33 32  1  0  0  0  0
 34 33  2  0  0  0  0
 37 36  1  1  0  0  0
 39 38  1  1  0  0  0
 39 37  1  0  0  0  0
 40 39  1  0  0  0  0
 40 46  2  1  0  0  0
 42 40  1  0  0  0  0
 43 41  1  6  0  0  0
 43 42  1  0  0  0  0
 44 40  1  0  0  0  0
 44 55  1  1  0  0  0
 45 47  1  0  0  0  0
 45 43  1  0  0  0  0
 47 50  1  1  0  0  0
 47 48  1  0  0  0  0
 48 44  1  0  0  0  0
 50 49  1  0  0  0  0
 51 50  2  0  0  0  0
 52 45  1  0  0  0  0
 52 53  1  0  0  0  0
 54 53  1  0  0  0  0
 56 57  1  0  0  0  0
 56 55  1  0  0  0  0
 58 57  1  0  0  0  0
 58 59  2  0  0  0  0
 60 58  1  0  0  0  0
 62 64  1  0  0  0  0
 62 63  1  0  0  0  0
 63 60  2  0  0  0  0
 64 61  1  1  0  0  0
 64 63  1  0  0  0  0
 65 66  1  0  0  0  0
 66 68  1  6  0  0  0
 66 67  1  0  0  0  0
M  END
>  <MODEL>
5

>  <REMARK>
 VINA RESULT:      -5.5      2.564      3.575
  Name = 
  20 active torsions:
  status: ('A' for Active; 'I' for Inactive)
    1  A    between atoms: N_1  and  C_10
    2  A    between atoms: O_2  and  C_44
    3  A    between atoms: O_2  and  C_68
    4  A    between atoms: P_4  and  C_65
    5  A    between atoms: C_5  and  C_15
    6  A    between atoms: C_7  and  C_28
    7  A    between atoms: C_7  and  C_38
    8  A    between atoms: C_9  and  C_64
    9  A    between atoms: C_10  and  C_20
   10  A    between atoms: O_11  and  C_44
   11  A    between atoms: O_11  and  C_62
   12  A    between atoms: C_14  and  O_42
   13  A    between atoms: C_15  and  C_27
   14  A    between atoms: C_16  and  S_32
   15  A    between atoms: C_20  and  C_28
   16  A    between atoms: S_32  and  N_43
   17  A    between atoms: O_42  and  C_66
   18  A    between atoms: C_47  and  C_59
   19  A    between atoms: C_47  and  C_65
   20  A    between atoms: C_49  and  C_52
                            x       y       z     vdW  Elec       q    Type
                         _______ _______ _______ _____ _____    ______ ____

>  <TORSDO>
F 20

$$$$
=
 OpenBabel11062421063D

 68 75  0  0  1  0  0  0  0  0999 V2000
  186.6070  176.3870  143.9820 C   0  0  0  0  0  2  0  0  0  0  0  0
  188.4610  175.4270  140.4940 C   0  0  0  0  0  0  0  0  0  0  0  0
  187.9710  177.0520  142.0910 O   0  0  0  0  0  0  0  0  0  0  0  0
  189.9520  176.1810  143.7490 O   0  0  0  0  0  0  0  0  0  0  0  0
  187.7290  177.3210  143.4760 C   0  0  1  0  0  0  0  0  0  0  0  0
  188.7260  175.9640  141.6640 C   0  0  0  0  0  0  0  0  0  0  0  0
  187.3130  178.7860  143.6380 C   0  0  0  0  0  2  0  0  0  0  0  0
  186.0190  179.1290  142.8810 C   0  0  0  0  0  2  0  0  0  0  0  0
  188.9860  177.0480  144.2640 C   0  0  0  0  0  0  0  0  0  0  0  0
  189.1700  177.5810  145.3920 O   0  0  0  0  0  0  0  0  0  0  0  0
  189.7350  175.3600  142.6030 C   0  0  1  0  0  3  0  0  0  0  0  0
  185.1780  176.9220  143.7650 C   0  0  0  0  0  2  0  0  0  0  0  0
  188.1540  174.9060  139.3230 C   0  0  0  0  0  3  0  0  0  0  0  0
  185.1350  177.9030  142.6020 C   0  0  1  0  0  3  0  0  0  0  0  0
  191.0610  172.8450  138.0150 S   0  0  0  0  0  0  0  0  0  0  0  0
  188.9350  173.4570  136.6200 O   0  0  0  0  0  0  0  0  0  0  0  0
  188.4020  173.4660  138.9250 C   0  0  2  0  0  3  0  0  0  0  0  0
  190.3430  171.3250  138.6400 C   0  0  2  0  0  3  0  0  0  0  0  0
  188.8130  172.6940  140.2080 C   0  0  2  0  0  3  0  0  0  0  0  0
  189.3560  173.3340  137.7540 C   0  0  0  0  0  0  0  0  0  0  0  0
  189.9050  171.7030  140.0310 C   0  0  1  0  0  0  0  0  0  0  0  0
  188.5700  171.2850  140.1290 O   0  0  0  0  0  0  0  0  0  0  0  0
  191.0210  170.6950  139.8490 C   0  0  1  0  0  3  0  0  0  0  0  0
  190.5740  169.3780  140.0010 O   0  0  0  0  0  0  0  0  0  0  0  0
  191.2230  168.8070  141.1110 C   0  0  0  0  0  2  0  0  0  0  0  0
  191.8810  169.7660  141.9130 O   0  0  0  0  0  0  0  0  0  0  0  0
  194.1250  170.0640  142.6110 C   0  0  2  0  0  3  0  0  0  0  0  0
  192.4520  170.7070  144.3530 N   0  0  0  0  0  1  0  0  0  0  0  0
  193.9020  168.6780  144.8580 C   0  0  0  0  0  1  0  0  0  0  0  0
  193.3390  169.6720  143.8460 C   0  0  2  0  0  0  0  0  0  0  0  0
  192.9560  169.0870  142.4980 C   0  0  1  0  0  3  0  0  0  0  0  0
  195.4370  169.2990  142.4770 C   0  0  0  0  0  2  0  0  0  0  0  0
  196.1470  169.7480  141.2480 C   0  0  0  0  0  0  0  0  0  0  0  0
  197.5330  169.8300  141.2310 O   0  0  0  0  0  1  0  0  0  0  0  0
  195.4820  170.0670  140.2280 O   0  0  0  0  0  0  0  0  0  0  0  0
  191.2050  173.4550  141.8080 C   0  0  0  0  0  1  0  0  0  0  0  0
  191.0590  174.9610  141.9390 C   0  0  2  0  0  3  0  0  0  0  0  0
  192.1450  177.0310  142.9740 C   0  0  0  0  0  1  0  0  0  0  0  0
  192.3600  175.6460  142.3990 C   0  0  1  0  0  3  0  0  0  0  0  0
  193.5540  174.6300  143.3730 P   0  0  1  0  0  0  0  0  0  0  0  0
  194.4120  173.5990  139.9590 C   0  0  0  0  0  1  0  0  0  0  0  0
  194.3640  173.5660  142.3290 O   0  0  0  0  0  0  0  0  0  0  0  0
  194.7940  174.3330  141.2410 C   0  0  1  0  0  3  0  0  0  0  0  0
  194.8230  175.6390  144.2220 C   0  0  1  0  0  3  0  0  0  0  0  0
  196.2510  174.5370  141.2950 N   0  0  0  0  0  0  0  0  0  0  0  0
  192.8270  173.7930  144.3960 O   0  0  0  0  0  0  0  0  0  0  0  0
  196.7220  175.1070  142.5650 C   0  0  1  0  0  3  0  0  0  0  0  0
  195.8330  176.1890  143.2110 C   0  0  0  0  0  2  0  0  0  0  0  0
  197.4150  172.7680  143.0870 O   0  0  0  0  0  0  0  0  0  0  0  0
  197.3420  174.0940  143.4840 C   0  0  0  0  0  0  0  0  0  0  0  0
  197.7900  174.4260  144.6150 O   0  0  0  0  0  1  0  0  0  0  0  0
  196.6880  175.7090  140.0400 S   0  0  0  0  0  0  0  0  0  0  0  0
  197.8770  174.5590  139.2900 C   0  0  0  0  0  2  0  0  0  0  0  0
  197.9400  174.8110  137.7960 C   0  0  0  0  0  1  0  0  0  0  0  0
  194.1530  176.7390  145.0550 C   0  0  0  0  0  2  0  0  0  0  0  0
  194.1100  176.4180  146.5450 C   0  0  0  0  0  2  0  0  0  0  0  0
  193.0950  177.3030  147.2510 C   0  0  0  0  0  2  0  0  0  0  0  0
  191.8970  176.4990  147.6100 C   0  0  0  0  0  0  0  0  0  0  0  0
  191.2810  176.7410  148.6910 O   0  0  0  0  0  0  0  0  0  0  0  0
  191.4370  175.4840  146.7100 N   0  0  0  0  0  0  0  0  0  0  0  0
  188.1700  175.6540  147.2990 C   0  0  0  0  0  1  0  0  0  0  0  0
  189.3430  173.7910  146.4700 O   0  0  0  0  0  0  0  0  0  0  0  0
  190.3350  174.8310  146.8940 C   0  0  0  0  0  0  0  0  0  0  0  0
  189.1750  174.5620  147.5880 C   0  0  1  0  0  3  0  0  0  0  0  0
  183.8220  178.3110  142.3490 O   0  0  0  0  0  0  0  0  0  0  0  0
  183.5510  177.9200  141.0360 C   0  0  1  0  0  3  0  0  0  0  0  0
  182.1480  178.1810  140.7390 N   0  0  0  0  0  1  0  0  0  0  0  0
  184.3490  178.6430  140.1510 O   0  0  0  0  0  1  0  0  0  0  0  0
  2  6  2  0  0  0  0
  3  5  1  0  0  0  0
  4  9  1  0  0  0  0
  5  7  1  1  0  0  0
  5  1  1  0  0  0  0
  5  9  1  0  0  0  0
  6  3  1  0  0  0  0
  6 11  1  0  0  0  0
  8  7  1  0  0  0  0
  9 10  2  0  0  0  0
 11 37  1  6  0  0  0
 11  4  1  0  0  0  0
 12  1  1  0  0  0  0
 13  2  2  0  0  0  0
 14 65  1  1  0  0  0
 14  8  1  0  0  0  0
 14 12  1  0  0  0  0
 16 20  2  0  0  0  0
 17 13  1  1  0  0  0
 17 19  1  0  0  0  0
 18 15  1  1  0  0  0
 18 23  1  0  0  0  0
 18 21  1  0  0  0  0
 19 22  1  6  0  0  0
 20 15  1  0  0  0  0
 20 17  1  0  0  0  0
 21 22  1  6  0  0  0
 21 19  1  0  0  0  0
 23 24  1  6  0  0  0
 23 21  1  0  0  0  0
 24 25  1  0  0  0  0
 25 26  1  0  0  0  0
 27 32  1  1  0  0  0
 27 30  1  0  0  0  0
 30 28  1  0  0  0  0
 30 29  1  1  0  0  0
 31 26  1  6  0  0  0
 31 27  1  0  0  0  0
 31 30  1  0  0  0  0
 33 32  1  0  0  0  0
 34 33  1  0  0  0  0
 35 33  2  0  0  0  0
 37 36  1  1  0  0  0
 37 39  1  0  0  0  0
 39 38  1  1  0  0  0
 39 40  1  0  0  0  0
 40 44  1  0  0  0  0
 40 46  2  1  0  0  0
 42 40  1  0  0  0  0
 43 41  1  6  0  0  0
 43 45  1  0  0  0  0
 43 42  1  0  0  0  0
 44 55  1  6  0  0  0
 45 47  1  0  0  0  0
 47 48  1  0  0  0  0
 47 50  1  1  0  0  0
 48 44  1  0  0  0  0
 49 50  2  0  0  0  0
 50 51  1  0  0  0  0
 52 45  1  0  0  0  0
 53 52  1  0  0  0  0
 54 53  1  0  0  0  0
 55 56  1  0  0  0  0
 56 57  1  0  0  0  0
 57 58  1  0  0  0  0
 58 59  2  0  0  0  0
 60 63  2  0  0  0  0
 60 58  1  0  0  0  0
 62 63  1  0  0  0  0
 62 64  1  0  0  0  0
 63 64  1  0  0  0  0
 64 61  1  6  0  0  0
 66 68  1  6  0  0  0
 66 65  1  0  0  0  0
 67 66  1  0  0  0  0
M  END
>  <MODEL>
6

>  <REMARK>
 VINA RESULT:      -5.3      3.163     10.119
  Name = 
  20 active torsions:
  status: ('A' for Active; 'I' for Inactive)
    1  A    between atoms: N_1  and  C_10
    2  A    between atoms: O_2  and  C_44
    3  A    between atoms: O_2  and  C_68
    4  A    between atoms: P_4  and  C_65
    5  A    between atoms: C_5  and  C_15
    6  A    between atoms: C_7  and  C_28
    7  A    between atoms: C_7  and  C_38
    8  A    between atoms: C_9  and  C_64
    9  A    between atoms: C_10  and  C_20
   10  A    between atoms: O_11  and  C_44
   11  A    between atoms: O_11  and  C_62
   12  A    between atoms: C_14  and  O_42
   13  A    between atoms: C_15  and  C_27
   14  A    between atoms: C_16  and  S_32
   15  A    between atoms: C_20  and  C_28
   16  A    between atoms: S_32  and  N_43
   17  A    between atoms: O_42  and  C_66
   18  A    between atoms: C_47  and  C_59
   19  A    between atoms: C_47  and  C_65
   20  A    between atoms: C_49  and  C_52
                            x       y       z     vdW  Elec       q    Type
                         _______ _______ _______ _____ _____    ______ ____

>  <TORSDO>
F 20

$$$$
=
 OpenBabel11062421063D

 68 75  0  0  1  0  0  0  0  0999 V2000
  189.9920  174.0730  146.3560 C   0  0  0  0  0  2  0  0  0  0  0  0
  189.7610  176.6120  143.1900 C   0  0  0  0  0  0  0  0  0  0  0  0
  191.0920  175.2850  144.5680 O   0  0  0  0  0  0  0  0  0  0  0  0
  190.4450  173.0170  143.1990 O   0  0  0  0  0  0  0  0  0  0  0  0
  191.1680  174.0910  145.3540 C   0  0  1  0  0  0  0  0  0  0  0  0
  190.2150  175.4170  143.4950 C   0  0  0  0  0  0  0  0  0  0  0  0
  192.5030  174.0660  146.1030 C   0  0  0  0  0  2  0  0  0  0  0  0
  192.6720  175.2510  147.0690 C   0  0  0  0  0  2  0  0  0  0  0  0
  191.0570  172.8890  144.4480 C   0  0  0  0  0  0  0  0  0  0  0  0
  191.4980  171.7650  144.8110 O   0  0  0  0  0  0  0  0  0  0  0  0
  189.7200  174.1780  142.7980 C   0  0  1  0  0  3  0  0  0  0  0  0
  190.2670  174.8050  147.6840 C   0  0  0  0  0  2  0  0  0  0  0  0
  189.3140  177.8230  142.9260 C   0  0  0  0  0  3  0  0  0  0  0  0
  191.3360  175.8740  147.5040 C   0  0  1  0  0  3  0  0  0  0  0  0
  186.0720  175.9870  142.1960 S   0  0  0  0  0  0  0  0  0  0  0  0
  187.8160  176.6910  140.3770 O   0  0  0  0  0  0  0  0  0  0  0  0
  187.9940  178.1290  142.2480 C   0  0  2  0  0  3  0  0  0  0  0  0
  185.1600  177.5250  142.0680 C   0  0  2  0  0  3  0  0  0  0  0  0
  187.0580  178.7540  143.3170 C   0  0  2  0  0  3  0  0  0  0  0  0
  187.4240  176.9380  141.5010 C   0  0  0  0  0  0  0  0  0  0  0  0
  185.6420  178.3060  143.2620 C   0  0  1  0  0  0  0  0  0  0  0  0
  186.0150  179.5620  142.7600 O   0  0  0  0  0  0  0  0  0  0  0  0
  184.2000  177.8460  143.2060 C   0  0  1  0  0  3  0  0  0  0  0  0
  183.3330  178.8710  142.8090 O   0  0  0  0  0  0  0  0  0  0  0  0
  182.3050  178.3120  142.0280 C   0  0  0  0  0  2  0  0  0  0  0  0
  181.3560  179.2690  141.6060 O   0  0  0  0  0  0  0  0  0  0  0  0
  179.0100  179.0620  141.8630 C   0  0  2  0  0  3  0  0  0  0  0  0
  179.6730  180.7590  140.1510 N   0  0  0  0  0  1  0  0  0  0  0  0
  178.4840  178.6790  139.2950 C   0  0  0  0  0  1  0  0  0  0  0  0
  179.2550  179.3890  140.4030 C   0  0  2  0  0  0  0  0  0  0  0  0
  180.2550  178.5290  141.1570 C   0  0  1  0  0  3  0  0  0  0  0  0
  178.0130  177.9240  142.0550 C   0  0  0  0  0  2  0  0  0  0  0  0
  178.2150  177.3130  143.3980 C   0  0  0  0  0  0  0  0  0  0  0  0
  178.2890  178.1150  144.5280 O   0  0  0  0  0  1  0  0  0  0  0  0
  178.3330  176.0640  143.5000 O   0  0  0  0  0  0  0  0  0  0  0  0
  188.4350  173.5850  140.6970 C   0  0  0  0  0  1  0  0  0  0  0  0
  189.6480  174.2960  141.2710 C   0  0  2  0  0  3  0  0  0  0  0  0
  192.1430  174.7770  140.9860 C   0  0  0  0  0  1  0  0  0  0  0  0
  190.9240  174.0560  140.4440 C   0  0  1  0  0  3  0  0  0  0  0  0
  191.2780  172.3230  139.9150 P   0  0  1  0  0  0  0  0  0  0  0  0
  190.8960  173.9630  136.6570 C   0  0  0  0  0  1  0  0  0  0  0  0
  191.0930  172.2030  138.2330 O   0  0  0  0  0  0  0  0  0  0  0  0
  191.7960  173.2800  137.6820 C   0  0  1  0  0  3  0  0  0  0  0  0
  192.9810  171.7870  140.3200 C   0  0  1  0  0  3  0  0  0  0  0  0
  193.0360  172.8150  137.0390 N   0  0  0  0  0  0  0  0  0  0  0  0
  190.2990  171.3660  140.5480 O   0  0  0  0  0  0  0  0  0  0  0  0
  193.8970  172.0160  137.9240 C   0  0  1  0  0  3  0  0  0  0  0  0
  193.9900  172.4710  139.3950 C   0  0  0  0  0  2  0  0  0  0  0  0
  192.6510  170.0050  137.1320 O   0  0  0  0  0  0  0  0  0  0  0  0
  193.8120  170.5390  137.6700 C   0  0  0  0  0  0  0  0  0  0  0  0
  194.7740  169.7720  137.9450 O   0  0  0  0  0  1  0  0  0  0  0  0
  193.9880  174.2390  136.5860 S   0  0  0  0  0  0  0  0  0  0  0  0
  194.0340  173.7310  134.8430 C   0  0  0  0  0  2  0  0  0  0  0  0
  193.2260  172.4580  134.6720 C   0  0  0  0  0  1  0  0  0  0  0  0
  193.2720  172.0320  141.8060 C   0  0  0  0  0  2  0  0  0  0  0  0
  194.7340  172.3710  142.0800 C   0  0  0  0  0  2  0  0  0  0  0  0
  194.8680  173.1260  143.3920 C   0  0  0  0  0  2  0  0  0  0  0  0
  196.3040  173.2220  143.7670 C   0  0  0  0  0  0  0  0  0  0  0  0
  197.0510  172.2050  143.6540 O   0  0  0  0  0  0  0  0  0  0  0  0
  196.8290  174.4770  144.2170 N   0  0  0  0  0  0  0  0  0  0  0  0
  195.8880  176.4160  141.6860 C   0  0  0  0  0  1  0  0  0  0  0  0
  197.6850  176.8110  143.1520 O   0  0  0  0  0  0  0  0  0  0  0  0
  197.1540  175.4320  143.4060 C   0  0  0  0  0  0  0  0  0  0  0  0
  197.2620  175.9830  142.1480 C   0  0  1  0  0  3  0  0  0  0  0  0
  191.5120  176.5990  148.6860 O   0  0  0  0  0  0  0  0  0  0  0  0
  191.1450  177.9120  148.3830 C   0  0  1  0  0  3  0  0  0  0  0  0
  189.8410  177.9050  147.7320 N   0  0  0  0  0  1  0  0  0  0  0  0
  191.0690  178.6660  149.5540 O   0  0  0  0  0  1  0  0  0  0  0  0
  1 12  1  0  0  0  0
  2  6  2  0  0  0  0
  3  5  1  0  0  0  0
  4  9  1  0  0  0  0
  5  7  1  1  0  0  0
  5  1  1  0  0  0  0
  6  3  1  0  0  0  0
  7  8  1  0  0  0  0
  8 14  1  0  0  0  0
  9 10  2  0  0  0  0
  9  5  1  0  0  0  0
 11 37  1  6  0  0  0
 11  4  1  0  0  0  0
 11  6  1  0  0  0  0
 13  2  2  0  0  0  0
 14 12  1  0  0  0  0
 14 65  1  1  0  0  0
 16 20  2  0  0  0  0
 17 13  1  1  0  0  0
 17 19  1  0  0  0  0
 18 15  1  1  0  0  0
 18 23  1  0  0  0  0
 18 21  1  0  0  0  0
 19 22  1  6  0  0  0
 20 15  1  0  0  0  0
 20 17  1  0  0  0  0
 21 22  1  6  0  0  0
 21 19  1  0  0  0  0
 23 24  1  6  0  0  0
 23 21  1  0  0  0  0
 25 24  1  0  0  0  0
 26 25  1  0  0  0  0
 27 32  1  6  0  0  0
 28 30  1  0  0  0  0
 30 29  1  6  0  0  0
 30 31  1  0  0  0  0
 30 27  1  0  0  0  0
 31 26  1  1  0  0  0
 31 27  1  0  0  0  0
 32 33  1  0  0  0  0
 33 35  2  0  0  0  0
 33 34  1  0  0  0  0
 37 36  1  6  0  0  0
 39 38  1  1  0  0  0
 39 37  1  0  0  0  0
 40 44  1  0  0  0  0
 40 39  1  0  0  0  0
 40 46  2  1  0  0  0
 42 40  1  0  0  0  0
 43 41  1  6  0  0  0
 43 42  1  0  0  0  0
 44 55  1  1  0  0  0
 45 43  1  0  0  0  0
 45 47  1  0  0  0  0
 47 50  1  1  0  0  0
 47 48  1  0  0  0  0
 48 44  1  0  0  0  0
 49 50  2  0  0  0  0
 50 51  1  0  0  0  0
 52 45  1  0  0  0  0
 53 52  1  0  0  0  0
 54 53  1  0  0  0  0
 55 56  1  0  0  0  0
 56 57  1  0  0  0  0
 57 58  1  0  0  0  0
 58 60  1  0  0  0  0
 59 58  2  0  0  0  0
 62 63  1  0  0  0  0
 63 60  2  0  0  0  0
 64 61  1  1  0  0  0
 64 62  1  0  0  0  0
 64 63  1  0  0  0  0
 66 67  1  1  0  0  0
 66 65  1  0  0  0  0
 66 68  1  0  0  0  0
M  END
>  <MODEL>
7

>  <REMARK>
 VINA RESULT:      -4.9      1.788      2.189
  Name = 
  20 active torsions:
  status: ('A' for Active; 'I' for Inactive)
    1  A    between atoms: N_1  and  C_10
    2  A    between atoms: O_2  and  C_44
    3  A    between atoms: O_2  and  C_68
    4  A    between atoms: P_4  and  C_65
    5  A    between atoms: C_5  and  C_15
    6  A    between atoms: C_7  and  C_28
    7  A    between atoms: C_7  and  C_38
    8  A    between atoms: C_9  and  C_64
    9  A    between atoms: C_10  and  C_20
   10  A    between atoms: O_11  and  C_44
   11  A    between atoms: O_11  and  C_62
   12  A    between atoms: C_14  and  O_42
   13  A    between atoms: C_15  and  C_27
   14  A    between atoms: C_16  and  S_32
   15  A    between atoms: C_20  and  C_28
   16  A    between atoms: S_32  and  N_43
   17  A    between atoms: O_42  and  C_66
   18  A    between atoms: C_47  and  C_59
   19  A    between atoms: C_47  and  C_65
   20  A    between atoms: C_49  and  C_52
                            x       y       z     vdW  Elec       q    Type
                         _______ _______ _______ _____ _____    ______ ____

>  <TORSDO>
F 20

$$$$
=
 OpenBabel11062421063D

 68 75  0  0  1  0  0  0  0  0999 V2000
  191.3850  174.3190  146.1990 C   0  0  0  0  0  2  0  0  0  0  0  0
  190.0450  175.9600  142.7300 C   0  0  0  0  0  0  0  0  0  0  0  0
  191.8600  175.3700  144.0670 O   0  0  0  0  0  0  0  0  0  0  0  0
  191.7660  172.7720  143.2410 O   0  0  0  0  0  0  0  0  0  0  0  0
  192.3780  174.4380  145.0210 C   0  0  1  0  0  0  0  0  0  0  0  0
  190.8660  175.0270  143.1540 C   0  0  0  0  0  0  0  0  0  0  0  0
  193.7380  174.9350  145.5230 C   0  0  0  0  0  2  0  0  0  0  0  0
  193.6550  176.3000  146.2260 C   0  0  0  0  0  2  0  0  0  0  0  0
  192.5270  173.0850  144.3690 C   0  0  0  0  0  0  0  0  0  0  0  0
  193.3220  172.2260  144.8390 O   0  0  0  0  0  0  0  0  0  0  0  0
  190.6860  173.5810  142.7770 C   0  0  1  0  0  3  0  0  0  0  0  0
  191.5800  175.3660  147.3130 C   0  0  0  0  0  2  0  0  0  0  0  0
  189.2290  176.9200  142.3420 C   0  0  0  0  0  3  0  0  0  0  0  0
  192.2540  176.6190  146.7700 C   0  0  1  0  0  3  0  0  0  0  0  0
  185.7350  177.1230  143.8110 S   0  0  0  0  0  0  0  0  0  0  0  0
  186.9120  174.8990  143.0950 O   0  0  0  0  0  0  0  0  0  0  0  0
  187.8090  176.7070  141.8590 C   0  0  2  0  0  3  0  0  0  0  0  0
  185.0050  177.3800  142.1940 C   0  0  2  0  0  3  0  0  0  0  0  0
  187.3170  178.0500  141.2570 C   0  0  2  0  0  3  0  0  0  0  0  0
  186.9100  176.1030  142.9220 C   0  0  0  0  0  0  0  0  0  0  0  0
  185.9110  178.4110  141.5720 C   0  0  1  0  0  0  0  0  0  0  0  0
  186.2520  177.8970  140.3130 O   0  0  0  0  0  0  0  0  0  0  0  0
  184.4780  178.7780  141.8960 C   0  0  1  0  0  3  0  0  0  0  0  0
  183.6520  178.7340  140.7670 O   0  0  0  0  0  0  0  0  0  0  0  0
  182.3380  179.0480  141.1590 C   0  0  0  0  0  2  0  0  0  0  0  0
  181.4020  178.0620  140.7780 O   0  0  0  0  0  0  0  0  0  0  0  0
  179.0890  177.9060  140.2890 C   0  0  2  0  0  3  0  0  0  0  0  0
  179.5600  178.8340  142.5610 N   0  0  0  0  0  1  0  0  0  0  0  0
  178.5120  180.4240  140.8750 C   0  0  0  0  0  1  0  0  0  0  0  0
  179.2600  179.1280  141.1690 C   0  0  2  0  0  0  0  0  0  0  0  0
  180.3490  178.7610  140.1750 C   0  0  1  0  0  3  0  0  0  0  0  0
  178.1920  178.1660  139.0840 C   0  0  0  0  0  2  0  0  0  0  0  0
  178.3110  177.0320  138.1250 C   0  0  0  0  0  0  0  0  0  0  0  0
  178.1900  177.2540  136.7610 O   0  0  0  0  0  0  0  0  0  0  0  0
  178.5090  175.8680  138.5620 O   0  0  0  0  0  1  0  0  0  0  0  0
  189.1640  172.5010  141.0640 C   0  0  0  0  0  1  0  0  0  0  0  0
  190.4070  173.3440  141.2880 C   0  0  2  0  0  3  0  0  0  0  0  0
  192.8130  173.7920  140.5480 C   0  0  0  0  0  1  0  0  0  0  0  0
  191.5720  172.9400  140.3660 C   0  0  1  0  0  3  0  0  0  0  0  0
  191.9420  171.1390  140.2070 P   0  0  1  0  0  0  0  0  0  0  0  0
  190.0630  171.7230  137.1110 C   0  0  0  0  0  1  0  0  0  0  0  0
  191.1270  170.5190  138.8540 O   0  0  0  0  0  0  0  0  0  0  0  0
  191.3860  171.4010  137.8000 C   0  0  1  0  0  3  0  0  0  0  0  0
  193.7250  170.7930  139.9800 C   0  0  1  0  0  3  0  0  0  0  0  0
  192.3250  170.7990  136.8390 N   0  0  0  0  0  0  0  0  0  0  0  0
  191.4480  170.3870  141.4170 O   0  0  0  0  0  0  0  0  0  0  0  0
  193.5730  170.3230  137.4510 C   0  0  1  0  0  3  0  0  0  0  0  0
  194.1730  171.1980  138.5720 C   0  0  0  0  0  2  0  0  0  0  0  0
  194.8360  168.1770  137.6060 O   0  0  0  0  0  0  0  0  0  0  0  0
  193.6160  168.8360  137.6500 C   0  0  0  0  0  0  0  0  0  0  0  0
  192.5630  168.1720  137.8480 O   0  0  0  0  0  1  0  0  0  0  0  0
  192.7950  172.0480  135.6740 S   0  0  0  0  0  0  0  0  0  0  0  0
  191.9330  173.3400  136.6160 C   0  0  0  0  0  2  0  0  0  0  0  0
  192.7540  174.6150  136.5810 C   0  0  0  0  0  1  0  0  0  0  0  0
  194.5400  171.4780  141.0840 C   0  0  0  0  0  2  0  0  0  0  0  0
  195.7800  170.6870  141.4880 C   0  0  0  0  0  2  0  0  0  0  0  0
  195.4340  169.2210  141.6900 C   0  0  0  0  0  2  0  0  0  0  0  0
  195.2220  168.9540  143.1380 C   0  0  0  0  0  0  0  0  0  0  0  0
  194.0540  169.0300  143.6250 O   0  0  0  0  0  0  0  0  0  0  0  0
  196.3380  168.5800  143.9530 N   0  0  0  0  0  0  0  0  0  0  0  0
  195.1880  169.5010  146.9330 C   0  0  0  0  0  1  0  0  0  0  0  0
  197.4480  169.2920  146.3140 O   0  0  0  0  0  0  0  0  0  0  0  0
  196.6000  169.1480  145.0870 C   0  0  0  0  0  0  0  0  0  0  0  0
  196.3250  170.0440  146.0970 C   0  0  1  0  0  3  0  0  0  0  0  0
  192.3400  177.6010  147.7620 O   0  0  0  0  0  0  0  0  0  0  0  0
  191.1850  177.4630  148.5330 C   0  0  1  0  0  3  0  0  0  0  0  0
  191.4340  177.9960  149.8670 N   0  0  0  0  0  1  0  0  0  0  0  0
  190.1350  178.1680  147.9460 O   0  0  0  0  0  1  0  0  0  0  0  0
  1 12  1  0  0  0  0
  2  6  2  0  0  0  0
  3  5  1  0  0  0  0
  4  9  1  0  0  0  0
  5  7  1  1  0  0  0
  5  1  1  0  0  0  0
  6  3  1  0  0  0  0
  7  8  1  0  0  0  0
  8 14  1  0  0  0  0
  9 10  2  0  0  0  0
  9  5  1  0  0  0  0
 11 37  1  6  0  0  0
 11  6  1  0  0  0  0
 11  4  1  0  0  0  0
 13  2  2  0  0  0  0
 14 12  1  0  0  0  0
 14 65  1  1  0  0  0
 17 13  1  1  0  0  0
 17 20  1  0  0  0  0
 18 15  1  1  0  0  0
 19 22  1  6  0  0  0
 19 21  1  0  0  0  0
 19 17  1  0  0  0  0
 20 16  2  0  0  0  0
 20 15  1  0  0  0  0
 21 22  1  6  0  0  0
 21 23  1  0  0  0  0
 21 18  1  0  0  0  0
 23 24  1  6  0  0  0
 23 18  1  0  0  0  0
 24 25  1  0  0  0  0
 26 25  1  0  0  0  0
 27 32  1  6  0  0  0
 27 30  1  0  0  0  0
 30 29  1  6  0  0  0
 30 28  1  0  0  0  0
 31 27  1  0  0  0  0
 31 26  1  1  0  0  0
 31 30  1  0  0  0  0
 33 35  1  0  0  0  0
 33 32  1  0  0  0  0
 34 33  2  0  0  0  0
 37 36  1  1  0  0  0
 39 38  1  1  0  0  0
 39 37  1  0  0  0  0
 40 39  1  0  0  0  0
 40 46  2  1  0  0  0
 42 40  1  0  0  0  0
 43 41  1  6  0  0  0
 43 42  1  0  0  0  0
 44 40  1  0  0  0  0
 44 55  1  1  0  0  0
 45 47  1  0  0  0  0
 45 43  1  0  0  0  0
 47 50  1  1  0  0  0
 47 48  1  0  0  0  0
 48 44  1  0  0  0  0
 49 50  2  0  0  0  0
 50 51  1  0  0  0  0
 52 53  1  0  0  0  0
 52 45  1  0  0  0  0
 54 53  1  0  0  0  0
 55 56  1  0  0  0  0
 56 57  1  0  0  0  0
 57 58  1  0  0  0  0
 58 59  2  0  0  0  0
 58 60  1  0  0  0  0
 60 63  2  0  0  0  0
 63 64  1  0  0  0  0
 63 62  1  0  0  0  0
 64 62  1  0  0  0  0
 64 61  1  1  0  0  0
 65 66  1  0  0  0  0
 66 68  1  6  0  0  0
 66 67  1  0  0  0  0
M  END
>  <MODEL>
8

>  <REMARK>
 VINA RESULT:      -4.8      2.285      3.006
  Name = 
  20 active torsions:
  status: ('A' for Active; 'I' for Inactive)
    1  A    between atoms: N_1  and  C_10
    2  A    between atoms: O_2  and  C_44
    3  A    between atoms: O_2  and  C_68
    4  A    between atoms: P_4  and  C_65
    5  A    between atoms: C_5  and  C_15
    6  A    between atoms: C_7  and  C_28
    7  A    between atoms: C_7  and  C_38
    8  A    between atoms: C_9  and  C_64
    9  A    between atoms: C_10  and  C_20
   10  A    between atoms: O_11  and  C_44
   11  A    between atoms: O_11  and  C_62
   12  A    between atoms: C_14  and  O_42
   13  A    between atoms: C_15  and  C_27
   14  A    between atoms: C_16  and  S_32
   15  A    between atoms: C_20  and  C_28
   16  A    between atoms: S_32  and  N_43
   17  A    between atoms: O_42  and  C_66
   18  A    between atoms: C_47  and  C_59
   19  A    between atoms: C_47  and  C_65
   20  A    between atoms: C_49  and  C_52
                            x       y       z     vdW  Elec       q    Type
                         _______ _______ _______ _____ _____    ______ ____

>  <TORSDO>
F 20

$$$$
=
 OpenBabel11062421063D

 68 75  0  0  1  0  0  0  0  0999 V2000
  187.4910  175.3270  144.0700 C   0  0  0  0  0  2  0  0  0  0  0  0
  190.1880  174.2970  141.2090 C   0  0  0  0  0  0  0  0  0  0  0  0
  189.6400  175.6770  143.0050 O   0  0  0  0  0  0  0  0  0  0  0  0
  190.3790  173.7880  144.8280 O   0  0  0  0  0  0  0  0  0  0  0  0
  188.9560  175.7800  144.2580 C   0  0  1  0  0  0  0  0  0  0  0  0
  190.1100  174.4640  142.5100 C   0  0  0  0  0  0  0  0  0  0  0  0
  189.0040  177.2340  144.7390 C   0  0  0  0  0  2  0  0  0  0  0  0
  188.3170  178.2090  143.7690 C   0  0  0  0  0  2  0  0  0  0  0  0
  189.6220  174.8760  145.2660 C   0  0  0  0  0  0  0  0  0  0  0  0
  189.4910  175.0830  146.5040 O   0  0  0  0  0  0  0  0  0  0  0  0
  190.3970  173.3430  143.4730 C   0  0  1  0  0  3  0  0  0  0  0  0
  186.5290  176.4380  143.6040 C   0  0  0  0  0  2  0  0  0  0  0  0
  190.2360  174.1600  139.8990 C   0  0  0  0  0  3  0  0  0  0  0  0
  187.2810  177.5320  142.8580 C   0  0  1  0  0  3  0  0  0  0  0  0
  188.9040  172.9220  136.5670 S   0  0  0  0  0  0  0  0  0  0  0  0
  187.8490  172.3430  138.8900 O   0  0  0  0  0  0  0  0  0  0  0  0
  190.1460  172.8400  139.1630 C   0  0  2  0  0  3  0  0  0  0  0  0
  189.9960  171.5010  136.5910 C   0  0  2  0  0  3  0  0  0  0  0  0
  191.4680  172.6610  138.3680 C   0  0  2  0  0  3  0  0  0  0  0  0
  188.8740  172.7050  138.3470 C   0  0  0  0  0  0  0  0  0  0  0  0
  191.3170  172.0940  137.0030 C   0  0  1  0  0  0  0  0  0  0  0  0
  191.7710  171.2960  138.0630 O   0  0  0  0  0  0  0  0  0  0  0  0
  191.1620  171.5180  135.6110 C   0  0  1  0  0  3  0  0  0  0  0  0
  191.7030  170.2310  135.5070 O   0  0  0  0  0  0  0  0  0  0  0  0
  192.9150  170.3090  134.7970 C   0  0  0  0  0  2  0  0  0  0  0  0
  193.7040  171.4160  135.1810 O   0  0  0  0  0  0  0  0  0  0  0  0
  195.9150  171.6520  135.9970 C   0  0  2  0  0  3  0  0  0  0  0  0
  194.6660  169.7630  137.0540 N   0  0  0  0  0  1  0  0  0  0  0  0
  196.6370  169.1400  135.5720 C   0  0  0  0  0  1  0  0  0  0  0  0
  195.6050  170.1690  136.0210 C   0  0  2  0  0  0  0  0  0  0  0  0
  195.0260  171.0390  134.9180 C   0  0  1  0  0  3  0  0  0  0  0  0
  197.2860  171.9610  135.4070 C   0  0  0  0  0  2  0  0  0  0  0  0
  197.5760  173.4140  135.5640 C   0  0  0  0  0  0  0  0  0  0  0  0
  197.9270  173.9270  136.8050 O   0  0  0  0  0  1  0  0  0  0  0  0
  197.4870  174.1760  134.5660 O   0  0  0  0  0  0  0  0  0  0  0  0
  192.3680  173.0530  141.9070 C   0  0  0  0  0  1  0  0  0  0  0  0
  191.6710  172.5490  143.1590 C   0  0  2  0  0  3  0  0  0  0  0  0
  191.0920  170.3540  141.9810 C   0  0  0  0  0  1  0  0  0  0  0  0
  191.6290  171.0110  143.2370 C   0  0  1  0  0  3  0  0  0  0  0  0
  193.1120  170.1570  143.9290 P   0  0  1  0  0  0  0  0  0  0  0  0
  193.4060  169.2630  140.3840 C   0  0  0  0  0  1  0  0  0  0  0  0
  193.8300  169.2130  142.7160 O   0  0  0  0  0  0  0  0  0  0  0  0
  193.9360  170.0350  141.5890 C   0  0  1  0  0  3  0  0  0  0  0  0
  194.3840  171.3210  144.5450 C   0  0  1  0  0  3  0  0  0  0  0  0
  195.3370  170.4280  141.3640 N   0  0  0  0  0  0  0  0  0  0  0  0
  192.7150  169.2290  145.0490 O   0  0  0  0  0  0  0  0  0  0  0  0
  195.9720  171.0500  142.5350 C   0  0  1  0  0  3  0  0  0  0  0  0
  195.0960  172.0030  143.3740 C   0  0  0  0  0  2  0  0  0  0  0  0
  196.5730  168.7750  143.3620 O   0  0  0  0  0  0  0  0  0  0  0  0
  196.8840  170.1240  143.2850 C   0  0  0  0  0  0  0  0  0  0  0  0
  197.9250  170.5510  143.8550 O   0  0  0  0  0  1  0  0  0  0  0  0
  195.3640  171.6530  140.0840 S   0  0  0  0  0  0  0  0  0  0  0  0
  197.1650  171.5110  139.8990 C   0  0  0  0  0  2  0  0  0  0  0  0
  197.5010  170.1510  139.3160 C   0  0  0  0  0  1  0  0  0  0  0  0
  193.7550  172.3200  145.5240 C   0  0  0  0  0  2  0  0  0  0  0  0
  193.9270  173.7720  145.0880 C   0  0  0  0  0  2  0  0  0  0  0  0
  195.1520  174.3840  145.7490 C   0  0  0  0  0  2  0  0  0  0  0  0
  195.6500  175.5160  144.9220 C   0  0  0  0  0  0  0  0  0  0  0  0
  195.1100  176.6570  145.0310 O   0  0  0  0  0  0  0  0  0  0  0  0
  196.7580  175.3040  144.0400 N   0  0  0  0  0  0  0  0  0  0  0  0
  195.5230  176.6480  141.2610 C   0  0  0  0  0  1  0  0  0  0  0  0
  197.2050  175.0080  141.3890 O   0  0  0  0  0  0  0  0  0  0  0  0
  196.6220  175.2040  142.7560 C   0  0  0  0  0  0  0  0  0  0  0  0
  195.8690  175.2160  141.6020 C   0  0  1  0  0  3  0  0  0  0  0  0
  186.3930  178.4870  142.3550 O   0  0  0  0  0  0  0  0  0  0  0  0
  185.4550  177.7730  141.6060 C   0  0  1  0  0  3  0  0  0  0  0  0
  184.1280  178.3260  141.8490 N   0  0  0  0  0  1  0  0  0  0  0  0
  185.7530  177.8770  140.2480 O   0  0  0  0  0  1  0  0  0  0  0  0
  2  6  2  0  0  0  0
  3  5  1  0  0  0  0
  4  9  1  0  0  0  0
  5  1  1  6  0  0  0
  5  7  1  0  0  0  0
  5  9  1  0  0  0  0
  6  3  1  0  0  0  0
  6 11  1  0  0  0  0
  8  7  1  0  0  0  0
  9 10  2  0  0  0  0
 11 37  1  6  0  0  0
 11  4  1  0  0  0  0
 12  1  1  0  0  0  0
 13  2  2  0  0  0  0
 14 65  1  1  0  0  0
 14 12  1  0  0  0  0
 14  8  1  0  0  0  0
 15 20  1  0  0  0  0
 17 13  1  6  0  0  0
 18 15  1  6  0  0  0
 18 21  1  0  0  0  0
 19 22  1  1  0  0  0
 19 17  1  0  0  0  0
 20 16  2  0  0  0  0
 20 17  1  0  0  0  0
 21 22  1  1  0  0  0
 21 19  1  0  0  0  0
 23 24  1  1  0  0  0
 23 18  1  0  0  0  0
 23 21  1  0  0  0  0
 25 26  1  0  0  0  0
 25 24  1  0  0  0  0
 27 32  1  6  0  0  0
 27 30  1  0  0  0  0
 30 29  1  6  0  0  0
 30 28  1  0  0  0  0
 31 26  1  1  0  0  0
 31 27  1  0  0  0  0
 31 30  1  0  0  0  0
 32 33  1  0  0  0  0
 33 34  1  0  0  0  0
 35 33  2  0  0  0  0
 37 36  1  6  0  0  0
 37 39  1  0  0  0  0
 39 38  1  6  0  0  0
 39 40  1  0  0  0  0
 40 44  1  0  0  0  0
 40 46  2  1  0  0  0
 42 40  1  0  0  0  0
 43 41  1  6  0  0  0
 43 42  1  0  0  0  0
 44 55  1  1  0  0  0
 45 43  1  0  0  0  0
 45 47  1  0  0  0  0
 47 50  1  1  0  0  0
 47 48  1  0  0  0  0
 48 44  1  0  0  0  0
 50 49  2  0  0  0  0
 50 51  1  0  0  0  0
 52 45  1  0  0  0  0
 53 52  1  0  0  0  0
 54 53  1  0  0  0  0
 56 55  1  0  0  0  0
 56 57  1  0  0  0  0
 58 59  2  0  0  0  0
 58 57  1  0  0  0  0
 60 58  1  0  0  0  0
 62 64  1  0  0  0  0
 62 63  1  0  0  0  0
 63 60  2  0  0  0  0
 64 61  1  6  0  0  0
 64 63  1  0  0  0  0
 66 68  1  6  0  0  0
 66 67  1  0  0  0  0
 66 65  1  0  0  0  0
M  END
>  <MODEL>
9

>  <REMARK>
 VINA RESULT:      -4.3      3.925     10.088
  Name = 
  20 active torsions:
  status: ('A' for Active; 'I' for Inactive)
    1  A    between atoms: N_1  and  C_10
    2  A    between atoms: O_2  and  C_44
    3  A    between atoms: O_2  and  C_68
    4  A    between atoms: P_4  and  C_65
    5  A    between atoms: C_5  and  C_15
    6  A    between atoms: C_7  and  C_28
    7  A    between atoms: C_7  and  C_38
    8  A    between atoms: C_9  and  C_64
    9  A    between atoms: C_10  and  C_20
   10  A    between atoms: O_11  and  C_44
   11  A    between atoms: O_11  and  C_62
   12  A    between atoms: C_14  and  O_42
   13  A    between atoms: C_15  and  C_27
   14  A    between atoms: C_16  and  S_32
   15  A    between atoms: C_20  and  C_28
   16  A    between atoms: S_32  and  N_43
   17  A    between atoms: O_42  and  C_66
   18  A    between atoms: C_47  and  C_59
   19  A    between atoms: C_47  and  C_65
   20  A    between atoms: C_49  and  C_52
                            x       y       z     vdW  Elec       q    Type
                         _______ _______ _______ _____ _____    ______ ____

>  <TORSDO>
F 20

$$$$
