=
 OpenBabel11072409103D

 65 69  0  0  1  0  0  0  0  0999 V2000
  192.3490  175.2100  143.3900 C   0  0  2  0  0  3  0  0  0  0  0  0
  191.5540  175.3870  145.8050 N   0  0  0  0  0  0  0  0  0  0  0  0
  195.9950  176.6430  144.5970 O   0  0  0  0  0  0  0  0  0  0  0  0
  189.4800  174.5320  146.5210 N   0  0  0  0  0  1  0  0  0  0  0  0
  193.1420  176.0700  142.3930 C   0  0  0  0  0  2  0  0  0  0  0  0
  194.8230  176.3730  144.2170 C   0  0  0  0  0  0  0  0  0  0  0  0
  190.8510  175.1860  143.0350 C   0  0  1  0  0  0  0  0  0  0  0  0
  193.7470  176.1800  145.2080 C   0  0  0  0  0  0  0  0  0  0  0  0
  194.5310  176.2250  142.8210 N   0  0  0  0  0  0  0  0  0  0  0  0
  192.5630  175.6690  144.8230 C   0  0  0  0  0  0  0  0  0  0  0  0
  190.4090  174.8640  145.4940 C   0  0  0  0  0  0  0  0  0  0  0  0
  190.0880  174.5870  144.1270 N   0  0  0  0  0  2  0  0  0  0  0  0
  190.3920  176.4910  142.8230 O   0  0  0  0  0  1  0  0  0  0  0  0
  193.9970  176.5380  146.6380 C   0  0  0  0  0  1  0  0  0  0  0  0
  195.6210  176.1170  141.8500 C   0  0  0  0  0  2  0  0  0  0  0  0
  195.8800  174.6660  141.4350 C   0  0  0  0  0  2  0  0  0  0  0  0
  197.0250  174.0180  142.2080 C   0  0  0  0  0  2  0  0  0  0  0  0
  194.8190  172.1520  145.3630 C   0  0  0  0  0  2  0  0  0  0  0  0
  194.4740  171.7360  143.9390 C   0  0  2  0  0  3  0  0  0  0  0  0
  196.7390  173.4340  144.5480 N   0  0  0  0  0  2  0  0  0  0  0  0
  196.3240  172.3820  145.4750 C   0  0  0  0  0  2  0  0  0  0  0  0
  195.0270  172.7520  142.9430 C   0  0  0  0  0  2  0  0  0  0  0  0
  196.5210  172.9660  143.1800 C   0  0  1  0  0  3  0  0  0  0  0  0
  192.9670  171.6480  143.7910 C   0  0  0  0  0  2  0  0  0  0  0  0
  192.2570  168.1660  142.9080 O   0  0  0  0  0  0  0  0  0  0  0  0
  192.5450  170.2560  143.8720 N   0  0  0  0  0  2  0  0  0  0  0  0
  192.6070  169.3670  142.7580 C   0  0  0  0  0  0  0  0  0  0  0  0
  193.1110  169.8350  141.4280 C   0  0  0  0  0  2  0  0  0  0  0  0
  191.9630  170.2860  140.5450 C   0  0  0  0  0  2  0  0  0  0  0  0
  191.9110  169.4250  139.2940 C   0  0  0  0  0  2  0  0  0  0  0  0
  191.9150  171.5950  138.3230 O   0  0  0  0  0  0  0  0  0  0  0  0
  193.3620  169.8900  137.2970 C   0  0  0  0  0  0  0  0  0  0  0  0
  193.4900  172.7240  136.8120 C   0  0  0  0  0  2  0  0  0  0  0  0
  195.7210  171.4490  139.5340 C   0  0  0  0  0  2  0  0  0  0  0  0
  194.4390  172.8130  137.9960 C   0  0  0  0  0  2  0  0  0  0  0  0
  194.6000  170.2600  137.8540 O   0  0  0  0  0  0  0  0  0  0  0  0
  194.8870  171.4710  138.5040 C   0  0  0  0  0  0  0  0  0  0  0  0
  191.2800  172.1580  136.1340 O   0  0  0  0  0  1  0  0  0  0  0  0
  192.0200  170.2180  137.9680 C   0  0  1  0  0  0  0  0  0  0  0  0
  193.3820  169.1390  136.2830 O   0  0  0  0  0  0  0  0  0  0  0  0
  192.0330  172.5330  137.2520 C   0  0  1  0  0  0  0  0  0  0  0  0
  190.9150  169.8820  137.1270 O   0  0  0  0  0  0  0  0  0  0  0  0
  189.7790  169.5120  137.8740 C   0  0  0  0  0  1  0  0  0  0  0  0
  191.4770  173.8740  137.7270 C   0  0  0  0  0  2  0  0  0  0  0  0
  190.2550  174.1630  137.1180 O   0  0  0  0  0  1  0  0  0  0  0  0
  190.6530  174.3540  141.7690 C   0  0  0  0  0  2  0  0  0  0  0  0
  189.2450  174.0400  141.5580 N   0  0  0  0  0  0  0  0  0  0  0  0
  188.6130  172.4740  139.7970 C   0  0  0  0  0  1  0  0  0  0  0  0
  189.1340  172.6260  141.2120 C   0  0  0  0  0  2  0  0  0  0  0  0
  188.7140  174.8960  140.4840 C   0  0  0  0  0  2  0  0  0  0  0  0
  187.3580  175.5400  140.7890 C   0  0  0  0  0  2  0  0  0  0  0  0
  187.5250  176.8560  141.3010 O   0  0  0  0  0  0  0  0  0  0  0  0
  186.5790  177.4640  142.1270 C   0  0  0  0  0  0  0  0  0  0  0  0
  182.9820  178.1240  142.1400 F   0  0  0  0  0  0  0  0  0  0  0  0
  184.6210  178.9200  143.5990 C   0  0  0  0  0  0  0  0  0  0  0  0
  185.3200  177.5710  141.6890 C   0  0  0  0  0  3  0  0  0  0  0  0
  183.6650  179.5230  144.3470 F   0  0  0  0  0  0  0  0  0  0  0  0
  186.9440  177.9460  143.5170 C   0  0  1  0  0  3  0  0  0  0  0  0
  184.2850  178.2320  142.5030 C   0  0  0  0  0  0  0  0  0  0  0  0
  186.0700  179.1370  143.9440 C   0  0  0  0  0  2  0  0  0  0  0  0
  186.7960  176.8990  144.4340 O   0  0  0  0  0  0  0  0  0  0  0  0
  187.5290  177.2950  145.5540 C   0  0  0  0  0  2  0  0  0  0  0  0
  186.8110  176.9930  146.7130 O   0  0  0  0  0  0  0  0  0  0  0  0
  185.0040  178.2740  147.5750 C   0  0  0  0  0  1  0  0  0  0  0  0
  186.4850  178.2360  147.2550 C   0  0  0  0  0  2  0  0  0  0  0  0
  1  5  1  6  0  0  0
  1 10  1  0  0  0  0
  5  9  1  0  0  0  0
  6  3  2  0  0  0  0
  6  8  1  0  0  0  0
  7 13  1  6  0  0  0
  7  1  1  0  0  0  0
  7 12  1  0  0  0  0
  8 14  1  0  0  0  0
  9  6  1  0  0  0  0
 10  8  2  0  0  0  0
 10  2  1  0  0  0  0
 11  2  2  0  0  0  0
 11  4  1  0  0  0  0
 12 11  1  0  0  0  0
 15  9  1  0  0  0  0
 16 15  1  0  0  0  0
 16 17  1  0  0  0  0
 18 21  1  0  0  0  0
 19 24  1  1  0  0  0
 19 18  1  0  0  0  0
 20 21  1  0  0  0  0
 22 23  1  0  0  0  0
 22 19  1  0  0  0  0
 23 17  1  6  0  0  0
 23 20  1  0  0  0  0
 24 26  1  0  0  0  0
 27 25  2  0  0  0  0
 27 26  1  0  0  0  0
 28 27  1  0  0  0  0
 29 28  1  0  0  0  0
 30 29  1  0  0  0  0
 32 36  1  0  0  0  0
 32 39  1  0  0  0  0
 33 41  1  0  0  0  0
 33 35  1  0  0  0  0
 35 37  1  0  0  0  0
 36 37  1  0  0  0  0
 37 34  2  0  0  0  0
 39 31  1  0  0  0  0
 39 30  1  1  0  0  0
 40 32  2  0  0  0  0
 41 38  1  6  0  0  0
 41 44  1  0  0  0  0
 41 31  1  0  0  0  0
 42 43  1  0  0  0  0
 42 39  1  0  0  0  0
 45 44  1  0  0  0  0
 46  7  1  0  0  0  0
 47 46  1  0  0  0  0
 48 49  1  0  0  0  0
 49 47  1  0  0  0  0
 50 51  1  0  0  0  0
 50 47  1  0  0  0  0
 51 52  1  0  0  0  0
 52 53  1  0  0  0  0
 53 58  1  0  0  0  0
 54 59  1  0  0  0  0
 55 60  1  0  0  0  0
 55 57  1  0  0  0  0
 56 53  2  0  0  0  0
 56 59  1  0  0  0  0
 58 60  1  0  0  0  0
 58 61  1  1  0  0  0
 59 55  2  0  0  0  0
 61 62  1  0  0  0  0
 62 63  1  0  0  0  0
 63 65  1  0  0  0  0
 65 64  1  0  0  0  0
M  END
>  <MODEL>
1

>  <REMARK>
 VINA RESULT:      -6.0      0.000      0.000
  Name = 
  23 active torsions:
  status: ('A' for Active; 'I' for Inactive)
    1  A    between atoms: C_3  and  C_5
    2  A    between atoms: C_3  and  C_23
    3  A    between atoms: C_5  and  C_58
    4  A    between atoms: N_7  and  C_13
    5  A    between atoms: N_7  and  C_40
    6  A    between atoms: N_7  and  C_63
    7  A    between atoms: C_11  and  O_26
    8  A    between atoms: O_12  and  C_49
    9  A    between atoms: C_13  and  C_31
   10  A    between atoms: C_15  and  N_44
   11  A    between atoms: C_15  and  C_61
   12  A    between atoms: O_19  and  C_45
   13  A    between atoms: O_19  and  C_52
   14  A    between atoms: C_23  and  C_49
   15  A    between atoms: O_26  and  C_35
   16  A    between atoms: N_29  and  C_32
   17  A    between atoms: C_30  and  C_32
   18  A    between atoms: C_35  and  C_40
   19  A    between atoms: C_39  and  C_57
   20  A    between atoms: O_43  and  C_45
   21  A    between atoms: O_43  and  C_56
   22  A    between atoms: C_47  and  C_61
   23  A    between atoms: C_47  and  C_65
                            x       y       z     vdW  Elec       q    Type
                         _______ _______ _______ _____ _____    ______ ____

>  <TORSDO>
F 23

$$$$
=
 OpenBabel11072409103D

 65 69  0  0  1  0  0  0  0  0999 V2000
  190.8670  175.6330  146.1030 C   0  0  2  0  0  3  0  0  0  0  0  0
  192.4740  176.7250  147.7520 N   0  0  0  0  0  0  0  0  0  0  0  0
  194.0960  173.9000  144.2670 O   0  0  0  0  0  0  0  0  0  0  0  0
  191.7310  177.9020  149.6520 N   0  0  0  0  0  1  0  0  0  0  0  0
  190.7840  175.4020  144.5850 C   0  0  0  0  0  2  0  0  0  0  0  0
  193.1380  174.5760  144.7320 C   0  0  0  0  0  0  0  0  0  0  0  0
  189.8710  176.7160  146.5560 C   0  0  1  0  0  0  0  0  0  0  0  0
  193.3420  175.4370  145.9130 C   0  0  0  0  0  0  0  0  0  0  0  0
  191.8380  174.4940  144.1330 N   0  0  0  0  0  0  0  0  0  0  0  0
  192.2800  175.9720  146.5440 C   0  0  0  0  0  0  0  0  0  0  0  0
  191.4840  177.2340  148.4190 C   0  0  0  0  0  0  0  0  0  0  0  0
  190.1430  177.1000  147.9380 N   0  0  0  0  0  2  0  0  0  0  0  0
  189.9940  177.8450  145.7380 O   0  0  0  0  0  1  0  0  0  0  0  0
  194.7310  175.6860  146.4070 C   0  0  0  0  0  1  0  0  0  0  0  0
  191.5410  173.4400  143.1630 C   0  0  0  0  0  2  0  0  0  0  0  0
  190.5790  172.3920  143.7310 C   0  0  0  0  0  2  0  0  0  0  0  0
  189.8740  171.5780  142.6490 C   0  0  0  0  0  2  0  0  0  0  0  0
  191.3280  170.0330  138.9340 C   0  0  0  0  0  2  0  0  0  0  0  0
  191.0210  171.5240  138.9890 C   0  0  2  0  0  3  0  0  0  0  0  0
  190.9770  169.8470  141.3500 N   0  0  0  0  0  2  0  0  0  0  0  0
  191.9240  169.5870  140.2670 C   0  0  0  0  0  2  0  0  0  0  0  0
  190.1470  171.8390  140.2010 C   0  0  0  0  0  2  0  0  0  0  0  0
  190.7930  171.2920  141.4730 C   0  0  1  0  0  3  0  0  0  0  0  0
  190.2990  171.9360  137.7210 C   0  0  0  0  0  2  0  0  0  0  0  0
  192.7430  172.2120  135.0090 O   0  0  0  0  0  0  0  0  0  0  0  0
  191.1220  171.6240  136.5610 N   0  0  0  0  0  2  0  0  0  0  0  0
  192.0360  172.5610  135.9920 C   0  0  0  0  0  0  0  0  0  0  0  0
  192.1860  173.9350  136.5670 C   0  0  0  0  0  2  0  0  0  0  0  0
  193.6340  174.3840  136.5200 C   0  0  0  0  0  2  0  0  0  0  0  0
  194.0160  175.0210  137.8460 C   0  0  0  0  0  2  0  0  0  0  0  0
  195.4170  173.1010  137.8560 O   0  0  0  0  0  0  0  0  0  0  0  0
  196.3610  175.1980  138.7300 C   0  0  0  0  0  0  0  0  0  0  0  0
  197.8520  172.8350  138.0420 C   0  0  0  0  0  2  0  0  0  0  0  0
  197.5010  175.3760  135.3150 C   0  0  0  0  0  2  0  0  0  0  0  0
  197.9410  173.3880  136.6290 C   0  0  0  0  0  2  0  0  0  0  0  0
  197.1160  175.6040  137.6160 O   0  0  0  0  0  0  0  0  0  0  0  0
  197.4570  174.8060  136.5120 C   0  0  0  0  0  0  0  0  0  0  0  0
  196.3690  172.0640  139.7350 O   0  0  0  0  0  1  0  0  0  0  0  0
  195.1370  174.2770  138.6130 C   0  0  1  0  0  0  0  0  0  0  0  0
  196.6280  175.7360  139.8410 O   0  0  0  0  0  0  0  0  0  0  0  0
  196.4640  172.2650  138.3540 C   0  0  1  0  0  0  0  0  0  0  0  0
  194.6480  173.8840  139.8960 O   0  0  0  0  0  0  0  0  0  0  0  0
  193.4310  174.5210  140.2120 C   0  0  0  0  0  1  0  0  0  0  0  0
  196.3320  170.8910  137.6990 C   0  0  0  0  0  2  0  0  0  0  0  0
  195.4310  170.9200  136.6330 O   0  0  0  0  0  1  0  0  0  0  0  0
  188.4520  176.1580  146.4600 C   0  0  0  0  0  2  0  0  0  0  0  0
  187.4750  177.2260  146.2830 N   0  0  0  0  0  0  0  0  0  0  0  0
  186.3780  178.6390  147.9410 C   0  0  0  0  0  1  0  0  0  0  0  0
  186.5750  177.2260  147.4330 C   0  0  0  0  0  2  0  0  0  0  0  0
  186.7370  177.0040  145.0270 C   0  0  0  0  0  2  0  0  0  0  0  0
  187.4630  177.4800  143.7640 C   0  0  0  0  0  2  0  0  0  0  0  0
  187.7010  176.3940  142.8770 O   0  0  0  0  0  0  0  0  0  0  0  0
  187.3390  176.4340  141.5310 C   0  0  0  0  0  0  0  0  0  0  0  0
  187.6910  174.3550  138.5430 F   0  0  0  0  0  0  0  0  0  0  0  0
  186.8980  176.5440  138.7170 C   0  0  0  0  0  0  0  0  0  0  0  0
  187.7660  175.4580  140.7230 C   0  0  0  0  0  3  0  0  0  0  0  0
  186.6000  176.5430  137.3950 F   0  0  0  0  0  0  0  0  0  0  0  0
  186.4350  177.5250  140.9930 C   0  0  1  0  0  3  0  0  0  0  0  0
  187.4430  175.4630  139.2850 C   0  0  0  0  0  0  0  0  0  0  0  0
  186.7250  177.8120  139.5100 C   0  0  0  0  0  2  0  0  0  0  0  0
  185.0960  177.1470  141.1470 O   0  0  0  0  0  0  0  0  0  0  0  0
  184.4790  178.2460  141.7470 C   0  0  0  0  0  2  0  0  0  0  0  0
  184.1280  177.9240  143.0600 O   0  0  0  0  0  0  0  0  0  0  0  0
  183.8070  178.9200  145.1950 C   0  0  0  0  0  1  0  0  0  0  0  0
  184.1450  179.1450  143.7340 C   0  0  0  0  0  2  0  0  0  0  0  0
  1  5  1  6  0  0  0
  1 10  1  0  0  0  0
  1  7  1  0  0  0  0
  2 11  2  0  0  0  0
  3  6  2  0  0  0  0
  6  8  1  0  0  0  0
  7 13  1  6  0  0  0
  7 12  1  0  0  0  0
  8 14  1  0  0  0  0
  8 10  2  0  0  0  0
  9  5  1  0  0  0  0
  9  6  1  0  0  0  0
 10  2  1  0  0  0  0
 11  4  1  0  0  0  0
 12 11  1  0  0  0  0
 15 16  1  0  0  0  0
 15  9  1  0  0  0  0
 17 16  1  0  0  0  0
 18 19  1  0  0  0  0
 18 21  1  0  0  0  0
 19 24  1  6  0  0  0
 19 22  1  0  0  0  0
 20 23  1  0  0  0  0
 21 20  1  0  0  0  0
 22 23  1  0  0  0  0
 23 17  1  1  0  0  0
 25 27  2  0  0  0  0
 26 24  1  0  0  0  0
 27 26  1  0  0  0  0
 27 28  1  0  0  0  0
 29 28  1  0  0  0  0
 29 30  1  0  0  0  0
 31 41  1  0  0  0  0
 31 39  1  0  0  0  0
 32 40  2  0  0  0  0
 33 41  1  0  0  0  0
 34 37  2  0  0  0  0
 35 33  1  0  0  0  0
 36 32  1  0  0  0  0
 37 35  1  0  0  0  0
 37 36  1  0  0  0  0
 39 30  1  6  0  0  0
 39 32  1  0  0  0  0
 39 42  1  0  0  0  0
 41 38  1  1  0  0  0
 42 43  1  0  0  0  0
 44 41  1  0  0  0  0
 45 44  1  0  0  0  0
 46  7  1  0  0  0  0
 47 46  1  0  0  0  0
 47 49  1  0  0  0  0
 49 48  1  0  0  0  0
 50 47  1  0  0  0  0
 51 50  1  0  0  0  0
 52 51  1  0  0  0  0
 53 52  1  0  0  0  0
 54 59  1  0  0  0  0
 55 59  2  0  0  0  0
 55 60  1  0  0  0  0
 56 53  2  0  0  0  0
 57 55  1  0  0  0  0
 58 61  1  6  0  0  0
 58 53  1  0  0  0  0
 59 56  1  0  0  0  0
 60 58  1  0  0  0  0
 61 62  1  0  0  0  0
 62 63  1  0  0  0  0
 63 65  1  0  0  0  0
 65 64  1  0  0  0  0
M  END
>  <MODEL>
2

>  <REMARK>
 VINA RESULT:      -5.0      2.768      5.516
  Name = 
  23 active torsions:
  status: ('A' for Active; 'I' for Inactive)
    1  A    between atoms: C_3  and  C_5
    2  A    between atoms: C_3  and  C_23
    3  A    between atoms: C_5  and  C_58
    4  A    between atoms: N_7  and  C_13
    5  A    between atoms: N_7  and  C_40
    6  A    between atoms: N_7  and  C_63
    7  A    between atoms: C_11  and  O_26
    8  A    between atoms: O_12  and  C_49
    9  A    between atoms: C_13  and  C_31
   10  A    between atoms: C_15  and  N_44
   11  A    between atoms: C_15  and  C_61
   12  A    between atoms: O_19  and  C_45
   13  A    between atoms: O_19  and  C_52
   14  A    between atoms: C_23  and  C_49
   15  A    between atoms: O_26  and  C_35
   16  A    between atoms: N_29  and  C_32
   17  A    between atoms: C_30  and  C_32
   18  A    between atoms: C_35  and  C_40
   19  A    between atoms: C_39  and  C_57
   20  A    between atoms: O_43  and  C_45
   21  A    between atoms: O_43  and  C_56
   22  A    between atoms: C_47  and  C_61
   23  A    between atoms: C_47  and  C_65
                            x       y       z     vdW  Elec       q    Type
                         _______ _______ _______ _____ _____    ______ ____

>  <TORSDO>
F 23

$$$$
=
 OpenBabel11072409103D

 65 69  0  0  1  0  0  0  0  0999 V2000
  195.3470  172.5130  141.6140 C   0  0  2  0  0  3  0  0  0  0  0  0
  194.7870  174.5360  140.1690 N   0  0  0  0  0  0  0  0  0  0  0  0
  197.8960  174.8920  143.7700 O   0  0  0  0  0  0  0  0  0  0  0  0
  193.0680  174.5050  138.5600 N   0  0  0  0  0  1  0  0  0  0  0  0
  196.6050  171.8560  142.2060 C   0  0  0  0  0  2  0  0  0  0  0  0
  197.2470  174.1400  142.9930 C   0  0  0  0  0  0  0  0  0  0  0  0
  194.7850  171.6840  140.4450 C   0  0  1  0  0  0  0  0  0  0  0  0
  196.4780  174.7160  141.8730 C   0  0  0  0  0  0  0  0  0  0  0  0
  197.2290  172.7220  143.2060 N   0  0  0  0  0  0  0  0  0  0  0  0
  195.6080  173.9480  141.1910 C   0  0  0  0  0  0  0  0  0  0  0  0
  193.9090  173.8500  139.5040 C   0  0  0  0  0  0  0  0  0  0  0  0
  193.7590  172.4470  139.7390 N   0  0  0  0  0  2  0  0  0  0  0  0
  195.8130  171.3700  139.5490 O   0  0  0  0  0  1  0  0  0  0  0  0
  196.6630  176.1580  141.5230 C   0  0  0  0  0  1  0  0  0  0  0  0
  197.7290  172.1620  144.4610 C   0  0  0  0  0  2  0  0  0  0  0  0
  196.7860  172.4460  145.6330 C   0  0  0  0  0  2  0  0  0  0  0  0
  195.6190  171.4670  145.7140 C   0  0  0  0  0  2  0  0  0  0  0  0
  192.3190  173.9760  144.6570 C   0  0  0  0  0  2  0  0  0  0  0  0
  192.0830  172.4710  144.6210 C   0  0  2  0  0  3  0  0  0  0  0  0
  194.5140  173.6290  145.6860 N   0  0  0  0  0  2  0  0  0  0  0  0
  193.2320  174.3180  145.8320 C   0  0  0  0  0  2  0  0  0  0  0  0
  193.4160  171.7270  144.6130 C   0  0  0  0  0  2  0  0  0  0  0  0
  194.2840  172.1880  145.7820 C   0  0  1  0  0  3  0  0  0  0  0  0
  191.2960  172.1150  143.3740 C   0  0  0  0  0  2  0  0  0  0  0  0
  190.8990  174.7810  140.8960 O   0  0  0  0  0  0  0  0  0  0  0  0
  191.5780  173.0810  142.3210 N   0  0  0  0  0  2  0  0  0  0  0  0
  190.5770  173.9440  141.7810 C   0  0  0  0  0  0  0  0  0  0  0  0
  189.1650  173.8880  142.2750 C   0  0  0  0  0  2  0  0  0  0  0  0
  188.4020  175.1350  141.8700 C   0  0  0  0  0  2  0  0  0  0  0  0
  187.2310  175.3470  142.8150 C   0  0  0  0  0  2  0  0  0  0  0  0
  186.3150  176.5870  144.6250 O   0  0  0  0  0  0  0  0  0  0  0  0
  188.6650  177.0130  144.0330 C   0  0  0  0  0  0  0  0  0  0  0  0
  187.3580  177.8490  146.4560 C   0  0  0  0  0  2  0  0  0  0  0  0
  189.1090  174.5450  146.6240 C   0  0  0  0  0  2  0  0  0  0  0  0
  187.7540  176.5070  147.0510 C   0  0  0  0  0  2  0  0  0  0  0  0
  189.3040  176.2500  145.0270 O   0  0  0  0  0  0  0  0  0  0  0  0
  188.7040  175.7290  146.1850 C   0  0  0  0  0  0  0  0  0  0  0  0
  186.0820  178.9200  144.7570 O   0  0  0  0  0  1  0  0  0  0  0  0
  187.2390  176.7130  143.5460 C   0  0  1  0  0  0  0  0  0  0  0  0
  189.3570  177.8810  143.4310 O   0  0  0  0  0  0  0  0  0  0  0  0
  186.1830  177.7260  145.4790 C   0  0  1  0  0  0  0  0  0  0  0  0
  186.7630  177.7240  142.6570 O   0  0  0  0  0  0  0  0  0  0  0  0
  185.6210  177.3040  141.9460 C   0  0  0  0  0  1  0  0  0  0  0  0
  184.8870  177.5800  146.2740 C   0  0  0  0  0  2  0  0  0  0  0  0
  184.2150  178.7990  146.3770 O   0  0  0  0  0  1  0  0  0  0  0  0
  194.1670  170.4010  140.9970 C   0  0  0  0  0  2  0  0  0  0  0  0
  192.9760  170.0220  140.2450 N   0  0  0  0  0  0  0  0  0  0  0  0
  192.7510  168.8370  142.3650 C   0  0  0  0  0  1  0  0  0  0  0  0
  192.0230  169.4090  141.1660 C   0  0  0  0  0  2  0  0  0  0  0  0
  193.3580  169.0890  139.1710 C   0  0  0  0  0  2  0  0  0  0  0  0
  193.0300  169.5720  137.7550 C   0  0  0  0  0  2  0  0  0  0  0  0
  191.6290  169.7500  137.5910 O   0  0  0  0  0  0  0  0  0  0  0  0
  191.0640  170.9800  137.2550 C   0  0  0  0  0  0  0  0  0  0  0  0
  189.0330  173.5790  138.8350 F   0  0  0  0  0  0  0  0  0  0  0  0
  189.6380  173.3570  136.5920 C   0  0  0  0  0  0  0  0  0  0  0  0
  190.2800  171.5910  138.1500 C   0  0  0  0  0  3  0  0  0  0  0  0
  189.0420  174.5420  136.3120 F   0  0  0  0  0  0  0  0  0  0  0  0
  191.3700  171.6490  135.9300 C   0  0  1  0  0  3  0  0  0  0  0  0
  189.6300  172.8770  137.8400 C   0  0  0  0  0  0  0  0  0  0  0  0
  190.1990  172.5320  135.4650 C   0  0  0  0  0  2  0  0  0  0  0  0
  192.5280  172.4260  136.0490 O   0  0  0  0  0  0  0  0  0  0  0  0
  193.1610  172.3210  134.8090 C   0  0  0  0  0  2  0  0  0  0  0  0
  194.2190  171.4150  134.8990 O   0  0  0  0  0  0  0  0  0  0  0  0
  195.2750  173.5320  135.1290 C   0  0  0  0  0  1  0  0  0  0  0  0
  195.3400  172.1480  134.5130 C   0  0  0  0  0  2  0  0  0  0  0  0
  1  5  1  6  0  0  0
  2 10  1  0  0  0  0
  4 11  1  0  0  0  0
  5  9  1  0  0  0  0
  6  9  1  0  0  0  0
  6  3  2  0  0  0  0
  7 13  1  6  0  0  0
  7 46  1  0  0  0  0
  7  1  1  0  0  0  0
  8  6  1  0  0  0  0
  9 15  1  0  0  0  0
 10  1  1  0  0  0  0
 10  8  2  0  0  0  0
 11 12  1  0  0  0  0
 11  2  2  0  0  0  0
 12  7  1  0  0  0  0
 14  8  1  0  0  0  0
 15 16  1  0  0  0  0
 16 17  1  0  0  0  0
 18 21  1  0  0  0  0
 19 24  1  6  0  0  0
 19 18  1  0  0  0  0
 20 23  1  0  0  0  0
 20 21  1  0  0  0  0
 22 19  1  0  0  0  0
 22 23  1  0  0  0  0
 23 17  1  6  0  0  0
 25 27  2  0  0  0  0
 26 24  1  0  0  0  0
 27 28  1  0  0  0  0
 27 26  1  0  0  0  0
 29 28  1  0  0  0  0
 29 30  1  0  0  0  0
 31 41  1  0  0  0  0
 32 36  1  0  0  0  0
 33 35  1  0  0  0  0
 36 37  1  0  0  0  0
 37 34  2  0  0  0  0
 37 35  1  0  0  0  0
 39 30  1  6  0  0  0
 39 32  1  0  0  0  0
 39 31  1  0  0  0  0
 40 32  2  0  0  0  0
 41 38  1  6  0  0  0
 41 44  1  0  0  0  0
 41 33  1  0  0  0  0
 42 39  1  0  0  0  0
 43 42  1  0  0  0  0
 44 45  1  0  0  0  0
 47 46  1  0  0  0  0
 47 49  1  0  0  0  0
 49 48  1  0  0  0  0
 50 47  1  0  0  0  0
 51 50  1  0  0  0  0
 52 51  1  0  0  0  0
 53 52  1  0  0  0  0
 53 56  2  0  0  0  0
 55 59  2  0  0  0  0
 57 55  1  0  0  0  0
 58 61  1  1  0  0  0
 58 53  1  0  0  0  0
 59 56  1  0  0  0  0
 59 54  1  0  0  0  0
 60 58  1  0  0  0  0
 60 55  1  0  0  0  0
 62 63  1  0  0  0  0
 62 61  1  0  0  0  0
 65 63  1  0  0  0  0
 65 64  1  0  0  0  0
M  END
>  <MODEL>
3

>  <REMARK>
 VINA RESULT:      -4.9      2.577      8.649
  Name = 
  23 active torsions:
  status: ('A' for Active; 'I' for Inactive)
    1  A    between atoms: C_3  and  C_5
    2  A    between atoms: C_3  and  C_23
    3  A    between atoms: C_5  and  C_58
    4  A    between atoms: N_7  and  C_13
    5  A    between atoms: N_7  and  C_40
    6  A    between atoms: N_7  and  C_63
    7  A    between atoms: C_11  and  O_26
    8  A    between atoms: O_12  and  C_49
    9  A    between atoms: C_13  and  C_31
   10  A    between atoms: C_15  and  N_44
   11  A    between atoms: C_15  and  C_61
   12  A    between atoms: O_19  and  C_45
   13  A    between atoms: O_19  and  C_52
   14  A    between atoms: C_23  and  C_49
   15  A    between atoms: O_26  and  C_35
   16  A    between atoms: N_29  and  C_32
   17  A    between atoms: C_30  and  C_32
   18  A    between atoms: C_35  and  C_40
   19  A    between atoms: C_39  and  C_57
   20  A    between atoms: O_43  and  C_45
   21  A    between atoms: O_43  and  C_56
   22  A    between atoms: C_47  and  C_61
   23  A    between atoms: C_47  and  C_65
                            x       y       z     vdW  Elec       q    Type
                         _______ _______ _______ _____ _____    ______ ____

>  <TORSDO>
F 23

$$$$
=
 OpenBabel11072409103D

 65 69  0  0  1  0  0  0  0  0999 V2000
  189.9080  173.6490  139.2980 C   0  0  2  0  0  3  0  0  0  0  0  0
  188.7880  173.9290  137.0260 N   0  0  0  0  0  0  0  0  0  0  0  0
  192.6510  171.1740  137.5220 O   0  0  0  0  0  0  0  0  0  0  0  0
  187.0550  175.4790  136.6520 N   0  0  0  0  0  1  0  0  0  0  0  0
  190.4840  172.5020  140.1440 C   0  0  0  0  0  2  0  0  0  0  0  0
  191.7030  171.7920  138.0810 C   0  0  0  0  0  0  0  0  0  0  0  0
  188.5700  174.1470  139.8740 C   0  0  1  0  0  0  0  0  0  0  0  0
  190.6370  172.4060  137.2670 C   0  0  0  0  0  0  0  0  0  0  0  0
  191.6680  171.9240  139.5080 N   0  0  0  0  0  0  0  0  0  0  0  0
  189.7610  173.2530  137.8390 C   0  0  0  0  0  0  0  0  0  0  0  0
  187.9420  174.7800  137.5190 C   0  0  0  0  0  0  0  0  0  0  0  0
  187.9200  175.0450  138.9250 N   0  0  0  0  0  2  0  0  0  0  0  0
  187.7250  173.0580  140.1210 O   0  0  0  0  0  1  0  0  0  0  0  0
  190.5570  172.0930  135.8070 C   0  0  0  0  0  1  0  0  0  0  0  0
  192.8470  171.5880  140.3060 C   0  0  0  0  0  2  0  0  0  0  0  0
  192.6780  170.2620  141.0520 C   0  0  0  0  0  2  0  0  0  0  0  0
  193.2320  169.0670  140.2820 C   0  0  0  0  0  2  0  0  0  0  0  0
  197.2910  169.3950  141.5930 C   0  0  0  0  0  2  0  0  0  0  0  0
  196.2600  168.9750  142.6340 C   0  0  2  0  0  3  0  0  0  0  0  0
  195.6120  169.2050  139.8210 N   0  0  0  0  0  2  0  0  0  0  0  0
  196.9400  168.7650  140.2480 C   0  0  0  0  0  2  0  0  0  0  0  0
  194.8510  169.2970  142.1410 C   0  0  0  0  0  2  0  0  0  0  0  0
  194.6210  168.6850  140.7610 C   0  0  1  0  0  3  0  0  0  0  0  0
  196.5250  169.7130  143.9320 C   0  0  0  0  0  2  0  0  0  0  0  0
  194.0540  171.6800  145.7840 O   0  0  0  0  0  0  0  0  0  0  0  0
  195.2670  170.1730  144.5030 N   0  0  0  0  0  2  0  0  0  0  0  0
  195.1800  171.3170  145.3520 C   0  0  0  0  0  0  0  0  0  0  0  0
  196.4030  172.1050  145.7090 C   0  0  0  0  0  2  0  0  0  0  0  0
  196.1310  173.5940  145.6150 C   0  0  0  0  0  2  0  0  0  0  0  0
  196.7880  174.1560  144.3650 C   0  0  0  0  0  2  0  0  0  0  0  0
  194.4900  174.4350  143.8260 O   0  0  0  0  0  0  0  0  0  0  0  0
  196.0500  176.1810  143.0730 C   0  0  0  0  0  0  0  0  0  0  0  0
  193.1820  176.3970  143.1370 C   0  0  0  0  0  2  0  0  0  0  0  0
  194.9620  177.6180  146.1950 C   0  0  0  0  0  2  0  0  0  0  0  0
  193.3210  176.8940  144.5680 C   0  0  0  0  0  2  0  0  0  0  0  0
  195.8200  177.1520  144.0650 O   0  0  0  0  0  0  0  0  0  0  0  0
  194.7430  177.1760  144.9650 C   0  0  0  0  0  0  0  0  0  0  0  0
  193.5530  174.5550  141.6770 O   0  0  0  0  0  1  0  0  0  0  0  0
  195.7920  174.6840  143.3020 C   0  0  1  0  0  0  0  0  0  0  0  0
  196.6250  176.5560  142.0140 O   0  0  0  0  0  0  0  0  0  0  0  0
  193.3920  174.8820  143.0280 C   0  0  1  0  0  0  0  0  0  0  0  0
  195.9470  173.9320  142.0980 O   0  0  0  0  0  0  0  0  0  0  0  0
  197.1100  173.1360  142.1210 C   0  0  0  0  0  1  0  0  0  0  0  0
  192.1290  174.1690  143.5060 C   0  0  0  0  0  2  0  0  0  0  0  0
  192.2700  172.7820  143.4340 O   0  0  0  0  0  1  0  0  0  0  0  0
  188.8380  174.9000  141.1760 C   0  0  0  0  0  2  0  0  0  0  0  0
  187.6530  175.6210  141.6230 N   0  0  0  0  0  0  0  0  0  0  0  0
  186.6170  177.4910  140.4480 C   0  0  0  0  0  1  0  0  0  0  0  0
  187.8050  177.0290  141.2670 C   0  0  0  0  0  2  0  0  0  0  0  0
  187.5040  175.4520  143.0790 C   0  0  0  0  0  2  0  0  0  0  0  0
  187.4050  176.7600  143.8700 C   0  0  0  0  0  2  0  0  0  0  0  0
  188.6780  177.1460  144.3720 O   0  0  0  0  0  0  0  0  0  0  0  0
  189.2060  176.6240  145.5530 C   0  0  0  0  0  0  0  0  0  0  0  0
  192.1770  177.0540  147.6430 F   0  0  0  0  0  0  0  0  0  0  0  0
  190.5050  175.4320  147.7930 C   0  0  0  0  0  0  0  0  0  0  0  0
  190.4260  177.0160  145.9380 C   0  0  0  0  0  3  0  0  0  0  0  0
  191.0800  174.9400  148.9170 F   0  0  0  0  0  0  0  0  0  0  0  0
  188.4040  175.6760  146.4210 C   0  0  1  0  0  3  0  0  0  0  0  0
  191.0500  176.4760  147.1580 C   0  0  0  0  0  0  0  0  0  0  0  0
  189.3210  174.7170  147.1990 C   0  0  0  0  0  2  0  0  0  0  0  0
  187.6170  176.4080  147.3180 O   0  0  0  0  0  0  0  0  0  0  0  0
  186.6980  177.0890  146.5190 C   0  0  0  0  0  2  0  0  0  0  0  0
  186.1380  178.1420  147.2450 O   0  0  0  0  0  0  0  0  0  0  0  0
  184.2750  178.7690  145.9080 C   0  0  0  0  0  1  0  0  0  0  0  0
  184.7610  177.9700  147.1010 C   0  0  0  0  0  2  0  0  0  0  0  0
  1  7  1  0  0  0  0
  1  5  1  1  0  0  0
  2 11  2  0  0  0  0
  2 10  1  0  0  0  0
  3  6  2  0  0  0  0
  4 11  1  0  0  0  0
  6  9  1  0  0  0  0
  7 13  1  1  0  0  0
  7 46  1  0  0  0  0
  8 10  2  0  0  0  0
  8  6  1  0  0  0  0
  9  5  1  0  0  0  0
  9 15  1  0  0  0  0
 10  1  1  0  0  0  0
 11 12  1  0  0  0  0
 12  7  1  0  0  0  0
 14  8  1  0  0  0  0
 15 16  1  0  0  0  0
 17 16  1  0  0  0  0
 18 19  1  0  0  0  0
 19 24  1  1  0  0  0
 20 21  1  0  0  0  0
 20 23  1  0  0  0  0
 21 18  1  0  0  0  0
 22 19  1  0  0  0  0
 23 17  1  6  0  0  0
 23 22  1  0  0  0  0
 24 26  1  0  0  0  0
 26 27  1  0  0  0  0
 27 28  1  0  0  0  0
 27 25  2  0  0  0  0
 29 28  1  0  0  0  0
 30 29  1  0  0  0  0
 32 39  1  0  0  0  0
 32 36  1  0  0  0  0
 33 35  1  0  0  0  0
 35 37  1  0  0  0  0
 36 37  1  0  0  0  0
 37 34  2  0  0  0  0
 39 31  1  0  0  0  0
 39 30  1  1  0  0  0
 40 32  2  0  0  0  0
 41 38  1  6  0  0  0
 41 33  1  0  0  0  0
 41 44  1  0  0  0  0
 41 31  1  0  0  0  0
 42 43  1  0  0  0  0
 42 39  1  0  0  0  0
 45 44  1  0  0  0  0
 46 47  1  0  0  0  0
 47 50  1  0  0  0  0
 48 49  1  0  0  0  0
 49 47  1  0  0  0  0
 50 51  1  0  0  0  0
 51 52  1  0  0  0  0
 52 53  1  0  0  0  0
 53 56  2  0  0  0  0
 53 58  1  0  0  0  0
 55 57  1  0  0  0  0
 56 59  1  0  0  0  0
 58 60  1  0  0  0  0
 58 61  1  1  0  0  0
 59 54  1  0  0  0  0
 59 55  2  0  0  0  0
 60 55  1  0  0  0  0
 62 63  1  0  0  0  0
 62 61  1  0  0  0  0
 64 65  1  0  0  0  0
 65 63  1  0  0  0  0
M  END
>  <MODEL>
4

>  <REMARK>
 VINA RESULT:      -4.8      2.962      6.690
  Name = 
  23 active torsions:
  status: ('A' for Active; 'I' for Inactive)
    1  A    between atoms: C_3  and  C_5
    2  A    between atoms: C_3  and  C_23
    3  A    between atoms: C_5  and  C_58
    4  A    between atoms: N_7  and  C_13
    5  A    between atoms: N_7  and  C_40
    6  A    between atoms: N_7  and  C_63
    7  A    between atoms: C_11  and  O_26
    8  A    between atoms: O_12  and  C_49
    9  A    between atoms: C_13  and  C_31
   10  A    between atoms: C_15  and  N_44
   11  A    between atoms: C_15  and  C_61
   12  A    between atoms: O_19  and  C_45
   13  A    between atoms: O_19  and  C_52
   14  A    between atoms: C_23  and  C_49
   15  A    between atoms: O_26  and  C_35
   16  A    between atoms: N_29  and  C_32
   17  A    between atoms: C_30  and  C_32
   18  A    between atoms: C_35  and  C_40
   19  A    between atoms: C_39  and  C_57
   20  A    between atoms: O_43  and  C_45
   21  A    between atoms: O_43  and  C_56
   22  A    between atoms: C_47  and  C_61
   23  A    between atoms: C_47  and  C_65
                            x       y       z     vdW  Elec       q    Type
                         _______ _______ _______ _____ _____    ______ ____

>  <TORSDO>
F 23

$$$$
=
 OpenBabel11072409103D

 65 69  0  0  1  0  0  0  0  0999 V2000
  187.9730  177.3280  144.9220 C   0  0  2  0  0  3  0  0  0  0  0  0
  186.0000  178.4770  146.0530 N   0  0  0  0  0  0  0  0  0  0  0  0
  185.8720  177.4180  141.4030 O   0  0  0  0  0  0  0  0  0  0  0  0
  186.0990  179.2740  148.2670 N   0  0  0  0  0  1  0  0  0  0  0  0
  188.1960  176.1750  143.9290 C   0  0  0  0  0  2  0  0  0  0  0  0
  186.4280  177.2420  142.5220 C   0  0  0  0  0  0  0  0  0  0  0  0
  188.3870  176.9220  146.3470 C   0  0  1  0  0  0  0  0  0  0  0  0
  185.8340  177.8160  143.7440 C   0  0  0  0  0  0  0  0  0  0  0  0
  187.6540  176.5040  142.6110 N   0  0  0  0  0  0  0  0  0  0  0  0
  186.5380  177.8270  144.8910 C   0  0  0  0  0  0  0  0  0  0  0  0
  186.6500  178.5470  147.1730 C   0  0  0  0  0  0  0  0  0  0  0  0
  187.9310  177.9240  147.3060 N   0  0  0  0  0  2  0  0  0  0  0  0
  187.8140  175.6870  146.6750 O   0  0  0  0  0  1  0  0  0  0  0  0
  184.4590  178.4000  143.6860 C   0  0  0  0  0  1  0  0  0  0  0  0
  188.4090  176.1840  141.4000 C   0  0  0  0  0  2  0  0  0  0  0  0
  187.9880  174.8400  140.7980 C   0  0  0  0  0  2  0  0  0  0  0  0
  188.3220  173.6520  141.6950 C   0  0  0  0  0  2  0  0  0  0  0  0
  191.7680  171.1200  141.5430 C   0  0  0  0  0  2  0  0  0  0  0  0
  191.2000  171.5950  140.2110 C   0  0  2  0  0  3  0  0  0  0  0  0
  190.2480  172.6130  142.7500 N   0  0  0  0  0  2  0  0  0  0  0  0
  191.6510  172.2400  142.5730 C   0  0  0  0  0  2  0  0  0  0  0  0
  189.7800  172.1230  140.4010 C   0  0  0  0  0  2  0  0  0  0  0  0
  189.7540  173.1860  141.4980 C   0  0  1  0  0  3  0  0  0  0  0  0
  191.1840  170.4390  139.2300 C   0  0  0  0  0  2  0  0  0  0  0  0
  191.7980  171.0880  135.6800 O   0  0  0  0  0  0  0  0  0  0  0  0
  191.0520  170.9470  137.8710 N   0  0  0  0  0  2  0  0  0  0  0  0
  191.9930  170.6440  136.8420 C   0  0  0  0  0  0  0  0  0  0  0  0
  193.1850  169.7800  137.1190 C   0  0  0  0  0  2  0  0  0  0  0  0
  194.3220  170.6010  137.6980 C   0  0  0  0  0  2  0  0  0  0  0  0
  195.1500  171.1930  136.5700 C   0  0  0  0  0  2  0  0  0  0  0  0
  195.9090  173.3200  135.8280 O   0  0  0  0  0  0  0  0  0  0  0  0
  195.3090  173.0950  138.2040 C   0  0  0  0  0  0  0  0  0  0  0  0
  195.7150  175.5710  136.7940 C   0  0  0  0  0  2  0  0  0  0  0  0
  192.1870  174.3230  136.8840 C   0  0  0  0  0  2  0  0  0  0  0  0
  194.2430  175.5190  136.4200 C   0  0  0  0  0  2  0  0  0  0  0  0
  194.0260  173.6710  138.1820 O   0  0  0  0  0  0  0  0  0  0  0  0
  193.4820  174.4420  137.1430 C   0  0  0  0  0  0  0  0  0  0  0  0
  197.8140  174.4720  136.5730 O   0  0  0  0  0  1  0  0  0  0  0  0
  195.9530  172.4580  136.9630 C   0  0  1  0  0  0  0  0  0  0  0  0
  195.8770  172.9800  139.3260 O   0  0  0  0  0  0  0  0  0  0  0  0
  196.5560  174.5860  135.9720 C   0  0  1  0  0  0  0  0  0  0  0  0
  197.3140  172.0950  137.2030 O   0  0  0  0  0  0  0  0  0  0  0  0
  197.7170  171.0070  136.4030 C   0  0  0  0  0  1  0  0  0  0  0  0
  196.7840  175.1690  134.5790 C   0  0  0  0  0  2  0  0  0  0  0  0
  196.7680  176.5640  134.6020 O   0  0  0  0  0  1  0  0  0  0  0  0
  189.9100  176.8200  146.4130 C   0  0  0  0  0  2  0  0  0  0  0  0
  190.3350  175.4660  146.7490 N   0  0  0  0  0  0  0  0  0  0  0  0
  191.5300  176.9280  148.2930 C   0  0  0  0  0  1  0  0  0  0  0  0
  191.0730  175.5120  148.0080 C   0  0  0  0  0  2  0  0  0  0  0  0
  191.1720  174.9370  145.6580 C   0  0  0  0  0  2  0  0  0  0  0  0
  191.9160  176.0020  144.8470 C   0  0  0  0  0  2  0  0  0  0  0  0
  193.2740  176.0960  145.2590 O   0  0  0  0  0  0  0  0  0  0  0  0
  194.3370  175.7890  144.4100 C   0  0  0  0  0  0  0  0  0  0  0  0
  197.4710  177.3080  143.2940 F   0  0  0  0  0  0  0  0  0  0  0  0
  196.4100  175.3890  142.4950 C   0  0  0  0  0  0  0  0  0  0  0  0
  195.2860  176.7110  144.2110 C   0  0  0  0  0  3  0  0  0  0  0  0
  197.4530  175.1570  141.6610 F   0  0  0  0  0  0  0  0  0  0  0  0
  194.4570  174.4240  143.7630 C   0  0  1  0  0  3  0  0  0  0  0  0
  196.4150  176.4570  143.3000 C   0  0  0  0  0  0  0  0  0  0  0  0
  195.1940  174.5050  142.4160 C   0  0  0  0  0  2  0  0  0  0  0  0
  195.1380  173.5530  144.6220 O   0  0  0  0  0  0  0  0  0  0  0  0
  194.4510  172.3420  144.5260 C   0  0  0  0  0  2  0  0  0  0  0  0
  194.3750  171.7470  145.7870 O   0  0  0  0  0  0  0  0  0  0  0  0
  196.7410  171.7600  146.0160 C   0  0  0  0  0  1  0  0  0  0  0  0
  195.4930  170.9160  145.8480 C   0  0  0  0  0  2  0  0  0  0  0  0
  1  5  1  6  0  0  0
  1  7  1  0  0  0  0
  2 11  2  0  0  0  0
  3  6  2  0  0  0  0
  6  9  1  0  0  0  0
  6  8  1  0  0  0  0
  7 46  1  0  0  0  0
  7 13  1  1  0  0  0
  7 12  1  0  0  0  0
  8 10  2  0  0  0  0
  9  5  1  0  0  0  0
 10  1  1  0  0  0  0
 10  2  1  0  0  0  0
 11 12  1  0  0  0  0
 11  4  1  0  0  0  0
 14  8  1  0  0  0  0
 15  9  1  0  0  0  0
 16 15  1  0  0  0  0
 16 17  1  0  0  0  0
 18 21  1  0  0  0  0
 19 24  1  6  0  0  0
 19 22  1  0  0  0  0
 19 18  1  0  0  0  0
 21 20  1  0  0  0  0
 22 23  1  0  0  0  0
 23 17  1  1  0  0  0
 23 20  1  0  0  0  0
 25 27  2  0  0  0  0
 26 24  1  0  0  0  0
 27 28  1  0  0  0  0
 27 26  1  0  0  0  0
 28 29  1  0  0  0  0
 30 29  1  0  0  0  0
 31 41  1  0  0  0  0
 31 39  1  0  0  0  0
 32 40  2  0  0  0  0
 34 37  2  0  0  0  0
 35 33  1  0  0  0  0
 35 37  1  0  0  0  0
 36 32  1  0  0  0  0
 37 36  1  0  0  0  0
 39 30  1  6  0  0  0
 39 42  1  0  0  0  0
 39 32  1  0  0  0  0
 41 38  1  1  0  0  0
 41 33  1  0  0  0  0
 43 42  1  0  0  0  0
 44 45  1  0  0  0  0
 44 41  1  0  0  0  0
 46 47  1  0  0  0  0
 47 49  1  0  0  0  0
 49 48  1  0  0  0  0
 50 47  1  0  0  0  0
 51 52  1  0  0  0  0
 51 50  1  0  0  0  0
 53 52  1  0  0  0  0
 54 59  1  0  0  0  0
 55 59  2  0  0  0  0
 56 53  2  0  0  0  0
 57 55  1  0  0  0  0
 58 53  1  0  0  0  0
 58 61  1  1  0  0  0
 59 56  1  0  0  0  0
 60 55  1  0  0  0  0
 60 58  1  0  0  0  0
 62 61  1  0  0  0  0
 62 63  1  0  0  0  0
 63 65  1  0  0  0  0
 65 64  1  0  0  0  0
M  END
>  <MODEL>
5

>  <REMARK>
 VINA RESULT:      -4.7      3.633      7.564
  Name = 
  23 active torsions:
  status: ('A' for Active; 'I' for Inactive)
    1  A    between atoms: C_3  and  C_5
    2  A    between atoms: C_3  and  C_23
    3  A    between atoms: C_5  and  C_58
    4  A    between atoms: N_7  and  C_13
    5  A    between atoms: N_7  and  C_40
    6  A    between atoms: N_7  and  C_63
    7  A    between atoms: C_11  and  O_26
    8  A    between atoms: O_12  and  C_49
    9  A    between atoms: C_13  and  C_31
   10  A    between atoms: C_15  and  N_44
   11  A    between atoms: C_15  and  C_61
   12  A    between atoms: O_19  and  C_45
   13  A    between atoms: O_19  and  C_52
   14  A    between atoms: C_23  and  C_49
   15  A    between atoms: O_26  and  C_35
   16  A    between atoms: N_29  and  C_32
   17  A    between atoms: C_30  and  C_32
   18  A    between atoms: C_35  and  C_40
   19  A    between atoms: C_39  and  C_57
   20  A    between atoms: O_43  and  C_45
   21  A    between atoms: O_43  and  C_56
   22  A    between atoms: C_47  and  C_61
   23  A    between atoms: C_47  and  C_65
                            x       y       z     vdW  Elec       q    Type
                         _______ _______ _______ _____ _____    ______ ____

>  <TORSDO>
F 23

$$$$
=
 OpenBabel11072409103D

 65 69  0  0  1  0  0  0  0  0999 V2000
  196.3730  171.1290  142.3590 C   0  0  2  0  0  3  0  0  0  0  0  0
  197.3740  168.8970  141.6450 N   0  0  0  0  0  0  0  0  0  0  0  0
  197.3980  170.2300  146.2250 O   0  0  0  0  0  0  0  0  0  0  0  0
  197.6450  168.2980  139.3830 N   0  0  0  0  0  1  0  0  0  0  0  0
  195.4600  171.6550  143.4790 C   0  0  0  0  0  2  0  0  0  0  0  0
  196.9370  170.4100  145.0650 C   0  0  0  0  0  0  0  0  0  0  0  0
  195.6290  171.0800  141.0130 C   0  0  1  0  0  0  0  0  0  0  0  0
  197.2620  169.4620  143.9820 C   0  0  0  0  0  0  0  0  0  0  0  0
  196.1140  171.5500  144.7830 N   0  0  0  0  0  0  0  0  0  0  0  0
  196.9650  169.7740  142.7070 C   0  0  0  0  0  0  0  0  0  0  0  0
  197.1450  169.1650  140.3960 C   0  0  0  0  0  0  0  0  0  0  0  0
  196.4200  170.3440  140.0310 N   0  0  0  0  0  2  0  0  0  0  0  0
  194.3960  170.4370  141.1750 O   0  0  0  0  0  1  0  0  0  0  0  0
  197.9380  168.1720  144.3170 C   0  0  0  0  0  1  0  0  0  0  0  0
  196.0220  172.6470  145.7470 C   0  0  0  0  0  2  0  0  0  0  0  0
  197.1330  173.6810  145.5490 C   0  0  0  0  0  2  0  0  0  0  0  0
  196.6640  174.9280  144.8050 C   0  0  0  0  0  2  0  0  0  0  0  0
  192.7840  176.7050  144.5080 C   0  0  0  0  0  2  0  0  0  0  0  0
  192.9870  175.3680  143.8070 C   0  0  2  0  0  3  0  0  0  0  0  0
  194.9870  176.5150  145.5590 N   0  0  0  0  0  2  0  0  0  0  0  0
  193.5630  176.7130  145.8210 C   0  0  0  0  0  2  0  0  0  0  0  0
  194.4780  175.0740  143.6510 C   0  0  0  0  0  2  0  0  0  0  0  0
  195.1790  175.1760  145.0040 C   0  0  1  0  0  3  0  0  0  0  0  0
  192.3330  175.4130  142.4390 C   0  0  0  0  0  2  0  0  0  0  0  0
  190.2320  172.4340  142.0990 O   0  0  0  0  0  0  0  0  0  0  0  0
  191.8620  174.0840  142.0740 N   0  0  0  0  0  2  0  0  0  0  0  0
  190.5910  173.5800  142.4800 C   0  0  0  0  0  0  0  0  0  0  0  0
  189.6690  174.4060  143.3230 C   0  0  0  0  0  2  0  0  0  0  0  0
  188.9320  175.4260  142.4760 C   0  0  0  0  0  2  0  0  0  0  0  0
  187.5400  175.6500  143.0420 C   0  0  0  0  0  2  0  0  0  0  0  0
  186.2030  176.8990  144.5600 O   0  0  0  0  0  0  0  0  0  0  0  0
  188.6070  177.4130  144.4800 C   0  0  0  0  0  0  0  0  0  0  0  0
  186.7690  178.2590  146.5260 C   0  0  0  0  0  2  0  0  0  0  0  0
  188.5660  175.0440  147.1960 C   0  0  0  0  0  2  0  0  0  0  0  0
  187.0760  176.9540  147.2430 C   0  0  0  0  0  2  0  0  0  0  0  0
  189.0410  176.7090  145.6170 O   0  0  0  0  0  0  0  0  0  0  0  0
  188.2220  176.1950  146.6350 C   0  0  0  0  0  0  0  0  0  0  0  0
  185.8580  179.2210  144.5500 O   0  0  0  0  0  1  0  0  0  0  0  0
  187.3360  177.0350  143.7050 C   0  0  1  0  0  0  0  0  0  0  0  0
  189.3800  178.2940  144.0110 O   0  0  0  0  0  0  0  0  0  0  0  0
  185.8430  178.0540  145.3210 C   0  0  1  0  0  0  0  0  0  0  0  0
  187.0270  177.9980  142.6960 O   0  0  0  0  0  0  0  0  0  0  0  0
  186.1910  177.4630  141.6970 C   0  0  0  0  0  1  0  0  0  0  0  0
  184.4110  177.8730  145.8190 C   0  0  0  0  0  2  0  0  0  0  0  0
  184.1570  178.6670  146.9390 O   0  0  0  0  0  1  0  0  0  0  0  0
  195.4090  172.5060  140.5130 C   0  0  0  0  0  2  0  0  0  0  0  0
  196.1970  172.7740  139.3150 N   0  0  0  0  0  0  0  0  0  0  0  0
  196.1180  175.1190  139.9830 C   0  0  0  0  0  1  0  0  0  0  0  0
  197.0040  173.9690  139.5510 C   0  0  0  0  0  2  0  0  0  0  0  0
  195.2900  172.9590  138.1700 C   0  0  0  0  0  2  0  0  0  0  0  0
  193.8630  173.3750  138.5430 C   0  0  0  0  0  2  0  0  0  0  0  0
  193.0470  173.4820  137.3830 O   0  0  0  0  0  0  0  0  0  0  0  0
  191.6590  173.6010  137.4530 C   0  0  0  0  0  0  0  0  0  0  0  0
  188.9400  175.0790  135.5030 F   0  0  0  0  0  0  0  0  0  0  0  0
  188.8670  174.1440  137.6410 C   0  0  0  0  0  0  0  0  0  0  0  0
  191.0310  174.3370  136.5290 C   0  0  0  0  0  3  0  0  0  0  0  0
  187.5230  174.3170  137.6720 F   0  0  0  0  0  0  0  0  0  0  0  0
  190.8600  172.8720  138.5150 C   0  0  1  0  0  3  0  0  0  0  0  0
  189.5700  174.5260  136.5700 C   0  0  0  0  0  0  0  0  0  0  0  0
  189.5720  173.6340  138.8700 C   0  0  0  0  0  2  0  0  0  0  0  0
  190.5380  171.5860  138.0640 O   0  0  0  0  0  0  0  0  0  0  0  0
  191.3860  170.7330  138.7730 C   0  0  0  0  0  2  0  0  0  0  0  0
  191.5050  169.5210  138.0920 O   0  0  0  0  0  0  0  0  0  0  0  0
  190.6730  168.5100  140.0760 C   0  0  0  0  0  1  0  0  0  0  0  0
  190.4660  168.7360  138.5910 C   0  0  0  0  0  2  0  0  0  0  0  0
  1 10  1  0  0  0  0
  1  5  1  1  0  0  0
  2 10  1  0  0  0  0
  4 11  1  0  0  0  0
  5  9  1  0  0  0  0
  6  3  2  0  0  0  0
  7 13  1  1  0  0  0
  7  1  1  0  0  0  0
  8 14  1  0  0  0  0
  8  6  1  0  0  0  0
  9  6  1  0  0  0  0
  9 15  1  0  0  0  0
 10  8  2  0  0  0  0
 11  2  2  0  0  0  0
 12 11  1  0  0  0  0
 12  7  1  0  0  0  0
 16 15  1  0  0  0  0
 17 16  1  0  0  0  0
 18 21  1  0  0  0  0
 19 24  1  6  0  0  0
 19 18  1  0  0  0  0
 20 21  1  0  0  0  0
 22 19  1  0  0  0  0
 22 23  1  0  0  0  0
 23 17  1  6  0  0  0
 23 20  1  0  0  0  0
 25 27  2  0  0  0  0
 26 24  1  0  0  0  0
 26 27  1  0  0  0  0
 27 28  1  0  0  0  0
 29 30  1  0  0  0  0
 29 28  1  0  0  0  0
 31 41  1  0  0  0  0
 32 36  1  0  0  0  0
 33 35  1  0  0  0  0
 36 37  1  0  0  0  0
 37 34  2  0  0  0  0
 37 35  1  0  0  0  0
 39 30  1  6  0  0  0
 39 32  1  0  0  0  0
 39 31  1  0  0  0  0
 40 32  2  0  0  0  0
 41 38  1  6  0  0  0
 41 44  1  0  0  0  0
 41 33  1  0  0  0  0
 42 39  1  0  0  0  0
 43 42  1  0  0  0  0
 44 45  1  0  0  0  0
 46  7  1  0  0  0  0
 47 49  1  0  0  0  0
 47 46  1  0  0  0  0
 49 48  1  0  0  0  0
 50 51  1  0  0  0  0
 50 47  1  0  0  0  0
 52 53  1  0  0  0  0
 52 51  1  0  0  0  0
 53 58  1  0  0  0  0
 54 59  1  0  0  0  0
 55 57  1  0  0  0  0
 55 60  1  0  0  0  0
 56 59  1  0  0  0  0
 56 53  2  0  0  0  0
 58 61  1  6  0  0  0
 58 60  1  0  0  0  0
 59 55  2  0  0  0  0
 61 62  1  0  0  0  0
 63 65  1  0  0  0  0
 63 62  1  0  0  0  0
 65 64  1  0  0  0  0
M  END
>  <MODEL>
6

>  <REMARK>
 VINA RESULT:      -4.7      2.939      8.719
  Name = 
  23 active torsions:
  status: ('A' for Active; 'I' for Inactive)
    1  A    between atoms: C_3  and  C_5
    2  A    between atoms: C_3  and  C_23
    3  A    between atoms: C_5  and  C_58
    4  A    between atoms: N_7  and  C_13
    5  A    between atoms: N_7  and  C_40
    6  A    between atoms: N_7  and  C_63
    7  A    between atoms: C_11  and  O_26
    8  A    between atoms: O_12  and  C_49
    9  A    between atoms: C_13  and  C_31
   10  A    between atoms: C_15  and  N_44
   11  A    between atoms: C_15  and  C_61
   12  A    between atoms: O_19  and  C_45
   13  A    between atoms: O_19  and  C_52
   14  A    between atoms: C_23  and  C_49
   15  A    between atoms: O_26  and  C_35
   16  A    between atoms: N_29  and  C_32
   17  A    between atoms: C_30  and  C_32
   18  A    between atoms: C_35  and  C_40
   19  A    between atoms: C_39  and  C_57
   20  A    between atoms: O_43  and  C_45
   21  A    between atoms: O_43  and  C_56
   22  A    between atoms: C_47  and  C_61
   23  A    between atoms: C_47  and  C_65
                            x       y       z     vdW  Elec       q    Type
                         _______ _______ _______ _____ _____    ______ ____

>  <TORSDO>
F 23

$$$$
=
 OpenBabel11072409103D

 65 69  0  0  1  0  0  0  0  0999 V2000
  196.1090  171.1390  142.3710 C   0  0  2  0  0  3  0  0  0  0  0  0
  197.1480  168.9930  141.4720 N   0  0  0  0  0  0  0  0  0  0  0  0
  197.4580  170.1040  146.1010 O   0  0  0  0  0  0  0  0  0  0  0  0
  197.2740  168.5160  139.1700 N   0  0  0  0  0  1  0  0  0  0  0  0
  195.2610  171.5680  143.5800 C   0  0  0  0  0  2  0  0  0  0  0  0
  196.9040  170.3180  144.9890 C   0  0  0  0  0  0  0  0  0  0  0  0
  195.2700  171.1200  141.0820 C   0  0  1  0  0  0  0  0  0  0  0  0
  197.1870  169.4390  143.8380 C   0  0  0  0  0  0  0  0  0  0  0  0
  196.0140  171.4310  144.8260 N   0  0  0  0  0  0  0  0  0  0  0  0
  196.7830  169.7980  142.6050 C   0  0  0  0  0  0  0  0  0  0  0  0
  196.8150  169.3090  140.2590 C   0  0  0  0  0  0  0  0  0  0  0  0
  196.0160  170.4690  140.0080 N   0  0  0  0  0  2  0  0  0  0  0  0
  194.0800  170.4150  141.3000 O   0  0  0  0  0  1  0  0  0  0  0  0
  197.9410  168.1670  144.0560 C   0  0  0  0  0  1  0  0  0  0  0  0
  195.9490  172.4750  145.8490 C   0  0  0  0  0  2  0  0  0  0  0  0
  197.0610  173.5130  145.6830 C   0  0  0  0  0  2  0  0  0  0  0  0
  196.5980  174.7770  144.9650 C   0  0  0  0  0  2  0  0  0  0  0  0
  192.7090  176.5270  144.6280 C   0  0  0  0  0  2  0  0  0  0  0  0
  192.9770  175.2750  143.8020 C   0  0  2  0  0  3  0  0  0  0  0  0
  194.8510  176.2530  145.7820 N   0  0  0  0  0  2  0  0  0  0  0  0
  193.4100  176.4040  145.9780 C   0  0  0  0  0  2  0  0  0  0  0  0
  194.4800  175.0180  143.7060 C   0  0  0  0  0  2  0  0  0  0  0  0
  195.1000  174.9830  145.1010 C   0  0  1  0  0  3  0  0  0  0  0  0
  192.4030  175.4570  142.4110 C   0  0  0  0  0  2  0  0  0  0  0  0
  190.4130  172.4630  141.7150 O   0  0  0  0  0  0  0  0  0  0  0  0
  191.9760  174.1690  141.8810 N   0  0  0  0  0  2  0  0  0  0  0  0
  190.7350  173.5630  142.2390 C   0  0  0  0  0  0  0  0  0  0  0  0
  189.8020  174.2310  143.2010 C   0  0  0  0  0  2  0  0  0  0  0  0
  189.2150  175.4910  142.5940 C   0  0  0  0  0  2  0  0  0  0  0  0
  187.7980  175.6930  143.1070 C   0  0  0  0  0  2  0  0  0  0  0  0
  186.5040  176.7360  144.8060 O   0  0  0  0  0  0  0  0  0  0  0  0
  188.8900  177.3220  144.6780 C   0  0  0  0  0  0  0  0  0  0  0  0
  187.1290  177.8940  146.8800 C   0  0  0  0  0  2  0  0  0  0  0  0
  189.0270  174.6760  147.1230 C   0  0  0  0  0  2  0  0  0  0  0  0
  187.4980  176.5290  147.4390 C   0  0  0  0  0  2  0  0  0  0  0  0
  189.3910  176.5130  145.7130 O   0  0  0  0  0  0  0  0  0  0  0  0
  188.6320  175.8710  146.7040 C   0  0  0  0  0  0  0  0  0  0  0  0
  186.1060  179.0350  145.0610 O   0  0  0  0  0  1  0  0  0  0  0  0
  187.5930  176.9940  143.9220 C   0  0  1  0  0  0  0  0  0  0  0  0
  189.6210  178.2690  144.2730 O   0  0  0  0  0  0  0  0  0  0  0  0
  186.1540  177.7930  145.7020 C   0  0  1  0  0  0  0  0  0  0  0  0
  187.2170  178.0500  143.0370 O   0  0  0  0  0  0  0  0  0  0  0  0
  186.8550  177.5650  141.7650 C   0  0  0  0  0  1  0  0  0  0  0  0
  184.7500  177.5210  146.2390 C   0  0  0  0  0  2  0  0  0  0  0  0
  184.0150  178.7010  146.3630 O   0  0  0  0  0  1  0  0  0  0  0  0
  194.9520  172.5570  140.6730 C   0  0  0  0  0  2  0  0  0  0  0  0
  195.7100  172.9500  139.4900 N   0  0  0  0  0  0  0  0  0  0  0  0
  197.6670  174.3540  139.8790 C   0  0  0  0  0  1  0  0  0  0  0  0
  196.1660  174.3260  139.6700 C   0  0  0  0  0  2  0  0  0  0  0  0
  194.8510  172.8230  138.3010 C   0  0  0  0  0  2  0  0  0  0  0  0
  193.3540  172.6900  138.6020 C   0  0  0  0  0  2  0  0  0  0  0  0
  192.5900  172.7430  137.4040 O   0  0  0  0  0  0  0  0  0  0  0  0
  191.3030  173.2800  137.3590 C   0  0  0  0  0  0  0  0  0  0  0  0
  188.6860  174.3010  139.7000 F   0  0  0  0  0  0  0  0  0  0  0  0
  188.5770  174.1090  137.3760 C   0  0  0  0  0  0  0  0  0  0  0  0
  190.6290  173.4230  138.5050 C   0  0  0  0  0  3  0  0  0  0  0  0
  187.3140  174.6020  137.3930 F   0  0  0  0  0  0  0  0  0  0  0  0
  190.6920  173.7480  136.0540 C   0  0  1  0  0  3  0  0  0  0  0  0
  189.2550  173.9550  138.5180 C   0  0  0  0  0  0  0  0  0  0  0  0
  189.1590  173.6230  136.0760 C   0  0  0  0  0  2  0  0  0  0  0  0
  191.0530  175.0800  135.8140 O   0  0  0  0  0  0  0  0  0  0  0  0
  192.3870  175.0230  135.4050 C   0  0  0  0  0  2  0  0  0  0  0  0
  192.7090  176.1870  134.7040 O   0  0  0  0  0  0  0  0  0  0  0  0
  194.1620  175.9860  136.5750 C   0  0  0  0  0  1  0  0  0  0  0  0
  193.4880  176.9260  135.5940 C   0  0  0  0  0  2  0  0  0  0  0  0
  1 10  1  0  0  0  0
  1  5  1  1  0  0  0
  2 10  1  0  0  0  0
  4 11  1  0  0  0  0
  5  9  1  0  0  0  0
  6  3  2  0  0  0  0
  7 13  1  1  0  0  0
  7  1  1  0  0  0  0
  8 14  1  0  0  0  0
  8  6  1  0  0  0  0
  9  6  1  0  0  0  0
  9 15  1  0  0  0  0
 10  8  2  0  0  0  0
 11  2  2  0  0  0  0
 12 11  1  0  0  0  0
 12  7  1  0  0  0  0
 16 15  1  0  0  0  0
 17 16  1  0  0  0  0
 18 21  1  0  0  0  0
 19 24  1  6  0  0  0
 19 18  1  0  0  0  0
 20 21  1  0  0  0  0
 22 19  1  0  0  0  0
 22 23  1  0  0  0  0
 23 17  1  6  0  0  0
 23 20  1  0  0  0  0
 25 27  2  0  0  0  0
 26 27  1  0  0  0  0
 26 24  1  0  0  0  0
 27 28  1  0  0  0  0
 29 30  1  0  0  0  0
 29 28  1  0  0  0  0
 31 41  1  0  0  0  0
 32 36  1  0  0  0  0
 33 35  1  0  0  0  0
 36 37  1  0  0  0  0
 37 34  2  0  0  0  0
 37 35  1  0  0  0  0
 39 30  1  6  0  0  0
 39 32  1  0  0  0  0
 39 31  1  0  0  0  0
 40 32  2  0  0  0  0
 41 38  1  6  0  0  0
 41 44  1  0  0  0  0
 41 33  1  0  0  0  0
 42 39  1  0  0  0  0
 43 42  1  0  0  0  0
 44 45  1  0  0  0  0
 46  7  1  0  0  0  0
 47 49  1  0  0  0  0
 47 46  1  0  0  0  0
 49 48  1  0  0  0  0
 50 51  1  0  0  0  0
 50 47  1  0  0  0  0
 52 51  1  0  0  0  0
 53 52  1  0  0  0  0
 53 56  2  0  0  0  0
 55 57  1  0  0  0  0
 55 59  2  0  0  0  0
 56 59  1  0  0  0  0
 58 61  1  1  0  0  0
 58 60  1  0  0  0  0
 58 53  1  0  0  0  0
 59 54  1  0  0  0  0
 60 55  1  0  0  0  0
 62 61  1  0  0  0  0
 63 62  1  0  0  0  0
 63 65  1  0  0  0  0
 65 64  1  0  0  0  0
M  END
>  <MODEL>
7

>  <REMARK>
 VINA RESULT:      -4.7      2.954      8.732
  Name = 
  23 active torsions:
  status: ('A' for Active; 'I' for Inactive)
    1  A    between atoms: C_3  and  C_5
    2  A    between atoms: C_3  and  C_23
    3  A    between atoms: C_5  and  C_58
    4  A    between atoms: N_7  and  C_13
    5  A    between atoms: N_7  and  C_40
    6  A    between atoms: N_7  and  C_63
    7  A    between atoms: C_11  and  O_26
    8  A    between atoms: O_12  and  C_49
    9  A    between atoms: C_13  and  C_31
   10  A    between atoms: C_15  and  N_44
   11  A    between atoms: C_15  and  C_61
   12  A    between atoms: O_19  and  C_45
   13  A    between atoms: O_19  and  C_52
   14  A    between atoms: C_23  and  C_49
   15  A    between atoms: O_26  and  C_35
   16  A    between atoms: N_29  and  C_32
   17  A    between atoms: C_30  and  C_32
   18  A    between atoms: C_35  and  C_40
   19  A    between atoms: C_39  and  C_57
   20  A    between atoms: O_43  and  C_45
   21  A    between atoms: O_43  and  C_56
   22  A    between atoms: C_47  and  C_61
   23  A    between atoms: C_47  and  C_65
                            x       y       z     vdW  Elec       q    Type
                         _______ _______ _______ _____ _____    ______ ____

>  <TORSDO>
F 23

$$$$
=
 OpenBabel11072409103D

 65 69  0  0  1  0  0  0  0  0999 V2000
  194.7090  172.4560  143.0350 C   0  0  2  0  0  3  0  0  0  0  0  0
  195.9520  170.2430  143.2640 N   0  0  0  0  0  0  0  0  0  0  0  0
  196.5940  173.7460  146.4380 O   0  0  0  0  0  0  0  0  0  0  0  0
  195.8970  168.5820  141.5960 N   0  0  0  0  0  1  0  0  0  0  0  0
  193.9420  173.4250  143.9500 C   0  0  0  0  0  2  0  0  0  0  0  0
  195.8960  173.2720  145.5000 C   0  0  0  0  0  0  0  0  0  0  0  0
  193.7460  171.6720  142.1250 C   0  0  1  0  0  0  0  0  0  0  0  0
  196.1810  171.9240  144.9720 C   0  0  0  0  0  0  0  0  0  0  0  0
  194.8380  174.0490  144.9230 N   0  0  0  0  0  0  0  0  0  0  0  0
  195.5960  171.5140  143.8310 C   0  0  0  0  0  0  0  0  0  0  0  0
  195.4460  169.8130  142.1500 C   0  0  0  0  0  0  0  0  0  0  0  0
  194.4600  170.5860  141.4580 N   0  0  0  0  0  2  0  0  0  0  0  0
  192.7060  171.1290  142.8890 O   0  0  0  0  0  1  0  0  0  0  0  0
  197.1350  171.0370  145.7040 C   0  0  0  0  0  1  0  0  0  0  0  0
  194.7290  175.4770  145.2200 C   0  0  0  0  0  2  0  0  0  0  0  0
  193.2970  175.8820  145.5790 C   0  0  0  0  0  2  0  0  0  0  0  0
  192.6550  174.9590  146.6110 C   0  0  0  0  0  2  0  0  0  0  0  0
  190.3010  178.1180  148.2790 C   0  0  0  0  0  2  0  0  0  0  0  0
  189.5500  176.9900  147.5830 C   0  0  2  0  0  3  0  0  0  0  0  0
  192.3990  176.8700  148.0870 N   0  0  0  0  0  2  0  0  0  0  0  0
  191.5020  177.5440  149.0250 C   0  0  0  0  0  2  0  0  0  0  0  0
  190.5040  176.1820  146.7060 C   0  0  0  0  0  2  0  0  0  0  0  0
  191.7050  175.7130  147.5250 C   0  0  1  0  0  3  0  0  0  0  0  0
  188.4440  177.5740  146.7260 C   0  0  0  0  0  2  0  0  0  0  0  0
  184.9730  176.4300  146.5050 O   0  0  0  0  0  0  0  0  0  0  0  0
  187.1860  176.9000  147.0170 N   0  0  0  0  0  2  0  0  0  0  0  0
  186.0180  177.0720  146.2160 C   0  0  0  0  0  0  0  0  0  0  0  0
  186.0290  177.9790  145.0240 C   0  0  0  0  0  2  0  0  0  0  0  0
  185.4130  177.2930  143.8190 C   0  0  0  0  0  2  0  0  0  0  0  0
  186.3360  176.1890  143.3320 C   0  0  0  0  0  2  0  0  0  0  0  0
  188.5650  177.0040  143.4700 O   0  0  0  0  0  0  0  0  0  0  0  0
  187.9950  175.5810  141.5460 C   0  0  0  0  0  0  0  0  0  0  0  0
  190.6530  176.2920  142.3880 C   0  0  0  0  0  2  0  0  0  0  0  0
  189.3140  173.0910  143.7950 C   0  0  0  0  0  2  0  0  0  0  0  0
  190.6150  175.0730  143.2970 C   0  0  0  0  0  2  0  0  0  0  0  0
  188.5350  174.3580  141.9840 O   0  0  0  0  0  0  0  0  0  0  0  0
  189.4290  174.1830  143.0520 C   0  0  0  0  0  0  0  0  0  0  0  0
  189.6500  178.3990  141.9250 O   0  0  0  0  0  1  0  0  0  0  0  0
  187.5540  176.6870  142.5150 C   0  0  1  0  0  0  0  0  0  0  0  0
  187.7390  175.6960  140.3150 O   0  0  0  0  0  0  0  0  0  0  0  0
  189.8150  177.4510  142.9400 C   0  0  1  0  0  0  0  0  0  0  0  0
  187.1960  177.8840  141.8210 O   0  0  0  0  0  0  0  0  0  0  0  0
  186.0980  177.6840  140.9610 C   0  0  0  0  0  1  0  0  0  0  0  0
  190.5920  178.1370  144.0620 C   0  0  0  0  0  2  0  0  0  0  0  0
  191.5610  179.0030  143.5540 O   0  0  0  0  0  1  0  0  0  0  0  0
  193.1750  172.6190  141.0710 C   0  0  0  0  0  2  0  0  0  0  0  0
  194.2300  173.4020  140.4370 N   0  0  0  0  0  0  0  0  0  0  0  0
  194.9060  175.6330  141.1560 C   0  0  0  0  0  1  0  0  0  0  0  0
  193.8400  174.8090  140.4640 C   0  0  0  0  0  2  0  0  0  0  0  0
  194.4230  172.9270  139.0570 C   0  0  0  0  0  2  0  0  0  0  0  0
  194.0070  173.9250  137.9710 C   0  0  0  0  0  2  0  0  0  0  0  0
  193.0360  173.3540  137.1030 O   0  0  0  0  0  0  0  0  0  0  0  0
  191.7090  173.1600  137.4880 C   0  0  0  0  0  0  0  0  0  0  0  0
  188.4500  174.7310  136.9520 F   0  0  0  0  0  0  0  0  0  0  0  0
  189.0250  173.0230  138.4360 C   0  0  0  0  0  0  0  0  0  0  0  0
  190.7960  174.0660  137.1200 C   0  0  0  0  0  3  0  0  0  0  0  0
  187.7260  172.9020  138.8020 F   0  0  0  0  0  0  0  0  0  0  0  0
  191.2870  171.9260  138.2590 C   0  0  1  0  0  3  0  0  0  0  0  0
  189.3860  173.9320  137.5240 C   0  0  0  0  0  0  0  0  0  0  0  0
  190.0710  172.2130  139.1550 C   0  0  0  0  0  2  0  0  0  0  0  0
  190.9810  170.8920  137.3650 O   0  0  0  0  0  0  0  0  0  0  0  0
  191.2190  169.7170  138.0790 C   0  0  0  0  0  2  0  0  0  0  0  0
  192.4400  169.8160  138.7490 O   0  0  0  0  0  0  0  0  0  0  0  0
  191.2870  168.1890  140.0430 C   0  0  0  0  0  1  0  0  0  0  0  0
  192.5930  168.5820  139.3800 C   0  0  0  0  0  2  0  0  0  0  0  0
  1 10  1  0  0  0  0
  1  5  1  1  0  0  0
  2 10  1  0  0  0  0
  4 11  1  0  0  0  0
  5  9  1  0  0  0  0
  6  3  2  0  0  0  0
  7 13  1  1  0  0  0
  7  1  1  0  0  0  0
  8  6  1  0  0  0  0
  8 14  1  0  0  0  0
  9 15  1  0  0  0  0
  9  6  1  0  0  0  0
 10  8  2  0  0  0  0
 11  2  2  0  0  0  0
 12  7  1  0  0  0  0
 12 11  1  0  0  0  0
 15 16  1  0  0  0  0
 16 17  1  0  0  0  0
 18 21  1  0  0  0  0
 19 24  1  6  0  0  0
 19 18  1  0  0  0  0
 20 21  1  0  0  0  0
 22 23  1  0  0  0  0
 22 19  1  0  0  0  0
 23 17  1  6  0  0  0
 23 20  1  0  0  0  0
 24 26  1  0  0  0  0
 27 25  2  0  0  0  0
 27 26  1  0  0  0  0
 28 27  1  0  0  0  0
 29 28  1  0  0  0  0
 30 29  1  0  0  0  0
 32 36  1  0  0  0  0
 32 39  1  0  0  0  0
 33 41  1  0  0  0  0
 33 35  1  0  0  0  0
 36 37  1  0  0  0  0
 37 35  1  0  0  0  0
 37 34  2  0  0  0  0
 39 30  1  1  0  0  0
 39 31  1  0  0  0  0
 40 32  2  0  0  0  0
 41 38  1  6  0  0  0
 41 31  1  0  0  0  0
 41 44  1  0  0  0  0
 42 39  1  0  0  0  0
 43 42  1  0  0  0  0
 45 44  1  0  0  0  0
 46  7  1  0  0  0  0
 47 49  1  0  0  0  0
 47 46  1  0  0  0  0
 49 48  1  0  0  0  0
 50 47  1  0  0  0  0
 51 50  1  0  0  0  0
 52 53  1  0  0  0  0
 52 51  1  0  0  0  0
 53 58  1  0  0  0  0
 54 59  1  0  0  0  0
 55 57  1  0  0  0  0
 55 60  1  0  0  0  0
 56 53  2  0  0  0  0
 56 59  1  0  0  0  0
 58 61  1  6  0  0  0
 58 60  1  0  0  0  0
 59 55  2  0  0  0  0
 61 62  1  0  0  0  0
 62 63  1  0  0  0  0
 63 65  1  0  0  0  0
 65 64  1  0  0  0  0
M  END
>  <MODEL>
8

>  <REMARK>
 VINA RESULT:      -4.7      2.542      8.133
  Name = 
  23 active torsions:
  status: ('A' for Active; 'I' for Inactive)
    1  A    between atoms: C_3  and  C_5
    2  A    between atoms: C_3  and  C_23
    3  A    between atoms: C_5  and  C_58
    4  A    between atoms: N_7  and  C_13
    5  A    between atoms: N_7  and  C_40
    6  A    between atoms: N_7  and  C_63
    7  A    between atoms: C_11  and  O_26
    8  A    between atoms: O_12  and  C_49
    9  A    between atoms: C_13  and  C_31
   10  A    between atoms: C_15  and  N_44
   11  A    between atoms: C_15  and  C_61
   12  A    between atoms: O_19  and  C_45
   13  A    between atoms: O_19  and  C_52
   14  A    between atoms: C_23  and  C_49
   15  A    between atoms: O_26  and  C_35
   16  A    between atoms: N_29  and  C_32
   17  A    between atoms: C_30  and  C_32
   18  A    between atoms: C_35  and  C_40
   19  A    between atoms: C_39  and  C_57
   20  A    between atoms: O_43  and  C_45
   21  A    between atoms: O_43  and  C_56
   22  A    between atoms: C_47  and  C_61
   23  A    between atoms: C_47  and  C_65
                            x       y       z     vdW  Elec       q    Type
                         _______ _______ _______ _____ _____    ______ ____

>  <TORSDO>
F 23

$$$$
=
 OpenBabel11072409103D

 65 69  0  0  1  0  0  0  0  0999 V2000
  187.4360  176.7780  142.8750 C   0  0  2  0  0  3  0  0  0  0  0  0
  185.7970  178.7040  142.5600 N   0  0  0  0  0  0  0  0  0  0  0  0
  187.1630  176.0290  138.8540 O   0  0  0  0  0  0  0  0  0  0  0  0
  185.2920  180.2310  144.2800 N   0  0  0  0  0  1  0  0  0  0  0  0
  187.5710  175.3180  142.4120 C   0  0  0  0  0  2  0  0  0  0  0  0
  187.0990  176.1610  140.1070 C   0  0  0  0  0  0  0  0  0  0  0  0
  187.0400  176.8550  144.3610 C   0  0  1  0  0  0  0  0  0  0  0  0
  186.3380  177.2790  140.6970 C   0  0  0  0  0  0  0  0  0  0  0  0
  187.7870  175.2430  140.9670 N   0  0  0  0  0  0  0  0  0  0  0  0
  186.4580  177.5540  142.0090 C   0  0  0  0  0  0  0  0  0  0  0  0
  185.9060  179.0350  143.8090 C   0  0  0  0  0  0  0  0  0  0  0  0
  186.6670  178.2230  144.7090 N   0  0  0  0  0  2  0  0  0  0  0  0
  185.9510  176.0110  144.6060 O   0  0  0  0  0  1  0  0  0  0  0  0
  185.4540  178.1070  139.8200 C   0  0  0  0  0  1  0  0  0  0  0  0
  188.7770  174.3190  140.4140 C   0  0  0  0  0  2  0  0  0  0  0  0
  188.1720  173.3990  139.3500 C   0  0  0  0  0  2  0  0  0  0  0  0
  189.2060  172.8670  138.3600 C   0  0  0  0  0  2  0  0  0  0  0  0
  191.5480  169.2920  138.5440 C   0  0  0  0  0  2  0  0  0  0  0  0
  191.4850  170.1420  139.8070 C   0  0  2  0  0  3  0  0  0  0  0  0
  189.8370  170.6900  137.4900 N   0  0  0  0  0  2  0  0  0  0  0  0
  190.1900  169.3170  137.8470 C   0  0  0  0  0  2  0  0  0  0  0  0
  190.9780  171.5440  139.4750 C   0  0  0  0  0  2  0  0  0  0  0  0
  189.6540  171.4610  138.7180 C   0  0  1  0  0  3  0  0  0  0  0  0
  192.8690  170.2350  140.4200 C   0  0  0  0  0  2  0  0  0  0  0  0
  195.9710  168.9930  138.9240 O   0  0  0  0  0  0  0  0  0  0  0  0
  193.8110  169.4500  139.6340 N   0  0  0  0  0  2  0  0  0  0  0  0
  195.2080  169.7360  139.5970 C   0  0  0  0  0  0  0  0  0  0  0  0
  195.7790  170.8830  140.3720 C   0  0  0  0  0  2  0  0  0  0  0  0
  196.6480  171.7530  139.4850 C   0  0  0  0  0  2  0  0  0  0  0  0
  195.9260  172.0340  138.1790 C   0  0  0  0  0  2  0  0  0  0  0  0
  194.4670  173.2600  139.5990 O   0  0  0  0  0  0  0  0  0  0  0  0
  195.6180  174.5010  137.8150 C   0  0  0  0  0  0  0  0  0  0  0  0
  194.2450  175.6630  140.0610 C   0  0  0  0  0  2  0  0  0  0  0  0
  197.9080  175.0600  140.5430 C   0  0  0  0  0  2  0  0  0  0  0  0
  195.5530  175.5560  140.8270 C   0  0  0  0  0  2  0  0  0  0  0  0
  196.6550  175.0880  138.5620 O   0  0  0  0  0  0  0  0  0  0  0  0
  196.7210  175.1740  139.9620 C   0  0  0  0  0  0  0  0  0  0  0  0
  192.5330  174.4290  138.9600 O   0  0  0  0  0  1  0  0  0  0  0  0
  194.9150  173.2060  138.2470 C   0  0  1  0  0  0  0  0  0  0  0  0
  195.3690  174.9940  136.6790 O   0  0  0  0  0  0  0  0  0  0  0  0
  193.5450  174.3060  139.9180 C   0  0  1  0  0  0  0  0  0  0  0  0
  193.7950  172.9100  137.4110 O   0  0  0  0  0  0  0  0  0  0  0  0
  193.9330  171.6630  136.7690 C   0  0  0  0  0  1  0  0  0  0  0  0
  192.8620  173.9560  141.2380 C   0  0  0  0  0  2  0  0  0  0  0  0
  191.8080  174.8300  141.5130 O   0  0  0  0  0  1  0  0  0  0  0  0
  188.2320  176.4270  145.2150 C   0  0  0  0  0  2  0  0  0  0  0  0
  189.2670  177.4530  145.2330 N   0  0  0  0  0  0  0  0  0  0  0  0
  191.0720  178.4370  143.9200 C   0  0  0  0  0  1  0  0  0  0  0  0
  190.1260  177.2630  144.0670 C   0  0  0  0  0  2  0  0  0  0  0  0
  190.0340  177.3460  146.4850 C   0  0  0  0  0  2  0  0  0  0  0  0
  189.9720  175.9710  147.1590 C   0  0  0  0  0  2  0  0  0  0  0  0
  191.2790  175.4890  147.4460 O   0  0  0  0  0  0  0  0  0  0  0  0
  192.3660  175.7260  146.6040 C   0  0  0  0  0  0  0  0  0  0  0  0
  195.2940  177.9120  146.4710 F   0  0  0  0  0  0  0  0  0  0  0  0
  194.4590  176.4840  144.8240 C   0  0  0  0  0  0  0  0  0  0  0  0
  193.1990  176.7290  146.9000 C   0  0  0  0  0  3  0  0  0  0  0  0
  195.5170  176.7780  144.0300 F   0  0  0  0  0  0  0  0  0  0  0  0
  192.6400  174.8390  145.4060 C   0  0  1  0  0  3  0  0  0  0  0  0
  194.3450  177.0490  146.0310 C   0  0  0  0  0  0  0  0  0  0  0  0
  193.3550  175.6140  144.2860 C   0  0  0  0  0  2  0  0  0  0  0  0
  193.4240  173.7460  145.7980 O   0  0  0  0  0  0  0  0  0  0  0  0
  193.1880  172.7680  144.8300 C   0  0  0  0  0  2  0  0  0  0  0  0
  191.9020  172.2500  144.9930 O   0  0  0  0  0  0  0  0  0  0  0  0
  189.8890  172.2860  143.7290 C   0  0  0  0  0  1  0  0  0  0  0  0
  191.3980  172.1520  143.6960 C   0  0  0  0  0  2  0  0  0  0  0  0
  1  5  1  6  0  0  0
  1  7  1  0  0  0  0
  2 11  2  0  0  0  0
  3  6  2  0  0  0  0
  6  8  1  0  0  0  0
  6  9  1  0  0  0  0
  7 13  1  1  0  0  0
  7 12  1  0  0  0  0
  7 46  1  0  0  0  0
  8 10  2  0  0  0  0
  9  5  1  0  0  0  0
 10  2  1  0  0  0  0
 10  1  1  0  0  0  0
 11  4  1  0  0  0  0
 11 12  1  0  0  0  0
 14  8  1  0  0  0  0
 15  9  1  0  0  0  0
 16 15  1  0  0  0  0
 17 16  1  0  0  0  0
 18 19  1  0  0  0  0
 19 24  1  6  0  0  0
 20 21  1  0  0  0  0
 20 23  1  0  0  0  0
 21 18  1  0  0  0  0
 22 19  1  0  0  0  0
 23 17  1  6  0  0  0
 23 22  1  0  0  0  0
 25 27  2  0  0  0  0
 26 24  1  0  0  0  0
 27 26  1  0  0  0  0
 27 28  1  0  0  0  0
 29 28  1  0  0  0  0
 30 29  1  0  0  0  0
 31 41  1  0  0  0  0
 32 39  1  0  0  0  0
 32 36  1  0  0  0  0
 33 35  1  0  0  0  0
 36 37  1  0  0  0  0
 37 34  2  0  0  0  0
 37 35  1  0  0  0  0
 39 30  1  6  0  0  0
 39 31  1  0  0  0  0
 40 32  2  0  0  0  0
 41 38  1  6  0  0  0
 41 33  1  0  0  0  0
 41 44  1  0  0  0  0
 42 39  1  0  0  0  0
 43 42  1  0  0  0  0
 44 45  1  0  0  0  0
 46 47  1  0  0  0  0
 47 50  1  0  0  0  0
 48 49  1  0  0  0  0
 49 47  1  0  0  0  0
 50 51  1  0  0  0  0
 51 52  1  0  0  0  0
 53 56  2  0  0  0  0
 53 52  1  0  0  0  0
 55 59  2  0  0  0  0
 57 55  1  0  0  0  0
 58 61  1  1  0  0  0
 58 53  1  0  0  0  0
 59 54  1  0  0  0  0
 59 56  1  0  0  0  0
 60 55  1  0  0  0  0
 60 58  1  0  0  0  0
 62 63  1  0  0  0  0
 62 61  1  0  0  0  0
 65 64  1  0  0  0  0
 65 63  1  0  0  0  0
M  END
>  <MODEL>
9

>  <REMARK>
 VINA RESULT:      -4.5      3.373      6.999
  Name = 
  23 active torsions:
  status: ('A' for Active; 'I' for Inactive)
    1  A    between atoms: C_3  and  C_5
    2  A    between atoms: C_3  and  C_23
    3  A    between atoms: C_5  and  C_58
    4  A    between atoms: N_7  and  C_13
    5  A    between atoms: N_7  and  C_40
    6  A    between atoms: N_7  and  C_63
    7  A    between atoms: C_11  and  O_26
    8  A    between atoms: O_12  and  C_49
    9  A    between atoms: C_13  and  C_31
   10  A    between atoms: C_15  and  N_44
   11  A    between atoms: C_15  and  C_61
   12  A    between atoms: O_19  and  C_45
   13  A    between atoms: O_19  and  C_52
   14  A    between atoms: C_23  and  C_49
   15  A    between atoms: O_26  and  C_35
   16  A    between atoms: N_29  and  C_32
   17  A    between atoms: C_30  and  C_32
   18  A    between atoms: C_35  and  C_40
   19  A    between atoms: C_39  and  C_57
   20  A    between atoms: O_43  and  C_45
   21  A    between atoms: O_43  and  C_56
   22  A    between atoms: C_47  and  C_61
   23  A    between atoms: C_47  and  C_65
                            x       y       z     vdW  Elec       q    Type
                         _______ _______ _______ _____ _____    ______ ____

>  <TORSDO>
F 23

$$$$
