=
 OpenBabel11072409413D

 25 27  0  0  1  0  0  0  0  0999 V2000
  184.3930  178.4920  147.2200 O   0  0  0  0  0  1  0  0  0  0  0  0
  186.4920  177.6230  142.0190 C   0  0  1  0  0  3  0  0  0  0  0  0
  185.1850  177.8680  141.2380 C   0  0  0  0  0  2  0  0  0  0  0  0
  189.1390  177.4680  145.5730 C   0  0  0  0  0  0  0  0  0  0  0  0
  190.5900  177.1910  145.4190 C   0  0  0  0  0  1  0  0  0  0  0  0
  186.7550  178.1480  148.2920 O   0  0  0  0  0  1  0  0  0  0  0  0
  186.9480  177.7730  144.5850 C   0  0  0  0  0  0  0  0  0  0  0  0
  187.2380  177.9430  147.0040 C   0  0  0  0  0  0  0  0  0  0  0  0
  186.1120  177.8170  143.4600 C   0  0  0  0  0  0  0  0  0  0  0  0
  184.9940  178.2680  145.9860 C   0  0  0  0  0  0  0  0  0  0  0  0
  188.6010  177.6800  146.8420 C   0  0  0  0  0  3  0  0  0  0  0  0
  184.7770  178.0950  143.5960 C   0  0  0  0  0  0  0  0  0  0  0  0
  186.3850  177.9960  145.8760 C   0  0  0  0  0  0  0  0  0  0  0  0
  184.1570  178.1300  142.2940 C   0  0  0  0  0  0  0  0  0  0  0  0
  182.8920  178.3700  142.1040 N   0  0  0  0  0  0  0  0  0  0  0  0
  188.3170  177.5150  144.4490 C   0  0  0  0  0  3  0  0  0  0  0  0
  184.1910  178.3230  144.8390 C   0  0  0  0  0  3  0  0  0  0  0  0
  181.2380  179.3810  140.6290 O   0  0  0  0  0  1  0  0  0  0  0  0
  182.2200  178.4220  140.8370 C   0  0  0  0  0  0  0  0  0  0  0  0
  182.5000  177.6160  139.9100 O   0  0  0  0  0  0  0  0  0  0  0  0
  188.0150  175.9860  141.0890 N   0  0  0  0  0  0  0  0  0  0  0  0
  186.9540  176.2200  141.7920 C   0  0  0  0  0  3  0  0  0  0  0  0
  188.6910  174.2450  139.6750 O   0  0  0  0  0  0  0  0  0  0  0  0
  188.4900  174.6590  140.8480 C   0  0  0  0  0  0  0  0  0  0  0  0
  188.7330  173.8160  141.9240 O   0  0  0  0  0  1  0  0  0  0  0  0
  2 22  1  1  0  0  0
  2  9  1  0  0  0  0
  3  2  1  0  0  0  0
  3 14  1  0  0  0  0
  4 11  1  0  0  0  0
  5  4  1  0  0  0  0
  7 13  1  0  0  0  0
  8  6  1  0  0  0  0
  9 12  1  0  0  0  0
  9  7  2  0  0  0  0
 10  1  1  0  0  0  0
 11  8  2  0  0  0  0
 12 17  2  0  0  0  0
 13 10  2  0  0  0  0
 13  8  1  0  0  0  0
 14 12  1  0  0  0  0
 15 14  2  0  0  0  0
 16  7  1  0  0  0  0
 16  4  2  0  0  0  0
 17 10  1  0  0  0  0
 18 19  1  0  0  0  0
 19 15  1  0  0  0  0
 20 19  2  0  0  0  0
 21 22  2  0  0  0  0
 23 24  2  0  0  0  0
 24 21  1  0  0  0  0
 24 25  1  0  0  0  0
M  END
>  <MODEL>
1

>  <REMARK>
 VINA RESULT:      -7.9      0.000      0.000
  Name = 
  3 active torsions:
  status: ('A' for Active; 'I' for Inactive)
    1  A    between atoms: N_2  and  C_12
    2  A    between atoms: C_4  and  C_7
    3  A    between atoms: C_18  and  N_22
                            x       y       z     vdW  Elec       q    Type
                         _______ _______ _______ _____ _____    ______ ____

>  <TORSDO>
F 3

$$$$
=
 OpenBabel11072409413D

 25 27  0  0  1  0  0  0  0  0999 V2000
  185.4940  177.4320  146.5320 O   0  0  0  0  0  1  0  0  0  0  0  0
  186.2480  178.2770  140.9710 C   0  0  1  0  0  3  0  0  0  0  0  0
  184.7620  178.4580  140.5980 C   0  0  0  0  0  2  0  0  0  0  0  0
  189.7310  177.7510  143.6630 C   0  0  0  0  0  0  0  0  0  0  0  0
  191.1140  177.7970  143.1220 C   0  0  0  0  0  1  0  0  0  0  0  0
  188.0780  177.2840  146.9170 O   0  0  0  0  0  1  0  0  0  0  0  0
  187.3380  177.8740  143.3080 C   0  0  0  0  0  0  0  0  0  0  0  0
  188.2280  177.4950  145.5510 C   0  0  0  0  0  0  0  0  0  0  0  0
  186.2370  178.0360  142.4540 C   0  0  0  0  0  0  0  0  0  0  0  0
  185.7740  177.6350  145.1850 C   0  0  0  0  0  0  0  0  0  0  0  0
  189.5220  177.5400  145.0260 C   0  0  0  0  0  3  0  0  0  0  0  0
  184.9610  178.0180  142.9530 C   0  0  0  0  0  0  0  0  0  0  0  0
  187.1100  177.6640  144.7000 C   0  0  0  0  0  0  0  0  0  0  0  0
  184.0220  178.2550  141.8840 C   0  0  0  0  0  0  0  0  0  0  0  0
  182.7320  178.2930  142.0520 N   0  0  0  0  0  0  0  0  0  0  0  0
  188.6440  177.9180  142.8070 C   0  0  0  0  0  3  0  0  0  0  0  0
  184.6980  177.8190  144.3060 C   0  0  0  0  0  3  0  0  0  0  0  0
  181.0200  179.7080  141.0530 O   0  0  0  0  0  1  0  0  0  0  0  0
  181.7510  178.5280  141.0320 C   0  0  0  0  0  0  0  0  0  0  0  0
  181.5370  177.6880  140.1190 O   0  0  0  0  0  0  0  0  0  0  0  0
  186.5950  176.9280  138.9910 N   0  0  0  0  0  0  0  0  0  0  0  0
  186.8000  177.0860  140.2580 C   0  0  0  0  0  3  0  0  0  0  0  0
  187.8180  174.9350  138.8480 O   0  0  0  0  0  1  0  0  0  0  0  0
  187.1070  175.8020  138.2730 C   0  0  0  0  0  0  0  0  0  0  0  0
  186.8170  175.6640  136.9220 O   0  0  0  0  0  0  0  0  0  0  0  0
  2 22  1  6  0  0  0
  2  9  1  0  0  0  0
  3  2  1  0  0  0  0
  3 14  1  0  0  0  0
  4 11  1  0  0  0  0
  5  4  1  0  0  0  0
  7 13  1  0  0  0  0
  8  6  1  0  0  0  0
  9 12  1  0  0  0  0
  9  7  2  0  0  0  0
 10  1  1  0  0  0  0
 11  8  2  0  0  0  0
 12 17  2  0  0  0  0
 13 10  2  0  0  0  0
 13  8  1  0  0  0  0
 14 15  2  0  0  0  0
 14 12  1  0  0  0  0
 16  7  1  0  0  0  0
 16  4  2  0  0  0  0
 17 10  1  0  0  0  0
 19 18  1  0  0  0  0
 19 15  1  0  0  0  0
 20 19  2  0  0  0  0
 21 22  2  0  0  0  0
 24 23  1  0  0  0  0
 24 21  1  0  0  0  0
 25 24  2  0  0  0  0
M  END
>  <MODEL>
2

>  <REMARK>
 VINA RESULT:      -7.6      1.594      1.939
  Name = 
  3 active torsions:
  status: ('A' for Active; 'I' for Inactive)
    1  A    between atoms: N_2  and  C_12
    2  A    between atoms: C_4  and  C_7
    3  A    between atoms: C_18  and  N_22
                            x       y       z     vdW  Elec       q    Type
                         _______ _______ _______ _____ _____    ______ ____

>  <TORSDO>
F 3

$$$$
=
 OpenBabel11072409413D

 25 27  0  0  1  0  0  0  0  0999 V2000
  191.3280  176.9060  148.2140 O   0  0  0  0  0  1  0  0  0  0  0  0
  188.4610  177.2060  143.3250 C   0  0  1  0  0  3  0  0  0  0  0  0
  187.1060  177.6430  143.9200 C   0  0  0  0  0  2  0  0  0  0  0  0
  192.7810  176.2070  143.3470 C   0  0  0  0  0  0  0  0  0  0  0  0
  193.5000  175.9500  142.0730 C   0  0  0  0  0  1  0  0  0  0  0  0
  193.5340  176.2910  146.9480 O   0  0  0  0  0  1  0  0  0  0  0  0
  190.7370  176.7630  144.5240 C   0  0  0  0  0  0  0  0  0  0  0  0
  192.8030  176.3750  145.7680 C   0  0  0  0  0  0  0  0  0  0  0  0
  189.3700  177.0750  144.5150 C   0  0  0  0  0  0  0  0  0  0  0  0
  190.7070  176.9580  146.9710 C   0  0  0  0  0  0  0  0  0  0  0  0
  193.4640  176.1350  144.5610 C   0  0  0  0  0  3  0  0  0  0  0  0
  188.7080  177.3360  145.6860 C   0  0  0  0  0  0  0  0  0  0  0  0
  191.4250  176.6970  145.7710 C   0  0  0  0  0  0  0  0  0  0  0  0
  187.3360  177.6750  145.4000 C   0  0  0  0  0  0  0  0  0  0  0  0
  186.4600  177.9710  146.3150 N   0  0  0  0  0  0  0  0  0  0  0  0
  191.4240  176.5210  143.3280 C   0  0  0  0  0  3  0  0  0  0  0  0
  189.3450  177.2850  146.9240 C   0  0  0  0  0  3  0  0  0  0  0  0
  184.7850  179.4650  145.3670 O   0  0  0  0  0  0  0  0  0  0  0  0
  185.0860  178.3200  146.0920 C   0  0  0  0  0  0  0  0  0  0  0  0
  184.1470  177.6110  146.5410 O   0  0  0  0  0  1  0  0  0  0  0  0
  188.4820  175.7810  141.3680 N   0  0  0  0  0  0  0  0  0  0  0  0
  188.3060  175.8850  142.6460 C   0  0  0  0  0  3  0  0  0  0  0  0
  188.3500  174.4860  139.4210 O   0  0  0  0  0  0  0  0  0  0  0  0
  188.3430  174.5350  140.6810 C   0  0  0  0  0  0  0  0  0  0  0  0
  188.1990  173.3640  141.4120 O   0  0  0  0  0  1  0  0  0  0  0  0
  2 22  1  1  0  0  0
  2  3  1  0  0  0  0
  2  9  1  0  0  0  0
  3 14  1  0  0  0  0
  4 11  1  0  0  0  0
  5  4  1  0  0  0  0
  7 13  1  0  0  0  0
  8 13  1  0  0  0  0
  8  6  1  0  0  0  0
  9  7  2  0  0  0  0
  9 12  1  0  0  0  0
 10  1  1  0  0  0  0
 11  8  2  0  0  0  0
 12 17  2  0  0  0  0
 13 10  2  0  0  0  0
 14 12  1  0  0  0  0
 14 15  2  0  0  0  0
 16  4  2  0  0  0  0
 16  7  1  0  0  0  0
 17 10  1  0  0  0  0
 18 19  2  0  0  0  0
 19 15  1  0  0  0  0
 19 20  1  0  0  0  0
 21 22  2  0  0  0  0
 23 24  2  0  0  0  0
 24 21  1  0  0  0  0
 24 25  1  0  0  0  0
M  END
>  <MODEL>
3

>  <REMARK>
 VINA RESULT:      -7.2      2.808      4.704
  Name = 
  3 active torsions:
  status: ('A' for Active; 'I' for Inactive)
    1  A    between atoms: N_2  and  C_12
    2  A    between atoms: C_4  and  C_7
    3  A    between atoms: C_18  and  N_22
                            x       y       z     vdW  Elec       q    Type
                         _______ _______ _______ _____ _____    ______ ____

>  <TORSDO>
F 3

$$$$
=
 OpenBabel11072409413D

 25 27  0  0  1  0  0  0  0  0999 V2000
  187.4120  177.8490  147.1130 O   0  0  0  0  0  1  0  0  0  0  0  0
  188.0620  177.0250  141.5360 C   0  0  1  0  0  3  0  0  0  0  0  0
  186.6300  177.4140  141.1130 C   0  0  0  0  0  2  0  0  0  0  0  0
  191.4830  176.4960  144.3060 C   0  0  0  0  0  0  0  0  0  0  0  0
  192.8180  176.1030  143.7860 C   0  0  0  0  0  1  0  0  0  0  0  0
  189.9240  177.2610  147.5500 O   0  0  0  0  0  1  0  0  0  0  0  0
  189.1530  177.0280  143.9070 C   0  0  0  0  0  0  0  0  0  0  0  0
  190.0500  177.0700  146.1790 C   0  0  0  0  0  0  0  0  0  0  0  0
  188.0710  177.1900  143.0290 C   0  0  0  0  0  0  0  0  0  0  0  0
  187.6640  177.6280  145.7640 C   0  0  0  0  0  0  0  0  0  0  0  0
  191.2990  176.6990  145.6730 C   0  0  0  0  0  3  0  0  0  0  0  0
  186.8440  177.5750  143.5020 C   0  0  0  0  0  0  0  0  0  0  0  0
  188.9530  177.2430  145.3020 C   0  0  0  0  0  0  0  0  0  0  0  0
  185.9260  177.7180  142.3990 C   0  0  0  0  0  0  0  0  0  0  0  0
  184.6820  178.0720  142.5380 N   0  0  0  0  0  0  0  0  0  0  0  0
  190.4160  176.6600  143.4260 C   0  0  0  0  0  3  0  0  0  0  0  0
  186.6100  177.7990  144.8560 C   0  0  0  0  0  3  0  0  0  0  0  0
  182.3880  177.9430  141.7260 O   0  0  0  0  0  1  0  0  0  0  0  0
  183.7240  178.2350  141.4820 C   0  0  0  0  0  0  0  0  0  0  0  0
  184.0680  178.6360  140.3380 O   0  0  0  0  0  0  0  0  0  0  0  0
  187.8010  174.6420  141.8670 N   0  0  0  0  0  0  0  0  0  0  0  0
  188.3210  175.6000  141.1720 C   0  0  0  0  0  3  0  0  0  0  0  0
  188.1600  172.4050  142.4620 O   0  0  0  0  0  1  0  0  0  0  0  0
  188.0230  173.2650  141.5510 C   0  0  0  0  0  0  0  0  0  0  0  0
  188.0890  172.8720  140.2220 O   0  0  0  0  0  0  0  0  0  0  0  0
  2 22  1  1  0  0  0
  2  9  1  0  0  0  0
  3  2  1  0  0  0  0
  3 14  1  0  0  0  0
  4 11  1  0  0  0  0
  5  4  1  0  0  0  0
  7 13  1  0  0  0  0
  8  6  1  0  0  0  0
  9 12  1  0  0  0  0
  9  7  2  0  0  0  0
 10  1  1  0  0  0  0
 11  8  2  0  0  0  0
 12 17  2  0  0  0  0
 13 10  2  0  0  0  0
 13  8  1  0  0  0  0
 14 15  2  0  0  0  0
 14 12  1  0  0  0  0
 16  7  1  0  0  0  0
 16  4  2  0  0  0  0
 17 10  1  0  0  0  0
 19 18  1  0  0  0  0
 19 15  1  0  0  0  0
 20 19  2  0  0  0  0
 22 21  2  0  0  0  0
 24 21  1  0  0  0  0
 24 23  1  0  0  0  0
 25 24  2  0  0  0  0
M  END
>  <MODEL>
4

>  <REMARK>
 VINA RESULT:      -7.1      1.584      2.412
  Name = 
  3 active torsions:
  status: ('A' for Active; 'I' for Inactive)
    1  A    between atoms: N_2  and  C_12
    2  A    between atoms: C_4  and  C_7
    3  A    between atoms: C_18  and  N_22
                            x       y       z     vdW  Elec       q    Type
                         _______ _______ _______ _____ _____    ______ ____

>  <TORSDO>
F 3

$$$$
=
 OpenBabel11072409413D

 25 27  0  0  1  0  0  0  0  0999 V2000
  189.7380  178.2840  148.3380 O   0  0  0  0  0  1  0  0  0  0  0  0
  187.7510  175.8730  143.6000 C   0  0  1  0  0  3  0  0  0  0  0  0
  189.0270  175.0890  143.2310 C   0  0  0  0  0  2  0  0  0  0  0  0
  185.1290  178.4310  146.0980 C   0  0  0  0  0  0  0  0  0  0  0  0
  183.7150  178.6660  145.7090 C   0  0  0  0  0  1  0  0  0  0  0  0
  187.4230  179.4120  148.8030 O   0  0  0  0  0  1  0  0  0  0  0  0
  187.2780  177.3990  145.6650 C   0  0  0  0  0  0  0  0  0  0  0  0
  186.9670  178.8040  147.6380 C   0  0  0  0  0  0  0  0  0  0  0  0
  188.1070  176.5930  144.8700 C   0  0  0  0  0  0  0  0  0  0  0  0
  189.1660  177.7340  147.1960 C   0  0  0  0  0  0  0  0  0  0  0  0
  185.6400  179.0170  147.2560 C   0  0  0  0  0  3  0  0  0  0  0  0
  189.4050  176.3550  145.2390 C   0  0  0  0  0  0  0  0  0  0  0  0
  187.8110  177.9880  146.8480 C   0  0  0  0  0  0  0  0  0  0  0  0
  190.0200  175.4640  144.2870 C   0  0  0  0  0  0  0  0  0  0  0  0
  191.2530  175.0570  144.3720 N   0  0  0  0  0  0  0  0  0  0  0  0
  185.9430  177.6250  145.3060 C   0  0  0  0  0  3  0  0  0  0  0  0
  189.9610  176.9090  146.3890 C   0  0  0  0  0  3  0  0  0  0  0  0
  191.7340  172.8000  143.5930 O   0  0  0  0  0  1  0  0  0  0  0  0
  191.9190  174.1690  143.4620 C   0  0  0  0  0  0  0  0  0  0  0  0
  192.6670  174.6060  142.5470 O   0  0  0  0  0  0  0  0  0  0  0  0
  186.3170  176.7900  141.8790 N   0  0  0  0  0  0  0  0  0  0  0  0
  187.4390  176.8560  142.5190 C   0  0  0  0  0  3  0  0  0  0  0  0
  185.1780  178.6610  141.0490 O   0  0  0  0  0  1  0  0  0  0  0  0
  185.9800  177.7120  140.8390 C   0  0  0  0  0  0  0  0  0  0  0  0
  186.5460  177.5590  139.5800 O   0  0  0  0  0  0  0  0  0  0  0  0
  2 22  1  6  0  0  0
  2  9  1  0  0  0  0
  3  2  1  0  0  0  0
  3 14  1  0  0  0  0
  4 11  1  0  0  0  0
  5  4  1  0  0  0  0
  7 13  1  0  0  0  0
  8  6  1  0  0  0  0
  9 12  1  0  0  0  0
  9  7  2  0  0  0  0
 10  1  1  0  0  0  0
 11  8  2  0  0  0  0
 12 17  2  0  0  0  0
 13 10  2  0  0  0  0
 13  8  1  0  0  0  0
 14 15  2  0  0  0  0
 14 12  1  0  0  0  0
 16  7  1  0  0  0  0
 16  4  2  0  0  0  0
 17 10  1  0  0  0  0
 19 18  1  0  0  0  0
 19 15  1  0  0  0  0
 20 19  2  0  0  0  0
 21 22  2  0  0  0  0
 24 23  1  0  0  0  0
 24 21  1  0  0  0  0
 25 24  2  0  0  0  0
M  END
>  <MODEL>
5

>  <REMARK>
 VINA RESULT:      -6.9      2.321      5.858
  Name = 
  3 active torsions:
  status: ('A' for Active; 'I' for Inactive)
    1  A    between atoms: N_2  and  C_12
    2  A    between atoms: C_4  and  C_7
    3  A    between atoms: C_18  and  N_22
                            x       y       z     vdW  Elec       q    Type
                         _______ _______ _______ _____ _____    ______ ____

>  <TORSDO>
F 3

$$$$
=
 OpenBabel11072409413D

 25 27  0  0  1  0  0  0  0  0999 V2000
  186.5040  176.9290  140.7720 O   0  0  0  0  0  1  0  0  0  0  0  0
  188.4950  175.7330  145.9500 C   0  0  1  0  0  3  0  0  0  0  0  0
  187.5800  176.6930  146.7380 C   0  0  0  0  0  2  0  0  0  0  0  0
  190.0260  173.5740  142.3930 C   0  0  0  0  0  0  0  0  0  0  0  0
  191.0660  172.5230  142.5400 C   0  0  0  0  0  1  0  0  0  0  0  0
  188.0820  175.1430  139.6910 O   0  0  0  0  0  1  0  0  0  0  0  0
  188.5730  175.2380  143.3880 C   0  0  0  0  0  0  0  0  0  0  0  0
  188.5460  174.8720  140.9740 C   0  0  0  0  0  0  0  0  0  0  0  0
  188.0940  175.9230  144.5150 C   0  0  0  0  0  0  0  0  0  0  0  0
  187.0480  176.5690  142.0000 C   0  0  0  0  0  0  0  0  0  0  0  0
  189.5260  173.8880  141.1290 C   0  0  0  0  0  3  0  0  0  0  0  0
  187.1180  176.8760  144.3860 C   0  0  0  0  0  0  0  0  0  0  0  0
  188.0500  175.5650  142.1030 C   0  0  0  0  0  0  0  0  0  0  0  0
  186.7700  177.3880  145.6880 C   0  0  0  0  0  0  0  0  0  0  0  0
  185.8710  178.3090  145.8850 N   0  0  0  0  0  0  0  0  0  0  0  0
  189.5520  174.2450  143.5180 C   0  0  0  0  0  3  0  0  0  0  0  0
  186.5790  177.2210  143.1490 C   0  0  0  0  0  3  0  0  0  0  0  0
  186.2760  179.8200  147.7520 O   0  0  0  0  0  1  0  0  0  0  0  0
  185.4790  178.8540  147.1520 C   0  0  0  0  0  0  0  0  0  0  0  0
  184.4270  178.4750  147.7330 O   0  0  0  0  0  0  0  0  0  0  0  0
  190.7740  175.2920  146.6390 N   0  0  0  0  0  0  0  0  0  0  0  0
  189.9220  176.1310  146.1450 C   0  0  0  0  0  3  0  0  0  0  0  0
  192.4710  176.7220  147.3890 O   0  0  0  0  0  1  0  0  0  0  0  0
  192.1480  175.6340  146.8400 C   0  0  0  0  0  0  0  0  0  0  0  0
  193.1390  174.7550  146.4250 O   0  0  0  0  0  0  0  0  0  0  0  0
  1 10  1  0  0  0  0
  2 22  1  6  0  0  0
  2  3  1  0  0  0  0
  4  5  1  0  0  0  0
  4 16  1  0  0  0  0
  6  8  1  0  0  0  0
  7 16  2  0  0  0  0
  7  9  1  0  0  0  0
  8 11  1  0  0  0  0
  8 13  2  0  0  0  0
  9  2  1  0  0  0  0
 10 13  1  0  0  0  0
 10 17  2  0  0  0  0
 11  4  2  0  0  0  0
 12  9  2  0  0  0  0
 12 14  1  0  0  0  0
 13  7  1  0  0  0  0
 14 15  2  0  0  0  0
 14  3  1  0  0  0  0
 15 19  1  0  0  0  0
 17 12  1  0  0  0  0
 19 20  2  0  0  0  0
 19 18  1  0  0  0  0
 21 24  1  0  0  0  0
 22 21  2  0  0  0  0
 24 23  1  0  0  0  0
 25 24  2  0  0  0  0
M  END
>  <MODEL>
6

>  <REMARK>
 VINA RESULT:      -6.9      2.934      6.043
  Name = 
  3 active torsions:
  status: ('A' for Active; 'I' for Inactive)
    1  A    between atoms: N_2  and  C_12
    2  A    between atoms: C_4  and  C_7
    3  A    between atoms: C_18  and  N_22
                            x       y       z     vdW  Elec       q    Type
                         _______ _______ _______ _____ _____    ______ ____

>  <TORSDO>
F 3

$$$$
=
 OpenBabel11072409413D

 25 27  0  0  1  0  0  0  0  0999 V2000
  187.8170  175.6620  140.5260 O   0  0  0  0  0  1  0  0  0  0  0  0
  188.4750  175.9450  146.1560 C   0  0  1  0  0  3  0  0  0  0  0  0
  187.2800  176.8770  146.4450 C   0  0  0  0  0  2  0  0  0  0  0  0
  191.1340  173.3820  143.7020 C   0  0  0  0  0  0  0  0  0  0  0  0
  192.2080  172.5810  144.3430 C   0  0  0  0  0  1  0  0  0  0  0  0
  189.8170  173.9880  140.3200 O   0  0  0  0  0  1  0  0  0  0  0  0
  189.2900  174.9430  143.8880 C   0  0  0  0  0  0  0  0  0  0  0  0
  189.9490  174.0770  141.7010 C   0  0  0  0  0  0  0  0  0  0  0  0
  188.4530  175.7560  144.6660 C   0  0  0  0  0  0  0  0  0  0  0  0
  188.0500  175.6690  141.8970 C   0  0  0  0  0  0  0  0  0  0  0  0
  190.9560  173.3310  142.3200 C   0  0  0  0  0  3  0  0  0  0  0  0
  187.4460  176.4780  144.0810 C   0  0  0  0  0  0  0  0  0  0  0  0
  189.0950  174.8970  142.4760 C   0  0  0  0  0  0  0  0  0  0  0  0
  186.7070  177.1860  145.0970 C   0  0  0  0  0  0  0  0  0  0  0  0
  185.6900  177.9580  144.8450 N   0  0  0  0  0  0  0  0  0  0  0  0
  190.3040  174.1830  144.4840 C   0  0  0  0  0  3  0  0  0  0  0  0
  187.2210  176.4570  142.7060 C   0  0  0  0  0  3  0  0  0  0  0  0
  185.5660  179.4160  146.7920 O   0  0  0  0  0  1  0  0  0  0  0  0
  184.9150  178.6820  145.8100 C   0  0  0  0  0  0  0  0  0  0  0  0
  183.6550  178.6660  145.7870 O   0  0  0  0  0  0  0  0  0  0  0  0
  190.3760  176.2180  147.6300 N   0  0  0  0  0  0  0  0  0  0  0  0
  189.7430  176.6140  146.5740 C   0  0  0  0  0  3  0  0  0  0  0  0
  191.6270  177.5400  149.1050 O   0  0  0  0  0  1  0  0  0  0  0  0
  191.5930  176.8320  148.0620 C   0  0  0  0  0  0  0  0  0  0  0  0
  192.7530  176.6450  147.3220 O   0  0  0  0  0  0  0  0  0  0  0  0
  1 10  1  0  0  0  0
  2  3  1  0  0  0  0
  2 22  1  6  0  0  0
  4  5  1  0  0  0  0
  4 16  1  0  0  0  0
  6  8  1  0  0  0  0
  7 16  2  0  0  0  0
  7  9  1  0  0  0  0
  8 11  1  0  0  0  0
  8 13  2  0  0  0  0
  9  2  1  0  0  0  0
 10 13  1  0  0  0  0
 10 17  2  0  0  0  0
 11  4  2  0  0  0  0
 12  9  2  0  0  0  0
 12 14  1  0  0  0  0
 13  7  1  0  0  0  0
 14  3  1  0  0  0  0
 15 14  2  0  0  0  0
 15 19  1  0  0  0  0
 17 12  1  0  0  0  0
 19 18  1  0  0  0  0
 20 19  2  0  0  0  0
 21 24  1  0  0  0  0
 22 21  2  0  0  0  0
 24 23  1  0  0  0  0
 25 24  2  0  0  0  0
M  END
>  <MODEL>
7

>  <REMARK>
 VINA RESULT:      -6.8      3.081      6.159
  Name = 
  3 active torsions:
  status: ('A' for Active; 'I' for Inactive)
    1  A    between atoms: N_2  and  C_12
    2  A    between atoms: C_4  and  C_7
    3  A    between atoms: C_18  and  N_22
                            x       y       z     vdW  Elec       q    Type
                         _______ _______ _______ _____ _____    ______ ____

>  <TORSDO>
F 3

$$$$
=
 OpenBabel11072409413D

 25 27  0  0  1  0  0  0  0  0999 V2000
  192.2140  178.1460  142.7530 O   0  0  0  0  0  1  0  0  0  0  0  0
  187.2790  176.3490  144.9040 C   0  0  1  0  0  3  0  0  0  0  0  0
  186.3870  176.7580  143.7140 C   0  0  0  0  0  2  0  0  0  0  0  0
  191.0670  175.7190  147.1210 C   0  0  0  0  0  0  0  0  0  0  0  0
  191.0630  175.0300  148.4360 C   0  0  0  0  0  1  0  0  0  0  0  0
  193.5150  177.2520  144.8400 O   0  0  0  0  0  1  0  0  0  0  0  0
  189.8650  176.5610  145.1930 C   0  0  0  0  0  0  0  0  0  0  0  0
  192.2890  176.8220  145.3370 C   0  0  0  0  0  0  0  0  0  0  0  0
  188.6650  176.7630  144.4960 C   0  0  0  0  0  0  0  0  0  0  0  0
  191.0540  177.6720  143.3550 C   0  0  0  0  0  0  0  0  0  0  0  0
  192.2680  176.1730  146.5750 C   0  0  0  0  0  3  0  0  0  0  0  0
  188.6670  177.3770  143.2700 C   0  0  0  0  0  0  0  0  0  0  0  0
  191.0860  177.0260  144.6210 C   0  0  0  0  0  0  0  0  0  0  0  0
  187.3230  177.4170  142.7480 C   0  0  0  0  0  0  0  0  0  0  0  0
  187.0110  177.9420  141.6000 N   0  0  0  0  0  0  0  0  0  0  0  0
  189.8710  175.9110  146.4330 C   0  0  0  0  0  3  0  0  0  0  0  0
  189.8390  177.8410  142.6780 C   0  0  0  0  0  3  0  0  0  0  0  0
  184.6730  178.6120  141.7420 O   0  0  0  0  0  1  0  0  0  0  0  0
  185.6970  178.0070  141.0260 C   0  0  0  0  0  0  0  0  0  0  0  0
  185.4530  177.5260  139.8880 O   0  0  0  0  0  0  0  0  0  0  0  0
  185.9190  177.9860  146.0570 N   0  0  0  0  0  0  0  0  0  0  0  0
  186.8560  177.0980  146.1260 C   0  0  0  0  0  3  0  0  0  0  0  0
  184.2900  178.6570  147.6020 O   0  0  0  0  0  0  0  0  0  0  0  0
  185.4840  178.7230  147.2030 C   0  0  0  0  0  0  0  0  0  0  0  0
  186.3920  179.5220  147.8850 O   0  0  0  0  0  1  0  0  0  0  0  0
  1 10  1  0  0  0  0
  2 22  1  1  0  0  0
  3  2  1  0  0  0  0
  4  5  1  0  0  0  0
  6  8  1  0  0  0  0
  7 16  1  0  0  0  0
  8 11  2  0  0  0  0
  9  2  1  0  0  0  0
  9  7  2  0  0  0  0
 10 13  2  0  0  0  0
 11  4  1  0  0  0  0
 12  9  1  0  0  0  0
 13  7  1  0  0  0  0
 13  8  1  0  0  0  0
 14 12  1  0  0  0  0
 14  3  1  0  0  0  0
 15 14  2  0  0  0  0
 16  4  2  0  0  0  0
 17 12  2  0  0  0  0
 17 10  1  0  0  0  0
 19 15  1  0  0  0  0
 19 18  1  0  0  0  0
 20 19  2  0  0  0  0
 21 22  2  0  0  0  0
 21 24  1  0  0  0  0
 24 23  2  0  0  0  0
 24 25  1  0  0  0  0
M  END
>  <MODEL>
8

>  <REMARK>
 VINA RESULT:      -6.8      2.669      5.416
  Name = 
  3 active torsions:
  status: ('A' for Active; 'I' for Inactive)
    1  A    between atoms: N_2  and  C_12
    2  A    between atoms: C_4  and  C_7
    3  A    between atoms: C_18  and  N_22
                            x       y       z     vdW  Elec       q    Type
                         _______ _______ _______ _____ _____    ______ ____

>  <TORSDO>
F 3

$$$$
=
 OpenBabel11072409413D

 25 27  0  0  1  0  0  0  0  0999 V2000
  190.0740  173.7200  140.9690 O   0  0  0  0  0  1  0  0  0  0  0  0
  188.4540  177.6300  144.7500 C   0  0  1  0  0  3  0  0  0  0  0  0
  189.5030  177.3000  145.8330 C   0  0  0  0  0  2  0  0  0  0  0  0
  186.4660  177.3580  140.7960 C   0  0  0  0  0  0  0  0  0  0  0  0
  185.3680  178.2930  140.4400 C   0  0  0  0  0  1  0  0  0  0  0  0
  188.2810  174.5520  139.2550 O   0  0  0  0  0  1  0  0  0  0  0  0
  188.1190  176.5750  142.3860 C   0  0  0  0  0  0  0  0  0  0  0  0
  187.9110  175.5000  140.2030 C   0  0  0  0  0  0  0  0  0  0  0  0
  188.7430  176.6600  143.6390 C   0  0  0  0  0  0  0  0  0  0  0  0
  189.6130  174.7090  141.8310 C   0  0  0  0  0  0  0  0  0  0  0  0
  186.8780  176.3860  139.8840 C   0  0  0  0  0  3  0  0  0  0  0  0
  189.7720  175.8150  143.9620 C   0  0  0  0  0  0  0  0  0  0  0  0
  188.5520  175.5800  141.4610 C   0  0  0  0  0  0  0  0  0  0  0  0
  190.2680  176.1400  145.2760 C   0  0  0  0  0  0  0  0  0  0  0  0
  191.2460  175.5070  145.8550 N   0  0  0  0  0  0  0  0  0  0  0  0
  187.0840  177.4530  142.0410 C   0  0  0  0  0  3  0  0  0  0  0  0
  190.2270  174.8330  143.0850 C   0  0  0  0  0  3  0  0  0  0  0  0
  192.8680  176.6480  147.2700 O   0  0  0  0  0  0  0  0  0  0  0  0
  191.7860  175.7860  147.1550 C   0  0  0  0  0  0  0  0  0  0  0  0
  191.3000  175.2650  148.1940 O   0  0  0  0  0  1  0  0  0  0  0  0
  186.2430  178.3760  145.3960 N   0  0  0  0  0  0  0  0  0  0  0  0
  187.0830  177.3970  145.2950 C   0  0  0  0  0  3  0  0  0  0  0  0
  184.0030  179.0140  145.6450 O   0  0  0  0  0  0  0  0  0  0  0  0
  184.9220  178.1940  145.9130 C   0  0  0  0  0  0  0  0  0  0  0  0
  184.6490  177.0980  146.7200 O   0  0  0  0  0  1  0  0  0  0  0  0
  1 10  1  0  0  0  0
  2 22  1  1  0  0  0
  2  3  1  0  0  0  0
  4 16  1  0  0  0  0
  5  4  1  0  0  0  0
  6  8  1  0  0  0  0
  7  9  1  0  0  0  0
  8 13  2  0  0  0  0
  9 12  2  0  0  0  0
  9  2  1  0  0  0  0
 10 17  2  0  0  0  0
 11  8  1  0  0  0  0
 11  4  2  0  0  0  0
 12 14  1  0  0  0  0
 13 10  1  0  0  0  0
 13  7  1  0  0  0  0
 14  3  1  0  0  0  0
 14 15  2  0  0  0  0
 15 19  1  0  0  0  0
 16  7  2  0  0  0  0
 17 12  1  0  0  0  0
 19 18  2  0  0  0  0
 19 20  1  0  0  0  0
 21 24  1  0  0  0  0
 22 21  2  0  0  0  0
 23 24  2  0  0  0  0
 24 25  1  0  0  0  0
M  END
>  <MODEL>
9

>  <REMARK>
 VINA RESULT:      -6.8      2.614      7.641
  Name = 
  3 active torsions:
  status: ('A' for Active; 'I' for Inactive)
    1  A    between atoms: N_2  and  C_12
    2  A    between atoms: C_4  and  C_7
    3  A    between atoms: C_18  and  N_22
                            x       y       z     vdW  Elec       q    Type
                         _______ _______ _______ _____ _____    ______ ____

>  <TORSDO>
F 3

$$$$
