=
 OpenBabel11072409283D

 40 43  0  0  1  0  0  0  0  0999 V2000
  192.3900  174.9650  144.9190 C   0  0  1  0  0  3  0  0  0  0  0  0
  189.8750  177.5790  146.1280 C   0  0  0  0  0  3  0  0  0  0  0  0
  191.1150  175.6230  145.3880 C   0  0  0  0  0  0  0  0  0  0  0  0
  191.7470  173.3550  143.2320 C   0  0  2  0  0  3  0  0  0  0  0  0
  188.6800  176.8400  146.1550 C   0  0  0  0  0  0  0  0  0  0  0  0
  189.9030  173.4350  145.0060 C   0  0  0  0  0  2  0  0  0  0  0  0
  192.3250  174.6840  143.4850 N   0  0  0  0  0  2  0  0  0  0  0  0
  190.2370  173.2910  143.5230 C   0  0  0  0  0  2  0  0  0  0  0  0
  191.0740  176.9830  145.7360 C   0  0  0  0  0  3  0  0  0  0  0  0
  189.9240  174.8730  145.4160 C   0  0  0  0  0  0  0  0  0  0  0  0
  188.7260  175.4770  145.8090 C   0  0  0  0  0  3  0  0  0  0  0  0
  186.3210  176.4020  146.8660 C   0  0  0  0  0  2  0  0  0  0  0  0
  184.6110  178.1960  146.5590 C   0  0  0  0  0  2  0  0  0  0  0  0
  185.5860  179.1690  145.8770 C   0  0  2  0  0  0  0  0  0  0  0  0
  184.9580  176.7440  146.2630 C   0  0  0  0  0  2  0  0  0  0  0  0
  187.4000  177.4860  146.6540 C   0  0  1  0  0  0  0  0  0  0  0  0
  187.6210  178.1690  148.0020 C   0  0  0  0  0  1  0  0  0  0  0  0
  186.9670  178.5410  145.6200 C   0  0  0  0  0  2  0  0  0  0  0  0
  185.7520  180.2860  146.6970 O   0  0  0  0  0  1  0  0  0  0  0  0
  185.0250  179.6060  144.5220 C   0  0  0  0  0  2  0  0  0  0  0  0
  185.9510  179.2950  143.3480 C   0  0  0  0  0  2  0  0  0  0  0  0
  186.8020  177.6250  140.6690 C   0  0  0  0  0  2  0  0  0  0  0  0
  185.3210  177.9240  140.4860 C   0  0  0  0  0  2  0  0  0  0  0  0
  184.6660  177.7890  141.8480 C   0  0  0  0  0  2  0  0  0  0  0  0
  185.7850  177.8490  142.8710 C   0  0  1  0  0  3  0  0  0  0  0  0
  188.3340  177.8830  142.6230 C   0  0  0  0  0  1  0  0  0  0  0  0
  187.0640  175.7940  142.3090 C   0  0  0  0  0  1  0  0  0  0  0  0
  187.0130  177.3030  142.1370 C   0  0  0  0  0  0  0  0  0  0  0  0
  194.1700  175.6960  146.5270 O   0  0  0  0  0  1  0  0  0  0  0  0
  193.6350  175.7280  145.2450 C   0  0  0  0  0  0  0  0  0  0  0  0
  194.2150  176.3860  144.3420 O   0  0  0  0  0  0  0  0  0  0  0  0
  192.5510  172.2250  143.8290 C   0  0  0  0  0  0  0  0  0  0  0  0
  191.9410  171.1700  144.2630 N   0  0  0  0  0  2  0  0  0  0  0  0
  193.9340  172.4280  144.1350 N   0  0  0  0  0  2  0  0  0  0  0  0
  194.7590  171.4100  144.7680 C   0  0  0  0  0  2  0  0  0  0  0  0
  195.7180  172.0610  145.7480 C   0  0  0  0  0  2  0  0  0  0  0  0
  197.0910  172.1360  145.1640 C   0  0  0  0  0  0  0  0  0  0  0  0
  197.7640  171.0820  145.0120 O   0  0  0  0  0  0  0  0  0  0  0  0
  197.6360  173.3850  144.7460 N   0  0  0  0  0  2  0  0  0  0  0  0
  196.9520  174.5390  144.9180 O   0  0  0  0  0  1  0  0  0  0  0  0
  1 30  1  6  0  0  0
  1  3  1  0  0  0  0
  2  5  1  0  0  0  0
  3 10  2  0  0  0  0
  3  9  1  0  0  0  0
  4  7  1  0  0  0  0
  4  8  1  0  0  0  0
  4 32  1  1  0  0  0
  5 16  1  0  0  0  0
  6 10  1  0  0  0  0
  7  1  1  0  0  0  0
  8  6  1  0  0  0  0
  9  2  2  0  0  0  0
 10 11  1  0  0  0  0
 11  5  2  0  0  0  0
 14 13  1  0  0  0  0
 14 19  1  1  0  0  0
 15 13  1  0  0  0  0
 15 12  1  0  0  0  0
 16 12  1  0  0  0  0
 16 17  1  1  0  0  0
 18 14  1  0  0  0  0
 18 16  1  0  0  0  0
 20 14  1  0  0  0  0
 21 20  1  0  0  0  0
 22 28  1  0  0  0  0
 23 22  1  0  0  0  0
 23 24  1  0  0  0  0
 24 25  1  0  0  0  0
 25 21  1  6  0  0  0
 28 27  1  0  0  0  0
 28 26  1  0  0  0  0
 28 25  1  0  0  0  0
 30 29  1  0  0  0  0
 31 30  2  0  0  0  0
 32 34  1  0  0  0  0
 32 33  2  0  0  0  0
 34 35  1  0  0  0  0
 35 36  1  0  0  0  0
 37 36  1  0  0  0  0
 38 37  2  0  0  0  0
 39 40  1  0  0  0  0
 39 37  1  0  0  0  0
M  END
>  <MODEL>
1

>  <REMARK>
 VINA RESULT:      -7.8      0.000      0.000
  Name = 
  9 active torsions:
  status: ('A' for Active; 'I' for Inactive)
    1  A    between atoms: C_2  and  C_13
    2  A    between atoms: C_2  and  C_39
    3  A    between atoms: CA_3  and  C_16
    4  A    between atoms: C_6  and  C_17
    5  A    between atoms: C_14  and  C_39
    6  A    between atoms: C_17  and  C_20
    7  A    between atoms: C_19  and  C_27
    8  A    between atoms: C_20  and  N_37
    9  A    between atoms: C_21  and  C_28
                            x       y       z     vdW  Elec       q    Type
                         _______ _______ _______ _____ _____    ______ ____

>  <TORSDO>
F 9

$$$$
=
 OpenBabel11072409283D

 40 43  0  0  1  0  0  0  0  0999 V2000
  189.1110  174.6470  142.3690 C   0  0  1  0  0  3  0  0  0  0  0  0
  192.7640  174.0820  141.3890 C   0  0  0  0  0  3  0  0  0  0  0  0
  190.6050  174.8180  142.2300 C   0  0  0  0  0  0  0  0  0  0  0  0
  188.1570  176.8660  142.2560 C   0  0  2  0  0  3  0  0  0  0  0  0
  193.3830  175.2350  141.9000 C   0  0  0  0  0  0  0  0  0  0  0  0
  190.4160  177.0260  143.4490 C   0  0  0  0  0  2  0  0  0  0  0  0
  188.4040  175.6130  141.5280 N   0  0  0  0  0  2  0  0  0  0  0  0
  189.4350  177.6910  142.4850 C   0  0  0  0  0  2  0  0  0  0  0  0
  191.3910  173.8820  141.5390 C   0  0  0  0  0  3  0  0  0  0  0  0
  191.2160  175.9740  142.7500 C   0  0  0  0  0  0  0  0  0  0  0  0
  192.5910  176.1680  142.5960 C   0  0  0  0  0  3  0  0  0  0  0  0
  195.4590  174.3230  140.8430 C   0  0  0  0  0  2  0  0  0  0  0  0
  197.6390  174.5850  142.0350 C   0  0  0  0  0  2  0  0  0  0  0  0
  197.0160  175.2610  143.2670 C   0  0  2  0  0  0  0  0  0  0  0  0
  196.6850  173.5900  141.3900 C   0  0  0  0  0  2  0  0  0  0  0  0
  194.8870  175.4000  141.7920 C   0  0  1  0  0  0  0  0  0  0  0  0
  195.2480  176.7590  141.1960 C   0  0  0  0  0  1  0  0  0  0  0  0
  195.4790  175.2980  143.2100 C   0  0  0  0  0  2  0  0  0  0  0  0
  197.4890  176.5720  143.3470 O   0  0  0  0  0  1  0  0  0  0  0  0
  197.4060  174.4960  144.5340 C   0  0  0  0  0  2  0  0  0  0  0  0
  196.2770  173.6390  145.1030 C   0  0  0  0  0  2  0  0  0  0  0  0
  194.9290  170.7490  145.8210 C   0  0  0  0  0  2  0  0  0  0  0  0
  196.4040  170.5830  146.1590 C   0  0  0  0  0  2  0  0  0  0  0  0
  197.1920  171.3300  145.0980 C   0  0  0  0  0  2  0  0  0  0  0  0
  196.2140  172.2700  144.4190 C   0  0  1  0  0  3  0  0  0  0  0  0
  193.6750  172.5450  144.6230 C   0  0  0  0  0  1  0  0  0  0  0  0
  194.6430  170.6570  143.3680 C   0  0  0  0  0  1  0  0  0  0  0  0
  194.8530  171.5810  144.5550 C   0  0  0  0  0  0  0  0  0  0  0  0
  188.0190  172.9480  140.8830 O   0  0  0  0  0  0  0  0  0  0  0  0
  188.6200  173.2600  142.0960 C   0  0  0  0  0  0  0  0  0  0  0  0
  188.7760  172.3630  142.9650 O   0  0  0  0  0  1  0  0  0  0  0  0
  187.2930  176.6910  143.4810 C   0  0  0  0  0  0  0  0  0  0  0  0
  186.1360  176.1220  143.3680 N   0  0  0  0  0  2  0  0  0  0  0  0
  187.6420  177.3650  144.6940 N   0  0  0  0  0  2  0  0  0  0  0  0
  186.8270  177.2960  145.8970 C   0  0  0  0  0  2  0  0  0  0  0  0
  186.2180  178.6560  146.1850 C   0  0  0  0  0  2  0  0  0  0  0  0
  184.8380  178.7410  145.6170 C   0  0  0  0  0  0  0  0  0  0  0  0
  183.8710  178.2400  146.2490 O   0  0  0  0  0  0  0  0  0  0  0  0
  184.6000  179.4130  144.3830 N   0  0  0  0  0  2  0  0  0  0  0  0
  185.6190  179.9400  143.6650 O   0  0  0  0  0  1  0  0  0  0  0  0
  1 30  1  6  0  0  0
  2  9  2  0  0  0  0
  2  5  1  0  0  0  0
  3  1  1  0  0  0  0
  3 10  2  0  0  0  0
  4  8  1  0  0  0  0
  4 32  1  1  0  0  0
  5 11  2  0  0  0  0
  7  4  1  0  0  0  0
  7  1  1  0  0  0  0
  8  6  1  0  0  0  0
  9  3  1  0  0  0  0
 10  6  1  0  0  0  0
 11 10  1  0  0  0  0
 12 15  1  0  0  0  0
 12 16  1  0  0  0  0
 13 14  1  0  0  0  0
 14 19  1  1  0  0  0
 14 20  1  0  0  0  0
 15 13  1  0  0  0  0
 16 17  1  6  0  0  0
 16  5  1  0  0  0  0
 16 18  1  0  0  0  0
 18 14  1  0  0  0  0
 20 21  1  0  0  0  0
 22 23  1  0  0  0  0
 24 23  1  0  0  0  0
 25 28  1  0  0  0  0
 25 24  1  0  0  0  0
 25 21  1  1  0  0  0
 27 28  1  0  0  0  0
 28 26  1  0  0  0  0
 28 22  1  0  0  0  0
 29 30  2  0  0  0  0
 30 31  1  0  0  0  0
 32 34  1  0  0  0  0
 33 32  2  0  0  0  0
 34 35  1  0  0  0  0
 35 36  1  0  0  0  0
 37 36  1  0  0  0  0
 37 38  2  0  0  0  0
 39 37  1  0  0  0  0
 40 39  1  0  0  0  0
M  END
>  <MODEL>
2

>  <REMARK>
 VINA RESULT:      -7.4      3.507      9.995
  Name = 
  9 active torsions:
  status: ('A' for Active; 'I' for Inactive)
    1  A    between atoms: C_2  and  C_13
    2  A    between atoms: C_2  and  C_39
    3  A    between atoms: CA_3  and  C_16
    4  A    between atoms: C_6  and  C_17
    5  A    between atoms: C_14  and  C_39
    6  A    between atoms: C_17  and  C_20
    7  A    between atoms: C_19  and  C_27
    8  A    between atoms: C_20  and  N_37
    9  A    between atoms: C_21  and  C_28
                            x       y       z     vdW  Elec       q    Type
                         _______ _______ _______ _____ _____    ______ ____

>  <TORSDO>
F 9

$$$$
=
 OpenBabel11072409283D

 40 43  0  0  1  0  0  0  0  0999 V2000
  189.3150  175.1640  142.7590 C   0  0  1  0  0  3  0  0  0  0  0  0
  193.0860  174.5380  142.8780 C   0  0  0  0  0  3  0  0  0  0  0  0
  190.7590  175.1690  143.1990 C   0  0  0  0  0  0  0  0  0  0  0  0
  188.4340  177.3540  143.2890 C   0  0  2  0  0  3  0  0  0  0  0  0
  193.4700  175.2960  143.9980 C   0  0  0  0  0  0  0  0  0  0  0  0
  190.1250  176.7120  145.1000 C   0  0  0  0  0  2  0  0  0  0  0  0
  188.9380  176.4730  142.2240 N   0  0  0  0  0  2  0  0  0  0  0  0
  189.5390  177.8340  144.2450 C   0  0  0  0  0  2  0  0  0  0  0  0
  191.7510  174.4870  142.4750 C   0  0  0  0  0  3  0  0  0  0  0  0
  191.1330  175.9260  144.3250 C   0  0  0  0  0  0  0  0  0  0  0  0
  192.4720  175.9740  144.7220 C   0  0  0  0  0  3  0  0  0  0  0  0
  195.8300  175.7910  143.3300 C   0  0  0  0  0  2  0  0  0  0  0  0
  197.6850  174.4990  144.3920 C   0  0  0  0  0  2  0  0  0  0  0  0
  196.7450  173.6050  145.2170 C   0  0  2  0  0  0  0  0  0  0  0  0
  197.0570  174.9160  143.0700 C   0  0  0  0  0  2  0  0  0  0  0  0
  194.9140  175.2800  144.4640 C   0  0  1  0  0  0  0  0  0  0  0  0
  195.1140  176.2140  145.6560 C   0  0  0  0  0  1  0  0  0  0  0  0
  195.2610  173.8410  144.8870 C   0  0  0  0  0  2  0  0  0  0  0  0
  196.9460  173.8720  146.5720 O   0  0  0  0  0  1  0  0  0  0  0  0
  197.0450  172.1310  144.9330 C   0  0  0  0  0  2  0  0  0  0  0  0
  196.8130  171.2170  146.1350 C   0  0  0  0  0  2  0  0  0  0  0  0
  195.0280  168.6940  147.1990 C   0  0  0  0  0  2  0  0  0  0  0  0
  196.4310  168.4240  147.7220 C   0  0  0  0  0  2  0  0  0  0  0  0
  197.4030  168.8580  146.6400 C   0  0  0  0  0  2  0  0  0  0  0  0
  196.6250  169.7600  145.7010 C   0  0  1  0  0  3  0  0  0  0  0  0
  194.1390  170.3640  145.5700 C   0  0  0  0  0  1  0  0  0  0  0  0
  194.9470  168.1730  144.7840 C   0  0  0  0  0  1  0  0  0  0  0  0
  195.1760  169.2740  145.8050 C   0  0  0  0  0  0  0  0  0  0  0  0
  188.9660  174.3360  140.4180 O   0  0  0  0  0  0  0  0  0  0  0  0
  188.9690  174.0830  141.7840 C   0  0  0  0  0  0  0  0  0  0  0  0
  188.7030  172.9270  142.2060 O   0  0  0  0  0  1  0  0  0  0  0  0
  187.1960  176.8250  143.9720 C   0  0  0  0  0  0  0  0  0  0  0  0
  186.2320  176.3400  143.2570 N   0  0  0  0  0  2  0  0  0  0  0  0
  186.9910  177.0870  145.3630 N   0  0  0  0  0  2  0  0  0  0  0  0
  185.7950  176.6670  146.0770 C   0  0  0  0  0  2  0  0  0  0  0  0
  184.7280  177.7420  145.9720 C   0  0  0  0  0  2  0  0  0  0  0  0
  185.3300  179.0960  146.1630 C   0  0  0  0  0  0  0  0  0  0  0  0
  185.7460  179.4400  147.3000 O   0  0  0  0  0  0  0  0  0  0  0  0
  185.4690  179.9910  145.0620 N   0  0  0  0  0  2  0  0  0  0  0  0
  185.0090  179.6640  143.8320 O   0  0  0  0  0  1  0  0  0  0  0  0
  1 30  1  6  0  0  0
  1  3  1  0  0  0  0
  2  5  1  0  0  0  0
  3 10  2  0  0  0  0
  4 32  1  1  0  0  0
  4  8  1  0  0  0  0
  5 16  1  0  0  0  0
  5 11  2  0  0  0  0
  7  1  1  0  0  0  0
  7  4  1  0  0  0  0
  8  6  1  0  0  0  0
  9  2  2  0  0  0  0
  9  3  1  0  0  0  0
 10 11  1  0  0  0  0
 10  6  1  0  0  0  0
 12 16  1  0  0  0  0
 13 14  1  0  0  0  0
 14 19  1  1  0  0  0
 15 12  1  0  0  0  0
 15 13  1  0  0  0  0
 16 18  1  0  0  0  0
 16 17  1  1  0  0  0
 18 14  1  0  0  0  0
 20 14  1  0  0  0  0
 20 21  1  0  0  0  0
 22 23  1  0  0  0  0
 24 23  1  0  0  0  0
 25 28  1  0  0  0  0
 25 21  1  1  0  0  0
 25 24  1  0  0  0  0
 26 28  1  0  0  0  0
 27 28  1  0  0  0  0
 28 22  1  0  0  0  0
 29 30  2  0  0  0  0
 30 31  1  0  0  0  0
 32 34  1  0  0  0  0
 33 32  2  0  0  0  0
 34 35  1  0  0  0  0
 36 35  1  0  0  0  0
 36 37  1  0  0  0  0
 37 38  2  0  0  0  0
 39 37  1  0  0  0  0
 40 39  1  0  0  0  0
M  END
>  <MODEL>
3

>  <REMARK>
 VINA RESULT:      -7.3      3.250     10.279
  Name = 
  9 active torsions:
  status: ('A' for Active; 'I' for Inactive)
    1  A    between atoms: C_2  and  C_13
    2  A    between atoms: C_2  and  C_39
    3  A    between atoms: CA_3  and  C_16
    4  A    between atoms: C_6  and  C_17
    5  A    between atoms: C_14  and  C_39
    6  A    between atoms: C_17  and  C_20
    7  A    between atoms: C_19  and  C_27
    8  A    between atoms: C_20  and  N_37
    9  A    between atoms: C_21  and  C_28
                            x       y       z     vdW  Elec       q    Type
                         _______ _______ _______ _____ _____    ______ ____

>  <TORSDO>
F 9

$$$$
=
 OpenBabel11072409283D

 40 43  0  0  1  0  0  0  0  0999 V2000
  189.9230  176.4430  144.5050 C   0  0  1  0  0  3  0  0  0  0  0  0
  193.3850  175.1400  143.5350 C   0  0  0  0  0  3  0  0  0  0  0  0
  191.2680  175.7600  144.5580 C   0  0  0  0  0  0  0  0  0  0  0  0
  189.5630  177.4140  146.6900 C   0  0  2  0  0  3  0  0  0  0  0  0
  193.8240  174.5630  144.7390 C   0  0  0  0  0  0  0  0  0  0  0  0
  190.8400  175.2160  146.9910 C   0  0  0  0  0  2  0  0  0  0  0  0
  189.9420  177.6750  145.2930 N   0  0  0  0  0  2  0  0  0  0  0  0
  190.6460  176.6520  147.4740 C   0  0  0  0  0  2  0  0  0  0  0  0
  192.1290  175.7430  143.4490 C   0  0  0  0  0  3  0  0  0  0  0  0
  191.6970  175.1800  145.7670 C   0  0  0  0  0  0  0  0  0  0  0  0
  192.9560  174.5790  145.8460 C   0  0  0  0  0  3  0  0  0  0  0  0
  195.8930  174.0150  143.4410 C   0  0  0  0  0  2  0  0  0  0  0  0
  197.1370  171.9170  143.9790 C   0  0  0  0  0  2  0  0  0  0  0  0
  196.1310  171.4550  145.0450 C   0  0  2  0  0  0  0  0  0  0  0  0
  196.4660  172.7160  142.8720 C   0  0  0  0  0  2  0  0  0  0  0  0
  195.1620  173.8480  144.7920 C   0  0  1  0  0  0  0  0  0  0  0  0
  196.0630  174.4520  145.8670 C   0  0  0  0  0  1  0  0  0  0  0  0
  194.8960  172.3700  145.1300 C   0  0  0  0  0  2  0  0  0  0  0  0
  196.7650  171.4500  146.2890 O   0  0  0  0  0  1  0  0  0  0  0  0
  195.6320  170.0470  144.7170 C   0  0  0  0  0  2  0  0  0  0  0  0
  194.1420  169.9860  144.3880 C   0  0  0  0  0  2  0  0  0  0  0  0
  191.6600  169.7230  142.2760 C   0  0  0  0  0  2  0  0  0  0  0  0
  192.7010  168.7310  141.7770 C   0  0  0  0  0  2  0  0  0  0  0  0
  194.0620  169.3710  141.9820 C   0  0  0  0  0  2  0  0  0  0  0  0
  193.8600  170.5020  142.9730 C   0  0  1  0  0  3  0  0  0  0  0  0
  191.7490  171.5130  144.0140 C   0  0  0  0  0  1  0  0  0  0  0  0
  192.3700  172.0140  141.6820 C   0  0  0  0  0  1  0  0  0  0  0  0
  192.4100  170.9480  142.7630 C   0  0  0  0  0  0  0  0  0  0  0  0
  189.6330  177.9560  142.5260 O   0  0  0  0  0  1  0  0  0  0  0  0
  189.4240  176.7170  143.1200 C   0  0  0  0  0  0  0  0  0  0  0  0
  188.8320  175.8090  142.4820 O   0  0  0  0  0  0  0  0  0  0  0  0
  188.1680  176.8590  146.8430 C   0  0  0  0  0  0  0  0  0  0  0  0
  188.0090  175.6170  147.1720 N   0  0  0  0  0  2  0  0  0  0  0  0
  187.0490  177.6260  146.3870 N   0  0  0  0  0  2  0  0  0  0  0  0
  185.6810  177.1340  146.4410 C   0  0  0  0  0  2  0  0  0  0  0  0
  184.8260  177.8790  145.4320 C   0  0  0  0  0  2  0  0  0  0  0  0
  185.4640  177.8470  144.0820 C   0  0  0  0  0  0  0  0  0  0  0  0
  185.6850  176.7420  143.5210 O   0  0  0  0  0  0  0  0  0  0  0  0
  185.7960  179.0570  143.4060 N   0  0  0  0  0  2  0  0  0  0  0  0
  185.5970  180.2620  143.9900 O   0  0  0  0  0  1  0  0  0  0  0  0
  1 30  1  6  0  0  0
  1  3  1  0  0  0  0
  1  7  1  0  0  0  0
  2  5  1  0  0  0  0
  3 10  2  0  0  0  0
  4 32  1  6  0  0  0
  4  8  1  0  0  0  0
  5 16  1  0  0  0  0
  5 11  2  0  0  0  0
  6  8  1  0  0  0  0
  7  4  1  0  0  0  0
  9  2  2  0  0  0  0
  9  3  1  0  0  0  0
 10 11  1  0  0  0  0
 10  6  1  0  0  0  0
 12 16  1  0  0  0  0
 13 14  1  0  0  0  0
 14 18  1  0  0  0  0
 14 19  1  1  0  0  0
 15 12  1  0  0  0  0
 15 13  1  0  0  0  0
 16 18  1  0  0  0  0
 16 17  1  1  0  0  0
 20 14  1  0  0  0  0
 21 20  1  0  0  0  0
 22 28  1  0  0  0  0
 23 24  1  0  0  0  0
 23 22  1  0  0  0  0
 24 25  1  0  0  0  0
 25 21  1  1  0  0  0
 27 28  1  0  0  0  0
 28 25  1  0  0  0  0
 28 26  1  0  0  0  0
 29 30  1  0  0  0  0
 31 30  2  0  0  0  0
 32 33  2  0  0  0  0
 34 35  1  0  0  0  0
 34 32  1  0  0  0  0
 36 35  1  0  0  0  0
 37 36  1  0  0  0  0
 38 37  2  0  0  0  0
 39 40  1  0  0  0  0
 39 37  1  0  0  0  0
M  END
>  <MODEL>
4

>  <REMARK>
 VINA RESULT:      -7.0      3.015      9.428
  Name = 
  9 active torsions:
  status: ('A' for Active; 'I' for Inactive)
    1  A    between atoms: C_2  and  C_13
    2  A    between atoms: C_2  and  C_39
    3  A    between atoms: CA_3  and  C_16
    4  A    between atoms: C_6  and  C_17
    5  A    between atoms: C_14  and  C_39
    6  A    between atoms: C_17  and  C_20
    7  A    between atoms: C_19  and  C_27
    8  A    between atoms: C_20  and  N_37
    9  A    between atoms: C_21  and  C_28
                            x       y       z     vdW  Elec       q    Type
                         _______ _______ _______ _____ _____    ______ ____

>  <TORSDO>
F 9

$$$$
=
 OpenBabel11072409283D

 40 43  0  0  1  0  0  0  0  0999 V2000
  186.5230  177.4220  141.7740 C   0  0  1  0  0  3  0  0  0  0  0  0
  188.7500  174.5280  140.6350 C   0  0  0  0  0  3  0  0  0  0  0  0
  187.4580  176.2360  141.7880 C   0  0  0  0  0  0  0  0  0  0  0  0
  187.2630  178.8940  143.5440 C   0  0  2  0  0  3  0  0  0  0  0  0
  189.2980  174.0890  141.8520 C   0  0  0  0  0  0  0  0  0  0  0  0
  187.6500  176.4790  144.2980 C   0  0  0  0  0  2  0  0  0  0  0  0
  187.2490  178.6510  142.0940 N   0  0  0  0  0  2  0  0  0  0  0  0
  188.1700  177.9150  144.3100 C   0  0  0  0  0  2  0  0  0  0  0  0
  187.8530  175.5970  140.6010 C   0  0  0  0  0  3  0  0  0  0  0  0
  187.9980  175.8000  143.0120 C   0  0  0  0  0  0  0  0  0  0  0  0
  188.8960  174.7300  143.0390 C   0  0  0  0  0  3  0  0  0  0  0  0
  189.8400  171.9710  143.0700 C   0  0  0  0  0  2  0  0  0  0  0  0
  192.1810  171.1030  143.0030 C   0  0  0  0  0  2  0  0  0  0  0  0
  192.7200  172.2870  142.1840 C   0  0  2  0  0  0  0  0  0  0  0  0
  191.0330  171.5160  143.9120 C   0  0  0  0  0  2  0  0  0  0  0  0
  190.2140  172.8790  141.8780 C   0  0  1  0  0  0  0  0  0  0  0  0
  190.0520  172.0430  140.6100 C   0  0  0  0  0  1  0  0  0  0  0  0
  191.6650  173.3850  141.9650 C   0  0  0  0  0  2  0  0  0  0  0  0
  193.1380  171.8170  140.9380 O   0  0  0  0  0  1  0  0  0  0  0  0
  193.9020  172.9300  142.9130 C   0  0  0  0  0  2  0  0  0  0  0  0
  193.6680  174.3920  143.2870 C   0  0  0  0  0  2  0  0  0  0  0  0
  193.5070  176.6920  145.6050 C   0  0  0  0  0  2  0  0  0  0  0  0
  194.5050  175.6740  146.1380 C   0  0  0  0  0  2  0  0  0  0  0  0
  193.9930  174.2990  145.7480 C   0  0  0  0  0  2  0  0  0  0  0  0
  192.9730  174.5180  144.6460 C   0  0  1  0  0  3  0  0  0  0  0  0
  191.9420  176.6460  143.6610 C   0  0  0  0  0  1  0  0  0  0  0  0
  191.2180  175.7940  145.8570 C   0  0  0  0  0  1  0  0  0  0  0  0
  192.4030  175.9140  144.9140 C   0  0  0  0  0  0  0  0  0  0  0  0
  186.3830  177.4480  139.2700 O   0  0  0  0  0  0  0  0  0  0  0  0
  185.7530  177.5860  140.5010 C   0  0  0  0  0  0  0  0  0  0  0  0
  184.5190  177.8290  140.5480 O   0  0  0  0  0  1  0  0  0  0  0  0
  185.8860  179.0720  144.1380 C   0  0  0  0  0  0  0  0  0  0  0  0
  185.2280  180.1620  143.9030 N   0  0  0  0  0  2  0  0  0  0  0  0
  185.4270  178.1620  145.1420 N   0  0  0  0  0  2  0  0  0  0  0  0
  184.1400  178.3050  145.8060 C   0  0  0  0  0  2  0  0  0  0  0  0
  184.3340  178.2920  147.3120 C   0  0  0  0  0  2  0  0  0  0  0  0
  185.7430  177.9320  147.6540 C   0  0  0  0  0  0  0  0  0  0  0  0
  186.1120  176.7290  147.5990 O   0  0  0  0  0  0  0  0  0  0  0  0
  186.6840  178.9400  148.0130 N   0  0  0  0  0  2  0  0  0  0  0  0
  186.3160  180.2380  148.1090 O   0  0  0  0  0  1  0  0  0  0  0  0
  1 30  1  6  0  0  0
  1  3  1  0  0  0  0
  1  7  1  0  0  0  0
  2  5  1  0  0  0  0
  3 10  2  0  0  0  0
  4 32  1  1  0  0  0
  4  8  1  0  0  0  0
  5 16  1  0  0  0  0
  5 11  2  0  0  0  0
  6  8  1  0  0  0  0
  7  4  1  0  0  0  0
  9  2  2  0  0  0  0
  9  3  1  0  0  0  0
 10 11  1  0  0  0  0
 10  6  1  0  0  0  0
 12 15  1  0  0  0  0
 13 15  1  0  0  0  0
 14 19  1  6  0  0  0
 14 20  1  0  0  0  0
 14 13  1  0  0  0  0
 16 17  1  6  0  0  0
 16 18  1  0  0  0  0
 16 12  1  0  0  0  0
 18 14  1  0  0  0  0
 20 21  1  0  0  0  0
 22 23  1  0  0  0  0
 24 23  1  0  0  0  0
 25 21  1  6  0  0  0
 25 28  1  0  0  0  0
 25 24  1  0  0  0  0
 26 28  1  0  0  0  0
 28 22  1  0  0  0  0
 28 27  1  0  0  0  0
 29 30  2  0  0  0  0
 30 31  1  0  0  0  0
 32 34  1  0  0  0  0
 33 32  2  0  0  0  0
 34 35  1  0  0  0  0
 35 36  1  0  0  0  0
 36 37  1  0  0  0  0
 37 39  1  0  0  0  0
 38 37  2  0  0  0  0
 39 40  1  0  0  0  0
M  END
>  <MODEL>
5

>  <REMARK>
 VINA RESULT:      -7.0      3.907      9.156
  Name = 
  9 active torsions:
  status: ('A' for Active; 'I' for Inactive)
    1  A    between atoms: C_2  and  C_13
    2  A    between atoms: C_2  and  C_39
    3  A    between atoms: CA_3  and  C_16
    4  A    between atoms: C_6  and  C_17
    5  A    between atoms: C_14  and  C_39
    6  A    between atoms: C_17  and  C_20
    7  A    between atoms: C_19  and  C_27
    8  A    between atoms: C_20  and  N_37
    9  A    between atoms: C_21  and  C_28
                            x       y       z     vdW  Elec       q    Type
                         _______ _______ _______ _____ _____    ______ ____

>  <TORSDO>
F 9

$$$$
=
 OpenBabel11072409283D

 40 43  0  0  1  0  0  0  0  0999 V2000
  188.2300  176.3490  144.0640 C   0  0  1  0  0  3  0  0  0  0  0  0
  189.9460  174.0450  141.5390 C   0  0  0  0  0  3  0  0  0  0  0  0
  189.0710  175.2490  143.4630 C   0  0  0  0  0  0  0  0  0  0  0  0
  189.4590  177.1820  145.9730 C   0  0  2  0  0  3  0  0  0  0  0  0
  190.7470  173.2470  142.3740 C   0  0  0  0  0  0  0  0  0  0  0  0
  189.8800  174.6640  145.7870 C   0  0  0  0  0  2  0  0  0  0  0  0
  189.0800  177.4250  144.5730 N   0  0  0  0  0  2  0  0  0  0  0  0
  190.4680  176.0310  146.1320 C   0  0  0  0  0  2  0  0  0  0  0  0
  189.1300  175.0420  142.0750 C   0  0  0  0  0  3  0  0  0  0  0  0
  189.8660  174.4520  144.3070 C   0  0  0  0  0  0  0  0  0  0  0  0
  190.6820  173.4550  143.7640 C   0  0  0  0  0  3  0  0  0  0  0  0
  191.3080  170.8160  142.5650 C   0  0  0  0  0  2  0  0  0  0  0  0
  193.5500  170.0280  141.7980 C   0  0  0  0  0  2  0  0  0  0  0  0
  194.0490  171.4350  141.4340 C   0  0  2  0  0  0  0  0  0  0  0  0
  192.5730  170.0550  142.9640 C   0  0  0  0  0  2  0  0  0  0  0  0
  191.5710  172.1200  141.7800 C   0  0  1  0  0  0  0  0  0  0  0  0
  191.1740  171.8570  140.3290 C   0  0  0  0  0  1  0  0  0  0  0  0
  193.0520  172.5380  141.8300 C   0  0  0  0  0  2  0  0  0  0  0  0
  194.2530  171.4960  140.0540 O   0  0  0  0  0  1  0  0  0  0  0  0
  195.3630  171.7270  142.1610 C   0  0  0  0  0  2  0  0  0  0  0  0
  195.3550  173.0430  142.9360 C   0  0  0  0  0  2  0  0  0  0  0  0
  195.7730  174.6100  145.7740 C   0  0  0  0  0  2  0  0  0  0  0  0
  196.6960  173.4030  145.8590 C   0  0  0  0  0  2  0  0  0  0  0  0
  195.9710  172.2400  145.2050 C   0  0  0  0  0  2  0  0  0  0  0  0
  194.8560  172.8440  144.3710 C   0  0  1  0  0  3  0  0  0  0  0  0
  193.9830  175.2420  144.1530 C   0  0  0  0  0  1  0  0  0  0  0  0
  193.4400  173.8770  146.1320 C   0  0  0  0  0  1  0  0  0  0  0  0
  194.5030  174.1530  145.0820 C   0  0  0  0  0  0  0  0  0  0  0  0
  186.0600  176.1510  142.8230 O   0  0  0  0  0  1  0  0  0  0  0  0
  187.1850  176.9000  143.1450 C   0  0  0  0  0  0  0  0  0  0  0  0
  187.3170  178.0620  142.6790 O   0  0  0  0  0  0  0  0  0  0  0  0
  188.2800  177.1210  146.9140 C   0  0  0  0  0  0  0  0  0  0  0  0
  187.8070  175.9690  147.2670 N   0  0  0  0  0  2  0  0  0  0  0  0
  187.5470  178.3140  147.2060 N   0  0  0  0  0  2  0  0  0  0  0  0
  186.3640  178.3250  148.0520 C   0  0  0  0  0  2  0  0  0  0  0  0
  185.1840  178.8880  147.2790 C   0  0  0  0  0  2  0  0  0  0  0  0
  184.7920  177.9620  146.1750 C   0  0  0  0  0  0  0  0  0  0  0  0
  184.6740  176.7290  146.4050 O   0  0  0  0  0  0  0  0  0  0  0  0
  184.5190  178.4620  144.8680 N   0  0  0  0  0  2  0  0  0  0  0  0
  184.6630  179.7770  144.5790 O   0  0  0  0  0  1  0  0  0  0  0  0
  1 30  1  6  0  0  0
  1  7  1  0  0  0  0
  2  9  2  0  0  0  0
  2  5  1  0  0  0  0
  3  1  1  0  0  0  0
  3 10  2  0  0  0  0
  4  8  1  0  0  0  0
  4 32  1  1  0  0  0
  5 11  2  0  0  0  0
  6  8  1  0  0  0  0
  7  4  1  0  0  0  0
  9  3  1  0  0  0  0
 10  6  1  0  0  0  0
 11 10  1  0  0  0  0
 12 15  1  0  0  0  0
 13 15  1  0  0  0  0
 14 19  1  6  0  0  0
 14 13  1  0  0  0  0
 14 18  1  0  0  0  0
 14 20  1  0  0  0  0
 16 17  1  6  0  0  0
 16 18  1  0  0  0  0
 16  5  1  0  0  0  0
 16 12  1  0  0  0  0
 20 21  1  0  0  0  0
 22 23  1  0  0  0  0
 24 23  1  0  0  0  0
 25 21  1  6  0  0  0
 25 28  1  0  0  0  0
 25 24  1  0  0  0  0
 26 28  1  0  0  0  0
 28 22  1  0  0  0  0
 28 27  1  0  0  0  0
 29 30  1  0  0  0  0
 31 30  2  0  0  0  0
 32 34  1  0  0  0  0
 32 33  2  0  0  0  0
 34 35  1  0  0  0  0
 36 35  1  0  0  0  0
 37 38  2  0  0  0  0
 37 36  1  0  0  0  0
 39 37  1  0  0  0  0
 40 39  1  0  0  0  0
M  END
>  <MODEL>
6

>  <REMARK>
 VINA RESULT:      -7.0      3.453      9.533
  Name = 
  9 active torsions:
  status: ('A' for Active; 'I' for Inactive)
    1  A    between atoms: C_2  and  C_13
    2  A    between atoms: C_2  and  C_39
    3  A    between atoms: CA_3  and  C_16
    4  A    between atoms: C_6  and  C_17
    5  A    between atoms: C_14  and  C_39
    6  A    between atoms: C_17  and  C_20
    7  A    between atoms: C_19  and  C_27
    8  A    between atoms: C_20  and  N_37
    9  A    between atoms: C_21  and  C_28
                            x       y       z     vdW  Elec       q    Type
                         _______ _______ _______ _____ _____    ______ ____

>  <TORSDO>
F 9

$$$$
=
 OpenBabel11072409283D

 40 43  0  0  1  0  0  0  0  0999 V2000
  192.3940  175.3010  144.2960 C   0  0  1  0  0  3  0  0  0  0  0  0
  190.0390  177.5080  146.3470 C   0  0  0  0  0  3  0  0  0  0  0  0
  191.1480  175.8780  144.9230 C   0  0  0  0  0  0  0  0  0  0  0  0
  191.7820  174.6360  142.0520 C   0  0  2  0  0  3  0  0  0  0  0  0
  188.7790  176.9970  145.9900 C   0  0  0  0  0  0  0  0  0  0  0  0
  189.7700  174.2340  143.5840 C   0  0  0  0  0  2  0  0  0  0  0  0
  192.4600  175.6480  142.8760 N   0  0  0  0  0  2  0  0  0  0  0  0
  190.2510  174.6680  142.2000 C   0  0  0  0  0  2  0  0  0  0  0  0
  191.2070  176.9650  145.8110 C   0  0  0  0  0  3  0  0  0  0  0  0
  189.8910  175.3570  144.5630 C   0  0  0  0  0  0  0  0  0  0  0  0
  188.7250  175.9050  145.1040 C   0  0  0  0  0  3  0  0  0  0  0  0
  186.5400  176.3980  146.9320 C   0  0  0  0  0  2  0  0  0  0  0  0
  184.7040  178.0900  146.8600 C   0  0  0  0  0  2  0  0  0  0  0  0
  185.5420  179.1370  146.1080 C   0  0  2  0  0  0  0  0  0  0  0  0
  185.1020  176.6690  146.4860 C   0  0  0  0  0  2  0  0  0  0  0  0
  187.5250  177.5510  146.6390 C   0  0  1  0  0  0  0  0  0  0  0  0
  187.8480  178.2140  147.9770 C   0  0  0  0  0  1  0  0  0  0  0  0
  186.9220  178.6020  145.6890 C   0  0  0  0  0  2  0  0  0  0  0  0
  185.7290  180.2430  146.9400 O   0  0  0  0  0  1  0  0  0  0  0  0
  184.8150  179.5700  144.8330 C   0  0  0  0  0  2  0  0  0  0  0  0
  185.6380  179.3710  143.5620 C   0  0  0  0  0  2  0  0  0  0  0  0
  186.0000  178.0050  140.6150 C   0  0  0  0  0  2  0  0  0  0  0  0
  184.5000  178.2170  140.7620 C   0  0  0  0  0  2  0  0  0  0  0  0
  184.1460  177.9180  142.2080 C   0  0  0  0  0  2  0  0  0  0  0  0
  185.4480  177.9640  142.9860 C   0  0  1  0  0  3  0  0  0  0  0  0
  187.8870  178.1940  142.2380 C   0  0  0  0  0  1  0  0  0  0  0  0
  186.6830  176.0590  141.9770 C   0  0  0  0  0  1  0  0  0  0  0  0
  186.5240  177.5700  141.9700 C   0  0  0  0  0  0  0  0  0  0  0  0
  193.9280  175.2450  146.2790 O   0  0  0  0  0  1  0  0  0  0  0  0
  193.6660  175.6820  144.9860 C   0  0  0  0  0  0  0  0  0  0  0  0
  194.5170  176.3840  144.3790 O   0  0  0  0  0  0  0  0  0  0  0  0
  192.3960  173.2610  142.1610 C   0  0  0  0  0  0  0  0  0  0  0  0
  193.5980  173.1360  142.6260 N   0  0  0  0  0  2  0  0  0  0  0  0
  191.7550  172.1490  141.5290 N   0  0  0  0  0  2  0  0  0  0  0  0
  192.3170  170.8080  141.5350 C   0  0  0  0  0  2  0  0  0  0  0  0
  192.8900  170.4830  140.1670 C   0  0  0  0  0  2  0  0  0  0  0  0
  192.8680  169.0090  139.9270 C   0  0  0  0  0  0  0  0  0  0  0  0
  193.7480  168.2770  140.4520 O   0  0  0  0  0  0  0  0  0  0  0  0
  191.8410  168.4170  139.1350 N   0  0  0  0  0  2  0  0  0  0  0  0
  190.8960  169.1760  138.5340 O   0  0  0  0  0  1  0  0  0  0  0  0
  1  3  1  0  0  0  0
  1 30  1  1  0  0  0
  3  9  1  0  0  0  0
  4 32  1  1  0  0  0
  4  8  1  0  0  0  0
  4  7  1  0  0  0  0
  5  2  1  0  0  0  0
  5 16  1  0  0  0  0
  6 10  1  0  0  0  0
  7  1  1  0  0  0  0
  8  6  1  0  0  0  0
  9  2  2  0  0  0  0
 10  3  2  0  0  0  0
 10 11  1  0  0  0  0
 11  5  2  0  0  0  0
 14 13  1  0  0  0  0
 14 19  1  1  0  0  0
 15 13  1  0  0  0  0
 15 12  1  0  0  0  0
 16 12  1  0  0  0  0
 16 17  1  1  0  0  0
 18 14  1  0  0  0  0
 18 16  1  0  0  0  0
 20 14  1  0  0  0  0
 21 20  1  0  0  0  0
 22 23  1  0  0  0  0
 22 28  1  0  0  0  0
 23 24  1  0  0  0  0
 24 25  1  0  0  0  0
 25 21  1  6  0  0  0
 28 27  1  0  0  0  0
 28 26  1  0  0  0  0
 28 25  1  0  0  0  0
 30 29  1  0  0  0  0
 31 30  2  0  0  0  0
 32 33  2  0  0  0  0
 34 35  1  0  0  0  0
 34 32  1  0  0  0  0
 36 35  1  0  0  0  0
 37 36  1  0  0  0  0
 37 38  2  0  0  0  0
 39 37  1  0  0  0  0
 40 39  1  0  0  0  0
M  END
>  <MODEL>
7

>  <REMARK>
 VINA RESULT:      -6.9      2.499      3.149
  Name = 
  9 active torsions:
  status: ('A' for Active; 'I' for Inactive)
    1  A    between atoms: C_2  and  C_13
    2  A    between atoms: C_2  and  C_39
    3  A    between atoms: CA_3  and  C_16
    4  A    between atoms: C_6  and  C_17
    5  A    between atoms: C_14  and  C_39
    6  A    between atoms: C_17  and  C_20
    7  A    between atoms: C_19  and  C_27
    8  A    between atoms: C_20  and  N_37
    9  A    between atoms: C_21  and  C_28
                            x       y       z     vdW  Elec       q    Type
                         _______ _______ _______ _____ _____    ______ ____

>  <TORSDO>
F 9

$$$$
=
 OpenBabel11072409283D

 40 43  0  0  1  0  0  0  0  0999 V2000
  188.5300  176.1890  144.0760 C   0  0  1  0  0  3  0  0  0  0  0  0
  191.3510  173.8790  142.9230 C   0  0  0  0  0  3  0  0  0  0  0  0
  189.6210  175.1450  144.0700 C   0  0  0  0  0  0  0  0  0  0  0  0
  188.6970  177.3380  146.1980 C   0  0  2  0  0  3  0  0  0  0  0  0
  191.7310  173.2630  144.1280 C   0  0  0  0  0  0  0  0  0  0  0  0
  189.3140  174.8810  146.5670 C   0  0  0  0  0  2  0  0  0  0  0  0
  188.9840  177.4020  144.7570 N   0  0  0  0  0  2  0  0  0  0  0  0
  189.5920  176.3350  146.9460 C   0  0  0  0  0  2  0  0  0  0  0  0
  190.3190  174.8180  142.8970 C   0  0  0  0  0  3  0  0  0  0  0  0
  189.9910  174.5310  145.2810 C   0  0  0  0  0  0  0  0  0  0  0  0
  191.0260  173.5910  145.3000 C   0  0  0  0  0  3  0  0  0  0  0  0
  193.7420  172.3930  145.3360 C   0  0  0  0  0  2  0  0  0  0  0  0
  195.5000  171.1790  144.0430 C   0  0  0  0  0  2  0  0  0  0  0  0
  194.8060  171.3820  142.6860 C   0  0  2  0  0  0  0  0  0  0  0  0
  195.2320  172.3340  144.9960 C   0  0  0  0  0  2  0  0  0  0  0  0
  192.8050  172.1910  144.1250 C   0  0  1  0  0  0  0  0  0  0  0  0
  192.1900  170.8000  144.2610 C   0  0  0  0  0  1  0  0  0  0  0  0
  193.5600  172.2800  142.7860 C   0  0  0  0  0  2  0  0  0  0  0  0
  194.4160  170.1370  142.1910 O   0  0  0  0  0  1  0  0  0  0  0  0
  195.7690  172.0480  141.7020 C   0  0  0  0  0  2  0  0  0  0  0  0
  195.4360  173.5110  141.4140 C   0  0  0  0  0  2  0  0  0  0  0  0
  196.0990  176.7080  141.2630 C   0  0  0  0  0  2  0  0  0  0  0  0
  197.2340  176.0410  140.5010 C   0  0  0  0  0  2  0  0  0  0  0  0
  197.5760  174.7600  141.2400 C   0  0  0  0  0  2  0  0  0  0  0  0
  196.3950  174.4570  142.1430 C   0  0  1  0  0  3  0  0  0  0  0  0
  194.2810  175.7900  142.7070 C   0  0  0  0  0  1  0  0  0  0  0  0
  196.4570  176.4020  143.6890 C   0  0  0  0  0  1  0  0  0  0  0  0
  195.7830  175.8260  142.4550 C   0  0  0  0  0  0  0  0  0  0  0  0
  187.0850  175.6760  142.0920 O   0  0  0  0  0  0  0  0  0  0  0  0
  187.9880  176.5240  142.7220 C   0  0  0  0  0  0  0  0  0  0  0  0
  188.3350  177.5960  142.1610 O   0  0  0  0  0  1  0  0  0  0  0  0
  187.2250  177.2250  146.5140 C   0  0  0  0  0  0  0  0  0  0  0  0
  186.8360  176.4380  147.4650 N   0  0  0  0  0  2  0  0  0  0  0  0
  186.2640  177.7860  145.6140 N   0  0  0  0  0  2  0  0  0  0  0  0
  184.8290  177.6640  145.8160 C   0  0  0  0  0  2  0  0  0  0  0  0
  184.1160  178.8380  145.1670 C   0  0  0  0  0  2  0  0  0  0  0  0
  184.9510  179.4150  144.0720 C   0  0  0  0  0  0  0  0  0  0  0  0
  185.5650  180.4990  144.2580 O   0  0  0  0  0  0  0  0  0  0  0  0
  185.0870  178.7360  142.8260 N   0  0  0  0  0  2  0  0  0  0  0  0
  184.4200  177.5840  142.5810 O   0  0  0  0  0  1  0  0  0  0  0  0
  1 30  1  6  0  0  0
  1  7  1  0  0  0  0
  2  5  1  0  0  0  0
  3  1  1  0  0  0  0
  3 10  2  0  0  0  0
  4 32  1  6  0  0  0
  4  8  1  0  0  0  0
  5 11  2  0  0  0  0
  6  8  1  0  0  0  0
  7  4  1  0  0  0  0
  9  2  2  0  0  0  0
  9  3  1  0  0  0  0
 10 11  1  0  0  0  0
 10  6  1  0  0  0  0
 13 15  1  0  0  0  0
 14 19  1  6  0  0  0
 14 18  1  0  0  0  0
 14 13  1  0  0  0  0
 15 12  1  0  0  0  0
 16  5  1  0  0  0  0
 16 17  1  1  0  0  0
 16 12  1  0  0  0  0
 18 16  1  0  0  0  0
 20 14  1  0  0  0  0
 21 20  1  0  0  0  0
 22 28  1  0  0  0  0
 23 24  1  0  0  0  0
 23 22  1  0  0  0  0
 24 25  1  0  0  0  0
 25 21  1  6  0  0  0
 25 28  1  0  0  0  0
 28 26  1  0  0  0  0
 28 27  1  0  0  0  0
 29 30  2  0  0  0  0
 31 30  1  0  0  0  0
 32 33  2  0  0  0  0
 34 35  1  0  0  0  0
 34 32  1  0  0  0  0
 36 35  1  0  0  0  0
 37 38  2  0  0  0  0
 37 36  1  0  0  0  0
 39 37  1  0  0  0  0
 40 39  1  0  0  0  0
M  END
>  <MODEL>
8

>  <REMARK>
 VINA RESULT:      -6.9      3.554      9.597
  Name = 
  9 active torsions:
  status: ('A' for Active; 'I' for Inactive)
    1  A    between atoms: C_2  and  C_13
    2  A    between atoms: C_2  and  C_39
    3  A    between atoms: CA_3  and  C_16
    4  A    between atoms: C_6  and  C_17
    5  A    between atoms: C_14  and  C_39
    6  A    between atoms: C_17  and  C_20
    7  A    between atoms: C_19  and  C_27
    8  A    between atoms: C_20  and  N_37
    9  A    between atoms: C_21  and  C_28
                            x       y       z     vdW  Elec       q    Type
                         _______ _______ _______ _____ _____    ______ ____

>  <TORSDO>
F 9

$$$$
=
 OpenBabel11072409283D

 40 43  0  0  1  0  0  0  0  0999 V2000
  189.8990  176.0990  144.5460 C   0  0  1  0  0  3  0  0  0  0  0  0
  193.2480  174.5090  143.6050 C   0  0  0  0  0  3  0  0  0  0  0  0
  191.2100  175.3540  144.6280 C   0  0  0  0  0  0  0  0  0  0  0  0
  189.6830  177.3280  146.6180 C   0  0  2  0  0  3  0  0  0  0  0  0
  193.7090  174.0480  144.8500 C   0  0  0  0  0  0  0  0  0  0  0  0
  190.8600  175.1110  147.1210 C   0  0  0  0  0  2  0  0  0  0  0  0
  190.0140  177.4090  145.1880 N   0  0  0  0  0  2  0  0  0  0  0  0
  190.7590  176.6010  147.4440 C   0  0  0  0  0  2  0  0  0  0  0  0
  192.0210  175.1660  143.4970 C   0  0  0  0  0  3  0  0  0  0  0  0
  191.6610  174.8910  145.8790 C   0  0  0  0  0  0  0  0  0  0  0  0
  192.8910  174.2350  145.9790 C   0  0  0  0  0  3  0  0  0  0  0  0
  196.0400  174.0750  145.7600 C   0  0  0  0  0  2  0  0  0  0  0  0
  197.8290  172.8260  144.5450 C   0  0  0  0  0  2  0  0  0  0  0  0
  196.9030  172.3830  143.4000 C   0  0  2  0  0  0  0  0  0  0  0  0
  197.4220  174.1770  145.1140 C   0  0  0  0  0  2  0  0  0  0  0  0
  195.0100  173.2720  144.9350 C   0  0  1  0  0  0  0  0  0  0  0  0
  194.8060  171.9380  145.6510 C   0  0  0  0  0  1  0  0  0  0  0  0
  195.4980  173.0040  143.5000 C   0  0  0  0  0  2  0  0  0  0  0  0
  196.7770  170.9940  143.4360 O   0  0  0  0  0  1  0  0  0  0  0  0
  197.4950  172.8110  142.0560 C   0  0  0  0  0  2  0  0  0  0  0  0
  196.9350  174.1330  141.5330 C   0  0  0  0  0  2  0  0  0  0  0  0
  194.0680  173.6390  140.0430 C   0  0  0  0  0  2  0  0  0  0  0  0
  194.7620  172.2850  140.0060 C   0  0  0  0  0  2  0  0  0  0  0  0
  196.2360  172.5450  139.7550 C   0  0  0  0  0  2  0  0  0  0  0  0
  196.4750  174.0090  140.0770 C   0  0  1  0  0  3  0  0  0  0  0  0
  194.8730  175.9190  140.6650 C   0  0  0  0  0  1  0  0  0  0  0  0
  195.0830  175.1190  138.3440 C   0  0  0  0  0  1  0  0  0  0  0  0
  195.1320  174.6920  139.8010 C   0  0  0  0  0  0  0  0  0  0  0  0
  188.7200  175.1770  142.5340 O   0  0  0  0  0  0  0  0  0  0  0  0
  189.3560  176.2430  143.1590 C   0  0  0  0  0  0  0  0  0  0  0  0
  189.4560  177.3470  142.5640 O   0  0  0  0  0  1  0  0  0  0  0  0
  188.2690  176.8700  146.8840 C   0  0  0  0  0  0  0  0  0  0  0  0
  188.0550  175.6490  147.2590 N   0  0  0  0  0  2  0  0  0  0  0  0
  187.1720  177.6980  146.4870 N   0  0  0  0  0  2  0  0  0  0  0  0
  185.7830  177.2990  146.6520 C   0  0  0  0  0  2  0  0  0  0  0  0
  184.9180  178.0090  145.6250 C   0  0  0  0  0  2  0  0  0  0  0  0
  185.4980  177.8540  144.2570 C   0  0  0  0  0  0  0  0  0  0  0  0
  185.7240  176.7030  143.8010 O   0  0  0  0  0  0  0  0  0  0  0  0
  185.7670  178.9970  143.4490 N   0  0  0  0  0  2  0  0  0  0  0  0
  185.5610  180.2500  143.9170 O   0  0  0  0  0  1  0  0  0  0  0  0
  1 30  1  6  0  0  0
  1  3  1  0  0  0  0
  1  7  1  0  0  0  0
  2  5  1  0  0  0  0
  3 10  2  0  0  0  0
  4 32  1  6  0  0  0
  4  8  1  0  0  0  0
  5 16  1  0  0  0  0
  5 11  2  0  0  0  0
  6  8  1  0  0  0  0
  7  4  1  0  0  0  0
  9  2  2  0  0  0  0
  9  3  1  0  0  0  0
 10 11  1  0  0  0  0
 10  6  1  0  0  0  0
 13 15  1  0  0  0  0
 14 19  1  1  0  0  0
 14 18  1  0  0  0  0
 14 13  1  0  0  0  0
 15 12  1  0  0  0  0
 16 17  1  1  0  0  0
 16 12  1  0  0  0  0
 18 16  1  0  0  0  0
 20 14  1  0  0  0  0
 21 20  1  0  0  0  0
 23 22  1  0  0  0  0
 24 23  1  0  0  0  0
 24 25  1  0  0  0  0
 25 21  1  1  0  0  0
 27 28  1  0  0  0  0
 28 22  1  0  0  0  0
 28 25  1  0  0  0  0
 28 26  1  0  0  0  0
 29 30  2  0  0  0  0
 31 30  1  0  0  0  0
 32 33  2  0  0  0  0
 34 35  1  0  0  0  0
 34 32  1  0  0  0  0
 36 35  1  0  0  0  0
 37 36  1  0  0  0  0
 38 37  2  0  0  0  0
 39 40  1  0  0  0  0
 39 37  1  0  0  0  0
M  END
>  <MODEL>
9

>  <REMARK>
 VINA RESULT:      -6.8      3.558      9.512
  Name = 
  9 active torsions:
  status: ('A' for Active; 'I' for Inactive)
    1  A    between atoms: C_2  and  C_13
    2  A    between atoms: C_2  and  C_39
    3  A    between atoms: CA_3  and  C_16
    4  A    between atoms: C_6  and  C_17
    5  A    between atoms: C_14  and  C_39
    6  A    between atoms: C_17  and  C_20
    7  A    between atoms: C_19  and  C_27
    8  A    between atoms: C_20  and  N_37
    9  A    between atoms: C_21  and  C_28
                            x       y       z     vdW  Elec       q    Type
                         _______ _______ _______ _____ _____    ______ ____

>  <TORSDO>
F 9

$$$$
