=
 OpenBabel11062419513D

 30 31  0  0  1  0  0  0  0  0999 V2000
  189.7060  174.6490  143.8590 C   0  0  1  0  0  3  0  0  0  0  0  0
  191.7240  175.8780  144.5660 C   0  0  2  0  0  3  0  0  0  0  0  0
  189.4350  176.1080  143.6660 C   0  0  0  0  0  0  0  0  0  0  0  0
  189.9090  172.5770  142.6570 O   0  0  0  0  0  1  0  0  0  0  0  0
  186.8840  174.9330  142.5510 F   0  0  0  0  0  0  0  0  0  0  0  0
  190.4850  177.2050  144.6070 S   0  0  0  0  0  0  0  0  0  0  0  0
  189.9240  173.9630  142.5000 C   0  0  1  0  0  3  0  0  0  0  0  0
  188.6290  176.5190  142.6700 C   0  0  0  0  0  0  0  0  0  0  0  0
  188.9050  174.3700  141.4140 C   0  0  0  0  0  2  0  0  0  0  0  0
  190.9720  174.5600  144.6980 C   0  0  0  0  0  2  0  0  0  0  0  0
  187.9310  175.4820  141.8330 C   0  0  1  0  0  3  0  0  0  0  0  0
  188.4980  177.9680  142.3050 C   0  0  0  0  0  2  0  0  0  0  0  0
  187.0510  178.4270  142.4100 C   0  0  0  0  0  2  0  0  0  0  0  0
  186.5790  178.3860  143.8610 C   0  0  0  0  0  2  0  0  0  0  0  0
  185.1320  178.8420  144.0490 C   0  0  1  0  0  0  0  0  0  0  0  0
  185.1510  180.2220  144.1600 F   0  0  0  0  0  0  0  0  0  0  0  0
  184.2990  178.4770  142.8250 C   0  0  0  0  0  1  0  0  0  0  0  0
  184.5350  178.2420  145.3370 C   0  0  2  0  0  3  0  0  0  0  0  0
  183.3510  178.8650  145.6940 F   0  0  0  0  0  0  0  0  0  0  0  0
  185.8910  179.3240  146.9480 O   0  0  0  0  0  0  0  0  0  0  0  0
  185.4920  178.2630  146.4930 C   0  0  0  0  0  0  0  0  0  0  0  0
  185.9210  176.9750  147.1140 C   0  0  0  0  0  2  0  0  0  0  0  0
  187.3900  176.7210  146.8360 C   0  0  0  0  0  1  0  0  0  0  0  0
  192.7130  176.0270  145.7090 C   0  0  0  0  0  2  0  0  0  0  0  0
  194.6070  177.4170  145.9030 O   0  0  0  0  0  0  0  0  0  0  0  0
  194.0070  176.5980  145.2250 C   0  0  0  0  0  0  0  0  0  0  0  0
  194.5420  176.2050  143.8880 C   0  0  0  0  0  2  0  0  0  0  0  0
  196.8300  177.0520  143.3720 O   0  0  0  0  0  0  0  0  0  0  0  0
  196.0260  176.0740  143.9410 C   0  0  0  0  0  0  0  0  0  0  0  0
  196.5500  175.0930  144.5290 O   0  0  0  0  0  1  0  0  0  0  0  0
  1 10  1  1  0  0  0
  2  6  1  0  0  0  0
  2 10  1  0  0  0  0
  2 24  1  1  0  0  0
  3  1  1  0  0  0  0
  3  6  1  0  0  0  0
  7  4  1  1  0  0  0
  7  1  1  0  0  0  0
  8  3  2  0  0  0  0
  9 11  1  0  0  0  0
  9  7  1  0  0  0  0
 11  5  1  1  0  0  0
 11  8  1  0  0  0  0
 12 13  1  0  0  0  0
 12  8  1  0  0  0  0
 13 14  1  0  0  0  0
 14 15  1  0  0  0  0
 15 17  1  6  0  0  0
 15 16  1  0  0  0  0
 15 18  1  0  0  0  0
 18 19  1  1  0  0  0
 18 21  1  0  0  0  0
 21 20  2  0  0  0  0
 21 22  1  0  0  0  0
 23 22  1  0  0  0  0
 26 24  1  0  0  0  0
 26 25  2  0  0  0  0
 27 29  1  0  0  0  0
 27 26  1  0  0  0  0
 28 29  2  0  0  0  0
 29 30  1  0  0  0  0
M  END
>  <MODEL>
1

>  <REMARK>
 VINA RESULT:      -6.8      0.000      0.000
  Name = 
  11 active torsions:
  status: ('A' for Active; 'I' for Inactive)
    1  A    between atoms: C_1  and  C_6
    2  A    between atoms: C_4  and  C_19
    3  A    between atoms: C_5  and  C_6
    4  A    between atoms: C_5  and  C_8
    5  A    between atoms: C_8  and  C_18
    6  A    between atoms: C_9  and  C_20
    7  A    between atoms: C_9  and  C_30
    8  A    between atoms: C_18  and  C_30
    9  A    between atoms: C_19  and  C_24
   10  A    between atoms: C_22  and  C_23
   11  A    between atoms: C_23  and  C_24
                            x       y       z     vdW  Elec       q    Type
                         _______ _______ _______ _____ _____    ______ ____

>  <TORSDO>
F 11

$$$$
=
 OpenBabel11062419513D

 30 31  0  0  1  0  0  0  0  0999 V2000
  188.9330  176.8670  143.3500 C   0  0  1  0  0  3  0  0  0  0  0  0
  187.4610  176.9550  145.3280 C   0  0  2  0  0  3  0  0  0  0  0  0
  189.5350  175.9850  144.3990 C   0  0  0  0  0  0  0  0  0  0  0  0
  187.9890  176.8220  141.1400 O   0  0  0  0  0  1  0  0  0  0  0  0
  191.4540  175.4970  142.1170 F   0  0  0  0  0  0  0  0  0  0  0  0
  188.9890  176.3110  146.0690 S   0  0  0  0  0  0  0  0  0  0  0  0
  188.3080  176.0160  142.2330 C   0  0  1  0  0  3  0  0  0  0  0  0
  190.2300  174.8900  144.0420 C   0  0  0  0  0  0  0  0  0  0  0  0
  189.1880  174.8370  141.7660 C   0  0  0  0  0  2  0  0  0  0  0  0
  187.8560  177.6840  144.0500 C   0  0  0  0  0  2  0  0  0  0  0  0
  190.4760  174.6370  142.5800 C   0  0  1  0  0  3  0  0  0  0  0  0
  190.6670  173.8670  145.0500 C   0  0  0  0  0  2  0  0  0  0  0  0
  192.1810  173.8600  145.1960 C   0  0  0  0  0  2  0  0  0  0  0  0
  192.6260  174.9100  146.2090 C   0  0  0  0  0  2  0  0  0  0  0  0
  193.6080  175.9360  145.6400 C   0  0  1  0  0  0  0  0  0  0  0  0
  192.9240  176.6640  144.6810 F   0  0  0  0  0  0  0  0  0  0  0  0
  194.0590  176.8990  146.7330 C   0  0  0  0  0  1  0  0  0  0  0  0
  194.8080  175.2330  144.9770 C   0  0  2  0  0  3  0  0  0  0  0  0
  195.8440  175.0300  145.8730 F   0  0  0  0  0  0  0  0  0  0  0  0
  196.1550  176.8370  143.8730 O   0  0  0  0  0  0  0  0  0  0  0  0
  195.3150  175.9560  143.7640 C   0  0  0  0  0  0  0  0  0  0  0  0
  194.8190  175.5600  142.4130 C   0  0  0  0  0  2  0  0  0  0  0  0
  194.5200  174.0730  142.3780 C   0  0  0  0  0  1  0  0  0  0  0  0
  186.7630  177.9140  146.2760 C   0  0  0  0  0  2  0  0  0  0  0  0
  184.8200  176.5970  146.4900 O   0  0  0  0  0  0  0  0  0  0  0  0
  185.2830  177.7020  146.2570 C   0  0  0  0  0  0  0  0  0  0  0  0
  184.3730  178.8310  145.9030 C   0  0  0  0  0  2  0  0  0  0  0  0
  185.3890  180.2410  144.1150 O   0  0  0  0  0  1  0  0  0  0  0  0
  184.5400  179.2020  144.4690 C   0  0  0  0  0  0  0  0  0  0  0  0
  183.9340  178.5530  143.5780 O   0  0  0  0  0  0  0  0  0  0  0  0
  1 10  1  1  0  0  0
  1  3  1  0  0  0  0
  2  6  1  0  0  0  0
  2 24  1  1  0  0  0
  3  6  1  0  0  0  0
  7  4  1  6  0  0  0
  7  1  1  0  0  0  0
  8  3  2  0  0  0  0
  8 12  1  0  0  0  0
  9  7  1  0  0  0  0
  9 11  1  0  0  0  0
 10  2  1  0  0  0  0
 11  5  1  6  0  0  0
 11  8  1  0  0  0  0
 12 13  1  0  0  0  0
 13 14  1  0  0  0  0
 15 14  1  0  0  0  0
 15 17  1  1  0  0  0
 16 15  1  0  0  0  0
 18 15  1  0  0  0  0
 18 19  1  1  0  0  0
 21 20  2  0  0  0  0
 21 18  1  0  0  0  0
 22 21  1  0  0  0  0
 23 22  1  0  0  0  0
 26 24  1  0  0  0  0
 26 25  2  0  0  0  0
 27 26  1  0  0  0  0
 28 29  1  0  0  0  0
 29 27  1  0  0  0  0
 30 29  2  0  0  0  0
M  END
>  <MODEL>
2

>  <REMARK>
 VINA RESULT:      -6.7      2.911      8.180
  Name = 
  11 active torsions:
  status: ('A' for Active; 'I' for Inactive)
    1  A    between atoms: C_1  and  C_6
    2  A    between atoms: C_4  and  C_19
    3  A    between atoms: C_5  and  C_6
    4  A    between atoms: C_5  and  C_8
    5  A    between atoms: C_8  and  C_18
    6  A    between atoms: C_9  and  C_20
    7  A    between atoms: C_9  and  C_30
    8  A    between atoms: C_18  and  C_30
    9  A    between atoms: C_19  and  C_24
   10  A    between atoms: C_22  and  C_23
   11  A    between atoms: C_23  and  C_24
                            x       y       z     vdW  Elec       q    Type
                         _______ _______ _______ _____ _____    ______ ____

>  <TORSDO>
F 11

$$$$
=
 OpenBabel11062419513D

 30 31  0  0  1  0  0  0  0  0999 V2000
  191.3240  176.5950  146.5280 C   0  0  1  0  0  3  0  0  0  0  0  0
  192.9370  176.1190  144.7230 C   0  0  2  0  0  3  0  0  0  0  0  0
  190.6690  176.9580  145.2320 C   0  0  0  0  0  0  0  0  0  0  0  0
  191.1310  175.1050  148.4040 O   0  0  0  0  0  1  0  0  0  0  0  0
  188.3940  177.4830  147.1510 F   0  0  0  0  0  0  0  0  0  0  0  0
  191.7900  177.2370  143.8680 S   0  0  0  0  0  0  0  0  0  0  0  0
  190.7180  175.2970  147.0860 C   0  0  1  0  0  3  0  0  0  0  0  0
  189.3380  176.8270  145.0880 C   0  0  0  0  0  0  0  0  0  0  0  0
  189.1770  175.2330  147.0130 C   0  0  0  0  0  2  0  0  0  0  0  0
  192.7990  176.3920  146.2160 C   0  0  0  0  0  2  0  0  0  0  0  0
  188.5210  176.4150  146.2820 C   0  0  1  0  0  3  0  0  0  0  0  0
  188.6690  176.9720  143.7530 C   0  0  0  0  0  2  0  0  0  0  0  0
  187.2670  176.3810  143.7800 C   0  0  0  0  0  2  0  0  0  0  0  0
  186.5570  176.6240  142.4510 C   0  0  0  0  0  2  0  0  0  0  0  0
  185.8490  177.9770  142.3710 C   0  0  1  0  0  0  0  0  0  0  0  0
  186.8280  178.9540  142.4300 F   0  0  0  0  0  0  0  0  0  0  0  0
  185.1230  178.1150  141.0370 C   0  0  0  0  0  1  0  0  0  0  0  0
  184.8850  178.1580  143.5590 C   0  0  2  0  0  3  0  0  0  0  0  0
  183.5850  178.3820  143.1370 F   0  0  0  0  0  0  0  0  0  0  0  0
  185.3310  180.4120  144.1310 O   0  0  0  0  0  0  0  0  0  0  0  0
  185.3100  179.2470  144.5000 C   0  0  0  0  0  0  0  0  0  0  0  0
  185.6670  178.9020  145.9080 C   0  0  0  0  0  2  0  0  0  0  0  0
  184.8840  177.6860  146.3650 C   0  0  0  0  0  1  0  0  0  0  0  0
  194.3670  176.3700  144.2810 C   0  0  0  0  0  2  0  0  0  0  0  0
  194.9380  174.1230  144.7060 O   0  0  0  0  0  0  0  0  0  0  0  0
  195.0620  175.0840  143.9640 C   0  0  0  0  0  0  0  0  0  0  0  0
  195.9480  174.9900  142.7660 C   0  0  0  0  0  2  0  0  0  0  0  0
  196.0260  177.0380  141.3460 O   0  0  0  0  0  0  0  0  0  0  0  0
  196.5140  176.3290  142.4340 C   0  0  0  0  0  0  0  0  0  0  0  0
  197.4130  176.8280  143.1590 O   0  0  0  0  0  1  0  0  0  0  0  0
  1 10  1  6  0  0  0
  1  7  1  0  0  0  0
  2 24  1  6  0  0  0
  2 10  1  0  0  0  0
  3  1  1  0  0  0  0
  6  2  1  0  0  0  0
  6  3  1  0  0  0  0
  7  4  1  1  0  0  0
  8  3  2  0  0  0  0
  8 11  1  0  0  0  0
  9  7  1  0  0  0  0
 11  9  1  0  0  0  0
 11  5  1  1  0  0  0
 12 13  1  0  0  0  0
 12  8  1  0  0  0  0
 14 13  1  0  0  0  0
 15 17  1  6  0  0  0
 15 16  1  0  0  0  0
 15 14  1  0  0  0  0
 15 18  1  0  0  0  0
 18 19  1  6  0  0  0
 18 21  1  0  0  0  0
 20 21  2  0  0  0  0
 21 22  1  0  0  0  0
 22 23  1  0  0  0  0
 26 24  1  0  0  0  0
 26 25  2  0  0  0  0
 27 26  1  0  0  0  0
 28 29  2  0  0  0  0
 29 27  1  0  0  0  0
 29 30  1  0  0  0  0
M  END
>  <MODEL>
3

>  <REMARK>
 VINA RESULT:      -6.7      2.256      3.119
  Name = 
  11 active torsions:
  status: ('A' for Active; 'I' for Inactive)
    1  A    between atoms: C_1  and  C_6
    2  A    between atoms: C_4  and  C_19
    3  A    between atoms: C_5  and  C_6
    4  A    between atoms: C_5  and  C_8
    5  A    between atoms: C_8  and  C_18
    6  A    between atoms: C_9  and  C_20
    7  A    between atoms: C_9  and  C_30
    8  A    between atoms: C_18  and  C_30
    9  A    between atoms: C_19  and  C_24
   10  A    between atoms: C_22  and  C_23
   11  A    between atoms: C_23  and  C_24
                            x       y       z     vdW  Elec       q    Type
                         _______ _______ _______ _____ _____    ______ ____

>  <TORSDO>
F 11

$$$$
=
 OpenBabel11062419513D

 30 31  0  0  1  0  0  0  0  0999 V2000
  188.9850  174.7800  141.3880 C   0  0  1  0  0  3  0  0  0  0  0  0
  188.0770  176.8770  142.3180 C   0  0  2  0  0  3  0  0  0  0  0  0
  189.9840  175.3060  142.3720 C   0  0  0  0  0  0  0  0  0  0  0  0
  187.5310  172.9130  140.9680 O   0  0  0  0  0  1  0  0  0  0  0  0
  191.3100  172.7040  141.5950 F   0  0  0  0  0  0  0  0  0  0  0  0
  189.8340  177.0460  142.7480 S   0  0  0  0  0  0  0  0  0  0  0  0
  188.2580  173.5570  141.9700 C   0  0  1  0  0  3  0  0  0  0  0  0
  190.7490  174.4540  143.0780 C   0  0  0  0  0  0  0  0  0  0  0  0
  189.1860  172.5410  142.6690 C   0  0  0  0  0  2  0  0  0  0  0  0
  187.9950  175.9100  141.1440 C   0  0  0  0  0  2  0  0  0  0  0  0
  190.6530  172.9830  142.7790 C   0  0  1  0  0  3  0  0  0  0  0  0
  191.6040  174.9190  144.2200 C   0  0  0  0  0  2  0  0  0  0  0  0
  191.2110  174.2210  145.5130 C   0  0  0  0  0  2  0  0  0  0  0  0
  189.7330  174.4460  145.8160 C   0  0  0  0  0  2  0  0  0  0  0  0
  189.4790  175.4830  146.9110 C   0  0  1  0  0  0  0  0  0  0  0  0
  188.4720  174.9830  147.7190 F   0  0  0  0  0  0  0  0  0  0  0  0
  190.7280  175.6610  147.7670 C   0  0  0  0  0  1  0  0  0  0  0  0
  189.0180  176.8200  146.3000 C   0  0  2  0  0  3  0  0  0  0  0  0
  189.8440  177.8670  146.6730 F   0  0  0  0  0  0  0  0  0  0  0  0
  187.3270  177.9310  147.5280 O   0  0  0  0  0  0  0  0  0  0  0  0
  187.5910  177.1530  146.6240 C   0  0  0  0  0  0  0  0  0  0  0  0
  186.4950  176.5590  145.8040 C   0  0  0  0  0  2  0  0  0  0  0  0
  185.1570  177.1450  146.2130 C   0  0  0  0  0  1  0  0  0  0  0  0
  187.4860  178.2190  141.9250 C   0  0  0  0  0  2  0  0  0  0  0  0
  186.0440  179.4130  143.3590 O   0  0  0  0  0  0  0  0  0  0  0  0
  186.1820  178.4520  142.6190 C   0  0  0  0  0  0  0  0  0  0  0  0
  185.0620  177.4800  142.4470 C   0  0  0  0  0  2  0  0  0  0  0  0
  184.0480  178.2970  140.3210 O   0  0  0  0  0  0  0  0  0  0  0  0
  183.9420  178.1080  141.6920 C   0  0  0  0  0  0  0  0  0  0  0  0
  182.8870  178.4410  142.2920 O   0  0  0  0  0  1  0  0  0  0  0  0
  1 10  1  1  0  0  0
  1  7  1  0  0  0  0
  1  3  1  0  0  0  0
  2 24  1  6  0  0  0
  2  6  1  0  0  0  0
  3  6  1  0  0  0  0
  3  8  2  0  0  0  0
  7  4  1  6  0  0  0
  7  9  1  0  0  0  0
  8 12  1  0  0  0  0
  9 11  1  0  0  0  0
 10  2  1  0  0  0  0
 11  5  1  6  0  0  0
 11  8  1  0  0  0  0
 12 13  1  0  0  0  0
 13 14  1  0  0  0  0
 14 15  1  0  0  0  0
 15 16  1  0  0  0  0
 15 17  1  1  0  0  0
 18 21  1  0  0  0  0
 18 19  1  1  0  0  0
 18 15  1  0  0  0  0
 21 20  2  0  0  0  0
 22 23  1  0  0  0  0
 22 21  1  0  0  0  0
 24 26  1  0  0  0  0
 26 25  2  0  0  0  0
 27 26  1  0  0  0  0
 28 29  2  0  0  0  0
 29 30  1  0  0  0  0
 29 27  1  0  0  0  0
M  END
>  <MODEL>
4

>  <REMARK>
 VINA RESULT:      -6.7      3.880      6.567
  Name = 
  11 active torsions:
  status: ('A' for Active; 'I' for Inactive)
    1  A    between atoms: C_1  and  C_6
    2  A    between atoms: C_4  and  C_19
    3  A    between atoms: C_5  and  C_6
    4  A    between atoms: C_5  and  C_8
    5  A    between atoms: C_8  and  C_18
    6  A    between atoms: C_9  and  C_20
    7  A    between atoms: C_9  and  C_30
    8  A    between atoms: C_18  and  C_30
    9  A    between atoms: C_19  and  C_24
   10  A    between atoms: C_22  and  C_23
   11  A    between atoms: C_23  and  C_24
                            x       y       z     vdW  Elec       q    Type
                         _______ _______ _______ _____ _____    ______ ____

>  <TORSDO>
F 11

$$$$
=
 OpenBabel11062419513D

 30 31  0  0  1  0  0  0  0  0999 V2000
  188.7820  176.1700  142.6600 C   0  0  1  0  0  3  0  0  0  0  0  0
  186.9260  177.4460  143.6640 C   0  0  2  0  0  3  0  0  0  0  0  0
  189.0030  176.1960  144.1400 C   0  0  0  0  0  0  0  0  0  0  0  0
  188.3700  174.6730  140.8250 O   0  0  0  0  0  1  0  0  0  0  0  0
  191.3050  174.4360  143.2830 F   0  0  0  0  0  0  0  0  0  0  0  0
  188.1410  177.4960  145.0120 S   0  0  0  0  0  0  0  0  0  0  0  0
  188.3170  174.7740  142.2150 C   0  0  1  0  0  3  0  0  0  0  0  0
  189.6030  175.1580  144.7520 C   0  0  0  0  0  0  0  0  0  0  0  0
  189.1100  173.6100  142.8470 C   0  0  0  0  0  2  0  0  0  0  0  0
  187.6980  177.1980  142.3740 C   0  0  0  0  0  2  0  0  0  0  0  0
  190.1380  174.0350  143.9070 C   0  0  1  0  0  3  0  0  0  0  0  0
  189.6530  175.0430  146.2470 C   0  0  0  0  0  2  0  0  0  0  0  0
  191.0830  174.8520  146.7300 C   0  0  0  0  0  2  0  0  0  0  0  0
  191.8730  176.1510  146.5940 C   0  0  0  0  0  2  0  0  0  0  0  0
  193.2860  175.9560  146.0420 C   0  0  1  0  0  0  0  0  0  0  0  0
  194.1670  176.3770  147.0230 F   0  0  0  0  0  0  0  0  0  0  0  0
  193.5480  174.4780  145.7720 C   0  0  0  0  0  1  0  0  0  0  0  0
  193.4990  176.8070  144.7760 C   0  0  2  0  0  3  0  0  0  0  0  0
  192.3350  176.9270  144.0360 F   0  0  0  0  0  0  0  0  0  0  0  0
  195.7700  176.3550  144.2800 O   0  0  0  0  0  0  0  0  0  0  0  0
  194.6090  176.2960  143.9040 C   0  0  0  0  0  0  0  0  0  0  0  0
  194.2790  175.6720  142.5890 C   0  0  0  0  0  2  0  0  0  0  0  0
  195.0310  176.3710  141.4720 C   0  0  0  0  0  1  0  0  0  0  0  0
  186.1700  178.7600  143.5700 C   0  0  0  0  0  2  0  0  0  0  0  0
  184.0280  178.0020  142.9400 O   0  0  0  0  0  0  0  0  0  0  0  0
  184.7060  178.5510  143.7940 C   0  0  0  0  0  0  0  0  0  0  0  0
  184.0630  179.0580  145.0420 C   0  0  0  0  0  2  0  0  0  0  0  0
  185.4680  179.2130  147.0960 O   0  0  0  0  0  1  0  0  0  0  0  0
  184.6970  178.4390  146.2400 C   0  0  0  0  0  0  0  0  0  0  0  0
  184.5080  177.2210  146.4920 O   0  0  0  0  0  0  0  0  0  0  0  0
  1 10  1  1  0  0  0
  1  3  1  0  0  0  0
  2 24  1  6  0  0  0
  2  6  1  0  0  0  0
  3  8  2  0  0  0  0
  3  6  1  0  0  0  0
  7  4  1  6  0  0  0
  7  1  1  0  0  0  0
  7  9  1  0  0  0  0
  8 12  1  0  0  0  0
  9 11  1  0  0  0  0
 10  2  1  0  0  0  0
 11  5  1  6  0  0  0
 11  8  1  0  0  0  0
 12 13  1  0  0  0  0
 14 13  1  0  0  0  0
 15 17  1  6  0  0  0
 15 14  1  0  0  0  0
 15 16  1  0  0  0  0
 18 19  1  6  0  0  0
 18 15  1  0  0  0  0
 21 20  2  0  0  0  0
 21 18  1  0  0  0  0
 22 21  1  0  0  0  0
 23 22  1  0  0  0  0
 24 26  1  0  0  0  0
 25 26  2  0  0  0  0
 26 27  1  0  0  0  0
 27 29  1  0  0  0  0
 29 30  2  0  0  0  0
 29 28  1  0  0  0  0
M  END
>  <MODEL>
5

>  <REMARK>
 VINA RESULT:      -6.6      2.756      7.971
  Name = 
  11 active torsions:
  status: ('A' for Active; 'I' for Inactive)
    1  A    between atoms: C_1  and  C_6
    2  A    between atoms: C_4  and  C_19
    3  A    between atoms: C_5  and  C_6
    4  A    between atoms: C_5  and  C_8
    5  A    between atoms: C_8  and  C_18
    6  A    between atoms: C_9  and  C_20
    7  A    between atoms: C_9  and  C_30
    8  A    between atoms: C_18  and  C_30
    9  A    between atoms: C_19  and  C_24
   10  A    between atoms: C_22  and  C_23
   11  A    between atoms: C_23  and  C_24
                            x       y       z     vdW  Elec       q    Type
                         _______ _______ _______ _____ _____    ______ ____

>  <TORSDO>
F 11

$$$$
=
 OpenBabel11062419513D

 30 31  0  0  1  0  0  0  0  0999 V2000
  190.6930  176.0110  146.8020 C   0  0  1  0  0  3  0  0  0  0  0  0
  192.7330  175.2090  145.6710 C   0  0  2  0  0  3  0  0  0  0  0  0
  190.9250  176.8930  145.6150 C   0  0  0  0  0  0  0  0  0  0  0  0
  189.1250  174.4410  147.7280 O   0  0  0  0  0  1  0  0  0  0  0  0
  188.3110  178.0240  146.6240 F   0  0  0  0  0  0  0  0  0  0  0  0
  192.5950  176.8820  144.9790 S   0  0  0  0  0  0  0  0  0  0  0  0
  189.5080  175.0670  146.5410 C   0  0  1  0  0  3  0  0  0  0  0  0
  189.8810  177.4340  144.9620 C   0  0  0  0  0  0  0  0  0  0  0  0
  188.2820  175.7500  145.8990 C   0  0  0  0  0  2  0  0  0  0  0  0
  191.9710  175.2070  146.9900 C   0  0  0  0  0  2  0  0  0  0  0  0
  188.4980  177.2220  145.5130 C   0  0  1  0  0  3  0  0  0  0  0  0
  190.0510  178.1430  143.6510 C   0  0  0  0  0  2  0  0  0  0  0  0
  189.5470  177.2860  142.4990 C   0  0  0  0  0  2  0  0  0  0  0  0
  188.3170  177.9210  141.8570 C   0  0  0  0  0  2  0  0  0  0  0  0
  187.2320  176.9120  141.4770 C   0  0  1  0  0  0  0  0  0  0  0  0
  187.3710  176.6540  140.1240 F   0  0  0  0  0  0  0  0  0  0  0  0
  187.4400  175.6040  142.2320 C   0  0  0  0  0  1  0  0  0  0  0  0
  185.8300  177.4970  141.7360 C   0  0  2  0  0  3  0  0  0  0  0  0
  185.5540  178.5610  140.8950 F   0  0  0  0  0  0  0  0  0  0  0  0
  185.3450  177.0720  144.0140 O   0  0  0  0  0  0  0  0  0  0  0  0
  185.6190  177.9060  143.1650 C   0  0  0  0  0  0  0  0  0  0  0  0
  185.7910  179.3370  143.5510 C   0  0  0  0  0  2  0  0  0  0  0  0
  185.6120  179.5030  145.0480 C   0  0  0  0  0  1  0  0  0  0  0  0
  194.1870  174.8430  145.9130 C   0  0  0  0  0  2  0  0  0  0  0  0
  194.2030  173.1320  144.2910 O   0  0  0  0  0  0  0  0  0  0  0  0
  194.7600  174.1250  144.7330 C   0  0  0  0  0  0  0  0  0  0  0  0
  196.0410  174.5920  144.1250 C   0  0  0  0  0  2  0  0  0  0  0  0
  194.9720  175.8220  142.2380 O   0  0  0  0  0  0  0  0  0  0  0  0
  195.8170  175.8380  143.3390 C   0  0  0  0  0  0  0  0  0  0  0  0
  196.3710  176.9110  143.6910 O   0  0  0  0  0  1  0  0  0  0  0  0
  1 10  1  6  0  0  0
  2 24  1  1  0  0  0
  2 10  1  0  0  0  0
  3  1  1  0  0  0  0
  6  3  1  0  0  0  0
  6  2  1  0  0  0  0
  7  1  1  0  0  0  0
  7  4  1  1  0  0  0
  8 11  1  0  0  0  0
  8  3  2  0  0  0  0
  9  7  1  0  0  0  0
 11  9  1  0  0  0  0
 11  5  1  1  0  0  0
 12  8  1  0  0  0  0
 13 12  1  0  0  0  0
 14 13  1  0  0  0  0
 15 18  1  0  0  0  0
 15 14  1  0  0  0  0
 15 17  1  1  0  0  0
 16 15  1  0  0  0  0
 18 19  1  6  0  0  0
 18 21  1  0  0  0  0
 21 22  1  0  0  0  0
 21 20  2  0  0  0  0
 22 23  1  0  0  0  0
 25 26  2  0  0  0  0
 26 24  1  0  0  0  0
 27 26  1  0  0  0  0
 28 29  2  0  0  0  0
 29 30  1  0  0  0  0
 29 27  1  0  0  0  0
M  END
>  <MODEL>
6

>  <REMARK>
 VINA RESULT:      -6.5      2.349      3.601
  Name = 
  11 active torsions:
  status: ('A' for Active; 'I' for Inactive)
    1  A    between atoms: C_1  and  C_6
    2  A    between atoms: C_4  and  C_19
    3  A    between atoms: C_5  and  C_6
    4  A    between atoms: C_5  and  C_8
    5  A    between atoms: C_8  and  C_18
    6  A    between atoms: C_9  and  C_20
    7  A    between atoms: C_9  and  C_30
    8  A    between atoms: C_18  and  C_30
    9  A    between atoms: C_19  and  C_24
   10  A    between atoms: C_22  and  C_23
   11  A    between atoms: C_23  and  C_24
                            x       y       z     vdW  Elec       q    Type
                         _______ _______ _______ _____ _____    ______ ____

>  <TORSDO>
F 11

$$$$
=
 OpenBabel11062419513D

 30 31  0  0  1  0  0  0  0  0999 V2000
  189.9050  173.4320  143.3640 C   0  0  1  0  0  3  0  0  0  0  0  0
  192.1340  173.9430  144.2890 C   0  0  2  0  0  3  0  0  0  0  0  0
  189.9670  174.9090  143.5980 C   0  0  0  0  0  0  0  0  0  0  0  0
  189.6640  171.7910  141.6240 O   0  0  0  0  0  1  0  0  0  0  0  0
  187.2380  174.6800  142.3210 F   0  0  0  0  0  0  0  0  0  0  0  0
  191.2190  175.4410  144.7570 S   0  0  0  0  0  0  0  0  0  0  0  0
  189.9870  173.1270  141.8590 C   0  0  1  0  0  3  0  0  0  0  0  0
  189.2890  175.7490  142.7950 C   0  0  0  0  0  0  0  0  0  0  0  0
  189.1030  174.0360  140.9790 C   0  0  0  0  0  2  0  0  0  0  0  0
  191.1060  172.8370  144.0840 C   0  0  0  0  0  2  0  0  0  0  0  0
  188.3930  175.1680  141.7370 C   0  0  1  0  0  3  0  0  0  0  0  0
  189.4890  177.2350  142.8560 C   0  0  0  0  0  2  0  0  0  0  0  0
  188.3080  177.9150  143.5310 C   0  0  0  0  0  2  0  0  0  0  0  0
  188.4420  177.8400  145.0490 C   0  0  0  0  0  2  0  0  0  0  0  0
  187.2270  177.2260  145.7450 C   0  0  1  0  0  0  0  0  0  0  0  0
  186.5410  176.4920  144.7920 F   0  0  0  0  0  0  0  0  0  0  0  0
  187.6750  176.2710  146.8460 C   0  0  0  0  0  1  0  0  0  0  0  0
  186.3000  178.3270  146.2960 C   0  0  2  0  0  3  0  0  0  0  0  0
  186.3490  178.3960  147.6780 F   0  0  0  0  0  0  0  0  0  0  0  0
  184.0710  177.5600  146.5200 O   0  0  0  0  0  0  0  0  0  0  0  0
  184.8770  178.1780  145.8410 C   0  0  0  0  0  0  0  0  0  0  0  0
  184.4410  178.8320  144.5720 C   0  0  0  0  0  2  0  0  0  0  0  0
  185.3290  180.0210  144.2610 C   0  0  0  0  0  1  0  0  0  0  0  0
  193.1120  173.5450  145.3810 C   0  0  0  0  0  2  0  0  0  0  0  0
  195.0060  173.3550  143.9900 O   0  0  0  0  0  0  0  0  0  0  0  0
  194.5160  173.8690  144.9830 C   0  0  0  0  0  0  0  0  0  0  0  0
  195.3380  174.7840  145.8290 C   0  0  0  0  0  2  0  0  0  0  0  0
  194.2080  176.7490  146.8680 O   0  0  0  0  0  1  0  0  0  0  0  0
  194.8070  176.1740  145.7550 C   0  0  0  0  0  0  0  0  0  0  0  0
  194.9270  176.8380  144.6930 O   0  0  0  0  0  0  0  0  0  0  0  0
  1  3  1  0  0  0  0
  1 10  1  1  0  0  0
  2  6  1  0  0  0  0
  2 24  1  1  0  0  0
  3  6  1  0  0  0  0
  7  4  1  1  0  0  0
  7  1  1  0  0  0  0
  8 12  1  0  0  0  0
  8  3  2  0  0  0  0
  9 11  1  0  0  0  0
  9  7  1  0  0  0  0
 10  2  1  0  0  0  0
 11  5  1  1  0  0  0
 11  8  1  0  0  0  0
 12 13  1  0  0  0  0
 13 14  1  0  0  0  0
 14 15  1  0  0  0  0
 15 18  1  0  0  0  0
 15 17  1  1  0  0  0
 16 15  1  0  0  0  0
 18 19  1  1  0  0  0
 21 18  1  0  0  0  0
 21 20  2  0  0  0  0
 22 21  1  0  0  0  0
 23 22  1  0  0  0  0
 25 26  2  0  0  0  0
 26 24  1  0  0  0  0
 26 27  1  0  0  0  0
 29 27  1  0  0  0  0
 29 28  1  0  0  0  0
 30 29  2  0  0  0  0
M  END
>  <MODEL>
7

>  <REMARK>
 VINA RESULT:      -6.5      1.768      2.690
  Name = 
  11 active torsions:
  status: ('A' for Active; 'I' for Inactive)
    1  A    between atoms: C_1  and  C_6
    2  A    between atoms: C_4  and  C_19
    3  A    between atoms: C_5  and  C_6
    4  A    between atoms: C_5  and  C_8
    5  A    between atoms: C_8  and  C_18
    6  A    between atoms: C_9  and  C_20
    7  A    between atoms: C_9  and  C_30
    8  A    between atoms: C_18  and  C_30
    9  A    between atoms: C_19  and  C_24
   10  A    between atoms: C_22  and  C_23
   11  A    between atoms: C_23  and  C_24
                            x       y       z     vdW  Elec       q    Type
                         _______ _______ _______ _____ _____    ______ ____

>  <TORSDO>
F 11

$$$$
=
 OpenBabel11062419513D

 30 31  0  0  1  0  0  0  0  0999 V2000
  191.3580  176.5020  146.5630 C   0  0  1  0  0  3  0  0  0  0  0  0
  193.1390  175.9650  144.9420 C   0  0  2  0  0  3  0  0  0  0  0  0
  190.7650  176.6020  145.1930 C   0  0  0  0  0  0  0  0  0  0  0  0
  191.1880  175.2770  148.6250 O   0  0  0  0  0  1  0  0  0  0  0  0
  188.3150  177.1270  146.8820 F   0  0  0  0  0  0  0  0  0  0  0  0
  191.9460  176.8150  143.8690 S   0  0  0  0  0  0  0  0  0  0  0  0
  190.8540  175.2340  147.2710 C   0  0  1  0  0  3  0  0  0  0  0  0
  189.4690  176.3010  144.9950 C   0  0  0  0  0  0  0  0  0  0  0  0
  189.3380  174.9850  147.1210 C   0  0  0  0  0  2  0  0  0  0  0  0
  192.8660  176.4270  146.3680 C   0  0  0  0  0  2  0  0  0  0  0  0
  188.6160  175.9690  146.1890 C   0  0  1  0  0  3  0  0  0  0  0  0
  188.8860  176.1800  143.6180 C   0  0  0  0  0  2  0  0  0  0  0  0
  187.3660  176.1720  143.6690 C   0  0  0  0  0  2  0  0  0  0  0  0
  186.7820  176.6260  142.3340 C   0  0  0  0  0  2  0  0  0  0  0  0
  186.0300  177.9550  142.4120 C   0  0  1  0  0  0  0  0  0  0  0  0
  186.9610  178.9330  142.7180 F   0  0  0  0  0  0  0  0  0  0  0  0
  185.4140  178.2940  141.0590 C   0  0  0  0  0  1  0  0  0  0  0  0
  184.9620  177.9120  143.5220 C   0  0  2  0  0  3  0  0  0  0  0  0
  183.6790  177.9480  143.0040 F   0  0  0  0  0  0  0  0  0  0  0  0
  184.8990  180.1640  144.2520 O   0  0  0  0  0  0  0  0  0  0  0  0
  185.1320  179.0000  144.5430 C   0  0  0  0  0  0  0  0  0  0  0  0
  185.5450  178.6440  145.9320 C   0  0  0  0  0  2  0  0  0  0  0  0
  185.0300  177.2650  146.2970 C   0  0  0  0  0  1  0  0  0  0  0  0
  194.5640  176.3150  144.5490 C   0  0  0  0  0  2  0  0  0  0  0  0
  195.9140  174.8200  145.7740 O   0  0  0  0  0  0  0  0  0  0  0  0
  195.4610  175.1260  144.6820 C   0  0  0  0  0  0  0  0  0  0  0  0
  195.8440  174.3420  143.4720 C   0  0  0  0  0  2  0  0  0  0  0  0
  195.6340  171.8900  143.8770 O   0  0  0  0  0  1  0  0  0  0  0  0
  195.0700  173.0700  143.4120 C   0  0  0  0  0  0  0  0  0  0  0  0
  193.8930  173.0710  142.9660 O   0  0  0  0  0  0  0  0  0  0  0  0
  1 10  1  6  0  0  0
  1  7  1  0  0  0  0
  2 24  1  6  0  0  0
  2 10  1  0  0  0  0
  3  1  1  0  0  0  0
  6  2  1  0  0  0  0
  6  3  1  0  0  0  0
  7  4  1  1  0  0  0
  8  3  2  0  0  0  0
  8 11  1  0  0  0  0
  9  7  1  0  0  0  0
 11  5  1  1  0  0  0
 11  9  1  0  0  0  0
 12 13  1  0  0  0  0
 12  8  1  0  0  0  0
 14 15  1  0  0  0  0
 14 13  1  0  0  0  0
 15 17  1  6  0  0  0
 15 16  1  0  0  0  0
 15 18  1  0  0  0  0
 18 19  1  6  0  0  0
 18 21  1  0  0  0  0
 20 21  2  0  0  0  0
 21 22  1  0  0  0  0
 22 23  1  0  0  0  0
 24 26  1  0  0  0  0
 26 25  2  0  0  0  0
 27 26  1  0  0  0  0
 29 27  1  0  0  0  0
 29 28  1  0  0  0  0
 30 29  2  0  0  0  0
M  END
>  <MODEL>
8

>  <REMARK>
 VINA RESULT:      -6.4      2.292      3.322
  Name = 
  11 active torsions:
  status: ('A' for Active; 'I' for Inactive)
    1  A    between atoms: C_1  and  C_6
    2  A    between atoms: C_4  and  C_19
    3  A    between atoms: C_5  and  C_6
    4  A    between atoms: C_5  and  C_8
    5  A    between atoms: C_8  and  C_18
    6  A    between atoms: C_9  and  C_20
    7  A    between atoms: C_9  and  C_30
    8  A    between atoms: C_18  and  C_30
    9  A    between atoms: C_19  and  C_24
   10  A    between atoms: C_22  and  C_23
   11  A    between atoms: C_23  and  C_24
                            x       y       z     vdW  Elec       q    Type
                         _______ _______ _______ _____ _____    ______ ____

>  <TORSDO>
F 11

$$$$
=
 OpenBabel11062419513D

 30 31  0  0  1  0  0  0  0  0999 V2000
  188.3860  174.8670  141.8210 C   0  0  1  0  0  3  0  0  0  0  0  0
  187.8090  176.6890  143.3820 C   0  0  2  0  0  3  0  0  0  0  0  0
  189.6520  175.5940  142.1530 C   0  0  0  0  0  0  0  0  0  0  0  0
  187.3180  172.7220  142.0160 O   0  0  0  0  0  1  0  0  0  0  0  0
  190.7430  173.3750  140.4160 F   0  0  0  0  0  0  0  0  0  0  0  0
  189.4310  177.2490  142.7890 S   0  0  0  0  0  0  0  0  0  0  0  0
  188.3550  173.5020  142.5280 C   0  0  1  0  0  3  0  0  0  0  0  0
  190.8220  174.9300  142.1910 C   0  0  0  0  0  0  0  0  0  0  0  0
  189.6810  172.7160  142.4480 C   0  0  0  0  0  2  0  0  0  0  0  0
  187.2490  175.7440  142.3260 C   0  0  0  0  0  2  0  0  0  0  0  0
  190.8400  173.4800  141.7910 C   0  0  1  0  0  3  0  0  0  0  0  0
  192.0730  175.5640  142.7220 C   0  0  0  0  0  2  0  0  0  0  0  0
  192.2980  175.1860  144.1790 C   0  0  0  0  0  2  0  0  0  0  0  0
  192.2780  176.4290  145.0640 C   0  0  0  0  0  2  0  0  0  0  0  0
  192.5970  176.1440  146.5320 C   0  0  1  0  0  0  0  0  0  0  0  0
  192.5780  174.7690  146.6930 F   0  0  0  0  0  0  0  0  0  0  0  0
  193.9960  176.6410  146.8750 C   0  0  0  0  0  1  0  0  0  0  0  0
  191.5330  176.7720  147.4530 C   0  0  2  0  0  3  0  0  0  0  0  0
  191.6160  176.2820  148.7450 F   0  0  0  0  0  0  0  0  0  0  0  0
  189.6170  177.4830  146.2560 O   0  0  0  0  0  0  0  0  0  0  0  0
  190.1350  176.6070  146.9330 C   0  0  0  0  0  0  0  0  0  0  0  0
  189.3930  175.3420  147.2120 C   0  0  0  0  0  2  0  0  0  0  0  0
  189.3160  174.4910  145.9580 C   0  0  0  0  0  1  0  0  0  0  0  0
  186.8680  177.8650  143.5740 C   0  0  0  0  0  2  0  0  0  0  0  0
  184.5260  177.6480  143.7430 O   0  0  0  0  0  0  0  0  0  0  0  0
  185.6110  177.4370  144.2610 C   0  0  0  0  0  0  0  0  0  0  0  0
  185.6790  176.7930  145.6070 C   0  0  0  0  0  2  0  0  0  0  0  0
  184.4460  178.4920  146.9520 O   0  0  0  0  0  0  0  0  0  0  0  0
  185.6330  177.8270  146.6790 C   0  0  0  0  0  0  0  0  0  0  0  0
  186.6640  178.0770  147.3560 O   0  0  0  0  0  1  0  0  0  0  0  0
  1  3  1  0  0  0  0
  1 10  1  1  0  0  0
  1  7  1  0  0  0  0
  2 24  1  6  0  0  0
  3  8  2  0  0  0  0
  3  6  1  0  0  0  0
  6  2  1  0  0  0  0
  7  4  1  6  0  0  0
  8 12  1  0  0  0  0
  9  7  1  0  0  0  0
 10  2  1  0  0  0  0
 11  5  1  6  0  0  0
 11  8  1  0  0  0  0
 11  9  1  0  0  0  0
 12 13  1  0  0  0  0
 13 14  1  0  0  0  0
 14 15  1  0  0  0  0
 15 16  1  0  0  0  0
 15 17  1  1  0  0  0
 15 18  1  0  0  0  0
 18 19  1  1  0  0  0
 20 21  2  0  0  0  0
 21 22  1  0  0  0  0
 21 18  1  0  0  0  0
 23 22  1  0  0  0  0
 24 26  1  0  0  0  0
 25 26  2  0  0  0  0
 26 27  1  0  0  0  0
 27 29  1  0  0  0  0
 29 28  2  0  0  0  0
 29 30  1  0  0  0  0
M  END
>  <MODEL>
9

>  <REMARK>
 VINA RESULT:      -6.4      3.643      6.806
  Name = 
  11 active torsions:
  status: ('A' for Active; 'I' for Inactive)
    1  A    between atoms: C_1  and  C_6
    2  A    between atoms: C_4  and  C_19
    3  A    between atoms: C_5  and  C_6
    4  A    between atoms: C_5  and  C_8
    5  A    between atoms: C_8  and  C_18
    6  A    between atoms: C_9  and  C_20
    7  A    between atoms: C_9  and  C_30
    8  A    between atoms: C_18  and  C_30
    9  A    between atoms: C_19  and  C_24
   10  A    between atoms: C_22  and  C_23
   11  A    between atoms: C_23  and  C_24
                            x       y       z     vdW  Elec       q    Type
                         _______ _______ _______ _____ _____    ______ ____

>  <TORSDO>
F 11

$$$$
