=
 OpenBabel11072408263D

 34 38  0  0  1  0  0  0  0  0999 V2000
  188.5690  175.2790  141.0070 C   0  0  0  0  0  0  0  0  0  0  0  0
  183.9230  178.8590  144.6810 N   0  0  0  0  0  0  0  0  0  0  0  0
  187.6210  177.6770  141.7140 C   0  0  2  0  0  3  0  0  0  0  0  0
  183.1550  178.9850  143.6400 C   0  0  0  0  0  3  0  0  0  0  0  0
  189.5860  175.4220  146.1490 C   0  0  1  0  0  0  0  0  0  0  0  0
  188.2460  175.5820  146.5130 O   0  0  0  0  0  1  0  0  0  0  0  0
  189.4210  177.4060  144.1630 C   0  0  0  0  0  2  0  0  0  0  0  0
  189.3080  173.4940  143.1050 C   0  0  0  0  0  0  0  0  0  0  0  0
  187.5040  178.2440  145.4630 C   0  0  0  0  0  3  0  0  0  0  0  0
  190.4780  173.1380  143.5920 C   0  0  0  0  0  0  0  0  0  0  0  0
  189.1670  173.9860  140.6330 C   0  0  2  0  0  3  0  0  0  0  0  0
  189.6930  174.4920  144.9700 C   0  0  0  0  0  0  0  0  0  0  0  0
  183.5230  178.3760  142.3520 C   0  0  0  0  0  3  0  0  0  0  0  0
  191.1050  172.2360  142.6690 C   0  0  0  0  0  0  0  0  0  0  0  0
  185.6970  179.0480  146.9350 C   0  0  0  0  0  1  0  0  0  0  0  0
  186.1220  178.5650  145.6310 N   0  0  0  0  0  0  0  0  0  0  0  0
  185.7160  177.8700  143.2920 C   0  0  0  0  0  0  0  0  0  0  0  0
  190.3390  172.0790  141.6270 N   0  0  0  0  0  0  0  0  0  0  0  0
  185.1370  178.0320  144.6880 C   0  0  2  0  0  3  0  0  0  0  0  0
  188.5230  173.4760  139.4350 N   0  0  0  0  0  1  0  0  0  0  0  0
  188.6120  178.6440  141.5450 O   0  0  0  0  0  1  0  0  0  0  0  0
  188.7180  174.3890  143.9630 C   0  0  0  0  0  3  0  0  0  0  0  0
  187.0520  177.7200  143.1150 C   0  0  0  0  0  0  0  0  0  0  0  0
  185.0300  177.2970  140.9710 F   0  0  0  0  0  0  0  0  0  0  0  0
  190.3050  177.0640  145.7430 S   0  0  0  0  0  0  0  0  0  0  0  0
  187.9650  177.7720  144.3010 C   0  0  0  0  0  0  0  0  0  0  0  0
  184.7350  177.8490  142.1740 C   0  0  0  0  0  0  0  0  0  0  0  0
  190.7510  173.7260  144.7210 O   0  0  0  0  0  0  0  0  0  0  0  0
  192.4090  171.5470  142.8540 C   0  0  0  0  0  1  0  0  0  0  0  0
  188.1270  176.3530  141.3370 C   0  0  0  0  0  0  0  0  0  0  0  0
  189.1230  172.9190  141.7410 C   0  0  1  0  0  3  0  0  0  0  0  0
  190.3620  174.8680  147.3450 C   0  0  0  0  0  2  0  0  0  0  0  0
  191.6810  175.5480  147.5390 C   0  0  0  0  0  3  0  0  0  0  0  0
  192.7050  175.0170  147.1430 O   0  0  0  0  0  0  0  0  0  0  0  0
  1 30  3  0  0  0  0
  2 19  1  0  0  0  0
  3 21  1  1  0  0  0
  3 23  1  0  0  0  0
  4  2  2  0  0  0  0
  5  6  1  1  0  0  0
  5 32  1  0  0  0  0
  7 26  1  0  0  0  0
  7 25  1  0  0  0  0
  8 10  2  0  0  0  0
  8 22  1  0  0  0  0
  9 16  1  0  0  0  0
 10 28  1  0  0  0  0
 11 20  1  6  0  0  0
 11  1  1  0  0  0  0
 11 31  1  0  0  0  0
 12  5  1  0  0  0  0
 13  4  1  0  0  0  0
 14 29  1  0  0  0  0
 14 10  1  0  0  0  0
 16 15  1  0  0  0  0
 18 14  2  0  0  0  0
 19 17  1  6  0  0  0
 19 16  1  0  0  0  0
 22 12  2  0  0  0  0
 23 17  2  0  0  0  0
 23 26  1  0  0  0  0
 24 27  1  0  0  0  0
 25  5  1  0  0  0  0
 26  9  2  0  0  0  0
 27 13  2  0  0  0  0
 27 17  1  0  0  0  0
 28 12  1  0  0  0  0
 30  3  1  0  0  0  0
 31 18  1  6  0  0  0
 31  8  1  0  0  0  0
 32 33  1  0  0  0  0
 34 33  2  0  0  0  0
M  END
>  <MODEL>
1

>  <REMARK>
 VINA RESULT:      -8.2      0.000      0.000
  Name = 
  2 active torsions:
  status: ('A' for Active; 'I' for Inactive)
    1  A    between atoms: C_3  and  C_6
    2  A    between atoms: C_3  and  C_10
                            x       y       z     vdW  Elec       q    Type
                         _______ _______ _______ _____ _____    ______ ____

>  <TORSDO>
F 2

$$$$
=
 OpenBabel11072408263D

 34 38  0  0  1  0  0  0  0  0999 V2000
  187.9420  175.6670  141.2140 C   0  0  0  0  0  0  0  0  0  0  0  0
  194.4450  173.3450  141.6750 N   0  0  0  0  0  0  0  0  0  0  0  0
  189.5680  173.5600  141.4540 C   0  0  2  0  0  3  0  0  0  0  0  0
  194.4700  173.0810  140.4020 C   0  0  0  0  0  3  0  0  0  0  0  0
  190.1560  176.4790  145.8970 C   0  0  1  0  0  0  0  0  0  0  0  0
  191.4570  176.5190  145.3890 O   0  0  0  0  0  1  0  0  0  0  0  0
  189.5180  174.1570  144.4460 C   0  0  0  0  0  2  0  0  0  0  0  0
  188.2300  177.7660  143.1240 C   0  0  0  0  0  0  0  0  0  0  0  0
  191.9510  173.7770  144.3970 C   0  0  0  0  0  3  0  0  0  0  0  0
  187.5210  178.1060  144.1790 C   0  0  0  0  0  0  0  0  0  0  0  0
  187.0000  176.7980  141.1430 C   0  0  2  0  0  3  0  0  0  0  0  0
  189.2050  177.1360  144.9340 C   0  0  0  0  0  0  0  0  0  0  0  0
  193.3130  173.3800  139.5450 C   0  0  0  0  0  3  0  0  0  0  0  0
  186.3130  178.7410  143.7350 C   0  0  0  0  0  0  0  0  0  0  0  0
  194.3910  173.4570  144.5470 C   0  0  0  0  0  1  0  0  0  0  0  0
  193.2030  173.6250  143.7260 N   0  0  0  0  0  0  0  0  0  0  0  0
  192.0280  173.8640  141.5620 C   0  0  0  0  0  0  0  0  0  0  0  0
  186.2810  178.7520  142.4320 N   0  0  0  0  0  0  0  0  0  0  0  0
  193.3290  174.0420  142.3280 C   0  0  2  0  0  3  0  0  0  0  0  0
  186.7130  177.1100  139.7540 N   0  0  0  0  0  1  0  0  0  0  0  0
  188.8750  172.4920  142.0250 O   0  0  0  0  0  1  0  0  0  0  0  0
  189.3690  177.1210  143.5370 C   0  0  0  0  0  3  0  0  0  0  0  0
  190.8410  173.8530  142.2160 C   0  0  0  0  0  0  0  0  0  0  0  0
  191.1090  174.0150  139.2560 F   0  0  0  0  0  0  0  0  0  0  0  0
  189.6720  174.7300  146.1900 S   0  0  0  0  0  0  0  0  0  0  0  0
  190.8200  173.9600  143.7100 C   0  0  0  0  0  0  0  0  0  0  0  0
  192.1490  173.7470  140.0830 C   0  0  0  0  0  0  0  0  0  0  0  0
  188.0760  177.7360  145.2970 O   0  0  0  0  0  0  0  0  0  0  0  0
  185.2560  179.3320  144.5980 C   0  0  0  0  0  1  0  0  0  0  0  0
  188.6910  174.7280  141.3210 C   0  0  0  0  0  0  0  0  0  0  0  0
  187.4710  178.0670  141.8740 C   0  0  1  0  0  3  0  0  0  0  0  0
  190.1310  177.1910  147.2500 C   0  0  0  0  0  2  0  0  0  0  0  0
  191.2620  176.7770  148.1380 C   0  0  0  0  0  3  0  0  0  0  0  0
  191.6430  177.5200  149.0270 O   0  0  0  0  0  0  0  0  0  0  0  0
  1 30  3  0  0  0  0
  2 19  1  0  0  0  0
  3 21  1  1  0  0  0
  3 23  1  0  0  0  0
  4  2  2  0  0  0  0
  5  6  1  6  0  0  0
  5 25  1  0  0  0  0
  5 32  1  0  0  0  0
  7 25  1  0  0  0  0
  8 22  1  0  0  0  0
  8 10  2  0  0  0  0
 10 28  1  0  0  0  0
 11 20  1  6  0  0  0
 11  1  1  0  0  0  0
 11 31  1  0  0  0  0
 12 28  1  0  0  0  0
 12  5  1  0  0  0  0
 13 27  2  0  0  0  0
 13  4  1  0  0  0  0
 14 10  1  0  0  0  0
 14 29  1  0  0  0  0
 16  9  1  0  0  0  0
 16 15  1  0  0  0  0
 17 23  2  0  0  0  0
 18 14  2  0  0  0  0
 19 17  1  6  0  0  0
 19 16  1  0  0  0  0
 22 12  2  0  0  0  0
 23 26  1  0  0  0  0
 24 27  1  0  0  0  0
 26  9  2  0  0  0  0
 26  7  1  0  0  0  0
 27 17  1  0  0  0  0
 30  3  1  0  0  0  0
 31 18  1  1  0  0  0
 31  8  1  0  0  0  0
 32 33  1  0  0  0  0
 33 34  2  0  0  0  0
M  END
>  <MODEL>
2

>  <REMARK>
 VINA RESULT:      -8.2      2.642      6.678
  Name = 
  2 active torsions:
  status: ('A' for Active; 'I' for Inactive)
    1  A    between atoms: C_3  and  C_6
    2  A    between atoms: C_3  and  C_10
                            x       y       z     vdW  Elec       q    Type
                         _______ _______ _______ _____ _____    ______ ____

>  <TORSDO>
F 2

$$$$
=
 OpenBabel11072408263D

 34 38  0  0  1  0  0  0  0  0999 V2000
  188.7870  174.5810  141.4760 C   0  0  0  0  0  0  0  0  0  0  0  0
  186.9200  177.7940  147.3150 N   0  0  0  0  0  0  0  0  0  0  0  0
  188.2880  176.8990  142.7100 C   0  0  2  0  0  3  0  0  0  0  0  0
  185.6860  177.8690  146.9110 C   0  0  0  0  0  3  0  0  0  0  0  0
  192.5750  174.7700  145.0970 C   0  0  1  0  0  0  0  0  0  0  0  0
  191.6850  174.8300  146.1720 O   0  0  0  0  0  1  0  0  0  0  0  0
  191.1830  176.7470  143.6620 C   0  0  0  0  0  2  0  0  0  0  0  0
  190.7010  172.8440  142.6820 C   0  0  0  0  0  0  0  0  0  0  0  0
  190.3230  177.4370  145.8650 C   0  0  0  0  0  3  0  0  0  0  0  0
  191.9550  172.5710  142.3900 C   0  0  0  0  0  0  0  0  0  0  0  0
  189.1320  173.3370  140.7670 C   0  0  2  0  0  3  0  0  0  0  0  0
  192.0350  173.8570  144.0300 C   0  0  0  0  0  0  0  0  0  0  0  0
  185.2770  177.2950  145.6200 C   0  0  0  0  0  3  0  0  0  0  0  0
  191.9850  171.7220  141.2340 C   0  0  0  0  0  0  0  0  0  0  0  0
  189.6550  178.0990  148.1440 C   0  0  0  0  0  1  0  0  0  0  0  0
  189.2770  177.6550  146.8120 N   0  0  0  0  0  0  0  0  0  0  0  0
  187.6350  176.9460  145.1030 C   0  0  0  0  0  0  0  0  0  0  0  0
  190.7680  171.5150  140.8160 N   0  0  0  0  0  0  0  0  0  0  0  0
  187.9600  177.0570  146.5840 C   0  0  2  0  0  3  0  0  0  0  0  0
  187.9450  172.7880  140.1350 N   0  0  0  0  0  1  0  0  0  0  0  0
  188.9430  177.9370  142.0460 O   0  0  0  0  0  1  0  0  0  0  0  0
  190.6650  173.6890  143.7630 C   0  0  0  0  0  3  0  0  0  0  0  0
  188.6300  176.8940  144.1830 C   0  0  0  0  0  0  0  0  0  0  0  0
  185.7690  176.3360  143.5750 F   0  0  0  0  0  0  0  0  0  0  0  0
  192.8340  176.4630  144.4280 S   0  0  0  0  0  0  0  0  0  0  0  0
  190.0550  177.0060  144.6290 C   0  0  0  0  0  0  0  0  0  0  0  0
  186.1910  176.8590  144.7530 C   0  0  0  0  0  0  0  0  0  0  0  0
  192.7960  173.1720  143.1820 O   0  0  0  0  0  0  0  0  0  0  0  0
  193.1930  171.1280  140.6030 C   0  0  0  0  0  1  0  0  0  0  0  0
  188.5570  175.6180  142.0490 C   0  0  0  0  0  0  0  0  0  0  0  0
  189.7950  172.2640  141.6470 C   0  0  1  0  0  3  0  0  0  0  0  0
  193.9290  174.2680  145.6020 C   0  0  0  0  0  2  0  0  0  0  0  0
  195.0140  175.2870  145.4460 C   0  0  0  0  0  3  0  0  0  0  0  0
  196.1550  174.9300  145.2020 O   0  0  0  0  0  0  0  0  0  0  0  0
  1 30  3  0  0  0  0
  3 21  1  6  0  0  0
  3 23  1  0  0  0  0
  4  2  2  0  0  0  0
  5 32  1  0  0  0  0
  5  6  1  1  0  0  0
  7 25  1  0  0  0  0
  7 26  1  0  0  0  0
  8 22  1  0  0  0  0
  9 16  1  0  0  0  0
 10  8  2  0  0  0  0
 10 28  1  0  0  0  0
 11 20  1  1  0  0  0
 11  1  1  0  0  0  0
 11 31  1  0  0  0  0
 12  5  1  0  0  0  0
 13  4  1  0  0  0  0
 14 10  1  0  0  0  0
 16 15  1  0  0  0  0
 18 14  2  0  0  0  0
 19 17  1  6  0  0  0
 19 16  1  0  0  0  0
 19  2  1  0  0  0  0
 22 12  2  0  0  0  0
 23 26  1  0  0  0  0
 23 17  2  0  0  0  0
 24 27  1  0  0  0  0
 25  5  1  0  0  0  0
 26  9  2  0  0  0  0
 27 17  1  0  0  0  0
 27 13  2  0  0  0  0
 28 12  1  0  0  0  0
 29 14  1  0  0  0  0
 30  3  1  0  0  0  0
 31 18  1  6  0  0  0
 31  8  1  0  0  0  0
 33 32  1  0  0  0  0
 34 33  2  0  0  0  0
M  END
>  <MODEL>
3

>  <REMARK>
 VINA RESULT:      -8.0      2.076      2.774
  Name = 
  2 active torsions:
  status: ('A' for Active; 'I' for Inactive)
    1  A    between atoms: C_3  and  C_6
    2  A    between atoms: C_3  and  C_10
                            x       y       z     vdW  Elec       q    Type
                         _______ _______ _______ _____ _____    ______ ____

>  <TORSDO>
F 2

$$$$
=
 OpenBabel11072408263D

 34 38  0  0  1  0  0  0  0  0999 V2000
  187.8220  175.6660  140.7160 C   0  0  0  0  0  0  0  0  0  0  0  0
  194.2360  173.1170  140.2040 N   0  0  0  0  0  0  0  0  0  0  0  0
  189.3780  173.4970  140.5730 C   0  0  2  0  0  3  0  0  0  0  0  0
  194.1060  172.9740  138.9180 C   0  0  0  0  0  3  0  0  0  0  0  0
  190.5840  175.9660  145.1630 C   0  0  1  0  0  0  0  0  0  0  0  0
  191.8200  176.0140  144.5110 O   0  0  0  0  0  1  0  0  0  0  0  0
  189.6920  173.8110  143.5920 C   0  0  0  0  0  2  0  0  0  0  0  0
  188.4100  177.5660  142.7610 C   0  0  0  0  0  0  0  0  0  0  0  0
  192.0870  173.3650  143.2250 C   0  0  0  0  0  3  0  0  0  0  0  0
  187.8390  177.8250  143.9180 C   0  0  0  0  0  0  0  0  0  0  0  0
  186.9250  176.8260  140.8580 C   0  0  2  0  0  3  0  0  0  0  0  0
  189.5580  176.7390  144.3800 C   0  0  0  0  0  0  0  0  0  0  0  0
  192.8710  173.3870  138.2320 C   0  0  0  0  0  3  0  0  0  0  0  0
  186.6150  178.5360  143.6780 C   0  0  0  0  0  0  0  0  0  0  0  0
  194.5130  172.9590  143.0600 C   0  0  0  0  0  1  0  0  0  0  0  0
  193.2470  173.2390  142.4020 N   0  0  0  0  0  0  0  0  0  0  0  0
  191.8450  173.7160  140.4210 C   0  0  0  0  0  0  0  0  0  0  0  0
  186.4370  178.6700  142.3930 N   0  0  0  0  0  0  0  0  0  0  0  0
  193.2310  173.7830  141.0420 C   0  0  2  0  0  3  0  0  0  0  0  0
  186.4950  177.2760  139.5460 N   0  0  0  0  0  1  0  0  0  0  0  0
  188.7120  172.4020  141.1230 O   0  0  0  0  0  1  0  0  0  0  0  0
  189.5620  176.8510  142.9790 C   0  0  0  0  0  3  0  0  0  0  0  0
  190.7400  173.6800  141.2050 C   0  0  0  0  0  0  0  0  0  0  0  0
  190.6770  174.1120  138.2600 F   0  0  0  0  0  0  0  0  0  0  0  0
  190.0670  174.2120  145.3510 S   0  0  0  0  0  0  0  0  0  0  0  0
  190.8930  173.6460  142.6950 C   0  0  0  0  0  0  0  0  0  0  0  0
  191.7920  173.7360  138.9330 C   0  0  0  0  0  0  0  0  0  0  0  0
  188.5020  177.3360  144.9250 O   0  0  0  0  0  0  0  0  0  0  0  0
  185.6880  179.0740  144.7070 C   0  0  0  0  0  1  0  0  0  0  0  0
  188.5400  174.6980  140.6500 C   0  0  0  0  0  0  0  0  0  0  0  0
  187.5270  178.0060  141.6410 C   0  0  1  0  0  3  0  0  0  0  0  0
  190.7420  176.5480  146.5690 C   0  0  0  0  0  2  0  0  0  0  0  0
  190.6190  175.5070  147.6380 C   0  0  0  0  0  3  0  0  0  0  0  0
  191.5560  175.2910  148.3880 O   0  0  0  0  0  0  0  0  0  0  0  0
  1 11  1  0  0  0  0
  3 30  1  0  0  0  0
  3 21  1  1  0  0  0
  3 23  1  0  0  0  0
  4  2  2  0  0  0  0
  5  6  1  6  0  0  0
  5 25  1  0  0  0  0
  5 32  1  0  0  0  0
  7 25  1  0  0  0  0
  8 22  1  0  0  0  0
  8 10  2  0  0  0  0
 10 28  1  0  0  0  0
 11 20  1  6  0  0  0
 11 31  1  0  0  0  0
 12 28  1  0  0  0  0
 12  5  1  0  0  0  0
 13  4  1  0  0  0  0
 13 27  2  0  0  0  0
 14 10  1  0  0  0  0
 14 29  1  0  0  0  0
 16 15  1  0  0  0  0
 16  9  1  0  0  0  0
 17 19  1  0  0  0  0
 17 23  2  0  0  0  0
 18 14  2  0  0  0  0
 19  2  1  6  0  0  0
 19 16  1  0  0  0  0
 22 12  2  0  0  0  0
 23 26  1  0  0  0  0
 24 27  1  0  0  0  0
 26  9  2  0  0  0  0
 26  7  1  0  0  0  0
 27 17  1  0  0  0  0
 30  1  3  0  0  0  0
 31 18  1  1  0  0  0
 31  8  1  0  0  0  0
 32 33  1  0  0  0  0
 33 34  2  0  0  0  0
M  END
>  <MODEL>
4

>  <REMARK>
 VINA RESULT:      -7.5      2.686      6.777
  Name = 
  2 active torsions:
  status: ('A' for Active; 'I' for Inactive)
    1  A    between atoms: C_3  and  C_6
    2  A    between atoms: C_3  and  C_10
                            x       y       z     vdW  Elec       q    Type
                         _______ _______ _______ _____ _____    ______ ____

>  <TORSDO>
F 2

$$$$
=
 OpenBabel11072408263D

 34 38  0  0  1  0  0  0  0  0999 V2000
  186.8360  175.5990  142.7630 C   0  0  0  0  0  0  0  0  0  0  0  0
  192.3260  173.2870  139.2400 N   0  0  0  0  0  0  0  0  0  0  0  0
  188.1490  173.4940  141.7670 C   0  0  2  0  0  3  0  0  0  0  0  0
  191.6340  173.2360  138.1400 C   0  0  0  0  0  3  0  0  0  0  0  0
  191.2970  175.6460  145.5180 C   0  0  1  0  0  0  0  0  0  0  0  0
  192.1120  175.7800  144.3900 O   0  0  0  0  0  1  0  0  0  0  0  0
  189.7810  173.5900  144.3430 C   0  0  0  0  0  2  0  0  0  0  0  0
  188.2900  177.3560  144.4760 C   0  0  0  0  0  0  0  0  0  0  0  0
  191.7560  173.2440  142.9120 C   0  0  0  0  0  3  0  0  0  0  0  0
  188.2980  177.5110  145.7830 C   0  0  0  0  0  0  0  0  0  0  0  0
  186.1050  176.7180  143.3830 C   0  0  2  0  0  3  0  0  0  0  0  0
  190.0350  176.4450  145.3410 C   0  0  0  0  0  0  0  0  0  0  0  0
  190.2270  173.6630  138.1130 C   0  0  0  0  0  3  0  0  0  0  0  0
  187.1010  178.2010  146.1710 C   0  0  0  0  0  0  0  0  0  0  0  0
  193.8500  172.9230  141.6500 C   0  0  0  0  0  1  0  0  0  0  0  0
  192.4250  173.2140  141.6510 N   0  0  0  0  0  0  0  0  0  0  0  0
  190.2890  173.7970  140.5480 C   0  0  0  0  0  0  0  0  0  0  0  0
  186.3680  178.4270  145.1170 N   0  0  0  0  0  0  0  0  0  0  0  0
  191.8070  173.8580  140.4900 C   0  0  2  0  0  3  0  0  0  0  0  0
  185.1380  177.2520  142.4410 N   0  0  0  0  0  1  0  0  0  0  0  0
  187.7910  172.3410  142.4660 O   0  0  0  0  0  1  0  0  0  0  0  0
  189.4120  176.6620  144.0990 C   0  0  0  0  0  3  0  0  0  0  0  0
  189.6510  173.6690  141.7380 C   0  0  0  0  0  0  0  0  0  0  0  0
  188.2810  174.3180  139.1760 F   0  0  0  0  0  0  0  0  0  0  0  0
  190.9060  173.8690  145.7760 S   0  0  0  0  0  0  0  0  0  0  0  0
  190.4540  173.5280  142.9950 C   0  0  0  0  0  0  0  0  0  0  0  0
  189.5770  173.9270  139.2480 C   0  0  0  0  0  0  0  0  0  0  0  0
  189.3380  176.9680  146.3460 O   0  0  0  0  0  0  0  0  0  0  0  0
  186.7360  178.6330  147.5460 C   0  0  0  0  0  1  0  0  0  0  0  0
  187.4420  174.6610  142.3060 C   0  0  0  0  0  0  0  0  0  0  0  0
  187.0020  177.8530  143.9070 C   0  0  1  0  0  3  0  0  0  0  0  0
  192.0700  176.1250  146.7480 C   0  0  0  0  0  2  0  0  0  0  0  0
  193.5460  176.1960  146.5060 C   0  0  0  0  0  3  0  0  0  0  0  0
  194.1800  177.1650  146.8880 O   0  0  0  0  0  0  0  0  0  0  0  0
  1 11  1  0  0  0  0
  3 30  1  0  0  0  0
  3 21  1  1  0  0  0
  4  2  2  0  0  0  0
  5  6  1  6  0  0  0
  5 25  1  0  0  0  0
  5 32  1  0  0  0  0
  7 25  1  0  0  0  0
  8 10  2  0  0  0  0
  9 26  2  0  0  0  0
 10 14  1  0  0  0  0
 10 28  1  0  0  0  0
 11 20  1  6  0  0  0
 11 31  1  0  0  0  0
 12  5  1  0  0  0  0
 12 28  1  0  0  0  0
 13  4  1  0  0  0  0
 13 27  2  0  0  0  0
 14 29  1  0  0  0  0
 15 16  1  0  0  0  0
 16  9  1  0  0  0  0
 17 23  2  0  0  0  0
 18 14  2  0  0  0  0
 19  2  1  6  0  0  0
 19 17  1  0  0  0  0
 19 16  1  0  0  0  0
 22  8  1  0  0  0  0
 22 12  2  0  0  0  0
 23  3  1  0  0  0  0
 23 26  1  0  0  0  0
 24 27  1  0  0  0  0
 26  7  1  0  0  0  0
 27 17  1  0  0  0  0
 30  1  3  0  0  0  0
 31  8  1  1  0  0  0
 31 18  1  0  0  0  0
 33 32  1  0  0  0  0
 33 34  2  0  0  0  0
M  END
>  <MODEL>
5

>  <REMARK>
 VINA RESULT:      -7.5      2.260      6.412
  Name = 
  2 active torsions:
  status: ('A' for Active; 'I' for Inactive)
    1  A    between atoms: C_3  and  C_6
    2  A    between atoms: C_3  and  C_10
                            x       y       z     vdW  Elec       q    Type
                         _______ _______ _______ _____ _____    ______ ____

>  <TORSDO>
F 2

$$$$
=
 OpenBabel11072408263D

 34 38  0  0  1  0  0  0  0  0999 V2000
  188.4030  175.5160  141.2730 C   0  0  0  0  0  0  0  0  0  0  0  0
  194.6340  175.6920  144.2780 N   0  0  0  0  0  0  0  0  0  0  0  0
  190.3670  174.1500  142.4640 C   0  0  2  0  0  3  0  0  0  0  0  0
  195.2110  175.3380  143.1680 C   0  0  0  0  0  3  0  0  0  0  0  0
  188.3580  177.4830  146.1330 C   0  0  1  0  0  0  0  0  0  0  0  0
  189.6800  177.9330  146.0720 O   0  0  0  0  0  1  0  0  0  0  0  0
  189.0280  174.9630  145.0820 C   0  0  0  0  0  2  0  0  0  0  0  0
  187.3210  177.7470  142.6820 C   0  0  0  0  0  0  0  0  0  0  0  0
  191.2970  175.4630  145.8980 C   0  0  0  0  0  3  0  0  0  0  0  0
  186.2020  177.9100  143.3550 C   0  0  0  0  0  0  0  0  0  0  0  0
  187.2670  176.2300  140.6650 C   0  0  2  0  0  3  0  0  0  0  0  0
  187.6880  177.6710  144.7990 C   0  0  0  0  0  0  0  0  0  0  0  0
  194.4250  175.1290  141.9420 C   0  0  0  0  0  3  0  0  0  0  0  0
  185.1180  178.0340  142.4230 C   0  0  0  0  0  0  0  0  0  0  0  0
  193.4800  176.0400  146.8880 C   0  0  0  0  0  1  0  0  0  0  0  0
  192.6930  175.7020  145.7130 N   0  0  0  0  0  0  0  0  0  0  0  0
  192.3990  175.3110  143.2880 C   0  0  0  0  0  0  0  0  0  0  0  0
  185.5740  177.9140  141.2080 N   0  0  0  0  0  0  0  0  0  0  0  0
  193.2030  176.0070  144.3750 C   0  0  2  0  0  3  0  0  0  0  0  0
  187.4410  176.2920  139.2240 N   0  0  0  0  0  1  0  0  0  0  0  0
  189.8610  172.9630  142.9960 O   0  0  0  0  0  1  0  0  0  0  0  0
  188.3580  177.5870  143.5660 C   0  0  0  0  0  3  0  0  0  0  0  0
  191.1140  174.9420  143.5130 C   0  0  0  0  0  0  0  0  0  0  0  0
  192.4080  174.9160  140.8330 F   0  0  0  0  0  0  0  0  0  0  0  0
  188.3420  175.7110  146.6200 S   0  0  0  0  0  0  0  0  0  0  0  0
  190.5050  175.1720  144.8630 C   0  0  0  0  0  0  0  0  0  0  0  0
  193.0920  175.1100  141.9870 C   0  0  0  0  0  0  0  0  0  0  0  0
  186.3810  177.8650  144.6440 O   0  0  0  0  0  0  0  0  0  0  0  0
  183.6910  178.2910  142.7550 C   0  0  0  0  0  1  0  0  0  0  0  0
  189.3000  174.9150  141.8120 C   0  0  0  0  0  0  0  0  0  0  0  0
  187.0310  177.6450  141.2210 C   0  0  1  0  0  3  0  0  0  0  0  0
  187.6190  178.2620  147.2220 C   0  0  0  0  0  2  0  0  0  0  0  0
  186.3710  177.5710  147.6760 C   0  0  0  0  0  3  0  0  0  0  0  0
  185.3170  178.1830  147.7200 O   0  0  0  0  0  0  0  0  0  0  0  0
  1 30  3  0  0  0  0
  2 19  1  0  0  0  0
  3 21  1  1  0  0  0
  3 23  1  0  0  0  0
  4  2  2  0  0  0  0
  5  6  1  6  0  0  0
  5 25  1  0  0  0  0
  5 32  1  0  0  0  0
  7 25  1  0  0  0  0
  8 10  2  0  0  0  0
  8 22  1  0  0  0  0
 10 28  1  0  0  0  0
 11 20  1  6  0  0  0
 11 31  1  0  0  0  0
 11  1  1  0  0  0  0
 12  5  1  0  0  0  0
 13 27  2  0  0  0  0
 13  4  1  0  0  0  0
 14 29  1  0  0  0  0
 14 10  1  0  0  0  0
 16  9  1  0  0  0  0
 16 15  1  0  0  0  0
 17 23  2  0  0  0  0
 18 14  2  0  0  0  0
 19 17  1  6  0  0  0
 19 16  1  0  0  0  0
 22 12  2  0  0  0  0
 23 26  1  0  0  0  0
 24 27  1  0  0  0  0
 26  7  1  0  0  0  0
 26  9  2  0  0  0  0
 27 17  1  0  0  0  0
 28 12  1  0  0  0  0
 30  3  1  0  0  0  0
 31 18  1  1  0  0  0
 31  8  1  0  0  0  0
 32 33  1  0  0  0  0
 33 34  2  0  0  0  0
M  END
>  <MODEL>
6

>  <REMARK>
 VINA RESULT:      -7.5      3.008      6.582
  Name = 
  2 active torsions:
  status: ('A' for Active; 'I' for Inactive)
    1  A    between atoms: C_3  and  C_6
    2  A    between atoms: C_3  and  C_10
                            x       y       z     vdW  Elec       q    Type
                         _______ _______ _______ _____ _____    ______ ____

>  <TORSDO>
F 2

$$$$
=
 OpenBabel11072408263D

 34 38  0  0  1  0  0  0  0  0999 V2000
  193.1190  176.2920  145.5150 C   0  0  0  0  0  0  0  0  0  0  0  0
  187.0180  175.9110  142.2720 N   0  0  0  0  0  0  0  0  0  0  0  0
  190.5100  175.7360  145.6850 C   0  0  2  0  0  3  0  0  0  0  0  0
  186.6820  177.0900  142.7050 C   0  0  0  0  0  3  0  0  0  0  0  0
  192.6480  172.1250  142.3670 C   0  0  1  0  0  0  0  0  0  0  0  0
  191.7280  172.7450  141.5160 O   0  0  0  0  0  1  0  0  0  0  0  0
  191.2750  172.9600  144.6750 C   0  0  0  0  0  2  0  0  0  0  0  0
  194.6190  174.9310  143.5070 C   0  0  0  0  0  0  0  0  0  0  0  0
  189.3210  173.1420  143.1870 C   0  0  0  0  0  3  0  0  0  0  0  0
  195.4580  173.9190  143.5630 C   0  0  0  0  0  0  0  0  0  0  0  0
  194.5720  176.5280  145.4620 C   0  0  2  0  0  3  0  0  0  0  0  0
  193.6780  173.1210  142.8270 C   0  0  0  0  0  0  0  0  0  0  0  0
  187.6080  177.8850  143.5270 C   0  0  0  0  0  3  0  0  0  0  0  0
  196.7020  174.3820  144.1090 C   0  0  0  0  0  0  0  0  0  0  0  0
  187.4250  173.1430  141.6110 C   0  0  0  0  0  1  0  0  0  0  0  0
  188.2810  173.8710  142.5330 N   0  0  0  0  0  0  0  0  0  0  0  0
  189.0440  175.9190  143.6920 C   0  0  0  0  0  0  0  0  0  0  0  0
  196.6000  175.6470  144.4090 N   0  0  0  0  0  0  0  0  0  0  0  0
  188.3530  175.3320  142.4720 C   0  0  2  0  0  3  0  0  0  0  0  0
  194.8540  177.9200  145.7650 N   0  0  0  0  0  1  0  0  0  0  0  0
  190.2790  174.8810  146.7630 O   0  0  0  0  0  1  0  0  0  0  0  0
  193.4130  174.4880  143.0230 C   0  0  0  0  0  3  0  0  0  0  0  0
  189.9210  175.1750  144.4100 C   0  0  0  0  0  0  0  0  0  0  0  0
  189.5530  178.1090  144.7560 F   0  0  0  0  0  0  0  0  0  0  0  0
  191.7560  171.4080  143.8050 S   0  0  0  0  0  0  0  0  0  0  0  0
  190.1630  173.7470  144.0290 C   0  0  0  0  0  0  0  0  0  0  0  0
  188.7280  177.3400  144.0040 C   0  0  0  0  0  0  0  0  0  0  0  0
  194.9230  172.8010  143.1640 O   0  0  0  0  0  0  0  0  0  0  0  0
  197.9410  173.5820  144.2910 C   0  0  0  0  0  1  0  0  0  0  0  0
  191.9390  176.0460  145.5740 C   0  0  0  0  0  0  0  0  0  0  0  0
  195.2320  176.1430  144.1260 C   0  0  1  0  0  3  0  0  0  0  0  0
  193.3130  170.9680  141.6200 C   0  0  0  0  0  2  0  0  0  0  0  0
  193.3900  169.7210  142.4450 C   0  0  0  0  0  3  0  0  0  0  0  0
  194.4760  169.2660  142.7620 O   0  0  0  0  0  0  0  0  0  0  0  0
  1 30  3  0  0  0  0
  2  4  2  0  0  0  0
  3 21  1  1  0  0  0
  4 13  1  0  0  0  0
  5  6  1  6  0  0  0
  5 12  1  0  0  0  0
  5 25  1  0  0  0  0
  8 10  2  0  0  0  0
  9 26  2  0  0  0  0
 10 14  1  0  0  0  0
 11  1  1  0  0  0  0
 11 20  1  6  0  0  0
 12 22  2  0  0  0  0
 12 28  1  0  0  0  0
 13 27  2  0  0  0  0
 14 29  1  0  0  0  0
 14 18  2  0  0  0  0
 15 16  1  0  0  0  0
 16  9  1  0  0  0  0
 17 27  1  0  0  0  0
 17 23  2  0  0  0  0
 19  2  1  1  0  0  0
 19 16  1  0  0  0  0
 19 17  1  0  0  0  0
 22  8  1  0  0  0  0
 23  3  1  0  0  0  0
 25  7  1  0  0  0  0
 26 23  1  0  0  0  0
 26  7  1  0  0  0  0
 27 24  1  0  0  0  0
 28 10  1  0  0  0  0
 30  3  1  0  0  0  0
 31  8  1  1  0  0  0
 31 18  1  0  0  0  0
 31 11  1  0  0  0  0
 32  5  1  0  0  0  0
 32 33  1  0  0  0  0
 33 34  2  0  0  0  0
M  END
>  <MODEL>
7

>  <REMARK>
 VINA RESULT:      -7.1      3.781      6.082
  Name = 
  2 active torsions:
  status: ('A' for Active; 'I' for Inactive)
    1  A    between atoms: C_3  and  C_6
    2  A    between atoms: C_3  and  C_10
                            x       y       z     vdW  Elec       q    Type
                         _______ _______ _______ _____ _____    ______ ____

>  <TORSDO>
F 2

$$$$
=
 OpenBabel11072408263D

 34 38  0  0  1  0  0  0  0  0999 V2000
  192.4950  176.2900  146.1410 C   0  0  0  0  0  0  0  0  0  0  0  0
  196.4590  171.0620  143.9410 N   0  0  0  0  0  0  0  0  0  0  0  0
  194.5310  175.5030  144.5980 C   0  0  2  0  0  3  0  0  0  0  0  0
  197.3780  171.3540  144.8140 C   0  0  0  0  0  3  0  0  0  0  0  0
  190.1300  173.1510  142.6700 C   0  0  1  0  0  0  0  0  0  0  0  0
  190.8930  172.0300  143.0100 O   0  0  0  0  0  1  0  0  0  0  0  0
  192.3930  174.8150  142.5330 C   0  0  0  0  0  2  0  0  0  0  0  0
  190.0010  174.9460  145.8030 C   0  0  0  0  0  0  0  0  0  0  0  0
  193.6440  172.7230  142.1740 C   0  0  0  0  0  3  0  0  0  0  0  0
  188.8840  175.2940  145.2000 C   0  0  0  0  0  0  0  0  0  0  0  0
  191.3440  176.7660  146.9270 C   0  0  2  0  0  3  0  0  0  0  0  0
  189.8220  173.9590  143.9020 C   0  0  0  0  0  0  0  0  0  0  0  0
  197.1910  172.4610  145.7650 C   0  0  0  0  0  3  0  0  0  0  0  0
  188.2000  176.2550  146.0170 C   0  0  0  0  0  0  0  0  0  0  0  0
  194.7420  170.5700  141.6890 C   0  0  0  0  0  1  0  0  0  0  0  0
  194.6190  171.7450  142.5370 N   0  0  0  0  0  0  0  0  0  0  0  0
  195.2040  173.1170  144.5110 C   0  0  0  0  0  0  0  0  0  0  0  0
  188.9130  176.5080  147.0790 N   0  0  0  0  0  0  0  0  0  0  0  0
  195.1490  171.7250  143.9020 C   0  0  2  0  0  3  0  0  0  0  0  0
  191.7850  177.1610  148.2530 N   0  0  0  0  0  1  0  0  0  0  0  0
  194.7190  176.4190  143.5630 O   0  0  0  0  0  1  0  0  0  0  0  0
  190.6830  174.0570  145.0100 C   0  0  0  0  0  3  0  0  0  0  0  0
  194.3820  174.0970  144.0620 C   0  0  0  0  0  0  0  0  0  0  0  0
  196.0340  174.3100  146.5300 F   0  0  0  0  0  0  0  0  0  0  0  0
  191.0540  174.1650  141.4470 S   0  0  0  0  0  0  0  0  0  0  0  0
  193.4560  173.8170  142.9180 C   0  0  0  0  0  0  0  0  0  0  0  0
  196.1680  173.3050  145.6290 C   0  0  0  0  0  0  0  0  0  0  0  0
  188.7410  174.7200  144.0410 O   0  0  0  0  0  0  0  0  0  0  0  0
  186.8730  176.8650  145.7420 C   0  0  0  0  0  1  0  0  0  0  0  0
  193.4120  175.9170  145.4510 C   0  0  0  0  0  0  0  0  0  0  0  0
  190.1890  175.7550  147.0430 C   0  0  1  0  0  3  0  0  0  0  0  0
  188.8400  172.6850  141.9940 C   0  0  0  0  0  2  0  0  0  0  0  0
  188.6280  173.3250  140.6570 C   0  0  0  0  0  3  0  0  0  0  0  0
  188.1910  172.6660  139.7290 O   0  0  0  0  0  0  0  0  0  0  0  0
  1 11  1  0  0  0  0
  2  4  2  0  0  0  0
  3 21  1  6  0  0  0
  3 30  1  0  0  0  0
  4 13  1  0  0  0  0
  5  6  1  1  0  0  0
  5 12  1  0  0  0  0
  7 26  1  0  0  0  0
  9 16  1  0  0  0  0
  9 26  2  0  0  0  0
 10  8  2  0  0  0  0
 10 14  1  0  0  0  0
 11 31  1  0  0  0  0
 11 20  1  1  0  0  0
 12 28  1  0  0  0  0
 12 22  2  0  0  0  0
 14 18  2  0  0  0  0
 15 16  1  0  0  0  0
 16 19  1  0  0  0  0
 17 27  1  0  0  0  0
 19  2  1  6  0  0  0
 19 17  1  0  0  0  0
 22  8  1  0  0  0  0
 23 17  2  0  0  0  0
 23  3  1  0  0  0  0
 25  7  1  0  0  0  0
 25  5  1  0  0  0  0
 26 23  1  0  0  0  0
 27 13  2  0  0  0  0
 27 24  1  0  0  0  0
 28 10  1  0  0  0  0
 29 14  1  0  0  0  0
 30  1  3  0  0  0  0
 31  8  1  6  0  0  0
 31 18  1  0  0  0  0
 32  5  1  0  0  0  0
 33 32  1  0  0  0  0
 34 33  2  0  0  0  0
M  END
>  <MODEL>
8

>  <REMARK>
 VINA RESULT:      -7.1      4.039      8.816
  Name = 
  2 active torsions:
  status: ('A' for Active; 'I' for Inactive)
    1  A    between atoms: C_3  and  C_6
    2  A    between atoms: C_3  and  C_10
                            x       y       z     vdW  Elec       q    Type
                         _______ _______ _______ _____ _____    ______ ____

>  <TORSDO>
F 2

$$$$
=
 OpenBabel11072408263D

 34 38  0  0  1  0  0  0  0  0999 V2000
  189.0000  175.1060  144.7110 C   0  0  0  0  0  0  0  0  0  0  0  0
  191.7980  173.1340  138.6960 N   0  0  0  0  0  0  0  0  0  0  0  0
  189.4300  173.1240  142.9700 C   0  0  2  0  0  3  0  0  0  0  0  0
  190.6570  173.2730  138.0880 C   0  0  0  0  0  3  0  0  0  0  0  0
  194.2140  174.5770  144.8700 C   0  0  1  0  0  0  0  0  0  0  0  0
  194.3850  174.8450  143.5090 O   0  0  0  0  0  1  0  0  0  0  0  0
  192.1100  172.7760  144.3870 C   0  0  0  0  0  2  0  0  0  0  0  0
  191.2810  176.5350  145.6550 C   0  0  0  0  0  0  0  0  0  0  0  0
  193.0880  172.5710  142.1350 C   0  0  0  0  0  3  0  0  0  0  0  0
  191.9410  176.4950  146.7930 C   0  0  0  0  0  0  0  0  0  0  0  0
  188.7870  176.1480  145.7300 C   0  0  2  0  0  3  0  0  0  0  0  0
  193.1180  175.4410  145.4320 C   0  0  0  0  0  0  0  0  0  0  0  0
  189.4680  173.7520  138.8110 C   0  0  0  0  0  3  0  0  0  0  0  0
  191.1660  177.1650  147.7980 C   0  0  0  0  0  0  0  0  0  0  0  0
  194.2540  172.3620  139.9730 C   0  0  0  0  0  1  0  0  0  0  0  0
  193.0500  172.7030  140.7130 N   0  0  0  0  0  0  0  0  0  0  0  0
  190.7230  173.5220  140.8910 C   0  0  0  0  0  0  0  0  0  0  0  0
  190.0410  177.5710  147.2800 N   0  0  0  0  0  0  0  0  0  0  0  0
  192.0170  173.5330  140.0920 C   0  0  2  0  0  3  0  0  0  0  0  0
  187.5460  176.8520  145.4600 N   0  0  0  0  0  1  0  0  0  0  0  0
  189.3380  171.8940  143.6240 O   0  0  0  0  0  1  0  0  0  0  0  0
  191.9970  175.8620  144.6960 C   0  0  0  0  0  3  0  0  0  0  0  0
  190.7360  173.2440  142.2170 C   0  0  0  0  0  0  0  0  0  0  0  0
  188.3690  174.3160  140.7650 F   0  0  0  0  0  0  0  0  0  0  0  0
  193.8120  172.7970  145.0910 S   0  0  0  0  0  0  0  0  0  0  0  0
  192.0290  172.8890  142.8850 C   0  0  0  0  0  0  0  0  0  0  0  0
  189.4860  173.8690  140.1390 C   0  0  0  0  0  0  0  0  0  0  0  0
  193.0600  175.8350  146.7010 O   0  0  0  0  0  0  0  0  0  0  0  0
  191.5650  177.4020  149.2100 C   0  0  0  0  0  1  0  0  0  0  0  0
  189.2030  174.2240  143.9130 C   0  0  0  0  0  0  0  0  0  0  0  0
  189.9400  177.1580  145.8600 C   0  0  1  0  0  3  0  0  0  0  0  0
  195.5350  174.8400  145.5960 C   0  0  0  0  0  2  0  0  0  0  0  0
  196.4570  173.6610  145.5560 C   0  0  0  0  0  3  0  0  0  0  0  0
  197.1830  173.4230  146.5060 O   0  0  0  0  0  0  0  0  0  0  0  0
  1 11  1  0  0  0  0
  3 21  1  1  0  0  0
  3 30  1  0  0  0  0
  4  2  2  0  0  0  0
  4 13  1  0  0  0  0
  5  6  1  6  0  0  0
  5 25  1  0  0  0  0
  5 12  1  0  0  0  0
  5 32  1  0  0  0  0
  7 25  1  0  0  0  0
  8 10  2  0  0  0  0
  9 26  2  0  0  0  0
 10 14  1  0  0  0  0
 11 20  1  6  0  0  0
 11 31  1  0  0  0  0
 12 28  1  0  0  0  0
 13 27  2  0  0  0  0
 14 29  1  0  0  0  0
 15 16  1  0  0  0  0
 16  9  1  0  0  0  0
 17 23  2  0  0  0  0
 18 14  2  0  0  0  0
 19  2  1  6  0  0  0
 19 16  1  0  0  0  0
 19 17  1  0  0  0  0
 22 12  2  0  0  0  0
 22  8  1  0  0  0  0
 23 26  1  0  0  0  0
 23  3  1  0  0  0  0
 26  7  1  0  0  0  0
 27 24  1  0  0  0  0
 27 17  1  0  0  0  0
 28 10  1  0  0  0  0
 30  1  3  0  0  0  0
 31  8  1  1  0  0  0
 31 18  1  0  0  0  0
 33 32  1  0  0  0  0
 33 34  2  0  0  0  0
M  END
>  <MODEL>
9

>  <REMARK>
 VINA RESULT:      -7.1      3.534      6.961
  Name = 
  2 active torsions:
  status: ('A' for Active; 'I' for Inactive)
    1  A    between atoms: C_3  and  C_6
    2  A    between atoms: C_3  and  C_10
                            x       y       z     vdW  Elec       q    Type
                         _______ _______ _______ _____ _____    ______ ____

>  <TORSDO>
F 2

$$$$
