=
 OpenBabel11072409213D

 58 66  0  0  1  0  0  0  0  0999 V2000
  194.9070  173.1840  145.3290 C   0  0  0  0  0  2  0  0  0  0  0  0
  193.0260  171.9700  144.2170 C   0  0  0  0  0  0  0  0  0  0  0  0
  195.1520  172.2580  143.0820 O   0  0  0  0  0  1  0  0  0  0  0  0
  192.1820  172.5220  144.9780 O   0  0  0  0  0  0  0  0  0  0  0  0
  194.3740  172.4690  144.1770 N   0  0  0  0  0  0  0  0  0  0  0  0
  192.9060  169.5090  143.8070 C   0  0  0  0  0  3  0  0  0  0  0  0
  192.5390  168.4310  143.0010 C   0  0  0  0  0  3  0  0  0  0  0  0
  191.8840  168.6590  141.7910 C   0  0  0  0  0  3  0  0  0  0  0  0
  192.6070  170.8180  143.3920 C   0  0  0  0  0  0  0  0  0  0  0  0
  191.9700  171.0120  142.2030 N   0  0  0  0  0  0  0  0  0  0  0  0
  191.6070  169.9730  141.3970 C   0  0  0  0  0  0  0  0  0  0  0  0
  190.8840  170.2220  140.1070 C   0  0  1  0  0  3  0  0  0  0  0  0
  188.9240  173.0630  141.1690 C   0  0  0  0  0  0  0  0  0  0  0  0
  188.5220  173.1270  139.7280 C   0  0  0  0  0  3  0  0  0  0  0  0
  189.9800  171.4170  140.2120 C   0  0  0  0  0  0  0  0  0  0  0  0
  189.7420  172.0970  141.4350 N   0  0  0  0  0  2  0  0  0  0  0  0
  189.3070  171.9730  139.2140 C   0  0  0  0  0  0  0  0  0  0  0  0
  188.4420  174.0090  142.2090 C   0  0  0  0  0  1  0  0  0  0  0  0
  189.3210  171.5500  137.9250 F   0  0  0  0  0  0  0  0  0  0  0  0
  191.8240  170.3770  139.0030 N   0  0  0  0  0  2  0  0  0  0  0  0
  193.6640  173.4180  139.2810 C   0  0  0  0  0  0  0  0  0  0  0  0
  193.7690  171.6080  137.8570 C   0  0  0  0  0  2  0  0  0  0  0  0
  194.3240  172.9450  138.2370 C   0  0  0  0  0  0  0  0  0  0  0  0
  192.6420  172.5210  139.6970 N   0  0  0  0  0  0  0  0  0  0  0  0
  192.7060  171.4970  138.9020 C   0  0  0  0  0  0  0  0  0  0  0  0
  195.3740  173.6130  137.6020 O   0  0  0  0  0  0  0  0  0  0  0  0
  196.7250  173.2480  137.8250 C   0  0  0  0  0  1  0  0  0  0  0  0
  193.9000  174.7550  139.9180 C   0  0  0  0  0  2  0  0  0  0  0  0
  195.1000  174.6920  140.7460 N   0  0  0  0  0  1  0  0  0  0  0  0
  195.6660  174.4340  144.9110 C   0  0  0  0  0  2  0  0  0  0  0  0
  195.0890  175.6470  145.6240 C   0  0  2  0  0  3  0  0  0  0  0  0
  193.2530  175.7380  143.5470 C   0  0  2  0  0  3  0  0  0  0  0  0
  192.5090  176.9610  143.0250 C   0  0  0  0  0  2  0  0  0  0  0  0
  191.1540  175.8340  145.0520 C   0  0  1  0  0  3  0  0  0  0  0  0
  193.6280  175.4280  145.9510 C   0  0  2  0  0  3  0  0  0  0  0  0
  191.6840  175.8200  143.5870 C   0  0  2  0  0  3  0  0  0  0  0  0
  191.7120  177.0610  145.8080 C   0  0  2  0  0  3  0  0  0  0  0  0
  194.0370  176.3050  144.7540 C   0  0  1  0  0  3  0  0  0  0  0  0
  192.7250  176.3880  146.7740 C   0  0  0  0  0  2  0  0  0  0  0  0
  190.2120  176.8260  145.6880 C   0  0  2  0  0  0  0  0  0  0  0  0
  189.6400  176.4680  146.9300 O   0  0  0  0  0  0  0  0  0  0  0  0
  190.3380  174.3310  147.4800 F   0  0  0  0  0  0  0  0  0  0  0  0
  188.1940  174.9210  147.7460 F   0  0  0  0  0  0  0  0  0  0  0  0
  189.3100  175.0930  146.9480 C   0  0  0  0  0  0  0  0  0  0  0  0
  189.0010  174.6370  145.6760 F   0  0  0  0  0  0  0  0  0  0  0  0
  189.4940  177.8310  144.7830 C   0  0  0  0  0  2  0  0  0  0  0  0
  184.6560  178.2870  144.3350 C   0  0  2  0  0  3  0  0  0  0  0  0
  187.0680  178.0830  145.2240 C   0  0  2  0  0  3  0  0  0  0  0  0
  185.1710  177.7900  146.8120 C   0  0  0  0  0  2  0  0  0  0  0  0
  188.1060  177.3540  144.3750 C   0  0  1  0  0  3  0  0  0  0  0  0
  186.3680  177.1000  146.1690 C   0  0  0  0  0  2  0  0  0  0  0  0
  186.6300  178.6140  142.9220 N   0  0  0  0  0  2  0  0  0  0  0  0
  187.7660  177.7810  142.9980 C   0  0  0  0  0  0  0  0  0  0  0  0
  188.3940  177.4080  141.9730 O   0  0  0  0  0  0  0  0  0  0  0  0
  184.1230  178.2230  145.7780 C   0  0  0  0  0  2  0  0  0  0  0  0
  186.0980  178.8190  144.2540 C   0  0  1  0  0  3  0  0  0  0  0  0
  183.6930  179.0540  143.4260 C   0  0  0  0  0  2  0  0  0  0  0  0
  183.2630  178.2330  142.2160 C   0  0  0  0  0  1  0  0  0  0  0  0
  2  4  2  0  0  0  0
  3  5  1  0  0  0  0
  5  2  1  0  0  0  0
  5  1  1  0  0  0  0
  7  6  2  0  0  0  0
  8  7  1  0  0  0  0
  9  6  1  0  0  0  0
  9  2  1  0  0  0  0
 10  9  2  0  0  0  0
 11  8  2  0  0  0  0
 11 10  1  0  0  0  0
 12 20  1  6  0  0  0
 12 15  1  0  0  0  0
 12 11  1  0  0  0  0
 13 16  1  0  0  0  0
 13 18  1  0  0  0  0
 14 13  2  0  0  0  0
 15 16  1  0  0  0  0
 17 14  1  0  0  0  0
 17 15  2  0  0  0  0
 19 17  1  0  0  0  0
 21 24  1  0  0  0  0
 21 28  1  0  0  0  0
 22 23  1  0  0  0  0
 22 25  1  0  0  0  0
 23 21  2  0  0  0  0
 25 20  1  0  0  0  0
 25 24  2  0  0  0  0
 26 27  1  0  0  0  0
 26 23  1  0  0  0  0
 28 29  1  0  0  0  0
 30  1  1  0  0  0  0
 31 30  1  6  0  0  0
 31 35  1  0  0  0  0
 32 33  1  6  0  0  0
 32 36  1  0  0  0  0
 32 38  1  0  0  0  0
 33 36  1  0  0  0  0
 34 40  1  0  0  0  0
 34 37  1  0  0  0  0
 35 39  1  0  0  0  0
 36 34  1  0  0  0  0
 37 39  1  0  0  0  0
 38 31  1  0  0  0  0
 38 35  1  0  0  0  0
 40 37  1  0  0  0  0
 40 41  1  0  0  0  0
 41 44  1  0  0  0  0
 44 42  1  0  0  0  0
 44 43  1  0  0  0  0
 45 44  1  0  0  0  0
 46 40  1  0  0  0  0
 47 55  1  0  0  0  0
 48 51  1  0  0  0  0
 50 46  1  0  0  0  0
 50 48  1  0  0  0  0
 51 49  1  0  0  0  0
 52 53  1  0  0  0  0
 52 56  1  0  0  0  0
 53 50  1  0  0  0  0
 54 53  2  0  0  0  0
 55 49  1  0  0  0  0
 56 47  1  0  0  0  0
 56 48  1  0  0  0  0
 57 47  1  0  0  0  0
 58 57  1  0  0  0  0
M  END
>  <MODEL>
1

>  <REMARK>
 VINA RESULT:      -8.0      0.000      0.000
  Name = 
  14 active torsions:
  status: ('A' for Active; 'I' for Inactive)
    1  A    between atoms: N_2  and  C_38
    2  A    between atoms: C_3  and  C_53
    3  A    between atoms: C_3  and  N_57
    4  A    between atoms: C_4  and  C_14
    5  A    between atoms: C_5  and  C_32
    6  A    between atoms: C_6  and  C_53
    7  A    between atoms: O_9  and  C_49
    8  A    between atoms: O_9  and  C_55
    9  A    between atoms: C_12  and  C_25
   10  A    between atoms: C_16  and  C_38
   11  A    between atoms: C_20  and  O_29
   12  A    between atoms: C_25  and  C_49
   13  A    between atoms: C_31  and  C_45
   14  A    between atoms: C_38  and  C_54
                            x       y       z     vdW  Elec       q    Type
                         _______ _______ _______ _____ _____    ______ ____

>  <TORSDO>
F 14

$$$$
=
 OpenBabel11072409213D

 58 66  0  0  1  0  0  0  0  0999 V2000
  195.1310  176.5370  145.3150 C   0  0  0  0  0  2  0  0  0  0  0  0
  195.7950  175.3970  143.1920 C   0  0  0  0  0  0  0  0  0  0  0  0
  196.7590  174.7160  145.3130 O   0  0  0  0  0  1  0  0  0  0  0  0
  195.4080  176.3860  142.5060 O   0  0  0  0  0  0  0  0  0  0  0  0
  195.9220  175.5320  144.6180 N   0  0  0  0  0  0  0  0  0  0  0  0
  197.1640  174.0490  141.5960 C   0  0  0  0  0  3  0  0  0  0  0  0
  197.4180  172.8500  140.9280 C   0  0  0  0  0  3  0  0  0  0  0  0
  196.6110  171.7370  141.1680 C   0  0  0  0  0  3  0  0  0  0  0  0
  196.0990  174.1230  142.5090 C   0  0  0  0  0  0  0  0  0  0  0  0
  195.3240  173.0220  142.7200 N   0  0  0  0  0  0  0  0  0  0  0  0
  195.5500  171.8420  142.0750 C   0  0  0  0  0  0  0  0  0  0  0  0
  194.6930  170.6420  142.3510 C   0  0  1  0  0  3  0  0  0  0  0  0
  196.2860  169.4160  145.3520 C   0  0  0  0  0  0  0  0  0  0  0  0
  194.9100  168.9380  145.7010 C   0  0  0  0  0  2  0  0  0  0  0  0
  195.0340  170.0240  143.6780 C   0  0  0  0  0  0  0  0  0  0  0  0
  196.3490  170.0230  144.2120 N   0  0  0  0  0  0  0  0  0  0  0  0
  194.1820  169.4190  144.4950 C   0  0  0  0  0  0  0  0  0  0  0  0
  197.4770  169.2210  146.2190 C   0  0  0  0  0  1  0  0  0  0  0  0
  192.8560  169.2540  144.2650 F   0  0  0  0  0  0  0  0  0  0  0  0
  193.2780  170.9840  142.2860 N   0  0  0  0  0  2  0  0  0  0  0  0
  191.9980  170.5910  138.9810 C   0  0  0  0  0  0  0  0  0  0  0  0
  191.0420  171.0890  141.0190 C   0  0  0  0  0  2  0  0  0  0  0  0
  190.8380  170.8670  139.5530 C   0  0  0  0  0  0  0  0  0  0  0  0
  193.0590  170.6050  139.9290 N   0  0  0  0  0  0  0  0  0  0  0  0
  192.5210  170.8760  141.0780 C   0  0  0  0  0  0  0  0  0  0  0  0
  189.6210  170.9370  138.8700 O   0  0  0  0  0  0  0  0  0  0  0  0
  189.1350  172.1610  138.3480 C   0  0  0  0  0  1  0  0  0  0  0  0
  192.2030  170.3580  137.5140 C   0  0  0  0  0  2  0  0  0  0  0  0
  192.0440  168.9370  137.2230 N   0  0  0  0  0  1  0  0  0  0  0  0
  194.3060  175.9220  146.4350 C   0  0  0  0  0  2  0  0  0  0  0  0
  193.3390  174.8990  145.8590 C   0  0  2  0  0  3  0  0  0  0  0  0
  191.3490  176.7180  146.5080 C   0  0  2  0  0  3  0  0  0  0  0  0
  189.8890  176.4160  146.8200 C   0  0  0  0  0  2  0  0  0  0  0  0
  190.2360  176.7370  144.1750 C   0  0  1  0  0  3  0  0  0  0  0  0
  192.5300  175.5040  144.7330 C   0  0  2  0  0  3  0  0  0  0  0  0
  190.1870  177.3020  145.6260 C   0  0  2  0  0  3  0  0  0  0  0  0
  190.0850  175.1990  144.1980 C   0  0  2  0  0  3  0  0  0  0  0  0
  191.9120  175.3270  146.1310 C   0  0  1  0  0  3  0  0  0  0  0  0
  191.5230  174.7470  143.8240 C   0  0  0  0  0  2  0  0  0  0  0  0
  189.1250  176.0720  143.4010 C   0  0  2  0  0  0  0  0  0  0  0  0
  189.3130  175.9150  142.0090 O   0  0  0  0  0  0  0  0  0  0  0  0
  188.1830  173.9850  142.6060 F   0  0  0  0  0  0  0  0  0  0  0  0
  187.8840  174.8860  140.5780 F   0  0  0  0  0  0  0  0  0  0  0  0
  188.8140  174.6650  141.5760 C   0  0  0  0  0  0  0  0  0  0  0  0
  189.8270  173.8790  141.0500 F   0  0  0  0  0  0  0  0  0  0  0  0
  187.7060  176.1230  143.9750 C   0  0  0  0  0  2  0  0  0  0  0  0
  184.0170  178.6470  142.0160 C   0  0  2  0  0  3  0  0  0  0  0  0
  186.0440  177.1040  142.4210 C   0  0  2  0  0  3  0  0  0  0  0  0
  185.4540  177.7310  140.0830 C   0  0  0  0  0  2  0  0  0  0  0  0
  186.9730  177.4030  143.5940 C   0  0  1  0  0  3  0  0  0  0  0  0
  186.5280  177.8300  141.1600 C   0  0  0  0  0  2  0  0  0  0  0  0
  184.6880  177.8830  144.2450 N   0  0  0  0  0  2  0  0  0  0  0  0
  186.0370  177.8320  144.6580 C   0  0  0  0  0  0  0  0  0  0  0  0
  186.3970  178.1690  145.8150 O   0  0  0  0  0  0  0  0  0  0  0  0
  184.1430  178.4090  140.5010 C   0  0  0  0  0  2  0  0  0  0  0  0
  184.5990  177.4930  142.8520 C   0  0  1  0  0  3  0  0  0  0  0  0
  182.5750  178.9840  142.4020 C   0  0  0  0  0  2  0  0  0  0  0  0
  181.5610  178.3560  141.4540 C   0  0  0  0  0  1  0  0  0  0  0  0
  1 30  1  0  0  0  0
  2  5  1  0  0  0  0
  4  2  2  0  0  0  0
  5  3  1  0  0  0  0
  5  1  1  0  0  0  0
  6  9  1  0  0  0  0
  7  8  1  0  0  0  0
  7  6  2  0  0  0  0
  8 11  2  0  0  0  0
  9 10  2  0  0  0  0
  9  2  1  0  0  0  0
 11 12  1  0  0  0  0
 11 10  1  0  0  0  0
 12 20  1  1  0  0  0
 12 15  1  0  0  0  0
 13 14  1  0  0  0  0
 13 18  1  0  0  0  0
 15 16  1  0  0  0  0
 15 17  2  0  0  0  0
 16 13  2  0  0  0  0
 17 14  1  0  0  0  0
 19 17  1  0  0  0  0
 21 23  2  0  0  0  0
 21 24  1  0  0  0  0
 22 25  1  0  0  0  0
 23 22  1  0  0  0  0
 24 25  2  0  0  0  0
 25 20  1  0  0  0  0
 26 23  1  0  0  0  0
 27 26  1  0  0  0  0
 28 21  1  0  0  0  0
 29 28  1  0  0  0  0
 31 38  1  0  0  0  0
 31 30  1  1  0  0  0
 32 33  1  1  0  0  0
 34 37  1  0  0  0  0
 34 36  1  0  0  0  0
 35 31  1  0  0  0  0
 35 38  1  0  0  0  0
 36 32  1  0  0  0  0
 36 33  1  0  0  0  0
 38 32  1  0  0  0  0
 39 37  1  0  0  0  0
 39 35  1  0  0  0  0
 40 46  1  0  0  0  0
 40 34  1  0  0  0  0
 40 37  1  0  0  0  0
 41 40  1  0  0  0  0
 43 44  1  0  0  0  0
 44 41  1  0  0  0  0
 44 42  1  0  0  0  0
 45 44  1  0  0  0  0
 47 57  1  0  0  0  0
 47 56  1  0  0  0  0
 48 56  1  0  0  0  0
 48 50  1  0  0  0  0
 49 55  1  0  0  0  0
 49 51  1  0  0  0  0
 50 46  1  0  0  0  0
 50 53  1  0  0  0  0
 51 48  1  0  0  0  0
 52 53  1  0  0  0  0
 53 54  2  0  0  0  0
 55 47  1  0  0  0  0
 56 52  1  0  0  0  0
 58 57  1  0  0  0  0
M  END
>  <MODEL>
2

>  <REMARK>
 VINA RESULT:      -7.8      2.620      5.038
  Name = 
  14 active torsions:
  status: ('A' for Active; 'I' for Inactive)
    1  A    between atoms: N_2  and  C_38
    2  A    between atoms: C_3  and  C_53
    3  A    between atoms: C_3  and  N_57
    4  A    between atoms: C_4  and  C_14
    5  A    between atoms: C_5  and  C_32
    6  A    between atoms: C_6  and  C_53
    7  A    between atoms: O_9  and  C_49
    8  A    between atoms: O_9  and  C_55
    9  A    between atoms: C_12  and  C_25
   10  A    between atoms: C_16  and  C_38
   11  A    between atoms: C_20  and  O_29
   12  A    between atoms: C_25  and  C_49
   13  A    between atoms: C_31  and  C_45
   14  A    between atoms: C_38  and  C_54
                            x       y       z     vdW  Elec       q    Type
                         _______ _______ _______ _____ _____    ______ ____

>  <TORSDO>
F 14

$$$$
=
 OpenBabel11072409213D

 58 66  0  0  1  0  0  0  0  0999 V2000
  195.3050  173.1520  145.7140 C   0  0  0  0  0  2  0  0  0  0  0  0
  195.9520  171.4220  144.0290 C   0  0  0  0  0  0  0  0  0  0  0  0
  193.6180  171.7960  144.5820 O   0  0  0  0  0  1  0  0  0  0  0  0
  197.1250  171.3640  144.4970 O   0  0  0  0  0  0  0  0  0  0  0  0
  194.9290  172.1060  144.7720 N   0  0  0  0  0  0  0  0  0  0  0  0
  195.7160  169.3930  142.5920 C   0  0  0  0  0  3  0  0  0  0  0  0
  195.4820  168.8100  141.3460 C   0  0  0  0  0  3  0  0  0  0  0  0
  195.2030  169.6180  140.2430 C   0  0  0  0  0  3  0  0  0  0  0  0
  195.6650  170.7910  142.7250 C   0  0  0  0  0  0  0  0  0  0  0  0
  195.3950  171.5550  141.6300 N   0  0  0  0  0  0  0  0  0  0  0  0
  195.1680  171.0070  140.4010 C   0  0  0  0  0  0  0  0  0  0  0  0
  194.8470  171.8780  139.2230 C   0  0  1  0  0  3  0  0  0  0  0  0
  197.1110  171.3180  136.4650 C   0  0  0  0  0  0  0  0  0  0  0  0
  197.9410  172.3690  137.1350 C   0  0  0  0  0  2  0  0  0  0  0  0
  195.9780  171.8920  138.2330 C   0  0  0  0  0  0  0  0  0  0  0  0
  196.0100  171.0520  137.0890 N   0  0  0  0  0  0  0  0  0  0  0  0
  197.0570  172.6600  138.2960 C   0  0  0  0  0  0  0  0  0  0  0  0
  197.4970  170.6340  135.2030 C   0  0  0  0  0  1  0  0  0  0  0  0
  197.3220  173.5640  139.2730 F   0  0  0  0  0  0  0  0  0  0  0  0
  193.6050  171.4590  138.5860 N   0  0  0  0  0  2  0  0  0  0  0  0
  190.7940  173.1470  139.9870 C   0  0  0  0  0  0  0  0  0  0  0  0
  191.0720  171.7020  138.2120 C   0  0  0  0  0  2  0  0  0  0  0  0
  190.1270  172.5300  139.0260 C   0  0  0  0  0  0  0  0  0  0  0  0
  192.1780  172.8220  139.9480 N   0  0  0  0  0  0  0  0  0  0  0  0
  192.3380  172.0150  138.9440 C   0  0  0  0  0  0  0  0  0  0  0  0
  188.7500  172.6480  138.8230 O   0  0  0  0  0  0  0  0  0  0  0  0
  188.2020  173.7190  138.0740 C   0  0  0  0  0  1  0  0  0  0  0  0
  190.1810  174.0270  141.0340 C   0  0  0  0  0  2  0  0  0  0  0  0
  189.4650  173.2020  142.0020 N   0  0  0  0  0  1  0  0  0  0  0  0
  195.7200  174.4280  144.9990 C   0  0  0  0  0  2  0  0  0  0  0  0
  195.1310  175.6340  145.7170 C   0  0  2  0  0  3  0  0  0  0  0  0
  193.2490  175.6680  143.6790 C   0  0  2  0  0  3  0  0  0  0  0  0
  192.4670  176.8700  143.1650 C   0  0  0  0  0  2  0  0  0  0  0  0
  191.1810  175.7270  145.2290 C   0  0  1  0  0  3  0  0  0  0  0  0
  193.6830  175.3840  146.0770 C   0  0  2  0  0  3  0  0  0  0  0  0
  191.6800  175.7150  143.7530 C   0  0  2  0  0  3  0  0  0  0  0  0
  191.7270  176.9720  145.9640 C   0  0  2  0  0  3  0  0  0  0  0  0
  194.0460  176.2610  144.8650 C   0  0  1  0  0  3  0  0  0  0  0  0
  192.7760  176.3290  146.9130 C   0  0  0  0  0  2  0  0  0  0  0  0
  190.2310  176.7020  145.8790 C   0  0  2  0  0  0  0  0  0  0  0  0
  189.6940  176.3400  147.1340 O   0  0  0  0  0  0  0  0  0  0  0  0
  188.1850  174.7610  147.8990 F   0  0  0  0  0  0  0  0  0  0  0  0
  189.0610  174.5820  145.8460 F   0  0  0  0  0  0  0  0  0  0  0  0
  189.3270  174.9740  147.1450 C   0  0  0  0  0  0  0  0  0  0  0  0
  190.3590  174.1840  147.6270 F   0  0  0  0  0  0  0  0  0  0  0  0
  189.4710  177.6850  144.9820 C   0  0  0  0  0  2  0  0  0  0  0  0
  184.6500  178.2880  144.5270 C   0  0  2  0  0  3  0  0  0  0  0  0
  187.0680  178.1210  145.4060 C   0  0  2  0  0  3  0  0  0  0  0  0
  185.1920  178.1840  147.0440 C   0  0  0  0  0  2  0  0  0  0  0  0
  188.0550  177.2120  144.6770 C   0  0  1  0  0  3  0  0  0  0  0  0
  186.3450  177.3410  146.5100 C   0  0  0  0  0  2  0  0  0  0  0  0
  186.6070  178.2840  143.0540 N   0  0  0  0  0  2  0  0  0  0  0  0
  187.7070  177.4220  143.2520 C   0  0  0  0  0  0  0  0  0  0  0  0
  188.2960  176.8550  142.2960 O   0  0  0  0  0  0  0  0  0  0  0  0
  184.1440  178.4900  145.9670 C   0  0  0  0  0  2  0  0  0  0  0  0
  186.1120  178.7310  144.3400 C   0  0  1  0  0  3  0  0  0  0  0  0
  183.7040  178.9400  143.5150 C   0  0  0  0  0  2  0  0  0  0  0  0
  183.7270  178.2340  142.1640 C   0  0  0  0  0  1  0  0  0  0  0  0
  2  4  2  0  0  0  0
  2  5  1  0  0  0  0
  3  5  1  0  0  0  0
  5  1  1  0  0  0  0
  6  9  1  0  0  0  0
  7  6  2  0  0  0  0
  8 11  2  0  0  0  0
  8  7  1  0  0  0  0
  9  2  1  0  0  0  0
 10  9  2  0  0  0  0
 11 10  1  0  0  0  0
 12 20  1  6  0  0  0
 12 11  1  0  0  0  0
 13 16  2  0  0  0  0
 13 14  1  0  0  0  0
 14 17  1  0  0  0  0
 15 17  2  0  0  0  0
 15 12  1  0  0  0  0
 16 15  1  0  0  0  0
 17 19  1  0  0  0  0
 18 13  1  0  0  0  0
 20 25  1  0  0  0  0
 21 28  1  0  0  0  0
 22 25  1  0  0  0  0
 22 23  1  0  0  0  0
 23 21  2  0  0  0  0
 24 21  1  0  0  0  0
 25 24  2  0  0  0  0
 26 23  1  0  0  0  0
 27 26  1  0  0  0  0
 28 29  1  0  0  0  0
 30  1  1  0  0  0  0
 31 30  1  6  0  0  0
 31 35  1  0  0  0  0
 32 33  1  6  0  0  0
 32 36  1  0  0  0  0
 32 38  1  0  0  0  0
 33 36  1  0  0  0  0
 34 40  1  0  0  0  0
 34 37  1  0  0  0  0
 35 39  1  0  0  0  0
 36 34  1  0  0  0  0
 37 39  1  0  0  0  0
 38 31  1  0  0  0  0
 38 35  1  0  0  0  0
 40 37  1  0  0  0  0
 40 41  1  0  0  0  0
 41 44  1  0  0  0  0
 43 44  1  0  0  0  0
 44 45  1  0  0  0  0
 44 42  1  0  0  0  0
 46 40  1  0  0  0  0
 47 55  1  0  0  0  0
 48 51  1  0  0  0  0
 50 46  1  0  0  0  0
 50 48  1  0  0  0  0
 51 49  1  0  0  0  0
 52 53  1  0  0  0  0
 52 56  1  0  0  0  0
 53 50  1  0  0  0  0
 54 53  2  0  0  0  0
 55 49  1  0  0  0  0
 56 47  1  0  0  0  0
 56 48  1  0  0  0  0
 57 47  1  0  0  0  0
 58 57  1  0  0  0  0
M  END
>  <MODEL>
3

>  <REMARK>
 VINA RESULT:      -7.8      2.099      3.986
  Name = 
  14 active torsions:
  status: ('A' for Active; 'I' for Inactive)
    1  A    between atoms: N_2  and  C_38
    2  A    between atoms: C_3  and  C_53
    3  A    between atoms: C_3  and  N_57
    4  A    between atoms: C_4  and  C_14
    5  A    between atoms: C_5  and  C_32
    6  A    between atoms: C_6  and  C_53
    7  A    between atoms: O_9  and  C_49
    8  A    between atoms: O_9  and  C_55
    9  A    between atoms: C_12  and  C_25
   10  A    between atoms: C_16  and  C_38
   11  A    between atoms: C_20  and  O_29
   12  A    between atoms: C_25  and  C_49
   13  A    between atoms: C_31  and  C_45
   14  A    between atoms: C_38  and  C_54
                            x       y       z     vdW  Elec       q    Type
                         _______ _______ _______ _____ _____    ______ ____

>  <TORSDO>
F 14

$$$$
=
 OpenBabel11072409213D

 58 66  0  0  1  0  0  0  0  0999 V2000
  195.0390  173.6750  145.3220 C   0  0  0  0  0  2  0  0  0  0  0  0
  195.5780  173.6430  142.8810 C   0  0  0  0  0  0  0  0  0  0  0  0
  193.4120  172.8890  143.6770 O   0  0  0  0  0  1  0  0  0  0  0  0
  196.8180  173.6560  143.1250 O   0  0  0  0  0  0  0  0  0  0  0  0
  194.6500  173.3840  143.9480 N   0  0  0  0  0  0  0  0  0  0  0  0
  195.1800  175.2030  140.9710 C   0  0  0  0  0  3  0  0  0  0  0  0
  194.7020  175.4460  139.6830 C   0  0  0  0  0  3  0  0  0  0  0  0
  194.1580  174.4010  138.9360 C   0  0  0  0  0  3  0  0  0  0  0  0
  195.1130  173.9050  141.5030 C   0  0  0  0  0  0  0  0  0  0  0  0
  194.5730  172.9040  140.7530 N   0  0  0  0  0  0  0  0  0  0  0  0
  194.0940  173.1190  139.4930 C   0  0  0  0  0  0  0  0  0  0  0  0
  193.5300  171.9880  138.6860 C   0  0  1  0  0  3  0  0  0  0  0  0
  191.0470  170.8510  141.0490 C   0  0  0  0  0  0  0  0  0  0  0  0
  190.9730  169.6510  140.1570 C   0  0  0  0  0  3  0  0  0  0  0  0
  192.4810  171.2390  139.4570 C   0  0  0  0  0  0  0  0  0  0  0  0
  191.8990  171.7390  140.6520 N   0  0  0  0  0  2  0  0  0  0  0  0
  191.9800  170.0530  139.1390 C   0  0  0  0  0  0  0  0  0  0  0  0
  190.2290  171.0260  142.2770 C   0  0  0  0  0  1  0  0  0  0  0  0
  192.3360  169.3150  138.0580 F   0  0  0  0  0  0  0  0  0  0  0  0
  192.9970  172.4680  137.4160 N   0  0  0  0  0  2  0  0  0  0  0  0
  189.7240  173.8250  137.8100 C   0  0  0  0  0  0  0  0  0  0  0  0
  191.2080  173.7100  136.0500 C   0  0  0  0  0  2  0  0  0  0  0  0
  189.8650  174.1570  136.5380 C   0  0  0  0  0  0  0  0  0  0  0  0
  190.8750  173.1460  138.3000 N   0  0  0  0  0  0  0  0  0  0  0  0
  191.7140  173.0890  137.3120 C   0  0  0  0  0  0  0  0  0  0  0  0
  188.8940  174.8220  135.7860 O   0  0  0  0  0  0  0  0  0  0  0  0
  189.2450  175.6520  134.6930 C   0  0  0  0  0  1  0  0  0  0  0  0
  188.4920  174.0620  138.6320 C   0  0  0  0  0  2  0  0  0  0  0  0
  188.2390  172.8960  139.4720 N   0  0  0  0  0  1  0  0  0  0  0  0
  195.4060  175.1390  145.5020 C   0  0  0  0  0  2  0  0  0  0  0  0
  194.3390  175.8370  146.3320 C   0  0  2  0  0  3  0  0  0  0  0  0
  193.1560  176.4680  143.9040 C   0  0  2  0  0  3  0  0  0  0  0  0
  192.2520  177.6550  143.5980 C   0  0  0  0  0  2  0  0  0  0  0  0
  190.8050  175.5860  144.5180 C   0  0  1  0  0  3  0  0  0  0  0  0
  192.9720  175.2640  146.0340 C   0  0  2  0  0  3  0  0  0  0  0  0
  191.6760  176.2640  143.4180 C   0  0  2  0  0  3  0  0  0  0  0  0
  190.7700  176.4680  145.7860 C   0  0  2  0  0  3  0  0  0  0  0  0
  193.4040  176.6100  145.4240 C   0  0  1  0  0  3  0  0  0  0  0  0
  191.6500  175.6360  146.7590 C   0  0  0  0  0  2  0  0  0  0  0  0
  189.4860  176.0570  145.0780 C   0  0  2  0  0  0  0  0  0  0  0  0
  188.7430  175.1310  145.8420 O   0  0  0  0  0  0  0  0  0  0  0  0
  186.8410  175.9370  146.8860 F   0  0  0  0  0  0  0  0  0  0  0  0
  188.4420  174.9280  148.0830 F   0  0  0  0  0  0  0  0  0  0  0  0
  188.2100  175.7500  146.9970 C   0  0  0  0  0  0  0  0  0  0  0  0
  188.8280  176.9670  147.2400 F   0  0  0  0  0  0  0  0  0  0  0  0
  188.7670  177.2110  144.3730 C   0  0  0  0  0  2  0  0  0  0  0  0
  184.5090  178.0100  142.1270 C   0  0  2  0  0  3  0  0  0  0  0  0
  186.4860  177.9790  143.7830 C   0  0  2  0  0  3  0  0  0  0  0  0
  184.2720  178.8140  144.5640 C   0  0  0  0  0  2  0  0  0  0  0  0
  187.4330  176.7820  143.7740 C   0  0  1  0  0  3  0  0  0  0  0  0
  185.3320  177.7370  144.7630 C   0  0  0  0  0  2  0  0  0  0  0  0
  186.7620  177.2840  141.4990 N   0  0  0  0  0  2  0  0  0  0  0  0
  187.5590  176.4690  142.3320 C   0  0  0  0  0  0  0  0  0  0  0  0
  188.2690  175.5360  141.8760 O   0  0  0  0  0  0  0  0  0  0  0  0
  183.6630  178.7810  143.1570 C   0  0  0  0  0  2  0  0  0  0  0  0
  186.0210  178.2230  142.3170 C   0  0  1  0  0  3  0  0  0  0  0  0
  184.0460  178.3120  140.6990 C   0  0  0  0  0  2  0  0  0  0  0  0
  182.5310  178.2370  140.5540 C   0  0  0  0  0  1  0  0  0  0  0  0
  1 30  1  0  0  0  0
  2  4  2  0  0  0  0
  2  5  1  0  0  0  0
  3  5  1  0  0  0  0
  5  1  1  0  0  0  0
  6  9  1  0  0  0  0
  7  6  2  0  0  0  0
  8 11  2  0  0  0  0
  8  7  1  0  0  0  0
  9  2  1  0  0  0  0
 10  9  2  0  0  0  0
 11 10  1  0  0  0  0
 12 20  1  6  0  0  0
 12 15  1  0  0  0  0
 12 11  1  0  0  0  0
 13 18  1  0  0  0  0
 14 13  2  0  0  0  0
 15 16  1  0  0  0  0
 16 13  1  0  0  0  0
 17 15  2  0  0  0  0
 17 14  1  0  0  0  0
 19 17  1  0  0  0  0
 21 24  1  0  0  0  0
 21 28  1  0  0  0  0
 22 23  1  0  0  0  0
 22 25  1  0  0  0  0
 23 21  2  0  0  0  0
 25 20  1  0  0  0  0
 25 24  2  0  0  0  0
 26 23  1  0  0  0  0
 27 26  1  0  0  0  0
 28 29  1  0  0  0  0
 31 30  1  6  0  0  0
 32 33  1  6  0  0  0
 32 38  1  0  0  0  0
 34 40  1  0  0  0  0
 34 37  1  0  0  0  0
 35 31  1  0  0  0  0
 35 39  1  0  0  0  0
 36 33  1  0  0  0  0
 36 32  1  0  0  0  0
 36 34  1  0  0  0  0
 37 39  1  0  0  0  0
 38 35  1  0  0  0  0
 38 31  1  0  0  0  0
 40 37  1  0  0  0  0
 40 41  1  0  0  0  0
 41 44  1  0  0  0  0
 42 44  1  0  0  0  0
 44 45  1  0  0  0  0
 44 43  1  0  0  0  0
 46 40  1  0  0  0  0
 47 56  1  0  0  0  0
 47 55  1  0  0  0  0
 48 51  1  0  0  0  0
 49 51  1  0  0  0  0
 50 48  1  0  0  0  0
 50 46  1  0  0  0  0
 52 56  1  0  0  0  0
 52 53  1  0  0  0  0
 53 50  1  0  0  0  0
 54 53  2  0  0  0  0
 55 49  1  0  0  0  0
 56 48  1  0  0  0  0
 57 47  1  0  0  0  0
 58 57  1  0  0  0  0
M  END
>  <MODEL>
4

>  <REMARK>
 VINA RESULT:      -7.6      2.017      3.496
  Name = 
  14 active torsions:
  status: ('A' for Active; 'I' for Inactive)
    1  A    between atoms: N_2  and  C_38
    2  A    between atoms: C_3  and  C_53
    3  A    between atoms: C_3  and  N_57
    4  A    between atoms: C_4  and  C_14
    5  A    between atoms: C_5  and  C_32
    6  A    between atoms: C_6  and  C_53
    7  A    between atoms: O_9  and  C_49
    8  A    between atoms: O_9  and  C_55
    9  A    between atoms: C_12  and  C_25
   10  A    between atoms: C_16  and  C_38
   11  A    between atoms: C_20  and  O_29
   12  A    between atoms: C_25  and  C_49
   13  A    between atoms: C_31  and  C_45
   14  A    between atoms: C_38  and  C_54
                            x       y       z     vdW  Elec       q    Type
                         _______ _______ _______ _____ _____    ______ ____

>  <TORSDO>
F 14

$$$$
=
 OpenBabel11072409213D

 58 66  0  0  1  0  0  0  0  0999 V2000
  194.9630  172.8410  145.6780 C   0  0  0  0  0  2  0  0  0  0  0  0
  195.2930  171.6290  143.5170 C   0  0  0  0  0  0  0  0  0  0  0  0
  193.5210  170.9750  145.0420 O   0  0  0  0  0  1  0  0  0  0  0  0
  196.4870  172.0340  143.4380 O   0  0  0  0  0  0  0  0  0  0  0  0
  194.5720  171.7880  144.7510 N   0  0  0  0  0  0  0  0  0  0  0  0
  194.8900  169.6540  142.0420 C   0  0  0  0  0  3  0  0  0  0  0  0
  194.3220  169.0900  140.8990 C   0  0  0  0  0  3  0  0  0  0  0  0
  193.5380  169.8750  140.0530 C   0  0  0  0  0  3  0  0  0  0  0  0
  194.6630  171.0100  142.3320 C   0  0  0  0  0  0  0  0  0  0  0  0
  193.8980  171.7540  141.4860 N   0  0  0  0  0  0  0  0  0  0  0  0
  193.3370  171.2250  140.3610 C   0  0  0  0  0  0  0  0  0  0  0  0
  192.4780  172.0680  139.4650 C   0  0  1  0  0  3  0  0  0  0  0  0
  189.5520  172.2960  141.5690 C   0  0  0  0  0  0  0  0  0  0  0  0
  188.8530  172.6500  140.2930 C   0  0  0  0  0  3  0  0  0  0  0  0
  191.1020  172.2470  140.0410 C   0  0  0  0  0  0  0  0  0  0  0  0
  190.8160  172.0680  141.4200 N   0  0  0  0  0  2  0  0  0  0  0  0
  190.0130  172.5820  139.3640 C   0  0  0  0  0  0  0  0  0  0  0  0
  188.8760  172.2100  142.8900 C   0  0  0  0  0  1  0  0  0  0  0  0
  189.9590  172.8170  138.0290 F   0  0  0  0  0  0  0  0  0  0  0  0
  193.1040  173.3580  139.2030 N   0  0  0  0  0  2  0  0  0  0  0  0
  194.9510  173.3120  136.1540 C   0  0  0  0  0  0  0  0  0  0  0  0
  194.4050  174.9610  137.6700 C   0  0  0  0  0  2  0  0  0  0  0  0
  195.1050  174.6030  136.3970 C   0  0  0  0  0  0  0  0  0  0  0  0
  194.1870  172.6810  137.1750 N   0  0  0  0  0  0  0  0  0  0  0  0
  193.8720  173.6100  138.0240 C   0  0  0  0  0  0  0  0  0  0  0  0
  195.8200  175.4780  135.5750 O   0  0  0  0  0  0  0  0  0  0  0  0
  197.0590  176.0320  135.9840 C   0  0  0  0  0  1  0  0  0  0  0  0
  195.5510  172.5740  134.9950 C   0  0  0  0  0  2  0  0  0  0  0  0
  196.9510  172.2780  135.2810 N   0  0  0  0  0  1  0  0  0  0  0  0
  195.4770  174.0710  144.9460 C   0  0  0  0  0  2  0  0  0  0  0  0
  194.7550  175.3100  145.4550 C   0  0  2  0  0  3  0  0  0  0  0  0
  193.2760  175.1580  143.1140 C   0  0  2  0  0  3  0  0  0  0  0  0
  192.5890  176.3030  142.3800 C   0  0  0  0  0  2  0  0  0  0  0  0
  190.9600  175.2790  144.2560 C   0  0  1  0  0  3  0  0  0  0  0  0
  193.2680  175.0530  145.5650 C   0  0  2  0  0  3  0  0  0  0  0  0
  191.7190  175.1740  142.8990 C   0  0  2  0  0  3  0  0  0  0  0  0
  191.3510  176.5840  144.9840 C   0  0  2  0  0  3  0  0  0  0  0  0
  193.8380  175.8510  144.3780 C   0  0  1  0  0  3  0  0  0  0  0  0
  192.2160  176.0340  146.1510 C   0  0  0  0  0  2  0  0  0  0  0  0
  189.8980  176.2750  144.6500 C   0  0  2  0  0  0  0  0  0  0  0  0
  189.1450  175.9900  145.8110 O   0  0  0  0  0  0  0  0  0  0  0  0
  189.0870  178.3030  145.8470 F   0  0  0  0  0  0  0  0  0  0  0  0
  187.7520  177.1200  147.2010 F   0  0  0  0  0  0  0  0  0  0  0  0
  189.0010  177.1490  146.6090 C   0  0  0  0  0  0  0  0  0  0  0  0
  189.9520  177.1820  147.6160 F   0  0  0  0  0  0  0  0  0  0  0  0
  189.3040  177.1740  143.5610 C   0  0  0  0  0  2  0  0  0  0  0  0
  184.7300  177.9440  142.0450 C   0  0  2  0  0  3  0  0  0  0  0  0
  186.9370  177.8860  143.3770 C   0  0  2  0  0  3  0  0  0  0  0  0
  184.8460  178.5790  144.5410 C   0  0  0  0  0  2  0  0  0  0  0  0
  187.9080  176.7310  143.1420 C   0  0  1  0  0  3  0  0  0  0  0  0
  185.9560  177.5350  144.5010 C   0  0  0  0  0  2  0  0  0  0  0  0
  186.8820  177.3520  141.0350 N   0  0  0  0  0  2  0  0  0  0  0  0
  187.8210  176.5180  141.6790 C   0  0  0  0  0  0  0  0  0  0  0  0
  188.4800  175.6450  141.0570 O   0  0  0  0  0  0  0  0  0  0  0  0
  184.0300  178.6120  143.2420 C   0  0  0  0  0  2  0  0  0  0  0  0
  186.2470  178.2060  142.0190 C   0  0  1  0  0  3  0  0  0  0  0  0
  184.0450  178.3180  140.7280 C   0  0  0  0  0  2  0  0  0  0  0  0
  182.5260  178.3220  140.8480 C   0  0  0  0  0  1  0  0  0  0  0  0
  2  5  1  0  0  0  0
  4  2  2  0  0  0  0
  5  3  1  0  0  0  0
  5  1  1  0  0  0  0
  6  9  1  0  0  0  0
  7  6  2  0  0  0  0
  8 11  2  0  0  0  0
  8  7  1  0  0  0  0
  9  2  1  0  0  0  0
 10  9  2  0  0  0  0
 11 10  1  0  0  0  0
 12 20  1  1  0  0  0
 12 15  1  0  0  0  0
 12 11  1  0  0  0  0
 13 18  1  0  0  0  0
 14 13  2  0  0  0  0
 15 16  1  0  0  0  0
 16 13  1  0  0  0  0
 17 15  2  0  0  0  0
 17 14  1  0  0  0  0
 19 17  1  0  0  0  0
 21 23  2  0  0  0  0
 21 24  1  0  0  0  0
 22 25  1  0  0  0  0
 23 22  1  0  0  0  0
 24 25  2  0  0  0  0
 25 20  1  0  0  0  0
 26 27  1  0  0  0  0
 26 23  1  0  0  0  0
 28 29  1  0  0  0  0
 28 21  1  0  0  0  0
 30  1  1  0  0  0  0
 31 30  1  6  0  0  0
 31 35  1  0  0  0  0
 32 33  1  6  0  0  0
 32 38  1  0  0  0  0
 33 36  1  0  0  0  0
 34 40  1  0  0  0  0
 34 37  1  0  0  0  0
 35 39  1  0  0  0  0
 36 32  1  0  0  0  0
 36 34  1  0  0  0  0
 37 39  1  0  0  0  0
 38 31  1  0  0  0  0
 38 35  1  0  0  0  0
 40 37  1  0  0  0  0
 40 41  1  0  0  0  0
 41 44  1  0  0  0  0
 42 44  1  0  0  0  0
 44 43  1  0  0  0  0
 44 45  1  0  0  0  0
 46 40  1  0  0  0  0
 47 55  1  0  0  0  0
 48 51  1  0  0  0  0
 50 48  1  0  0  0  0
 50 46  1  0  0  0  0
 51 49  1  0  0  0  0
 52 53  1  0  0  0  0
 52 56  1  0  0  0  0
 53 50  1  0  0  0  0
 54 53  2  0  0  0  0
 55 49  1  0  0  0  0
 56 47  1  0  0  0  0
 56 48  1  0  0  0  0
 57 58  1  0  0  0  0
 57 47  1  0  0  0  0
M  END
>  <MODEL>
5

>  <REMARK>
 VINA RESULT:      -7.4      1.940      2.439
  Name = 
  14 active torsions:
  status: ('A' for Active; 'I' for Inactive)
    1  A    between atoms: N_2  and  C_38
    2  A    between atoms: C_3  and  C_53
    3  A    between atoms: C_3  and  N_57
    4  A    between atoms: C_4  and  C_14
    5  A    between atoms: C_5  and  C_32
    6  A    between atoms: C_6  and  C_53
    7  A    between atoms: O_9  and  C_49
    8  A    between atoms: O_9  and  C_55
    9  A    between atoms: C_12  and  C_25
   10  A    between atoms: C_16  and  C_38
   11  A    between atoms: C_20  and  O_29
   12  A    between atoms: C_25  and  C_49
   13  A    between atoms: C_31  and  C_45
   14  A    between atoms: C_38  and  C_54
                            x       y       z     vdW  Elec       q    Type
                         _______ _______ _______ _____ _____    ______ ____

>  <TORSDO>
F 14

$$$$
=
 OpenBabel11072409213D

 58 66  0  0  1  0  0  0  0  0999 V2000
  192.1400  172.2280  138.7790 C   0  0  0  0  0  2  0  0  0  0  0  0
  194.1590  171.0190  139.6240 C   0  0  0  0  0  0  0  0  0  0  0  0
  193.2870  172.9490  140.8110 O   0  0  0  0  0  1  0  0  0  0  0  0
  194.3760  170.5250  138.4820 O   0  0  0  0  0  0  0  0  0  0  0  0
  193.2060  172.0880  139.7620 N   0  0  0  0  0  0  0  0  0  0  0  0
  195.8240  169.4490  140.6240 C   0  0  0  0  0  3  0  0  0  0  0  0
  196.4740  168.9200  141.7400 C   0  0  0  0  0  3  0  0  0  0  0  0
  196.1830  169.4140  143.0120 C   0  0  0  0  0  3  0  0  0  0  0  0
  194.8840  170.4790  140.7930 C   0  0  0  0  0  0  0  0  0  0  0  0
  194.6160  170.9390  142.0470 N   0  0  0  0  0  0  0  0  0  0  0  0
  195.2350  170.4340  143.1520 C   0  0  0  0  0  0  0  0  0  0  0  0
  194.9350  170.9820  144.5160 C   0  0  1  0  0  3  0  0  0  0  0  0
  196.1980  168.8650  147.1560 C   0  0  0  0  0  0  0  0  0  0  0  0
  194.8810  168.1670  147.0140 C   0  0  0  0  0  2  0  0  0  0  0  0
  195.1520  169.9430  145.5800 C   0  0  0  0  0  0  0  0  0  0  0  0
  196.3460  169.8610  146.3440 N   0  0  0  0  0  0  0  0  0  0  0  0
  194.2900  168.9990  145.9310 C   0  0  0  0  0  0  0  0  0  0  0  0
  197.2490  168.4670  148.1290 C   0  0  0  0  0  1  0  0  0  0  0  0
  193.0630  168.8110  145.3830 F   0  0  0  0  0  0  0  0  0  0  0  0
  195.7280  172.1750  144.7860 N   0  0  0  0  0  2  0  0  0  0  0  0
  193.8000  175.1420  144.3530 C   0  0  0  0  0  0  0  0  0  0  0  0
  195.9320  174.7160  145.1210 C   0  0  0  0  0  2  0  0  0  0  0  0
  194.8830  175.7410  144.8200 C   0  0  0  0  0  0  0  0  0  0  0  0
  193.9800  173.7330  144.2760 N   0  0  0  0  0  0  0  0  0  0  0  0
  195.1760  173.4910  144.7170 C   0  0  0  0  0  0  0  0  0  0  0  0
  195.0050  177.1210  144.9950 O   0  0  0  0  0  0  0  0  0  0  0  0
  194.5800  177.7570  146.1880 C   0  0  0  0  0  1  0  0  0  0  0  0
  192.5570  175.8430  143.8940 C   0  0  0  0  0  2  0  0  0  0  0  0
  192.5430  175.9010  142.4360 N   0  0  0  0  0  1  0  0  0  0  0  0
  190.9790  171.2920  139.0740 C   0  0  0  0  0  2  0  0  0  0  0  0
  189.6630  172.0310  138.8870 C   0  0  2  0  0  3  0  0  0  0  0  0
  189.6240  172.2380  141.6530 C   0  0  2  0  0  3  0  0  0  0  0  0
  188.4010  172.3710  142.5520 C   0  0  0  0  0  2  0  0  0  0  0  0
  189.2240  174.7900  141.7230 C   0  0  1  0  0  3  0  0  0  0  0  0
  189.7350  173.4120  139.5020 C   0  0  2  0  0  3  0  0  0  0  0  0
  189.4160  173.4970  142.5700 C   0  0  2  0  0  3  0  0  0  0  0  0
  187.9780  174.6530  140.8180 C   0  0  2  0  0  3  0  0  0  0  0  0
  189.0090  172.2680  140.2340 C   0  0  1  0  0  3  0  0  0  0  0  0
  188.6350  174.5050  139.4180 C   0  0  0  0  0  2  0  0  0  0  0  0
  188.1060  175.8000  141.8120 C   0  0  2  0  0  0  0  0  0  0  0  0
  188.3010  177.0370  141.1580 O   0  0  0  0  0  0  0  0  0  0  0  0
  186.7450  178.7430  141.3180 F   0  0  0  0  0  0  0  0  0  0  0  0
  187.1890  177.8040  139.3340 F   0  0  0  0  0  0  0  0  0  0  0  0
  187.0700  177.5520  140.6880 C   0  0  0  0  0  0  0  0  0  0  0  0
  186.0460  176.6360  140.8650 F   0  0  0  0  0  0  0  0  0  0  0  0
  187.1370  175.7100  142.9940 C   0  0  0  0  0  2  0  0  0  0  0  0
  185.8020  178.4290  146.8200 C   0  0  2  0  0  3  0  0  0  0  0  0
  185.8900  177.1410  144.5880 C   0  0  2  0  0  3  0  0  0  0  0  0
  184.0590  178.7900  144.9550 C   0  0  0  0  0  2  0  0  0  0  0  0
  187.2450  176.9130  143.9240 C   0  0  1  0  0  3  0  0  0  0  0  0
  185.2720  178.4550  144.0960 C   0  0  0  0  0  2  0  0  0  0  0  0
  187.4940  176.7280  146.3280 N   0  0  0  0  0  2  0  0  0  0  0  0
  188.1350  176.6320  145.0740 C   0  0  0  0  0  0  0  0  0  0  0  0
  189.3620  176.3780  144.9660 O   0  0  0  0  0  0  0  0  0  0  0  0
  184.4290  179.0060  146.4280 C   0  0  0  0  0  2  0  0  0  0  0  0
  186.1040  177.0880  146.1290 C   0  0  1  0  0  3  0  0  0  0  0  0
  185.9540  178.3550  148.3410 C   0  0  0  0  0  2  0  0  0  0  0  0
  186.7140  179.5500  148.9050 C   0  0  0  0  0  1  0  0  0  0  0  0
  1 30  1  0  0  0  0
  1  5  1  0  0  0  0
  2  5  1  0  0  0  0
  2  9  1  0  0  0  0
  4  2  2  0  0  0  0
  5  3  1  0  0  0  0
  6  9  2  0  0  0  0
  6  7  1  0  0  0  0
  7  8  2  0  0  0  0
  8 11  1  0  0  0  0
  9 10  1  0  0  0  0
 10 11  2  0  0  0  0
 11 12  1  0  0  0  0
 12 20  1  1  0  0  0
 12 15  1  0  0  0  0
 13 18  1  0  0  0  0
 14 13  1  0  0  0  0
 15 17  2  0  0  0  0
 15 16  1  0  0  0  0
 16 13  2  0  0  0  0
 17 14  1  0  0  0  0
 19 17  1  0  0  0  0
 21 23  2  0  0  0  0
 23 26  1  0  0  0  0
 23 22  1  0  0  0  0
 24 21  1  0  0  0  0
 24 25  2  0  0  0  0
 25 20  1  0  0  0  0
 25 22  1  0  0  0  0
 26 27  1  0  0  0  0
 28 21  1  0  0  0  0
 29 28  1  0  0  0  0
 31 30  1  1  0  0  0
 31 35  1  0  0  0  0
 31 38  1  0  0  0  0
 32 33  1  1  0  0  0
 32 36  1  0  0  0  0
 33 36  1  0  0  0  0
 34 40  1  0  0  0  0
 34 36  1  0  0  0  0
 35 38  1  0  0  0  0
 37 34  1  0  0  0  0
 37 40  1  0  0  0  0
 38 32  1  0  0  0  0
 39 35  1  0  0  0  0
 39 37  1  0  0  0  0
 40 46  1  0  0  0  0
 41 40  1  0  0  0  0
 43 44  1  0  0  0  0
 44 45  1  0  0  0  0
 44 41  1  0  0  0  0
 44 42  1  0  0  0  0
 46 50  1  0  0  0  0
 47 57  1  0  0  0  0
 48 56  1  0  0  0  0
 49 55  1  0  0  0  0
 50 48  1  0  0  0  0
 50 53  1  0  0  0  0
 51 48  1  0  0  0  0
 51 49  1  0  0  0  0
 53 52  1  0  0  0  0
 54 53  2  0  0  0  0
 55 47  1  0  0  0  0
 56 52  1  0  0  0  0
 56 47  1  0  0  0  0
 57 58  1  0  0  0  0
M  END
>  <MODEL>
6

>  <REMARK>
 VINA RESULT:      -7.2      2.906      6.360
  Name = 
  14 active torsions:
  status: ('A' for Active; 'I' for Inactive)
    1  A    between atoms: N_2  and  C_38
    2  A    between atoms: C_3  and  C_53
    3  A    between atoms: C_3  and  N_57
    4  A    between atoms: C_4  and  C_14
    5  A    between atoms: C_5  and  C_32
    6  A    between atoms: C_6  and  C_53
    7  A    between atoms: O_9  and  C_49
    8  A    between atoms: O_9  and  C_55
    9  A    between atoms: C_12  and  C_25
   10  A    between atoms: C_16  and  C_38
   11  A    between atoms: C_20  and  O_29
   12  A    between atoms: C_25  and  C_49
   13  A    between atoms: C_31  and  C_45
   14  A    between atoms: C_38  and  C_54
                            x       y       z     vdW  Elec       q    Type
                         _______ _______ _______ _____ _____    ______ ____

>  <TORSDO>
F 14

$$$$
=
 OpenBabel11072409213D

 58 66  0  0  1  0  0  0  0  0999 V2000
  187.6580  176.6670  143.7140 C   0  0  0  0  0  2  0  0  0  0  0  0
  189.9360  177.0660  144.6620 C   0  0  0  0  0  0  0  0  0  0  0  0
  188.3640  175.6060  145.7970 O   0  0  0  0  0  1  0  0  0  0  0  0
  190.0550  178.1370  144.0010 O   0  0  0  0  0  0  0  0  0  0  0  0
  188.6490  176.4330  144.7560 N   0  0  0  0  0  0  0  0  0  0  0  0
  191.4120  176.7870  146.6570 C   0  0  0  0  0  3  0  0  0  0  0  0
  192.5620  176.2660  147.2520 C   0  0  0  0  0  3  0  0  0  0  0  0
  193.4220  175.4550  146.5090 C   0  0  0  0  0  3  0  0  0  0  0  0
  191.1290  176.4870  145.3140 C   0  0  0  0  0  0  0  0  0  0  0  0
  191.9880  175.6960  144.6120 N   0  0  0  0  0  0  0  0  0  0  0  0
  193.1200  175.1800  145.1710 C   0  0  0  0  0  0  0  0  0  0  0  0
  194.0300  174.2920  144.3750 C   0  0  1  0  0  3  0  0  0  0  0  0
  194.7330  175.3780  141.0030 C   0  0  0  0  0  0  0  0  0  0  0  0
  195.5780  176.4130  141.6780 C   0  0  0  0  0  3  0  0  0  0  0  0
  194.5160  174.9840  143.1330 C   0  0  0  0  0  0  0  0  0  0  0  0
  194.1410  174.5750  141.8260 N   0  0  0  0  0  2  0  0  0  0  0  0
  195.3310  176.0300  143.0950 C   0  0  0  0  0  0  0  0  0  0  0  0
  194.5760  175.2660  139.5290 C   0  0  0  0  0  1  0  0  0  0  0  0
  195.8670  176.6480  144.1760 F   0  0  0  0  0  0  0  0  0  0  0  0
  195.1500  173.8310  145.1850 N   0  0  0  0  0  2  0  0  0  0  0  0
  195.3930  170.2740  145.1650 C   0  0  0  0  0  0  0  0  0  0  0  0
  196.7070  171.9640  146.0230 C   0  0  0  0  0  2  0  0  0  0  0  0
  196.5070  170.4910  145.8430 C   0  0  0  0  0  0  0  0  0  0  0  0
  194.7410  171.4960  144.8370 N   0  0  0  0  0  0  0  0  0  0  0  0
  195.4840  172.4470  145.3120 C   0  0  0  0  0  0  0  0  0  0  0  0
  197.3520  169.4820  146.3110 O   0  0  0  0  0  0  0  0  0  0  0  0
  197.1320  168.8540  147.5620 C   0  0  0  0  0  1  0  0  0  0  0  0
  194.8340  168.9240  144.8320 C   0  0  0  0  0  2  0  0  0  0  0  0
  193.3860  168.9420  145.0070 N   0  0  0  0  0  1  0  0  0  0  0  0
  188.0520  176.0010  142.4050 C   0  0  0  0  0  2  0  0  0  0  0  0
  188.4500  174.5560  142.6630 C   0  0  2  0  0  3  0  0  0  0  0  0
  188.4970  174.2920  139.9020 C   0  0  2  0  0  3  0  0  0  0  0  0
  188.2750  173.0210  139.0930 C   0  0  0  0  0  2  0  0  0  0  0  0
  190.8620  173.2590  139.7740 C   0  0  1  0  0  3  0  0  0  0  0  0
  189.7710  174.2400  141.9980 C   0  0  2  0  0  3  0  0  0  0  0  0
  189.6150  173.7160  138.9610 C   0  0  2  0  0  3  0  0  0  0  0  0
  190.4670  172.1480  140.7730 C   0  0  2  0  0  3  0  0  0  0  0  0
  188.4470  173.7800  141.3610 C   0  0  1  0  0  3  0  0  0  0  0  0
  190.5600  172.9070  142.1250 C   0  0  0  0  0  2  0  0  0  0  0  0
  191.5560  171.9200  139.7340 C   0  0  2  0  0  0  0  0  0  0  0  0
  192.8350  171.8380  140.3290 O   0  0  0  0  0  0  0  0  0  0  0  0
  194.2580  170.0260  140.5460 F   0  0  0  0  0  0  0  0  0  0  0  0
  193.0200  170.7020  142.2850 F   0  0  0  0  0  0  0  0  0  0  0  0
  193.0340  170.5630  140.9100 C   0  0  0  0  0  0  0  0  0  0  0  0
  192.0170  169.6900  140.5570 F   0  0  0  0  0  0  0  0  0  0  0  0
  191.1660  170.9320  138.6300 C   0  0  0  0  0  2  0  0  0  0  0  0
  194.7970  172.8920  136.0240 C   0  0  2  0  0  3  0  0  0  0  0  0
  192.6580  172.4880  137.4070 C   0  0  2  0  0  3  0  0  0  0  0  0
  192.9130  174.6430  136.1850 C   0  0  0  0  0  2  0  0  0  0  0  0
  192.0110  171.1060  137.3740 C   0  0  1  0  0  3  0  0  0  0  0  0
  192.0780  173.3740  136.3000 C   0  0  0  0  0  2  0  0  0  0  0  0
  194.4220  170.8580  137.3360 N   0  0  0  0  0  2  0  0  0  0  0  0
  193.1780  170.1930  137.3720 C   0  0  0  0  0  0  0  0  0  0  0  0
  193.0860  168.9380  137.3540 O   0  0  0  0  0  0  0  0  0  0  0  0
  194.3670  174.3520  135.7930 C   0  0  0  0  0  2  0  0  0  0  0  0
  194.1990  172.2890  137.3080 C   0  0  1  0  0  3  0  0  0  0  0  0
  196.3200  172.7490  135.9600 C   0  0  0  0  0  2  0  0  0  0  0  0
  197.0240  173.5890  137.0190 C   0  0  0  0  0  1  0  0  0  0  0  0
  1  5  1  0  0  0  0
  2  5  1  0  0  0  0
  2  9  1  0  0  0  0
  4  2  2  0  0  0  0
  5  3  1  0  0  0  0
  6  7  1  0  0  0  0
  8  7  2  0  0  0  0
  9  6  2  0  0  0  0
 10 11  2  0  0  0  0
 10  9  1  0  0  0  0
 11  8  1  0  0  0  0
 12 11  1  0  0  0  0
 12 20  1  1  0  0  0
 13 14  2  0  0  0  0
 13 16  1  0  0  0  0
 14 17  1  0  0  0  0
 15 12  1  0  0  0  0
 16 15  1  0  0  0  0
 17 15  2  0  0  0  0
 17 19  1  0  0  0  0
 18 13  1  0  0  0  0
 20 25  1  0  0  0  0
 21 23  2  0  0  0  0
 23 22  1  0  0  0  0
 23 26  1  0  0  0  0
 24 21  1  0  0  0  0
 24 25  2  0  0  0  0
 25 22  1  0  0  0  0
 26 27  1  0  0  0  0
 28 29  1  0  0  0  0
 28 21  1  0  0  0  0
 30  1  1  0  0  0  0
 31 30  1  6  0  0  0
 32 33  1  6  0  0  0
 32 38  1  0  0  0  0
 34 37  1  0  0  0  0
 35 39  1  0  0  0  0
 35 31  1  0  0  0  0
 36 33  1  0  0  0  0
 36 34  1  0  0  0  0
 36 32  1  0  0  0  0
 37 39  1  0  0  0  0
 38 35  1  0  0  0  0
 38 31  1  0  0  0  0
 40 34  1  0  0  0  0
 40 41  1  0  0  0  0
 40 37  1  0  0  0  0
 41 44  1  0  0  0  0
 42 44  1  0  0  0  0
 44 43  1  0  0  0  0
 45 44  1  0  0  0  0
 46 40  1  0  0  0  0
 47 56  1  0  0  0  0
 49 51  1  0  0  0  0
 50 48  1  0  0  0  0
 50 46  1  0  0  0  0
 51 48  1  0  0  0  0
 52 53  1  0  0  0  0
 53 50  1  0  0  0  0
 54 53  2  0  0  0  0
 55 47  1  0  0  0  0
 55 49  1  0  0  0  0
 56 52  1  0  0  0  0
 56 48  1  0  0  0  0
 57 47  1  0  0  0  0
 57 58  1  0  0  0  0
M  END
>  <MODEL>
7

>  <REMARK>
 VINA RESULT:      -7.1      3.003      8.938
  Name = 
  14 active torsions:
  status: ('A' for Active; 'I' for Inactive)
    1  A    between atoms: N_2  and  C_38
    2  A    between atoms: C_3  and  C_53
    3  A    between atoms: C_3  and  N_57
    4  A    between atoms: C_4  and  C_14
    5  A    between atoms: C_5  and  C_32
    6  A    between atoms: C_6  and  C_53
    7  A    between atoms: O_9  and  C_49
    8  A    between atoms: O_9  and  C_55
    9  A    between atoms: C_12  and  C_25
   10  A    between atoms: C_16  and  C_38
   11  A    between atoms: C_20  and  O_29
   12  A    between atoms: C_25  and  C_49
   13  A    between atoms: C_31  and  C_45
   14  A    between atoms: C_38  and  C_54
                            x       y       z     vdW  Elec       q    Type
                         _______ _______ _______ _____ _____    ______ ____

>  <TORSDO>
F 14

$$$$
=
 OpenBabel11072409213D

 58 66  0  0  1  0  0  0  0  0999 V2000
  188.3440  173.8640  137.3690 C   0  0  0  0  0  2  0  0  0  0  0  0
  188.2030  174.5100  139.7800 C   0  0  0  0  0  0  0  0  0  0  0  0
  188.1350  172.1750  139.1200 O   0  0  0  0  0  1  0  0  0  0  0  0
  187.8280  175.6770  139.4750 O   0  0  0  0  0  0  0  0  0  0  0  0
  188.2180  173.4860  138.7700 N   0  0  0  0  0  0  0  0  0  0  0  0
  188.4550  172.9440  141.7090 C   0  0  0  0  0  3  0  0  0  0  0  0
  188.8220  172.7000  143.0330 C   0  0  0  0  0  3  0  0  0  0  0  0
  189.3500  173.7330  143.8090 C   0  0  0  0  0  3  0  0  0  0  0  0
  188.6250  174.2290  141.1680 C   0  0  0  0  0  0  0  0  0  0  0  0
  189.1390  175.2190  141.9490 N   0  0  0  0  0  0  0  0  0  0  0  0
  189.5000  175.0050  143.2470 C   0  0  0  0  0  0  0  0  0  0  0  0
  190.0870  176.1130  144.0710 C   0  0  1  0  0  3  0  0  0  0  0  0
  187.1480  177.1030  145.9230 C   0  0  0  0  0  0  0  0  0  0  0  0
  188.1380  177.5360  146.9600 C   0  0  0  0  0  2  0  0  0  0  0  0
  189.0980  176.6220  145.0810 C   0  0  0  0  0  0  0  0  0  0  0  0
  187.6940  176.5930  144.8670 N   0  0  0  0  0  0  0  0  0  0  0  0
  189.3930  177.1490  146.2620 C   0  0  0  0  0  0  0  0  0  0  0  0
  185.6760  177.2380  146.0720 C   0  0  0  0  0  1  0  0  0  0  0  0
  190.6460  177.3190  146.7540 F   0  0  0  0  0  0  0  0  0  0  0  0
  191.3190  175.6840  144.7210 N   0  0  0  0  0  2  0  0  0  0  0  0
  194.1620  176.3260  142.6690 C   0  0  0  0  0  0  0  0  0  0  0  0
  193.8850  175.5580  144.8250 C   0  0  0  0  0  2  0  0  0  0  0  0
  194.8390  175.9150  143.7280 C   0  0  0  0  0  0  0  0  0  0  0  0
  192.7600  176.2870  142.9030 N   0  0  0  0  0  0  0  0  0  0  0  0
  192.6030  175.8640  144.1200 C   0  0  0  0  0  0  0  0  0  0  0  0
  196.2320  175.8330  143.7880 O   0  0  0  0  0  0  0  0  0  0  0  0
  197.0570  176.8340  143.2180 C   0  0  0  0  0  1  0  0  0  0  0  0
  194.7700  176.7220  141.3560 C   0  0  0  0  0  2  0  0  0  0  0  0
  194.9950  175.5290  140.5470 N   0  0  0  0  0  1  0  0  0  0  0  0
  189.6460  173.3590  136.7670 C   0  0  0  0  0  2  0  0  0  0  0  0
  190.8260  173.9820  137.4980 C   0  0  2  0  0  3  0  0  0  0  0  0
  191.1520  171.4880  138.6690 C   0  0  2  0  0  3  0  0  0  0  0  0
  191.7840  171.1790  140.0200 C   0  0  0  0  0  2  0  0  0  0  0  0
  193.6620  171.2550  138.1010 C   0  0  1  0  0  3  0  0  0  0  0  0
  192.0980  173.2160  137.2060 C   0  0  2  0  0  3  0  0  0  0  0  0
  192.4330  170.5860  138.7840 C   0  0  2  0  0  3  0  0  0  0  0  0
  193.9750  172.6090  138.7770 C   0  0  2  0  0  3  0  0  0  0  0  0
  191.3540  173.0170  138.5400 C   0  0  1  0  0  3  0  0  0  0  0  0
  193.5250  173.6090  137.6760 C   0  0  0  0  0  2  0  0  0  0  0  0
  195.0270  171.5110  138.6910 C   0  0  2  0  0  0  0  0  0  0  0  0
  196.0640  171.8520  137.7950 O   0  0  0  0  0  0  0  0  0  0  0  0
  195.7100  169.7190  136.9700 F   0  0  0  0  0  0  0  0  0  0  0  0
  197.2910  171.0270  136.0730 F   0  0  0  0  0  0  0  0  0  0  0  0
  196.6590  170.6880  137.2550 C   0  0  0  0  0  0  0  0  0  0  0  0
  197.6120  170.1690  138.1170 F   0  0  0  0  0  0  0  0  0  0  0  0
  195.3680  170.8690  140.0390 C   0  0  0  0  0  2  0  0  0  0  0  0
  195.6270  172.3010  144.6970 C   0  0  2  0  0  3  0  0  0  0  0  0
  194.8690  171.3720  142.4150 C   0  0  2  0  0  3  0  0  0  0  0  0
  193.1500  171.8380  144.1570 C   0  0  0  0  0  2  0  0  0  0  0  0
  195.5340  171.9030  141.1470 C   0  0  1  0  0  3  0  0  0  0  0  0
  193.6380  172.2170  142.7630 C   0  0  0  0  0  2  0  0  0  0  0  0
  197.1940  171.7280  142.9040 N   0  0  0  0  0  2  0  0  0  0  0  0
  196.9510  172.0450  141.5510 C   0  0  0  0  0  0  0  0  0  0  0  0
  197.8610  172.4560  140.7840 O   0  0  0  0  0  0  0  0  0  0  0  0
  194.1980  172.1240  145.2400 C   0  0  0  0  0  2  0  0  0  0  0  0
  195.9480  171.3430  143.5360 C   0  0  1  0  0  3  0  0  0  0  0  0
  196.6580  172.2250  145.8260 C   0  0  0  0  0  2  0  0  0  0  0  0
  196.9550  173.5920  146.4320 C   0  0  0  0  0  1  0  0  0  0  0  0
  1  5  1  0  0  0  0
  2  9  1  0  0  0  0
  4  2  2  0  0  0  0
  5  3  1  0  0  0  0
  5  2  1  0  0  0  0
  6  7  1  0  0  0  0
  7  8  2  0  0  0  0
  9  6  2  0  0  0  0
  9 10  1  0  0  0  0
 10 11  2  0  0  0  0
 11  8  1  0  0  0  0
 11 12  1  0  0  0  0
 12 20  1  1  0  0  0
 12 15  1  0  0  0  0
 13 18  1  0  0  0  0
 13 14  1  0  0  0  0
 15 17  2  0  0  0  0
 16 15  1  0  0  0  0
 16 13  2  0  0  0  0
 17 19  1  0  0  0  0
 17 14  1  0  0  0  0
 21 24  1  0  0  0  0
 21 23  2  0  0  0  0
 23 26  1  0  0  0  0
 23 22  1  0  0  0  0
 24 25  2  0  0  0  0
 25 20  1  0  0  0  0
 25 22  1  0  0  0  0
 27 26  1  0  0  0  0
 28 21  1  0  0  0  0
 29 28  1  0  0  0  0
 30  1  1  0  0  0  0
 31 30  1  6  0  0  0
 31 38  1  0  0  0  0
 32 36  1  0  0  0  0
 32 33  1  1  0  0  0
 34 40  1  0  0  0  0
 34 37  1  0  0  0  0
 34 36  1  0  0  0  0
 35 31  1  0  0  0  0
 35 39  1  0  0  0  0
 35 38  1  0  0  0  0
 36 33  1  0  0  0  0
 38 32  1  0  0  0  0
 39 37  1  0  0  0  0
 40 37  1  0  0  0  0
 40 46  1  0  0  0  0
 41 40  1  0  0  0  0
 42 44  1  0  0  0  0
 43 44  1  0  0  0  0
 44 41  1  0  0  0  0
 44 45  1  0  0  0  0
 46 50  1  0  0  0  0
 47 55  1  0  0  0  0
 47 57  1  0  0  0  0
 48 51  1  0  0  0  0
 48 56  1  0  0  0  0
 49 55  1  0  0  0  0
 50 53  1  0  0  0  0
 50 48  1  0  0  0  0
 51 49  1  0  0  0  0
 52 56  1  0  0  0  0
 53 52  1  0  0  0  0
 54 53  2  0  0  0  0
 56 47  1  0  0  0  0
 57 58  1  0  0  0  0
M  END
>  <MODEL>
8

>  <REMARK>
 VINA RESULT:      -6.9      2.934      9.135
  Name = 
  14 active torsions:
  status: ('A' for Active; 'I' for Inactive)
    1  A    between atoms: N_2  and  C_38
    2  A    between atoms: C_3  and  C_53
    3  A    between atoms: C_3  and  N_57
    4  A    between atoms: C_4  and  C_14
    5  A    between atoms: C_5  and  C_32
    6  A    between atoms: C_6  and  C_53
    7  A    between atoms: O_9  and  C_49
    8  A    between atoms: O_9  and  C_55
    9  A    between atoms: C_12  and  C_25
   10  A    between atoms: C_16  and  C_38
   11  A    between atoms: C_20  and  O_29
   12  A    between atoms: C_25  and  C_49
   13  A    between atoms: C_31  and  C_45
   14  A    between atoms: C_38  and  C_54
                            x       y       z     vdW  Elec       q    Type
                         _______ _______ _______ _____ _____    ______ ____

>  <TORSDO>
F 14

$$$$
=
 OpenBabel11072409213D

 58 66  0  0  1  0  0  0  0  0999 V2000
  191.6230  173.7760  144.5780 C   0  0  0  0  0  2  0  0  0  0  0  0
  193.6510  173.5670  143.1310 C   0  0  0  0  0  0  0  0  0  0  0  0
  191.7890  174.9700  142.4540 O   0  0  0  0  0  1  0  0  0  0  0  0
  193.9710  172.4790  143.6870 O   0  0  0  0  0  0  0  0  0  0  0  0
  192.3430  174.1190  143.3590 N   0  0  0  0  0  0  0  0  0  0  0  0
  195.7640  174.8650  142.8330 C   0  0  0  0  0  3  0  0  0  0  0  0
  196.6660  175.5410  142.0110 C   0  0  0  0  0  3  0  0  0  0  0  0
  196.4390  175.6050  140.6350 C   0  0  0  0  0  3  0  0  0  0  0  0
  194.6350  174.2500  142.2660 C   0  0  0  0  0  0  0  0  0  0  0  0
  194.4360  174.3320  140.9210 N   0  0  0  0  0  0  0  0  0  0  0  0
  195.3010  174.9920  140.0990 C   0  0  0  0  0  0  0  0  0  0  0  0
  195.0640  175.0400  138.6180 C   0  0  1  0  0  3  0  0  0  0  0  0
  197.3800  172.6510  137.2150 C   0  0  0  0  0  0  0  0  0  0  0  0
  197.9410  173.8450  136.5060 C   0  0  0  0  0  3  0  0  0  0  0  0
  196.1540  174.3260  137.8700 C   0  0  0  0  0  0  0  0  0  0  0  0
  196.3770  172.9290  137.9820 N   0  0  0  0  0  2  0  0  0  0  0  0
  197.0210  174.8860  137.0370 C   0  0  0  0  0  0  0  0  0  0  0  0
  197.9100  171.2700  137.0640 C   0  0  0  0  0  1  0  0  0  0  0  0
  197.0690  176.2050  136.7230 F   0  0  0  0  0  0  0  0  0  0  0  0
  193.7570  174.4930  138.2800 N   0  0  0  0  0  2  0  0  0  0  0  0
  192.3010  176.2140  135.5180 C   0  0  0  0  0  0  0  0  0  0  0  0
  191.7040  174.3510  136.7370 C   0  0  0  0  0  2  0  0  0  0  0  0
  191.3670  175.2840  135.6170 C   0  0  0  0  0  0  0  0  0  0  0  0
  193.3120  176.0400  136.5040 N   0  0  0  0  0  0  0  0  0  0  0  0
  192.9810  174.9860  137.1860 C   0  0  0  0  0  0  0  0  0  0  0  0
  190.2440  175.2070  134.7900 O   0  0  0  0  0  0  0  0  0  0  0  0
  188.9400  175.0580  135.3240 C   0  0  0  0  0  1  0  0  0  0  0  0
  192.2850  177.3550  134.5440 C   0  0  0  0  0  2  0  0  0  0  0  0
  193.0640  178.4640  135.0840 N   0  0  0  0  0  1  0  0  0  0  0  0
  192.2860  174.3750  145.8080 C   0  0  0  0  0  2  0  0  0  0  0  0
  191.2230  174.9140  146.7530 C   0  0  2  0  0  3  0  0  0  0  0  0
  190.9040  176.9530  144.9000 C   0  0  2  0  0  3  0  0  0  0  0  0
  190.4060  178.3690  145.1620 C   0  0  0  0  0  2  0  0  0  0  0  0
  188.3390  176.7210  144.6890 C   0  0  1  0  0  3  0  0  0  0  0  0
  189.8920  175.0340  146.0450 C   0  0  2  0  0  3  0  0  0  0  0  0
  189.6010  177.5020  144.2150 C   0  0  2  0  0  3  0  0  0  0  0  0
  188.1660  176.8660  146.2170 C   0  0  2  0  0  3  0  0  0  0  0  0
  190.7630  176.2800  146.2860 C   0  0  1  0  0  3  0  0  0  0  0  0
  188.5430  175.4390  146.7030 C   0  0  0  0  0  2  0  0  0  0  0  0
  187.0600  177.2820  145.2590 C   0  0  2  0  0  0  0  0  0  0  0  0
  185.9500  176.4110  145.3330 O   0  0  0  0  0  0  0  0  0  0  0  0
  184.1230  177.6280  146.0680 F   0  0  0  0  0  0  0  0  0  0  0  0
  184.5300  175.5890  146.9020 F   0  0  0  0  0  0  0  0  0  0  0  0
  185.1270  176.7450  146.4340 C   0  0  0  0  0  0  0  0  0  0  0  0
  185.8730  177.2900  147.4680 F   0  0  0  0  0  0  0  0  0  0  0  0
  186.8350  178.7960  145.1870 C   0  0  0  0  0  2  0  0  0  0  0  0
  184.9180  178.0030  140.7700 C   0  0  2  0  0  3  0  0  0  0  0  0
  186.4530  178.0980  142.8400 C   0  0  2  0  0  3  0  0  0  0  0  0
  187.4370  177.4730  140.6380 C   0  0  0  0  0  2  0  0  0  0  0  0
  186.2650  179.2330  143.8430 C   0  0  1  0  0  3  0  0  0  0  0  0
  187.4620  178.5050  141.7590 C   0  0  0  0  0  2  0  0  0  0  0  0
  184.0970  178.5330  143.0160 N   0  0  0  0  0  2  0  0  0  0  0  0
  184.7930  179.3850  143.8990 C   0  0  0  0  0  0  0  0  0  0  0  0
  184.2020  180.2250  144.6260 O   0  0  0  0  0  0  0  0  0  0  0  0
  186.0690  177.3920  139.9490 C   0  0  0  0  0  2  0  0  0  0  0  0
  185.0490  177.7270  142.2790 C   0  0  1  0  0  3  0  0  0  0  0  0
  183.5580  177.5790  140.2100 C   0  0  0  0  0  2  0  0  0  0  0  0
  182.4120  178.4020  140.7900 C   0  0  0  0  0  1  0  0  0  0  0  0
  1 30  1  0  0  0  0
  2  5  1  0  0  0  0
  2  4  2  0  0  0  0
  3  5  1  0  0  0  0
  5  1  1  0  0  0  0
  7  6  2  0  0  0  0
  8  7  1  0  0  0  0
  9  6  1  0  0  0  0
  9  2  1  0  0  0  0
 10  9  2  0  0  0  0
 11  8  2  0  0  0  0
 11 10  1  0  0  0  0
 12 20  1  1  0  0  0
 12 11  1  0  0  0  0
 13 16  1  0  0  0  0
 14 17  1  0  0  0  0
 14 13  2  0  0  0  0
 15 16  1  0  0  0  0
 15 12  1  0  0  0  0
 17 15  2  0  0  0  0
 18 13  1  0  0  0  0
 19 17  1  0  0  0  0
 21 23  2  0  0  0  0
 21 24  1  0  0  0  0
 22 25  1  0  0  0  0
 23 22  1  0  0  0  0
 24 25  2  0  0  0  0
 25 20  1  0  0  0  0
 26 27  1  0  0  0  0
 26 23  1  0  0  0  0
 28 29  1  0  0  0  0
 28 21  1  0  0  0  0
 31 30  1  6  0  0  0
 32 33  1  1  0  0  0
 32 38  1  0  0  0  0
 34 40  1  0  0  0  0
 34 37  1  0  0  0  0
 35 38  1  0  0  0  0
 35 39  1  0  0  0  0
 35 31  1  0  0  0  0
 36 34  1  0  0  0  0
 36 32  1  0  0  0  0
 36 33  1  0  0  0  0
 37 39  1  0  0  0  0
 38 31  1  0  0  0  0
 40 41  1  0  0  0  0
 40 37  1  0  0  0  0
 41 44  1  0  0  0  0
 42 44  1  0  0  0  0
 44 43  1  0  0  0  0
 44 45  1  0  0  0  0
 46 40  1  0  0  0  0
 47 56  1  0  0  0  0
 48 50  1  0  0  0  0
 49 51  1  0  0  0  0
 50 53  1  0  0  0  0
 50 46  1  0  0  0  0
 51 48  1  0  0  0  0
 52 53  1  0  0  0  0
 53 54  2  0  0  0  0
 55 49  1  0  0  0  0
 55 47  1  0  0  0  0
 56 48  1  0  0  0  0
 56 52  1  0  0  0  0
 57 47  1  0  0  0  0
 57 58  1  0  0  0  0
M  END
>  <MODEL>
9

>  <REMARK>
 VINA RESULT:      -6.8      3.291      5.413
  Name = 
  14 active torsions:
  status: ('A' for Active; 'I' for Inactive)
    1  A    between atoms: N_2  and  C_38
    2  A    between atoms: C_3  and  C_53
    3  A    between atoms: C_3  and  N_57
    4  A    between atoms: C_4  and  C_14
    5  A    between atoms: C_5  and  C_32
    6  A    between atoms: C_6  and  C_53
    7  A    between atoms: O_9  and  C_49
    8  A    between atoms: O_9  and  C_55
    9  A    between atoms: C_12  and  C_25
   10  A    between atoms: C_16  and  C_38
   11  A    between atoms: C_20  and  O_29
   12  A    between atoms: C_25  and  C_49
   13  A    between atoms: C_31  and  C_45
   14  A    between atoms: C_38  and  C_54
                            x       y       z     vdW  Elec       q    Type
                         _______ _______ _______ _____ _____    ______ ____

>  <TORSDO>
F 14

$$$$
