=
 OpenBabel11072409263D

 39 44  0  0  1  0  0  0  0  0999 V2000
  189.0120  176.6240  146.4450 N   0  0  0  0  0  0  0  0  0  0  0  0
  191.3510  177.0690  145.8100 C   0  0  1  0  0  3  0  0  0  0  0  0
  190.8800  176.9910  144.3840 C   0  0  0  0  0  0  0  0  0  0  0  0
  190.2320  176.8970  146.8040 C   0  0  0  0  0  3  0  0  0  0  0  0
  189.4740  176.6390  144.0740 C   0  0  0  0  0  0  0  0  0  0  0  0
  188.6110  176.4730  145.0770 C   0  0  0  0  0  3  0  0  0  0  0  0
  191.6970  177.2340  143.4580 O   0  0  0  0  0  0  0  0  0  0  0  0
  193.7780  176.3460  145.9060 C   0  0  0  0  0  0  0  0  0  0  0  0
  192.3820  176.0660  146.0410 N   0  0  0  0  0  2  0  0  0  0  0  0
  194.1690  177.5100  145.6180 O   0  0  0  0  0  0  0  0  0  0  0  0
  195.1870  174.6000  144.8070 C   0  0  2  0  0  0  0  0  0  0  0  0
  196.5280  174.9330  144.9730 C   0  0  1  0  0  3  0  0  0  0  0  0
  194.1940  173.9630  145.7960 C   0  0  0  0  0  2  0  0  0  0  0  0
  194.7760  175.2590  146.1460 C   0  0  2  0  0  3  0  0  0  0  0  0
  196.2450  173.5120  144.7920 N   0  0  0  0  0  0  0  0  0  0  0  0
  197.1960  175.6100  143.4270 S   0  0  0  0  0  1  0  0  0  0  0  0
  196.7760  171.6040  143.3580 C   0  0  0  0  0  3  0  0  0  0  0  0
  197.3450  170.0470  145.6110 C   0  0  0  0  0  3  0  0  0  0  0  0
  197.8420  168.1670  144.1820 O   0  0  0  0  0  1  0  0  0  0  0  0
  197.4550  169.4920  144.3330 C   0  0  0  0  0  0  0  0  0  0  0  0
  197.1690  170.2720  143.2060 C   0  0  0  0  0  3  0  0  0  0  0  0
  196.6650  172.1580  144.6370 C   0  0  0  0  0  0  0  0  0  0  0  0
  196.9480  171.3790  145.7630 C   0  0  0  0  0  3  0  0  0  0  0  0
  188.9550  176.4690  142.6740 C   0  0  2  0  0  3  0  0  0  0  0  0
  185.4790  176.9620  143.0210 C   0  0  0  0  0  2  0  0  0  0  0  0
  188.6110  178.5750  141.5630 O   0  0  0  0  0  0  0  0  0  0  0  0
  185.3360  178.1790  142.3880 C   0  0  2  0  0  3  0  0  0  0  0  0
  188.1020  177.6010  142.1790 C   0  0  0  0  0  0  0  0  0  0  0  0
  186.7040  177.5850  142.4400 N   0  0  0  0  0  0  0  0  0  0  0  0
  185.2500  179.3010  143.4030 C   0  0  0  0  0  2  0  0  0  0  0  0
  186.1560  178.7740  146.1040 O   0  0  0  0  0  0  0  0  0  0  0  0
  184.3380  178.9220  144.4720 N   0  0  0  0  0  2  0  0  0  0  0  0
  183.9800  178.3530  146.6970 O   0  0  0  0  0  1  0  0  0  0  0  0
  184.8020  178.6730  145.7980 C   0  0  0  0  0  0  0  0  0  0  0  0
  189.3070  172.9680  141.9470 N   0  0  0  0  0  2  0  0  0  0  0  0
  188.2690  174.8110  140.8640 C   0  0  0  0  0  2  0  0  0  0  0  0
  189.3910  174.0620  142.8260 N   0  0  0  0  0  2  0  0  0  0  0  0
  188.9780  173.5060  140.6360 C   0  0  0  0  0  2  0  0  0  0  0  0
  188.4490  175.0590  142.3410 C   0  0  1  0  0  3  0  0  0  0  0  0
  1  4  2  0  0  0  0
  2  9  1  1  0  0  0
  2  4  1  0  0  0  0
  3  2  1  0  0  0  0
  5  3  1  0  0  0  0
  5  6  2  0  0  0  0
  6  1  1  0  0  0  0
  7  3  2  0  0  0  0
  8  9  1  0  0  0  0
 10  8  2  0  0  0  0
 11 12  1  0  0  0  0
 11 13  1  6  0  0  0
 11 14  1  0  0  0  0
 12 16  1  6  0  0  0
 13 14  1  0  0  0  0
 14  8  1  6  0  0  0
 15 11  1  0  0  0  0
 15 12  1  0  0  0  0
 17 22  1  0  0  0  0
 18 23  1  0  0  0  0
 19 20  1  0  0  0  0
 20 18  2  0  0  0  0
 21 17  2  0  0  0  0
 21 20  1  0  0  0  0
 22 15  1  0  0  0  0
 22 23  2  0  0  0  0
 24 28  1  1  0  0  0
 24  5  1  0  0  0  0
 26 28  2  0  0  0  0
 27 29  1  0  0  0  0
 27 25  1  0  0  0  0
 27 30  1  1  0  0  0
 28 29  1  0  0  0  0
 29 25  1  0  0  0  0
 30 32  1  0  0  0  0
 32 34  1  0  0  0  0
 34 31  2  0  0  0  0
 34 33  1  0  0  0  0
 35 37  1  0  0  0  0
 36 39  1  0  0  0  0
 38 36  1  0  0  0  0
 38 35  1  0  0  0  0
 39 24  1  6  0  0  0
 39 37  1  0  0  0  0
M  END
>  <MODEL>
1

>  <REMARK>
 VINA RESULT:      -7.5      0.000      0.000
  Name = 
  8 active torsions:
  status: ('A' for Active; 'I' for Inactive)
    1  A    between atoms: C_11  and  C_17
    2  A    between atoms: C_11  and  N_22
    3  A    between atoms: C_12  and  N_23
    4  A    between atoms: C_14  and  C_24
    5  A    between atoms: C_21  and  C_33
    6  A    between atoms: C_25  and  N_34
    7  A    between atoms: C_26  and  C_33
    8  A    between atoms: C_33  and  C_37
                            x       y       z     vdW  Elec       q    Type
                         _______ _______ _______ _____ _____    ______ ____

>  <TORSDO>
F 8

$$$$
=
 OpenBabel11072409263D

 39 44  0  0  1  0  0  0  0  0999 V2000
  194.9610  175.8030  145.9690 N   0  0  0  0  0  0  0  0  0  0  0  0
  192.5500  175.4060  146.2840 C   0  0  1  0  0  3  0  0  0  0  0  0
  192.7410  174.1670  145.4510 C   0  0  0  0  0  0  0  0  0  0  0  0
  193.8350  176.1570  146.5150 C   0  0  0  0  0  3  0  0  0  0  0  0
  194.0580  173.8670  144.8420 C   0  0  0  0  0  0  0  0  0  0  0  0
  195.0930  174.6630  145.1100 C   0  0  0  0  0  3  0  0  0  0  0  0
  191.7660  173.3890  145.2840 O   0  0  0  0  0  0  0  0  0  0  0  0
  190.4380  176.8050  146.3490 C   0  0  0  0  0  0  0  0  0  0  0  0
  191.5690  176.2760  145.6500 N   0  0  0  0  0  2  0  0  0  0  0  0
  190.2750  176.5610  147.5760 O   0  0  0  0  0  0  0  0  0  0  0  0
  188.1710  176.8970  145.3010 C   0  0  2  0  0  0  0  0  0  0  0  0
  187.3740  177.7750  146.0290 C   0  0  1  0  0  3  0  0  0  0  0  0
  189.2700  177.1850  144.2620 C   0  0  0  0  0  2  0  0  0  0  0  0
  189.4660  177.6810  145.6250 C   0  0  2  0  0  3  0  0  0  0  0  0
  187.0080  177.6010  144.6260 N   0  0  0  0  0  0  0  0  0  0  0  0
  186.2130  176.8430  147.0680 S   0  0  0  0  0  1  0  0  0  0  0  0
  184.7880  178.0680  143.7150 C   0  0  0  0  0  3  0  0  0  0  0  0
  185.8360  178.0800  141.1220 C   0  0  0  0  0  3  0  0  0  0  0  0
  183.6330  178.5170  140.2380 O   0  0  0  0  0  1  0  0  0  0  0  0
  184.4700  178.2990  141.3250 C   0  0  0  0  0  0  0  0  0  0  0  0
  183.9460  178.2910  142.6230 C   0  0  0  0  0  3  0  0  0  0  0  0
  186.1540  177.8490  143.5130 C   0  0  0  0  0  0  0  0  0  0  0  0
  186.6770  177.8540  142.2160 C   0  0  0  0  0  3  0  0  0  0  0  0
  194.3000  172.6910  143.9380 C   0  0  2  0  0  3  0  0  0  0  0  0
  191.1950  171.9730  142.4240 C   0  0  0  0  0  2  0  0  0  0  0  0
  194.6440  173.4130  141.6680 O   0  0  0  0  0  0  0  0  0  0  0  0
  191.4360  172.4150  141.1410 C   0  0  2  0  0  3  0  0  0  0  0  0
  193.8670  172.8940  142.5140 C   0  0  0  0  0  0  0  0  0  0  0  0
  192.5490  172.5240  142.1280 N   0  0  0  0  0  0  0  0  0  0  0  0
  190.8340  173.7890  140.9290 C   0  0  0  0  0  2  0  0  0  0  0  0
  188.2050  174.7210  140.1480 O   0  0  0  0  0  0  0  0  0  0  0  0
  189.7640  174.0060  141.8930 N   0  0  0  0  0  2  0  0  0  0  0  0
  187.5730  174.6280  142.3520 O   0  0  0  0  0  1  0  0  0  0  0  0
  188.4730  174.4580  141.4880 C   0  0  0  0  0  0  0  0  0  0  0  0
  194.8510  169.8370  146.0490 N   0  0  0  0  0  2  0  0  0  0  0  0
  194.4400  170.1550  143.7300 C   0  0  0  0  0  2  0  0  0  0  0  0
  194.5660  171.2020  145.8650 N   0  0  0  0  0  2  0  0  0  0  0  0
  195.1460  169.2880  144.7350 C   0  0  0  0  0  2  0  0  0  0  0  0
  193.9580  171.3260  144.5490 C   0  0  1  0  0  3  0  0  0  0  0  0
  1  4  2  0  0  0  0
  2  9  1  6  0  0  0
  2  4  1  0  0  0  0
  3  2  1  0  0  0  0
  5  6  2  0  0  0  0
  5  3  1  0  0  0  0
  6  1  1  0  0  0  0
  7  3  2  0  0  0  0
  8 10  2  0  0  0  0
  9  8  1  0  0  0  0
 11 13  1  1  0  0  0
 11 14  1  0  0  0  0
 11 12  1  0  0  0  0
 12 16  1  1  0  0  0
 13 14  1  0  0  0  0
 14  8  1  1  0  0  0
 15 11  1  0  0  0  0
 15 12  1  0  0  0  0
 18 20  2  0  0  0  0
 18 23  1  0  0  0  0
 19 20  1  0  0  0  0
 20 21  1  0  0  0  0
 21 17  2  0  0  0  0
 22 17  1  0  0  0  0
 22 15  1  0  0  0  0
 23 22  2  0  0  0  0
 24 28  1  6  0  0  0
 24  5  1  0  0  0  0
 26 28  2  0  0  0  0
 27 30  1  1  0  0  0
 27 29  1  0  0  0  0
 27 25  1  0  0  0  0
 29 25  1  0  0  0  0
 29 28  1  0  0  0  0
 30 32  1  0  0  0  0
 31 34  2  0  0  0  0
 34 32  1  0  0  0  0
 34 33  1  0  0  0  0
 36 39  1  0  0  0  0
 36 38  1  0  0  0  0
 37 35  1  0  0  0  0
 38 35  1  0  0  0  0
 39 24  1  6  0  0  0
 39 37  1  0  0  0  0
M  END
>  <MODEL>
2

>  <REMARK>
 VINA RESULT:      -7.3      3.216      8.913
  Name = 
  8 active torsions:
  status: ('A' for Active; 'I' for Inactive)
    1  A    between atoms: C_11  and  C_17
    2  A    between atoms: C_11  and  N_22
    3  A    between atoms: C_12  and  N_23
    4  A    between atoms: C_14  and  C_24
    5  A    between atoms: C_21  and  C_33
    6  A    between atoms: C_25  and  N_34
    7  A    between atoms: C_26  and  C_33
    8  A    between atoms: C_33  and  C_37
                            x       y       z     vdW  Elec       q    Type
                         _______ _______ _______ _____ _____    ______ ____

>  <TORSDO>
F 8

$$$$
=
 OpenBabel11072409263D

 39 44  0  0  1  0  0  0  0  0999 V2000
  195.1360  175.8300  143.9830 N   0  0  0  0  0  0  0  0  0  0  0  0
  193.0400  175.9540  145.2720 C   0  0  1  0  0  3  0  0  0  0  0  0
  192.8310  174.5130  144.8920 C   0  0  0  0  0  0  0  0  0  0  0  0
  194.3380  176.5120  144.7500 C   0  0  0  0  0  3  0  0  0  0  0  0
  193.7790  173.8310  143.9810 C   0  0  0  0  0  0  0  0  0  0  0  0
  194.8660  174.4840  143.5690 C   0  0  0  0  0  3  0  0  0  0  0  0
  191.8400  173.8970  145.3630 O   0  0  0  0  0  0  0  0  0  0  0  0
  190.8030  177.0960  145.6130 C   0  0  0  0  0  0  0  0  0  0  0  0
  191.9230  176.7550  144.7900 N   0  0  0  0  0  2  0  0  0  0  0  0
  190.7690  176.7400  146.8220 O   0  0  0  0  0  0  0  0  0  0  0  0
  188.4460  177.0210  144.7870 C   0  0  2  0  0  0  0  0  0  0  0  0
  187.6450  177.7720  145.6420 C   0  0  1  0  0  3  0  0  0  0  0  0
  189.4050  177.4760  143.6720 C   0  0  0  0  0  2  0  0  0  0  0  0
  189.6870  177.9110  145.0410 C   0  0  2  0  0  3  0  0  0  0  0  0
  187.1620  177.6430  144.2700 N   0  0  0  0  0  0  0  0  0  0  0  0
  186.6840  176.6710  146.7190 S   0  0  0  0  0  1  0  0  0  0  0  0
  184.8370  178.0140  143.6090 C   0  0  0  0  0  3  0  0  0  0  0  0
  185.6010  178.1240  140.9200 C   0  0  0  0  0  3  0  0  0  0  0  0
  183.2980  178.4660  140.2840 O   0  0  0  0  0  1  0  0  0  0  0  0
  184.2560  178.2710  141.2710 C   0  0  0  0  0  0  0  0  0  0  0  0
  183.8740  178.2140  142.6170 C   0  0  0  0  0  3  0  0  0  0  0  0
  186.1830  177.8670  143.2580 C   0  0  0  0  0  0  0  0  0  0  0  0
  186.5640  177.9210  141.9140 C   0  0  0  0  0  3  0  0  0  0  0  0
  193.5910  172.4200  143.4990 C   0  0  2  0  0  3  0  0  0  0  0  0
  190.1230  171.7700  143.5230 C   0  0  0  0  0  2  0  0  0  0  0  0
  193.0440  172.4080  141.1560 O   0  0  0  0  0  0  0  0  0  0  0  0
  189.8570  171.7890  142.1700 C   0  0  2  0  0  3  0  0  0  0  0  0
  192.6440  172.2720  142.3430 C   0  0  0  0  0  0  0  0  0  0  0  0
  191.2700  172.0070  142.5980 N   0  0  0  0  0  0  0  0  0  0  0  0
  189.2580  173.1190  141.7630 C   0  0  0  0  0  2  0  0  0  0  0  0
  190.2430  173.5540  139.0740 O   0  0  0  0  0  1  0  0  0  0  0  0
  188.4200  172.9370  140.5870 N   0  0  0  0  0  2  0  0  0  0  0  0
  188.1710  172.9750  138.2770 O   0  0  0  0  0  0  0  0  0  0  0  0
  188.9260  173.1490  139.2690 C   0  0  0  0  0  0  0  0  0  0  0  0
  194.7840  170.2860  146.1320 N   0  0  0  0  0  2  0  0  0  0  0  0
  193.5600  169.9490  144.1230 C   0  0  0  0  0  2  0  0  0  0  0  0
  194.4970  171.5590  145.6070 N   0  0  0  0  0  2  0  0  0  0  0  0
  194.5560  169.3280  145.0620 C   0  0  0  0  0  2  0  0  0  0  0  0
  193.4520  171.3720  144.6110 C   0  0  1  0  0  3  0  0  0  0  0  0
  1  4  2  0  0  0  0
  2  9  1  6  0  0  0
  3  2  1  0  0  0  0
  3  7  2  0  0  0  0
  4  2  1  0  0  0  0
  5  3  1  0  0  0  0
  6  5  2  0  0  0  0
  6  1  1  0  0  0  0
  8 10  2  0  0  0  0
  9  8  1  0  0  0  0
 11 13  1  1  0  0  0
 11 14  1  0  0  0  0
 11 12  1  0  0  0  0
 12 16  1  1  0  0  0
 13 14  1  0  0  0  0
 14  8  1  1  0  0  0
 15 11  1  0  0  0  0
 15 12  1  0  0  0  0
 18 20  2  0  0  0  0
 18 23  1  0  0  0  0
 19 20  1  0  0  0  0
 20 21  1  0  0  0  0
 21 17  2  0  0  0  0
 22 17  1  0  0  0  0
 22 15  1  0  0  0  0
 23 22  2  0  0  0  0
 24 28  1  1  0  0  0
 24  5  1  0  0  0  0
 26 28  2  0  0  0  0
 27 30  1  1  0  0  0
 27 29  1  0  0  0  0
 27 25  1  0  0  0  0
 28 29  1  0  0  0  0
 29 25  1  0  0  0  0
 31 34  1  0  0  0  0
 32 30  1  0  0  0  0
 33 34  2  0  0  0  0
 34 32  1  0  0  0  0
 36 39  1  0  0  0  0
 36 38  1  0  0  0  0
 37 35  1  0  0  0  0
 38 35  1  0  0  0  0
 39 24  1  6  0  0  0
 39 37  1  0  0  0  0
M  END
>  <MODEL>
3

>  <REMARK>
 VINA RESULT:      -7.2      3.369      9.032
  Name = 
  8 active torsions:
  status: ('A' for Active; 'I' for Inactive)
    1  A    between atoms: C_11  and  C_17
    2  A    between atoms: C_11  and  N_22
    3  A    between atoms: C_12  and  N_23
    4  A    between atoms: C_14  and  C_24
    5  A    between atoms: C_21  and  C_33
    6  A    between atoms: C_25  and  N_34
    7  A    between atoms: C_26  and  C_33
    8  A    between atoms: C_33  and  C_37
                            x       y       z     vdW  Elec       q    Type
                         _______ _______ _______ _____ _____    ______ ____

>  <TORSDO>
F 8

$$$$
=
 OpenBabel11072409263D

 39 44  0  0  1  0  0  0  0  0999 V2000
  188.0180  176.2740  146.3990 N   0  0  0  0  0  0  0  0  0  0  0  0
  189.9710  177.2000  145.2160 C   0  0  1  0  0  3  0  0  0  0  0  0
  189.0560  177.3690  144.0330 C   0  0  0  0  0  0  0  0  0  0  0  0
  189.2640  176.6440  146.4240 C   0  0  0  0  0  3  0  0  0  0  0  0
  187.6580  176.8820  144.0890 C   0  0  0  0  0  0  0  0  0  0  0  0
  187.1940  176.3690  145.2290 C   0  0  0  0  0  3  0  0  0  0  0  0
  189.4970  177.9320  142.9980 O   0  0  0  0  0  0  0  0  0  0  0  0
  192.2740  176.2350  145.6470 C   0  0  0  0  0  0  0  0  0  0  0  0
  191.0900  176.3410  144.8520 N   0  0  0  0  0  2  0  0  0  0  0  0
  192.3700  176.8660  146.7350 O   0  0  0  0  0  0  0  0  0  0  0  0
  193.0920  173.8750  145.5980 C   0  0  2  0  0  0  0  0  0  0  0  0
  193.1220  173.4350  144.2780 C   0  0  1  0  0  3  0  0  0  0  0  0
  194.0740  174.7810  146.3630 C   0  0  0  0  0  2  0  0  0  0  0  0
  193.3860  175.3420  145.1990 C   0  0  2  0  0  3  0  0  0  0  0  0
  194.0520  172.7720  145.1870 N   0  0  0  0  0  0  0  0  0  0  0  0
  191.7130  172.3360  143.9570 S   0  0  0  0  0  1  0  0  0  0  0  0
  194.6530  170.5320  145.9590 C   0  0  0  0  0  3  0  0  0  0  0  0
  197.3640  171.1090  145.5770 C   0  0  0  0  0  3  0  0  0  0  0  0
  197.9410  168.9020  146.3630 O   0  0  0  0  0  1  0  0  0  0  0  0
  196.9780  169.8570  146.0640 C   0  0  0  0  0  0  0  0  0  0  0  0
  195.6220  169.5690  146.2560 C   0  0  0  0  0  3  0  0  0  0  0  0
  195.0390  171.7840  145.4720 C   0  0  0  0  0  0  0  0  0  0  0  0
  196.3940  172.0730  145.2820 C   0  0  0  0  0  3  0  0  0  0  0  0
  186.7130  176.9480  142.9220 C   0  0  2  0  0  3  0  0  0  0  0  0
  188.7440  174.1250  142.3260 C   0  0  0  0  0  2  0  0  0  0  0  0
  187.0290  177.0230  140.5370 O   0  0  0  0  0  0  0  0  0  0  0  0
  188.8820  174.2030  140.9560 C   0  0  2  0  0  3  0  0  0  0  0  0
  187.2790  176.4410  141.6270 C   0  0  0  0  0  0  0  0  0  0  0  0
  188.0830  175.2670  141.6300 N   0  0  0  0  0  0  0  0  0  0  0  0
  187.9350  173.2400  140.2700 C   0  0  0  0  0  2  0  0  0  0  0  0
  187.8130  174.4770  137.6540 O   0  0  0  0  0  1  0  0  0  0  0  0
  188.5880  172.6640  139.1030 N   0  0  0  0  0  2  0  0  0  0  0  0
  189.1060  172.7650  136.8400 O   0  0  0  0  0  0  0  0  0  0  0  0
  188.5230  173.2920  137.8240 C   0  0  0  0  0  0  0  0  0  0  0  0
  185.1460  179.9120  144.2130 N   0  0  0  0  0  2  0  0  0  0  0  0
  184.4060  178.0290  142.9660 C   0  0  0  0  0  2  0  0  0  0  0  0
  186.2890  179.1610  143.8840 N   0  0  0  0  0  2  0  0  0  0  0  0
  183.9970  179.0470  143.9930 C   0  0  0  0  0  2  0  0  0  0  0  0
  185.8930  178.2420  142.8280 C   0  0  1  0  0  3  0  0  0  0  0  0
  1  4  2  0  0  0  0
  2  9  1  6  0  0  0
  2  4  1  0  0  0  0
  3  5  1  0  0  0  0
  3  2  1  0  0  0  0
  5  6  2  0  0  0  0
  6  1  1  0  0  0  0
  7  3  2  0  0  0  0
  8 10  2  0  0  0  0
  9  8  1  0  0  0  0
 11 13  1  1  0  0  0
 12 16  1  1  0  0  0
 12 15  1  0  0  0  0
 12 11  1  0  0  0  0
 14 11  1  0  0  0  0
 14  8  1  1  0  0  0
 14 13  1  0  0  0  0
 15 22  1  0  0  0  0
 15 11  1  0  0  0  0
 17 21  1  0  0  0  0
 18 20  1  0  0  0  0
 20 21  2  0  0  0  0
 20 19  1  0  0  0  0
 22 17  2  0  0  0  0
 23 22  1  0  0  0  0
 23 18  2  0  0  0  0
 24 28  1  6  0  0  0
 24  5  1  0  0  0  0
 26 28  2  0  0  0  0
 27 30  1  6  0  0  0
 27 29  1  0  0  0  0
 27 25  1  0  0  0  0
 28 29  1  0  0  0  0
 29 25  1  0  0  0  0
 31 34  1  0  0  0  0
 32 30  1  0  0  0  0
 33 34  2  0  0  0  0
 34 32  1  0  0  0  0
 36 38  1  0  0  0  0
 37 35  1  0  0  0  0
 38 35  1  0  0  0  0
 39 24  1  1  0  0  0
 39 36  1  0  0  0  0
 39 37  1  0  0  0  0
M  END
>  <MODEL>
4

>  <REMARK>
 VINA RESULT:      -7.2      2.417      4.868
  Name = 
  8 active torsions:
  status: ('A' for Active; 'I' for Inactive)
    1  A    between atoms: C_11  and  C_17
    2  A    between atoms: C_11  and  N_22
    3  A    between atoms: C_12  and  N_23
    4  A    between atoms: C_14  and  C_24
    5  A    between atoms: C_21  and  C_33
    6  A    between atoms: C_25  and  N_34
    7  A    between atoms: C_26  and  C_33
    8  A    between atoms: C_33  and  C_37
                            x       y       z     vdW  Elec       q    Type
                         _______ _______ _______ _____ _____    ______ ____

>  <TORSDO>
F 8

$$$$
=
 OpenBabel11072409263D

 39 44  0  0  1  0  0  0  0  0999 V2000
  185.6230  176.7820  146.7460 N   0  0  0  0  0  0  0  0  0  0  0  0
  188.0130  177.3510  146.5590 C   0  0  1  0  0  3  0  0  0  0  0  0
  187.7050  177.7720  145.1480 C   0  0  0  0  0  0  0  0  0  0  0  0
  186.7910  176.8850  147.3070 C   0  0  0  0  0  3  0  0  0  0  0  0
  186.3480  177.5830  144.5860 C   0  0  0  0  0  0  0  0  0  0  0  0
  185.3800  177.1120  145.3720 C   0  0  0  0  0  3  0  0  0  0  0  0
  188.6180  178.2910  144.4550 O   0  0  0  0  0  0  0  0  0  0  0  0
  190.3170  176.4680  147.1350 C   0  0  0  0  0  0  0  0  0  0  0  0
  189.0230  176.3020  146.5490 N   0  0  0  0  0  2  0  0  0  0  0  0
  190.6150  177.5400  147.7300 O   0  0  0  0  0  0  0  0  0  0  0  0
  192.1780  175.4720  145.7980 C   0  0  2  0  0  0  0  0  0  0  0  0
  193.3580  175.5650  146.5290 C   0  0  1  0  0  3  0  0  0  0  0  0
  191.0050  174.4830  145.9300 C   0  0  0  0  0  2  0  0  0  0  0  0
  191.3060  175.3480  147.0710 C   0  0  2  0  0  3  0  0  0  0  0  0
  193.3020  174.4820  145.5510 N   0  0  0  0  0  0  0  0  0  0  0  0
  194.3900  176.9070  145.8750 S   0  0  0  0  0  1  0  0  0  0  0  0
  194.5220  173.6070  143.6210 C   0  0  0  0  0  3  0  0  0  0  0  0
  194.4020  171.0260  144.6940 C   0  0  0  0  0  3  0  0  0  0  0  0
  195.5860  170.1760  142.7700 O   0  0  0  0  0  1  0  0  0  0  0  0
  195.0280  171.2430  143.4630 C   0  0  0  0  0  0  0  0  0  0  0  0
  195.0860  172.5340  142.9260 C   0  0  0  0  0  3  0  0  0  0  0  0
  193.8950  173.3900  144.8520 C   0  0  0  0  0  0  0  0  0  0  0  0
  193.8340  172.1000  145.3880 C   0  0  0  0  0  3  0  0  0  0  0  0
  185.9910  177.9090  143.1620 C   0  0  2  0  0  3  0  0  0  0  0  0
  183.8700  178.0250  140.3450 C   0  0  0  0  0  2  0  0  0  0  0  0
  184.1600  179.2640  143.9400 O   0  0  0  0  0  0  0  0  0  0  0  0
  182.8380  178.7930  140.8420 C   0  0  2  0  0  3  0  0  0  0  0  0
  184.6770  178.6150  142.9910 C   0  0  0  0  0  0  0  0  0  0  0  0
  183.9920  178.5190  141.7470 N   0  0  0  0  0  0  0  0  0  0  0  0
  181.6740  177.9160  141.2550 C   0  0  0  0  0  2  0  0  0  0  0  0
  179.0510  177.4310  142.3860 O   0  0  0  0  0  1  0  0  0  0  0  0
  180.4520  178.4030  140.6290 N   0  0  0  0  0  2  0  0  0  0  0  0
  178.1370  178.6020  140.6370 O   0  0  0  0  0  0  0  0  0  0  0  0
  179.1700  178.1600  141.2060 C   0  0  0  0  0  0  0  0  0  0  0  0
  187.5400  174.8770  142.0160 N   0  0  0  0  0  2  0  0  0  0  0  0
  187.4160  177.1080  141.2070 C   0  0  0  0  0  2  0  0  0  0  0  0
  186.6440  175.5680  142.8520 N   0  0  0  0  0  2  0  0  0  0  0  0
  188.2830  175.8820  141.2730 C   0  0  0  0  0  2  0  0  0  0  0  0
  186.2830  176.7920  142.1520 C   0  0  1  0  0  3  0  0  0  0  0  0
  1  4  2  0  0  0  0
  2  9  1  6  0  0  0
  2  4  1  0  0  0  0
  3  2  1  0  0  0  0
  5  3  1  0  0  0  0
  5  6  2  0  0  0  0
  6  1  1  0  0  0  0
  7  3  2  0  0  0  0
  8 10  2  0  0  0  0
  9  8  1  0  0  0  0
 11 13  1  6  0  0  0
 11 12  1  0  0  0  0
 11 14  1  0  0  0  0
 12 16  1  6  0  0  0
 13 14  1  0  0  0  0
 14  8  1  6  0  0  0
 15 11  1  0  0  0  0
 15 12  1  0  0  0  0
 17 22  1  0  0  0  0
 18 23  1  0  0  0  0
 19 20  1  0  0  0  0
 20 18  2  0  0  0  0
 21 20  1  0  0  0  0
 21 17  2  0  0  0  0
 22 23  2  0  0  0  0
 22 15  1  0  0  0  0
 24 28  1  1  0  0  0
 24  5  1  0  0  0  0
 25 27  1  0  0  0  0
 25 29  1  0  0  0  0
 27 30  1  1  0  0  0
 27 29  1  0  0  0  0
 28 26  2  0  0  0  0
 29 28  1  0  0  0  0
 32 34  1  0  0  0  0
 32 30  1  0  0  0  0
 33 34  2  0  0  0  0
 34 31  1  0  0  0  0
 35 37  1  0  0  0  0
 36 38  1  0  0  0  0
 36 39  1  0  0  0  0
 38 35  1  0  0  0  0
 39 37  1  0  0  0  0
 39 24  1  1  0  0  0
M  END
>  <MODEL>
5

>  <REMARK>
 VINA RESULT:      -7.2      3.083      3.988
  Name = 
  8 active torsions:
  status: ('A' for Active; 'I' for Inactive)
    1  A    between atoms: C_11  and  C_17
    2  A    between atoms: C_11  and  N_22
    3  A    between atoms: C_12  and  N_23
    4  A    between atoms: C_14  and  C_24
    5  A    between atoms: C_21  and  C_33
    6  A    between atoms: C_25  and  N_34
    7  A    between atoms: C_26  and  C_33
    8  A    between atoms: C_33  and  C_37
                            x       y       z     vdW  Elec       q    Type
                         _______ _______ _______ _____ _____    ______ ____

>  <TORSDO>
F 8

$$$$
=
 OpenBabel11072409263D

 39 44  0  0  1  0  0  0  0  0999 V2000
  192.9900  171.1860  141.9640 N   0  0  0  0  0  0  0  0  0  0  0  0
  191.7770  173.2480  141.3730 C   0  0  1  0  0  3  0  0  0  0  0  0
  192.9060  173.9890  142.0350 C   0  0  0  0  0  0  0  0  0  0  0  0
  191.9810  171.7550  141.3730 C   0  0  0  0  0  3  0  0  0  0  0  0
  193.9960  173.2500  142.7130 C   0  0  0  0  0  0  0  0  0  0  0  0
  194.0080  171.9180  142.6590 C   0  0  0  0  0  3  0  0  0  0  0  0
  192.9130  175.2470  141.9980 O   0  0  0  0  0  0  0  0  0  0  0  0
  189.3740  174.0510  141.3180 C   0  0  0  0  0  0  0  0  0  0  0  0
  190.5200  173.5790  142.0320 N   0  0  0  0  0  2  0  0  0  0  0  0
  189.4040  174.1570  140.0620 O   0  0  0  0  0  0  0  0  0  0  0  0
  188.1130  175.8830  142.4570 C   0  0  2  0  0  0  0  0  0  0  0  0
  186.9410  176.1320  141.7480 C   0  0  1  0  0  3  0  0  0  0  0  0
  188.4530  174.7530  143.4450 C   0  0  0  0  0  2  0  0  0  0  0  0
  188.1230  174.3850  142.0670 C   0  0  2  0  0  3  0  0  0  0  0  0
  186.9080  176.4720  143.1680 N   0  0  0  0  0  0  0  0  0  0  0  0
  187.1160  177.6530  140.7740 S   0  0  0  0  0  1  0  0  0  0  0  0
  186.6590  176.6350  145.5940 C   0  0  0  0  0  3  0  0  0  0  0  0
  184.5530  178.4480  145.2740 C   0  0  0  0  0  3  0  0  0  0  0  0
  184.3060  178.5790  147.6710 O   0  0  0  0  0  1  0  0  0  0  0  0
  184.9560  178.0640  146.5570 C   0  0  0  0  0  0  0  0  0  0  0  0
  186.0090  177.1560  146.7160 C   0  0  0  0  0  3  0  0  0  0  0  0
  186.2560  177.0190  144.3120 C   0  0  0  0  0  0  0  0  0  0  0  0
  185.2030  177.9240  144.1520 C   0  0  0  0  0  3  0  0  0  0  0  0
  195.1130  173.9250  143.4590 C   0  0  2  0  0  3  0  0  0  0  0  0
  193.4840  176.5600  145.1480 C   0  0  0  0  0  2  0  0  0  0  0  0
  195.2370  173.2290  145.7590 O   0  0  0  0  0  0  0  0  0  0  0  0
  193.5660  176.1100  146.4490 C   0  0  2  0  0  3  0  0  0  0  0  0
  194.8680  174.1040  144.9300 C   0  0  0  0  0  0  0  0  0  0  0  0
  194.1810  175.2620  145.3860 N   0  0  0  0  0  0  0  0  0  0  0  0
  192.2570  175.4810  146.8790 C   0  0  0  0  0  2  0  0  0  0  0  0
  189.9870  176.8030  145.6590 O   0  0  0  0  0  0  0  0  0  0  0  0
  191.4540  176.4660  147.5890 N   0  0  0  0  0  2  0  0  0  0  0  0
  189.6610  177.9440  147.6240 O   0  0  0  0  0  1  0  0  0  0  0  0
  190.3340  177.1010  146.9740 C   0  0  0  0  0  0  0  0  0  0  0  0
  197.4580  175.5650  141.2870 N   0  0  0  0  0  2  0  0  0  0  0  0
  196.7840  175.8480  143.5480 C   0  0  0  0  0  2  0  0  0  0  0  0
  196.3750  174.6940  141.5050 N   0  0  0  0  0  2  0  0  0  0  0  0
  197.9410  175.9730  142.5970 C   0  0  0  0  0  2  0  0  0  0  0  0
  195.7350  175.1280  142.7370 C   0  0  1  0  0  3  0  0  0  0  0  0
  1  6  1  0  0  0  0
  2  9  1  1  0  0  0
  2  3  1  0  0  0  0
  3  5  1  0  0  0  0
  4  2  1  0  0  0  0
  4  1  2  0  0  0  0
  5 24  1  0  0  0  0
  6  5  2  0  0  0  0
  7  3  2  0  0  0  0
  8  9  1  0  0  0  0
 10  8  2  0  0  0  0
 11 15  1  0  0  0  0
 11 13  1  6  0  0  0
 12 16  1  6  0  0  0
 12 11  1  0  0  0  0
 12 15  1  0  0  0  0
 14  8  1  6  0  0  0
 14 11  1  0  0  0  0
 14 13  1  0  0  0  0
 15 22  1  0  0  0  0
 17 21  1  0  0  0  0
 18 20  1  0  0  0  0
 20 21  2  0  0  0  0
 20 19  1  0  0  0  0
 22 17  2  0  0  0  0
 23 22  1  0  0  0  0
 23 18  2  0  0  0  0
 24 28  1  1  0  0  0
 25 29  1  0  0  0  0
 25 27  1  0  0  0  0
 27 30  1  6  0  0  0
 28 29  1  0  0  0  0
 28 26  2  0  0  0  0
 29 27  1  0  0  0  0
 30 32  1  0  0  0  0
 31 34  2  0  0  0  0
 34 32  1  0  0  0  0
 34 33  1  0  0  0  0
 35 37  1  0  0  0  0
 35 38  1  0  0  0  0
 37 39  1  0  0  0  0
 38 36  1  0  0  0  0
 39 24  1  1  0  0  0
 39 36  1  0  0  0  0
M  END
>  <MODEL>
6

>  <REMARK>
 VINA RESULT:      -7.1      3.064      9.191
  Name = 
  8 active torsions:
  status: ('A' for Active; 'I' for Inactive)
    1  A    between atoms: C_11  and  C_17
    2  A    between atoms: C_11  and  N_22
    3  A    between atoms: C_12  and  N_23
    4  A    between atoms: C_14  and  C_24
    5  A    between atoms: C_21  and  C_33
    6  A    between atoms: C_25  and  N_34
    7  A    between atoms: C_26  and  C_33
    8  A    between atoms: C_33  and  C_37
                            x       y       z     vdW  Elec       q    Type
                         _______ _______ _______ _____ _____    ______ ____

>  <TORSDO>
F 8

$$$$
=
 OpenBabel11072409263D

 39 44  0  0  1  0  0  0  0  0999 V2000
  194.6210  174.6800  141.9160 N   0  0  0  0  0  0  0  0  0  0  0  0
  194.0050  175.1220  144.2610 C   0  0  1  0  0  3  0  0  0  0  0  0
  193.7340  173.6460  144.3690 C   0  0  0  0  0  0  0  0  0  0  0  0
  194.5170  175.5230  142.9020 C   0  0  0  0  0  3  0  0  0  0  0  0
  193.8470  172.7720  143.1780 C   0  0  0  0  0  0  0  0  0  0  0  0
  194.2740  173.2940  142.0280 C   0  0  0  0  0  3  0  0  0  0  0  0
  193.4130  173.1660  145.4870 O   0  0  0  0  0  0  0  0  0  0  0  0
  192.5440  176.4230  145.8720 C   0  0  0  0  0  0  0  0  0  0  0  0
  192.7940  175.8670  144.5780 N   0  0  0  0  0  2  0  0  0  0  0  0
  193.4060  176.3190  146.7870 O   0  0  0  0  0  0  0  0  0  0  0  0
  190.0590  176.3340  145.6320 C   0  0  2  0  0  0  0  0  0  0  0  0
  189.4850  176.2880  146.9000 C   0  0  1  0  0  3  0  0  0  0  0  0
  190.6450  177.5250  144.8520 C   0  0  0  0  0  2  0  0  0  0  0  0
  191.2700  177.1640  146.1240 C   0  0  2  0  0  3  0  0  0  0  0  0
  188.6490  176.8540  145.8450 N   0  0  0  0  0  0  0  0  0  0  0  0
  188.9240  174.6020  147.2670 S   0  0  0  0  0  1  0  0  0  0  0  0
  187.3740  178.0820  144.1590 C   0  0  0  0  0  3  0  0  0  0  0  0
  185.0500  177.8080  145.6910 C   0  0  0  0  0  3  0  0  0  0  0  0
  183.8120  179.0430  144.0270 O   0  0  0  0  0  1  0  0  0  0  0  0
  185.0070  178.4940  144.4730 C   0  0  0  0  0  0  0  0  0  0  0  0
  186.1710  178.6320  143.7080 C   0  0  0  0  0  3  0  0  0  0  0  0
  187.4170  177.3970  145.3770 C   0  0  0  0  0  0  0  0  0  0  0  0
  186.2550  177.2610  146.1430 C   0  0  0  0  0  3  0  0  0  0  0  0
  193.5180  171.3050  143.1960 C   0  0  2  0  0  3  0  0  0  0  0  0
  190.2660  172.4640  143.9240 C   0  0  0  0  0  2  0  0  0  0  0  0
  192.1730  170.1460  141.5720 O   0  0  0  0  0  0  0  0  0  0  0  0
  189.5410  171.7890  142.9650 C   0  0  2  0  0  3  0  0  0  0  0  0
  192.2130  170.9470  142.5440 C   0  0  0  0  0  0  0  0  0  0  0  0
  191.0120  171.5480  143.0130 N   0  0  0  0  0  0  0  0  0  0  0  0
  189.2320  172.6980  141.7930 C   0  0  0  0  0  2  0  0  0  0  0  0
  188.9710  175.5380  142.2970 O   0  0  0  0  0  0  0  0  0  0  0  0
  187.9410  173.3380  142.0000 N   0  0  0  0  0  2  0  0  0  0  0  0
  186.6970  175.2580  142.4080 O   0  0  0  0  0  1  0  0  0  0  0  0
  187.8320  174.7400  142.2400 C   0  0  0  0  0  0  0  0  0  0  0  0
  195.3940  169.1760  145.3990 N   0  0  0  0  0  2  0  0  0  0  0  0
  193.1370  169.2540  144.6590 C   0  0  0  0  0  2  0  0  0  0  0  0
  195.2470  170.3570  144.6500 N   0  0  0  0  0  2  0  0  0  0  0  0
  194.2470  168.3370  145.0910 C   0  0  0  0  0  2  0  0  0  0  0  0
  193.8170  170.5940  144.5220 C   0  0  1  0  0  3  0  0  0  0  0  0
  1  6  1  0  0  0  0
  1  4  2  0  0  0  0
  2  3  1  0  0  0  0
  2  9  1  6  0  0  0
  3  7  2  0  0  0  0
  4  2  1  0  0  0  0
  5 24  1  0  0  0  0
  5  3  1  0  0  0  0
  6  5  2  0  0  0  0
  8 10  2  0  0  0  0
  9  8  1  0  0  0  0
 11 13  1  6  0  0  0
 11 15  1  0  0  0  0
 11 14  1  0  0  0  0
 11 12  1  0  0  0  0
 12 16  1  6  0  0  0
 13 14  1  0  0  0  0
 14  8  1  6  0  0  0
 15 12  1  0  0  0  0
 17 22  1  0  0  0  0
 18 23  1  0  0  0  0
 19 20  1  0  0  0  0
 20 18  2  0  0  0  0
 21 17  2  0  0  0  0
 21 20  1  0  0  0  0
 22 15  1  0  0  0  0
 22 23  2  0  0  0  0
 24 28  1  1  0  0  0
 26 28  2  0  0  0  0
 27 30  1  6  0  0  0
 27 29  1  0  0  0  0
 27 25  1  0  0  0  0
 28 29  1  0  0  0  0
 29 25  1  0  0  0  0
 30 32  1  0  0  0  0
 32 34  1  0  0  0  0
 34 31  2  0  0  0  0
 34 33  1  0  0  0  0
 36 38  1  0  0  0  0
 37 35  1  0  0  0  0
 38 35  1  0  0  0  0
 39 24  1  6  0  0  0
 39 37  1  0  0  0  0
 39 36  1  0  0  0  0
M  END
>  <MODEL>
7

>  <REMARK>
 VINA RESULT:      -7.0      3.126      8.397
  Name = 
  8 active torsions:
  status: ('A' for Active; 'I' for Inactive)
    1  A    between atoms: C_11  and  C_17
    2  A    between atoms: C_11  and  N_22
    3  A    between atoms: C_12  and  N_23
    4  A    between atoms: C_14  and  C_24
    5  A    between atoms: C_21  and  C_33
    6  A    between atoms: C_25  and  N_34
    7  A    between atoms: C_26  and  C_33
    8  A    between atoms: C_33  and  C_37
                            x       y       z     vdW  Elec       q    Type
                         _______ _______ _______ _____ _____    ______ ____

>  <TORSDO>
F 8

$$$$
=
 OpenBabel11072409263D

 39 44  0  0  1  0  0  0  0  0999 V2000
  185.9190  176.8130  146.3330 N   0  0  0  0  0  0  0  0  0  0  0  0
  188.2610  177.4970  145.9920 C   0  0  1  0  0  3  0  0  0  0  0  0
  187.9330  177.5500  144.5240 C   0  0  0  0  0  0  0  0  0  0  0  0
  187.0720  177.1300  146.8420 C   0  0  0  0  0  3  0  0  0  0  0  0
  186.5970  177.1340  144.0370 C   0  0  0  0  0  0  0  0  0  0  0  0
  185.6610  176.7910  144.9230 C   0  0  0  0  0  3  0  0  0  0  0  0
  188.8090  177.9580  143.7190 O   0  0  0  0  0  0  0  0  0  0  0  0
  190.4300  176.8190  147.1130 C   0  0  0  0  0  0  0  0  0  0  0  0
  189.3470  176.5530  146.2180 N   0  0  0  0  0  2  0  0  0  0  0  0
  190.4560  177.8880  147.7820 O   0  0  0  0  0  0  0  0  0  0  0  0
  192.4820  175.8460  146.0720 C   0  0  2  0  0  0  0  0  0  0  0  0
  193.5810  176.1510  146.8700 C   0  0  1  0  0  3  0  0  0  0  0  0
  191.3940  174.7720  146.2500 C   0  0  0  0  0  2  0  0  0  0  0  0
  191.5160  175.8040  147.2800 C   0  0  2  0  0  3  0  0  0  0  0  0
  193.7070  174.9500  146.0510 N   0  0  0  0  0  0  0  0  0  0  0  0
  194.5440  177.4920  146.1170 S   0  0  0  0  0  1  0  0  0  0  0  0
  193.8290  172.6030  145.3750 C   0  0  0  0  0  3  0  0  0  0  0  0
  196.5530  172.8910  144.8050 C   0  0  0  0  0  3  0  0  0  0  0  0
  196.6600  170.5670  144.1640 O   0  0  0  0  0  1  0  0  0  0  0  0
  195.9270  171.6540  144.6230 C   0  0  0  0  0  0  0  0  0  0  0  0
  194.5650  171.5100  144.9100 C   0  0  0  0  0  3  0  0  0  0  0  0
  194.4540  173.8400  145.5570 C   0  0  0  0  0  0  0  0  0  0  0  0
  195.8160  173.9840  145.2730 C   0  0  0  0  0  3  0  0  0  0  0  0
  186.2260  177.0890  142.5810 C   0  0  2  0  0  3  0  0  0  0  0  0
  187.8720  174.0140  142.0470 C   0  0  0  0  0  2  0  0  0  0  0  0
  187.8500  177.6490  140.8970 O   0  0  0  0  0  0  0  0  0  0  0  0
  188.7740  174.3810  141.0720 C   0  0  2  0  0  3  0  0  0  0  0  0
  187.3620  176.7680  141.6540 C   0  0  0  0  0  0  0  0  0  0  0  0
  187.8700  175.4400  141.6080 N   0  0  0  0  0  0  0  0  0  0  0  0
  188.2790  173.9620  139.7030 C   0  0  0  0  0  2  0  0  0  0  0  0
  189.9320  171.5900  139.8720 O   0  0  0  0  0  1  0  0  0  0  0  0
  189.4150  173.7390  138.8210 N   0  0  0  0  0  2  0  0  0  0  0  0
  191.1850  172.4010  138.1280 O   0  0  0  0  0  0  0  0  0  0  0  0
  190.2130  172.5600  138.9140 C   0  0  0  0  0  0  0  0  0  0  0  0
  183.0350  178.5960  141.9080 N   0  0  0  0  0  2  0  0  0  0  0  0
  185.0040  178.1960  140.6380 C   0  0  0  0  0  2  0  0  0  0  0  0
  184.0040  178.0990  142.7980 N   0  0  0  0  0  2  0  0  0  0  0  0
  183.5060  178.2990  140.5640 C   0  0  0  0  0  2  0  0  0  0  0  0
  185.2870  178.2110  142.1200 C   0  0  1  0  0  3  0  0  0  0  0  0
  1  4  2  0  0  0  0
  2  9  1  6  0  0  0
  2  4  1  0  0  0  0
  3  2  1  0  0  0  0
  5  3  1  0  0  0  0
  5  6  2  0  0  0  0
  6  1  1  0  0  0  0
  7  3  2  0  0  0  0
  8 10  2  0  0  0  0
  9  8  1  0  0  0  0
 11 13  1  6  0  0  0
 11 12  1  0  0  0  0
 11 14  1  0  0  0  0
 12 16  1  6  0  0  0
 13 14  1  0  0  0  0
 14  8  1  6  0  0  0
 15 11  1  0  0  0  0
 15 12  1  0  0  0  0
 17 22  1  0  0  0  0
 18 23  1  0  0  0  0
 19 20  1  0  0  0  0
 20 18  2  0  0  0  0
 20 21  1  0  0  0  0
 21 17  2  0  0  0  0
 22 15  1  0  0  0  0
 23 22  2  0  0  0  0
 24 28  1  6  0  0  0
 24  5  1  0  0  0  0
 26 28  2  0  0  0  0
 27 30  1  6  0  0  0
 27 29  1  0  0  0  0
 27 25  1  0  0  0  0
 29 28  1  0  0  0  0
 29 25  1  0  0  0  0
 32 34  1  0  0  0  0
 32 30  1  0  0  0  0
 33 34  2  0  0  0  0
 34 31  1  0  0  0  0
 35 37  1  0  0  0  0
 36 39  1  0  0  0  0
 38 36  1  0  0  0  0
 38 35  1  0  0  0  0
 39 24  1  6  0  0  0
 39 37  1  0  0  0  0
M  END
>  <MODEL>
8

>  <REMARK>
 VINA RESULT:      -6.8      2.529      5.145
  Name = 
  8 active torsions:
  status: ('A' for Active; 'I' for Inactive)
    1  A    between atoms: C_11  and  C_17
    2  A    between atoms: C_11  and  N_22
    3  A    between atoms: C_12  and  N_23
    4  A    between atoms: C_14  and  C_24
    5  A    between atoms: C_21  and  C_33
    6  A    between atoms: C_25  and  N_34
    7  A    between atoms: C_26  and  C_33
    8  A    between atoms: C_33  and  C_37
                            x       y       z     vdW  Elec       q    Type
                         _______ _______ _______ _____ _____    ______ ____

>  <TORSDO>
F 8

$$$$
=
 OpenBabel11072409263D

 39 44  0  0  1  0  0  0  0  0999 V2000
  189.4650  175.3190  147.4140 N   0  0  0  0  0  0  0  0  0  0  0  0
  190.6650  176.5710  145.6640 C   0  0  1  0  0  3  0  0  0  0  0  0
  189.3090  176.9930  145.1680 C   0  0  0  0  0  0  0  0  0  0  0  0
  190.5930  175.7130  146.9000 C   0  0  0  0  0  3  0  0  0  0  0  0
  188.0790  176.4610  145.7990 C   0  0  0  0  0  0  0  0  0  0  0  0
  188.1880  175.6690  146.8670 C   0  0  0  0  0  3  0  0  0  0  0  0
  189.2360  177.8070  144.2110 O   0  0  0  0  0  0  0  0  0  0  0  0
  192.8040  175.7830  144.5560 C   0  0  0  0  0  0  0  0  0  0  0  0
  191.3760  175.8650  144.6070 N   0  0  0  0  0  2  0  0  0  0  0  0
  193.5050  176.2960  145.4700 O   0  0  0  0  0  0  0  0  0  0  0  0
  194.2570  176.0370  142.5400 C   0  0  2  0  0  0  0  0  0  0  0  0
  195.4630  175.3790  142.7670 C   0  0  1  0  0  3  0  0  0  0  0  0
  192.8780  175.4720  142.1550 C   0  0  0  0  0  2  0  0  0  0  0  0
  193.4610  175.0510  143.4290 C   0  0  2  0  0  3  0  0  0  0  0  0
  195.0680  175.5130  141.3680 N   0  0  0  0  0  0  0  0  0  0  0  0
  196.7680  176.5860  143.1370 S   0  0  0  0  0  1  0  0  0  0  0  0
  194.2410  175.2200  139.0860 C   0  0  0  0  0  3  0  0  0  0  0  0
  196.8680  175.1100  138.1300 C   0  0  0  0  0  3  0  0  0  0  0  0
  196.0340  174.7980  135.8870 O   0  0  0  0  0  1  0  0  0  0  0  0
  195.7950  174.9840  137.2420 C   0  0  0  0  0  0  0  0  0  0  0  0
  194.4810  175.0370  137.7220 C   0  0  0  0  0  3  0  0  0  0  0  0
  195.3140  175.3460  139.9740 C   0  0  0  0  0  0  0  0  0  0  0  0
  196.6270  175.2910  139.4960 C   0  0  0  0  0  3  0  0  0  0  0  0
  186.6940  176.7790  145.3070 C   0  0  2  0  0  3  0  0  0  0  0  0
  186.3250  178.8840  142.5010 C   0  0  0  0  0  2  0  0  0  0  0  0
  186.3540  175.2090  143.5160 O   0  0  0  0  0  0  0  0  0  0  0  0
  186.1490  177.9450  141.5060 C   0  0  2  0  0  3  0  0  0  0  0  0
  186.4390  176.4140  143.8730 C   0  0  0  0  0  0  0  0  0  0  0  0
  186.3240  177.4470  142.9020 N   0  0  0  0  0  0  0  0  0  0  0  0
  187.4410  177.7280  140.7450 C   0  0  0  0  0  2  0  0  0  0  0  0
  189.0730  175.5450  141.7260 O   0  0  0  0  0  1  0  0  0  0  0  0
  187.4290  176.4080  140.1310 N   0  0  0  0  0  2  0  0  0  0  0  0
  188.1910  174.2130  140.0780 O   0  0  0  0  0  0  0  0  0  0  0  0
  188.2340  175.3420  140.6330 C   0  0  0  0  0  0  0  0  0  0  0  0
  185.7380  179.2750  147.7070 N   0  0  0  0  0  2  0  0  0  0  0  0
  184.6470  178.1720  145.9060 C   0  0  0  0  0  2  0  0  0  0  0  0
  186.7110  178.5040  147.0470 N   0  0  0  0  0  2  0  0  0  0  0  0
  184.4410  178.7870  147.2630 C   0  0  0  0  0  2  0  0  0  0  0  0
  186.1480  178.1400  145.7560 C   0  0  1  0  0  3  0  0  0  0  0  0
  2  9  1  6  0  0  0
  2  4  1  0  0  0  0
  3  2  1  0  0  0  0
  3  5  1  0  0  0  0
  4  1  2  0  0  0  0
  5  6  2  0  0  0  0
  6  1  1  0  0  0  0
  7  3  2  0  0  0  0
  8  9  1  0  0  0  0
  8 10  2  0  0  0  0
 11 13  1  1  0  0  0
 11 12  1  0  0  0  0
 11 14  1  0  0  0  0
 12 16  1  6  0  0  0
 13 14  1  0  0  0  0
 14  8  1  1  0  0  0
 15 11  1  0  0  0  0
 15 12  1  0  0  0  0
 17 22  1  0  0  0  0
 18 23  1  0  0  0  0
 19 20  1  0  0  0  0
 20 21  1  0  0  0  0
 20 18  2  0  0  0  0
 21 17  2  0  0  0  0
 22 15  1  0  0  0  0
 23 22  2  0  0  0  0
 24 28  1  6  0  0  0
 24  5  1  0  0  0  0
 25 29  1  0  0  0  0
 26 28  2  0  0  0  0
 27 30  1  6  0  0  0
 27 25  1  0  0  0  0
 27 29  1  0  0  0  0
 29 28  1  0  0  0  0
 32 34  1  0  0  0  0
 32 30  1  0  0  0  0
 33 34  2  0  0  0  0
 34 31  1  0  0  0  0
 36 38  1  0  0  0  0
 37 35  1  0  0  0  0
 38 35  1  0  0  0  0
 39 24  1  1  0  0  0
 39 36  1  0  0  0  0
 39 37  1  0  0  0  0
M  END
>  <MODEL>
9

>  <REMARK>
 VINA RESULT:      -6.7      3.462      5.357
  Name = 
  8 active torsions:
  status: ('A' for Active; 'I' for Inactive)
    1  A    between atoms: C_11  and  C_17
    2  A    between atoms: C_11  and  N_22
    3  A    between atoms: C_12  and  N_23
    4  A    between atoms: C_14  and  C_24
    5  A    between atoms: C_21  and  C_33
    6  A    between atoms: C_25  and  N_34
    7  A    between atoms: C_26  and  C_33
    8  A    between atoms: C_33  and  C_37
                            x       y       z     vdW  Elec       q    Type
                         _______ _______ _______ _____ _____    ______ ____

>  <TORSDO>
F 8

$$$$
