=
 OpenBabel11062419153D

 50 53  0  0  1  0  0  0  0  0999 V2000
  193.5590  176.3900  142.9120 O   0  0  0  0  0  1  0  0  0  0  0  0
  194.2580  175.7710  143.9520 C   0  0  1  0  0  3  0  0  0  0  0  0
  193.4070  175.6280  145.0500 O   0  0  0  0  0  0  0  0  0  0  0  0
  192.2140  176.2420  144.6530 C   0  0  0  0  0  2  0  0  0  0  0  0
  191.2510  174.6000  146.2980 C   0  0  0  0  0  2  0  0  0  0  0  0
  191.1850  176.8070  147.5870 C   0  0  2  0  0  3  0  0  0  0  0  0
  189.8460  174.9990  142.8490 C   0  0  0  0  0  2  0  0  0  0  0  0
  189.3610  176.2950  143.4820 C   0  0  2  0  0  3  0  0  0  0  0  0
  189.9650  177.5840  147.1100 C   0  0  0  0  0  2  0  0  0  0  0  0
  190.8610  175.3200  147.5950 C   0  0  0  0  0  2  0  0  0  0  0  0
  190.9930  175.3660  144.9850 C   0  0  2  0  0  0  0  0  0  0  0  0
  189.8330  177.5890  145.5860 C   0  0  0  0  0  2  0  0  0  0  0  0
  190.8100  174.3680  143.8470 C   0  0  0  0  0  2  0  0  0  0  0  0
  189.6810  176.1870  144.9720 C   0  0  1  0  0  0  0  0  0  0  0  0
  191.4990  177.2090  148.8850 O   0  0  0  0  0  1  0  0  0  0  0  0
  188.6550  175.4870  145.6270 O   0  0  0  0  0  1  0  0  0  0  0  0
  187.9260  176.5870  143.1640 C   0  0  0  0  0  0  0  0  0  0  0  0
  187.3850  177.8970  143.3940 N   0  0  0  0  0  2  0  0  0  0  0  0
  187.2090  175.6760  142.6700 O   0  0  0  0  0  0  0  0  0  0  0  0
  186.0140  178.2960  143.0920 C   0  0  0  0  0  0  0  0  0  0  0  0
  185.7340  179.6960  143.6220 C   0  0  0  0  0  2  0  0  0  0  0  0
  184.5480  178.1250  145.0120 C   0  0  0  0  0  2  0  0  0  0  0  0
  185.0540  177.3630  143.8080 C   0  0  0  0  0  2  0  0  0  0  0  0
  184.5840  179.5780  144.6010 C   0  0  0  0  0  2  0  0  0  0  0  0
  185.7550  178.2300  141.5970 C   0  0  0  0  0  1  0  0  0  0  0  0
  194.7760  174.4010  143.4910 C   0  0  1  0  0  3  0  0  0  0  0  0
  197.8840  175.9720  142.7070 O   0  0  0  0  0  0  0  0  0  0  0  0
  195.8070  174.5320  142.4050 C   0  0  0  0  0  0  0  0  0  0  0  0
  195.6090  173.7980  141.1300 C   0  0  0  0  0  1  0  0  0  0  0  0
  196.8740  175.2720  142.5590 C   0  0  0  0  0  0  0  0  0  0  0  0
  195.4030  173.4270  144.8620 S   0  0  0  0  0  0  0  0  0  0  0  0
  194.2470  172.8630  145.6400 O   0  0  0  0  0  0  0  0  0  0  0  0
  196.2370  174.2940  145.7630 O   0  0  0  0  0  0  0  0  0  0  0  0
  196.3990  172.0810  144.2460 C   0  0  0  0  0  2  0  0  0  0  0  0
  196.6880  170.6580  146.1830 C   0  0  0  0  0  3  0  0  0  0  0  0
  196.5850  169.4290  147.0210 C   0  0  0  0  0  1  0  0  0  0  0  0
  196.1040  170.8260  144.9920 C   0  0  0  0  0  0  0  0  0  0  0  0
  195.2880  169.8300  144.3560 N   0  0  0  0  0  2  0  0  0  0  0  0
  193.4200  168.4540  145.0460 C   0  0  0  0  0  1  0  0  0  0  0  0
  193.8350  169.7660  144.4100 C   0  0  2  0  0  3  0  0  0  0  0  0
  191.8990  170.1480  143.0500 O   0  0  0  0  0  0  0  0  0  0  0  0
  193.2720  169.8390  143.0010 C   0  0  1  0  0  3  0  0  0  0  0  0
  192.7700  171.2030  142.7290 C   0  0  1  0  0  3  0  0  0  0  0  0
  192.7470  171.4480  141.2320 C   0  0  0  0  0  2  0  0  0  0  0  0
  191.4500  172.1400  140.8340 C   0  0  2  0  0  3  0  0  0  0  0  0
  190.6500  171.2660  140.0910 O   0  0  0  0  0  1  0  0  0  0  0  0
  192.3430  174.3490  140.8350 F   0  0  0  0  0  0  0  0  0  0  0  0
  192.5500  173.1230  138.9510 F   0  0  0  0  0  0  0  0  0  0  0  0
  191.7280  173.4070  140.0290 C   0  0  0  0  0  0  0  0  0  0  0  0
  190.5350  173.9300  139.5660 F   0  0  0  0  0  0  0  0  0  0  0  0
  2  1  1  6  0  0  0
  2  3  1  0  0  0  0
  4  3  1  0  0  0  0
  5 10  1  0  0  0  0
  6 10  1  0  0  0  0
  6 15  1  1  0  0  0
  7  8  1  0  0  0  0
  7 13  1  0  0  0  0
  8 17  1  1  0  0  0
  8 14  1  0  0  0  0
  9  6  1  0  0  0  0
 11  4  1  6  0  0  0
 11  5  1  0  0  0  0
 12  9  1  0  0  0  0
 13 11  1  0  0  0  0
 14 11  1  0  0  0  0
 14 12  1  0  0  0  0
 14 16  1  1  0  0  0
 17 18  1  0  0  0  0
 19 17  2  0  0  0  0
 20 18  1  0  0  0  0
 20 21  1  0  0  0  0
 20 23  1  0  0  0  0
 21 24  1  0  0  0  0
 23 22  1  0  0  0  0
 24 22  1  0  0  0  0
 25 20  1  0  0  0  0
 26 28  1  6  0  0  0
 26  2  1  0  0  0  0
 26 31  1  0  0  0  0
 28 30  2  0  0  0  0
 29 28  1  0  0  0  0
 30 27  2  0  0  0  0
 31 32  2  0  0  0  0
 31 33  2  0  0  0  0
 34 31  1  0  0  0  0
 34 37  1  0  0  0  0
 35 36  1  0  0  0  0
 37 35  2  0  0  0  0
 38 40  1  0  0  0  0
 38 37  1  0  0  0  0
 40 39  1  6  0  0  0
 42 41  1  0  0  0  0
 42 40  1  1  0  0  0
 43 44  1  6  0  0  0
 43 42  1  0  0  0  0
 43 41  1  0  0  0  0
 45 46  1  6  0  0  0
 45 44  1  0  0  0  0
 48 49  1  0  0  0  0
 49 45  1  0  0  0  0
 49 47  1  0  0  0  0
 50 49  1  0  0  0  0
M  END
>  <MODEL>
1

>  <REMARK>
 VINA RESULT:      -6.6      0.000      0.000
  Name = 
  16 active torsions:
  status: ('A' for Active; 'I' for Inactive)
    1  A    between atoms: C_2  and  C_8
    2  A    between atoms: S_7  and  C_17
    3  A    between atoms: S_7  and  C_48
    4  A    between atoms: N_9  and  C_12
    5  A    between atoms: C_10  and  C_20
    6  A    between atoms: C_10  and  O_23
    7  A    between atoms: C_14  and  C_38
    8  A    between atoms: C_15  and  C_17
    9  A    between atoms: C_15  and  O_23
   10  A    between atoms: C_17  and  C_34
   11  A    between atoms: C_18  and  C_29
   12  A    between atoms: C_18  and  C_44
   13  A    between atoms: C_29  and  C_45
   14  A    between atoms: C_38  and  N_40
   15  A    between atoms: N_40  and  C_42
   16  A    between atoms: C_42  and  C_48
                            x       y       z     vdW  Elec       q    Type
                         _______ _______ _______ _____ _____    ______ ____

>  <TORSDO>
F 16

$$$$
=
 OpenBabel11062419153D

 50 53  0  0  1  0  0  0  0  0999 V2000
  193.1300  175.9430  146.5990 O   0  0  0  0  0  1  0  0  0  0  0  0
  192.5800  176.4700  145.4280 C   0  0  1  0  0  3  0  0  0  0  0  0
  193.4790  176.2780  144.3770 O   0  0  0  0  0  0  0  0  0  0  0  0
  193.9520  174.9730  144.5530 C   0  0  0  0  0  2  0  0  0  0  0  0
  196.0990  174.3540  145.7120 C   0  0  0  0  0  2  0  0  0  0  0  0
  195.0270  172.0810  145.2410 C   0  0  2  0  0  3  0  0  0  0  0  0
  196.0520  176.5350  142.6670 C   0  0  0  0  0  2  0  0  0  0  0  0
  195.7180  175.1920  142.0340 C   0  0  2  0  0  3  0  0  0  0  0  0
  195.3010  171.7350  143.7840 C   0  0  0  0  0  2  0  0  0  0  0  0
  196.2230  172.8290  145.8130 C   0  0  0  0  0  2  0  0  0  0  0  0
  195.4840  174.9070  144.4110 C   0  0  2  0  0  0  0  0  0  0  0  0
  195.0350  172.9110  142.8420 C   0  0  0  0  0  2  0  0  0  0  0  0
  195.9920  176.3250  144.1760 C   0  0  0  0  0  2  0  0  0  0  0  0
  195.9060  174.1460  143.1310 C   0  0  1  0  0  0  0  0  0  0  0  0
  194.8440  170.9010  145.9610 O   0  0  0  0  0  1  0  0  0  0  0  0
  197.2570  173.7720  143.2030 O   0  0  0  0  0  1  0  0  0  0  0  0
  196.4980  174.9390  140.7800 C   0  0  0  0  0  0  0  0  0  0  0  0
  195.8980  174.2350  139.6830 N   0  0  0  0  0  2  0  0  0  0  0  0
  197.6780  175.3720  140.6940 O   0  0  0  0  0  0  0  0  0  0  0  0
  196.5560  173.9620  138.4080 C   0  0  0  0  0  0  0  0  0  0  0  0
  197.0370  175.2570  137.7660 C   0  0  0  0  0  2  0  0  0  0  0  0
  195.1450  174.4580  136.5040 C   0  0  0  0  0  2  0  0  0  0  0  0
  195.5510  173.3500  137.4500 C   0  0  0  0  0  2  0  0  0  0  0  0
  196.3510  175.3640  136.4200 C   0  0  0  0  0  2  0  0  0  0  0  0
  197.7150  172.9990  138.6010 C   0  0  0  0  0  1  0  0  0  0  0  0
  191.2410  175.7850  145.1240 C   0  0  1  0  0  3  0  0  0  0  0  0
  189.0330  174.1320  147.3900 O   0  0  0  0  0  0  0  0  0  0  0  0
  190.2260  176.0410  146.2040 C   0  0  0  0  0  0  0  0  0  0  0  0
  189.9210  177.4420  146.5890 C   0  0  0  0  0  1  0  0  0  0  0  0
  189.6120  175.0620  146.8130 C   0  0  0  0  0  0  0  0  0  0  0  0
  190.6010  176.2520  143.5130 S   0  0  0  0  0  0  0  0  0  0  0  0
  191.4160  175.5840  142.4420 O   0  0  0  0  0  0  0  0  0  0  0  0
  190.6810  177.7430  143.3460 O   0  0  0  0  0  0  0  0  0  0  0  0
  188.9020  175.7290  143.3600 C   0  0  0  0  0  2  0  0  0  0  0  0
  188.7180  174.5560  141.2500 C   0  0  0  0  0  3  0  0  0  0  0  0
  188.4650  174.3680  139.7920 C   0  0  0  0  0  1  0  0  0  0  0  0
  188.4930  175.6870  141.9280 C   0  0  0  0  0  0  0  0  0  0  0  0
  187.9700  176.8840  141.3320 N   0  0  0  0  0  2  0  0  0  0  0  0
  186.1940  177.5810  139.8430 C   0  0  0  0  0  1  0  0  0  0  0  0
  186.5630  177.2560  141.2760 C   0  0  2  0  0  3  0  0  0  0  0  0
  184.9480  178.7420  142.2380 O   0  0  0  0  0  0  0  0  0  0  0  0
  186.3290  178.4810  142.1440 C   0  0  1  0  0  3  0  0  0  0  0  0
  185.5460  178.1080  143.3420 C   0  0  1  0  0  3  0  0  0  0  0  0
  185.7890  179.1200  144.4440 C   0  0  0  0  0  2  0  0  0  0  0  0
  185.9820  178.4100  145.7770 C   0  0  2  0  0  3  0  0  0  0  0  0
  186.5580  177.1520  145.5680 O   0  0  0  0  0  1  0  0  0  0  0  0
  183.6640  178.9560  145.8490 F   0  0  0  0  0  0  0  0  0  0  0  0
  184.3000  176.9270  146.6070 F   0  0  0  0  0  0  0  0  0  0  0  0
  184.6580  178.2620  146.5190 C   0  0  0  0  0  0  0  0  0  0  0  0
  184.7820  178.7840  147.7930 F   0  0  0  0  0  0  0  0  0  0  0  0
  2  1  1  1  0  0  0
  3  4  1  0  0  0  0
  3  2  1  0  0  0  0
  5 10  1  0  0  0  0
  6 10  1  0  0  0  0
  6 15  1  1  0  0  0
  7 13  1  0  0  0  0
  8 17  1  6  0  0  0
  8  7  1  0  0  0  0
  8 14  1  0  0  0  0
  9  6  1  0  0  0  0
 11  4  1  1  0  0  0
 11  5  1  0  0  0  0
 12 14  1  0  0  0  0
 12  9  1  0  0  0  0
 13 11  1  0  0  0  0
 14 16  1  1  0  0  0
 14 11  1  0  0  0  0
 18 17  1  0  0  0  0
 19 17  2  0  0  0  0
 20 25  1  0  0  0  0
 20 18  1  0  0  0  0
 21 20  1  0  0  0  0
 22 23  1  0  0  0  0
 23 20  1  0  0  0  0
 24 22  1  0  0  0  0
 24 21  1  0  0  0  0
 26  2  1  0  0  0  0
 26 28  1  1  0  0  0
 28 29  1  0  0  0  0
 28 30  2  0  0  0  0
 30 27  2  0  0  0  0
 31 26  1  0  0  0  0
 32 31  2  0  0  0  0
 33 31  2  0  0  0  0
 34 31  1  0  0  0  0
 35 37  2  0  0  0  0
 36 35  1  0  0  0  0
 37 34  1  0  0  0  0
 38 37  1  0  0  0  0
 40 39  1  6  0  0  0
 40 38  1  0  0  0  0
 41 43  1  0  0  0  0
 42 40  1  6  0  0  0
 42 41  1  0  0  0  0
 42 43  1  0  0  0  0
 43 44  1  1  0  0  0
 44 45  1  0  0  0  0
 45 46  1  6  0  0  0
 45 49  1  0  0  0  0
 47 49  1  0  0  0  0
 49 48  1  0  0  0  0
 49 50  1  0  0  0  0
M  END
>  <MODEL>
2

>  <REMARK>
 VINA RESULT:      -6.6      3.579      9.323
  Name = 
  16 active torsions:
  status: ('A' for Active; 'I' for Inactive)
    1  A    between atoms: C_2  and  C_8
    2  A    between atoms: S_7  and  C_17
    3  A    between atoms: S_7  and  C_48
    4  A    between atoms: N_9  and  C_12
    5  A    between atoms: C_10  and  C_20
    6  A    between atoms: C_10  and  O_23
    7  A    between atoms: C_14  and  C_38
    8  A    between atoms: C_15  and  C_17
    9  A    between atoms: C_15  and  O_23
   10  A    between atoms: C_17  and  C_34
   11  A    between atoms: C_18  and  C_29
   12  A    between atoms: C_18  and  C_44
   13  A    between atoms: C_29  and  C_45
   14  A    between atoms: C_38  and  N_40
   15  A    between atoms: N_40  and  C_42
   16  A    between atoms: C_42  and  C_48
                            x       y       z     vdW  Elec       q    Type
                         _______ _______ _______ _____ _____    ______ ____

>  <TORSDO>
F 16

$$$$
=
 OpenBabel11062419153D

 50 53  0  0  1  0  0  0  0  0999 V2000
  193.0090  176.0750  146.8350 O   0  0  0  0  0  1  0  0  0  0  0  0
  192.6620  176.7600  145.6680 C   0  0  1  0  0  3  0  0  0  0  0  0
  193.6370  176.5270  144.6960 O   0  0  0  0  0  0  0  0  0  0  0  0
  193.8580  175.1460  144.7450 C   0  0  0  0  0  2  0  0  0  0  0  0
  196.1280  174.0580  144.7230 C   0  0  0  0  0  2  0  0  0  0  0  0
  194.5520  172.0860  145.1280 C   0  0  2  0  0  3  0  0  0  0  0  0
  194.9310  176.1940  141.8890 C   0  0  0  0  0  2  0  0  0  0  0  0
  194.0650  174.9620  141.6730 C   0  0  2  0  0  3  0  0  0  0  0  0
  193.9580  171.6880  143.7830 C   0  0  0  0  0  2  0  0  0  0  0  0
  195.9890  172.5450  144.9250 C   0  0  0  0  0  2  0  0  0  0  0  0
  195.0480  174.7370  143.8570 C   0  0  2  0  0  0  0  0  0  0  0  0
  193.4750  172.8930  142.9750 C   0  0  0  0  0  2  0  0  0  0  0  0
  195.6230  176.0030  143.2330 C   0  0  0  0  0  2  0  0  0  0  0  0
  194.5890  173.9000  142.6380 C   0  0  1  0  0  0  0  0  0  0  0  0
  194.5450  170.9780  145.9740 O   0  0  0  0  0  1  0  0  0  0  0  0
  195.6790  173.2310  142.0610 O   0  0  0  0  0  1  0  0  0  0  0  0
  194.0160  174.5390  140.2360 C   0  0  0  0  0  0  0  0  0  0  0  0
  192.9220  173.7460  139.7510 N   0  0  0  0  0  2  0  0  0  0  0  0
  194.9340  174.9100  139.4560 O   0  0  0  0  0  0  0  0  0  0  0  0
  192.7610  173.3070  138.3680 C   0  0  0  0  0  0  0  0  0  0  0  0
  192.6960  174.5050  137.4300 C   0  0  0  0  0  2  0  0  0  0  0  0
  190.4880  173.5500  137.5710 C   0  0  0  0  0  2  0  0  0  0  0  0
  191.4390  172.5760  138.2290 C   0  0  0  0  0  2  0  0  0  0  0  0
  191.3620  174.4360  136.7150 C   0  0  0  0  0  2  0  0  0  0  0  0
  193.8930  172.3760  137.9680 C   0  0  0  0  0  1  0  0  0  0  0  0
  191.2860  176.2910  145.1740 C   0  0  1  0  0  3  0  0  0  0  0  0
  189.1400  174.0870  146.9860 O   0  0  0  0  0  0  0  0  0  0  0  0
  190.2770  176.2540  146.2880 C   0  0  0  0  0  0  0  0  0  0  0  0
  189.9440  177.5140  147.0000 C   0  0  0  0  0  1  0  0  0  0  0  0
  189.6920  175.1420  146.6460 C   0  0  0  0  0  0  0  0  0  0  0  0
  190.6950  177.2810  143.7990 S   0  0  0  0  0  0  0  0  0  0  0  0
  191.2350  176.7200  142.5140 O   0  0  0  0  0  0  0  0  0  0  0  0
  191.1590  178.7020  143.9580 O   0  0  0  0  0  0  0  0  0  0  0  0
  188.9110  177.2420  143.7450 C   0  0  0  0  0  2  0  0  0  0  0  0
  188.5200  174.9880  142.9550 C   0  0  0  0  0  3  0  0  0  0  0  0
  188.1860  173.9010  141.9890 C   0  0  0  0  0  1  0  0  0  0  0  0
  188.4390  176.2970  142.6950 C   0  0  0  0  0  0  0  0  0  0  0  0
  188.0130  176.8360  141.4340 N   0  0  0  0  0  2  0  0  0  0  0  0
  186.5910  177.3700  139.5490 C   0  0  0  0  0  1  0  0  0  0  0  0
  186.6300  177.0520  141.0310 C   0  0  2  0  0  3  0  0  0  0  0  0
  184.6630  178.2960  141.6010 O   0  0  0  0  0  0  0  0  0  0  0  0
  186.0530  178.2230  141.8090 C   0  0  1  0  0  3  0  0  0  0  0  0
  185.0890  177.7320  142.8170 C   0  0  1  0  0  3  0  0  0  0  0  0
  184.9510  178.7520  143.9300 C   0  0  0  0  0  2  0  0  0  0  0  0
  185.4820  178.1790  145.2370 C   0  0  2  0  0  3  0  0  0  0  0  0
  185.8010  176.8270  145.0710 O   0  0  0  0  0  1  0  0  0  0  0  0
  184.0170  177.0990  146.7750 F   0  0  0  0  0  0  0  0  0  0  0  0
  185.0390  179.0000  147.4380 F   0  0  0  0  0  0  0  0  0  0  0  0
  184.4660  178.3430  146.3620 C   0  0  0  0  0  0  0  0  0  0  0  0
  183.3850  179.0740  145.9060 F   0  0  0  0  0  0  0  0  0  0  0  0
  2  1  1  1  0  0  0
  3  4  1  0  0  0  0
  3  2  1  0  0  0  0
  5 10  1  0  0  0  0
  6 15  1  1  0  0  0
  7 13  1  0  0  0  0
  8 17  1  6  0  0  0
  8  7  1  0  0  0  0
  8 14  1  0  0  0  0
  9  6  1  0  0  0  0
 10  6  1  0  0  0  0
 11  5  1  0  0  0  0
 11  4  1  1  0  0  0
 12  9  1  0  0  0  0
 13 11  1  0  0  0  0
 14 16  1  6  0  0  0
 14 12  1  0  0  0  0
 14 11  1  0  0  0  0
 18 17  1  0  0  0  0
 19 17  2  0  0  0  0
 20 18  1  0  0  0  0
 21 20  1  0  0  0  0
 22 23  1  0  0  0  0
 23 20  1  0  0  0  0
 24 21  1  0  0  0  0
 24 22  1  0  0  0  0
 25 20  1  0  0  0  0
 26  2  1  0  0  0  0
 26 28  1  1  0  0  0
 28 30  2  0  0  0  0
 28 29  1  0  0  0  0
 30 27  2  0  0  0  0
 31 33  2  0  0  0  0
 31 26  1  0  0  0  0
 32 31  2  0  0  0  0
 34 31  1  0  0  0  0
 36 35  1  0  0  0  0
 37 35  2  0  0  0  0
 37 34  1  0  0  0  0
 38 37  1  0  0  0  0
 40 39  1  6  0  0  0
 40 38  1  0  0  0  0
 41 42  1  0  0  0  0
 41 43  1  0  0  0  0
 42 40  1  6  0  0  0
 42 43  1  0  0  0  0
 43 44  1  1  0  0  0
 44 45  1  0  0  0  0
 45 46  1  6  0  0  0
 45 49  1  0  0  0  0
 49 47  1  0  0  0  0
 49 48  1  0  0  0  0
 50 49  1  0  0  0  0
M  END
>  <MODEL>
3

>  <REMARK>
 VINA RESULT:      -6.4      3.626      8.596
  Name = 
  16 active torsions:
  status: ('A' for Active; 'I' for Inactive)
    1  A    between atoms: C_2  and  C_8
    2  A    between atoms: S_7  and  C_17
    3  A    between atoms: S_7  and  C_48
    4  A    between atoms: N_9  and  C_12
    5  A    between atoms: C_10  and  C_20
    6  A    between atoms: C_10  and  O_23
    7  A    between atoms: C_14  and  C_38
    8  A    between atoms: C_15  and  C_17
    9  A    between atoms: C_15  and  O_23
   10  A    between atoms: C_17  and  C_34
   11  A    between atoms: C_18  and  C_29
   12  A    between atoms: C_18  and  C_44
   13  A    between atoms: C_29  and  C_45
   14  A    between atoms: C_38  and  N_40
   15  A    between atoms: N_40  and  C_42
   16  A    between atoms: C_42  and  C_48
                            x       y       z     vdW  Elec       q    Type
                         _______ _______ _______ _____ _____    ______ ____

>  <TORSDO>
F 16

$$$$
=
 OpenBabel11062419153D

 50 53  0  0  1  0  0  0  0  0999 V2000
  194.8550  177.4280  145.5350 O   0  0  0  0  0  1  0  0  0  0  0  0
  194.5280  176.0820  145.3550 C   0  0  1  0  0  3  0  0  0  0  0  0
  193.5190  175.9850  144.3950 O   0  0  0  0  0  0  0  0  0  0  0  0
  192.4090  176.5990  144.9860 C   0  0  0  0  0  2  0  0  0  0  0  0
  191.5980  174.8200  146.5700 C   0  0  0  0  0  2  0  0  0  0  0  0
  191.2510  176.9740  147.9030 C   0  0  2  0  0  3  0  0  0  0  0  0
  190.2430  175.1420  143.0930 C   0  0  0  0  0  2  0  0  0  0  0  0
  189.5990  176.3590  143.7400 C   0  0  2  0  0  3  0  0  0  0  0  0
  189.9630  177.6200  147.4080 C   0  0  0  0  0  2  0  0  0  0  0  0
  191.0970  175.4610  147.8700 C   0  0  0  0  0  2  0  0  0  0  0  0
  191.2870  175.5830  145.2670 C   0  0  2  0  0  0  0  0  0  0  0  0
  189.8690  177.6470  145.8820 C   0  0  0  0  0  2  0  0  0  0  0  0
  191.2470  174.5990  144.1030 C   0  0  0  0  0  2  0  0  0  0  0  0
  189.8910  176.2510  145.2350 C   0  0  1  0  0  0  0  0  0  0  0  0
  191.4860  177.3780  149.2170 O   0  0  0  0  0  1  0  0  0  0  0  0
  188.9360  175.4250  145.8460 O   0  0  0  0  0  1  0  0  0  0  0  0
  188.1480  176.4960  143.3880 C   0  0  0  0  0  0  0  0  0  0  0  0
  187.4750  177.7510  143.5650 N   0  0  0  0  0  2  0  0  0  0  0  0
  187.5360  175.5020  142.9150 O   0  0  0  0  0  0  0  0  0  0  0  0
  186.0770  178.0010  143.2280 C   0  0  0  0  0  0  0  0  0  0  0  0
  185.7180  179.4600  143.4760 C   0  0  0  0  0  2  0  0  0  0  0  0
  184.6540  178.1320  145.1830 C   0  0  0  0  0  2  0  0  0  0  0  0
  185.1890  177.1760  144.1400 C   0  0  0  0  0  2  0  0  0  0  0  0
  184.5930  179.4740  144.4900 C   0  0  0  0  0  2  0  0  0  0  0  0
  185.8000  177.6220  141.7830 C   0  0  0  0  0  1  0  0  0  0  0  0
  195.7700  175.2960  144.9140 C   0  0  1  0  0  3  0  0  0  0  0  0
  193.7600  172.3890  145.4140 O   0  0  0  0  0  0  0  0  0  0  0  0
  195.7940  173.9150  145.5070 C   0  0  0  0  0  0  0  0  0  0  0  0
  197.0390  173.4300  146.1560 C   0  0  0  0  0  1  0  0  0  0  0  0
  194.7500  173.1300  145.4610 C   0  0  0  0  0  0  0  0  0  0  0  0
  195.9220  175.2330  143.1270 S   0  0  0  0  0  0  0  0  0  0  0  0
  197.1330  174.4210  142.7590 O   0  0  0  0  0  0  0  0  0  0  0  0
  196.0690  176.6250  142.5800 O   0  0  0  0  0  0  0  0  0  0  0  0
  194.4740  174.4670  142.4200 C   0  0  0  0  0  2  0  0  0  0  0  0
  194.8520  172.1140  141.9960 C   0  0  0  0  0  3  0  0  0  0  0  0
  195.3010  170.8980  141.2580 C   0  0  0  0  0  1  0  0  0  0  0  0
  194.8610  173.3580  141.5050 C   0  0  0  0  0  0  0  0  0  0  0  0
  195.3090  173.6890  140.1810 N   0  0  0  0  0  2  0  0  0  0  0  0
  195.2410  174.2740  137.8330 C   0  0  0  0  0  1  0  0  0  0  0  0
  194.5160  173.5740  138.9660 C   0  0  2  0  0  3  0  0  0  0  0  0
  192.3960  174.1420  138.0030 O   0  0  0  0  0  0  0  0  0  0  0  0
  193.1650  174.2350  139.1790 C   0  0  1  0  0  3  0  0  0  0  0  0
  192.0850  173.2350  139.0320 C   0  0  1  0  0  3  0  0  0  0  0  0
  190.8490  173.7070  139.7730 C   0  0  0  0  0  2  0  0  0  0  0  0
  189.9610  172.5200  140.1220 C   0  0  2  0  0  3  0  0  0  0  0  0
  190.0280  171.5590  139.1090 O   0  0  0  0  0  1  0  0  0  0  0  0
  188.4220  174.3360  140.2280 F   0  0  0  0  0  0  0  0  0  0  0  0
  187.6910  172.3730  139.3860 F   0  0  0  0  0  0  0  0  0  0  0  0
  188.5150  172.9590  140.3330 C   0  0  0  0  0  0  0  0  0  0  0  0
  188.0980  172.5810  141.5950 F   0  0  0  0  0  0  0  0  0  0  0  0
  2  1  1  6  0  0  0
  3  4  1  0  0  0  0
  3  2  1  0  0  0  0
  5 10  1  0  0  0  0
  6 15  1  1  0  0  0
  7  8  1  0  0  0  0
  7 13  1  0  0  0  0
  8 17  1  1  0  0  0
  8 14  1  0  0  0  0
  9  6  1  0  0  0  0
 10  6  1  0  0  0  0
 11  4  1  6  0  0  0
 11  5  1  0  0  0  0
 12  9  1  0  0  0  0
 13 11  1  0  0  0  0
 14 11  1  0  0  0  0
 14 16  1  1  0  0  0
 14 12  1  0  0  0  0
 17 18  1  0  0  0  0
 19 17  2  0  0  0  0
 20 21  1  0  0  0  0
 20 18  1  0  0  0  0
 20 23  1  0  0  0  0
 21 24  1  0  0  0  0
 23 22  1  0  0  0  0
 24 22  1  0  0  0  0
 25 20  1  0  0  0  0
 26  2  1  0  0  0  0
 26 28  1  6  0  0  0
 27 30  2  0  0  0  0
 28 29  1  0  0  0  0
 30 28  2  0  0  0  0
 31 26  1  0  0  0  0
 32 31  2  0  0  0  0
 33 31  2  0  0  0  0
 34 31  1  0  0  0  0
 36 35  1  0  0  0  0
 37 35  2  0  0  0  0
 37 34  1  0  0  0  0
 38 37  1  0  0  0  0
 40 39  1  6  0  0  0
 40 38  1  0  0  0  0
 41 43  1  0  0  0  0
 41 42  1  0  0  0  0
 42 40  1  6  0  0  0
 43 42  1  0  0  0  0
 43 44  1  1  0  0  0
 44 45  1  0  0  0  0
 45 46  1  6  0  0  0
 45 49  1  0  0  0  0
 47 49  1  0  0  0  0
 48 49  1  0  0  0  0
 49 50  1  0  0  0  0
M  END
>  <MODEL>
4

>  <REMARK>
 VINA RESULT:      -6.4      2.118      3.416
  Name = 
  16 active torsions:
  status: ('A' for Active; 'I' for Inactive)
    1  A    between atoms: C_2  and  C_8
    2  A    between atoms: S_7  and  C_17
    3  A    between atoms: S_7  and  C_48
    4  A    between atoms: N_9  and  C_12
    5  A    between atoms: C_10  and  C_20
    6  A    between atoms: C_10  and  O_23
    7  A    between atoms: C_14  and  C_38
    8  A    between atoms: C_15  and  C_17
    9  A    between atoms: C_15  and  O_23
   10  A    between atoms: C_17  and  C_34
   11  A    between atoms: C_18  and  C_29
   12  A    between atoms: C_18  and  C_44
   13  A    between atoms: C_29  and  C_45
   14  A    between atoms: C_38  and  N_40
   15  A    between atoms: N_40  and  C_42
   16  A    between atoms: C_42  and  C_48
                            x       y       z     vdW  Elec       q    Type
                         _______ _______ _______ _____ _____    ______ ____

>  <TORSDO>
F 16

$$$$
=
 OpenBabel11062419153D

 50 53  0  0  1  0  0  0  0  0999 V2000
  194.4900  171.3980  146.0660 O   0  0  0  0  0  1  0  0  0  0  0  0
  193.9840  172.4590  145.3110 C   0  0  1  0  0  3  0  0  0  0  0  0
  193.6830  173.5210  146.1660 O   0  0  0  0  0  0  0  0  0  0  0  0
  192.4240  173.9650  145.7470 C   0  0  0  0  0  2  0  0  0  0  0  0
  193.4480  176.2190  146.1980 C   0  0  0  0  0  2  0  0  0  0  0  0
  193.4520  176.0900  143.6450 C   0  0  2  0  0  3  0  0  0  0  0  0
  190.1160  175.2430  147.6020 C   0  0  0  0  0  2  0  0  0  0  0  0
  189.7400  175.4320  146.1400 C   0  0  2  0  0  3  0  0  0  0  0  0
  192.0470  176.4310  143.1640 C   0  0  0  0  0  2  0  0  0  0  0  0
  193.7760  176.9230  144.8760 C   0  0  0  0  0  2  0  0  0  0  0  0
  192.1430  175.3990  146.2320 C   0  0  2  0  0  0  0  0  0  0  0  0
  190.9620  175.7040  143.9600 C   0  0  0  0  0  2  0  0  0  0  0  0
  191.6370  175.3150  147.6670 C   0  0  0  0  0  2  0  0  0  0  0  0
  190.9650  176.0420  145.4610 C   0  0  1  0  0  0  0  0  0  0  0  0
  194.3640  176.3970  142.6360 O   0  0  0  0  0  1  0  0  0  0  0  0
  190.9610  177.4340  145.6380 O   0  0  0  0  0  1  0  0  0  0  0  0
  188.4710  176.2110  145.9700 C   0  0  0  0  0  0  0  0  0  0  0  0
  187.8140  176.2560  144.6940 N   0  0  0  0  0  2  0  0  0  0  0  0
  187.9770  176.8040  146.9660 O   0  0  0  0  0  0  0  0  0  0  0  0
  186.5620  176.9570  144.4270 C   0  0  0  0  0  0  0  0  0  0  0  0
  185.9260  176.4470  143.1400 C   0  0  0  0  0  2  0  0  0  0  0  0
  186.7900  178.6570  142.7180 C   0  0  0  0  0  2  0  0  0  0  0  0
  186.8520  178.4300  144.2120 C   0  0  0  0  0  2  0  0  0  0  0  0
  185.8040  177.6330  142.2060 C   0  0  0  0  0  2  0  0  0  0  0  0
  185.6020  176.8000  145.5940 C   0  0  0  0  0  1  0  0  0  0  0  0
  195.0130  172.8900  144.2570 C   0  0  1  0  0  3  0  0  0  0  0  0
  197.5700  170.4010  144.3460 O   0  0  0  0  0  0  0  0  0  0  0  0
  196.4210  172.6410  144.7190 C   0  0  0  0  0  0  0  0  0  0  0  0
  197.1600  173.7330  145.4030 C   0  0  0  0  0  1  0  0  0  0  0  0
  197.0120  171.4910  144.5290 C   0  0  0  0  0  0  0  0  0  0  0  0
  194.7080  172.1140  142.6680 S   0  0  0  0  0  0  0  0  0  0  0  0
  194.5490  170.6310  142.8610 O   0  0  0  0  0  0  0  0  0  0  0  0
  195.8640  172.3760  141.7430 O   0  0  0  0  0  0  0  0  0  0  0  0
  193.2120  172.7690  141.9480 C   0  0  0  0  0  2  0  0  0  0  0  0
  192.1760  171.0470  140.5980 C   0  0  0  0  0  3  0  0  0  0  0  0
  191.1740  170.0130  140.2090 C   0  0  0  0  0  1  0  0  0  0  0  0
  192.2000  171.6910  141.7700 C   0  0  0  0  0  0  0  0  0  0  0  0
  191.2520  171.4640  142.8240 N   0  0  0  0  0  2  0  0  0  0  0  0
  189.7080  172.0020  144.6090 C   0  0  0  0  0  1  0  0  0  0  0  0
  190.1990  172.3850  143.2270 C   0  0  2  0  0  3  0  0  0  0  0  0
  188.1830  173.3960  142.4160 O   0  0  0  0  0  0  0  0  0  0  0  0
  189.0440  172.2950  142.2440 C   0  0  1  0  0  3  0  0  0  0  0  0
  189.0720  173.4550  141.3270 C   0  0  1  0  0  3  0  0  0  0  0  0
  188.3350  173.1110  140.0470 C   0  0  0  0  0  2  0  0  0  0  0  0
  188.8840  173.9320  138.8880 C   0  0  2  0  0  3  0  0  0  0  0  0
  187.8340  174.5430  138.1950 O   0  0  0  0  0  1  0  0  0  0  0  0
  191.0510  173.1960  138.2250 F   0  0  0  0  0  0  0  0  0  0  0  0
  189.3390  171.7330  138.0660 F   0  0  0  0  0  0  0  0  0  0  0  0
  189.7030  173.0630  137.9380 C   0  0  0  0  0  0  0  0  0  0  0  0
  189.4840  173.4710  136.6350 F   0  0  0  0  0  0  0  0  0  0  0  0
  2  1  1  1  0  0  0
  2  3  1  0  0  0  0
  4  3  1  0  0  0  0
  5 11  1  0  0  0  0
  6 15  1  6  0  0  0
  6 10  1  0  0  0  0
  7 13  1  0  0  0  0
  8 17  1  1  0  0  0
  8  7  1  0  0  0  0
  9  6  1  0  0  0  0
  9 12  1  0  0  0  0
 10  5  1  0  0  0  0
 11  4  1  6  0  0  0
 11 13  1  0  0  0  0
 12 14  1  0  0  0  0
 14 16  1  1  0  0  0
 14  8  1  0  0  0  0
 14 11  1  0  0  0  0
 17 19  2  0  0  0  0
 18 17  1  0  0  0  0
 20 18  1  0  0  0  0
 20 25  1  0  0  0  0
 21 20  1  0  0  0  0
 22 23  1  0  0  0  0
 23 20  1  0  0  0  0
 24 22  1  0  0  0  0
 24 21  1  0  0  0  0
 26 28  1  1  0  0  0
 26  2  1  0  0  0  0
 27 30  2  0  0  0  0
 28 29  1  0  0  0  0
 30 28  2  0  0  0  0
 31 32  2  0  0  0  0
 31 26  1  0  0  0  0
 33 31  2  0  0  0  0
 34 31  1  0  0  0  0
 35 37  2  0  0  0  0
 36 35  1  0  0  0  0
 37 34  1  0  0  0  0
 37 38  1  0  0  0  0
 38 40  1  0  0  0  0
 40 39  1  1  0  0  0
 42 41  1  0  0  0  0
 42 40  1  1  0  0  0
 43 44  1  6  0  0  0
 43 42  1  0  0  0  0
 43 41  1  0  0  0  0
 45 46  1  6  0  0  0
 45 44  1  0  0  0  0
 49 48  1  0  0  0  0
 49 47  1  0  0  0  0
 49 45  1  0  0  0  0
 50 49  1  0  0  0  0
M  END
>  <MODEL>
5

>  <REMARK>
 VINA RESULT:      -6.3      2.256      4.177
  Name = 
  16 active torsions:
  status: ('A' for Active; 'I' for Inactive)
    1  A    between atoms: C_2  and  C_8
    2  A    between atoms: S_7  and  C_17
    3  A    between atoms: S_7  and  C_48
    4  A    between atoms: N_9  and  C_12
    5  A    between atoms: C_10  and  C_20
    6  A    between atoms: C_10  and  O_23
    7  A    between atoms: C_14  and  C_38
    8  A    between atoms: C_15  and  C_17
    9  A    between atoms: C_15  and  O_23
   10  A    between atoms: C_17  and  C_34
   11  A    between atoms: C_18  and  C_29
   12  A    between atoms: C_18  and  C_44
   13  A    between atoms: C_29  and  C_45
   14  A    between atoms: C_38  and  N_40
   15  A    between atoms: N_40  and  C_42
   16  A    between atoms: C_42  and  C_48
                            x       y       z     vdW  Elec       q    Type
                         _______ _______ _______ _____ _____    ______ ____

>  <TORSDO>
F 16

$$$$
=
 OpenBabel11062419153D

 50 53  0  0  1  0  0  0  0  0999 V2000
  192.5490  171.3980  144.4080 O   0  0  0  0  0  1  0  0  0  0  0  0
  192.7180  172.7780  144.2770 C   0  0  1  0  0  3  0  0  0  0  0  0
  192.4290  173.3900  145.4980 O   0  0  0  0  0  0  0  0  0  0  0  0
  191.2460  174.1000  145.2660 C   0  0  0  0  0  2  0  0  0  0  0  0
  192.6540  176.0640  145.9670 C   0  0  0  0  0  2  0  0  0  0  0  0
  192.4140  176.4050  143.4450 C   0  0  2  0  0  3  0  0  0  0  0  0
  189.3450  175.3330  147.5610 C   0  0  0  0  0  2  0  0  0  0  0  0
  188.8780  175.8370  146.2040 C   0  0  2  0  0  3  0  0  0  0  0  0
  191.0450  177.0240  143.1920 C   0  0  0  0  0  2  0  0  0  0  0  0
  192.9740  176.9440  144.7530 C   0  0  0  0  0  2  0  0  0  0  0  0
  191.2430  175.4460  146.0130 C   0  0  2  0  0  0  0  0  0  0  0  0
  189.9320  176.3260  143.9750 C   0  0  0  0  0  2  0  0  0  0  0  0
  190.8580  175.1740  147.4620 C   0  0  0  0  0  2  0  0  0  0  0  0
  190.1200  176.3800  145.5000 C   0  0  1  0  0  0  0  0  0  0  0  0
  193.2720  176.7580  142.4040 O   0  0  0  0  0  1  0  0  0  0  0  0
  190.3550  177.7020  145.9070 O   0  0  0  0  0  1  0  0  0  0  0  0
  187.7390  176.8070  146.3130 C   0  0  0  0  0  0  0  0  0  0  0  0
  186.6760  176.7860  145.3490 N   0  0  0  0  0  2  0  0  0  0  0  0
  187.7180  177.6220  147.2740 O   0  0  0  0  0  0  0  0  0  0  0  0
  185.5090  177.6630  145.3790 C   0  0  0  0  0  0  0  0  0  0  0  0
  184.7730  177.6200  144.0460 C   0  0  0  0  0  2  0  0  0  0  0  0
  185.8820  179.7530  144.2150 C   0  0  0  0  0  2  0  0  0  0  0  0
  185.9670  179.0960  145.5750 C   0  0  0  0  0  2  0  0  0  0  0  0
  184.7620  179.0330  143.5010 C   0  0  0  0  0  2  0  0  0  0  0  0
  184.5780  177.2750  146.5150 C   0  0  0  0  0  1  0  0  0  0  0  0
  194.1570  173.0910  143.8440 C   0  0  1  0  0  3  0  0  0  0  0  0
  195.4640  170.2790  145.6130 O   0  0  0  0  0  0  0  0  0  0  0  0
  195.1530  172.7030  144.9010 C   0  0  0  0  0  0  0  0  0  0  0  0
  195.9780  173.7610  145.5380 C   0  0  0  0  0  1  0  0  0  0  0  0
  195.3130  171.4590  145.2690 C   0  0  0  0  0  0  0  0  0  0  0  0
  194.5610  172.3340  142.2670 S   0  0  0  0  0  0  0  0  0  0  0  0
  194.1970  170.8760  142.3080 O   0  0  0  0  0  0  0  0  0  0  0  0
  196.0330  172.4740  141.9980 O   0  0  0  0  0  0  0  0  0  0  0  0
  193.6410  173.1260  140.9600 C   0  0  0  0  0  2  0  0  0  0  0  0
  194.0240  171.6590  139.0720 C   0  0  0  0  0  3  0  0  0  0  0  0
  193.6890  170.7250  137.9580 C   0  0  0  0  0  1  0  0  0  0  0  0
  193.1530  172.1180  139.9780 C   0  0  0  0  0  0  0  0  0  0  0  0
  191.7620  171.7650  139.9970 N   0  0  0  0  0  2  0  0  0  0  0  0
  190.6850  170.3100  141.6040 C   0  0  0  0  0  1  0  0  0  0  0  0
  190.9090  171.7470  141.1770 C   0  0  2  0  0  3  0  0  0  0  0  0
  188.8540  172.6400  142.0280 O   0  0  0  0  0  0  0  0  0  0  0  0
  189.5700  172.3840  140.8430 C   0  0  1  0  0  3  0  0  0  0  0  0
  189.4970  173.7390  141.4310 C   0  0  1  0  0  3  0  0  0  0  0  0
  188.4840  174.5710  140.6690 C   0  0  0  0  0  2  0  0  0  0  0  0
  187.9030  175.6490  141.5740 C   0  0  2  0  0  3  0  0  0  0  0  0
  186.9080  175.1030  142.3900 O   0  0  0  0  0  1  0  0  0  0  0  0
  188.1410  177.9200  140.8920 F   0  0  0  0  0  0  0  0  0  0  0  0
  187.2580  176.4570  139.4170 F   0  0  0  0  0  0  0  0  0  0  0  0
  187.3330  176.8040  140.7560 C   0  0  0  0  0  0  0  0  0  0  0  0
  186.0670  177.1150  141.2160 F   0  0  0  0  0  0  0  0  0  0  0  0
  2  1  1  1  0  0  0
  2  3  1  0  0  0  0
  4  3  1  0  0  0  0
  5 11  1  0  0  0  0
  6 15  1  6  0  0  0
  6 10  1  0  0  0  0
  8 17  1  1  0  0  0
  8  7  1  0  0  0  0
  9  6  1  0  0  0  0
  9 12  1  0  0  0  0
 10  5  1  0  0  0  0
 11  4  1  6  0  0  0
 11 13  1  0  0  0  0
 12 14  1  0  0  0  0
 13  7  1  0  0  0  0
 14 16  1  1  0  0  0
 14 11  1  0  0  0  0
 14  8  1  0  0  0  0
 17 19  2  0  0  0  0
 18 20  1  0  0  0  0
 18 17  1  0  0  0  0
 20 23  1  0  0  0  0
 20 25  1  0  0  0  0
 21 20  1  0  0  0  0
 22 23  1  0  0  0  0
 24 21  1  0  0  0  0
 24 22  1  0  0  0  0
 26  2  1  0  0  0  0
 26 28  1  1  0  0  0
 28 30  2  0  0  0  0
 28 29  1  0  0  0  0
 30 27  2  0  0  0  0
 31 32  2  0  0  0  0
 31 26  1  0  0  0  0
 33 31  2  0  0  0  0
 34 31  1  0  0  0  0
 35 37  2  0  0  0  0
 36 35  1  0  0  0  0
 37 38  1  0  0  0  0
 37 34  1  0  0  0  0
 38 40  1  0  0  0  0
 40 39  1  6  0  0  0
 42 40  1  1  0  0  0
 42 43  1  0  0  0  0
 42 41  1  0  0  0  0
 43 44  1  6  0  0  0
 43 41  1  0  0  0  0
 44 45  1  0  0  0  0
 45 46  1  6  0  0  0
 48 49  1  0  0  0  0
 49 47  1  0  0  0  0
 49 50  1  0  0  0  0
 49 45  1  0  0  0  0
M  END
>  <MODEL>
6

>  <REMARK>
 VINA RESULT:      -6.3      2.550      4.505
  Name = 
  16 active torsions:
  status: ('A' for Active; 'I' for Inactive)
    1  A    between atoms: C_2  and  C_8
    2  A    between atoms: S_7  and  C_17
    3  A    between atoms: S_7  and  C_48
    4  A    between atoms: N_9  and  C_12
    5  A    between atoms: C_10  and  C_20
    6  A    between atoms: C_10  and  O_23
    7  A    between atoms: C_14  and  C_38
    8  A    between atoms: C_15  and  C_17
    9  A    between atoms: C_15  and  O_23
   10  A    between atoms: C_17  and  C_34
   11  A    between atoms: C_18  and  C_29
   12  A    between atoms: C_18  and  C_44
   13  A    between atoms: C_29  and  C_45
   14  A    between atoms: C_38  and  N_40
   15  A    between atoms: N_40  and  C_42
   16  A    between atoms: C_42  and  C_48
                            x       y       z     vdW  Elec       q    Type
                         _______ _______ _______ _____ _____    ______ ____

>  <TORSDO>
F 16

$$$$
=
 OpenBabel11062419153D

 50 53  0  0  1  0  0  0  0  0999 V2000
  192.6290  174.4420  138.7550 O   0  0  0  0  0  1  0  0  0  0  0  0
  192.7880  173.8410  140.0060 C   0  0  1  0  0  3  0  0  0  0  0  0
  191.5990  173.1990  140.3570 O   0  0  0  0  0  0  0  0  0  0  0  0
  190.8470  174.1840  141.0070 C   0  0  0  0  0  2  0  0  0  0  0  0
  189.3450  172.1970  141.3700 C   0  0  0  0  0  2  0  0  0  0  0  0
  190.5850  172.3900  143.5970 C   0  0  2  0  0  3  0  0  0  0  0  0
  188.0030  175.5170  140.2700 C   0  0  0  0  0  2  0  0  0  0  0  0
  188.3420  175.8360  141.7180 C   0  0  2  0  0  3  0  0  0  0  0  0
  189.9130  173.4920  144.4050 C   0  0  0  0  0  2  0  0  0  0  0  0
  189.5320  171.6470  142.7890 C   0  0  0  0  0  2  0  0  0  0  0  0
  189.3900  173.7310  141.2180 C   0  0  2  0  0  0  0  0  0  0  0  0
  189.6430  174.7470  143.5740 C   0  0  0  0  0  2  0  0  0  0  0  0
  188.5910  174.1390  139.9850 C   0  0  0  0  0  2  0  0  0  0  0  0
  188.7120  174.5070  142.3730 C   0  0  1  0  0  0  0  0  0  0  0  0
  191.2000  171.4950  144.4720 O   0  0  0  0  0  1  0  0  0  0  0  0
  187.5480  173.8460  142.7940 O   0  0  0  0  0  1  0  0  0  0  0  0
  187.2500  176.5970  142.4080 C   0  0  0  0  0  0  0  0  0  0  0  0
  187.4720  177.1630  143.7090 N   0  0  0  0  0  2  0  0  0  0  0  0
  186.1460  176.7530  141.8220 O   0  0  0  0  0  0  0  0  0  0  0  0
  186.4910  177.9450  144.4550 C   0  0  0  0  0  0  0  0  0  0  0  0
  187.0640  178.3860  145.7960 C   0  0  0  0  0  2  0  0  0  0  0  0
  185.4240  176.6700  146.2150 C   0  0  0  0  0  2  0  0  0  0  0  0
  185.2890  177.0730  144.7640 C   0  0  0  0  0  2  0  0  0  0  0  0
  186.1650  177.8110  146.8710 C   0  0  0  0  0  2  0  0  0  0  0  0
  186.0410  179.1490  143.6450 C   0  0  0  0  0  1  0  0  0  0  0  0
  193.9480  172.8370  139.9600 C   0  0  1  0  0  3  0  0  0  0  0  0
  196.1170  175.6640  140.1700 O   0  0  0  0  0  0  0  0  0  0  0  0
  195.1840  173.4410  139.3550 C   0  0  0  0  0  0  0  0  0  0  0  0
  195.8790  172.7170  138.2600 C   0  0  0  0  0  1  0  0  0  0  0  0
  195.6640  174.5830  139.7720 C   0  0  0  0  0  0  0  0  0  0  0  0
  194.2960  172.1410  141.5780 S   0  0  0  0  0  0  0  0  0  0  0  0
  195.7230  171.6710  141.6210 O   0  0  0  0  0  0  0  0  0  0  0  0
  193.3790  170.9790  141.8390 O   0  0  0  0  0  0  0  0  0  0  0  0
  194.0550  173.3820  142.8370 C   0  0  0  0  0  2  0  0  0  0  0  0
  195.4730  172.6400  144.6540 C   0  0  0  0  0  3  0  0  0  0  0  0
  196.5870  172.6880  145.6440 C   0  0  0  0  0  1  0  0  0  0  0  0
  195.2800  173.5270  143.6710 C   0  0  0  0  0  0  0  0  0  0  0  0
  196.1350  174.6560  143.4370 N   0  0  0  0  0  2  0  0  0  0  0  0
  196.9830  176.9230  143.3900 C   0  0  0  0  0  1  0  0  0  0  0  0
  195.7670  176.0510  143.6350 C   0  0  2  0  0  3  0  0  0  0  0  0
  194.8310  177.5710  145.2340 O   0  0  0  0  0  0  0  0  0  0  0  0
  195.2900  176.2510  145.0640 C   0  0  1  0  0  3  0  0  0  0  0  0
  193.8480  176.5790  145.0720 C   0  0  1  0  0  3  0  0  0  0  0  0
  193.2520  176.2240  146.4200 C   0  0  0  0  0  2  0  0  0  0  0  0
  191.7340  176.1560  146.3220 C   0  0  2  0  0  3  0  0  0  0  0  0
  191.2710  177.1110  145.4110 O   0  0  0  0  0  1  0  0  0  0  0  0
  189.8400  176.9620  147.5240 F   0  0  0  0  0  0  0  0  0  0  0  0
  190.9360  175.1690  148.3480 F   0  0  0  0  0  0  0  0  0  0  0  0
  191.0840  176.3760  147.6850 C   0  0  0  0  0  0  0  0  0  0  0  0
  191.8760  177.2170  148.4440 F   0  0  0  0  0  0  0  0  0  0  0  0
  2  1  1  6  0  0  0
  2  3  1  0  0  0  0
  3  4  1  0  0  0  0
  5 10  1  0  0  0  0
  6  9  1  0  0  0  0
  6 15  1  1  0  0  0
  7  8  1  0  0  0  0
  8 14  1  0  0  0  0
  8 17  1  1  0  0  0
 10  6  1  0  0  0  0
 11  4  1  6  0  0  0
 11  5  1  0  0  0  0
 11 14  1  0  0  0  0
 12  9  1  0  0  0  0
 13  7  1  0  0  0  0
 13 11  1  0  0  0  0
 14 16  1  1  0  0  0
 14 12  1  0  0  0  0
 17 18  1  0  0  0  0
 18 20  1  0  0  0  0
 19 17  2  0  0  0  0
 20 23  1  0  0  0  0
 20 21  1  0  0  0  0
 21 24  1  0  0  0  0
 22 24  1  0  0  0  0
 23 22  1  0  0  0  0
 25 20  1  0  0  0  0
 26 28  1  1  0  0  0
 26  2  1  0  0  0  0
 26 31  1  0  0  0  0
 28 30  2  0  0  0  0
 29 28  1  0  0  0  0
 30 27  2  0  0  0  0
 31 32  2  0  0  0  0
 31 33  2  0  0  0  0
 31 34  1  0  0  0  0
 34 37  1  0  0  0  0
 35 36  1  0  0  0  0
 37 35  2  0  0  0  0
 38 40  1  0  0  0  0
 38 37  1  0  0  0  0
 40 39  1  1  0  0  0
 42 40  1  6  0  0  0
 42 43  1  0  0  0  0
 42 41  1  0  0  0  0
 43 41  1  0  0  0  0
 43 44  1  1  0  0  0
 45 46  1  6  0  0  0
 45 44  1  0  0  0  0
 45 49  1  0  0  0  0
 47 49  1  0  0  0  0
 49 48  1  0  0  0  0
 49 50  1  0  0  0  0
M  END
>  <MODEL>
7

>  <REMARK>
 VINA RESULT:      -6.2      3.120      5.189
  Name = 
  16 active torsions:
  status: ('A' for Active; 'I' for Inactive)
    1  A    between atoms: C_2  and  C_8
    2  A    between atoms: S_7  and  C_17
    3  A    between atoms: S_7  and  C_48
    4  A    between atoms: N_9  and  C_12
    5  A    between atoms: C_10  and  C_20
    6  A    between atoms: C_10  and  O_23
    7  A    between atoms: C_14  and  C_38
    8  A    between atoms: C_15  and  C_17
    9  A    between atoms: C_15  and  O_23
   10  A    between atoms: C_17  and  C_34
   11  A    between atoms: C_18  and  C_29
   12  A    between atoms: C_18  and  C_44
   13  A    between atoms: C_29  and  C_45
   14  A    between atoms: C_38  and  N_40
   15  A    between atoms: N_40  and  C_42
   16  A    between atoms: C_42  and  C_48
                            x       y       z     vdW  Elec       q    Type
                         _______ _______ _______ _____ _____    ______ ____

>  <TORSDO>
F 16

$$$$
=
 OpenBabel11062419153D

 50 53  0  0  1  0  0  0  0  0999 V2000
  192.9400  174.1750  146.2630 O   0  0  0  0  0  1  0  0  0  0  0  0
  192.6940  175.2610  145.4200 C   0  0  1  0  0  3  0  0  0  0  0  0
  193.1790  174.9660  144.1440 O   0  0  0  0  0  0  0  0  0  0  0  0
  192.6560  173.7010  143.8530 C   0  0  0  0  0  2  0  0  0  0  0  0
  194.9470  172.9210  143.1610 C   0  0  0  0  0  2  0  0  0  0  0  0
  194.3260  171.2890  145.0290 C   0  0  2  0  0  3  0  0  0  0  0  0
  192.1520  173.2880  140.6940 C   0  0  0  0  0  2  0  0  0  0  0  0
  191.6840  172.0460  141.4390 C   0  0  2  0  0  3  0  0  0  0  0  0
  193.4010  170.2360  144.4320 C   0  0  0  0  0  2  0  0  0  0  0  0
  195.3580  171.6960  143.9880 C   0  0  0  0  0  2  0  0  0  0  0  0
  193.4640  173.0000  142.7460 C   0  0  2  0  0  0  0  0  0  0  0  0
  192.3020  170.8480  143.5610 C   0  0  0  0  0  2  0  0  0  0  0  0
  193.3390  173.8360  141.4770 C   0  0  0  0  0  2  0  0  0  0  0  0
  192.8370  171.6400  142.3560 C   0  0  1  0  0  0  0  0  0  0  0  0
  194.9850  170.7420  146.1300 O   0  0  0  0  0  1  0  0  0  0  0  0
  193.7580  170.8590  141.6410 O   0  0  0  0  0  1  0  0  0  0  0  0
  191.2030  170.9690  140.5140 C   0  0  0  0  0  0  0  0  0  0  0  0
  191.5390  171.0090  139.1190 N   0  0  0  0  0  2  0  0  0  0  0  0
  190.5210  170.0190  140.9820 O   0  0  0  0  0  0  0  0  0  0  0  0
  191.1490  169.9980  138.1400 C   0  0  0  0  0  0  0  0  0  0  0  0
  191.9490  170.1630  136.8540 C   0  0  0  0  0  2  0  0  0  0  0  0
  189.6880  170.8790  136.4220 C   0  0  0  0  0  2  0  0  0  0  0  0
  189.6910  170.1980  137.7720 C   0  0  0  0  0  2  0  0  0  0  0  0
  190.9510  170.4050  135.7400 C   0  0  0  0  0  2  0  0  0  0  0  0
  191.3360  168.6030  138.7100 C   0  0  0  0  0  1  0  0  0  0  0  0
  191.1880  175.5540  145.3690 C   0  0  1  0  0  3  0  0  0  0  0  0
  191.5520  177.1480  148.5420 O   0  0  0  0  0  0  0  0  0  0  0  0
  190.5880  175.6250  146.7450 C   0  0  0  0  0  0  0  0  0  0  0  0
  189.4000  174.7910  147.0590 C   0  0  0  0  0  1  0  0  0  0  0  0
  191.0830  176.4060  147.6690 C   0  0  0  0  0  0  0  0  0  0  0  0
  190.8260  177.0400  144.4300 S   0  0  0  0  0  0  0  0  0  0  0  0
  191.9200  178.0470  144.6520 O   0  0  0  0  0  0  0  0  0  0  0  0
  189.5140  177.6200  144.8790 O   0  0  0  0  0  0  0  0  0  0  0  0
  190.7390  176.6530  142.6900 C   0  0  0  0  0  2  0  0  0  0  0  0
  188.9910  174.9860  142.5280 C   0  0  0  0  0  3  0  0  0  0  0  0
  187.6850  174.3880  142.1240 C   0  0  0  0  0  1  0  0  0  0  0  0
  189.3550  176.2540  142.3110 C   0  0  0  0  0  0  0  0  0  0  0  0
  188.5220  177.2210  141.6520 N   0  0  0  0  0  2  0  0  0  0  0  0
  186.5500  177.4340  140.2650 C   0  0  0  0  0  1  0  0  0  0  0  0
  187.0670  177.2410  141.6770 C   0  0  2  0  0  3  0  0  0  0  0  0
  185.2340  178.2180  142.8720 O   0  0  0  0  0  0  0  0  0  0  0  0
  186.5920  178.3950  142.5450 C   0  0  1  0  0  3  0  0  0  0  0  0
  186.1700  177.8890  143.8690 C   0  0  1  0  0  3  0  0  0  0  0  0
  186.2460  179.0080  144.8890 C   0  0  0  0  0  2  0  0  0  0  0  0
  186.0760  178.4490  146.2950 C   0  0  2  0  0  3  0  0  0  0  0  0
  186.7500  177.2280  146.4080 O   0  0  0  0  0  1  0  0  0  0  0  0
  184.3730  178.6640  147.9480 F   0  0  0  0  0  0  0  0  0  0  0  0
  183.8110  179.0220  145.7910 F   0  0  0  0  0  0  0  0  0  0  0  0
  184.6010  178.2670  146.6410 C   0  0  0  0  0  0  0  0  0  0  0  0
  184.2590  176.9340  146.5160 F   0  0  0  0  0  0  0  0  0  0  0  0
  2  1  1  1  0  0  0
  3  2  1  0  0  0  0
  4  3  1  0  0  0  0
  5 10  1  0  0  0  0
  6 15  1  1  0  0  0
  7  8  1  0  0  0  0
  7 13  1  0  0  0  0
  8 17  1  6  0  0  0
  8 14  1  0  0  0  0
  9  6  1  0  0  0  0
 10  6  1  0  0  0  0
 11  5  1  0  0  0  0
 11  4  1  1  0  0  0
 12  9  1  0  0  0  0
 13 11  1  0  0  0  0
 14 16  1  6  0  0  0
 14 11  1  0  0  0  0
 14 12  1  0  0  0  0
 17 19  2  0  0  0  0
 18 17  1  0  0  0  0
 20 25  1  0  0  0  0
 20 18  1  0  0  0  0
 21 20  1  0  0  0  0
 22 23  1  0  0  0  0
 23 20  1  0  0  0  0
 24 22  1  0  0  0  0
 24 21  1  0  0  0  0
 26  2  1  0  0  0  0
 26 28  1  1  0  0  0
 28 29  1  0  0  0  0
 28 30  2  0  0  0  0
 30 27  2  0  0  0  0
 31 32  2  0  0  0  0
 31 33  2  0  0  0  0
 31 26  1  0  0  0  0
 34 31  1  0  0  0  0
 36 35  1  0  0  0  0
 37 35  2  0  0  0  0
 37 34  1  0  0  0  0
 38 40  1  0  0  0  0
 38 37  1  0  0  0  0
 40 39  1  6  0  0  0
 41 43  1  0  0  0  0
 42 40  1  6  0  0  0
 42 41  1  0  0  0  0
 42 43  1  0  0  0  0
 43 44  1  1  0  0  0
 44 45  1  0  0  0  0
 45 46  1  6  0  0  0
 45 49  1  0  0  0  0
 48 49  1  0  0  0  0
 49 47  1  0  0  0  0
 50 49  1  0  0  0  0
M  END
>  <MODEL>
8

>  <REMARK>
 VINA RESULT:      -6.2      3.583      8.752
  Name = 
  16 active torsions:
  status: ('A' for Active; 'I' for Inactive)
    1  A    between atoms: C_2  and  C_8
    2  A    between atoms: S_7  and  C_17
    3  A    between atoms: S_7  and  C_48
    4  A    between atoms: N_9  and  C_12
    5  A    between atoms: C_10  and  C_20
    6  A    between atoms: C_10  and  O_23
    7  A    between atoms: C_14  and  C_38
    8  A    between atoms: C_15  and  C_17
    9  A    between atoms: C_15  and  O_23
   10  A    between atoms: C_17  and  C_34
   11  A    between atoms: C_18  and  C_29
   12  A    between atoms: C_18  and  C_44
   13  A    between atoms: C_29  and  C_45
   14  A    between atoms: C_38  and  N_40
   15  A    between atoms: N_40  and  C_42
   16  A    between atoms: C_42  and  C_48
                            x       y       z     vdW  Elec       q    Type
                         _______ _______ _______ _____ _____    ______ ____

>  <TORSDO>
F 16

$$$$
=
 OpenBabel11062419153D

 50 53  0  0  1  0  0  0  0  0999 V2000
  194.4350  176.7960  146.6150 O   0  0  0  0  0  1  0  0  0  0  0  0
  194.3540  175.5710  145.9490 C   0  0  1  0  0  3  0  0  0  0  0  0
  193.5540  175.7220  144.8150 O   0  0  0  0  0  0  0  0  0  0  0  0
  192.3020  175.2280  145.1980 C   0  0  0  0  0  2  0  0  0  0  0  0
  191.4870  174.8900  142.8410 C   0  0  0  0  0  2  0  0  0  0  0  0
  190.9790  172.6430  143.9500 C   0  0  2  0  0  3  0  0  0  0  0  0
  190.3010  177.7460  144.9540 C   0  0  0  0  0  2  0  0  0  0  0  0
  189.5730  176.5960  145.6330 C   0  0  2  0  0  3  0  0  0  0  0  0
  189.6920  172.8030  144.7480 C   0  0  0  0  0  2  0  0  0  0  0  0
  190.8930  173.4840  142.6860 C   0  0  0  0  0  2  0  0  0  0  0  0
  191.2120  175.6060  144.1790 C   0  0  2  0  0  0  0  0  0  0  0  0
  189.6760  174.0850  145.5840 C   0  0  0  0  0  2  0  0  0  0  0  0
  191.2750  177.1140  143.9660 C   0  0  0  0  0  2  0  0  0  0  0  0
  189.7920  175.3710  144.7480 C   0  0  1  0  0  0  0  0  0  0  0  0
  191.1280  171.3030  143.5940 O   0  0  0  0  0  1  0  0  0  0  0  0
  188.8430  175.3570  143.7150 O   0  0  0  0  0  1  0  0  0  0  0  0
  188.1380  176.9170  145.9230 C   0  0  0  0  0  0  0  0  0  0  0  0
  187.5130  178.0570  145.3150 N   0  0  0  0  0  2  0  0  0  0  0  0
  187.4820  176.1600  146.6880 O   0  0  0  0  0  0  0  0  0  0  0  0
  186.1180  178.4420  145.5040 C   0  0  0  0  0  0  0  0  0  0  0  0
  185.1880  177.4200  144.8620 C   0  0  0  0  0  2  0  0  0  0  0  0
  185.1410  179.4170  143.5150 C   0  0  0  0  0  2  0  0  0  0  0  0
  185.8640  179.7600  144.7970 C   0  0  0  0  0  2  0  0  0  0  0  0
  184.3670  178.1570  143.8260 C   0  0  0  0  0  2  0  0  0  0  0  0
  185.8020  178.5970  146.9810 C   0  0  0  0  0  1  0  0  0  0  0  0
  195.7590  175.0940  145.5570 C   0  0  1  0  0  3  0  0  0  0  0  0
  193.9560  172.0450  145.1250 O   0  0  0  0  0  0  0  0  0  0  0  0
  195.8930  173.6020  145.6700 C   0  0  0  0  0  0  0  0  0  0  0  0
  197.1910  173.0250  146.1040 C   0  0  0  0  0  1  0  0  0  0  0  0
  194.8990  172.8010  145.3910 C   0  0  0  0  0  0  0  0  0  0  0  0
  196.2260  175.6620  143.9190 S   0  0  0  0  0  0  0  0  0  0  0  0
  197.6430  175.2490  143.6350 O   0  0  0  0  0  0  0  0  0  0  0  0
  196.1170  177.1590  143.8490 O   0  0  0  0  0  0  0  0  0  0  0  0
  195.1520  174.9320  142.6940 C   0  0  0  0  0  2  0  0  0  0  0  0
  196.1390  175.5080  140.5600 C   0  0  0  0  0  3  0  0  0  0  0  0
  196.8040  175.2910  139.2430 C   0  0  0  0  0  1  0  0  0  0  0  0
  195.9240  174.5580  141.4770 C   0  0  0  0  0  0  0  0  0  0  0  0
  196.3130  173.1860  141.3100 N   0  0  0  0  0  2  0  0  0  0  0  0
  196.6880  171.1210  142.5170 C   0  0  0  0  0  1  0  0  0  0  0  0
  195.6460  172.0380  141.9090 C   0  0  2  0  0  3  0  0  0  0  0  0
  193.8670  170.5060  141.4300 O   0  0  0  0  0  0  0  0  0  0  0  0
  194.8800  171.2830  140.8360 C   0  0  1  0  0  3  0  0  0  0  0  0
  193.4650  171.7120  140.8300 C   0  0  1  0  0  3  0  0  0  0  0  0
  192.8530  171.4290  139.4720 C   0  0  0  0  0  2  0  0  0  0  0  0
  192.1900  172.6850  138.9220 C   0  0  2  0  0  3  0  0  0  0  0  0
  192.6540  173.8100  139.6100 O   0  0  0  0  0  1  0  0  0  0  0  0
  190.3190  171.5740  139.8950 F   0  0  0  0  0  0  0  0  0  0  0  0
  190.1490  173.7900  139.4970 F   0  0  0  0  0  0  0  0  0  0  0  0
  190.6700  172.5960  139.0280 C   0  0  0  0  0  0  0  0  0  0  0  0
  190.1360  172.3240  137.7830 F   0  0  0  0  0  0  0  0  0  0  0  0
  2  1  1  6  0  0  0
  3  4  1  0  0  0  0
  3  2  1  0  0  0  0
  5 11  1  0  0  0  0
  6 15  1  6  0  0  0
  6  9  1  0  0  0  0
  7  8  1  0  0  0  0
  8 17  1  6  0  0  0
  9 12  1  0  0  0  0
 10  5  1  0  0  0  0
 10  6  1  0  0  0  0
 11 14  1  0  0  0  0
 11  4  1  1  0  0  0
 13 11  1  0  0  0  0
 13  7  1  0  0  0  0
 14 16  1  6  0  0  0
 14 12  1  0  0  0  0
 14  8  1  0  0  0  0
 17 19  2  0  0  0  0
 18 20  1  0  0  0  0
 18 17  1  0  0  0  0
 20 25  1  0  0  0  0
 21 20  1  0  0  0  0
 22 24  1  0  0  0  0
 22 23  1  0  0  0  0
 23 20  1  0  0  0  0
 24 21  1  0  0  0  0
 26 28  1  6  0  0  0
 26  2  1  0  0  0  0
 27 30  2  0  0  0  0
 28 29  1  0  0  0  0
 30 28  2  0  0  0  0
 31 26  1  0  0  0  0
 32 31  2  0  0  0  0
 33 31  2  0  0  0  0
 34 31  1  0  0  0  0
 35 37  2  0  0  0  0
 36 35  1  0  0  0  0
 37 34  1  0  0  0  0
 38 37  1  0  0  0  0
 38 40  1  0  0  0  0
 40 39  1  6  0  0  0
 42 41  1  0  0  0  0
 42 40  1  1  0  0  0
 43 44  1  6  0  0  0
 43 42  1  0  0  0  0
 43 41  1  0  0  0  0
 45 49  1  0  0  0  0
 45 44  1  0  0  0  0
 45 46  1  1  0  0  0
 49 48  1  0  0  0  0
 49 47  1  0  0  0  0
 50 49  1  0  0  0  0
M  END
>  <MODEL>
9

>  <REMARK>
 VINA RESULT:      -6.2      2.153      3.908
  Name = 
  16 active torsions:
  status: ('A' for Active; 'I' for Inactive)
    1  A    between atoms: C_2  and  C_8
    2  A    between atoms: S_7  and  C_17
    3  A    between atoms: S_7  and  C_48
    4  A    between atoms: N_9  and  C_12
    5  A    between atoms: C_10  and  C_20
    6  A    between atoms: C_10  and  O_23
    7  A    between atoms: C_14  and  C_38
    8  A    between atoms: C_15  and  C_17
    9  A    between atoms: C_15  and  O_23
   10  A    between atoms: C_17  and  C_34
   11  A    between atoms: C_18  and  C_29
   12  A    between atoms: C_18  and  C_44
   13  A    between atoms: C_29  and  C_45
   14  A    between atoms: C_38  and  N_40
   15  A    between atoms: N_40  and  C_42
   16  A    between atoms: C_42  and  C_48
                            x       y       z     vdW  Elec       q    Type
                         _______ _______ _______ _____ _____    ______ ____

>  <TORSDO>
F 16

$$$$
