=
 OpenBabel11062421563D

 37 40  0  0  1  0  0  0  0  0999 V2000
  192.7200  175.4180  146.8650 N   0  0  0  0  0  0  0  0  0  0  0  0
  195.0500  176.1820  144.2520 C   0  0  2  0  0  3  0  0  0  0  0  0
  196.1310  176.7820  143.5490 N   0  0  0  0  0  1  0  0  0  0  0  0
  193.5210  176.0150  145.8830 C   0  0  0  0  0  0  0  0  0  0  0  0
  193.3800  174.2630  144.6700 C   0  0  0  0  0  0  0  0  0  0  0  0
  194.6040  176.7370  145.3480 N   0  0  0  0  0  2  0  0  0  0  0  0
  194.4490  174.8590  143.7230 C   0  0  0  0  0  2  0  0  0  0  0  0
  192.5200  175.1760  145.5290 C   0  0  1  0  0  0  0  0  0  0  0  0
  192.6740  171.7730  144.3400 C   0  0  0  0  0  3  0  0  0  0  0  0
  193.0230  173.0190  144.5080 C   0  0  0  0  0  0  0  0  0  0  0  0
  191.4430  175.9710  144.8520 C   0  0  0  0  0  3  0  0  0  0  0  0
  191.0660  177.1120  145.3070 N   0  0  0  0  0  0  0  0  0  0  0  0
  190.1530  177.7020  143.1490 C   0  0  0  0  0  2  0  0  0  0  0  0
  190.0280  177.8600  144.6470 C   0  0  1  0  0  3  0  0  0  0  0  0
  188.7470  177.8660  142.6130 C   0  0  0  0  0  2  0  0  0  0  0  0
  188.6580  177.3100  144.9980 C   0  0  0  0  0  2  0  0  0  0  0  0
  187.8180  177.4420  143.7390 C   0  0  1  0  0  3  0  0  0  0  0  0
  186.6490  178.4140  143.9240 C   0  0  0  0  0  2  0  0  0  0  0  0
  184.4540  178.0280  142.8150 C   0  0  0  0  0  1  0  0  0  0  0  0
  185.2900  177.7220  144.0430 C   0  0  2  0  0  3  0  0  0  0  0  0
  184.5610  178.1480  145.2820 C   0  0  0  0  0  0  0  0  0  0  0  0
  183.7520  179.0650  145.2450 O   0  0  0  0  0  0  0  0  0  0  0  0
  184.8240  177.4340  146.5670 C   0  0  0  0  0  3  0  0  0  0  0  0
  185.6940  176.3800  146.3550 F   0  0  0  0  0  0  0  0  0  0  0  0
  185.3700  178.3080  147.4870 F   0  0  0  0  0  0  0  0  0  0  0  0
  193.0070  169.3360  144.2980 C   0  0  0  0  0  1  0  0  0  0  0  0
  193.6990  170.6900  144.3400 C   0  0  2  0  0  3  0  0  0  0  0  0
  194.6390  170.8240  145.5480 C   0  0  2  0  0  3  0  0  0  0  0  0
  197.7340  173.4390  144.1360 C   0  0  0  0  0  3  0  0  0  0  0  0
  195.8860  171.5940  145.2210 C   0  0  0  0  0  0  0  0  0  0  0  0
  197.6650  170.2730  144.3610 O   0  0  0  0  0  1  0  0  0  0  0  0
  196.2770  172.6410  145.9720 C   0  0  0  0  0  3  0  0  0  0  0  0
  196.6850  171.1990  144.0000 C   0  0  2  0  0  3  0  0  0  0  0  0
  197.3400  172.4080  143.3730 C   0  0  0  0  0  3  0  0  0  0  0  0
  197.5380  173.3940  145.6290 C   0  0  0  0  0  2  0  0  0  0  0  0
  194.9500  169.5810  146.1100 O   0  0  0  0  0  0  0  0  0  0  0  0
  194.5720  169.6820  147.3730 F   0  0  0  0  0  0  0  0  0  0  0  0
  2  3  1  1  0  0  0
  2  6  1  0  0  0  0
  4  1  2  0  0  0  0
  5  8  1  0  0  0  0
  6  4  1  0  0  0  0
  7  2  1  0  0  0  0
  7  5  1  0  0  0  0
  8 11  1  6  0  0  0
  8  4  1  0  0  0  0
  8  1  1  0  0  0  0
  9 27  1  0  0  0  0
  9 10  2  0  0  0  0
 10  5  2  0  0  0  0
 11 12  2  0  0  0  0
 13 14  1  0  0  0  0
 14 16  1  0  0  0  0
 14 12  1  1  0  0  0
 15 13  1  0  0  0  0
 15 17  1  0  0  0  0
 17 18  1  1  0  0  0
 17 16  1  0  0  0  0
 18 20  1  0  0  0  0
 20 19  1  6  0  0  0
 20 21  1  0  0  0  0
 21 23  1  0  0  0  0
 22 21  2  0  0  0  0
 23 25  1  0  0  0  0
 24 23  1  0  0  0  0
 27 26  1  1  0  0  0
 27 28  1  0  0  0  0
 28 36  1  6  0  0  0
 29 35  1  0  0  0  0
 30 28  1  0  0  0  0
 30 32  2  0  0  0  0
 33 31  1  1  0  0  0
 33 30  1  0  0  0  0
 34 33  1  0  0  0  0
 34 29  2  0  0  0  0
 35 32  1  0  0  0  0
 36 37  1  0  0  0  0
M  END
>  <MODEL>
1

>  <REMARK>
 VINA RESULT:      -7.4      0.000      0.000
  Name = 
  10 active torsions:
  status: ('A' for Active; 'I' for Inactive)
    1  A    between atoms: C_1  and  C_27
    2  A    between atoms: C_7  and  C_11
    3  A    between atoms: C_7  and  C_32
    4  A    between atoms: C_9  and  C_29
    5  A    between atoms: C_14  and  N_28
    6  A    between atoms: C_17  and  C_32
    7  A    between atoms: C_17  and  C_37
    8  A    between atoms: C_19  and  C_29
    9  A    between atoms: C_19  and  C_31
   10  A    between atoms: O_20  and  C_29
                            x       y       z     vdW  Elec       q    Type
                         _______ _______ _______ _____ _____    ______ ____

>  <TORSDO>
F 10

$$$$
=
 OpenBabel11062421563D

 37 40  0  0  1  0  0  0  0  0999 V2000
  189.6260  173.5840  146.0310 N   0  0  0  0  0  0  0  0  0  0  0  0
  191.5990  176.1760  147.5220 C   0  0  2  0  0  3  0  0  0  0  0  0
  192.0710  177.1320  148.4630 N   0  0  0  0  0  1  0  0  0  0  0  0
  190.1160  174.7480  146.6370 C   0  0  0  0  0  0  0  0  0  0  0  0
  191.9200  174.6060  145.5040 C   0  0  0  0  0  0  0  0  0  0  0  0
  190.4140  175.6490  147.6760 N   0  0  0  0  0  2  0  0  0  0  0  0
  192.5200  175.7500  146.3540 C   0  0  0  0  0  2  0  0  0  0  0  0
  190.4130  174.4730  145.3450 C   0  0  1  0  0  0  0  0  0  0  0  0
  193.4980  173.2960  143.8910 C   0  0  0  0  0  3  0  0  0  0  0  0
  192.7050  173.9500  144.6950 C   0  0  0  0  0  0  0  0  0  0  0  0
  189.7080  175.4650  144.4680 C   0  0  0  0  0  3  0  0  0  0  0  0
  189.3020  176.5940  144.9260 N   0  0  0  0  0  0  0  0  0  0  0  0
  189.4780  177.8430  142.8640 C   0  0  0  0  0  2  0  0  0  0  0  0
  188.6220  177.5320  144.0710 C   0  0  1  0  0  3  0  0  0  0  0  0
  188.5000  178.1950  141.7630 C   0  0  0  0  0  2  0  0  0  0  0  0
  187.3440  176.9320  143.5170 C   0  0  0  0  0  2  0  0  0  0  0  0
  187.2100  177.4640  142.1000 C   0  0  1  0  0  3  0  0  0  0  0  0
  185.9770  178.3570  141.9320 C   0  0  0  0  0  2  0  0  0  0  0  0
  183.5350  178.3030  142.4110 C   0  0  0  0  0  1  0  0  0  0  0  0
  184.9180  178.1490  143.0160 C   0  0  2  0  0  3  0  0  0  0  0  0
  185.0940  179.1110  144.1520 C   0  0  0  0  0  0  0  0  0  0  0  0
  185.5320  180.2350  143.9540 O   0  0  0  0  0  0  0  0  0  0  0  0
  184.7180  178.6860  145.5330 C   0  0  0  0  0  3  0  0  0  0  0  0
  185.5300  179.3130  146.4600 F   0  0  0  0  0  0  0  0  0  0  0  0
  183.3970  179.0090  145.7800 F   0  0  0  0  0  0  0  0  0  0  0  0
  194.3820  171.6170  145.4580 C   0  0  0  0  0  1  0  0  0  0  0  0
  194.7420  172.6550  144.4050 C   0  0  2  0  0  3  0  0  0  0  0  0
  195.7220  173.7090  144.9410 C   0  0  2  0  0  3  0  0  0  0  0  0
  196.3930  176.3470  141.6230 C   0  0  0  0  0  3  0  0  0  0  0  0
  196.2190  174.6300  143.8640 C   0  0  0  0  0  0  0  0  0  0  0  0
  197.9410  173.7180  142.5030 O   0  0  0  0  0  1  0  0  0  0  0  0
  196.3080  175.9590  144.0680 C   0  0  0  0  0  3  0  0  0  0  0  0
  196.5850  174.0450  142.5190 C   0  0  2  0  0  3  0  0  0  0  0  0
  196.2890  175.0260  141.4090 C   0  0  0  0  0  3  0  0  0  0  0  0
  196.8180  176.8630  142.9730 C   0  0  0  0  0  2  0  0  0  0  0  0
  196.7880  173.1290  145.6360 O   0  0  0  0  0  0  0  0  0  0  0  0
  196.9030  173.8530  146.7370 F   0  0  0  0  0  0  0  0  0  0  0  0
  1  4  2  0  0  0  0
  2  6  1  0  0  0  0
  2  3  1  1  0  0  0
  4  6  1  0  0  0  0
  5  7  1  0  0  0  0
  7  2  1  0  0  0  0
  8 11  1  6  0  0  0
  8  5  1  0  0  0  0
  8  1  1  0  0  0  0
  8  4  1  0  0  0  0
  9 27  1  0  0  0  0
  9 10  2  0  0  0  0
 10  5  2  0  0  0  0
 11 12  2  0  0  0  0
 13 14  1  0  0  0  0
 14 12  1  1  0  0  0
 15 17  1  0  0  0  0
 15 13  1  0  0  0  0
 16 14  1  0  0  0  0
 17 18  1  1  0  0  0
 17 16  1  0  0  0  0
 18 20  1  0  0  0  0
 20 19  1  6  0  0  0
 20 21  1  0  0  0  0
 21 23  1  0  0  0  0
 22 21  2  0  0  0  0
 23 25  1  0  0  0  0
 23 24  1  0  0  0  0
 27 28  1  0  0  0  0
 27 26  1  1  0  0  0
 28 36  1  6  0  0  0
 29 35  1  0  0  0  0
 30 32  2  0  0  0  0
 30 28  1  0  0  0  0
 33 31  1  1  0  0  0
 33 30  1  0  0  0  0
 34 29  2  0  0  0  0
 34 33  1  0  0  0  0
 35 32  1  0  0  0  0
 36 37  1  0  0  0  0
M  END
>  <MODEL>
2

>  <REMARK>
 VINA RESULT:      -7.0      2.290      3.088
  Name = 
  10 active torsions:
  status: ('A' for Active; 'I' for Inactive)
    1  A    between atoms: C_1  and  C_27
    2  A    between atoms: C_7  and  C_11
    3  A    between atoms: C_7  and  C_32
    4  A    between atoms: C_9  and  C_29
    5  A    between atoms: C_14  and  N_28
    6  A    between atoms: C_17  and  C_32
    7  A    between atoms: C_17  and  C_37
    8  A    between atoms: C_19  and  C_29
    9  A    between atoms: C_19  and  C_31
   10  A    between atoms: O_20  and  C_29
                            x       y       z     vdW  Elec       q    Type
                         _______ _______ _______ _____ _____    ______ ____

>  <TORSDO>
F 10

$$$$
=
 OpenBabel11062421563D

 37 40  0  0  1  0  0  0  0  0999 V2000
  189.6730  172.9860  145.5200 N   0  0  0  0  0  0  0  0  0  0  0  0
  189.2700  174.6720  142.3850 C   0  0  2  0  0  3  0  0  0  0  0  0
  188.9880  174.9030  141.0100 N   0  0  0  0  0  1  0  0  0  0  0  0
  189.7230  173.4250  144.1910 C   0  0  0  0  0  0  0  0  0  0  0  0
  189.5210  175.4520  144.8290 C   0  0  0  0  0  0  0  0  0  0  0  0
  189.4270  173.4490  142.8150 N   0  0  0  0  0  2  0  0  0  0  0  0
  189.3470  175.8780  143.3510 C   0  0  0  0  0  2  0  0  0  0  0  0
  190.2670  174.1740  145.1780 C   0  0  1  0  0  0  0  0  0  0  0  0
  189.0590  177.2170  146.6940 C   0  0  0  0  0  3  0  0  0  0  0  0
  189.2920  176.3320  145.7640 C   0  0  0  0  0  0  0  0  0  0  0  0
  191.7590  174.1640  145.0230 C   0  0  0  0  0  3  0  0  0  0  0  0
  192.3940  175.1930  144.5870 N   0  0  0  0  0  0  0  0  0  0  0  0
  194.4610  174.5970  145.6880 C   0  0  0  0  0  2  0  0  0  0  0  0
  193.8250  175.1640  144.4400 C   0  0  1  0  0  3  0  0  0  0  0  0
  195.7520  173.9580  145.2240 C   0  0  0  0  0  2  0  0  0  0  0  0
  194.2360  174.2290  143.3170 C   0  0  0  0  0  2  0  0  0  0  0  0
  195.5280  173.5700  143.7710 C   0  0  1  0  0  3  0  0  0  0  0  0
  196.7130  173.9500  142.8790 C   0  0  0  0  0  2  0  0  0  0  0  0
  196.8120  173.1370  140.5280 C   0  0  0  0  0  1  0  0  0  0  0  0
  196.3200  174.2520  141.4330 C   0  0  2  0  0  3  0  0  0  0  0  0
  196.8720  175.5680  140.9740 C   0  0  0  0  0  0  0  0  0  0  0  0
  197.8520  175.6130  140.2440 O   0  0  0  0  0  0  0  0  0  0  0  0
  196.2040  176.8310  141.4090 C   0  0  0  0  0  3  0  0  0  0  0  0
  194.8330  176.7110  141.2830 F   0  0  0  0  0  0  0  0  0  0  0  0
  196.5270  177.1040  142.7250 F   0  0  0  0  0  0  0  0  0  0  0  0
  187.5150  178.4490  148.1620 C   0  0  0  0  0  1  0  0  0  0  0  0
  187.7520  177.9340  146.7500 C   0  0  2  0  0  3  0  0  0  0  0  0
  186.6100  177.0310  146.2620 C   0  0  2  0  0  3  0  0  0  0  0  0
  185.4570  178.8250  142.5370 C   0  0  0  0  0  3  0  0  0  0  0  0
  185.9570  177.5550  145.0150 C   0  0  0  0  0  0  0  0  0  0  0  0
  184.0910  178.9760  145.4000 O   0  0  0  0  0  1  0  0  0  0  0  0
  185.8680  176.8000  143.9030 C   0  0  0  0  0  3  0  0  0  0  0  0
  185.4310  178.9720  145.0110 C   0  0  2  0  0  3  0  0  0  0  0  0
  185.5590  179.5880  143.6370 C   0  0  0  0  0  3  0  0  0  0  0  0
  185.2010  177.3450  142.6650 C   0  0  0  0  0  2  0  0  0  0  0  0
  185.6610  176.7990  147.2640 O   0  0  0  0  0  0  0  0  0  0  0  0
  184.6450  176.2290  146.6360 F   0  0  0  0  0  0  0  0  0  0  0  0
  2  3  1  1  0  0  0
  2  6  1  0  0  0  0
  2  7  1  0  0  0  0
  4  8  1  0  0  0  0
  4  1  2  0  0  0  0
  5  8  1  0  0  0  0
  5 10  2  0  0  0  0
  6  4  1  0  0  0  0
  7  5  1  0  0  0  0
  8 11  1  1  0  0  0
  8  1  1  0  0  0  0
  9 27  1  0  0  0  0
 10  9  2  0  0  0  0
 12 11  2  0  0  0  0
 14 12  1  1  0  0  0
 14 13  1  0  0  0  0
 15 13  1  0  0  0  0
 16 17  1  0  0  0  0
 16 14  1  0  0  0  0
 17 18  1  6  0  0  0
 17 15  1  0  0  0  0
 20 19  1  6  0  0  0
 20 18  1  0  0  0  0
 21 23  1  0  0  0  0
 21 20  1  0  0  0  0
 22 21  2  0  0  0  0
 23 25  1  0  0  0  0
 24 23  1  0  0  0  0
 27 26  1  1  0  0  0
 28 27  1  0  0  0  0
 28 36  1  1  0  0  0
 29 35  1  0  0  0  0
 29 34  2  0  0  0  0
 30 28  1  0  0  0  0
 32 30  2  0  0  0  0
 33 30  1  0  0  0  0
 33 31  1  6  0  0  0
 34 33  1  0  0  0  0
 35 32  1  0  0  0  0
 37 36  1  0  0  0  0
M  END
>  <MODEL>
3

>  <REMARK>
 VINA RESULT:      -7.0      3.370     10.008
  Name = 
  10 active torsions:
  status: ('A' for Active; 'I' for Inactive)
    1  A    between atoms: C_1  and  C_27
    2  A    between atoms: C_7  and  C_11
    3  A    between atoms: C_7  and  C_32
    4  A    between atoms: C_9  and  C_29
    5  A    between atoms: C_14  and  N_28
    6  A    between atoms: C_17  and  C_32
    7  A    between atoms: C_17  and  C_37
    8  A    between atoms: C_19  and  C_29
    9  A    between atoms: C_19  and  C_31
   10  A    between atoms: O_20  and  C_29
                            x       y       z     vdW  Elec       q    Type
                         _______ _______ _______ _____ _____    ______ ____

>  <TORSDO>
F 10

$$$$
=
 OpenBabel11062421563D

 37 40  0  0  1  0  0  0  0  0999 V2000
  189.8010  173.6370  140.3140 N   0  0  0  0  0  0  0  0  0  0  0  0
  189.7650  172.6850  143.7680 C   0  0  2  0  0  3  0  0  0  0  0  0
  189.4700  171.9700  144.9610 N   0  0  0  0  0  1  0  0  0  0  0  0
  189.4700  173.2940  141.6310 C   0  0  0  0  0  0  0  0  0  0  0  0
  191.2350  174.2570  142.3490 C   0  0  0  0  0  0  0  0  0  0  0  0
  189.0440  172.4800  142.6970 N   0  0  0  0  0  2  0  0  0  0  0  0
  190.9610  173.6660  143.7530 C   0  0  0  0  0  2  0  0  0  0  0  0
  190.0940  174.4660  141.3670 C   0  0  1  0  0  0  0  0  0  0  0  0
  193.5280  175.4240  141.9180 C   0  0  0  0  0  3  0  0  0  0  0  0
  192.3800  174.8420  142.1300 C   0  0  0  0  0  0  0  0  0  0  0  0
  189.1360  175.5900  141.6280 C   0  0  0  0  0  3  0  0  0  0  0  0
  189.4390  176.5580  142.4170 N   0  0  0  0  0  0  0  0  0  0  0  0
  187.6600  177.8620  141.4310 C   0  0  0  0  0  2  0  0  0  0  0  0
  188.5060  177.6270  142.6610 C   0  0  1  0  0  3  0  0  0  0  0  0
  186.3470  178.4090  141.9490 C   0  0  0  0  0  2  0  0  0  0  0  0
  187.5280  177.2520  143.7580 C   0  0  0  0  0  2  0  0  0  0  0  0
  186.1950  177.8650  143.3610 C   0  0  1  0  0  3  0  0  0  0  0  0
  185.7360  178.9390  144.3500 C   0  0  0  0  0  2  0  0  0  0  0  0
  183.6940  179.0290  145.7710 C   0  0  0  0  0  1  0  0  0  0  0  0
  185.0510  178.3740  145.5950 C   0  0  2  0  0  3  0  0  0  0  0  0
  185.8840  178.5770  146.8240 C   0  0  0  0  0  0  0  0  0  0  0  0
  186.0130  179.6920  147.3120 O   0  0  0  0  0  0  0  0  0  0  0  0
  186.5510  177.4010  147.4580 C   0  0  0  0  0  3  0  0  0  0  0  0
  185.9230  177.0830  148.6470 F   0  0  0  0  0  0  0  0  0  0  0  0
  186.5030  176.3170  146.6030 F   0  0  0  0  0  0  0  0  0  0  0  0
  194.5290  173.2140  142.3330 C   0  0  0  0  0  1  0  0  0  0  0  0
  194.8070  174.7020  142.1840 C   0  0  2  0  0  3  0  0  0  0  0  0
  195.5190  175.2850  143.4140 C   0  0  2  0  0  3  0  0  0  0  0  0
  192.2860  175.7720  146.1950 C   0  0  0  0  0  3  0  0  0  0  0  0
  194.5870  175.4840  144.5750 C   0  0  0  0  0  0  0  0  0  0  0  0
  194.8900  177.5320  145.7440 O   0  0  0  0  0  1  0  0  0  0  0  0
  194.2010  174.4500  145.3460 C   0  0  0  0  0  3  0  0  0  0  0  0
  194.0500  176.8720  144.8460 C   0  0  2  0  0  3  0  0  0  0  0  0
  192.6540  176.8040  145.4190 C   0  0  0  0  0  3  0  0  0  0  0  0
  193.2710  174.6760  146.5120 C   0  0  0  0  0  2  0  0  0  0  0  0
  196.2030  176.4680  143.1120 O   0  0  0  0  0  0  0  0  0  0  0  0
  197.4430  176.2490  143.5170 F   0  0  0  0  0  0  0  0  0  0  0  0
  1  8  1  0  0  0  0
  1  4  2  0  0  0  0
  2  3  1  6  0  0  0
  4  6  1  0  0  0  0
  5  7  1  0  0  0  0
  6  2  1  0  0  0  0
  7  2  1  0  0  0  0
  8 11  1  1  0  0  0
  8  4  1  0  0  0  0
  8  5  1  0  0  0  0
  9 10  2  0  0  0  0
  9 27  1  0  0  0  0
 10  5  2  0  0  0  0
 11 12  2  0  0  0  0
 13 15  1  0  0  0  0
 13 14  1  0  0  0  0
 14 12  1  6  0  0  0
 14 16  1  0  0  0  0
 15 17  1  0  0  0  0
 17 16  1  0  0  0  0
 17 18  1  1  0  0  0
 18 20  1  0  0  0  0
 20 19  1  1  0  0  0
 20 21  1  0  0  0  0
 21 22  2  0  0  0  0
 21 23  1  0  0  0  0
 23 24  1  0  0  0  0
 25 23  1  0  0  0  0
 27 26  1  1  0  0  0
 27 28  1  0  0  0  0
 28 36  1  6  0  0  0
 28 30  1  0  0  0  0
 29 35  1  0  0  0  0
 30 33  1  0  0  0  0
 30 32  2  0  0  0  0
 32 35  1  0  0  0  0
 33 34  1  0  0  0  0
 33 31  1  1  0  0  0
 34 29  2  0  0  0  0
 36 37  1  0  0  0  0
M  END
>  <MODEL>
4

>  <REMARK>
 VINA RESULT:      -6.8      3.467      4.832
  Name = 
  10 active torsions:
  status: ('A' for Active; 'I' for Inactive)
    1  A    between atoms: C_1  and  C_27
    2  A    between atoms: C_7  and  C_11
    3  A    between atoms: C_7  and  C_32
    4  A    between atoms: C_9  and  C_29
    5  A    between atoms: C_14  and  N_28
    6  A    between atoms: C_17  and  C_32
    7  A    between atoms: C_17  and  C_37
    8  A    between atoms: C_19  and  C_29
    9  A    between atoms: C_19  and  C_31
   10  A    between atoms: O_20  and  C_29
                            x       y       z     vdW  Elec       q    Type
                         _______ _______ _______ _____ _____    ______ ____

>  <TORSDO>
F 10

$$$$
=
 OpenBabel11062421563D

 37 40  0  0  1  0  0  0  0  0999 V2000
  194.4330  176.0230  146.5580 N   0  0  0  0  0  0  0  0  0  0  0  0
  195.2870  175.7050  143.0930 C   0  0  2  0  0  3  0  0  0  0  0  0
  195.8270  175.9970  141.8100 N   0  0  0  0  0  1  0  0  0  0  0  0
  194.6150  176.1800  145.1780 C   0  0  0  0  0  0  0  0  0  0  0  0
  194.4190  174.0730  144.8900 C   0  0  0  0  0  0  0  0  0  0  0  0
  195.1960  176.6540  143.9870 N   0  0  0  0  0  2  0  0  0  0  0  0
  194.8530  174.2560  143.4160 C   0  0  0  0  0  2  0  0  0  0  0  0
  193.7820  175.2240  145.6520 C   0  0  1  0  0  0  0  0  0  0  0  0
  194.2450  171.6510  145.8440 C   0  0  0  0  0  3  0  0  0  0  0  0
  194.3290  172.8640  145.3700 C   0  0  0  0  0  0  0  0  0  0  0  0
  192.3720  175.6020  145.3080 C   0  0  0  0  0  3  0  0  0  0  0  0
  191.3690  175.0090  145.8480 N   0  0  0  0  0  0  0  0  0  0  0  0
  189.1260  175.2570  146.7140 C   0  0  0  0  0  2  0  0  0  0  0  0
  190.0220  175.3810  145.5030 C   0  0  1  0  0  3  0  0  0  0  0  0
  188.0240  176.2730  146.5010 C   0  0  0  0  0  2  0  0  0  0  0  0
  189.9510  176.8420  145.0960 C   0  0  0  0  0  2  0  0  0  0  0  0
  188.6210  177.3590  145.6200 C   0  0  1  0  0  3  0  0  0  0  0  0
  187.6760  177.7740  144.4890 C   0  0  0  0  0  2  0  0  0  0  0  0
  186.4740  176.1900  142.9900 C   0  0  0  0  0  1  0  0  0  0  0  0
  186.4530  176.8660  144.3490 C   0  0  2  0  0  3  0  0  0  0  0  0
  185.1760  177.6310  144.5240 C   0  0  0  0  0  0  0  0  0  0  0  0
  184.5100  177.9630  143.5530 O   0  0  0  0  0  0  0  0  0  0  0  0
  184.7140  177.9760  145.9010 C   0  0  0  0  0  3  0  0  0  0  0  0
  183.5370  178.6990  145.8400 F   0  0  0  0  0  0  0  0  0  0  0  0
  184.5120  176.8210  146.6320 F   0  0  0  0  0  0  0  0  0  0  0  0
  196.6410  171.4870  145.3080 C   0  0  0  0  0  1  0  0  0  0  0  0
  195.4080  170.7210  145.7660 C   0  0  2  0  0  3  0  0  0  0  0  0
  195.0950  169.5270  144.8520 C   0  0  2  0  0  3  0  0  0  0  0  0
  192.5880  171.3110  141.8600 C   0  0  0  0  0  3  0  0  0  0  0  0
  194.2570  169.9160  143.6680 C   0  0  0  0  0  0  0  0  0  0  0  0
  192.4490  168.4410  143.2120 O   0  0  0  0  0  1  0  0  0  0  0  0
  194.8090  170.4820  142.5770 C   0  0  0  0  0  3  0  0  0  0  0  0
  192.7620  169.6970  143.7320 C   0  0  2  0  0  3  0  0  0  0  0  0
  192.0300  170.7640  142.9510 C   0  0  0  0  0  3  0  0  0  0  0  0
  193.9470  170.8560  141.3970 C   0  0  0  0  0  2  0  0  0  0  0  0
  194.5090  168.4690  145.5550 O   0  0  0  0  0  0  0  0  0  0  0  0
  194.9710  168.5910  146.7890 F   0  0  0  0  0  0  0  0  0  0  0  0
  2  3  1  1  0  0  0
  2  7  1  0  0  0  0
  2  6  1  0  0  0  0
  4  8  1  0  0  0  0
  4  1  2  0  0  0  0
  5 10  2  0  0  0  0
  5  8  1  0  0  0  0
  6  4  1  0  0  0  0
  7  5  1  0  0  0  0
  8 11  1  6  0  0  0
  8  1  1  0  0  0  0
 10  9  2  0  0  0  0
 11 12  2  0  0  0  0
 14 12  1  1  0  0  0
 14 13  1  0  0  0  0
 15 13  1  0  0  0  0
 16 14  1  0  0  0  0
 16 17  1  0  0  0  0
 17 18  1  6  0  0  0
 17 15  1  0  0  0  0
 20 19  1  6  0  0  0
 20 18  1  0  0  0  0
 20 21  1  0  0  0  0
 21 23  1  0  0  0  0
 22 21  2  0  0  0  0
 23 25  1  0  0  0  0
 24 23  1  0  0  0  0
 27 26  1  6  0  0  0
 27  9  1  0  0  0  0
 28 36  1  1  0  0  0
 28 27  1  0  0  0  0
 29 34  2  0  0  0  0
 30 33  1  0  0  0  0
 30 28  1  0  0  0  0
 32 30  2  0  0  0  0
 33 31  1  6  0  0  0
 34 33  1  0  0  0  0
 35 29  1  0  0  0  0
 35 32  1  0  0  0  0
 36 37  1  0  0  0  0
M  END
>  <MODEL>
5

>  <REMARK>
 VINA RESULT:      -6.8      1.661      2.951
  Name = 
  10 active torsions:
  status: ('A' for Active; 'I' for Inactive)
    1  A    between atoms: C_1  and  C_27
    2  A    between atoms: C_7  and  C_11
    3  A    between atoms: C_7  and  C_32
    4  A    between atoms: C_9  and  C_29
    5  A    between atoms: C_14  and  N_28
    6  A    between atoms: C_17  and  C_32
    7  A    between atoms: C_17  and  C_37
    8  A    between atoms: C_19  and  C_29
    9  A    between atoms: C_19  and  C_31
   10  A    between atoms: O_20  and  C_29
                            x       y       z     vdW  Elec       q    Type
                         _______ _______ _______ _____ _____    ______ ____

>  <TORSDO>
F 10

$$$$
=
 OpenBabel11062421563D

 37 40  0  0  1  0  0  0  0  0999 V2000
  190.6120  176.3760  146.3860 N   0  0  0  0  0  0  0  0  0  0  0  0
  189.8630  173.2950  144.7190 C   0  0  2  0  0  3  0  0  0  0  0  0
  189.6310  171.9090  144.4970 N   0  0  0  0  0  1  0  0  0  0  0  0
  190.6030  175.0810  145.8510 C   0  0  0  0  0  0  0  0  0  0  0  0
  189.5890  175.7840  144.1080 C   0  0  0  0  0  0  0  0  0  0  0  0
  190.4380  173.6840  145.8250 N   0  0  0  0  0  2  0  0  0  0  0  0
  189.3920  174.3170  143.6580 C   0  0  0  0  0  2  0  0  0  0  0  0
  190.7340  176.1550  145.0380 C   0  0  1  0  0  0  0  0  0  0  0  0
  188.3320  177.6640  142.8090 C   0  0  0  0  0  3  0  0  0  0  0  0
  188.9640  176.7270  143.4600 C   0  0  0  0  0  0  0  0  0  0  0  0
  192.1240  176.1650  144.4740 C   0  0  0  0  0  3  0  0  0  0  0  0
  192.9620  175.2290  144.7420 N   0  0  0  0  0  0  0  0  0  0  0  0
  195.3060  175.3530  145.3140 C   0  0  0  0  0  2  0  0  0  0  0  0
  194.2940  175.2560  144.1960 C   0  0  1  0  0  3  0  0  0  0  0  0
  196.5550  174.6840  144.7800 C   0  0  0  0  0  2  0  0  0  0  0  0
  194.6100  173.9580  143.4760 C   0  0  0  0  0  2  0  0  0  0  0  0
  196.0790  173.6770  143.7450 C   0  0  1  0  0  3  0  0  0  0  0  0
  196.9190  173.7190  142.4660 C   0  0  0  0  0  2  0  0  0  0  0  0
  196.2210  173.2840  140.1160 C   0  0  0  0  0  1  0  0  0  0  0  0
  196.1690  174.2820  141.2580 C   0  0  2  0  0  3  0  0  0  0  0  0
  196.7370  175.5980  140.8190 C   0  0  0  0  0  0  0  0  0  0  0  0
  197.6870  175.6410  140.0500 O   0  0  0  0  0  0  0  0  0  0  0  0
  196.1230  176.8630  141.3230 C   0  0  0  0  0  3  0  0  0  0  0  0
  194.7450  176.7530  141.3290 F   0  0  0  0  0  0  0  0  0  0  0  0
  196.5730  177.1250  142.6030 F   0  0  0  0  0  0  0  0  0  0  0  0
  186.5060  177.6230  141.1600 C   0  0  0  0  0  1  0  0  0  0  0  0
  186.8510  177.6090  142.6410 C   0  0  2  0  0  3  0  0  0  0  0  0
  186.1690  178.7530  143.4070 C   0  0  2  0  0  3  0  0  0  0  0  0
  186.7040  178.1170  147.6180 C   0  0  0  0  0  3  0  0  0  0  0  0
  186.0850  178.4840  144.8820 C   0  0  0  0  0  0  0  0  0  0  0  0
  185.2000  176.3520  145.4490 O   0  0  0  0  0  1  0  0  0  0  0  0
  185.7860  179.4660  145.7550 C   0  0  0  0  0  3  0  0  0  0  0  0
  186.3820  177.0900  145.3860 C   0  0  2  0  0  3  0  0  0  0  0  0
  187.0200  177.1390  146.7540 C   0  0  0  0  0  3  0  0  0  0  0  0
  185.6990  179.1700  147.2310 C   0  0  0  0  0  2  0  0  0  0  0  0
  184.9100  179.0580  142.8800 O   0  0  0  0  0  0  0  0  0  0  0  0
  184.1280  178.0730  143.2920 F   0  0  0  0  0  0  0  0  0  0  0  0
  2  3  1  1  0  0  0
  2  6  1  0  0  0  0
  4  1  2  0  0  0  0
  5  8  1  0  0  0  0
  6  4  1  0  0  0  0
  7  5  1  0  0  0  0
  7  2  1  0  0  0  0
  8 11  1  6  0  0  0
  8  4  1  0  0  0  0
  8  1  1  0  0  0  0
  9 10  2  0  0  0  0
 10  5  2  0  0  0  0
 11 12  2  0  0  0  0
 14 12  1  1  0  0  0
 14 13  1  0  0  0  0
 15 13  1  0  0  0  0
 16 17  1  0  0  0  0
 16 14  1  0  0  0  0
 17 18  1  6  0  0  0
 17 15  1  0  0  0  0
 20 19  1  6  0  0  0
 20 18  1  0  0  0  0
 21 20  1  0  0  0  0
 21 23  1  0  0  0  0
 22 21  2  0  0  0  0
 23 24  1  0  0  0  0
 23 25  1  0  0  0  0
 27 26  1  6  0  0  0
 27  9  1  0  0  0  0
 27 28  1  0  0  0  0
 28 36  1  6  0  0  0
 28 30  1  0  0  0  0
 30 33  1  0  0  0  0
 30 32  2  0  0  0  0
 32 35  1  0  0  0  0
 33 31  1  1  0  0  0
 33 34  1  0  0  0  0
 34 29  2  0  0  0  0
 35 29  1  0  0  0  0
 36 37  1  0  0  0  0
M  END
>  <MODEL>
6

>  <REMARK>
 VINA RESULT:      -6.8      3.326      9.968
  Name = 
  10 active torsions:
  status: ('A' for Active; 'I' for Inactive)
    1  A    between atoms: C_1  and  C_27
    2  A    between atoms: C_7  and  C_11
    3  A    between atoms: C_7  and  C_32
    4  A    between atoms: C_9  and  C_29
    5  A    between atoms: C_14  and  N_28
    6  A    between atoms: C_17  and  C_32
    7  A    between atoms: C_17  and  C_37
    8  A    between atoms: C_19  and  C_29
    9  A    between atoms: C_19  and  C_31
   10  A    between atoms: O_20  and  C_29
                            x       y       z     vdW  Elec       q    Type
                         _______ _______ _______ _____ _____    ______ ____

>  <TORSDO>
F 10

$$$$
=
 OpenBabel11062421563D

 37 40  0  0  1  0  0  0  0  0999 V2000
  193.2580  173.2470  145.5150 N   0  0  0  0  0  0  0  0  0  0  0  0
  194.2960  176.6760  145.4210 C   0  0  2  0  0  3  0  0  0  0  0  0
  194.9390  177.8940  145.7720 N   0  0  0  0  0  1  0  0  0  0  0  0
  193.5400  174.5950  145.7730 C   0  0  0  0  0  0  0  0  0  0  0  0
  193.1760  175.0870  143.7280 C   0  0  0  0  0  0  0  0  0  0  0  0
  194.2340  175.7040  146.2930 N   0  0  0  0  0  2  0  0  0  0  0  0
  193.7160  176.5130  143.9970 C   0  0  0  0  0  2  0  0  0  0  0  0
  192.5980  174.2570  144.8630 C   0  0  1  0  0  0  0  0  0  0  0  0
  192.7280  174.3730  141.2590 C   0  0  0  0  0  3  0  0  0  0  0  0
  192.9490  174.7270  142.4950 C   0  0  0  0  0  0  0  0  0  0  0  0
  191.2510  174.6410  145.4000 C   0  0  0  0  0  3  0  0  0  0  0  0
  190.1860  174.5120  144.6940 N   0  0  0  0  0  0  0  0  0  0  0  0
  189.0290  175.2230  146.6920 C   0  0  0  0  0  2  0  0  0  0  0  0
  188.9020  174.8900  145.2240 C   0  0  1  0  0  3  0  0  0  0  0  0
  187.9320  176.2290  146.9690 C   0  0  0  0  0  2  0  0  0  0  0  0
  188.3960  176.1600  144.5640 C   0  0  0  0  0  2  0  0  0  0  0  0
  187.6700  176.9360  145.6490 C   0  0  1  0  0  3  0  0  0  0  0  0
  186.1740  177.0800  145.3540 C   0  0  0  0  0  2  0  0  0  0  0  0
  184.3840  178.3910  146.4830 C   0  0  0  0  0  1  0  0  0  0  0  0
  185.6290  178.4830  145.6200 C   0  0  2  0  0  3  0  0  0  0  0  0
  185.3190  179.2060  144.3440 C   0  0  0  0  0  0  0  0  0  0  0  0
  185.4030  180.4240  144.2810 O   0  0  0  0  0  0  0  0  0  0  0  0
  184.9130  178.4200  143.1400 C   0  0  0  0  0  3  0  0  0  0  0  0
  183.5720  178.6200  142.8720 F   0  0  0  0  0  0  0  0  0  0  0  0
  185.6670  178.8110  142.0490 F   0  0  0  0  0  0  0  0  0  0  0  0
  193.2640  174.0390  138.8810 C   0  0  0  0  0  1  0  0  0  0  0  0
  193.8070  174.4740  140.2340 C   0  0  2  0  0  3  0  0  0  0  0  0
  195.0390  173.6590  140.6530 C   0  0  2  0  0  3  0  0  0  0  0  0
  197.3450  176.3750  143.0470 C   0  0  0  0  0  3  0  0  0  0  0  0
  196.0630  174.4940  141.3670 C   0  0  0  0  0  0  0  0  0  0  0  0
  197.4740  175.7620  139.9340 O   0  0  0  0  0  1  0  0  0  0  0  0
  196.6540  174.0610  142.4960 C   0  0  0  0  0  3  0  0  0  0  0  0
  196.3970  175.8620  140.8150 C   0  0  2  0  0  3  0  0  0  0  0  0
  196.7460  176.8190  141.9310 C   0  0  0  0  0  3  0  0  0  0  0  0
  197.6870  174.9150  143.1900 C   0  0  0  0  0  2  0  0  0  0  0  0
  195.6110  172.9800  139.5720 O   0  0  0  0  0  0  0  0  0  0  0  0
  195.4530  171.6990  139.8610 F   0  0  0  0  0  0  0  0  0  0  0  0
  1  4  2  0  0  0  0
  2  3  1  6  0  0  0
  2  6  1  0  0  0  0
  4  6  1  0  0  0  0
  5  7  1  0  0  0  0
  5  8  1  0  0  0  0
  7  2  1  0  0  0  0
  8 11  1  1  0  0  0
  8  1  1  0  0  0  0
  8  4  1  0  0  0  0
  9 10  2  0  0  0  0
 10  5  2  0  0  0  0
 12 11  2  0  0  0  0
 13 15  1  0  0  0  0
 14 12  1  6  0  0  0
 14 13  1  0  0  0  0
 16 14  1  0  0  0  0
 16 17  1  0  0  0  0
 17 18  1  6  0  0  0
 17 15  1  0  0  0  0
 18 20  1  0  0  0  0
 20 19  1  1  0  0  0
 21 20  1  0  0  0  0
 22 21  2  0  0  0  0
 23 21  1  0  0  0  0
 24 23  1  0  0  0  0
 25 23  1  0  0  0  0
 27 26  1  6  0  0  0
 27 28  1  0  0  0  0
 27  9  1  0  0  0  0
 28 36  1  6  0  0  0
 28 30  1  0  0  0  0
 29 35  1  0  0  0  0
 30 32  2  0  0  0  0
 32 35  1  0  0  0  0
 33 31  1  6  0  0  0
 33 30  1  0  0  0  0
 33 34  1  0  0  0  0
 34 29  2  0  0  0  0
 36 37  1  0  0  0  0
M  END
>  <MODEL>
7

>  <REMARK>
 VINA RESULT:      -6.8      3.188      4.033
  Name = 
  10 active torsions:
  status: ('A' for Active; 'I' for Inactive)
    1  A    between atoms: C_1  and  C_27
    2  A    between atoms: C_7  and  C_11
    3  A    between atoms: C_7  and  C_32
    4  A    between atoms: C_9  and  C_29
    5  A    between atoms: C_14  and  N_28
    6  A    between atoms: C_17  and  C_32
    7  A    between atoms: C_17  and  C_37
    8  A    between atoms: C_19  and  C_29
    9  A    between atoms: C_19  and  C_31
   10  A    between atoms: O_20  and  C_29
                            x       y       z     vdW  Elec       q    Type
                         _______ _______ _______ _____ _____    ______ ____

>  <TORSDO>
F 10

$$$$
=
 OpenBabel11062421563D

 37 40  0  0  1  0  0  0  0  0999 V2000
  195.1780  176.8480  144.9550 N   0  0  0  0  0  0  0  0  0  0  0  0
  194.1190  173.4570  145.4180 C   0  0  2  0  0  3  0  0  0  0  0  0
  194.1440  172.0770  145.7600 N   0  0  0  0  0  1  0  0  0  0  0  0
  195.0160  175.4570  144.9490 C   0  0  0  0  0  0  0  0  0  0  0  0
  192.8930  175.6810  144.9790 C   0  0  0  0  0  0  0  0  0  0  0  0
  195.2420  174.1180  145.3200 N   0  0  0  0  0  2  0  0  0  0  0  0
  192.7560  174.1570  145.2060 C   0  0  0  0  0  2  0  0  0  0  0  0
  194.1300  176.2500  144.3030 C   0  0  1  0  0  0  0  0  0  0  0  0
  190.7640  177.1700  145.2180 C   0  0  0  0  0  3  0  0  0  0  0  0
  191.8300  176.4290  145.0960 C   0  0  0  0  0  0  0  0  0  0  0  0
  194.2850  176.0390  142.8260 C   0  0  0  0  0  3  0  0  0  0  0  0
  195.4170  176.2010  142.2410 N   0  0  0  0  0  0  0  0  0  0  0  0
  197.0060  176.0160  140.4300 C   0  0  0  0  0  2  0  0  0  0  0  0
  195.5460  175.9980  140.8220 C   0  0  1  0  0  3  0  0  0  0  0  0
  197.1000  175.1390  139.2000 C   0  0  0  0  0  2  0  0  0  0  0  0
  195.0380  174.6260  140.4220 C   0  0  0  0  0  2  0  0  0  0  0  0
  195.9500  174.1490  139.3040 C   0  0  1  0  0  3  0  0  0  0  0  0
  195.2020  173.9880  137.9770 C   0  0  0  0  0  2  0  0  0  0  0  0
  193.5640  175.6660  137.1420 C   0  0  0  0  0  1  0  0  0  0  0  0
  195.0350  175.2970  137.2050 C   0  0  2  0  0  3  0  0  0  0  0  0
  195.6010  175.1970  135.8210 C   0  0  0  0  0  0  0  0  0  0  0  0
  195.3270  174.2460  135.1020 O   0  0  0  0  0  0  0  0  0  0  0  0
  196.4980  176.2800  135.3190 C   0  0  0  0  0  3  0  0  0  0  0  0
  195.8100  177.4780  135.2600 F   0  0  0  0  0  0  0  0  0  0  0  0
  197.5890  176.4120  136.1570 F   0  0  0  0  0  0  0  0  0  0  0  0
  190.8300  176.7010  147.6330 C   0  0  0  0  0  1  0  0  0  0  0  0
  189.9510  177.1340  146.4690 C   0  0  2  0  0  3  0  0  0  0  0  0
  188.7240  176.2270  146.2990 C   0  0  2  0  0  3  0  0  0  0  0  0
  184.7060  177.7360  146.3380 C   0  0  0  0  0  3  0  0  0  0  0  0
  187.4370  177.0010  146.2810 C   0  0  0  0  0  0  0  0  0  0  0  0
  187.0890  178.2910  144.3140 O   0  0  0  0  0  1  0  0  0  0  0  0
  186.9330  177.5450  147.4050 C   0  0  0  0  0  3  0  0  0  0  0  0
  186.6850  177.1310  144.9750 C   0  0  2  0  0  3  0  0  0  0  0  0
  185.1950  177.1810  145.2180 C   0  0  0  0  0  3  0  0  0  0  0  0
  185.6430  178.3260  147.3600 C   0  0  0  0  0  2  0  0  0  0  0  0
  188.6850  175.2130  147.2620 O   0  0  0  0  0  0  0  0  0  0  0  0
  189.1650  174.1470  146.6430 F   0  0  0  0  0  0  0  0  0  0  0  0
  2  3  1  1  0  0  0
  4  1  2  0  0  0  0
  4  6  1  0  0  0  0
  5 10  2  0  0  0  0
  5  7  1  0  0  0  0
  6  2  1  0  0  0  0
  7  2  1  0  0  0  0
  8 11  1  6  0  0  0
  8  4  1  0  0  0  0
  8  1  1  0  0  0  0
  8  5  1  0  0  0  0
  9 27  1  0  0  0  0
 10  9  2  0  0  0  0
 12 11  2  0  0  0  0
 13 14  1  0  0  0  0
 14 12  1  1  0  0  0
 15 17  1  0  0  0  0
 15 13  1  0  0  0  0
 16 14  1  0  0  0  0
 17 18  1  6  0  0  0
 17 16  1  0  0  0  0
 20 19  1  6  0  0  0
 20 18  1  0  0  0  0
 21 20  1  0  0  0  0
 22 21  2  0  0  0  0
 23 21  1  0  0  0  0
 23 25  1  0  0  0  0
 24 23  1  0  0  0  0
 27 26  1  1  0  0  0
 28 27  1  0  0  0  0
 28 36  1  1  0  0  0
 29 35  1  0  0  0  0
 30 28  1  0  0  0  0
 30 32  2  0  0  0  0
 33 31  1  1  0  0  0
 33 34  1  0  0  0  0
 33 30  1  0  0  0  0
 34 29  2  0  0  0  0
 35 32  1  0  0  0  0
 37 36  1  0  0  0  0
M  END
>  <MODEL>
8

>  <REMARK>
 VINA RESULT:      -6.7      5.154      9.800
  Name = 
  10 active torsions:
  status: ('A' for Active; 'I' for Inactive)
    1  A    between atoms: C_1  and  C_27
    2  A    between atoms: C_7  and  C_11
    3  A    between atoms: C_7  and  C_32
    4  A    between atoms: C_9  and  C_29
    5  A    between atoms: C_14  and  N_28
    6  A    between atoms: C_17  and  C_32
    7  A    between atoms: C_17  and  C_37
    8  A    between atoms: C_19  and  C_29
    9  A    between atoms: C_19  and  C_31
   10  A    between atoms: O_20  and  C_29
                            x       y       z     vdW  Elec       q    Type
                         _______ _______ _______ _____ _____    ______ ____

>  <TORSDO>
F 10

$$$$
=
 OpenBabel11062421563D

 37 40  0  0  1  0  0  0  0  0999 V2000
  189.6580  172.1320  144.4790 N   0  0  0  0  0  0  0  0  0  0  0  0
  189.6780  172.2860  140.9000 C   0  0  2  0  0  3  0  0  0  0  0  0
  189.6350  171.8800  139.5370 N   0  0  0  0  0  1  0  0  0  0  0  0
  189.9100  171.9880  143.1090 C   0  0  0  0  0  0  0  0  0  0  0  0
  189.3890  174.0310  142.7750 C   0  0  0  0  0  0  0  0  0  0  0  0
  189.8750  171.3930  141.8340 N   0  0  0  0  0  2  0  0  0  0  0  0
  189.4510  173.7760  141.2500 C   0  0  0  0  0  2  0  0  0  0  0  0
  190.1810  173.1570  143.7340 C   0  0  1  0  0  0  0  0  0  0  0  0
  188.4100  176.2980  143.6170 C   0  0  0  0  0  3  0  0  0  0  0  0
  188.9020  175.1640  143.2000 C   0  0  0  0  0  0  0  0  0  0  0  0
  191.6690  173.3400  143.7870 C   0  0  0  0  0  3  0  0  0  0  0  0
  192.1950  174.4530  144.1550 N   0  0  0  0  0  0  0  0  0  0  0  0
  193.9740  176.0540  144.4860 C   0  0  0  0  0  2  0  0  0  0  0  0
  193.6250  174.6120  144.1950 C   0  0  1  0  0  3  0  0  0  0  0  0
  195.3130  176.0060  145.1900 C   0  0  0  0  0  2  0  0  0  0  0  0
  194.2270  173.8130  145.3360 C   0  0  0  0  0  2  0  0  0  0  0  0
  195.3790  174.6480  145.8710 C   0  0  1  0  0  3  0  0  0  0  0  0
  196.7320  173.9620  145.6690 C   0  0  0  0  0  2  0  0  0  0  0  0
  197.6680  171.7580  144.9850 C   0  0  0  0  0  1  0  0  0  0  0  0
  196.7130  172.8710  144.5970 C   0  0  2  0  0  3  0  0  0  0  0  0
  197.0770  173.4160  143.2490 C   0  0  0  0  0  0  0  0  0  0  0  0
  197.9340  174.2830  143.1380 O   0  0  0  0  0  0  0  0  0  0  0  0
  196.3910  172.8820  142.0350 C   0  0  0  0  0  3  0  0  0  0  0  0
  197.2100  171.9760  141.3870 F   0  0  0  0  0  0  0  0  0  0  0  0
  195.2100  172.2630  142.3970 F   0  0  0  0  0  0  0  0  0  0  0  0
  186.9570  176.7110  141.6740 C   0  0  0  0  0  1  0  0  0  0  0  0
  187.0500  176.7400  143.1920 C   0  0  2  0  0  3  0  0  0  0  0  0
  186.7200  178.1250  143.7670 C   0  0  2  0  0  3  0  0  0  0  0  0
  184.9280  178.6710  147.6280 C   0  0  0  0  0  3  0  0  0  0  0  0
  186.0510  178.0440  145.1090 C   0  0  0  0  0  0  0  0  0  0  0  0
  187.1110  176.5820  146.6540 O   0  0  0  0  0  1  0  0  0  0  0  0
  184.7110  178.1080  145.2260 C   0  0  0  0  0  3  0  0  0  0  0  0
  186.9130  177.9280  146.3450 C   0  0  2  0  0  3  0  0  0  0  0  0
  186.2650  178.6240  147.5190 C   0  0  0  0  0  3  0  0  0  0  0  0
  184.0610  178.0160  146.5840 C   0  0  0  0  0  2  0  0  0  0  0  0
  185.9640  178.8960  142.8760 O   0  0  0  0  0  0  0  0  0  0  0  0
  185.9730  180.1120  143.3970 F   0  0  0  0  0  0  0  0  0  0  0  0
  2  3  1  1  0  0  0
  2  7  1  0  0  0  0
  2  6  1  0  0  0  0
  4  8  1  0  0  0  0
  4  1  2  0  0  0  0
  5 10  2  0  0  0  0
  5  8  1  0  0  0  0
  6  4  1  0  0  0  0
  7  5  1  0  0  0  0
  8 11  1  1  0  0  0
  8  1  1  0  0  0  0
 10  9  2  0  0  0  0
 11 12  2  0  0  0  0
 13 15  1  0  0  0  0
 14 12  1  1  0  0  0
 14 13  1  0  0  0  0
 14 16  1  0  0  0  0
 15 17  1  0  0  0  0
 16 17  1  0  0  0  0
 17 18  1  6  0  0  0
 20 19  1  1  0  0  0
 20 18  1  0  0  0  0
 21 20  1  0  0  0  0
 22 21  2  0  0  0  0
 23 25  1  0  0  0  0
 23 21  1  0  0  0  0
 24 23  1  0  0  0  0
 27 26  1  6  0  0  0
 27  9  1  0  0  0  0
 27 28  1  0  0  0  0
 28 36  1  6  0  0  0
 28 30  1  0  0  0  0
 30 32  2  0  0  0  0
 30 33  1  0  0  0  0
 32 35  1  0  0  0  0
 33 31  1  1  0  0  0
 33 34  1  0  0  0  0
 34 29  2  0  0  0  0
 35 29  1  0  0  0  0
 36 37  1  0  0  0  0
M  END
>  <MODEL>
9

>  <REMARK>
 VINA RESULT:      -6.6      3.334     10.273
  Name = 
  10 active torsions:
  status: ('A' for Active; 'I' for Inactive)
    1  A    between atoms: C_1  and  C_27
    2  A    between atoms: C_7  and  C_11
    3  A    between atoms: C_7  and  C_32
    4  A    between atoms: C_9  and  C_29
    5  A    between atoms: C_14  and  N_28
    6  A    between atoms: C_17  and  C_32
    7  A    between atoms: C_17  and  C_37
    8  A    between atoms: C_19  and  C_29
    9  A    between atoms: C_19  and  C_31
   10  A    between atoms: O_20  and  C_29
                            x       y       z     vdW  Elec       q    Type
                         _______ _______ _______ _____ _____    ______ ____

>  <TORSDO>
F 10

$$$$
