=
 OpenBabel11062421203D

 51 58  0  0  1  0  0  0  0  0999 V2000
  192.8800  171.8530  139.6380 C   0  0  0  0  0  0  0  0  0  0  0  0
  194.9720  176.1880  141.4030 C   0  0  0  0  0  0  0  0  0  0  0  0
  194.0010  172.5590  139.1990 C   0  0  0  0  0  3  0  0  0  0  0  0
  193.4960  174.3770  140.7520 C   0  0  0  0  0  0  0  0  0  0  0  0
  192.3660  173.6580  141.1680 C   0  0  0  0  0  3  0  0  0  0  0  0
  196.7230  174.3900  140.0970 C   0  0  0  0  0  2  0  0  0  0  0  0
  193.7670  175.6930  141.4040 C   0  0  0  0  0  0  0  0  0  0  0  0
  197.2180  175.7760  140.5290 C   0  0  0  0  0  2  0  0  0  0  0  0
  194.3230  173.8100  139.7360 C   0  0  0  0  0  0  0  0  0  0  0  0
  196.2130  176.5770  141.3160 C   0  0  0  0  0  3  0  0  0  0  0  0
  192.0530  172.4130  140.6220 C   0  0  0  0  0  0  0  0  0  0  0  0
  190.9160  171.7450  141.0610 O   0  0  0  0  0  1  0  0  0  0  0  0
  195.5260  174.4990  139.1580 C   0  0  0  0  0  2  0  0  0  0  0  0
  192.5690  170.5150  139.0330 C   0  0  0  0  0  2  0  0  0  0  0  0
  192.6510  170.9740  135.6790 S   0  0  0  0  0  0  0  0  0  0  0  0
  190.2150  169.8030  138.6500 C   0  0  0  0  0  1  0  0  0  0  0  0
  191.4020  170.5420  138.0330 C   0  0  1  0  0  0  0  0  0  0  0  0
  191.0800  171.9360  137.6640 N   0  0  0  0  0  0  0  0  0  0  0  0
  191.8330  169.7980  136.7860 C   0  0  0  0  0  2  0  0  0  0  0  0
  192.0710  172.3760  136.6820 C   0  0  0  0  0  2  0  0  0  0  0  0
  189.7720  172.0500  137.0210 C   0  0  0  0  0  2  0  0  0  0  0  0
  188.2830  173.4410  138.8870 C   0  0  1  0  0  3  0  0  0  0  0  0
  188.0610  174.2480  137.7790 C   0  0  0  0  0  0  0  0  0  0  0  0
  188.9550  173.0070  137.7440 N   0  0  0  0  0  0  0  0  0  0  0  0
  187.5310  175.2440  137.2190 O   0  0  0  0  0  0  0  0  0  0  0  0
  189.1830  174.0720  139.7490 O   0  0  0  0  0  0  0  0  0  0  0  0
  189.1890  175.1150  141.8860 C   0  0  0  0  0  2  0  0  0  0  0  0
  188.2230  173.9510  141.9130 C   0  0  0  0  0  2  0  0  0  0  0  0
  188.3800  174.7730  140.6500 C   0  0  0  0  0  3  0  0  0  0  0  0
  192.7320  176.3880  142.2300 C   0  0  0  0  0  2  0  0  0  0  0  0
  193.1470  176.4120  143.6920 C   0  0  0  0  0  2  0  0  0  0  0  0
  191.7430  173.9300  144.6520 C   0  0  0  0  0  1  0  0  0  0  0  0
  187.2900  177.6280  144.7960 C   0  0  0  0  0  0  0  0  0  0  0  0
  185.2510  177.6290  143.3870 C   0  0  0  0  0  2  0  0  0  0  0  0
  188.5110  177.2120  144.9810 C   0  0  0  0  0  0  0  0  0  0  0  0
  185.1430  178.4600  145.7300 C   0  0  0  0  0  0  0  0  0  0  0  0
  189.7330  176.7940  145.1660 C   0  0  0  0  0  0  0  0  0  0  0  0
  190.0710  175.4540  145.7360 C   0  0  1  0  0  3  0  0  0  0  0  0
  186.7670  177.8090  143.4040 C   0  0  0  0  0  2  0  0  0  0  0  0
  191.9730  176.3830  144.5570 N   0  0  0  0  0  0  0  0  0  0  0  0
  191.5800  175.2450  145.4010 C   0  0  2  0  0  0  0  0  0  0  0  0
  191.2450  175.3040  147.7470 C   0  0  0  0  0  0  0  0  0  0  0  0
  186.4870  178.0070  145.9170 N   0  0  0  0  0  2  0  0  0  0  0  0
  193.3540  176.2880  146.9700 C   0  0  0  0  0  1  0  0  0  0  0  0
  189.9640  175.4810  147.1810 N   0  0  0  0  0  2  0  0  0  0  0  0
  190.8870  178.2930  143.6870 O   0  0  0  0  0  0  0  0  0  0  0  0
  184.4450  178.7780  146.7270 O   0  0  0  0  0  0  0  0  0  0  0  0
  184.5790  178.6070  144.3480 C   0  0  0  0  0  2  0  0  0  0  0  0
  190.8720  177.2630  144.4160 C   0  0  0  0  0  0  0  0  0  0  0  0
  192.3330  175.1780  146.7530 C   0  0  2  0  0  3  0  0  0  0  0  0
  191.4260  175.2270  148.9910 O   0  0  0  0  0  0  0  0  0  0  0  0
  1 11  1  0  0  0  0
  2  7  2  0  0  0  0
  3  1  2  0  0  0  0
  3  9  1  0  0  0  0
  4  5  1  0  0  0  0
  4  7  1  0  0  0  0
  6  8  1  0  0  0  0
  7 30  1  0  0  0  0
  8 10  1  0  0  0  0
  9  4  2  0  0  0  0
 10  2  2  0  0  0  0
 11 12  1  0  0  0  0
 11  5  2  0  0  0  0
 13  9  1  0  0  0  0
 13  6  1  0  0  0  0
 14  1  1  0  0  0  0
 15 20  1  0  0  0  0
 15 19  1  0  0  0  0
 17 16  1  1  0  0  0
 17 14  1  0  0  0  0
 18 17  1  0  0  0  0
 19 17  1  0  0  0  0
 20 18  1  0  0  0  0
 21 18  1  0  0  0  0
 21 24  1  0  0  0  0
 22 26  1  1  0  0  0
 23 22  1  0  0  0  0
 24 23  1  0  0  0  0
 24 22  1  0  0  0  0
 25 23  2  0  0  0  0
 26 29  1  0  0  0  0
 27 28  1  0  0  0  0
 29 27  1  0  0  0  0
 29 28  1  0  0  0  0
 30 31  1  0  0  0  0
 31 40  1  0  0  0  0
 33 35  2  0  0  0  0
 33 43  1  0  0  0  0
 34 39  1  0  0  0  0
 34 48  1  0  0  0  0
 35 37  2  0  0  0  0
 36 43  1  0  0  0  0
 36 47  2  0  0  0  0
 38 37  1  6  0  0  0
 38 45  1  0  0  0  0
 39 33  1  0  0  0  0
 40 41  1  0  0  0  0
 41 32  1  6  0  0  0
 41 38  1  0  0  0  0
 41 50  1  0  0  0  0
 42 51  2  0  0  0  0
 45 42  1  0  0  0  0
 46 49  2  0  0  0  0
 48 36  1  0  0  0  0
 49 40  1  0  0  0  0
 49 37  1  0  0  0  0
 50 44  1  6  0  0  0
 50 42  1  0  0  0  0
M  END
>  <MODEL>
1

>  <REMARK>
 VINA RESULT:      -8.1      0.000      0.000
  Name = 
  9 active torsions:
  status: ('A' for Active; 'I' for Inactive)
    1  A    between atoms: C_2  and  O_50
    2  A    between atoms: C_10  and  N_15
    3  A    between atoms: C_10  and  N_23
    4  A    between atoms: C_11  and  C_42
    5  A    between atoms: C_13  and  C_42
    6  A    between atoms: N_25  and  C_38
    7  A    between atoms: C_26  and  C_47
    8  A    between atoms: C_27  and  O_50
    9  A    between atoms: C_38  and  C_47
                            x       y       z     vdW  Elec       q    Type
                         _______ _______ _______ _____ _____    ______ ____

>  <TORSDO>
F 9

$$$$
=
 OpenBabel11062421203D

 51 58  0  0  1  0  0  0  0  0999 V2000
  193.2000  174.8680  145.8180 C   0  0  0  0  0  0  0  0  0  0  0  0
  197.1420  171.9890  144.2530 C   0  0  0  0  0  0  0  0  0  0  0  0
  193.3550  173.4810  145.8000 C   0  0  0  0  0  3  0  0  0  0  0  0
  195.4620  173.7060  144.5830 C   0  0  0  0  0  0  0  0  0  0  0  0
  195.2790  175.0970  144.5990 C   0  0  0  0  0  3  0  0  0  0  0  0
  195.4810  170.8650  146.2480 C   0  0  0  0  0  2  0  0  0  0  0  0
  196.6940  173.1680  143.9320 C   0  0  0  0  0  0  0  0  0  0  0  0
  196.5950  170.0290  145.6070 C   0  0  0  0  0  2  0  0  0  0  0  0
  194.4650  172.8860  145.1930 C   0  0  0  0  0  0  0  0  0  0  0  0
  197.4730  170.7920  144.6490 C   0  0  0  0  0  3  0  0  0  0  0  0
  194.1650  175.6780  145.2040 C   0  0  0  0  0  0  0  0  0  0  0  0
  194.0260  177.0610  145.1830 O   0  0  0  0  0  1  0  0  0  0  0  0
  194.5070  171.3840  145.1950 C   0  0  0  0  0  2  0  0  0  0  0  0
  191.9910  175.4660  146.4770 C   0  0  0  0  0  2  0  0  0  0  0  0
  190.6530  177.7080  144.3210 S   0  0  0  0  0  0  0  0  0  0  0  0
  190.3620  173.8720  145.4760 C   0  0  0  0  0  1  0  0  0  0  0  0
  190.7080  175.3520  145.6380 C   0  0  1  0  0  0  0  0  0  0  0  0
  189.6200  176.1300  146.2650 N   0  0  0  0  0  0  0  0  0  0  0  0
  190.9890  175.9300  144.2670 C   0  0  0  0  0  2  0  0  0  0  0  0
  189.8360  177.5390  145.9370 C   0  0  0  0  0  2  0  0  0  0  0  0
  188.3060  175.7720  145.7330 C   0  0  0  0  0  2  0  0  0  0  0  0
  186.5870  177.9320  145.8350 C   0  0  1  0  0  3  0  0  0  0  0  0
  186.4650  177.4880  147.1450 C   0  0  0  0  0  0  0  0  0  0  0  0
  187.3370  176.7870  146.1030 N   0  0  0  0  0  0  0  0  0  0  0  0
  185.9950  177.5820  148.3100 O   0  0  0  0  0  0  0  0  0  0  0  0
  185.4400  177.5850  145.1170 O   0  0  0  0  0  0  0  0  0  0  0  0
  183.9920  178.9700  143.8360 C   0  0  0  0  0  2  0  0  0  0  0  0
  185.1800  179.7910  144.2900 C   0  0  0  0  0  2  0  0  0  0  0  0
  184.6190  178.7110  145.1930 C   0  0  0  0  0  3  0  0  0  0  0  0
  197.5490  174.0200  143.0490 C   0  0  0  0  0  2  0  0  0  0  0  0
  197.6930  173.3840  141.6750 C   0  0  0  0  0  2  0  0  0  0  0  0
  196.7260  176.1640  141.0520 C   0  0  0  0  0  1  0  0  0  0  0  0
  191.7230  173.2990  140.5090 C   0  0  0  0  0  0  0  0  0  0  0  0
  189.7030  173.4570  141.9340 C   0  0  0  0  0  2  0  0  0  0  0  0
  192.9980  173.5270  140.3600 C   0  0  0  0  0  0  0  0  0  0  0  0
  189.4750  172.9560  139.5070 C   0  0  0  0  0  0  0  0  0  0  0  0
  194.2740  173.7590  140.2120 C   0  0  0  0  0  0  0  0  0  0  0  0
  194.8320  175.0850  139.8090 C   0  0  1  0  0  3  0  0  0  0  0  0
  191.1680  173.0330  141.8740 C   0  0  0  0  0  2  0  0  0  0  0  0
  196.5460  173.7140  140.8370 N   0  0  0  0  0  0  0  0  0  0  0  0
  196.3520  174.9990  140.1470 C   0  0  2  0  0  0  0  0  0  0  0  0
  196.0300  175.2910  137.8170 C   0  0  0  0  0  0  0  0  0  0  0  0
  190.8770  173.2010  139.3590 N   0  0  0  0  0  2  0  0  0  0  0  0
  197.9410  173.8830  138.4360 C   0  0  0  0  0  1  0  0  0  0  0  0
  194.7320  175.2580  138.3730 N   0  0  0  0  0  2  0  0  0  0  0  0
  195.1530  171.9160  141.4760 O   0  0  0  0  0  0  0  0  0  0  0  0
  188.7410  172.8840  138.4880 O   0  0  0  0  0  0  0  0  0  0  0  0
  188.8850  172.7320  140.8670 C   0  0  0  0  0  2  0  0  0  0  0  0
  195.3130  173.0180  140.8820 C   0  0  0  0  0  0  0  0  0  0  0  0
  197.1160  175.1100  138.8030 C   0  0  2  0  0  3  0  0  0  0  0  0
  196.2290  175.4920  136.5890 O   0  0  0  0  0  0  0  0  0  0  0  0
  1 14  1  0  0  0  0
  2 10  2  0  0  0  0
  3  1  1  0  0  0  0
  4  5  2  0  0  0  0
  4  9  1  0  0  0  0
  5 11  1  0  0  0  0
  7  2  2  0  0  0  0
  7  4  1  0  0  0  0
  8  6  1  0  0  0  0
  9 13  1  0  0  0  0
  9  3  2  0  0  0  0
 10  8  1  0  0  0  0
 11  1  2  0  0  0  0
 12 11  1  0  0  0  0
 13  6  1  0  0  0  0
 15 20  1  0  0  0  0
 17 16  1  6  0  0  0
 17 18  1  0  0  0  0
 17 14  1  0  0  0  0
 19 15  1  0  0  0  0
 19 17  1  0  0  0  0
 20 18  1  0  0  0  0
 21 24  1  0  0  0  0
 21 18  1  0  0  0  0
 22 26  1  6  0  0  0
 22 24  1  0  0  0  0
 22 23  1  0  0  0  0
 23 25  2  0  0  0  0
 24 23  1  0  0  0  0
 26 29  1  0  0  0  0
 27 28  1  0  0  0  0
 27 29  1  0  0  0  0
 28 29  1  0  0  0  0
 30  7  1  0  0  0  0
 31 30  1  0  0  0  0
 33 39  1  0  0  0  0
 35 33  2  0  0  0  0
 36 48  1  0  0  0  0
 37 35  2  0  0  0  0
 37 49  1  0  0  0  0
 38 45  1  6  0  0  0
 38 41  1  0  0  0  0
 38 37  1  0  0  0  0
 39 34  1  0  0  0  0
 40 49  1  0  0  0  0
 40 31  1  0  0  0  0
 41 40  1  0  0  0  0
 41 32  1  1  0  0  0
 42 45  1  0  0  0  0
 42 50  1  0  0  0  0
 43 36  1  0  0  0  0
 43 33  1  0  0  0  0
 47 36  2  0  0  0  0
 48 34  1  0  0  0  0
 49 46  2  0  0  0  0
 50 44  1  6  0  0  0
 50 41  1  0  0  0  0
 51 42  2  0  0  0  0
M  END
>  <MODEL>
2

>  <REMARK>
 VINA RESULT:      -7.8      3.310      8.179
  Name = 
  9 active torsions:
  status: ('A' for Active; 'I' for Inactive)
    1  A    between atoms: C_2  and  O_50
    2  A    between atoms: C_10  and  N_15
    3  A    between atoms: C_10  and  N_23
    4  A    between atoms: C_11  and  C_42
    5  A    between atoms: C_13  and  C_42
    6  A    between atoms: N_25  and  C_38
    7  A    between atoms: C_26  and  C_47
    8  A    between atoms: C_27  and  O_50
    9  A    between atoms: C_38  and  C_47
                            x       y       z     vdW  Elec       q    Type
                         _______ _______ _______ _____ _____    ______ ____

>  <TORSDO>
F 9

$$$$
=
 OpenBabel11062421203D

 51 58  0  0  1  0  0  0  0  0999 V2000
  191.9880  173.6510  144.5680 C   0  0  0  0  0  0  0  0  0  0  0  0
  196.8550  172.6150  143.3350 C   0  0  0  0  0  0  0  0  0  0  0  0
  193.1530  173.7520  145.3280 C   0  0  0  0  0  3  0  0  0  0  0  0
  194.4400  172.6850  143.5470 C   0  0  0  0  0  0  0  0  0  0  0  0
  193.2540  172.5790  142.8050 C   0  0  0  0  0  3  0  0  0  0  0  0
  196.4570  174.5590  145.3520 C   0  0  0  0  0  2  0  0  0  0  0  0
  195.7000  172.1710  142.9300 C   0  0  0  0  0  0  0  0  0  0  0  0
  197.8710  174.0720  145.0160 C   0  0  0  0  0  2  0  0  0  0  0  0
  194.3760  173.2790  144.8430 C   0  0  0  0  0  0  0  0  0  0  0  0
  197.9410  173.1260  143.8440 C   0  0  0  0  0  3  0  0  0  0  0  0
  192.0390  173.0510  143.3020 C   0  0  0  0  0  0  0  0  0  0  0  0
  190.8910  172.9140  142.5320 O   0  0  0  0  0  1  0  0  0  0  0  0
  195.5570  173.3990  145.7640 C   0  0  0  0  0  2  0  0  0  0  0  0
  190.6960  174.1690  145.1290 C   0  0  0  0  0  2  0  0  0  0  0  0
  190.2090  176.6940  147.3310 S   0  0  0  0  0  0  0  0  0  0  0  0
  190.9840  175.9880  143.4540 C   0  0  0  0  0  1  0  0  0  0  0  0
  190.4520  175.6610  144.8500 C   0  0  1  0  0  0  0  0  0  0  0  0
  189.0190  175.9800  145.0060 N   0  0  0  0  0  0  0  0  0  0  0  0
  191.2410  176.4640  145.8620 C   0  0  0  0  0  2  0  0  0  0  0  0
  188.7420  176.0950  146.4380 C   0  0  0  0  0  2  0  0  0  0  0  0
  188.6700  177.2680  144.4080 C   0  0  0  0  0  2  0  0  0  0  0  0
  186.0400  176.8410  143.6780 C   0  0  1  0  0  3  0  0  0  0  0  0
  186.5650  177.1690  142.4350 C   0  0  0  0  0  0  0  0  0  0  0  0
  187.3970  177.1570  143.7180 N   0  0  0  0  0  0  0  0  0  0  0  0
  186.4510  177.3470  141.1930 O   0  0  0  0  0  0  0  0  0  0  0  0
  185.2940  177.9170  144.1670 O   0  0  0  0  0  0  0  0  0  0  0  0
  184.0950  178.5440  146.1220 C   0  0  0  0  0  2  0  0  0  0  0  0
  185.5360  178.9830  146.2700 C   0  0  0  0  0  2  0  0  0  0  0  0
  185.2090  177.6940  145.5420 C   0  0  0  0  0  3  0  0  0  0  0  0
  195.6800  171.2930  141.7200 C   0  0  0  0  0  2  0  0  0  0  0  0
  196.5590  171.8750  140.6250 C   0  0  0  0  0  2  0  0  0  0  0  0
  196.2820  174.8650  140.8130 C   0  0  0  0  0  1  0  0  0  0  0  0
  191.2420  173.6280  138.2440 C   0  0  0  0  0  0  0  0  0  0  0  0
  188.9540  173.8620  139.1650 C   0  0  0  0  0  2  0  0  0  0  0  0
  192.5250  173.5640  138.4630 C   0  0  0  0  0  0  0  0  0  0  0  0
  189.3490  174.1660  136.7270 C   0  0  0  0  0  0  0  0  0  0  0  0
  193.8100  173.5020  138.6830 C   0  0  0  0  0  0  0  0  0  0  0  0
  194.6710  174.7040  138.8960 C   0  0  1  0  0  3  0  0  0  0  0  0
  190.2840  173.1230  139.2790 C   0  0  0  0  0  2  0  0  0  0  0  0
  195.7690  172.7110  139.7270 N   0  0  0  0  0  0  0  0  0  0  0  0
  195.9960  174.1460  139.5020 C   0  0  2  0  0  0  0  0  0  0  0  0
  196.4050  175.1770  137.4070 C   0  0  0  0  0  0  0  0  0  0  0  0
  190.7550  174.0840  136.9790 N   0  0  0  0  0  2  0  0  0  0  0  0
  197.8000  173.2200  137.8950 C   0  0  0  0  0  1  0  0  0  0  0  0
  195.0160  175.3080  137.6240 N   0  0  0  0  0  2  0  0  0  0  0  0
  193.9750  171.2120  139.3870 O   0  0  0  0  0  0  0  0  0  0  0  0
  188.9360  174.5800  135.6140 O   0  0  0  0  0  0  0  0  0  0  0  0
  188.3660  173.7090  137.7630 C   0  0  0  0  0  2  0  0  0  0  0  0
  194.4780  172.3620  139.2610 C   0  0  0  0  0  0  0  0  0  0  0  0
  197.1180  174.4510  138.4780 C   0  0  2  0  0  3  0  0  0  0  0  0
  196.9770  175.6720  136.3990 O   0  0  0  0  0  0  0  0  0  0  0  0
  1 14  1  0  0  0  0
  1  3  1  0  0  0  0
  2 10  2  0  0  0  0
  4  9  1  0  0  0  0
  5 11  1  0  0  0  0
  5  4  2  0  0  0  0
  6 13  1  0  0  0  0
  7  2  2  0  0  0  0
  7  4  1  0  0  0  0
  8  6  1  0  0  0  0
  9  3  2  0  0  0  0
  9 13  1  0  0  0  0
 10  8  1  0  0  0  0
 11  1  2  0  0  0  0
 12 11  1  0  0  0  0
 17 16  1  6  0  0  0
 17 18  1  0  0  0  0
 17 14  1  0  0  0  0
 17 19  1  0  0  0  0
 18 20  1  0  0  0  0
 19 15  1  0  0  0  0
 20 15  1  0  0  0  0
 21 18  1  0  0  0  0
 22 24  1  0  0  0  0
 22 26  1  1  0  0  0
 23 22  1  0  0  0  0
 23 24  1  0  0  0  0
 24 21  1  0  0  0  0
 25 23  2  0  0  0  0
 26 29  1  0  0  0  0
 27 28  1  0  0  0  0
 29 27  1  0  0  0  0
 29 28  1  0  0  0  0
 30  7  1  0  0  0  0
 31 30  1  0  0  0  0
 33 35  2  0  0  0  0
 33 39  1  0  0  0  0
 34 39  1  0  0  0  0
 35 37  2  0  0  0  0
 36 43  1  0  0  0  0
 36 48  1  0  0  0  0
 37 38  1  0  0  0  0
 37 49  1  0  0  0  0
 38 45  1  6  0  0  0
 38 41  1  0  0  0  0
 40 31  1  0  0  0  0
 41 40  1  0  0  0  0
 41 32  1  1  0  0  0
 42 45  1  0  0  0  0
 42 50  1  0  0  0  0
 43 33  1  0  0  0  0
 47 36  2  0  0  0  0
 48 34  1  0  0  0  0
 49 46  2  0  0  0  0
 49 40  1  0  0  0  0
 50 44  1  6  0  0  0
 50 41  1  0  0  0  0
 51 42  2  0  0  0  0
M  END
>  <MODEL>
3

>  <REMARK>
 VINA RESULT:      -7.4      3.315      7.988
  Name = 
  9 active torsions:
  status: ('A' for Active; 'I' for Inactive)
    1  A    between atoms: C_2  and  O_50
    2  A    between atoms: C_10  and  N_15
    3  A    between atoms: C_10  and  N_23
    4  A    between atoms: C_11  and  C_42
    5  A    between atoms: C_13  and  C_42
    6  A    between atoms: N_25  and  C_38
    7  A    between atoms: C_26  and  C_47
    8  A    between atoms: C_27  and  O_50
    9  A    between atoms: C_38  and  C_47
                            x       y       z     vdW  Elec       q    Type
                         _______ _______ _______ _____ _____    ______ ____

>  <TORSDO>
F 9

$$$$
=
 OpenBabel11062421203D

 51 58  0  0  1  0  0  0  0  0999 V2000
  192.9090  172.2260  139.3210 C   0  0  0  0  0  0  0  0  0  0  0  0
  195.3820  175.9630  141.8130 C   0  0  0  0  0  0  0  0  0  0  0  0
  194.2070  172.7150  139.1600 C   0  0  0  0  0  3  0  0  0  0  0  0
  193.7530  174.5180  140.7440 C   0  0  0  0  0  0  0  0  0  0  0  0
  192.4480  174.0210  140.8800 C   0  0  0  0  0  3  0  0  0  0  0  0
  196.9890  173.9170  140.7020 C   0  0  0  0  0  2  0  0  0  0  0  0
  194.1300  175.7200  141.5470 C   0  0  0  0  0  0  0  0  0  0  0  0
  197.6390  175.1530  141.3360 C   0  0  0  0  0  2  0  0  0  0  0  0
  194.6440  173.8480  139.8540 C   0  0  0  0  0  0  0  0  0  0  0  0
  196.6660  176.1000  141.9900 C   0  0  0  0  0  3  0  0  0  0  0  0
  192.0230  172.8910  140.1790 C   0  0  0  0  0  0  0  0  0  0  0  0
  190.7170  172.4440  140.3410 O   0  0  0  0  0  1  0  0  0  0  0  0
  196.0450  174.3100  139.5710 C   0  0  0  0  0  2  0  0  0  0  0  0
  192.4800  171.0090  138.5550 C   0  0  0  0  0  2  0  0  0  0  0  0
  190.9930  168.1950  139.7080 S   0  0  0  0  0  0  0  0  0  0  0  0
  194.5380  169.6110  138.4610 C   0  0  0  0  0  1  0  0  0  0  0  0
  193.1300  169.7060  139.0480 C   0  0  1  0  0  0  0  0  0  0  0  0
  193.1200  169.6580  140.5240 N   0  0  0  0  0  0  0  0  0  0  0  0
  192.3130  168.5450  138.5210 C   0  0  0  0  0  2  0  0  0  0  0  0
  191.7740  169.2720  140.9470 C   0  0  0  0  0  2  0  0  0  0  0  0
  194.0320  168.6450  141.0510 C   0  0  0  0  0  2  0  0  0  0  0  0
  195.7970  170.3470  142.3260 C   0  0  1  0  0  3  0  0  0  0  0  0
  196.0220  169.1950  143.0690 C   0  0  0  0  0  0  0  0  0  0  0  0
  194.9990  169.2720  141.9340 N   0  0  0  0  0  0  0  0  0  0  0  0
  196.6140  168.5620  143.9830 O   0  0  0  0  0  0  0  0  0  0  0  0
  195.0360  171.2450  143.0780 O   0  0  0  0  0  0  0  0  0  0  0  0
  195.5070  172.2160  145.1980 C   0  0  0  0  0  2  0  0  0  0  0  0
  195.3330  173.3230  144.1800 C   0  0  0  0  0  2  0  0  0  0  0  0
  195.9750  172.0130  143.7690 C   0  0  0  0  0  3  0  0  0  0  0  0
  193.1000  176.5660  142.2240 C   0  0  0  0  0  2  0  0  0  0  0  0
  193.3800  176.6520  143.7160 C   0  0  0  0  0  2  0  0  0  0  0  0
  191.8500  174.1530  144.4010 C   0  0  0  0  0  1  0  0  0  0  0  0
  187.4720  177.9430  144.3800 C   0  0  0  0  0  0  0  0  0  0  0  0
  185.5660  178.0760  142.8030 C   0  0  0  0  0  2  0  0  0  0  0  0
  188.6640  177.4880  144.6450 C   0  0  0  0  0  0  0  0  0  0  0  0
  185.2680  178.7710  145.1730 C   0  0  0  0  0  0  0  0  0  0  0  0
  189.8570  177.0300  144.9100 C   0  0  0  0  0  0  0  0  0  0  0  0
  190.1180  175.6520  145.4250 C   0  0  1  0  0  3  0  0  0  0  0  0
  187.0770  178.2180  142.9620 C   0  0  0  0  0  2  0  0  0  0  0  0
  192.1340  176.6020  144.4730 N   0  0  0  0  0  0  0  0  0  0  0  0
  191.6460  175.4260  145.2100 C   0  0  2  0  0  0  0  0  0  0  0  0
  191.1080  175.3570  147.5170 C   0  0  0  0  0  0  0  0  0  0  0  0
  186.5820  178.2760  145.4490 N   0  0  0  0  0  2  0  0  0  0  0  0
  193.2950  176.3320  146.9870 C   0  0  0  0  0  1  0  0  0  0  0  0
  189.8850  175.5970  146.8550 N   0  0  0  0  0  2  0  0  0  0  0  0
  191.1650  178.5840  143.6280 O   0  0  0  0  0  0  0  0  0  0  0  0
  184.4910  179.0490  146.1230 O   0  0  0  0  0  0  0  0  0  0  0  0
  184.8300  179.0120  143.7590 C   0  0  0  0  0  2  0  0  0  0  0  0
  191.0660  177.5150  144.2900 C   0  0  0  0  0  0  0  0  0  0  0  0
  192.2760  175.2630  146.6160 C   0  0  2  0  0  3  0  0  0  0  0  0
  191.1770  175.2040  148.7660 O   0  0  0  0  0  0  0  0  0  0  0  0
  1 11  1  0  0  0  0
  2 10  2  0  0  0  0
  3  1  2  0  0  0  0
  3  9  1  0  0  0  0
  4  5  1  0  0  0  0
  4  7  1  0  0  0  0
  6  8  1  0  0  0  0
  7  2  2  0  0  0  0
  7 30  1  0  0  0  0
  8 10  1  0  0  0  0
  9  4  2  0  0  0  0
 11 12  1  0  0  0  0
 11  5  2  0  0  0  0
 13  9  1  0  0  0  0
 13  6  1  0  0  0  0
 14 17  1  0  0  0  0
 14  1  1  0  0  0  0
 15 20  1  0  0  0  0
 17 16  1  6  0  0  0
 17 18  1  0  0  0  0
 18 20  1  0  0  0  0
 18 21  1  0  0  0  0
 19 17  1  0  0  0  0
 19 15  1  0  0  0  0
 21 24  1  0  0  0  0
 22 23  1  0  0  0  0
 22 26  1  1  0  0  0
 23 25  2  0  0  0  0
 24 22  1  0  0  0  0
 24 23  1  0  0  0  0
 26 29  1  0  0  0  0
 28 27  1  0  0  0  0
 29 28  1  0  0  0  0
 29 27  1  0  0  0  0
 30 31  1  0  0  0  0
 31 40  1  0  0  0  0
 33 35  2  0  0  0  0
 33 43  1  0  0  0  0
 34 39  1  0  0  0  0
 34 48  1  0  0  0  0
 35 37  2  0  0  0  0
 36 43  1  0  0  0  0
 36 47  2  0  0  0  0
 38 37  1  1  0  0  0
 38 45  1  0  0  0  0
 39 33  1  0  0  0  0
 40 41  1  0  0  0  0
 41 32  1  6  0  0  0
 41 38  1  0  0  0  0
 41 50  1  0  0  0  0
 42 51  2  0  0  0  0
 45 42  1  0  0  0  0
 46 49  2  0  0  0  0
 48 36  1  0  0  0  0
 49 40  1  0  0  0  0
 49 37  1  0  0  0  0
 50 44  1  1  0  0  0
 50 42  1  0  0  0  0
M  END
>  <MODEL>
4

>  <REMARK>
 VINA RESULT:      -7.4      2.391      4.051
  Name = 
  9 active torsions:
  status: ('A' for Active; 'I' for Inactive)
    1  A    between atoms: C_2  and  O_50
    2  A    between atoms: C_10  and  N_15
    3  A    between atoms: C_10  and  N_23
    4  A    between atoms: C_11  and  C_42
    5  A    between atoms: C_13  and  C_42
    6  A    between atoms: N_25  and  C_38
    7  A    between atoms: C_26  and  C_47
    8  A    between atoms: C_27  and  O_50
    9  A    between atoms: C_38  and  C_47
                            x       y       z     vdW  Elec       q    Type
                         _______ _______ _______ _____ _____    ______ ____

>  <TORSDO>
F 9

$$$$
=
 OpenBabel11062421203D

 51 58  0  0  1  0  0  0  0  0999 V2000
  190.4150  175.2160  146.2370 C   0  0  0  0  0  0  0  0  0  0  0  0
  195.1690  174.5010  144.4560 C   0  0  0  0  0  0  0  0  0  0  0  0
  191.5760  175.9640  146.4350 C   0  0  0  0  0  3  0  0  0  0  0  0
  192.8990  174.2680  145.2780 C   0  0  0  0  0  0  0  0  0  0  0  0
  191.7230  173.5240  145.1020 C   0  0  0  0  0  3  0  0  0  0  0  0
  194.4380  177.1690  145.0490 C   0  0  0  0  0  2  0  0  0  0  0  0
  194.1690  173.7110  144.7230 C   0  0  0  0  0  0  0  0  0  0  0  0
  195.8810  176.8320  144.6530 C   0  0  0  0  0  2  0  0  0  0  0  0
  192.8150  175.5130  145.9700 C   0  0  0  0  0  0  0  0  0  0  0  0
  196.0950  175.3950  144.2520 C   0  0  0  0  0  3  0  0  0  0  0  0
  190.4930  173.9830  145.5750 C   0  0  0  0  0  0  0  0  0  0  0  0
  189.3580  173.2040  145.3840 O   0  0  0  0  0  1  0  0  0  0  0  0
  194.0040  176.3780  146.2780 C   0  0  0  0  0  2  0  0  0  0  0  0
  189.1060  175.7360  146.7550 C   0  0  0  0  0  2  0  0  0  0  0  0
  186.2400  177.4750  147.2300 S   0  0  0  0  0  0  0  0  0  0  0  0
  189.8350  177.7310  145.4570 C   0  0  0  0  0  1  0  0  0  0  0  0
  188.6220  177.0120  146.0480 C   0  0  1  0  0  0  0  0  0  0  0  0
  187.6040  176.6760  145.0320 N   0  0  0  0  0  0  0  0  0  0  0  0
  187.9900  177.9150  147.0860 C   0  0  0  0  0  2  0  0  0  0  0  0
  186.3370  176.4540  145.7290 C   0  0  0  0  0  2  0  0  0  0  0  0
  187.3790  177.7710  144.0900 C   0  0  0  0  0  2  0  0  0  0  0  0
  188.0080  176.5470  141.6940 C   0  0  1  0  0  3  0  0  0  0  0  0
  186.8530  177.2150  141.3070 C   0  0  0  0  0  0  0  0  0  0  0  0
  187.4070  177.2600  142.7320 N   0  0  0  0  0  0  0  0  0  0  0  0
  185.9960  177.5400  140.4430 O   0  0  0  0  0  0  0  0  0  0  0  0
  187.7320  175.1860  141.8390 O   0  0  0  0  0  0  0  0  0  0  0  0
  189.1500  173.2770  141.8490 C   0  0  0  0  0  2  0  0  0  0  0  0
  190.0050  174.5220  141.9530 C   0  0  0  0  0  2  0  0  0  0  0  0
  188.7390  174.5410  141.1190 C   0  0  0  0  0  3  0  0  0  0  0  0
  194.2740  172.2860  144.2810 C   0  0  0  0  0  2  0  0  0  0  0  0
  194.8890  172.2030  142.8930 C   0  0  0  0  0  2  0  0  0  0  0  0
  194.8170  169.9270  140.9280 C   0  0  0  0  0  1  0  0  0  0  0  0
  191.8620  173.8710  137.8870 C   0  0  0  0  0  0  0  0  0  0  0  0
  192.5290  175.0020  135.7860 C   0  0  0  0  0  2  0  0  0  0  0  0
  192.2120  173.1780  138.9340 C   0  0  0  0  0  0  0  0  0  0  0  0
  190.1260  174.5380  136.2390 C   0  0  0  0  0  0  0  0  0  0  0  0
  192.5630  172.4820  139.9810 C   0  0  0  0  0  0  0  0  0  0  0  0
  192.7670  171.0020  139.9590 C   0  0  1  0  0  3  0  0  0  0  0  0
  192.8310  174.8320  137.2720 C   0  0  0  0  0  2  0  0  0  0  0  0
  193.8550  171.9850  141.8880 N   0  0  0  0  0  0  0  0  0  0  0  0
  193.5430  170.6850  141.2740 C   0  0  2  0  0  0  0  0  0  0  0  0
  191.4260  169.6190  141.2770 C   0  0  0  0  0  0  0  0  0  0  0  0
  190.5230  173.7870  137.3910 N   0  0  0  0  0  2  0  0  0  0  0  0
  192.2010  170.4020  143.4690 C   0  0  0  0  0  1  0  0  0  0  0  0
  191.4930  170.3160  140.0510 N   0  0  0  0  0  2  0  0  0  0  0  0
  193.4540  174.2480  141.3410 O   0  0  0  0  0  0  0  0  0  0  0  0
  188.9490  174.4460  135.8060 O   0  0  0  0  0  0  0  0  0  0  0  0
  191.0920  175.4750  135.5760 C   0  0  0  0  0  2  0  0  0  0  0  0
  193.2910  173.0200  141.1030 C   0  0  0  0  0  0  0  0  0  0  0  0
  192.6160  169.7920  142.1370 C   0  0  2  0  0  3  0  0  0  0  0  0
  190.4450  168.8890  141.5820 O   0  0  0  0  0  0  0  0  0  0  0  0
  1  3  1  0  0  0  0
  1 14  1  0  0  0  0
  2  7  2  0  0  0  0
  4  9  1  0  0  0  0
  5  4  2  0  0  0  0
  5 11  1  0  0  0  0
  6 13  1  0  0  0  0
  7  4  1  0  0  0  0
  8  6  1  0  0  0  0
  9 13  1  0  0  0  0
  9  3  2  0  0  0  0
 10  2  2  0  0  0  0
 10  8  1  0  0  0  0
 11  1  2  0  0  0  0
 12 11  1  0  0  0  0
 17 16  1  6  0  0  0
 17 14  1  0  0  0  0
 17 19  1  0  0  0  0
 18 20  1  0  0  0  0
 18 17  1  0  0  0  0
 19 15  1  0  0  0  0
 20 15  1  0  0  0  0
 21 18  1  0  0  0  0
 22 26  1  1  0  0  0
 22 24  1  0  0  0  0
 23 22  1  0  0  0  0
 23 24  1  0  0  0  0
 24 21  1  0  0  0  0
 25 23  2  0  0  0  0
 27 28  1  0  0  0  0
 29 26  1  0  0  0  0
 29 27  1  0  0  0  0
 29 28  1  0  0  0  0
 30  7  1  0  0  0  0
 31 30  1  0  0  0  0
 33 35  2  0  0  0  0
 34 39  1  0  0  0  0
 35 37  2  0  0  0  0
 36 43  1  0  0  0  0
 37 49  1  0  0  0  0
 38 37  1  1  0  0  0
 38 45  1  0  0  0  0
 38 41  1  0  0  0  0
 39 33  1  0  0  0  0
 40 31  1  0  0  0  0
 41 32  1  6  0  0  0
 41 40  1  0  0  0  0
 41 50  1  0  0  0  0
 42 51  2  0  0  0  0
 42 50  1  0  0  0  0
 43 33  1  0  0  0  0
 45 42  1  0  0  0  0
 47 36  2  0  0  0  0
 48 34  1  0  0  0  0
 48 36  1  0  0  0  0
 49 46  2  0  0  0  0
 49 40  1  0  0  0  0
 50 44  1  1  0  0  0
M  END
>  <MODEL>
5

>  <REMARK>
 VINA RESULT:      -7.3      3.276      7.828
  Name = 
  9 active torsions:
  status: ('A' for Active; 'I' for Inactive)
    1  A    between atoms: C_2  and  O_50
    2  A    between atoms: C_10  and  N_15
    3  A    between atoms: C_10  and  N_23
    4  A    between atoms: C_11  and  C_42
    5  A    between atoms: C_13  and  C_42
    6  A    between atoms: N_25  and  C_38
    7  A    between atoms: C_26  and  C_47
    8  A    between atoms: C_27  and  O_50
    9  A    between atoms: C_38  and  C_47
                            x       y       z     vdW  Elec       q    Type
                         _______ _______ _______ _____ _____    ______ ____

>  <TORSDO>
F 9

$$$$
=
 OpenBabel11062421203D

 51 58  0  0  1  0  0  0  0  0999 V2000
  196.3740  174.9760  138.8530 C   0  0  0  0  0  0  0  0  0  0  0  0
  195.5880  175.3390  143.9060 C   0  0  0  0  0  0  0  0  0  0  0  0
  197.2830  174.9720  139.9110 C   0  0  0  0  0  3  0  0  0  0  0  0
  195.4920  175.4970  141.4880 C   0  0  0  0  0  0  0  0  0  0  0  0
  194.5970  175.5110  140.4080 C   0  0  0  0  0  3  0  0  0  0  0  0
  197.9180  173.9540  143.0930 C   0  0  0  0  0  2  0  0  0  0  0  0
  194.9470  175.7580  142.8530 C   0  0  0  0  0  0  0  0  0  0  0  0
  197.6700  174.2460  144.5780 C   0  0  0  0  0  2  0  0  0  0  0  0
  196.8690  175.2280  141.2220 C   0  0  0  0  0  0  0  0  0  0  0  0
  196.3360  174.8840  144.8720 C   0  0  0  0  0  3  0  0  0  0  0  0
  195.0240  175.2580  139.1040 C   0  0  0  0  0  0  0  0  0  0  0  0
  194.0990  175.2940  138.0680 O   0  0  0  0  0  1  0  0  0  0  0  0
  197.9400  175.2410  142.2750 C   0  0  0  0  0  2  0  0  0  0  0  0
  196.8620  174.6990  137.4610 C   0  0  0  0  0  2  0  0  0  0  0  0
  196.2080  173.1540  134.5200 S   0  0  0  0  0  0  0  0  0  0  0  0
  197.8710  172.5210  138.1210 C   0  0  0  0  0  1  0  0  0  0  0  0
  196.9400  173.2030  137.1170 C   0  0  1  0  0  0  0  0  0  0  0  0
  195.5870  172.6130  137.0990 N   0  0  0  0  0  0  0  0  0  0  0  0
  197.5460  173.0680  135.7360 C   0  0  0  0  0  2  0  0  0  0  0  0
  194.9590  172.9800  135.8300 C   0  0  0  0  0  2  0  0  0  0  0  0
  195.6190  171.1520  137.1440 C   0  0  0  0  0  2  0  0  0  0  0  0
  193.8080  170.1410  138.9700 C   0  0  1  0  0  3  0  0  0  0  0  0
  192.9900  170.1900  137.8490 C   0  0  0  0  0  0  0  0  0  0  0  0
  194.4450  170.6600  137.8440 N   0  0  0  0  0  0  0  0  0  0  0  0
  191.8880  169.9990  137.2700 O   0  0  0  0  0  0  0  0  0  0  0  0
  193.4710  171.1810  139.8390 O   0  0  0  0  0  0  0  0  0  0  0  0
  193.9490  172.0300  142.0090 C   0  0  0  0  0  2  0  0  0  0  0  0
  195.1910  172.1510  141.1520 C   0  0  0  0  0  2  0  0  0  0  0  0
  194.2600  170.9680  140.9710 C   0  0  0  0  0  3  0  0  0  0  0  0
  193.5790  176.3290  143.0550 C   0  0  0  0  0  2  0  0  0  0  0  0
  192.5460  175.2170  143.1370 C   0  0  0  0  0  2  0  0  0  0  0  0
  190.9320  173.2820  144.7800 C   0  0  0  0  0  1  0  0  0  0  0  0
  187.0650  177.5690  144.3340 C   0  0  0  0  0  0  0  0  0  0  0  0
  184.9040  177.5650  143.1220 C   0  0  0  0  0  2  0  0  0  0  0  0
  188.2310  177.0200  144.5260 C   0  0  0  0  0  0  0  0  0  0  0  0
  185.1660  178.9250  145.1900 C   0  0  0  0  0  0  0  0  0  0  0  0
  189.3980  176.4670  144.7180 C   0  0  0  0  0  0  0  0  0  0  0  0
  189.6110  175.2620  145.5740 C   0  0  1  0  0  3  0  0  0  0  0  0
  186.4220  177.5020  142.9830 C   0  0  0  0  0  2  0  0  0  0  0  0
  191.4800  175.5770  144.0660 N   0  0  0  0  0  0  0  0  0  0  0  0
  191.0310  174.7440  145.1910 C   0  0  2  0  0  0  0  0  0  0  0  0
  190.9670  175.3990  147.4680 C   0  0  0  0  0  0  0  0  0  0  0  0
  186.4490  178.3210  145.3840 N   0  0  0  0  0  2  0  0  0  0  0  0
  193.0920  175.8280  146.3200 C   0  0  0  0  0  1  0  0  0  0  0  0
  189.6670  175.6400  146.9720 N   0  0  0  0  0  2  0  0  0  0  0  0
  190.5750  177.3790  142.8340 O   0  0  0  0  0  0  0  0  0  0  0  0
  184.6320  179.5730  146.1260 O   0  0  0  0  0  0  0  0  0  0  0  0
  184.4790  178.8340  143.8600 C   0  0  0  0  0  2  0  0  0  0  0  0
  190.5000  176.5630  143.7940 C   0  0  0  0  0  0  0  0  0  0  0  0
  191.9120  174.8750  146.4590 C   0  0  2  0  0  3  0  0  0  0  0  0
  191.2710  175.5870  148.6770 O   0  0  0  0  0  0  0  0  0  0  0  0
  1 11  2  0  0  0  0
  1  3  1  0  0  0  0
  2 10  2  0  0  0  0
  3  9  2  0  0  0  0
  4  7  1  0  0  0  0
  5  4  2  0  0  0  0
  6  8  1  0  0  0  0
  7 30  1  0  0  0  0
  7  2  2  0  0  0  0
  8 10  1  0  0  0  0
  9  4  1  0  0  0  0
  9 13  1  0  0  0  0
 11  5  1  0  0  0  0
 12 11  1  0  0  0  0
 13  6  1  0  0  0  0
 14  1  1  0  0  0  0
 15 19  1  0  0  0  0
 15 20  1  0  0  0  0
 17 14  1  0  0  0  0
 17 16  1  1  0  0  0
 18 17  1  0  0  0  0
 18 21  1  0  0  0  0
 19 17  1  0  0  0  0
 20 18  1  0  0  0  0
 21 24  1  0  0  0  0
 22 26  1  1  0  0  0
 23 22  1  0  0  0  0
 24 23  1  0  0  0  0
 24 22  1  0  0  0  0
 25 23  2  0  0  0  0
 26 29  1  0  0  0  0
 28 27  1  0  0  0  0
 29 28  1  0  0  0  0
 29 27  1  0  0  0  0
 30 31  1  0  0  0  0
 31 40  1  0  0  0  0
 33 35  2  0  0  0  0
 33 43  1  0  0  0  0
 34 48  1  0  0  0  0
 35 37  2  0  0  0  0
 36 43  1  0  0  0  0
 36 47  2  0  0  0  0
 38 37  1  6  0  0  0
 38 45  1  0  0  0  0
 39 34  1  0  0  0  0
 39 33  1  0  0  0  0
 40 41  1  0  0  0  0
 41 32  1  6  0  0  0
 41 38  1  0  0  0  0
 41 50  1  0  0  0  0
 42 51  2  0  0  0  0
 45 42  1  0  0  0  0
 46 49  2  0  0  0  0
 48 36  1  0  0  0  0
 49 40  1  0  0  0  0
 49 37  1  0  0  0  0
 50 44  1  6  0  0  0
 50 42  1  0  0  0  0
M  END
>  <MODEL>
6

>  <REMARK>
 VINA RESULT:      -7.2      2.580      3.960
  Name = 
  9 active torsions:
  status: ('A' for Active; 'I' for Inactive)
    1  A    between atoms: C_2  and  O_50
    2  A    between atoms: C_10  and  N_15
    3  A    between atoms: C_10  and  N_23
    4  A    between atoms: C_11  and  C_42
    5  A    between atoms: C_13  and  C_42
    6  A    between atoms: N_25  and  C_38
    7  A    between atoms: C_26  and  C_47
    8  A    between atoms: C_27  and  O_50
    9  A    between atoms: C_38  and  C_47
                            x       y       z     vdW  Elec       q    Type
                         _______ _______ _______ _____ _____    ______ ____

>  <TORSDO>
F 9

$$$$
=
 OpenBabel11062421203D

 51 58  0  0  1  0  0  0  0  0999 V2000
  196.6220  174.4460  140.0590 C   0  0  0  0  0  0  0  0  0  0  0  0
  195.0830  175.3230  144.8700 C   0  0  0  0  0  0  0  0  0  0  0  0
  197.3000  174.2850  141.2680 C   0  0  0  0  0  3  0  0  0  0  0  0
  195.4560  175.3410  142.4740 C   0  0  0  0  0  0  0  0  0  0  0  0
  194.7980  175.5070  141.2460 C   0  0  0  0  0  3  0  0  0  0  0  0
  197.0850  173.3530  144.5320 C   0  0  0  0  0  2  0  0  0  0  0  0
  194.7650  175.8190  143.7090 C   0  0  0  0  0  0  0  0  0  0  0  0
  196.6630  173.7940  145.9390 C   0  0  0  0  0  2  0  0  0  0  0  0
  196.7420  174.7220  142.4740 C   0  0  0  0  0  0  0  0  0  0  0  0
  195.5070  174.7610  145.9670 C   0  0  0  0  0  3  0  0  0  0  0  0
  195.3670  175.0700  140.0490 C   0  0  0  0  0  0  0  0  0  0  0  0
  194.6790  175.2670  138.8580 O   0  0  0  0  0  1  0  0  0  0  0  0
  197.5790  174.5380  143.7080 C   0  0  0  0  0  2  0  0  0  0  0  0
  197.2590  173.9650  138.7880 C   0  0  0  0  0  2  0  0  0  0  0  0
  196.4090  172.3360  135.9440 S   0  0  0  0  0  0  0  0  0  0  0  0
  197.9020  171.7090  139.6200 C   0  0  0  0  0  1  0  0  0  0  0  0
  197.1040  172.4540  138.5490 C   0  0  1  0  0  0  0  0  0  0  0  0
  195.6750  172.0840  138.5380 N   0  0  0  0  0  0  0  0  0  0  0  0
  197.7000  172.1280  137.1960 C   0  0  0  0  0  2  0  0  0  0  0  0
  195.1300  172.4530  137.2320 C   0  0  0  0  0  2  0  0  0  0  0  0
  195.4750  170.6430  138.6840 C   0  0  0  0  0  2  0  0  0  0  0  0
  192.9440  170.4600  139.7770 C   0  0  1  0  0  3  0  0  0  0  0  0
  193.6840  169.9780  140.8480 C   0  0  0  0  0  0  0  0  0  0  0  0
  194.3120  170.3940  139.5170 N   0  0  0  0  0  0  0  0  0  0  0  0
  193.7770  169.5330  142.0230 O   0  0  0  0  0  0  0  0  0  0  0  0
  192.2950  169.3980  139.1440 O   0  0  0  0  0  0  0  0  0  0  0  0
  190.6850  169.1950  137.4050 C   0  0  0  0  0  2  0  0  0  0  0  0
  191.3760  170.5350  137.2770 C   0  0  0  0  0  2  0  0  0  0  0  0
  191.1110  169.9490  138.6500 C   0  0  0  0  0  3  0  0  0  0  0  0
  193.5760  176.7240  143.6420 C   0  0  0  0  0  2  0  0  0  0  0  0
  192.9650  176.9020  145.0220 C   0  0  0  0  0  2  0  0  0  0  0  0
  191.7420  174.1810  144.6310 C   0  0  0  0  0  1  0  0  0  0  0  0
  187.4570  177.4390  142.4960 C   0  0  0  0  0  0  0  0  0  0  0  0
  186.6600  177.5820  140.1550 C   0  0  0  0  0  2  0  0  0  0  0  0
  188.3940  177.0840  143.3300 C   0  0  0  0  0  0  0  0  0  0  0  0
  185.0600  177.9050  142.0340 C   0  0  0  0  0  0  0  0  0  0  0  0
  189.3310  176.7260  144.1650 C   0  0  0  0  0  0  0  0  0  0  0  0
  189.5100  175.3260  144.6560 C   0  0  1  0  0  3  0  0  0  0  0  0
  187.8190  177.8640  141.1060 C   0  0  0  0  0  2  0  0  0  0  0  0
  191.5360  176.6120  144.9900 N   0  0  0  0  0  0  0  0  0  0  0  0
  190.9390  175.3000  145.2790 C   0  0  2  0  0  0  0  0  0  0  0  0
  189.2990  174.8520  146.9310 C   0  0  0  0  0  0  0  0  0  0  0  0
  186.1000  177.5220  142.9400 N   0  0  0  0  0  2  0  0  0  0  0  0
  191.2450  176.1240  147.7140 C   0  0  0  0  0  1  0  0  0  0  0  0
  188.5790  175.0480  145.7330 N   0  0  0  0  0  2  0  0  0  0  0  0
  190.8350  178.5760  143.8780 O   0  0  0  0  0  0  0  0  0  0  0  0
  183.8700  177.9610  142.4350 O   0  0  0  0  0  0  0  0  0  0  0  0
  185.3900  178.2910  140.6230 C   0  0  0  0  0  2  0  0  0  0  0  0
  190.5850  177.4200  144.3190 C   0  0  0  0  0  0  0  0  0  0  0  0
  190.7620  175.0120  146.7920 C   0  0  2  0  0  3  0  0  0  0  0  0
  188.7320  174.5360  148.0110 O   0  0  0  0  0  0  0  0  0  0  0  0
  1  3  1  0  0  0  0
  2 10  2  0  0  0  0
  3  9  2  0  0  0  0
  4  7  1  0  0  0  0
  5  4  2  0  0  0  0
  6  8  1  0  0  0  0
  7  2  2  0  0  0  0
  8 10  1  0  0  0  0
  9  4  1  0  0  0  0
  9 13  1  0  0  0  0
 11  1  2  0  0  0  0
 11  5  1  0  0  0  0
 12 11  1  0  0  0  0
 13  6  1  0  0  0  0
 14  1  1  0  0  0  0
 15 19  1  0  0  0  0
 15 20  1  0  0  0  0
 17 14  1  0  0  0  0
 17 16  1  1  0  0  0
 18 17  1  0  0  0  0
 18 21  1  0  0  0  0
 19 17  1  0  0  0  0
 20 18  1  0  0  0  0
 21 24  1  0  0  0  0
 22 26  1  6  0  0  0
 22 23  1  0  0  0  0
 23 25  2  0  0  0  0
 24 22  1  0  0  0  0
 24 23  1  0  0  0  0
 27 29  1  0  0  0  0
 28 27  1  0  0  0  0
 28 29  1  0  0  0  0
 29 26  1  0  0  0  0
 30  7  1  0  0  0  0
 30 31  1  0  0  0  0
 33 43  1  0  0  0  0
 33 35  2  0  0  0  0
 34 48  1  0  0  0  0
 34 39  1  0  0  0  0
 35 37  2  0  0  0  0
 36 47  2  0  0  0  0
 36 43  1  0  0  0  0
 37 49  1  0  0  0  0
 38 37  1  1  0  0  0
 38 41  1  0  0  0  0
 38 45  1  0  0  0  0
 39 33  1  0  0  0  0
 40 31  1  0  0  0  0
 40 41  1  0  0  0  0
 41 32  1  6  0  0  0
 41 50  1  0  0  0  0
 42 51  2  0  0  0  0
 45 42  1  0  0  0  0
 46 49  2  0  0  0  0
 48 36  1  0  0  0  0
 49 40  1  0  0  0  0
 50 42  1  0  0  0  0
 50 44  1  1  0  0  0
M  END
>  <MODEL>
7

>  <REMARK>
 VINA RESULT:      -7.1      2.661      4.454
  Name = 
  9 active torsions:
  status: ('A' for Active; 'I' for Inactive)
    1  A    between atoms: C_2  and  O_50
    2  A    between atoms: C_10  and  N_15
    3  A    between atoms: C_10  and  N_23
    4  A    between atoms: C_11  and  C_42
    5  A    between atoms: C_13  and  C_42
    6  A    between atoms: N_25  and  C_38
    7  A    between atoms: C_26  and  C_47
    8  A    between atoms: C_27  and  O_50
    9  A    between atoms: C_38  and  C_47
                            x       y       z     vdW  Elec       q    Type
                         _______ _______ _______ _____ _____    ______ ____

>  <TORSDO>
F 9

$$$$
=
 OpenBabel11062421203D

 51 58  0  0  1  0  0  0  0  0999 V2000
  191.3130  171.9920  140.1900 C   0  0  0  0  0  0  0  0  0  0  0  0
  195.3580  174.0560  142.5690 C   0  0  0  0  0  0  0  0  0  0  0  0
  192.6290  171.5380  140.2940 C   0  0  0  0  0  3  0  0  0  0  0  0
  193.2920  173.6270  141.3740 C   0  0  0  0  0  0  0  0  0  0  0  0
  191.9670  174.0700  141.2470 C   0  0  0  0  0  3  0  0  0  0  0  0
  195.3720  171.2420  142.2810 C   0  0  0  0  0  2  0  0  0  0  0  0
  194.2750  174.5400  142.0310 C   0  0  0  0  0  0  0  0  0  0  0  0
  196.6000  171.9690  142.8440 C   0  0  0  0  0  2  0  0  0  0  0  0
  193.6230  172.3320  140.8740 C   0  0  0  0  0  0  0  0  0  0  0  0
  196.4060  173.4490  143.0500 C   0  0  0  0  0  3  0  0  0  0  0  0
  190.9850  173.2700  140.6620 C   0  0  0  0  0  0  0  0  0  0  0  0
  189.6890  173.7590  140.5500 O   0  0  0  0  0  1  0  0  0  0  0  0
  195.0130  171.7610  140.8930 C   0  0  0  0  0  2  0  0  0  0  0  0
  190.2780  171.1090  139.5570 C   0  0  0  0  0  2  0  0  0  0  0  0
  191.1810  169.0580  137.0190 S   0  0  0  0  0  0  0  0  0  0  0  0
  189.0190  172.3500  137.8050 C   0  0  0  0  0  1  0  0  0  0  0  0
  190.1240  171.3210  138.0420 C   0  0  1  0  0  0  0  0  0  0  0  0
  191.4170  171.7210  137.4510 N   0  0  0  0  0  0  0  0  0  0  0  0
  189.6940  170.0070  137.4240 C   0  0  0  0  0  2  0  0  0  0  0  0
  192.2310  170.5140  137.3060 C   0  0  0  0  0  2  0  0  0  0  0  0
  191.2610  172.2850  136.1110 C   0  0  0  0  0  2  0  0  0  0  0  0
  191.8470  174.8920  136.8140 C   0  0  1  0  0  3  0  0  0  0  0  0
  191.2680  175.1210  135.5730 C   0  0  0  0  0  0  0  0  0  0  0  0
  191.4600  173.7220  136.1610 N   0  0  0  0  0  0  0  0  0  0  0  0
  190.8800  175.8900  134.6540 O   0  0  0  0  0  0  0  0  0  0  0  0
  193.2320  175.0460  136.7180 O   0  0  0  0  0  0  0  0  0  0  0  0
  195.1950  174.9260  138.0550 C   0  0  0  0  0  2  0  0  0  0  0  0
  194.7960  173.5250  137.6440 C   0  0  0  0  0  2  0  0  0  0  0  0
  193.7280  174.5620  137.9300 C   0  0  0  0  0  3  0  0  0  0  0  0
  193.9700  175.9850  142.2620 C   0  0  0  0  0  2  0  0  0  0  0  0
  194.1400  176.3360  143.7320 C   0  0  0  0  0  2  0  0  0  0  0  0
  192.5550  174.1950  145.1300 C   0  0  0  0  0  1  0  0  0  0  0  0
  188.2030  177.6370  143.4730 C   0  0  0  0  0  0  0  0  0  0  0  0
  186.4230  177.1680  141.8150 C   0  0  0  0  0  2  0  0  0  0  0  0
  189.3700  177.3310  143.9660 C   0  0  0  0  0  0  0  0  0  0  0  0
  185.9470  178.6370  143.7660 C   0  0  0  0  0  0  0  0  0  0  0  0
  190.5380  177.0210  144.4590 C   0  0  0  0  0  0  0  0  0  0  0  0
  190.7540  175.9150  145.4400 C   0  0  1  0  0  3  0  0  0  0  0  0
  187.9180  177.3920  142.0240 C   0  0  0  0  0  2  0  0  0  0  0  0
  192.8390  176.5220  144.3660 N   0  0  0  0  0  0  0  0  0  0  0  0
  192.2940  175.6650  145.4280 C   0  0  2  0  0  0  0  0  0  0  0  0
  191.5810  176.3880  147.5700 C   0  0  0  0  0  0  0  0  0  0  0  0
  187.2340  178.2990  144.2920 N   0  0  0  0  0  2  0  0  0  0  0  0
  193.8050  177.1700  146.8940 C   0  0  0  0  0  1  0  0  0  0  0  0
  190.4120  176.3540  146.7780 N   0  0  0  0  0  2  0  0  0  0  0  0
  191.9440  178.0650  142.8160 O   0  0  0  0  0  0  0  0  0  0  0  0
  185.1010  179.2080  144.5010 O   0  0  0  0  0  0  0  0  0  0  0  0
  185.6190  178.3610  142.3290 C   0  0  0  0  0  2  0  0  0  0  0  0
  191.7920  177.2890  143.8000 C   0  0  0  0  0  0  0  0  0  0  0  0
  192.8140  176.0150  146.8450 C   0  0  2  0  0  3  0  0  0  0  0  0
  191.5540  176.6800  148.7960 O   0  0  0  0  0  0  0  0  0  0  0  0
  1  3  2  0  0  0  0
  1 11  1  0  0  0  0
  2 10  2  0  0  0  0
  3  9  1  0  0  0  0
  4  7  1  0  0  0  0
  5  4  1  0  0  0  0
  6  8  1  0  0  0  0
  7 30  1  0  0  0  0
  7  2  2  0  0  0  0
  8 10  1  0  0  0  0
  9 13  1  0  0  0  0
  9  4  2  0  0  0  0
 11  5  2  0  0  0  0
 12 11  1  0  0  0  0
 13  6  1  0  0  0  0
 14  1  1  0  0  0  0
 15 20  1  0  0  0  0
 15 19  1  0  0  0  0
 17 16  1  6  0  0  0
 17 14  1  0  0  0  0
 18 17  1  0  0  0  0
 19 17  1  0  0  0  0
 20 18  1  0  0  0  0
 21 24  1  0  0  0  0
 21 18  1  0  0  0  0
 22 26  1  6  0  0  0
 23 24  1  0  0  0  0
 23 22  1  0  0  0  0
 24 22  1  0  0  0  0
 25 23  2  0  0  0  0
 26 29  1  0  0  0  0
 28 29  1  0  0  0  0
 28 27  1  0  0  0  0
 29 27  1  0  0  0  0
 30 31  1  0  0  0  0
 31 40  1  0  0  0  0
 33 35  2  0  0  0  0
 33 43  1  0  0  0  0
 34 39  1  0  0  0  0
 34 48  1  0  0  0  0
 35 37  2  0  0  0  0
 36 43  1  0  0  0  0
 36 47  2  0  0  0  0
 38 37  1  6  0  0  0
 38 45  1  0  0  0  0
 39 33  1  0  0  0  0
 40 41  1  0  0  0  0
 41 32  1  6  0  0  0
 41 38  1  0  0  0  0
 41 50  1  0  0  0  0
 42 51  2  0  0  0  0
 45 42  1  0  0  0  0
 46 49  2  0  0  0  0
 48 36  1  0  0  0  0
 49 40  1  0  0  0  0
 49 37  1  0  0  0  0
 50 44  1  6  0  0  0
 50 42  1  0  0  0  0
M  END
>  <MODEL>
8

>  <REMARK>
 VINA RESULT:      -7.0      1.911      2.834
  Name = 
  9 active torsions:
  status: ('A' for Active; 'I' for Inactive)
    1  A    between atoms: C_2  and  O_50
    2  A    between atoms: C_10  and  N_15
    3  A    between atoms: C_10  and  N_23
    4  A    between atoms: C_11  and  C_42
    5  A    between atoms: C_13  and  C_42
    6  A    between atoms: N_25  and  C_38
    7  A    between atoms: C_26  and  C_47
    8  A    between atoms: C_27  and  O_50
    9  A    between atoms: C_38  and  C_47
                            x       y       z     vdW  Elec       q    Type
                         _______ _______ _______ _____ _____    ______ ____

>  <TORSDO>
F 9

$$$$
=
 OpenBabel11062421203D

 51 58  0  0  1  0  0  0  0  0999 V2000
  189.8530  174.0200  141.8070 C   0  0  0  0  0  0  0  0  0  0  0  0
  191.0180  169.5760  139.5310 C   0  0  0  0  0  0  0  0  0  0  0  0
  190.0070  173.7100  140.4550 C   0  0  0  0  0  3  0  0  0  0  0  0
  190.7920  171.4690  141.0300 C   0  0  0  0  0  0  0  0  0  0  0  0
  190.6440  171.8060  142.3840 C   0  0  0  0  0  3  0  0  0  0  0  0
  189.5000  171.4100  138.0020 C   0  0  0  0  0  2  0  0  0  0  0  0
  191.2720  170.0940  140.6980 C   0  0  0  0  0  0  0  0  0  0  0  0
  190.0250  170.1180  137.3630 C   0  0  0  0  0  2  0  0  0  0  0  0
  190.4720  172.4550  140.0490 C   0  0  0  0  0  0  0  0  0  0  0  0
  190.7140  169.1850  138.3250 C   0  0  0  0  0  3  0  0  0  0  0  0
  190.1840  173.0630  142.7760 C   0  0  0  0  0  0  0  0  0  0  0  0
  190.0640  173.3500  144.1300 O   0  0  0  0  0  1  0  0  0  0  0  0
  190.6410  172.2470  138.5710 C   0  0  0  0  0  2  0  0  0  0  0  0
  189.3550  175.3800  142.1980 C   0  0  0  0  0  2  0  0  0  0  0  0
  187.4560  177.8590  140.8900 S   0  0  0  0  0  0  0  0  0  0  0  0
  187.2120  174.1200  142.3350 C   0  0  0  0  0  1  0  0  0  0  0  0
  187.8230  175.5120  142.1700 C   0  0  1  0  0  0  0  0  0  0  0  0
  187.3750  176.4620  143.2070 N   0  0  0  0  0  0  0  0  0  0  0  0
  187.4220  176.0510  140.8130 C   0  0  0  0  0  2  0  0  0  0  0  0
  187.6060  177.8150  142.7010 C   0  0  0  0  0  2  0  0  0  0  0  0
  185.9410  176.3530  143.4750 C   0  0  0  0  0  2  0  0  0  0  0  0
  185.8240  177.1550  146.1160 C   0  0  1  0  0  3  0  0  0  0  0  0
  184.7480  177.8770  145.6170 C   0  0  0  0  0  0  0  0  0  0  0  0
  185.6330  176.9850  144.7460 N   0  0  0  0  0  0  0  0  0  0  0  0
  183.7780  178.6680  145.7620 O   0  0  0  0  0  0  0  0  0  0  0  0
  186.9010  178.0160  146.3370 O   0  0  0  0  0  0  0  0  0  0  0  0
  189.1430  177.3810  146.8120 C   0  0  0  0  0  2  0  0  0  0  0  0
  188.3110  176.1320  146.6210 C   0  0  0  0  0  2  0  0  0  0  0  0
  187.6980  177.3550  147.2730 C   0  0  0  0  0  3  0  0  0  0  0  0
  191.8800  169.2040  141.7350 C   0  0  0  0  0  2  0  0  0  0  0  0
  193.3960  169.3120  141.7050 C   0  0  0  0  0  2  0  0  0  0  0  0
  192.6900  169.0430  144.6170 C   0  0  0  0  0  1  0  0  0  0  0  0
  193.7090  174.7400  144.4330 C   0  0  0  0  0  0  0  0  0  0  0  0
  192.0960  176.5970  144.7300 C   0  0  0  0  0  2  0  0  0  0  0  0
  193.9140  173.4760  144.1920 C   0  0  0  0  0  0  0  0  0  0  0  0
  194.4620  176.8800  145.4470 C   0  0  0  0  0  0  0  0  0  0  0  0
  194.1190  172.2090  143.9540 C   0  0  0  0  0  0  0  0  0  0  0  0
  194.0090  171.1430  144.9950 C   0  0  1  0  0  3  0  0  0  0  0  0
  192.5150  175.4260  143.8450 C   0  0  0  0  0  2  0  0  0  0  0  0
  193.8680  170.1830  142.7750 N   0  0  0  0  0  0  0  0  0  0  0  0
  193.9370  169.8070  144.1950 C   0  0  2  0  0  0  0  0  0  0  0  0
  195.8770  169.8620  145.5550 C   0  0  0  0  0  0  0  0  0  0  0  0
  194.6760  175.4930  145.1700 N   0  0  0  0  0  2  0  0  0  0  0  0
  196.1460  168.7150  143.4040 C   0  0  0  0  0  1  0  0  0  0  0  0
  195.2200  171.0900  145.7900 N   0  0  0  0  0  2  0  0  0  0  0  0
  193.8500  172.2150  141.5670 O   0  0  0  0  0  0  0  0  0  0  0  0
  195.3160  177.5260  146.1070 O   0  0  0  0  0  0  0  0  0  0  0  0
  193.2500  177.5810  144.9090 C   0  0  0  0  0  2  0  0  0  0  0  0
  193.9540  171.5930  142.6610 C   0  0  0  0  0  0  0  0  0  0  0  0
  195.2030  168.9940  144.5670 C   0  0  2  0  0  3  0  0  0  0  0  0
  196.9280  169.5350  146.1680 O   0  0  0  0  0  0  0  0  0  0  0  0
  1 14  1  0  0  0  0
  1 11  1  0  0  0  0
  2  7  2  0  0  0  0
  3  1  2  0  0  0  0
  4  5  1  0  0  0  0
  5 11  2  0  0  0  0
  6 13  1  0  0  0  0
  7  4  1  0  0  0  0
  7 30  1  0  0  0  0
  8  6  1  0  0  0  0
  8 10  1  0  0  0  0
  9  3  1  0  0  0  0
  9  4  2  0  0  0  0
 10  2  2  0  0  0  0
 11 12  1  0  0  0  0
 13  9  1  0  0  0  0
 15 20  1  0  0  0  0
 17 14  1  0  0  0  0
 17 16  1  1  0  0  0
 17 18  1  0  0  0  0
 18 21  1  0  0  0  0
 19 15  1  0  0  0  0
 19 17  1  0  0  0  0
 20 18  1  0  0  0  0
 21 24  1  0  0  0  0
 22 26  1  6  0  0  0
 23 25  2  0  0  0  0
 23 22  1  0  0  0  0
 24 23  1  0  0  0  0
 24 22  1  0  0  0  0
 26 29  1  0  0  0  0
 27 29  1  0  0  0  0
 28 27  1  0  0  0  0
 28 29  1  0  0  0  0
 31 30  1  0  0  0  0
 31 40  1  0  0  0  0
 33 43  1  0  0  0  0
 34 48  1  0  0  0  0
 35 33  2  0  0  0  0
 36 47  2  0  0  0  0
 37 35  2  0  0  0  0
 38 37  1  6  0  0  0
 38 45  1  0  0  0  0
 39 33  1  0  0  0  0
 39 34  1  0  0  0  0
 40 41  1  0  0  0  0
 41 50  1  0  0  0  0
 41 32  1  1  0  0  0
 41 38  1  0  0  0  0
 42 45  1  0  0  0  0
 42 51  2  0  0  0  0
 43 36  1  0  0  0  0
 46 49  2  0  0  0  0
 48 36  1  0  0  0  0
 49 40  1  0  0  0  0
 49 37  1  0  0  0  0
 50 44  1  6  0  0  0
 50 42  1  0  0  0  0
M  END
>  <MODEL>
9

>  <REMARK>
 VINA RESULT:      -6.9      3.473      7.356
  Name = 
  9 active torsions:
  status: ('A' for Active; 'I' for Inactive)
    1  A    between atoms: C_2  and  O_50
    2  A    between atoms: C_10  and  N_15
    3  A    between atoms: C_10  and  N_23
    4  A    between atoms: C_11  and  C_42
    5  A    between atoms: C_13  and  C_42
    6  A    between atoms: N_25  and  C_38
    7  A    between atoms: C_26  and  C_47
    8  A    between atoms: C_27  and  O_50
    9  A    between atoms: C_38  and  C_47
                            x       y       z     vdW  Elec       q    Type
                         _______ _______ _______ _____ _____    ______ ____

>  <TORSDO>
F 9

$$$$
