=
 OpenBabel11062421553D

 37 42  0  0  1  0  0  0  0  0999 V2000
  194.8720  174.5350  145.8420 C   0  0  0  0  0  3  0  0  0  0  0  0
  193.3100  173.3090  143.7080 C   0  0  0  0  0  2  0  0  0  0  0  0
  193.6140  174.9480  145.6870 C   0  0  0  0  0  0  0  0  0  0  0  0
  192.7630  174.3940  144.6100 C   0  0  0  0  0  0  0  0  0  0  0  0
  191.5010  174.8620  144.4780 C   0  0  0  0  0  0  0  0  0  0  0  0
  194.7530  172.9720  143.9650 C   0  0  0  0  0  3  0  0  0  0  0  0
  191.0230  175.8850  145.3820 N   0  0  0  0  0  0  0  0  0  0  0  0
  193.0910  175.9490  146.5630 N   0  0  0  0  0  0  0  0  0  0  0  0
  191.8810  176.3900  146.4230 C   0  0  0  0  0  3  0  0  0  0  0  0
  195.4630  173.5190  144.9570 C   0  0  0  0  0  0  0  0  0  0  0  0
  189.0320  172.7980  141.5410 C   0  0  0  0  0  0  0  0  0  0  0  0
  189.1140  172.3740  142.9410 C   0  0  0  0  0  3  0  0  0  0  0  0
  188.1260  172.4600  140.6640 O   0  0  0  0  0  0  0  0  0  0  0  0
  189.8930  173.6690  140.9540 C   0  0  0  0  0  0  0  0  0  0  0  0
  189.5150  173.8910  139.6840 N   0  0  0  0  0  0  0  0  0  0  0  0
  190.5680  174.3540  143.4040 C   0  0  1  0  0  3  0  0  0  0  0  0
  191.3670  174.3040  141.7490 S   0  0  0  0  0  0  0  0  0  0  0  0
  188.4090  173.1160  139.5520 C   0  0  0  0  0  3  0  0  0  0  0  0
  189.8680  173.0690  143.8010 C   0  0  0  0  0  3  0  0  0  0  0  0
  188.7020  175.8040  146.2420 C   0  0  0  0  0  2  0  0  0  0  0  0
  189.5040  177.7750  145.8730 C   0  0  0  0  0  2  0  0  0  0  0  0
  189.6580  176.4080  145.2250 C   0  0  1  0  0  3  0  0  0  0  0  0
  188.5450  177.1710  146.8920 C   0  0  1  0  0  3  0  0  0  0  0  0
  187.1600  177.6720  146.7980 N   0  0  0  0  0  0  0  0  0  0  0  0
  186.3340  179.8270  147.8140 C   0  0  0  0  0  1  0  0  0  0  0  0
  186.6370  178.3420  148.0060 C   0  0  0  0  0  2  0  0  0  0  0  0
  186.2770  176.5990  146.3460 C   0  0  0  0  0  2  0  0  0  0  0  0
  185.0550  177.1800  145.6490 C   0  0  0  0  0  2  0  0  0  0  0  0
  185.4470  178.2200  144.6050 C   0  0  0  0  0  2  0  0  0  0  0  0
  186.3560  177.6400  143.5740 C   0  0  0  0  0  0  0  0  0  0  0  0
  188.1700  177.9080  141.9890 C   0  0  0  0  0  3  0  0  0  0  0  0
  188.0440  176.5650  141.6190 C   0  0  0  0  0  3  0  0  0  0  0  0
  187.0750  175.7590  142.2240 C   0  0  0  0  0  3  0  0  0  0  0  0
  187.3260  178.4450  142.9650 C   0  0  0  0  0  3  0  0  0  0  0  0
  186.2300  176.2970  143.2010 C   0  0  0  0  0  3  0  0  0  0  0  0
  196.8890  173.1350  145.1350 C   0  0  0  0  0  2  0  0  0  0  0  0
  197.7490  174.2380  144.7450 N   0  0  0  0  0  1  0  0  0  0  0  0
  2  6  1  0  0  0  0
  2  4  1  0  0  0  0
  3  1  2  0  0  0  0
  3  8  1  0  0  0  0
  4  3  1  0  0  0  0
  5  4  2  0  0  0  0
  5  7  1  0  0  0  0
  6 10  2  0  0  0  0
  7  9  1  0  0  0  0
  9  8  2  0  0  0  0
 10 36  1  0  0  0  0
 10  1  1  0  0  0  0
 11 12  1  0  0  0  0
 12 19  2  0  0  0  0
 13 11  1  0  0  0  0
 14 11  2  0  0  0  0
 14 17  1  0  0  0  0
 15 14  1  0  0  0  0
 16 19  1  0  0  0  0
 16  5  1  1  0  0  0
 17 16  1  0  0  0  0
 18 15  2  0  0  0  0
 18 13  1  0  0  0  0
 20 23  1  0  0  0  0
 21 23  1  0  0  0  0
 22  7  1  1  0  0  0
 22 21  1  0  0  0  0
 22 20  1  0  0  0  0
 23 24  1  6  0  0  0
 24 26  1  0  0  0  0
 25 26  1  0  0  0  0
 27 24  1  0  0  0  0
 28 27  1  0  0  0  0
 29 28  1  0  0  0  0
 30 29  1  0  0  0  0
 31 34  1  0  0  0  0
 32 31  2  0  0  0  0
 32 33  1  0  0  0  0
 33 35  2  0  0  0  0
 34 30  2  0  0  0  0
 35 30  1  0  0  0  0
 37 36  1  0  0  0  0
M  END
>  <MODEL>
1

>  <REMARK>
 VINA RESULT:      -7.3      0.000      0.000
  Name = 
  9 active torsions:
  status: ('A' for Active; 'I' for Inactive)
    1  A    between atoms: C_3  and  C_35
    2  A    between atoms: C_3  and  C_37
    3  A    between atoms: C_5  and  C_29
    4  A    between atoms: N_8  and  C_16
    5  A    between atoms: N_8  and  C_34
    6  A    between atoms: N_8  and  C_35
    7  A    between atoms: C_11  and  C_26
    8  A    between atoms: C_14  and  C_37
    9  A    between atoms: N_19  and  C_27
                            x       y       z     vdW  Elec       q    Type
                         _______ _______ _______ _____ _____    ______ ____

>  <TORSDO>
F 9

$$$$
=
 OpenBabel11062421553D

 37 42  0  0  1  0  0  0  0  0999 V2000
  185.6770  177.1570  144.8270 C   0  0  0  0  0  3  0  0  0  0  0  0
  188.2690  177.0770  146.1590 C   0  0  0  0  0  3  0  0  0  0  0  0
  186.6680  176.5180  144.2040 C   0  0  2  0  0  3  0  0  0  0  0  0
  188.0220  176.4550  144.8020 C   0  0  0  0  0  0  0  0  0  0  0  0
  188.9990  175.8160  144.1210 C   0  0  0  0  0  0  0  0  0  0  0  0
  187.0780  177.8010  146.7250 C   0  0  0  0  0  3  0  0  0  0  0  0
  188.7020  175.2210  142.8370 N   0  0  0  0  0  0  0  0  0  0  0  0
  186.4210  175.9030  142.9380 N   0  0  0  0  0  0  0  0  0  0  0  0
  187.3680  175.2960  142.2960 C   0  0  0  0  0  3  0  0  0  0  0  0
  185.8850  177.8200  146.1240 C   0  0  0  0  0  0  0  0  0  0  0  0
  192.8030  175.6940  146.2420 C   0  0  0  0  0  0  0  0  0  0  0  0
  191.5880  175.0660  146.7650 C   0  0  0  0  0  3  0  0  0  0  0  0
  194.0330  175.4760  146.6220 O   0  0  0  0  0  0  0  0  0  0  0  0
  192.8230  176.5900  145.2210 C   0  0  0  0  0  0  0  0  0  0  0  0
  194.0920  176.9340  144.9470 N   0  0  0  0  0  0  0  0  0  0  0  0
  190.4080  175.7080  144.6570 C   0  0  1  0  0  3  0  0  0  0  0  0
  191.3510  177.2760  144.4660 S   0  0  0  0  0  0  0  0  0  0  0  0
  194.8080  176.2130  145.8460 C   0  0  0  0  0  3  0  0  0  0  0  0
  190.4570  175.1130  146.0510 C   0  0  0  0  0  3  0  0  0  0  0  0
  189.9130  173.0870  142.5010 C   0  0  0  0  0  2  0  0  0  0  0  0
  189.3020  174.1190  140.7060 C   0  0  0  0  0  2  0  0  0  0  0  0
  189.7700  174.5440  142.0890 C   0  0  1  0  0  3  0  0  0  0  0  0
  189.4460  172.6590  141.1180 C   0  0  1  0  0  3  0  0  0  0  0  0
  190.4930  171.9180  140.3870 N   0  0  0  0  0  0  0  0  0  0  0  0
  189.7680  170.5000  138.4320 C   0  0  0  0  0  1  0  0  0  0  0  0
  190.3170  171.8380  138.9220 C   0  0  0  0  0  2  0  0  0  0  0  0
  190.6740  170.5980  140.9860 C   0  0  0  0  0  2  0  0  0  0  0  0
  192.1210  170.4080  141.4190 C   0  0  0  0  0  2  0  0  0  0  0  0
  192.2180  169.6060  142.7110 C   0  0  0  0  0  2  0  0  0  0  0  0
  192.9700  170.3530  143.7610 C   0  0  0  0  0  0  0  0  0  0  0  0
  193.5570  172.4490  144.8280 C   0  0  0  0  0  3  0  0  0  0  0  0
  194.4030  171.7630  145.7070 C   0  0  0  0  0  3  0  0  0  0  0  0
  194.5340  170.3750  145.6130 C   0  0  0  0  0  3  0  0  0  0  0  0
  192.8430  171.7440  143.8550 C   0  0  0  0  0  3  0  0  0  0  0  0
  193.8180  169.6690  144.6400 C   0  0  0  0  0  3  0  0  0  0  0  0
  184.7610  178.5680  146.7490 C   0  0  0  0  0  2  0  0  0  0  0  0
  183.7670  178.8970  145.7430 N   0  0  0  0  0  1  0  0  0  0  0  0
  1 10  2  0  0  0  0
  2  6  2  0  0  0  0
  3  4  1  0  0  0  0
  3  1  1  6  0  0  0
  4  2  1  0  0  0  0
  5  4  2  0  0  0  0
  7  5  1  0  0  0  0
  8  3  1  0  0  0  0
  9  7  1  0  0  0  0
  9  8  2  0  0  0  0
 10  6  1  0  0  0  0
 10 36  1  0  0  0  0
 11 13  1  0  0  0  0
 11 12  1  0  0  0  0
 14 11  2  0  0  0  0
 15 14  1  0  0  0  0
 15 18  2  0  0  0  0
 16  5  1  1  0  0  0
 16 19  1  0  0  0  0
 17 16  1  0  0  0  0
 17 14  1  0  0  0  0
 18 13  1  0  0  0  0
 19 12  2  0  0  0  0
 21 23  1  0  0  0  0
 22 21  1  6  0  0  0
 22 20  1  0  0  0  0
 22  7  1  0  0  0  0
 23 24  1  6  0  0  0
 23 20  1  0  0  0  0
 24 27  1  0  0  0  0
 25 26  1  0  0  0  0
 26 24  1  0  0  0  0
 27 28  1  0  0  0  0
 28 29  1  0  0  0  0
 29 30  1  0  0  0  0
 30 34  2  0  0  0  0
 30 35  1  0  0  0  0
 31 32  2  0  0  0  0
 33 32  1  0  0  0  0
 34 31  1  0  0  0  0
 35 33  2  0  0  0  0
 37 36  1  0  0  0  0
M  END
>  <MODEL>
2

>  <REMARK>
 VINA RESULT:      -7.2      2.737      8.510
  Name = 
  9 active torsions:
  status: ('A' for Active; 'I' for Inactive)
    1  A    between atoms: C_3  and  C_35
    2  A    between atoms: C_3  and  C_37
    3  A    between atoms: C_5  and  C_29
    4  A    between atoms: N_8  and  C_16
    5  A    between atoms: N_8  and  C_34
    6  A    between atoms: N_8  and  C_35
    7  A    between atoms: C_11  and  C_26
    8  A    between atoms: C_14  and  C_37
    9  A    between atoms: N_19  and  C_27
                            x       y       z     vdW  Elec       q    Type
                         _______ _______ _______ _____ _____    ______ ____

>  <TORSDO>
F 9

$$$$
=
 OpenBabel11062421553D

 37 42  0  0  1  0  0  0  0  0999 V2000
  193.9900  175.0060  145.8800 C   0  0  0  0  0  3  0  0  0  0  0  0
  193.4980  173.1180  143.7130 C   0  0  0  0  0  2  0  0  0  0  0  0
  192.8020  175.0600  145.2770 C   0  0  0  0  0  0  0  0  0  0  0  0
  192.4830  174.1530  144.1500 C   0  0  0  0  0  0  0  0  0  0  0  0
  191.2740  174.2610  143.5560 C   0  0  0  0  0  0  0  0  0  0  0  0
  194.8080  173.2000  144.4480 C   0  0  0  0  0  3  0  0  0  0  0  0
  190.3340  175.2540  144.0280 N   0  0  0  0  0  0  0  0  0  0  0  0
  191.8350  176.0150  145.7150 N   0  0  0  0  0  0  0  0  0  0  0  0
  190.6800  176.1100  145.1350 C   0  0  0  0  0  3  0  0  0  0  0  0
  195.0260  174.0510  145.4550 C   0  0  0  0  0  0  0  0  0  0  0  0
  190.5660  171.2980  140.4410 C   0  0  0  0  0  0  0  0  0  0  0  0
  190.6400  170.9480  141.8610 C   0  0  0  0  0  3  0  0  0  0  0  0
  190.0750  170.5750  139.4720 O   0  0  0  0  0  0  0  0  0  0  0  0
  190.9740  172.4860  139.9240 C   0  0  0  0  0  0  0  0  0  0  0  0
  190.7230  172.5150  138.6040 N   0  0  0  0  0  0  0  0  0  0  0  0
  190.8690  173.3780  142.3990 C   0  0  1  0  0  3  0  0  0  0  0  0
  191.8230  173.7480  140.8700 S   0  0  0  0  0  0  0  0  0  0  0  0
  190.1630  171.3000  138.3710 C   0  0  0  0  0  3  0  0  0  0  0  0
  190.8290  171.9090  142.7720 C   0  0  0  0  0  3  0  0  0  0  0  0
  188.1390  176.4010  144.0690 C   0  0  0  0  0  2  0  0  0  0  0  0
  189.1070  176.2820  142.1430 C   0  0  0  0  0  2  0  0  0  0  0  0
  189.0280  175.3850  143.3680 C   0  0  1  0  0  3  0  0  0  0  0  0
  188.2170  177.3000  142.8440 C   0  0  1  0  0  3  0  0  0  0  0  0
  186.8950  177.4910  142.2160 N   0  0  0  0  0  0  0  0  0  0  0  0
  185.6810  177.7910  140.0260 C   0  0  0  0  0  1  0  0  0  0  0  0
  186.7940  177.0850  140.7990 C   0  0  0  0  0  2  0  0  0  0  0  0
  186.4440  178.8660  142.4220 C   0  0  0  0  0  2  0  0  0  0  0  0
  185.0910  178.8790  143.1190 C   0  0  0  0  0  2  0  0  0  0  0  0
  185.1370  179.6820  144.4140 C   0  0  0  0  0  2  0  0  0  0  0  0
  185.4330  178.8070  145.5860 C   0  0  0  0  0  0  0  0  0  0  0  0
  185.3460  176.6340  146.6560 C   0  0  0  0  0  3  0  0  0  0  0  0
  185.9610  177.1690  147.7930 C   0  0  0  0  0  3  0  0  0  0  0  0
  186.3110  178.5220  147.8280 C   0  0  0  0  0  3  0  0  0  0  0  0
  185.0820  177.4520  145.5540 C   0  0  0  0  0  3  0  0  0  0  0  0
  186.0460  179.3420  146.7250 C   0  0  0  0  0  3  0  0  0  0  0  0
  196.3550  174.0710  146.1230 C   0  0  0  0  0  2  0  0  0  0  0  0
  197.2090  173.0460  145.5490 N   0  0  0  0  0  1  0  0  0  0  0  0
  2  4  1  0  0  0  0
  2  6  1  0  0  0  0
  3  8  1  0  0  0  0
  3  1  2  0  0  0  0
  4  3  1  0  0  0  0
  5  7  1  0  0  0  0
  5  4  2  0  0  0  0
  6 10  2  0  0  0  0
  7  9  1  0  0  0  0
  9  8  2  0  0  0  0
 10  1  1  0  0  0  0
 10 36  1  0  0  0  0
 11 12  1  0  0  0  0
 12 19  2  0  0  0  0
 13 11  1  0  0  0  0
 14 11  2  0  0  0  0
 14 17  1  0  0  0  0
 15 14  1  0  0  0  0
 16 19  1  0  0  0  0
 16  5  1  1  0  0  0
 17 16  1  0  0  0  0
 18 15  2  0  0  0  0
 18 13  1  0  0  0  0
 21 23  1  0  0  0  0
 22 21  1  6  0  0  0
 22  7  1  0  0  0  0
 22 20  1  0  0  0  0
 23 24  1  6  0  0  0
 23 20  1  0  0  0  0
 24 27  1  0  0  0  0
 25 26  1  0  0  0  0
 26 24  1  0  0  0  0
 27 28  1  0  0  0  0
 28 29  1  0  0  0  0
 29 30  1  0  0  0  0
 30 35  1  0  0  0  0
 31 32  2  0  0  0  0
 32 33  1  0  0  0  0
 34 30  2  0  0  0  0
 34 31  1  0  0  0  0
 35 33  2  0  0  0  0
 37 36  1  0  0  0  0
M  END
>  <MODEL>
3

>  <REMARK>
 VINA RESULT:      -7.0      1.720      3.407
  Name = 
  9 active torsions:
  status: ('A' for Active; 'I' for Inactive)
    1  A    between atoms: C_3  and  C_35
    2  A    between atoms: C_3  and  C_37
    3  A    between atoms: C_5  and  C_29
    4  A    between atoms: N_8  and  C_16
    5  A    between atoms: N_8  and  C_34
    6  A    between atoms: N_8  and  C_35
    7  A    between atoms: C_11  and  C_26
    8  A    between atoms: C_14  and  C_37
    9  A    between atoms: N_19  and  C_27
                            x       y       z     vdW  Elec       q    Type
                         _______ _______ _______ _____ _____    ______ ____

>  <TORSDO>
F 9

$$$$
=
 OpenBabel11062421553D

 37 42  0  0  1  0  0  0  0  0999 V2000
  196.0370  175.2420  139.7870 C   0  0  0  0  0  3  0  0  0  0  0  0
  196.7450  173.0810  141.6120 C   0  0  0  0  0  3  0  0  0  0  0  0
  195.4280  175.2150  140.9720 C   0  0  2  0  0  3  0  0  0  0  0  0
  195.7130  174.1360  141.9460 C   0  0  0  0  0  0  0  0  0  0  0  0
  195.0530  174.1390  143.1260 C   0  0  0  0  0  0  0  0  0  0  0  0
  197.3190  173.2060  140.2270 C   0  0  0  0  0  3  0  0  0  0  0  0
  194.0910  175.1840  143.4010 N   0  0  0  0  0  0  0  0  0  0  0  0
  194.4790  176.2330  141.2970 N   0  0  0  0  0  0  0  0  0  0  0  0
  193.8510  176.2220  142.4300 C   0  0  0  0  0  3  0  0  0  0  0  0
  197.0100  174.2090  139.3980 C   0  0  0  0  0  0  0  0  0  0  0  0
  196.2880  170.9680  145.8460 C   0  0  0  0  0  0  0  0  0  0  0  0
  197.1590  172.0920  145.4980 C   0  0  0  0  0  3  0  0  0  0  0  0
  196.4220  170.1430  146.8480 O   0  0  0  0  0  0  0  0  0  0  0  0
  195.1520  170.6430  145.1740 C   0  0  0  0  0  0  0  0  0  0  0  0
  194.5550  169.5990  145.7740 N   0  0  0  0  0  0  0  0  0  0  0  0
  195.2810  173.0740  144.1720 C   0  0  1  0  0  3  0  0  0  0  0  0
  194.6310  171.4330  143.6540 S   0  0  0  0  0  0  0  0  0  0  0  0
  195.3860  169.3250  146.8120 C   0  0  0  0  0  3  0  0  0  0  0  0
  196.7090  173.0510  144.6790 C   0  0  0  0  0  3  0  0  0  0  0  0
  192.8740  176.5650  145.0590 C   0  0  0  0  0  2  0  0  0  0  0  0
  191.9230  174.7120  144.4920 C   0  0  0  0  0  2  0  0  0  0  0  0
  193.3590  175.1750  144.6750 C   0  0  1  0  0  3  0  0  0  0  0  0
  191.4360  176.1040  144.8760 C   0  0  1  0  0  3  0  0  0  0  0  0
  190.6750  176.1580  146.1400 N   0  0  0  0  0  0  0  0  0  0  0  0
  188.8640  174.8990  147.3630 C   0  0  0  0  0  1  0  0  0  0  0  0
  190.2280  174.8560  146.6750 C   0  0  0  0  0  2  0  0  0  0  0  0
  189.5690  177.1020  146.0110 C   0  0  0  0  0  2  0  0  0  0  0  0
  189.1850  177.2700  144.5470 C   0  0  0  0  0  2  0  0  0  0  0  0
  187.8630  176.5780  144.2320 C   0  0  0  0  0  2  0  0  0  0  0  0
  186.7080  177.3220  144.8130 C   0  0  0  0  0  0  0  0  0  0  0  0
  185.3720  179.3390  144.9570 C   0  0  0  0  0  3  0  0  0  0  0  0
  184.5610  178.7330  145.9220 C   0  0  0  0  0  3  0  0  0  0  0  0
  184.8230  177.4230  146.3340 C   0  0  0  0  0  3  0  0  0  0  0  0
  186.4450  178.6350  144.4040 C   0  0  0  0  0  3  0  0  0  0  0  0
  185.8970  176.7180  145.7810 C   0  0  0  0  0  3  0  0  0  0  0  0
  197.6190  174.2510  138.0420 C   0  0  0  0  0  2  0  0  0  0  0  0
  197.3860  175.5520  137.4380 N   0  0  0  0  0  1  0  0  0  0  0  0
  2  4  1  0  0  0  0
  3  1  1  6  0  0  0
  3  8  1  0  0  0  0
  3  4  1  0  0  0  0
  4  5  2  0  0  0  0
  5  7  1  0  0  0  0
  6  2  2  0  0  0  0
  8  9  2  0  0  0  0
  9  7  1  0  0  0  0
 10  1  2  0  0  0  0
 10  6  1  0  0  0  0
 11 13  1  0  0  0  0
 12 11  1  0  0  0  0
 14 15  1  0  0  0  0
 14 11  2  0  0  0  0
 15 18  2  0  0  0  0
 16  5  1  6  0  0  0
 16 19  1  0  0  0  0
 17 16  1  0  0  0  0
 17 14  1  0  0  0  0
 18 13  1  0  0  0  0
 19 12  2  0  0  0  0
 21 22  1  0  0  0  0
 21 23  1  0  0  0  0
 22  7  1  6  0  0  0
 22 20  1  0  0  0  0
 23 20  1  0  0  0  0
 23 24  1  1  0  0  0
 24 26  1  0  0  0  0
 26 25  1  0  0  0  0
 27 24  1  0  0  0  0
 28 27  1  0  0  0  0
 29 28  1  0  0  0  0
 29 30  1  0  0  0  0
 30 35  1  0  0  0  0
 31 32  2  0  0  0  0
 32 33  1  0  0  0  0
 34 30  2  0  0  0  0
 34 31  1  0  0  0  0
 35 33  2  0  0  0  0
 36 10  1  0  0  0  0
 37 36  1  0  0  0  0
M  END
>  <MODEL>
4

>  <REMARK>
 VINA RESULT:      -6.9      3.602      5.712
  Name = 
  9 active torsions:
  status: ('A' for Active; 'I' for Inactive)
    1  A    between atoms: C_3  and  C_35
    2  A    between atoms: C_3  and  C_37
    3  A    between atoms: C_5  and  C_29
    4  A    between atoms: N_8  and  C_16
    5  A    between atoms: N_8  and  C_34
    6  A    between atoms: N_8  and  C_35
    7  A    between atoms: C_11  and  C_26
    8  A    between atoms: C_14  and  C_37
    9  A    between atoms: N_19  and  C_27
                            x       y       z     vdW  Elec       q    Type
                         _______ _______ _______ _____ _____    ______ ____

>  <TORSDO>
F 9

$$$$
=
 OpenBabel11062421553D

 37 42  0  0  1  0  0  0  0  0999 V2000
  187.5100  177.5670  146.7730 C   0  0  0  0  0  3  0  0  0  0  0  0
  186.8890  176.4500  144.1520 C   0  0  0  0  0  2  0  0  0  0  0  0
  188.5290  177.1220  146.0380 C   0  0  0  0  0  0  0  0  0  0  0  0
  188.2950  176.5160  144.7070 C   0  0  0  0  0  0  0  0  0  0  0  0
  189.3590  176.0580  144.0090 C   0  0  0  0  0  0  0  0  0  0  0  0
  185.8340  176.9460  145.1040 C   0  0  0  0  0  3  0  0  0  0  0  0
  190.6840  176.1650  144.5780 N   0  0  0  0  0  0  0  0  0  0  0  0
  189.8590  177.2170  146.5510 N   0  0  0  0  0  0  0  0  0  0  0  0
  190.8690  176.7710  145.8730 C   0  0  0  0  0  3  0  0  0  0  0  0
  186.1210  177.4770  146.2960 C   0  0  0  0  0  0  0  0  0  0  0  0
  188.2830  174.3620  140.1430 C   0  0  0  0  0  0  0  0  0  0  0  0
  187.8300  175.6850  140.5780 C   0  0  0  0  0  3  0  0  0  0  0  0
  188.2800  173.8840  138.9280 O   0  0  0  0  0  0  0  0  0  0  0  0
  188.8300  173.4310  140.9680 C   0  0  0  0  0  0  0  0  0  0  0  0
  189.1890  172.3500  140.2550 N   0  0  0  0  0  0  0  0  0  0  0  0
  189.2080  175.4230  142.6460 C   0  0  1  0  0  3  0  0  0  0  0  0
  188.9270  173.6080  142.7480 S   0  0  0  0  0  0  0  0  0  0  0  0
  188.8260  172.6820  138.9900 C   0  0  0  0  0  3  0  0  0  0  0  0
  188.2200  176.1620  141.7650 C   0  0  0  0  0  3  0  0  0  0  0  0
  193.1170  176.3930  144.1760 C   0  0  0  0  0  2  0  0  0  0  0  0
  192.3900  174.3790  144.4580 C   0  0  0  0  0  2  0  0  0  0  0  0
  191.8370  175.6480  143.8280 C   0  0  1  0  0  3  0  0  0  0  0  0
  193.6740  175.1240  144.8050 C   0  0  1  0  0  3  0  0  0  0  0  0
  194.8740  174.6370  144.0970 N   0  0  0  0  0  0  0  0  0  0  0  0
  195.1000  172.6030  142.6250 C   0  0  0  0  0  1  0  0  0  0  0  0
  195.0340  173.1700  144.0420 C   0  0  0  0  0  2  0  0  0  0  0  0
  196.0640  175.2950  144.6310 C   0  0  0  0  0  2  0  0  0  0  0  0
  197.0510  175.5930  143.5110 C   0  0  0  0  0  2  0  0  0  0  0  0
  196.5030  176.6380  142.5460 C   0  0  0  0  0  2  0  0  0  0  0  0
  196.2240  176.0460  141.2050 C   0  0  0  0  0  0  0  0  0  0  0  0
  194.6370  175.2910  139.5350 C   0  0  0  0  0  3  0  0  0  0  0  0
  195.6950  174.9090  138.7030 C   0  0  0  0  0  3  0  0  0  0  0  0
  197.0170  175.0940  139.1210 C   0  0  0  0  0  3  0  0  0  0  0  0
  194.9020  175.8570  140.7850 C   0  0  0  0  0  3  0  0  0  0  0  0
  197.2810  175.6620  140.3720 C   0  0  0  0  0  3  0  0  0  0  0  0
  185.0150  177.9360  147.1790 C   0  0  0  0  0  2  0  0  0  0  0  0
  184.0270  178.6580  146.3960 N   0  0  0  0  0  1  0  0  0  0  0  0
  2  4  1  0  0  0  0
  2  6  1  0  0  0  0
  3  8  1  0  0  0  0
  3  1  2  0  0  0  0
  4  3  1  0  0  0  0
  5  7  1  0  0  0  0
  5  4  2  0  0  0  0
  6 10  2  0  0  0  0
  7  9  1  0  0  0  0
  9  8  2  0  0  0  0
 10  1  1  0  0  0  0
 10 36  1  0  0  0  0
 11 12  1  0  0  0  0
 11 14  2  0  0  0  0
 12 19  2  0  0  0  0
 13 18  1  0  0  0  0
 13 11  1  0  0  0  0
 14 17  1  0  0  0  0
 15 14  1  0  0  0  0
 16 17  1  0  0  0  0
 16  5  1  1  0  0  0
 18 15  2  0  0  0  0
 19 16  1  0  0  0  0
 20 23  1  0  0  0  0
 21 23  1  0  0  0  0
 22 20  1  1  0  0  0
 22 21  1  0  0  0  0
 22  7  1  0  0  0  0
 23 24  1  6  0  0  0
 24 27  1  0  0  0  0
 25 26  1  0  0  0  0
 26 24  1  0  0  0  0
 28 27  1  0  0  0  0
 29 28  1  0  0  0  0
 30 29  1  0  0  0  0
 31 34  2  0  0  0  0
 32 33  2  0  0  0  0
 32 31  1  0  0  0  0
 33 35  1  0  0  0  0
 34 30  1  0  0  0  0
 35 30  2  0  0  0  0
 37 36  1  0  0  0  0
M  END
>  <MODEL>
5

>  <REMARK>
 VINA RESULT:      -6.9      2.610      7.682
  Name = 
  9 active torsions:
  status: ('A' for Active; 'I' for Inactive)
    1  A    between atoms: C_3  and  C_35
    2  A    between atoms: C_3  and  C_37
    3  A    between atoms: C_5  and  C_29
    4  A    between atoms: N_8  and  C_16
    5  A    between atoms: N_8  and  C_34
    6  A    between atoms: N_8  and  C_35
    7  A    between atoms: C_11  and  C_26
    8  A    between atoms: C_14  and  C_37
    9  A    between atoms: N_19  and  C_27
                            x       y       z     vdW  Elec       q    Type
                         _______ _______ _______ _____ _____    ______ ____

>  <TORSDO>
F 9

$$$$
=
 OpenBabel11062421553D

 37 42  0  0  1  0  0  0  0  0999 V2000
  189.4740  172.6980  139.0750 C   0  0  0  0  0  3  0  0  0  0  0  0
  192.3230  172.8940  139.6650 C   0  0  0  0  0  2  0  0  0  0  0  0
  189.8320  173.4050  140.1470 C   0  0  0  0  0  0  0  0  0  0  0  0
  191.2560  173.5310  140.5300 C   0  0  0  0  0  0  0  0  0  0  0  0
  191.5670  174.2390  141.6390 C   0  0  0  0  0  0  0  0  0  0  0  0
  191.7760  172.0910  138.5160 C   0  0  0  0  0  3  0  0  0  0  0  0
  190.5090  174.8440  142.4180 N   0  0  0  0  0  0  0  0  0  0  0  0
  188.8240  174.0330  140.9420 N   0  0  0  0  0  0  0  0  0  0  0  0
  189.1350  174.7060  142.0040 C   0  0  0  0  0  3  0  0  0  0  0  0
  190.4720  172.0190  138.2330 C   0  0  0  0  0  0  0  0  0  0  0  0
  195.4360  174.7200  143.5850 C   0  0  0  0  0  0  0  0  0  0  0  0
  194.4830  173.6780  143.9710 C   0  0  0  0  0  3  0  0  0  0  0  0
  196.7070  174.7770  143.8740 O   0  0  0  0  0  0  0  0  0  0  0  0
  195.1270  175.7890  142.8050 C   0  0  0  0  0  0  0  0  0  0  0  0
  196.2290  176.5260  142.5910 N   0  0  0  0  0  0  0  0  0  0  0  0
  192.9950  174.4130  142.1030 C   0  0  1  0  0  3  0  0  0  0  0  0
  193.4650  176.1840  142.2670 S   0  0  0  0  0  0  0  0  0  0  0  0
  197.1870  175.8530  143.2780 C   0  0  0  0  0  3  0  0  0  0  0  0
  193.3230  173.5630  143.3140 C   0  0  0  0  0  3  0  0  0  0  0  0
  189.8290  176.6890  143.9240 C   0  0  0  0  0  2  0  0  0  0  0  0
  190.4200  174.8500  144.8890 C   0  0  0  0  0  2  0  0  0  0  0  0
  190.8470  175.5960  143.6340 C   0  0  1  0  0  3  0  0  0  0  0  0
  189.4010  175.9450  145.1800 C   0  0  1  0  0  3  0  0  0  0  0  0
  189.6750  176.7250  146.4030 N   0  0  0  0  0  0  0  0  0  0  0  0
  191.4440  176.8020  148.1980 C   0  0  0  0  0  1  0  0  0  0  0  0
  190.3570  175.9940  147.4900 C   0  0  0  0  0  2  0  0  0  0  0  0
  188.4460  177.3650  146.8660 C   0  0  0  0  0  2  0  0  0  0  0  0
  187.2860  176.3810  146.8170 C   0  0  0  0  0  2  0  0  0  0  0  0
  185.9600  177.0900  146.5640 C   0  0  0  0  0  2  0  0  0  0  0  0
  185.8830  177.6170  145.1700 C   0  0  0  0  0  0  0  0  0  0  0  0
  185.9240  177.2320  142.7770 C   0  0  0  0  0  3  0  0  0  0  0  0
  185.7690  178.6050  142.5540 C   0  0  0  0  0  3  0  0  0  0  0  0
  185.6730  179.4840  143.6370 C   0  0  0  0  0  3  0  0  0  0  0  0
  185.9820  176.7400  144.0840 C   0  0  0  0  0  3  0  0  0  0  0  0
  185.7300  178.9900  144.9450 C   0  0  0  0  0  3  0  0  0  0  0  0
  190.0170  171.1950  137.0810 C   0  0  0  0  0  2  0  0  0  0  0  0
  189.6810  169.8570  137.5350 N   0  0  0  0  0  1  0  0  0  0  0  0
  1  3  2  0  0  0  0
  2  4  1  0  0  0  0
  3  4  1  0  0  0  0
  3  8  1  0  0  0  0
  4  5  2  0  0  0  0
  5  7  1  0  0  0  0
  6  2  1  0  0  0  0
  8  9  2  0  0  0  0
  9  7  1  0  0  0  0
 10  6  2  0  0  0  0
 10  1  1  0  0  0  0
 11 13  1  0  0  0  0
 11 12  1  0  0  0  0
 14 11  2  0  0  0  0
 15 14  1  0  0  0  0
 15 18  2  0  0  0  0
 16  5  1  1  0  0  0
 16 17  1  0  0  0  0
 16 19  1  0  0  0  0
 17 14  1  0  0  0  0
 18 13  1  0  0  0  0
 19 12  2  0  0  0  0
 20 23  1  0  0  0  0
 21 23  1  0  0  0  0
 22  7  1  6  0  0  0
 22 20  1  0  0  0  0
 22 21  1  0  0  0  0
 23 24  1  1  0  0  0
 24 27  1  0  0  0  0
 24 26  1  0  0  0  0
 26 25  1  0  0  0  0
 28 27  1  0  0  0  0
 29 28  1  0  0  0  0
 30 29  1  0  0  0  0
 31 34  1  0  0  0  0
 32 31  2  0  0  0  0
 32 33  1  0  0  0  0
 33 35  2  0  0  0  0
 34 30  2  0  0  0  0
 35 30  1  0  0  0  0
 36 37  1  0  0  0  0
 36 10  1  0  0  0  0
M  END
>  <MODEL>
6

>  <REMARK>
 VINA RESULT:      -6.9      2.583      5.653
  Name = 
  9 active torsions:
  status: ('A' for Active; 'I' for Inactive)
    1  A    between atoms: C_3  and  C_35
    2  A    between atoms: C_3  and  C_37
    3  A    between atoms: C_5  and  C_29
    4  A    between atoms: N_8  and  C_16
    5  A    between atoms: N_8  and  C_34
    6  A    between atoms: N_8  and  C_35
    7  A    between atoms: C_11  and  C_26
    8  A    between atoms: C_14  and  C_37
    9  A    between atoms: N_19  and  C_27
                            x       y       z     vdW  Elec       q    Type
                         _______ _______ _______ _____ _____    ______ ____

>  <TORSDO>
F 9

$$$$
=
 OpenBabel11062421553D

 37 42  0  0  1  0  0  0  0  0999 V2000
  187.6370  177.5460  146.3790 C   0  0  0  0  0  3  0  0  0  0  0  0
  186.9170  176.3510  143.8180 C   0  0  0  0  0  2  0  0  0  0  0  0
  188.6320  177.1650  145.5780 C   0  0  0  0  0  0  0  0  0  0  0  0
  188.3510  176.5260  144.2720 C   0  0  0  0  0  0  0  0  0  0  0  0
  189.3930  176.1360  143.5050 C   0  0  0  0  0  0  0  0  0  0  0  0
  185.8980  176.7830  144.8380 C   0  0  0  0  0  3  0  0  0  0  0  0
  190.7440  176.3470  143.9790 N   0  0  0  0  0  0  0  0  0  0  0  0
  189.9840  177.3630  145.9950 N   0  0  0  0  0  0  0  0  0  0  0  0
  190.9740  176.9820  145.2520 C   0  0  0  0  0  3  0  0  0  0  0  0
  186.2280  177.3500  146.0020 C   0  0  0  0  0  0  0  0  0  0  0  0
  188.1850  174.3790  139.7060 C   0  0  0  0  0  0  0  0  0  0  0  0
  187.7780  175.7230  140.1180 C   0  0  0  0  0  3  0  0  0  0  0  0
  188.1420  173.8720  138.5040 O   0  0  0  0  0  0  0  0  0  0  0  0
  188.7260  173.4530  140.5410 C   0  0  0  0  0  0  0  0  0  0  0  0
  189.0400  172.3470  139.8470 N   0  0  0  0  0  0  0  0  0  0  0  0
  189.1950  175.4740  142.1620 C   0  0  1  0  0  3  0  0  0  0  0  0
  188.8690  173.6700  142.3130 S   0  0  0  0  0  0  0  0  0  0  0  0
  188.6570  172.6580  138.5820 C   0  0  0  0  0  3  0  0  0  0  0  0
  188.2070  176.2180  141.2850 C   0  0  0  0  0  3  0  0  0  0  0  0
  193.1500  176.6680  143.4850 C   0  0  0  0  0  2  0  0  0  0  0  0
  192.4920  174.6210  143.6910 C   0  0  0  0  0  2  0  0  0  0  0  0
  191.8760  175.9040  143.1540 C   0  0  1  0  0  3  0  0  0  0  0  0
  193.7680  175.3860  144.0230 C   0  0  1  0  0  3  0  0  0  0  0  0
  194.9490  174.9720  143.2390 N   0  0  0  0  0  0  0  0  0  0  0  0
  196.1690  172.9860  142.2770 C   0  0  0  0  0  1  0  0  0  0  0  0
  194.8320  173.6770  142.5390 C   0  0  0  0  0  2  0  0  0  0  0  0
  196.1440  175.0320  144.0770 C   0  0  0  0  0  2  0  0  0  0  0  0
  195.7850  174.7520  145.5300 C   0  0  0  0  0  2  0  0  0  0  0  0
  196.7020  173.6980  146.1410 C   0  0  0  0  0  2  0  0  0  0  0  0
  196.2480  172.3190  145.8000 C   0  0  0  0  0  0  0  0  0  0  0  0
  196.7670  170.0290  145.1990 C   0  0  0  0  0  3  0  0  0  0  0  0
  195.4010  169.7360  145.1320 C   0  0  0  0  0  3  0  0  0  0  0  0
  194.4580  170.7340  145.3970 C   0  0  0  0  0  3  0  0  0  0  0  0
  197.1900  171.3190  145.5310 C   0  0  0  0  0  3  0  0  0  0  0  0
  194.8810  172.0250  145.7310 C   0  0  0  0  0  3  0  0  0  0  0  0
  185.1550  177.7400  146.9560 C   0  0  0  0  0  2  0  0  0  0  0  0
  184.0660  178.3790  146.2390 N   0  0  0  0  0  1  0  0  0  0  0  0
  2  4  1  0  0  0  0
  2  6  1  0  0  0  0
  3  8  1  0  0  0  0
  3  1  2  0  0  0  0
  4  3  1  0  0  0  0
  5  7  1  0  0  0  0
  5  4  2  0  0  0  0
  6 10  2  0  0  0  0
  7  9  1  0  0  0  0
  9  8  2  0  0  0  0
 10  1  1  0  0  0  0
 10 36  1  0  0  0  0
 11 12  1  0  0  0  0
 11 14  2  0  0  0  0
 12 19  2  0  0  0  0
 13 18  1  0  0  0  0
 13 11  1  0  0  0  0
 14 17  1  0  0  0  0
 15 14  1  0  0  0  0
 16 17  1  0  0  0  0
 16  5  1  1  0  0  0
 18 15  2  0  0  0  0
 19 16  1  0  0  0  0
 20 23  1  0  0  0  0
 21 23  1  0  0  0  0
 22 20  1  1  0  0  0
 22 21  1  0  0  0  0
 22  7  1  0  0  0  0
 23 24  1  6  0  0  0
 24 27  1  0  0  0  0
 25 26  1  0  0  0  0
 26 24  1  0  0  0  0
 27 28  1  0  0  0  0
 28 29  1  0  0  0  0
 30 29  1  0  0  0  0
 31 34  1  0  0  0  0
 32 31  2  0  0  0  0
 32 33  1  0  0  0  0
 33 35  2  0  0  0  0
 34 30  2  0  0  0  0
 35 30  1  0  0  0  0
 37 36  1  0  0  0  0
M  END
>  <MODEL>
7

>  <REMARK>
 VINA RESULT:      -6.8      1.890      8.065
  Name = 
  9 active torsions:
  status: ('A' for Active; 'I' for Inactive)
    1  A    between atoms: C_3  and  C_35
    2  A    between atoms: C_3  and  C_37
    3  A    between atoms: C_5  and  C_29
    4  A    between atoms: N_8  and  C_16
    5  A    between atoms: N_8  and  C_34
    6  A    between atoms: N_8  and  C_35
    7  A    between atoms: C_11  and  C_26
    8  A    between atoms: C_14  and  C_37
    9  A    between atoms: N_19  and  C_27
                            x       y       z     vdW  Elec       q    Type
                         _______ _______ _______ _____ _____    ______ ____

>  <TORSDO>
F 9

$$$$
=
 OpenBabel11062421553D

 37 42  0  0  1  0  0  0  0  0999 V2000
  187.2540  177.6550  146.8340 C   0  0  0  0  0  3  0  0  0  0  0  0
  186.9350  176.4160  144.2140 C   0  0  0  0  0  2  0  0  0  0  0  0
  188.3420  177.1360  146.2640 C   0  0  0  0  0  0  0  0  0  0  0  0
  188.2590  176.4660  144.9460 C   0  0  0  0  0  0  0  0  0  0  0  0
  189.3850  175.9340  144.4190 C   0  0  0  0  0  0  0  0  0  0  0  0
  185.7870  176.9990  144.9910 C   0  0  0  0  0  3  0  0  0  0  0  0
  190.6280  176.0290  145.1530 N   0  0  0  0  0  0  0  0  0  0  0  0
  189.5960  177.2150  146.9440 N   0  0  0  0  0  0  0  0  0  0  0  0
  190.6670  176.6990  146.4290 C   0  0  0  0  0  3  0  0  0  0  0  0
  185.9370  177.5850  146.1830 C   0  0  0  0  0  0  0  0  0  0  0  0
  188.7550  174.0590  140.5380 C   0  0  0  0  0  0  0  0  0  0  0  0
  188.2910  175.4140  140.8440 C   0  0  0  0  0  3  0  0  0  0  0  0
  188.8910  173.5160  139.3580 O   0  0  0  0  0  0  0  0  0  0  0  0
  189.1650  173.1610  141.4710 C   0  0  0  0  0  0  0  0  0  0  0  0
  189.5770  172.0350  140.8650 N   0  0  0  0  0  0  0  0  0  0  0  0
  189.3880  175.2310  143.0820 C   0  0  1  0  0  3  0  0  0  0  0  0
  189.0420  173.4320  143.2380 S   0  0  0  0  0  0  0  0  0  0  0  0
  189.3870  172.3070  139.5490 C   0  0  0  0  0  3  0  0  0  0  0  0
  188.5430  175.9450  142.0460 C   0  0  0  0  0  3  0  0  0  0  0  0
  192.9090  176.4840  144.3000 C   0  0  0  0  0  2  0  0  0  0  0  0
  192.7260  174.8270  145.6720 C   0  0  0  0  0  2  0  0  0  0  0  0
  191.8470  175.4330  144.5890 C   0  0  1  0  0  3  0  0  0  0  0  0
  193.7900  175.8790  145.3820 C   0  0  1  0  0  3  0  0  0  0  0  0
  195.0490  175.3390  144.8310 N   0  0  0  0  0  0  0  0  0  0  0  0
  196.0100  173.0680  145.3560 C   0  0  0  0  0  1  0  0  0  0  0  0
  195.8630  174.5330  145.7630 C   0  0  0  0  0  2  0  0  0  0  0  0
  195.8250  176.4180  144.2240 C   0  0  0  0  0  2  0  0  0  0  0  0
  196.4660  175.9420  142.9280 C   0  0  0  0  0  2  0  0  0  0  0  0
  195.5220  176.1090  141.7420 C   0  0  0  0  0  2  0  0  0  0  0  0
  194.7390  174.8640  141.4920 C   0  0  0  0  0  0  0  0  0  0  0  0
  194.5830  172.4450  141.5120 C   0  0  0  0  0  3  0  0  0  0  0  0
  193.2850  172.5250  140.9960 C   0  0  0  0  0  3  0  0  0  0  0  0
  192.7140  173.7720  140.7260 C   0  0  0  0  0  3  0  0  0  0  0  0
  195.3090  173.6140  141.7590 C   0  0  0  0  0  3  0  0  0  0  0  0
  193.4410  174.9420  140.9730 C   0  0  0  0  0  3  0  0  0  0  0  0
  184.7440  178.1280  146.8870 C   0  0  0  0  0  2  0  0  0  0  0  0
  183.8070  178.6730  145.9200 N   0  0  0  0  0  1  0  0  0  0  0  0
  2  4  1  0  0  0  0
  2  6  1  0  0  0  0
  3  1  2  0  0  0  0
  3  8  1  0  0  0  0
  4  3  1  0  0  0  0
  5  4  2  0  0  0  0
  5  7  1  0  0  0  0
  6 10  2  0  0  0  0
  7  9  1  0  0  0  0
  9  8  2  0  0  0  0
 10  1  1  0  0  0  0
 10 36  1  0  0  0  0
 11 12  1  0  0  0  0
 11 14  2  0  0  0  0
 12 19  2  0  0  0  0
 13 18  1  0  0  0  0
 13 11  1  0  0  0  0
 14 17  1  0  0  0  0
 15 14  1  0  0  0  0
 16 17  1  0  0  0  0
 16  5  1  1  0  0  0
 18 15  2  0  0  0  0
 19 16  1  0  0  0  0
 20 23  1  0  0  0  0
 22 20  1  1  0  0  0
 22  7  1  0  0  0  0
 22 21  1  0  0  0  0
 23 24  1  6  0  0  0
 23 21  1  0  0  0  0
 24 26  1  0  0  0  0
 25 26  1  0  0  0  0
 27 24  1  0  0  0  0
 28 27  1  0  0  0  0
 29 28  1  0  0  0  0
 30 29  1  0  0  0  0
 30 34  1  0  0  0  0
 31 34  2  0  0  0  0
 32 31  1  0  0  0  0
 33 35  1  0  0  0  0
 33 32  2  0  0  0  0
 35 30  2  0  0  0  0
 37 36  1  0  0  0  0
M  END
>  <MODEL>
8

>  <REMARK>
 VINA RESULT:      -6.8      2.040      7.314
  Name = 
  9 active torsions:
  status: ('A' for Active; 'I' for Inactive)
    1  A    between atoms: C_3  and  C_35
    2  A    between atoms: C_3  and  C_37
    3  A    between atoms: C_5  and  C_29
    4  A    between atoms: N_8  and  C_16
    5  A    between atoms: N_8  and  C_34
    6  A    between atoms: N_8  and  C_35
    7  A    between atoms: C_11  and  C_26
    8  A    between atoms: C_14  and  C_37
    9  A    between atoms: N_19  and  C_27
                            x       y       z     vdW  Elec       q    Type
                         _______ _______ _______ _____ _____    ______ ____

>  <TORSDO>
F 9

$$$$
=
 OpenBabel11062421553D

 37 42  0  0  1  0  0  0  0  0999 V2000
  187.5960  177.8520  147.0550 C   0  0  0  0  0  3  0  0  0  0  0  0
  187.0320  176.2860  144.6600 C   0  0  0  0  0  2  0  0  0  0  0  0
  188.5850  177.1080  146.5610 C   0  0  0  0  0  0  0  0  0  0  0  0
  188.3730  176.2640  145.3620 C   0  0  0  0  0  0  0  0  0  0  0  0
  189.4000  175.5090  144.9130 C   0  0  0  0  0  0  0  0  0  0  0  0
  185.9970  177.1320  145.3510 C   0  0  0  0  0  3  0  0  0  0  0  0
  190.6670  175.5420  145.6100 N   0  0  0  0  0  0  0  0  0  0  0  0
  189.8600  177.1160  147.2070 N   0  0  0  0  0  0  0  0  0  0  0  0
  190.8350  176.3850  146.7670 C   0  0  0  0  0  3  0  0  0  0  0  0
  186.2610  177.8660  146.4360 C   0  0  0  0  0  0  0  0  0  0  0  0
  189.5960  172.6870  141.5990 C   0  0  0  0  0  0  0  0  0  0  0  0
  189.8390  172.2910  142.9880 C   0  0  0  0  0  3  0  0  0  0  0  0
  189.3350  171.9050  140.5870 O   0  0  0  0  0  0  0  0  0  0  0  0
  189.5630  173.9740  141.1650 C   0  0  0  0  0  0  0  0  0  0  0  0
  189.2640  174.0010  139.8550 N   0  0  0  0  0  0  0  0  0  0  0  0
  189.2670  174.6180  143.7000 C   0  0  1  0  0  3  0  0  0  0  0  0
  189.9800  175.3840  142.1880 S   0  0  0  0  0  0  0  0  0  0  0  0
  189.1310  172.6870  139.5420 C   0  0  0  0  0  3  0  0  0  0  0  0
  189.7340  173.2000  143.9650 C   0  0  0  0  0  3  0  0  0  0  0  0
  192.8050  175.5180  144.3610 C   0  0  0  0  0  2  0  0  0  0  0  0
  192.7930  174.4420  146.2330 C   0  0  0  0  0  2  0  0  0  0  0  0
  191.7760  174.7050  145.1330 C   0  0  1  0  0  3  0  0  0  0  0  0
  193.8240  175.2550  145.4600 C   0  0  1  0  0  3  0  0  0  0  0  0
  194.9760  174.4730  144.9690 N   0  0  0  0  0  0  0  0  0  0  0  0
  196.7530  173.0620  146.0690 C   0  0  0  0  0  1  0  0  0  0  0  0
  196.1600  174.4530  145.8530 C   0  0  0  0  0  2  0  0  0  0  0  0
  195.3170  174.8940  143.6130 C   0  0  0  0  0  2  0  0  0  0  0  0
  195.4210  173.6840  142.6950 C   0  0  0  0  0  2  0  0  0  0  0  0
  194.1090  173.4230  141.9620 C   0  0  0  0  0  2  0  0  0  0  0  0
  193.5310  172.0990  142.3360 C   0  0  0  0  0  0  0  0  0  0  0  0
  192.9720  170.4590  144.0300 C   0  0  0  0  0  3  0  0  0  0  0  0
  192.4750  169.6050  143.0390 C   0  0  0  0  0  3  0  0  0  0  0  0
  192.5080  169.9960  141.6970 C   0  0  0  0  0  3  0  0  0  0  0  0
  193.5000  171.7040  143.6780 C   0  0  0  0  0  3  0  0  0  0  0  0
  193.0360  171.2430  141.3450 C   0  0  0  0  0  3  0  0  0  0  0  0
  185.1750  178.6680  147.0600 C   0  0  0  0  0  2  0  0  0  0  0  0
  184.0250  178.7140  146.1740 N   0  0  0  0  0  1  0  0  0  0  0  0
  2  6  1  0  0  0  0
  2  4  1  0  0  0  0
  3  1  2  0  0  0  0
  3  8  1  0  0  0  0
  4  3  1  0  0  0  0
  5  4  2  0  0  0  0
  5  7  1  0  0  0  0
  6 10  2  0  0  0  0
  7  9  1  0  0  0  0
  9  8  2  0  0  0  0
 10  1  1  0  0  0  0
 10 36  1  0  0  0  0
 11 12  1  0  0  0  0
 12 19  2  0  0  0  0
 13 11  1  0  0  0  0
 14 11  2  0  0  0  0
 14 17  1  0  0  0  0
 15 14  1  0  0  0  0
 16 19  1  0  0  0  0
 16  5  1  1  0  0  0
 17 16  1  0  0  0  0
 18 15  2  0  0  0  0
 18 13  1  0  0  0  0
 20 23  1  0  0  0  0
 22 20  1  6  0  0  0
 22  7  1  0  0  0  0
 22 21  1  0  0  0  0
 23 24  1  6  0  0  0
 23 21  1  0  0  0  0
 24 26  1  0  0  0  0
 26 25  1  0  0  0  0
 27 24  1  0  0  0  0
 28 27  1  0  0  0  0
 29 30  1  0  0  0  0
 29 28  1  0  0  0  0
 30 34  1  0  0  0  0
 32 31  1  0  0  0  0
 33 32  2  0  0  0  0
 34 31  2  0  0  0  0
 35 33  1  0  0  0  0
 35 30  2  0  0  0  0
 37 36  1  0  0  0  0
M  END
>  <MODEL>
9

>  <REMARK>
 VINA RESULT:      -6.6      1.789      7.334
  Name = 
  9 active torsions:
  status: ('A' for Active; 'I' for Inactive)
    1  A    between atoms: C_3  and  C_35
    2  A    between atoms: C_3  and  C_37
    3  A    between atoms: C_5  and  C_29
    4  A    between atoms: N_8  and  C_16
    5  A    between atoms: N_8  and  C_34
    6  A    between atoms: N_8  and  C_35
    7  A    between atoms: C_11  and  C_26
    8  A    between atoms: C_14  and  C_37
    9  A    between atoms: N_19  and  C_27
                            x       y       z     vdW  Elec       q    Type
                         _______ _______ _______ _____ _____    ______ ____

>  <TORSDO>
F 9

$$$$
