=
 OpenBabel11072409433D

 70 74  0  0  1  0  0  0  0  0999 V2000
  189.1940  172.2300  141.3860 C   0  0  1  0  0  3  0  0  0  0  0  0
  190.5380  172.6420  141.0780 O   0  0  0  0  0  0  0  0  0  0  0  0
  191.3760  171.8400  141.9070 C   0  0  2  0  0  3  0  0  0  0  0  0
  192.8270  173.0300  143.3890 O   0  0  0  0  0  1  0  0  0  0  0  0
  192.7360  172.3840  142.1030 C   0  0  2  0  0  3  0  0  0  0  0  0
  193.4480  173.1810  141.0180 C   0  0  0  0  0  2  0  0  0  0  0  0
  194.8650  173.5990  141.4870 C   0  0  1  0  0  3  0  0  0  0  0  0
  197.8060  173.1010  140.3410 C   0  0  0  0  0  2  0  0  0  0  0  0
  195.7900  172.4310  141.8180 C   0  0  0  0  0  2  0  0  0  0  0  0
  197.9390  174.1390  141.4250 C   0  0  0  0  0  2  0  0  0  0  0  0
  196.8010  175.1630  141.4090 C   0  0  0  0  0  2  0  0  0  0  0  0
  195.5140  174.7390  140.7110 C   0  0  0  0  0  2  0  0  0  0  0  0
  196.7790  172.0570  140.7460 C   0  0  1  0  0  3  0  0  0  0  0  0
  196.1430  171.4760  139.6210 O   0  0  0  0  0  0  0  0  0  0  0  0
  197.7280  169.7750  139.3110 O   0  0  0  0  0  1  0  0  0  0  0  0
  197.2720  171.0240  138.8640 C   0  0  1  0  0  3  0  0  0  0  0  0
  196.8460  170.9980  137.3700 C   0  0  1  0  0  3  0  0  0  0  0  0
  197.3220  169.6890  136.7260 C   0  0  0  0  0  3  0  0  0  0  0  0
  196.2280  168.8380  136.6950 F   0  0  0  0  0  0  0  0  0  0  0  0
  197.8760  169.8060  135.4450 F   0  0  0  0  0  0  0  0  0  0  0  0
  195.4900  171.1420  137.2260 O   0  0  0  0  0  0  0  0  0  0  0  0
  195.2300  171.9690  136.0820 C   0  0  0  0  0  2  0  0  0  0  0  0
  192.9970  171.7590  135.2700 O   0  0  0  0  0  1  0  0  0  0  0  0
  194.2970  171.2870  135.0760 C   0  0  0  0  0  2  0  0  0  0  0  0
  191.3180  170.4010  141.4180 C   0  0  0  0  0  2  0  0  0  0  0  0
  193.6340  169.2810  141.5530 C   0  0  0  0  0  1  0  0  0  0  0  0
  192.3030  169.5300  142.2030 C   0  0  1  0  0  3  0  0  0  0  0  0
  192.6390  168.7070  144.2230 O   0  0  0  0  0  1  0  0  0  0  0  0
  192.3160  169.8030  143.5830 O   0  0  0  0  0  0  0  0  0  0  0  0
  188.6170  172.9660  142.4660 O   0  0  0  0  0  0  0  0  0  0  0  0
  188.4200  174.2910  142.3240 C   0  0  0  0  0  0  0  0  0  0  0  0
  187.3060  174.8760  142.3500 O   0  0  0  0  0  0  0  0  0  0  0  0
  189.5870  175.1140  142.2510 C   0  0  0  0  0  2  0  0  0  0  0  0
  188.9840  176.7810  142.4630 P   0  0  1  0  0  4  0  0  0  0  0  0
  188.2270  177.4910  141.3680 O   0  0  0  0  0  0  0  0  0  0  0  0
  188.7770  177.2200  144.1770 C   0  0  1  0  0  3  0  0  0  0  0  0
  190.1160  177.3290  144.9250 C   0  0  1  0  0  3  0  0  0  0  0  0
  192.0390  174.9300  147.1450 C   0  0  0  0  0  2  0  0  0  0  0  0
  190.6480  175.1530  146.7710 C   0  0  1  0  0  0  0  0  0  0  0  0
  191.7180  174.7690  145.8360 O   0  0  0  0  0  0  0  0  0  0  0  0
  189.4520  175.3690  145.9890 C   0  0  1  0  0  3  0  0  0  0  0  0
  188.4560  175.2470  146.8750 F   0  0  0  0  0  0  0  0  0  0  0  0
  190.3160  176.6160  146.2760 C   0  0  2  0  0  0  0  0  0  0  0  0
  189.8880  177.4330  147.5150 C   0  0  0  0  0  1  0  0  0  0  0  0
  190.9150  178.4100  142.8970 O   0  0  0  0  0  1  0  0  0  0  0  0
  191.3110  177.9890  144.1460 C   0  0  2  0  0  3  0  0  0  0  0  0
  192.6950  176.2770  143.0270 O   0  0  0  0  0  0  0  0  0  0  0  0
  192.5090  177.1820  144.0750 C   0  0  0  0  0  0  0  0  0  0  0  0
  193.4880  177.2760  144.9460 O   0  0  0  0  0  1  0  0  0  0  0  0
  187.7090  178.2490  144.4190 O   0  0  0  0  0  0  0  0  0  0  0  0
  185.5330  179.2620  145.0410 C   0  0  0  0  0  3  0  0  0  0  0  0
  184.2980  179.1050  145.7100 C   0  0  0  0  0  3  0  0  0  0  0  0
  185.0190  176.9580  146.5540 C   0  0  0  0  0  3  0  0  0  0  0  0
  184.0190  177.9490  146.4610 C   0  0  0  0  0  3  0  0  0  0  0  0
  186.5420  178.2310  145.0960 C   0  0  0  0  0  0  0  0  0  0  0  0
  186.2450  177.1290  145.9100 C   0  0  0  0  0  3  0  0  0  0  0  0
  188.3800  172.3630  140.1010 C   0  0  0  0  0  2  0  0  0  0  0  0
  188.7030  174.5390  138.9810 F   0  0  0  0  0  0  0  0  0  0  0  0
  189.1790  173.2530  139.1450 C   0  0  2  0  0  3  0  0  0  0  0  0
  189.8050  172.6100  137.9460 C   0  0  0  0  0  2  0  0  0  0  0  0
  191.4350  175.2580  135.8150 C   0  0  0  0  0  3  0  0  0  0  0  0
  192.6310  175.4940  136.5330 C   0  0  0  0  0  0  0  0  0  0  0  0
  192.0030  173.7460  138.0260 N   0  0  0  0  0  0  0  0  0  0  0  0
  192.8740  174.6830  137.6520 C   0  0  0  0  0  3  0  0  0  0  0  0
  190.5260  174.2720  136.2350 C   0  0  0  0  0  3  0  0  0  0  0  0
  190.8160  173.5250  137.3860 C   0  0  0  0  0  0  0  0  0  0  0  0
  193.5200  176.4890  136.2390 O   0  0  0  0  0  0  0  0  0  0  0  0
  195.7690  176.5030  135.8490 O   0  0  0  0  0  1  0  0  0  0  0  0
  194.4130  175.0670  134.5230 C   0  0  0  0  0  1  0  0  0  0  0  0
  194.5310  176.4040  135.2410 C   0  0  1  0  0  3  0  0  0  0  0  0
  1 57  1  6  0  0  0
  1 30  1  0  0  0  0
  2  1  1  0  0  0  0
  2  3  1  0  0  0  0
  3 25  1  6  0  0  0
  3  5  1  0  0  0  0
  5  4  1  1  0  0  0
  6  5  1  0  0  0  0
  7  6  1  6  0  0  0
  7  9  1  0  0  0  0
  8 13  1  0  0  0  0
  8 10  1  0  0  0  0
 11 10  1  0  0  0  0
 12 11  1  0  0  0  0
 12  7  1  0  0  0  0
 13 14  1  6  0  0  0
 13  9  1  0  0  0  0
 16 15  1  1  0  0  0
 16 14  1  0  0  0  0
 17 18  1  1  0  0  0
 17 16  1  0  0  0  0
 19 18  1  0  0  0  0
 20 18  1  0  0  0  0
 21 17  1  0  0  0  0
 22 21  1  0  0  0  0
 24 23  1  0  0  0  0
 24 22  1  0  0  0  0
 25 27  1  0  0  0  0
 27 26  1  6  0  0  0
 27 29  1  0  0  0  0
 29 28  1  0  0  0  0
 31 32  2  0  0  0  0
 31 30  1  0  0  0  0
 33 31  1  0  0  0  0
 33 34  1  0  0  0  0
 34 35  2  6  0  0  0
 34 36  1  0  0  0  0
 36 50  1  6  0  0  0
 36 37  1  0  0  0  0
 37 46  1  6  0  0  0
 37 43  1  0  0  0  0
 39 38  1  1  0  0  0
 40 39  1  0  0  0  0
 40 38  1  0  0  0  0
 41 43  1  0  0  0  0
 41 39  1  0  0  0  0
 41 42  1  1  0  0  0
 43 39  1  0  0  0  0
 43 44  1  1  0  0  0
 46 45  1  6  0  0  0
 47 48  2  0  0  0  0
 48 46  1  0  0  0  0
 48 49  1  0  0  0  0
 50 55  1  0  0  0  0
 51 55  2  0  0  0  0
 51 52  1  0  0  0  0
 52 54  2  0  0  0  0
 54 53  1  0  0  0  0
 55 56  1  0  0  0  0
 56 53  2  0  0  0  0
 59 58  1  6  0  0  0
 59 57  1  0  0  0  0
 60 59  1  0  0  0  0
 61 65  2  0  0  0  0
 61 62  1  0  0  0  0
 62 64  2  0  0  0  0
 64 63  1  0  0  0  0
 65 66  1  0  0  0  0
 66 60  1  0  0  0  0
 66 63  2  0  0  0  0
 67 62  1  0  0  0  0
 70 69  1  1  0  0  0
 70 68  1  0  0  0  0
 70 67  1  0  0  0  0
M  END
>  <MODEL>
1

>  <REMARK>
 VINA RESULT:      -5.2      0.000      0.000
  Name = 
  32 active torsions:
  status: ('A' for Active; 'I' for Inactive)
    1  A    between atoms: O_1  and  C_20
    2  A    between atoms: O_1  and  C_22
    3  A    between atoms: C_5  and  C_65
    4  A    between atoms: C_6  and  C_20
    5  A    between atoms: C_7  and  O_11
    6  A    between atoms: C_7  and  C_66
    7  A    between atoms: C_9  and  C_31
    8  A    between atoms: C_9  and  C_59
    9  A    between atoms: O_10  and  C_50
   10  A    between atoms: O_10  and  C_64
   11  A    between atoms: O_11  and  C_59
   12  A    between atoms: C_16  and  O_41
   13  A    between atoms: O_17  and  C_61
   14  A    between atoms: O_17  and  C_70
   15  A    between atoms: C_18  and  C_48
   16  A    between atoms: C_20  and  C_70
   17  A    between atoms: O_21  and  C_42
   18  A    between atoms: C_22  and  C_46
   19  A    between atoms: C_27  and  C_31
   20  A    between atoms: C_27  and  C_57
   21  A    between atoms: O_32  and  C_59
   22  A    between atoms: O_32  and  C_60
   23  A    between atoms: C_33  and  C_42
   24  A    between atoms: C_33  and  C_60
   25  A    between atoms: P_38  and  C_50
   26  A    between atoms: P_38  and  C_66
   27  A    between atoms: O_41  and  C_62
   28  A    between atoms: C_48  and  C_54
   29  A    between atoms: C_50  and  C_54
   30  A    between atoms: C_52  and  C_54
   31  A    between atoms: C_60  and  C_63
   32  A    between atoms: C_63  and  C_65
                            x       y       z     vdW  Elec       q    Type
                         _______ _______ _______ _____ _____    ______ ____

>  <TORSDO>
F 32

$$$$
=
 OpenBabel11072409433D

 70 74  0  0  1  0  0  0  0  0999 V2000
  189.3900  172.4530  140.8890 C   0  0  1  0  0  3  0  0  0  0  0  0
  190.5610  173.2140  140.5420 O   0  0  0  0  0  0  0  0  0  0  0  0
  191.6380  172.5830  141.2310 C   0  0  2  0  0  3  0  0  0  0  0  0
  192.7180  174.6110  140.5650 O   0  0  0  0  0  1  0  0  0  0  0  0
  192.8400  173.4300  141.3850 C   0  0  2  0  0  3  0  0  0  0  0  0
  194.2460  172.8470  141.3340 C   0  0  0  0  0  2  0  0  0  0  0  0
  195.3060  173.9780  141.3500 C   0  0  1  0  0  3  0  0  0  0  0  0
  197.7240  174.7080  143.3080 C   0  0  0  0  0  2  0  0  0  0  0  0
  195.2470  174.8810  142.5800 C   0  0  0  0  0  2  0  0  0  0  0  0
  197.8860  175.5730  142.0860 C   0  0  0  0  0  2  0  0  0  0  0  0
  197.5780  174.8280  140.7850 C   0  0  0  0  0  2  0  0  0  0  0  0
  196.7090  173.5800  140.9060 C   0  0  0  0  0  2  0  0  0  0  0  0
  196.2510  174.5790  143.6600 C   0  0  1  0  0  3  0  0  0  0  0  0
  195.9680  173.3560  144.3160 O   0  0  0  0  0  0  0  0  0  0  0  0
  196.9520  173.5940  146.4320 O   0  0  0  0  0  1  0  0  0  0  0  0
  197.1510  173.1820  145.1060 C   0  0  1  0  0  3  0  0  0  0  0  0
  197.5580  171.6870  145.0070 C   0  0  1  0  0  3  0  0  0  0  0  0
  196.3900  170.8070  145.4730 C   0  0  0  0  0  3  0  0  0  0  0  0
  196.6900  170.3930  146.7620 F   0  0  0  0  0  0  0  0  0  0  0  0
  195.1250  171.4080  145.4440 F   0  0  0  0  0  0  0  0  0  0  0  0
  197.9390  171.3470  143.7330 O   0  0  0  0  0  0  0  0  0  0  0  0
  197.5320  169.9970  143.4710 C   0  0  0  0  0  2  0  0  0  0  0  0
  196.4420  169.8000  141.3580 O   0  0  0  0  0  1  0  0  0  0  0  0
  197.6740  169.6270  141.9910 C   0  0  0  0  0  2  0  0  0  0  0  0
  191.8830  171.2160  140.6120 C   0  0  0  0  0  2  0  0  0  0  0  0
  190.8580  169.0990  141.6620 C   0  0  0  0  0  1  0  0  0  0  0  0
  191.9410  170.1400  141.6990 C   0  0  1  0  0  3  0  0  0  0  0  0
  193.4670  169.7950  143.2570 O   0  0  0  0  0  1  0  0  0  0  0  0
  193.2440  169.6860  141.9710 O   0  0  0  0  0  0  0  0  0  0  0  0
  188.6960  172.9770  142.0220 O   0  0  0  0  0  0  0  0  0  0  0  0
  188.3480  174.2790  142.0300 C   0  0  0  0  0  0  0  0  0  0  0  0
  187.1960  174.7310  142.2630 O   0  0  0  0  0  0  0  0  0  0  0  0
  189.4030  175.2310  141.8730 C   0  0  0  0  0  2  0  0  0  0  0  0
  188.6930  176.7870  142.3860 P   0  0  1  0  0  4  0  0  0  0  0  0
  187.8320  177.6070  141.4570 O   0  0  0  0  0  0  0  0  0  0  0  0
  188.5420  176.9180  144.1570 C   0  0  1  0  0  3  0  0  0  0  0  0
  189.8900  176.7540  144.8790 C   0  0  1  0  0  3  0  0  0  0  0  0
  191.5500  175.4440  148.0280 C   0  0  0  0  0  2  0  0  0  0  0  0
  190.2080  175.4650  147.4600 C   0  0  1  0  0  0  0  0  0  0  0  0
  191.3650  174.7860  146.8550 O   0  0  0  0  0  0  0  0  0  0  0  0
  189.1010  175.3290  146.5410 C   0  0  1  0  0  3  0  0  0  0  0  0
  188.0170  175.5230  147.3020 F   0  0  0  0  0  0  0  0  0  0  0  0
  189.9420  176.6170  146.4130 C   0  0  2  0  0  0  0  0  0  0  0  0
  189.3950  177.8320  147.1960 C   0  0  0  0  0  1  0  0  0  0  0  0
  191.5530  175.1860  144.0450 O   0  0  0  0  0  1  0  0  0  0  0  0
  191.1510  176.5000  143.9760 C   0  0  2  0  0  3  0  0  0  0  0  0
  192.2060  178.7220  143.7490 O   0  0  0  0  0  0  0  0  0  0  0  0
  192.2560  177.4030  144.2090 C   0  0  0  0  0  0  0  0  0  0  0  0
  193.3300  177.0610  144.8840 O   0  0  0  0  0  1  0  0  0  0  0  0
  187.5860  177.9850  144.6110 O   0  0  0  0  0  0  0  0  0  0  0  0
  185.9660  179.1340  146.0950 C   0  0  0  0  0  3  0  0  0  0  0  0
  184.7720  179.0450  146.8460 C   0  0  0  0  0  3  0  0  0  0  0  0
  184.6330  176.6820  146.3550 C   0  0  0  0  0  3  0  0  0  0  0  0
  184.0830  177.8250  146.9740 C   0  0  0  0  0  3  0  0  0  0  0  0
  186.5080  177.9780  145.4220 C   0  0  0  0  0  0  0  0  0  0  0  0
  185.8240  176.7730  145.6340 C   0  0  0  0  0  3  0  0  0  0  0  0
  188.5060  172.4010  139.6460 C   0  0  0  0  0  2  0  0  0  0  0  0
  188.4070  174.7820  138.9990 F   0  0  0  0  0  0  0  0  0  0  0  0
  188.9480  173.5410  138.7240 C   0  0  2  0  0  3  0  0  0  0  0  0
  189.1970  173.2210  137.2830 C   0  0  0  0  0  2  0  0  0  0  0  0
  192.9510  172.8870  137.3640 C   0  0  0  0  0  3  0  0  0  0  0  0
  193.1080  171.4920  137.1970 C   0  0  0  0  0  0  0  0  0  0  0  0
  190.7450  171.3220  136.9370 N   0  0  0  0  0  0  0  0  0  0  0  0
  191.9440  170.7400  136.9720 C   0  0  0  0  0  3  0  0  0  0  0  0
  191.6750  173.4760  137.3340 C   0  0  0  0  0  3  0  0  0  0  0  0
  190.5530  172.6580  137.1440 C   0  0  0  0  0  0  0  0  0  0  0  0
  194.3030  170.8350  137.2990 O   0  0  0  0  0  0  0  0  0  0  0  0
  194.5020  170.7450  135.0260 O   0  0  0  0  0  1  0  0  0  0  0  0
  196.4760  170.5050  136.3330 C   0  0  0  0  0  1  0  0  0  0  0  0
  194.9850  170.2220  136.2120 C   0  0  1  0  0  3  0  0  0  0  0  0
  1 57  1  6  0  0  0
  1 30  1  0  0  0  0
  2  1  1  0  0  0  0
  2  3  1  0  0  0  0
  3 25  1  6  0  0  0
  3  5  1  0  0  0  0
  5  4  1  6  0  0  0
  6  5  1  0  0  0  0
  7  6  1  1  0  0  0
  7  9  1  0  0  0  0
  8 13  1  0  0  0  0
  9 13  1  0  0  0  0
 10  8  1  0  0  0  0
 11 12  1  0  0  0  0
 11 10  1  0  0  0  0
 12  7  1  0  0  0  0
 13 14  1  6  0  0  0
 14 16  1  0  0  0  0
 16 15  1  1  0  0  0
 17 21  1  6  0  0  0
 17 16  1  0  0  0  0
 17 18  1  0  0  0  0
 18 19  1  0  0  0  0
 20 18  1  0  0  0  0
 22 21  1  0  0  0  0
 23 24  1  0  0  0  0
 24 22  1  0  0  0  0
 25 27  1  0  0  0  0
 27 26  1  6  0  0  0
 27 29  1  0  0  0  0
 29 28  1  0  0  0  0
 30 31  1  0  0  0  0
 31 32  2  0  0  0  0
 33 31  1  0  0  0  0
 33 34  1  0  0  0  0
 34 35  2  6  0  0  0
 34 36  1  0  0  0  0
 36 50  1  6  0  0  0
 36 37  1  0  0  0  0
 37 46  1  6  0  0  0
 37 43  1  0  0  0  0
 39 38  1  1  0  0  0
 40 39  1  0  0  0  0
 40 38  1  0  0  0  0
 41 42  1  1  0  0  0
 41 39  1  0  0  0  0
 43 41  1  0  0  0  0
 43 44  1  1  0  0  0
 43 39  1  0  0  0  0
 46 45  1  1  0  0  0
 46 48  1  0  0  0  0
 47 48  2  0  0  0  0
 48 49  1  0  0  0  0
 50 55  1  0  0  0  0
 51 52  1  0  0  0  0
 52 54  2  0  0  0  0
 53 54  1  0  0  0  0
 55 56  1  0  0  0  0
 55 51  2  0  0  0  0
 56 53  2  0  0  0  0
 59 58  1  6  0  0  0
 59 57  1  0  0  0  0
 60 59  1  0  0  0  0
 62 67  1  0  0  0  0
 62 61  2  0  0  0  0
 63 64  2  0  0  0  0
 63 66  1  0  0  0  0
 64 62  1  0  0  0  0
 65 61  1  0  0  0  0
 66 60  1  0  0  0  0
 66 65  2  0  0  0  0
 68 70  1  0  0  0  0
 70 69  1  1  0  0  0
 70 67  1  0  0  0  0
M  END
>  <MODEL>
2

>  <REMARK>
 VINA RESULT:      -5.1      2.380      3.803
  Name = 
  32 active torsions:
  status: ('A' for Active; 'I' for Inactive)
    1  A    between atoms: O_1  and  C_20
    2  A    between atoms: O_1  and  C_22
    3  A    between atoms: C_5  and  C_65
    4  A    between atoms: C_6  and  C_20
    5  A    between atoms: C_7  and  O_11
    6  A    between atoms: C_7  and  C_66
    7  A    between atoms: C_9  and  C_31
    8  A    between atoms: C_9  and  C_59
    9  A    between atoms: O_10  and  C_50
   10  A    between atoms: O_10  and  C_64
   11  A    between atoms: O_11  and  C_59
   12  A    between atoms: C_16  and  O_41
   13  A    between atoms: O_17  and  C_61
   14  A    between atoms: O_17  and  C_70
   15  A    between atoms: C_18  and  C_48
   16  A    between atoms: C_20  and  C_70
   17  A    between atoms: O_21  and  C_42
   18  A    between atoms: C_22  and  C_46
   19  A    between atoms: C_27  and  C_31
   20  A    between atoms: C_27  and  C_57
   21  A    between atoms: O_32  and  C_59
   22  A    between atoms: O_32  and  C_60
   23  A    between atoms: C_33  and  C_42
   24  A    between atoms: C_33  and  C_60
   25  A    between atoms: P_38  and  C_50
   26  A    between atoms: P_38  and  C_66
   27  A    between atoms: O_41  and  C_62
   28  A    between atoms: C_48  and  C_54
   29  A    between atoms: C_50  and  C_54
   30  A    between atoms: C_52  and  C_54
   31  A    between atoms: C_60  and  C_63
   32  A    between atoms: C_63  and  C_65
                            x       y       z     vdW  Elec       q    Type
                         _______ _______ _______ _____ _____    ______ ____

>  <TORSDO>
F 32

$$$$
=
 OpenBabel11072409433D

 70 74  0  0  1  0  0  0  0  0999 V2000
  190.1160  174.6680  144.0960 C   0  0  1  0  0  3  0  0  0  0  0  0
  188.9910  174.2200  143.3180 O   0  0  0  0  0  0  0  0  0  0  0  0
  188.5520  175.3690  142.5960 C   0  0  2  0  0  3  0  0  0  0  0  0
  186.2100  175.7340  142.9160 O   0  0  0  0  0  1  0  0  0  0  0  0
  187.5300  176.1730  143.2980 C   0  0  2  0  0  3  0  0  0  0  0  0
  187.6200  177.6910  143.3820 C   0  0  0  0  0  2  0  0  0  0  0  0
  186.9880  178.2040  144.7010 C   0  0  1  0  0  3  0  0  0  0  0  0
  184.0200  178.1730  145.8860 C   0  0  0  0  0  2  0  0  0  0  0  0
  185.9160  179.2750  144.5130 C   0  0  0  0  0  2  0  0  0  0  0  0
  184.9260  178.5950  147.0120 C   0  0  0  0  0  2  0  0  0  0  0  0
  186.2400  177.8100  147.0440 C   0  0  0  0  0  2  0  0  0  0  0  0
  186.6620  177.1390  145.7410 C   0  0  0  0  0  2  0  0  0  0  0  0
  184.4920  178.7920  144.5800 C   0  0  1  0  0  3  0  0  0  0  0  0
  184.1530  177.9920  143.4610 O   0  0  0  0  0  0  0  0  0  0  0  0
  185.2840  178.6030  141.4980 O   0  0  0  0  0  1  0  0  0  0  0  0
  184.2590  178.9430  142.3950 C   0  0  1  0  0  3  0  0  0  0  0  0
  182.8700  179.0210  141.7040 C   0  0  1  0  0  3  0  0  0  0  0  0
  182.9050  178.2170  140.3960 C   0  0  0  0  0  3  0  0  0  0  0  0
  183.6690  177.0870  140.6420 F   0  0  0  0  0  0  0  0  0  0  0  0
  181.6580  177.8500  139.8750 F   0  0  0  0  0  0  0  0  0  0  0  0
  181.8690  178.5670  142.5240 O   0  0  0  0  0  0  0  0  0  0  0  0
  180.6730  179.3130  142.2530 C   0  0  0  0  0  2  0  0  0  0  0  0
  178.3010  179.1690  142.4590 O   0  0  0  0  0  1  0  0  0  0  0  0
  179.4920  178.8450  143.1100 C   0  0  0  0  0  2  0  0  0  0  0  0
  188.1860  174.9480  141.1810 C   0  0  0  0  0  2  0  0  0  0  0  0
  187.3610  172.6150  141.8930 C   0  0  0  0  0  1  0  0  0  0  0  0
  188.2850  173.4280  141.0330 C   0  0  1  0  0  3  0  0  0  0  0  0
  188.7370  174.0440  138.9620 O   0  0  0  0  0  1  0  0  0  0  0  0
  188.4450  173.0040  139.7010 O   0  0  0  0  0  0  0  0  0  0  0  0
  190.6930  173.6330  144.8930 O   0  0  0  0  0  0  0  0  0  0  0  0
  191.6180  172.8230  144.3420 C   0  0  0  0  0  0  0  0  0  0  0  0
  192.8040  172.6820  144.7400 O   0  0  0  0  0  0  0  0  0  0  0  0
  191.1780  171.9640  143.2850 C   0  0  0  0  0  2  0  0  0  0  0  0
  192.5130  170.8010  143.0570 P   0  0  1  0  0  4  0  0  0  0  0  0
  192.4130  169.3780  143.5490 O   0  0  0  0  0  0  0  0  0  0  0  0
  193.5860  171.2480  141.7070 C   0  0  1  0  0  3  0  0  0  0  0  0
  193.7450  170.1160  140.6790 C   0  0  1  0  0  3  0  0  0  0  0  0
  192.3830  168.2680  137.6600 C   0  0  0  0  0  2  0  0  0  0  0  0
  192.9700  169.5730  137.9340 C   0  0  1  0  0  0  0  0  0  0  0  0
  193.6630  168.2860  138.1100 O   0  0  0  0  0  0  0  0  0  0  0  0
  193.8610  170.6080  138.4070 C   0  0  1  0  0  3  0  0  0  0  0  0
  193.4130  171.7210  137.8140 F   0  0  0  0  0  0  0  0  0  0  0  0
  192.8430  170.0630  139.4310 C   0  0  2  0  0  0  0  0  0  0  0  0
  191.5310  170.8720  139.5380 C   0  0  0  0  0  1  0  0  0  0  0  0
  194.7460  168.1660  141.7340 O   0  0  0  0  0  1  0  0  0  0  0  0
  194.9990  169.1820  140.8420 C   0  0  2  0  0  3  0  0  0  0  0  0
  196.9850  170.4790  140.1530 O   0  0  0  0  0  0  0  0  0  0  0  0
  196.2310  169.8700  141.1600 C   0  0  0  0  0  0  0  0  0  0  0  0
  196.6850  169.9950  142.3860 O   0  0  0  0  0  1  0  0  0  0  0  0
  193.4070  172.6620  141.2280 O   0  0  0  0  0  0  0  0  0  0  0  0
  193.8690  175.0460  140.7290 C   0  0  0  0  0  3  0  0  0  0  0  0
  194.8280  176.0830  140.6650 C   0  0  0  0  0  3  0  0  0  0  0  0
  196.5830  174.4990  141.1730 C   0  0  0  0  0  3  0  0  0  0  0  0
  196.1910  175.8270  140.8990 C   0  0  0  0  0  3  0  0  0  0  0  0
  194.2580  173.6950  141.0540 C   0  0  0  0  0  0  0  0  0  0  0  0
  195.6330  173.4770  141.2130 C   0  0  0  0  0  3  0  0  0  0  0  0
  191.1230  175.2710  143.1200 C   0  0  0  0  0  2  0  0  0  0  0  0
  191.8260  177.5590  142.5130 F   0  0  0  0  0  0  0  0  0  0  0  0
  191.2970  176.7450  143.4960 C   0  0  2  0  0  3  0  0  0  0  0  0
  191.6690  177.0700  144.9090 C   0  0  0  0  0  2  0  0  0  0  0  0
  194.3410  174.9700  146.5410 C   0  0  0  0  0  3  0  0  0  0  0  0
  195.3820  175.0570  145.5880 C   0  0  0  0  0  0  0  0  0  0  0  0
  194.0230  176.5620  144.3360 N   0  0  0  0  0  0  0  0  0  0  0  0
  195.1680  175.8950  144.4830 C   0  0  0  0  0  3  0  0  0  0  0  0
  193.1380  175.6750  146.3600 C   0  0  0  0  0  3  0  0  0  0  0  0
  192.9780  176.4630  145.2110 C   0  0  0  0  0  0  0  0  0  0  0  0
  196.5420  174.3370  145.6500 O   0  0  0  0  0  0  0  0  0  0  0  0
  197.9230  173.0930  144.3240 O   0  0  0  0  0  1  0  0  0  0  0  0
  196.8180  171.9990  146.1250 C   0  0  0  0  0  1  0  0  0  0  0  0
  196.7410  173.0670  145.0410 C   0  0  1  0  0  3  0  0  0  0  0  0
  1 57  1  6  0  0  0
  1 30  1  0  0  0  0
  2  1  1  0  0  0  0
  3 25  1  6  0  0  0
  3  5  1  0  0  0  0
  3  2  1  0  0  0  0
  5  4  1  6  0  0  0
  5  6  1  0  0  0  0
  7  6  1  6  0  0  0
  7 12  1  0  0  0  0
  8 10  1  0  0  0  0
  9 13  1  0  0  0  0
  9  7  1  0  0  0  0
 10 11  1  0  0  0  0
 12 11  1  0  0  0  0
 13 14  1  6  0  0  0
 13  8  1  0  0  0  0
 16 15  1  6  0  0  0
 16 14  1  0  0  0  0
 17 18  1  6  0  0  0
 17 16  1  0  0  0  0
 17 21  1  0  0  0  0
 18 19  1  0  0  0  0
 20 18  1  0  0  0  0
 22 21  1  0  0  0  0
 22 24  1  0  0  0  0
 23 24  1  0  0  0  0
 27 25  1  0  0  0  0
 27 26  1  6  0  0  0
 28 29  1  0  0  0  0
 29 27  1  0  0  0  0
 31 32  2  0  0  0  0
 31 30  1  0  0  0  0
 33 31  1  0  0  0  0
 34 33  1  0  0  0  0
 34 35  2  6  0  0  0
 36 50  1  6  0  0  0
 36 34  1  0  0  0  0
 37 46  1  6  0  0  0
 37 36  1  0  0  0  0
 38 40  1  0  0  0  0
 39 38  1  6  0  0  0
 39 40  1  0  0  0  0
 39 41  1  0  0  0  0
 39 43  1  0  0  0  0
 41 42  1  6  0  0  0
 41 43  1  0  0  0  0
 43 44  1  1  0  0  0
 43 37  1  0  0  0  0
 46 48  1  0  0  0  0
 46 45  1  1  0  0  0
 47 48  2  0  0  0  0
 48 49  1  0  0  0  0
 51 55  1  0  0  0  0
 52 51  2  0  0  0  0
 52 54  1  0  0  0  0
 53 56  1  0  0  0  0
 54 53  2  0  0  0  0
 55 56  2  0  0  0  0
 55 50  1  0  0  0  0
 57 59  1  0  0  0  0
 59 58  1  6  0  0  0
 59 60  1  0  0  0  0
 60 66  1  0  0  0  0
 62 67  1  0  0  0  0
 62 61  2  0  0  0  0
 63 64  2  0  0  0  0
 63 66  1  0  0  0  0
 64 62  1  0  0  0  0
 65 61  1  0  0  0  0
 66 65  2  0  0  0  0
 68 70  1  0  0  0  0
 70 67  1  0  0  0  0
 70 69  1  1  0  0  0
M  END
>  <MODEL>
3

>  <REMARK>
 VINA RESULT:      -5.0      3.370     10.876
  Name = 
  32 active torsions:
  status: ('A' for Active; 'I' for Inactive)
    1  A    between atoms: O_1  and  C_20
    2  A    between atoms: O_1  and  C_22
    3  A    between atoms: C_5  and  C_65
    4  A    between atoms: C_6  and  C_20
    5  A    between atoms: C_7  and  O_11
    6  A    between atoms: C_7  and  C_66
    7  A    between atoms: C_9  and  C_31
    8  A    between atoms: C_9  and  C_59
    9  A    between atoms: O_10  and  C_50
   10  A    between atoms: O_10  and  C_64
   11  A    between atoms: O_11  and  C_59
   12  A    between atoms: C_16  and  O_41
   13  A    between atoms: O_17  and  C_61
   14  A    between atoms: O_17  and  C_70
   15  A    between atoms: C_18  and  C_48
   16  A    between atoms: C_20  and  C_70
   17  A    between atoms: O_21  and  C_42
   18  A    between atoms: C_22  and  C_46
   19  A    between atoms: C_27  and  C_31
   20  A    between atoms: C_27  and  C_57
   21  A    between atoms: O_32  and  C_59
   22  A    between atoms: O_32  and  C_60
   23  A    between atoms: C_33  and  C_42
   24  A    between atoms: C_33  and  C_60
   25  A    between atoms: P_38  and  C_50
   26  A    between atoms: P_38  and  C_66
   27  A    between atoms: O_41  and  C_62
   28  A    between atoms: C_48  and  C_54
   29  A    between atoms: C_50  and  C_54
   30  A    between atoms: C_52  and  C_54
   31  A    between atoms: C_60  and  C_63
   32  A    between atoms: C_63  and  C_65
                            x       y       z     vdW  Elec       q    Type
                         _______ _______ _______ _____ _____    ______ ____

>  <TORSDO>
F 32

$$$$
=
 OpenBabel11072409433D

 70 74  0  0  1  0  0  0  0  0999 V2000
  187.9910  175.7910  141.5310 C   0  0  1  0  0  3  0  0  0  0  0  0
  187.2570  175.6590  142.7620 O   0  0  0  0  0  0  0  0  0  0  0  0
  187.7800  176.6680  143.6220 C   0  0  2  0  0  3  0  0  0  0  0  0
  189.9840  177.0330  142.7700 O   0  0  0  0  0  1  0  0  0  0  0  0
  189.2270  176.5430  143.8960 C   0  0  2  0  0  3  0  0  0  0  0  0
  189.8290  175.2690  144.4720 C   0  0  0  0  0  2  0  0  0  0  0  0
  190.3290  175.5060  145.9200 C   0  0  1  0  0  3  0  0  0  0  0  0
  193.0340  176.6740  147.1590 C   0  0  0  0  0  2  0  0  0  0  0  0
  191.5800  174.7160  146.2940 C   0  0  0  0  0  2  0  0  0  0  0  0
  192.0490  176.5770  148.2940 C   0  0  0  0  0  2  0  0  0  0  0  0
  190.6340  176.9980  147.8910 C   0  0  0  0  0  2  0  0  0  0  0  0
  190.3090  176.9520  146.4020 C   0  0  0  0  0  2  0  0  0  0  0  0
  192.8770  175.4780  146.2330 C   0  0  1  0  0  3  0  0  0  0  0  0
  193.2450  175.7880  144.9010 O   0  0  0  0  0  0  0  0  0  0  0  0
  195.3020  175.2010  145.8650 O   0  0  0  0  0  1  0  0  0  0  0  0
  194.4530  175.0310  144.7610 C   0  0  1  0  0  3  0  0  0  0  0  0
  194.0470  173.5460  144.5510 C   0  0  1  0  0  3  0  0  0  0  0  0
  193.4630  173.3700  143.1430 C   0  0  0  0  0  3  0  0  0  0  0  0
  192.0950  173.2040  143.2950 F   0  0  0  0  0  0  0  0  0  0  0  0
  193.7230  174.4100  142.2410 F   0  0  0  0  0  0  0  0  0  0  0  0
  195.1080  172.6970  144.7430 O   0  0  0  0  0  0  0  0  0  0  0  0
  194.7030  171.6400  145.6250 C   0  0  0  0  0  2  0  0  0  0  0  0
  193.3000  169.9690  144.6610 O   0  0  0  0  0  1  0  0  0  0  0  0
  194.6360  170.2860  144.9110 C   0  0  0  0  0  2  0  0  0  0  0  0
  186.8940  176.7700  144.8550 C   0  0  0  0  0  2  0  0  0  0  0  0
  186.0300  179.1950  144.7690 C   0  0  0  0  0  1  0  0  0  0  0  0
  186.9340  178.1900  145.4250 C   0  0  1  0  0  3  0  0  0  0  0  0
  185.8850  178.7220  147.2930 O   0  0  0  0  0  1  0  0  0  0  0  0
  187.0060  178.2290  146.8290 O   0  0  0  0  0  0  0  0  0  0  0  0
  188.1700  174.5490  140.8500 O   0  0  0  0  0  0  0  0  0  0  0  0
  189.4150  174.1580  140.5160 C   0  0  0  0  0  0  0  0  0  0  0  0
  190.4720  174.4690  141.1250 O   0  0  0  0  0  0  0  0  0  0  0  0
  189.5320  173.2170  139.4450 C   0  0  0  0  0  2  0  0  0  0  0  0
  191.2730  172.8260  139.3710 P   0  0  1  0  0  4  0  0  0  0  0  0
  191.9140  171.8870  140.3630 O   0  0  0  0  0  0  0  0  0  0  0  0
  191.9620  173.0810  137.7480 C   0  0  1  0  0  3  0  0  0  0  0  0
  192.4640  171.7760  137.1070 C   0  0  1  0  0  3  0  0  0  0  0  0
  195.8010  170.1840  137.9540 C   0  0  0  0  0  2  0  0  0  0  0  0
  195.3010  171.5230  137.6670 C   0  0  1  0  0  0  0  0  0  0  0  0
  194.8880  170.7000  138.8160 O   0  0  0  0  0  0  0  0  0  0  0  0
  194.5040  172.7290  137.6950 C   0  0  1  0  0  3  0  0  0  0  0  0
  195.2090  173.6030  136.9670 F   0  0  0  0  0  0  0  0  0  0  0  0
  193.9650  171.5730  136.8250 C   0  0  2  0  0  0  0  0  0  0  0  0
  194.3650  171.6380  135.3340 C   0  0  0  0  0  1  0  0  0  0  0  0
  192.0560  169.3810  136.9920 O   0  0  0  0  0  1  0  0  0  0  0  0
  191.4250  170.6040  136.9800 C   0  0  2  0  0  3  0  0  0  0  0  0
  190.9570  170.4830  134.5580 O   0  0  0  0  0  0  0  0  0  0  0  0
  190.5140  170.7170  135.8630 C   0  0  0  0  0  0  0  0  0  0  0  0
  189.2400  171.0010  136.0040 O   0  0  0  0  0  1  0  0  0  0  0  0
  191.2010  174.0700  136.9110 O   0  0  0  0  0  0  0  0  0  0  0  0
  190.7750  175.7650  135.1520 C   0  0  0  0  0  3  0  0  0  0  0  0
  191.2050  176.9520  134.5160 C   0  0  0  0  0  3  0  0  0  0  0  0
  193.2280  176.9350  135.8400 C   0  0  0  0  0  3  0  0  0  0  0  0
  192.4270  177.5590  134.8610 C   0  0  0  0  0  3  0  0  0  0  0  0
  191.5700  175.1470  136.1860 C   0  0  0  0  0  0  0  0  0  0  0  0
  192.8080  175.7510  136.4460 C   0  0  0  0  0  3  0  0  0  0  0  0
  187.2500  176.8150  140.6760 C   0  0  0  0  0  2  0  0  0  0  0  0
  185.2880  176.3540  142.1020 F   0  0  0  0  0  0  0  0  0  0  0  0
  186.0640  177.3250  141.4990 C   0  0  2  0  0  3  0  0  0  0  0  0
  185.3520  178.5510  141.0200 C   0  0  0  0  0  2  0  0  0  0  0  0
  181.9530  178.7050  142.6430 C   0  0  0  0  0  3  0  0  0  0  0  0
  181.1120  178.3750  141.5560 C   0  0  0  0  0  0  0  0  0  0  0  0
  183.0640  178.0250  140.2350 N   0  0  0  0  0  0  0  0  0  0  0  0
  181.7360  178.0250  140.3480 C   0  0  0  0  0  3  0  0  0  0  0  0
  183.3510  178.7080  142.4970 C   0  0  0  0  0  3  0  0  0  0  0  0
  183.9050  178.3860  141.2490 C   0  0  0  0  0  0  0  0  0  0  0  0
  179.7470  178.4320  141.5960 O   0  0  0  0  0  0  0  0  0  0  0  0
  178.1000  176.8520  141.5450 O   0  0  0  0  0  1  0  0  0  0  0  0
  177.9900  178.6320  139.9700 C   0  0  0  0  0  1  0  0  0  0  0  0
  178.8790  177.6790  140.7570 C   0  0  1  0  0  3  0  0  0  0  0  0
  1 57  1  6  0  0  0
  1  2  1  0  0  0  0
  2  3  1  0  0  0  0
  3  5  1  0  0  0  0
  3 25  1  1  0  0  0
  5  4  1  6  0  0  0
  5  6  1  0  0  0  0
  7  6  1  6  0  0  0
  7  9  1  0  0  0  0
  7 12  1  0  0  0  0
  8 10  1  0  0  0  0
 11 10  1  0  0  0  0
 12 11  1  0  0  0  0
 13 14  1  6  0  0  0
 13  9  1  0  0  0  0
 13  8  1  0  0  0  0
 16 14  1  0  0  0  0
 16 15  1  1  0  0  0
 17 18  1  6  0  0  0
 17 21  1  0  0  0  0
 17 16  1  0  0  0  0
 18 19  1  0  0  0  0
 20 18  1  0  0  0  0
 21 22  1  0  0  0  0
 23 24  1  0  0  0  0
 24 22  1  0  0  0  0
 25 27  1  0  0  0  0
 27 26  1  1  0  0  0
 27 29  1  0  0  0  0
 29 28  1  0  0  0  0
 30  1  1  0  0  0  0
 31 30  1  0  0  0  0
 31 32  2  0  0  0  0
 33 31  1  0  0  0  0
 34 33  1  0  0  0  0
 34 35  2  6  0  0  0
 36 50  1  6  0  0  0
 36 34  1  0  0  0  0
 37 46  1  1  0  0  0
 37 36  1  0  0  0  0
 38 40  1  0  0  0  0
 39 41  1  0  0  0  0
 39 38  1  6  0  0  0
 39 40  1  0  0  0  0
 41 42  1  6  0  0  0
 43 44  1  6  0  0  0
 43 37  1  0  0  0  0
 43 39  1  0  0  0  0
 43 41  1  0  0  0  0
 46 45  1  6  0  0  0
 47 48  2  0  0  0  0
 48 49  1  0  0  0  0
 48 46  1  0  0  0  0
 51 55  1  0  0  0  0
 52 54  1  0  0  0  0
 52 51  2  0  0  0  0
 53 56  1  0  0  0  0
 54 53  2  0  0  0  0
 55 56  2  0  0  0  0
 55 50  1  0  0  0  0
 57 59  1  0  0  0  0
 59 58  1  6  0  0  0
 60 66  1  0  0  0  0
 60 59  1  0  0  0  0
 62 67  1  0  0  0  0
 62 61  2  0  0  0  0
 63 64  2  0  0  0  0
 63 66  1  0  0  0  0
 64 62  1  0  0  0  0
 65 61  1  0  0  0  0
 66 65  2  0  0  0  0
 70 69  1  1  0  0  0
 70 68  1  0  0  0  0
 70 67  1  0  0  0  0
M  END
>  <MODEL>
4

>  <REMARK>
 VINA RESULT:      -4.7      3.600      9.940
  Name = 
  32 active torsions:
  status: ('A' for Active; 'I' for Inactive)
    1  A    between atoms: O_1  and  C_20
    2  A    between atoms: O_1  and  C_22
    3  A    between atoms: C_5  and  C_65
    4  A    between atoms: C_6  and  C_20
    5  A    between atoms: C_7  and  O_11
    6  A    between atoms: C_7  and  C_66
    7  A    between atoms: C_9  and  C_31
    8  A    between atoms: C_9  and  C_59
    9  A    between atoms: O_10  and  C_50
   10  A    between atoms: O_10  and  C_64
   11  A    between atoms: O_11  and  C_59
   12  A    between atoms: C_16  and  O_41
   13  A    between atoms: O_17  and  C_61
   14  A    between atoms: O_17  and  C_70
   15  A    between atoms: C_18  and  C_48
   16  A    between atoms: C_20  and  C_70
   17  A    between atoms: O_21  and  C_42
   18  A    between atoms: C_22  and  C_46
   19  A    between atoms: C_27  and  C_31
   20  A    between atoms: C_27  and  C_57
   21  A    between atoms: O_32  and  C_59
   22  A    between atoms: O_32  and  C_60
   23  A    between atoms: C_33  and  C_42
   24  A    between atoms: C_33  and  C_60
   25  A    between atoms: P_38  and  C_50
   26  A    between atoms: P_38  and  C_66
   27  A    between atoms: O_41  and  C_62
   28  A    between atoms: C_48  and  C_54
   29  A    between atoms: C_50  and  C_54
   30  A    between atoms: C_52  and  C_54
   31  A    between atoms: C_60  and  C_63
   32  A    between atoms: C_63  and  C_65
                            x       y       z     vdW  Elec       q    Type
                         _______ _______ _______ _____ _____    ______ ____

>  <TORSDO>
F 32

$$$$
=
 OpenBabel11072409433D

 70 74  0  0  1  0  0  0  0  0999 V2000
  187.8950  175.6800  141.7150 C   0  0  1  0  0  3  0  0  0  0  0  0
  187.2620  175.5400  142.9990 O   0  0  0  0  0  0  0  0  0  0  0  0
  187.7010  176.6630  143.7590 C   0  0  2  0  0  3  0  0  0  0  0  0
  189.6380  177.4730  142.6140 O   0  0  0  0  0  1  0  0  0  0  0  0
  189.1690  176.8240  143.8150 C   0  0  2  0  0  3  0  0  0  0  0  0
  190.0870  175.6850  144.2380 C   0  0  0  0  0  2  0  0  0  0  0  0
  190.4250  175.7880  145.7470 C   0  0  1  0  0  3  0  0  0  0  0  0
  193.0970  176.4470  147.3720 C   0  0  0  0  0  2  0  0  0  0  0  0
  191.4730  174.7880  146.2290 C   0  0  0  0  0  2  0  0  0  0  0  0
  191.9700  176.4780  148.3700 C   0  0  0  0  0  2  0  0  0  0  0  0
  190.7050  177.1410  147.8190 C   0  0  0  0  0  2  0  0  0  0  0  0
  190.5750  177.2000  146.3010 C   0  0  0  0  0  2  0  0  0  0  0  0
  192.8720  175.3260  146.3710 C   0  0  1  0  0  3  0  0  0  0  0  0
  193.4560  175.6150  145.1130 O   0  0  0  0  0  0  0  0  0  0  0  0
  193.8180  173.5040  144.1540 O   0  0  0  0  0  1  0  0  0  0  0  0
  194.3600  174.5130  144.9640 C   0  0  1  0  0  3  0  0  0  0  0  0
  195.6890  175.0790  144.3940 C   0  0  1  0  0  3  0  0  0  0  0  0
  196.8750  174.4290  145.1200 C   0  0  0  0  0  3  0  0  0  0  0  0
  196.4680  174.2000  146.4250 F   0  0  0  0  0  0  0  0  0  0  0  0
  197.3600  173.2430  144.5540 F   0  0  0  0  0  0  0  0  0  0  0  0
  195.7850  174.8810  143.0390 O   0  0  0  0  0  0  0  0  0  0  0  0
  195.6520  176.1460  142.3750 C   0  0  0  0  0  2  0  0  0  0  0  0
  194.9350  175.3590  140.2400 O   0  0  0  0  0  1  0  0  0  0  0  0
  194.5320  176.1350  141.3290 C   0  0  0  0  0  2  0  0  0  0  0  0
  187.0000  176.6470  145.1090 C   0  0  0  0  0  2  0  0  0  0  0  0
  186.1490  179.0560  144.7800 C   0  0  0  0  0  1  0  0  0  0  0  0
  186.8660  178.0690  145.6580 C   0  0  1  0  0  3  0  0  0  0  0  0
  186.4360  176.8880  147.4730 O   0  0  0  0  0  1  0  0  0  0  0  0
  186.5680  178.1150  147.0320 O   0  0  0  0  0  0  0  0  0  0  0  0
  188.2440  174.4280  141.1230 O   0  0  0  0  0  0  0  0  0  0  0  0
  189.5460  174.1310  140.9410 C   0  0  0  0  0  0  0  0  0  0  0  0
  190.5200  174.8320  141.3200 O   0  0  0  0  0  0  0  0  0  0  0  0
  189.8440  172.8550  140.3690 C   0  0  0  0  0  2  0  0  0  0  0  0
  191.3270  172.3160  141.2040 P   0  0  1  0  0  4  0  0  0  0  0  0
  191.2940  171.8080  142.6240 O   0  0  0  0  0  0  0  0  0  0  0  0
  192.6110  171.8290  140.0690 C   0  0  1  0  0  3  0  0  0  0  0  0
  193.1940  170.4440  140.3950 C   0  0  1  0  0  3  0  0  0  0  0  0
  195.7290  169.5320  143.0650 C   0  0  0  0  0  2  0  0  0  0  0  0
  195.4830  170.6540  142.1680 C   0  0  1  0  0  0  0  0  0  0  0  0
  194.5630  170.2090  143.2280 O   0  0  0  0  0  0  0  0  0  0  0  0
  194.8260  171.7230  141.4510 C   0  0  1  0  0  3  0  0  0  0  0  0
  195.8280  172.3790  140.8530 F   0  0  0  0  0  0  0  0  0  0  0  0
  194.6530  170.3030  140.8700 C   0  0  2  0  0  0  0  0  0  0  0  0
  195.6660  169.9230  139.7670 C   0  0  0  0  0  1  0  0  0  0  0  0
  192.6580  168.2270  141.2420 O   0  0  0  0  0  1  0  0  0  0  0  0
  192.1810  169.2430  140.4460 C   0  0  2  0  0  3  0  0  0  0  0  0
  190.4980  168.1700  138.9920 O   0  0  0  0  0  1  0  0  0  0  0  0
  191.7600  168.7480  139.1540 C   0  0  0  0  0  0  0  0  0  0  0  0
  192.5000  168.8450  138.0740 O   0  0  0  0  0  0  0  0  0  0  0  0
  192.3320  172.1950  138.6380 O   0  0  0  0  0  0  0  0  0  0  0  0
  192.5600  173.3420  136.4520 C   0  0  0  0  0  3  0  0  0  0  0  0
  193.4180  173.9900  135.5340 C   0  0  0  0  0  3  0  0  0  0  0  0
  195.3230  173.4490  136.9220 C   0  0  0  0  0  3  0  0  0  0  0  0
  194.8040  174.0650  135.7620 C   0  0  0  0  0  3  0  0  0  0  0  0
  193.0800  172.7510  137.6620 C   0  0  0  0  0  0  0  0  0  0  0  0
  194.4730  172.7920  137.8120 C   0  0  0  0  0  3  0  0  0  0  0  0
  186.9440  176.4860  140.8340 C   0  0  0  0  0  2  0  0  0  0  0  0
  185.1460  176.4830  142.5260 F   0  0  0  0  0  0  0  0  0  0  0  0
  186.0010  177.2550  141.7630 C   0  0  2  0  0  3  0  0  0  0  0  0
  185.4740  178.5750  141.2940 C   0  0  0  0  0  2  0  0  0  0  0  0
  181.9170  177.8660  140.2680 C   0  0  0  0  0  3  0  0  0  0  0  0
  181.2200  178.1590  141.4630 C   0  0  0  0  0  0  0  0  0  0  0  0
  183.2890  178.8530  142.4220 N   0  0  0  0  0  0  0  0  0  0  0  0
  181.9730  178.6710  142.5310 C   0  0  0  0  0  3  0  0  0  0  0  0
  183.3070  178.0550  140.1800 C   0  0  0  0  0  3  0  0  0  0  0  0
  184.0010  178.5330  141.3010 C   0  0  0  0  0  0  0  0  0  0  0  0
  179.8880  177.9210  141.6540 O   0  0  0  0  0  0  0  0  0  0  0  0
  179.3450  179.9630  140.7900 O   0  0  0  0  0  1  0  0  0  0  0  0
  178.2720  178.0440  139.8820 C   0  0  0  0  0  1  0  0  0  0  0  0
  178.8380  178.7210  141.1230 C   0  0  1  0  0  3  0  0  0  0  0  0
  1 57  1  6  0  0  0
  1  2  1  0  0  0  0
  2  3  1  0  0  0  0
  3  5  1  0  0  0  0
  3 25  1  1  0  0  0
  5  4  1  6  0  0  0
  5  6  1  0  0  0  0
  7  6  1  6  0  0  0
  7  9  1  0  0  0  0
  7 12  1  0  0  0  0
  8 10  1  0  0  0  0
  9 13  1  0  0  0  0
 11 10  1  0  0  0  0
 12 11  1  0  0  0  0
 13 14  1  6  0  0  0
 13  8  1  0  0  0  0
 16 15  1  6  0  0  0
 16 14  1  0  0  0  0
 17 21  1  6  0  0  0
 17 16  1  0  0  0  0
 17 18  1  0  0  0  0
 18 19  1  0  0  0  0
 20 18  1  0  0  0  0
 22 21  1  0  0  0  0
 23 24  1  0  0  0  0
 24 22  1  0  0  0  0
 25 27  1  0  0  0  0
 27 26  1  6  0  0  0
 27 29  1  0  0  0  0
 29 28  1  0  0  0  0
 30  1  1  0  0  0  0
 31 30  1  0  0  0  0
 31 32  2  0  0  0  0
 33 31  1  0  0  0  0
 33 34  1  0  0  0  0
 34 35  2  1  0  0  0
 36 50  1  6  0  0  0
 36 34  1  0  0  0  0
 37 36  1  1  0  0  0
 37 46  1  0  0  0  0
 37 43  1  0  0  0  0
 38 40  1  0  0  0  0
 39 38  1  1  0  0  0
 39 40  1  0  0  0  0
 41 42  1  6  0  0  0
 41 39  1  0  0  0  0
 43 44  1  6  0  0  0
 43 41  1  0  0  0  0
 43 39  1  0  0  0  0
 46 45  1  6  0  0  0
 47 48  1  0  0  0  0
 48 46  1  0  0  0  0
 49 48  2  0  0  0  0
 51 55  1  0  0  0  0
 52 54  1  0  0  0  0
 52 51  2  0  0  0  0
 53 56  1  0  0  0  0
 54 53  2  0  0  0  0
 55 56  2  0  0  0  0
 55 50  1  0  0  0  0
 57 59  1  0  0  0  0
 59 58  1  6  0  0  0
 60 66  1  0  0  0  0
 60 59  1  0  0  0  0
 61 62  1  0  0  0  0
 62 67  1  0  0  0  0
 62 64  2  0  0  0  0
 63 64  1  0  0  0  0
 65 61  2  0  0  0  0
 65 66  1  0  0  0  0
 66 63  2  0  0  0  0
 68 70  1  0  0  0  0
 70 69  1  6  0  0  0
 70 67  1  0  0  0  0
M  END
>  <MODEL>
5

>  <REMARK>
 VINA RESULT:      -4.4      3.861      9.592
  Name = 
  32 active torsions:
  status: ('A' for Active; 'I' for Inactive)
    1  A    between atoms: O_1  and  C_20
    2  A    between atoms: O_1  and  C_22
    3  A    between atoms: C_5  and  C_65
    4  A    between atoms: C_6  and  C_20
    5  A    between atoms: C_7  and  O_11
    6  A    between atoms: C_7  and  C_66
    7  A    between atoms: C_9  and  C_31
    8  A    between atoms: C_9  and  C_59
    9  A    between atoms: O_10  and  C_50
   10  A    between atoms: O_10  and  C_64
   11  A    between atoms: O_11  and  C_59
   12  A    between atoms: C_16  and  O_41
   13  A    between atoms: O_17  and  C_61
   14  A    between atoms: O_17  and  C_70
   15  A    between atoms: C_18  and  C_48
   16  A    between atoms: C_20  and  C_70
   17  A    between atoms: O_21  and  C_42
   18  A    between atoms: C_22  and  C_46
   19  A    between atoms: C_27  and  C_31
   20  A    between atoms: C_27  and  C_57
   21  A    between atoms: O_32  and  C_59
   22  A    between atoms: O_32  and  C_60
   23  A    between atoms: C_33  and  C_42
   24  A    between atoms: C_33  and  C_60
   25  A    between atoms: P_38  and  C_50
   26  A    between atoms: P_38  and  C_66
   27  A    between atoms: O_41  and  C_62
   28  A    between atoms: C_48  and  C_54
   29  A    between atoms: C_50  and  C_54
   30  A    between atoms: C_52  and  C_54
   31  A    between atoms: C_60  and  C_63
   32  A    between atoms: C_63  and  C_65
                            x       y       z     vdW  Elec       q    Type
                         _______ _______ _______ _____ _____    ______ ____

>  <TORSDO>
F 32

$$$$
=
 OpenBabel11072409433D

 70 74  0  0  1  0  0  0  0  0999 V2000
  187.4210  176.0790  142.2990 C   0  0  1  0  0  3  0  0  0  0  0  0
  186.8830  176.2370  143.6240 O   0  0  0  0  0  0  0  0  0  0  0  0
  187.4880  177.4210  144.1380 C   0  0  2  0  0  3  0  0  0  0  0  0
  189.2970  178.1230  142.7400 O   0  0  0  0  0  1  0  0  0  0  0  0
  188.9560  177.4700  143.9810 C   0  0  2  0  0  3  0  0  0  0  0  0
  189.8340  176.2530  144.2400 C   0  0  0  0  0  2  0  0  0  0  0  0
  190.1880  176.1450  145.7450 C   0  0  1  0  0  3  0  0  0  0  0  0
  192.9040  176.4490  147.4020 C   0  0  0  0  0  2  0  0  0  0  0  0
  191.1830  175.0380  146.0820 C   0  0  0  0  0  2  0  0  0  0  0  0
  191.7880  176.4130  148.4120 C   0  0  0  0  0  2  0  0  0  0  0  0
  190.5580  177.2070  147.9680 C   0  0  0  0  0  2  0  0  0  0  0  0
  190.4200  177.4660  146.4710 C   0  0  0  0  0  2  0  0  0  0  0  0
  192.6110  175.4770  146.2700 C   0  0  1  0  0  3  0  0  0  0  0  0
  193.2000  175.8910  145.0510 O   0  0  0  0  0  0  0  0  0  0  0  0
  193.6770  174.8260  143.0150 O   0  0  0  0  0  1  0  0  0  0  0  0
  193.3220  174.6410  144.3600 C   0  0  1  0  0  3  0  0  0  0  0  0
  194.3610  173.7850  145.1340 C   0  0  1  0  0  3  0  0  0  0  0  0
  194.1770  172.3050  144.7690 C   0  0  0  0  0  3  0  0  0  0  0  0
  192.9220  171.9350  145.2260 F   0  0  0  0  0  0  0  0  0  0  0  0
  194.3050  171.9920  143.4100 F   0  0  0  0  0  0  0  0  0  0  0  0
  195.6470  174.1890  144.8740 O   0  0  0  0  0  0  0  0  0  0  0  0
  196.4900  173.7800  145.9610 C   0  0  0  0  0  2  0  0  0  0  0  0
  197.9280  172.7170  144.3820 O   0  0  0  0  0  1  0  0  0  0  0  0
  197.3070  172.5290  145.6190 C   0  0  0  0  0  2  0  0  0  0  0  0
  186.9780  177.6590  145.5510 C   0  0  0  0  0  2  0  0  0  0  0  0
  184.5210  177.7230  146.3200 C   0  0  0  0  0  1  0  0  0  0  0  0
  185.6180  178.3610  145.5170 C   0  0  1  0  0  3  0  0  0  0  0  0
  185.7610  180.2310  144.3540 O   0  0  0  0  0  1  0  0  0  0  0  0
  185.7090  179.7630  145.5760 O   0  0  0  0  0  0  0  0  0  0  0  0
  187.8730  174.7510  142.0320 O   0  0  0  0  0  0  0  0  0  0  0  0
  189.0270  174.5750  141.3610 C   0  0  0  0  0  0  0  0  0  0  0  0
  189.9710  175.4050  141.2900 O   0  0  0  0  0  0  0  0  0  0  0  0
  189.2450  173.2880  140.7750 C   0  0  0  0  0  2  0  0  0  0  0  0
  190.9630  172.9240  141.0980 P   0  0  1  0  0  4  0  0  0  0  0  0
  191.4180  172.3800  142.4290 O   0  0  0  0  0  0  0  0  0  0  0  0
  191.8920  172.6360  139.6050 C   0  0  1  0  0  3  0  0  0  0  0  0
  191.1080  171.8120  138.5710 C   0  0  1  0  0  3  0  0  0  0  0  0
  189.1850  174.4150  136.5910 C   0  0  0  0  0  2  0  0  0  0  0  0
  189.3580  172.9670  136.5630 C   0  0  1  0  0  0  0  0  0  0  0  0
  188.7600  173.7200  137.6770 O   0  0  0  0  0  0  0  0  0  0  0  0
  189.4330  171.5830  136.9710 C   0  0  1  0  0  3  0  0  0  0  0  0
  189.5240  170.9070  135.8200 F   0  0  0  0  0  0  0  0  0  0  0  0
  190.6910  172.4400  137.2260 C   0  0  2  0  0  0  0  0  0  0  0  0
  191.7620  172.3720  136.1140 C   0  0  0  0  0  1  0  0  0  0  0  0
  190.8500  170.0220  140.1980 O   0  0  0  0  0  1  0  0  0  0  0  0
  190.9680  170.2720  138.8500 C   0  0  2  0  0  3  0  0  0  0  0  0
  191.6560  168.2920  137.5430 O   0  0  0  0  0  0  0  0  0  0  0  0
  191.9950  169.4500  138.2490 C   0  0  0  0  0  0  0  0  0  0  0  0
  193.2720  169.7530  138.2930 O   0  0  0  0  0  1  0  0  0  0  0  0
  192.6970  173.8200  139.1500 O   0  0  0  0  0  0  0  0  0  0  0  0
  194.7140  175.2050  139.5540 C   0  0  0  0  0  3  0  0  0  0  0  0
  196.1210  175.3070  139.4690 C   0  0  0  0  0  3  0  0  0  0  0  0
  196.2130  173.1870  138.3110 C   0  0  0  0  0  3  0  0  0  0  0  0
  196.8890  174.2970  138.8610 C   0  0  0  0  0  3  0  0  0  0  0  0
  194.0220  174.0500  139.0330 C   0  0  0  0  0  0  0  0  0  0  0  0
  194.8210  173.1030  138.3790 C   0  0  0  0  0  3  0  0  0  0  0  0
  186.3380  176.5250  141.3200 C   0  0  0  0  0  2  0  0  0  0  0  0
  184.6150  176.8540  143.0580 F   0  0  0  0  0  0  0  0  0  0  0  0
  185.3880  177.4530  142.0820 C   0  0  2  0  0  3  0  0  0  0  0  0
  184.7610  178.5860  141.3310 C   0  0  0  0  0  2  0  0  0  0  0  0
  181.2020  179.0040  142.5030 C   0  0  0  0  0  3  0  0  0  0  0  0
  180.4850  178.5050  141.3910 C   0  0  0  0  0  0  0  0  0  0  0  0
  182.5680  177.9450  140.3790 N   0  0  0  0  0  0  0  0  0  0  0  0
  181.2360  177.9650  140.3360 C   0  0  0  0  0  3  0  0  0  0  0  0
  182.6080  178.9820  142.5210 C   0  0  0  0  0  3  0  0  0  0  0  0
  183.2940  178.4630  141.4140 C   0  0  0  0  0  0  0  0  0  0  0  0
  179.1260  178.5710  141.2620 O   0  0  0  0  0  0  0  0  0  0  0  0
  179.0560  180.1660  139.6300 O   0  0  0  0  0  1  0  0  0  0  0  0
  178.5080  177.9290  139.0320 C   0  0  0  0  0  1  0  0  0  0  0  0
  178.4440  179.0170  140.0960 C   0  0  1  0  0  3  0  0  0  0  0  0
  1 57  1  6  0  0  0
  1  2  1  0  0  0  0
  2  3  1  0  0  0  0
  3 25  1  1  0  0  0
  5  4  1  6  0  0  0
  5  3  1  0  0  0  0
  5  6  1  0  0  0  0
  7  6  1  6  0  0  0
  7  9  1  0  0  0  0
  7 12  1  0  0  0  0
  8 10  1  0  0  0  0
  9 13  1  0  0  0  0
 11 10  1  0  0  0  0
 12 11  1  0  0  0  0
 13 14  1  6  0  0  0
 13  8  1  0  0  0  0
 16 15  1  6  0  0  0
 16 14  1  0  0  0  0
 16 17  1  0  0  0  0
 17 18  1  6  0  0  0
 18 19  1  0  0  0  0
 20 18  1  0  0  0  0
 21 17  1  0  0  0  0
 21 22  1  0  0  0  0
 23 24  1  0  0  0  0
 24 22  1  0  0  0  0
 27 25  1  0  0  0  0
 27 29  1  0  0  0  0
 27 26  1  1  0  0  0
 28 29  1  0  0  0  0
 30  1  1  0  0  0  0
 31 30  1  0  0  0  0
 32 31  2  0  0  0  0
 33 34  1  0  0  0  0
 33 31  1  0  0  0  0
 34 35  2  1  0  0  0
 36 50  1  6  0  0  0
 36 34  1  0  0  0  0
 37 46  1  6  0  0  0
 37 36  1  0  0  0  0
 38 40  1  0  0  0  0
 39 38  1  6  0  0  0
 39 41  1  0  0  0  0
 39 43  1  0  0  0  0
 39 40  1  0  0  0  0
 41 42  1  6  0  0  0
 41 43  1  0  0  0  0
 43 44  1  6  0  0  0
 43 37  1  0  0  0  0
 46 45  1  1  0  0  0
 47 48  2  0  0  0  0
 48 49  1  0  0  0  0
 48 46  1  0  0  0  0
 52 51  1  0  0  0  0
 53 56  2  0  0  0  0
 53 54  1  0  0  0  0
 54 52  2  0  0  0  0
 55 50  1  0  0  0  0
 55 51  2  0  0  0  0
 56 55  1  0  0  0  0
 57 59  1  0  0  0  0
 59 58  1  6  0  0  0
 60 66  1  0  0  0  0
 60 59  1  0  0  0  0
 61 65  1  0  0  0  0
 62 61  2  0  0  0  0
 63 66  1  0  0  0  0
 64 63  2  0  0  0  0
 64 62  1  0  0  0  0
 66 65  2  0  0  0  0
 67 62  1  0  0  0  0
 68 70  1  0  0  0  0
 70 69  1  6  0  0  0
 70 67  1  0  0  0  0
M  END
>  <MODEL>
6

>  <REMARK>
 VINA RESULT:      -4.2      3.868     10.004
  Name = 
  32 active torsions:
  status: ('A' for Active; 'I' for Inactive)
    1  A    between atoms: O_1  and  C_20
    2  A    between atoms: O_1  and  C_22
    3  A    between atoms: C_5  and  C_65
    4  A    between atoms: C_6  and  C_20
    5  A    between atoms: C_7  and  O_11
    6  A    between atoms: C_7  and  C_66
    7  A    between atoms: C_9  and  C_31
    8  A    between atoms: C_9  and  C_59
    9  A    between atoms: O_10  and  C_50
   10  A    between atoms: O_10  and  C_64
   11  A    between atoms: O_11  and  C_59
   12  A    between atoms: C_16  and  O_41
   13  A    between atoms: O_17  and  C_61
   14  A    between atoms: O_17  and  C_70
   15  A    between atoms: C_18  and  C_48
   16  A    between atoms: C_20  and  C_70
   17  A    between atoms: O_21  and  C_42
   18  A    between atoms: C_22  and  C_46
   19  A    between atoms: C_27  and  C_31
   20  A    between atoms: C_27  and  C_57
   21  A    between atoms: O_32  and  C_59
   22  A    between atoms: O_32  and  C_60
   23  A    between atoms: C_33  and  C_42
   24  A    between atoms: C_33  and  C_60
   25  A    between atoms: P_38  and  C_50
   26  A    between atoms: P_38  and  C_66
   27  A    between atoms: O_41  and  C_62
   28  A    between atoms: C_48  and  C_54
   29  A    between atoms: C_50  and  C_54
   30  A    between atoms: C_52  and  C_54
   31  A    between atoms: C_60  and  C_63
   32  A    between atoms: C_63  and  C_65
                            x       y       z     vdW  Elec       q    Type
                         _______ _______ _______ _____ _____    ______ ____

>  <TORSDO>
F 32

$$$$
=
 OpenBabel11072409433D

 70 74  0  0  1  0  0  0  0  0999 V2000
  192.7920  175.7550  142.7960 C   0  0  1  0  0  3  0  0  0  0  0  0
  193.7690  175.6930  141.7420 O   0  0  0  0  0  0  0  0  0  0  0  0
  193.7660  174.3370  141.3040 C   0  0  2  0  0  3  0  0  0  0  0  0
  195.4180  172.6470  141.6700 O   0  0  0  0  0  1  0  0  0  0  0  0
  195.0920  173.8240  140.9020 C   0  0  2  0  0  3  0  0  0  0  0  0
  196.2940  174.7440  140.7380 C   0  0  0  0  0  2  0  0  0  0  0  0
  196.6860  174.8720  139.2440 C   0  0  1  0  0  3  0  0  0  0  0  0
  196.9060  172.7850  136.8340 C   0  0  0  0  0  2  0  0  0  0  0  0
  197.9170  174.0630  138.8430 C   0  0  0  0  0  2  0  0  0  0  0  0
  197.0150  174.1570  136.2230 C   0  0  0  0  0  2  0  0  0  0  0  0
  196.0520  175.1660  136.8540 C   0  0  0  0  0  2  0  0  0  0  0  0
  195.5330  174.8310  138.2480 C   0  0  0  0  0  2  0  0  0  0  0  0
  197.6420  172.7490  138.1630 C   0  0  1  0  0  3  0  0  0  0  0  0
  197.0810  171.8010  139.0540 O   0  0  0  0  0  0  0  0  0  0  0  0
  197.8830  169.8110  138.1040 O   0  0  0  0  0  1  0  0  0  0  0  0
  196.8070  170.7100  138.1660 C   0  0  1  0  0  3  0  0  0  0  0  0
  195.4990  170.0320  138.6560 C   0  0  1  0  0  3  0  0  0  0  0  0
  195.7180  169.4520  140.0600 C   0  0  0  0  0  3  0  0  0  0  0  0
  194.5650  168.7570  140.3900 F   0  0  0  0  0  0  0  0  0  0  0  0
  196.8380  168.6230  140.2080 F   0  0  0  0  0  0  0  0  0  0  0  0
  194.4420  170.9070  138.6550 O   0  0  0  0  0  0  0  0  0  0  0  0
  193.7230  170.7660  137.4210 C   0  0  0  0  0  2  0  0  0  0  0  0
  193.1170  168.9710  135.9720 O   0  0  0  0  0  1  0  0  0  0  0  0
  193.0470  169.3960  137.3000 C   0  0  0  0  0  2  0  0  0  0  0  0
  192.6610  174.1570  140.2730 C   0  0  0  0  0  2  0  0  0  0  0  0
  191.2820  172.1500  139.4330 C   0  0  0  0  0  1  0  0  0  0  0  0
  191.8190  172.9220  140.6040 C   0  0  1  0  0  3  0  0  0  0  0  0
  192.5860  170.9570  141.2540 O   0  0  0  0  0  1  0  0  0  0  0  0
  192.3260  172.1690  141.6780 O   0  0  0  0  0  0  0  0  0  0  0  0
  191.5190  175.2340  142.4100 O   0  0  0  0  0  0  0  0  0  0  0  0
  190.4030  175.8790  142.8020 C   0  0  0  0  0  0  0  0  0  0  0  0
  189.2650  175.3600  142.9450 O   0  0  0  0  0  0  0  0  0  0  0  0
  190.5510  177.2450  143.2000 C   0  0  0  0  0  2  0  0  0  0  0  0
  188.8990  177.9190  143.1390 P   0  0  1  0  0  4  0  0  0  0  0  0
  188.1170  177.9770  141.8500 O   0  0  0  0  0  0  0  0  0  0  0  0
  188.0850  177.8760  144.7230 C   0  0  1  0  0  3  0  0  0  0  0  0
  186.6350  178.3830  144.6560 C   0  0  1  0  0  3  0  0  0  0  0  0
  186.3360  179.1360  148.3620 C   0  0  0  0  0  2  0  0  0  0  0  0
  185.9250  178.0730  147.4540 C   0  0  1  0  0  0  0  0  0  0  0  0
  187.3210  178.4440  147.7350 O   0  0  0  0  0  0  0  0  0  0  0  0
  185.9500  177.0480  146.4350 C   0  0  1  0  0  3  0  0  0  0  0  0
  184.7660  176.4370  146.5570 F   0  0  0  0  0  0  0  0  0  0  0  0
  185.7890  178.5010  145.9400 C   0  0  2  0  0  0  0  0  0  0  0  0
  184.3290  178.9560  145.7200 C   0  0  0  0  0  1  0  0  0  0  0  0
  185.7160  180.2790  143.4380 O   0  0  0  0  0  1  0  0  0  0  0  0
  186.1560  178.9840  143.2850 C   0  0  2  0  0  3  0  0  0  0  0  0
  184.4370  177.2110  143.2480 O   0  0  0  0  0  1  0  0  0  0  0  0
  185.1880  178.1780  142.5740 C   0  0  0  0  0  0  0  0  0  0  0  0
  184.9330  178.3280  141.2940 O   0  0  0  0  0  0  0  0  0  0  0  0
  188.4030  176.6560  145.5400 O   0  0  0  0  0  0  0  0  0  0  0  0
  190.3120  177.2680  147.0000 C   0  0  0  0  0  3  0  0  0  0  0  0
  191.2970  176.8290  147.9140 C   0  0  0  0  0  3  0  0  0  0  0  0
  190.6290  174.5360  147.5440 C   0  0  0  0  0  3  0  0  0  0  0  0
  191.4590  175.4630  148.2080 C   0  0  0  0  0  3  0  0  0  0  0  0
  189.4300  176.3270  146.3520 C   0  0  0  0  0  0  0  0  0  0  0  0
  189.6730  174.9740  146.6260 C   0  0  0  0  0  3  0  0  0  0  0  0
  193.3780  175.0110  143.9930 C   0  0  0  0  0  2  0  0  0  0  0  0
  193.8770  177.2430  144.9220 F   0  0  0  0  0  0  0  0  0  0  0  0
  194.3490  175.9650  144.6930 C   0  0  2  0  0  3  0  0  0  0  0  0
  195.8080  175.8340  144.3830 C   0  0  0  0  0  2  0  0  0  0  0  0
  197.9410  172.7360  144.6370 C   0  0  0  0  0  3  0  0  0  0  0  0
  197.0440  171.8320  145.2520 C   0  0  0  0  0  0  0  0  0  0  0  0
  195.3610  173.5150  145.1230 N   0  0  0  0  0  0  0  0  0  0  0  0
  195.7320  172.2820  145.4680 C   0  0  0  0  0  3  0  0  0  0  0  0
  197.5300  174.0350  144.2910 C   0  0  0  0  0  3  0  0  0  0  0  0
  196.2140  174.4300  144.5730 C   0  0  0  0  0  0  0  0  0  0  0  0
  197.3910  170.5860  145.6940 O   0  0  0  0  0  0  0  0  0  0  0  0
  196.2930  168.6170  145.3380 O   0  0  0  0  0  1  0  0  0  0  0  0
  197.1360  169.7850  143.4450 C   0  0  0  0  0  1  0  0  0  0  0  0
  197.3440  169.4040  144.9040 C   0  0  1  0  0  3  0  0  0  0  0  0
  1 57  1  1  0  0  0
  2  1  1  0  0  0  0
  3 25  1  6  0  0  0
  3  2  1  0  0  0  0
  5  3  1  0  0  0  0
  5  4  1  1  0  0  0
  6  5  1  0  0  0  0
  7  6  1  1  0  0  0
  8 13  1  0  0  0  0
  9  7  1  0  0  0  0
 10  8  1  0  0  0  0
 10 11  1  0  0  0  0
 11 12  1  0  0  0  0
 12  7  1  0  0  0  0
 13  9  1  0  0  0  0
 13 14  1  1  0  0  0
 16 15  1  1  0  0  0
 16 17  1  0  0  0  0
 16 14  1  0  0  0  0
 17 21  1  1  0  0  0
 17 18  1  0  0  0  0
 18 20  1  0  0  0  0
 18 19  1  0  0  0  0
 22 21  1  0  0  0  0
 23 24  1  0  0  0  0
 24 22  1  0  0  0  0
 25 27  1  0  0  0  0
 27 26  1  6  0  0  0
 27 29  1  0  0  0  0
 28 29  1  0  0  0  0
 30  1  1  0  0  0  0
 30 31  1  0  0  0  0
 31 32  2  0  0  0  0
 31 33  1  0  0  0  0
 34 35  2  6  0  0  0
 34 33  1  0  0  0  0
 34 36  1  0  0  0  0
 36 50  1  6  0  0  0
 37 46  1  1  0  0  0
 37 36  1  0  0  0  0
 37 43  1  0  0  0  0
 39 40  1  0  0  0  0
 39 38  1  1  0  0  0
 40 38  1  0  0  0  0
 41 42  1  1  0  0  0
 41 39  1  0  0  0  0
 43 44  1  6  0  0  0
 43 41  1  0  0  0  0
 43 39  1  0  0  0  0
 46 45  1  1  0  0  0
 48 47  1  0  0  0  0
 48 46  1  0  0  0  0
 49 48  2  0  0  0  0
 50 55  1  0  0  0  0
 51 52  1  0  0  0  0
 52 54  2  0  0  0  0
 53 54  1  0  0  0  0
 55 56  1  0  0  0  0
 55 51  2  0  0  0  0
 56 53  2  0  0  0  0
 57 59  1  0  0  0  0
 59 58  1  6  0  0  0
 60 66  1  0  0  0  0
 60 59  1  0  0  0  0
 61 62  1  0  0  0  0
 62 64  2  0  0  0  0
 62 67  1  0  0  0  0
 63 64  1  0  0  0  0
 65 66  1  0  0  0  0
 65 61  2  0  0  0  0
 66 63  2  0  0  0  0
 70 69  1  6  0  0  0
 70 68  1  0  0  0  0
 70 67  1  0  0  0  0
M  END
>  <MODEL>
7

>  <REMARK>
 VINA RESULT:      -4.0      2.796      5.985
  Name = 
  32 active torsions:
  status: ('A' for Active; 'I' for Inactive)
    1  A    between atoms: O_1  and  C_20
    2  A    between atoms: O_1  and  C_22
    3  A    between atoms: C_5  and  C_65
    4  A    between atoms: C_6  and  C_20
    5  A    between atoms: C_7  and  O_11
    6  A    between atoms: C_7  and  C_66
    7  A    between atoms: C_9  and  C_31
    8  A    between atoms: C_9  and  C_59
    9  A    between atoms: O_10  and  C_50
   10  A    between atoms: O_10  and  C_64
   11  A    between atoms: O_11  and  C_59
   12  A    between atoms: C_16  and  O_41
   13  A    between atoms: O_17  and  C_61
   14  A    between atoms: O_17  and  C_70
   15  A    between atoms: C_18  and  C_48
   16  A    between atoms: C_20  and  C_70
   17  A    between atoms: O_21  and  C_42
   18  A    between atoms: C_22  and  C_46
   19  A    between atoms: C_27  and  C_31
   20  A    between atoms: C_27  and  C_57
   21  A    between atoms: O_32  and  C_59
   22  A    between atoms: O_32  and  C_60
   23  A    between atoms: C_33  and  C_42
   24  A    between atoms: C_33  and  C_60
   25  A    between atoms: P_38  and  C_50
   26  A    between atoms: P_38  and  C_66
   27  A    between atoms: O_41  and  C_62
   28  A    between atoms: C_48  and  C_54
   29  A    between atoms: C_50  and  C_54
   30  A    between atoms: C_52  and  C_54
   31  A    between atoms: C_60  and  C_63
   32  A    between atoms: C_63  and  C_65
                            x       y       z     vdW  Elec       q    Type
                         _______ _______ _______ _____ _____    ______ ____

>  <TORSDO>
F 32

$$$$
=
 OpenBabel11072409433D

 70 74  0  0  1  0  0  0  0  0999 V2000
  194.1530  175.7330  142.9110 C   0  0  1  0  0  3  0  0  0  0  0  0
  195.3260  175.8340  143.7380 O   0  0  0  0  0  0  0  0  0  0  0  0
  195.6350  174.4960  144.1190 C   0  0  2  0  0  3  0  0  0  0  0  0
  195.6490  173.1770  146.1140 O   0  0  0  0  0  1  0  0  0  0  0  0
  194.8260  173.9820  145.2440 C   0  0  2  0  0  3  0  0  0  0  0  0
  193.4530  173.3600  145.0290 C   0  0  0  0  0  2  0  0  0  0  0  0
  193.5870  171.8910  144.5530 C   0  0  1  0  0  3  0  0  0  0  0  0
  192.6290  170.3220  141.9380 C   0  0  0  0  0  2  0  0  0  0  0  0
  192.2570  171.1680  144.3550 C   0  0  0  0  0  2  0  0  0  0  0  0
  193.5700  169.4020  142.6690 C   0  0  0  0  0  2  0  0  0  0  0  0
  194.7810  170.1330  143.2550 C   0  0  0  0  0  2  0  0  0  0  0  0
  194.6290  171.6350  143.4710 C   0  0  0  0  0  2  0  0  0  0  0  0
  191.7660  171.0790  142.9350 C   0  0  1  0  0  3  0  0  0  0  0  0
  191.3650  172.3430  142.4360 O   0  0  0  0  0  0  0  0  0  0  0  0
  189.8840  173.5860  143.7660 O   0  0  0  0  0  1  0  0  0  0  0  0
  190.0370  172.4440  142.9640 C   0  0  1  0  0  3  0  0  0  0  0  0
  189.0570  172.4320  141.7590 C   0  0  1  0  0  3  0  0  0  0  0  0
  187.6950  172.9820  142.2030 C   0  0  0  0  0  3  0  0  0  0  0  0
  187.7130  174.3460  141.9520 F   0  0  0  0  0  0  0  0  0  0  0  0
  186.5750  172.3970  141.5980 F   0  0  0  0  0  0  0  0  0  0  0  0
  189.5470  173.1530  140.6990 O   0  0  0  0  0  0  0  0  0  0  0  0
  189.3870  172.3810  139.5000 C   0  0  0  0  0  2  0  0  0  0  0  0
  188.9810  172.5540  137.1560 O   0  0  0  0  0  1  0  0  0  0  0  0
  188.7360  173.1910  138.3740 C   0  0  0  0  0  2  0  0  0  0  0  0
  197.1410  174.3690  144.2920 C   0  0  0  0  0  2  0  0  0  0  0  0
  197.8000  172.9440  142.2510 C   0  0  0  0  0  1  0  0  0  0  0  0
  197.8290  174.2840  142.9280 C   0  0  1  0  0  3  0  0  0  0  0  0
  197.9120  176.4860  142.7870 O   0  0  0  0  0  1  0  0  0  0  0  0
  197.6000  175.4080  142.1130 O   0  0  0  0  0  0  0  0  0  0  0  0
  194.0000  174.4450  142.3120 O   0  0  0  0  0  0  0  0  0  0  0  0
  194.4830  174.2390  141.0720 C   0  0  0  0  0  0  0  0  0  0  0  0
  194.7440  173.1180  140.5610 O   0  0  0  0  0  0  0  0  0  0  0  0
  194.6000  175.3850  140.2240 C   0  0  0  0  0  2  0  0  0  0  0  0
  195.8510  174.9430  139.0290 P   0  0  1  0  0  4  0  0  0  0  0  0
  197.3160  174.9290  139.3890 O   0  0  0  0  0  0  0  0  0  0  0  0
  195.2060  173.9420  137.7040 C   0  0  1  0  0  3  0  0  0  0  0  0
  194.8570  174.7690  136.4550 C   0  0  1  0  0  3  0  0  0  0  0  0
  191.7940  176.2380  134.7670 C   0  0  0  0  0  2  0  0  0  0  0  0
  192.0680  175.2750  135.8270 C   0  0  1  0  0  0  0  0  0  0  0  0
  192.4320  176.7010  135.8720 O   0  0  0  0  0  0  0  0  0  0  0  0
  192.6020  174.6580  137.0200 C   0  0  1  0  0  3  0  0  0  0  0  0
  191.8760  173.5430  137.1640 F   0  0  0  0  0  0  0  0  0  0  0  0
  193.4920  174.5950  135.7600 C   0  0  2  0  0  0  0  0  0  0  0  0
  193.3460  173.3050  134.9230 C   0  0  0  0  0  1  0  0  0  0  0  0
  195.2010  176.9030  135.3380 O   0  0  0  0  0  1  0  0  0  0  0  0
  195.8400  175.9360  136.0810 C   0  0  2  0  0  3  0  0  0  0  0  0
  197.7720  176.3830  134.6080 O   0  0  0  0  0  0  0  0  0  0  0  0
  197.0710  175.5150  135.4500 C   0  0  0  0  0  0  0  0  0  0  0  0
  197.6140  174.3360  135.6550 O   0  0  0  0  0  1  0  0  0  0  0  0
  195.9010  172.6200  137.5440 O   0  0  0  0  0  0  0  0  0  0  0  0
  194.4350  170.6200  137.5200 C   0  0  0  0  0  3  0  0  0  0  0  0
  194.0520  169.4360  136.8490 C   0  0  0  0  0  3  0  0  0  0  0  0
  195.8200  169.7700  135.2340 C   0  0  0  0  0  3  0  0  0  0  0  0
  194.7270  169.0040  135.6930 C   0  0  0  0  0  3  0  0  0  0  0  0
  195.5230  171.4310  137.0280 C   0  0  0  0  0  0  0  0  0  0  0  0
  196.2070  170.9250  135.9140 C   0  0  0  0  0  3  0  0  0  0  0  0
  192.9570  176.1080  143.7820 C   0  0  0  0  0  2  0  0  0  0  0  0
  191.7880  175.5810  141.6720 F   0  0  0  0  0  0  0  0  0  0  0  0
  191.7570  176.3000  142.8510 C   0  0  2  0  0  3  0  0  0  0  0  0
  191.1220  177.6550  142.7950 C   0  0  0  0  0  2  0  0  0  0  0  0
  187.8360  177.1010  144.5570 C   0  0  0  0  0  3  0  0  0  0  0  0
  186.9200  177.5770  143.5900 C   0  0  0  0  0  0  0  0  0  0  0  0
  188.7580  177.9240  142.1130 N   0  0  0  0  0  0  0  0  0  0  0  0
  187.4480  177.9760  142.3520 C   0  0  0  0  0  3  0  0  0  0  0  0
  189.2150  177.0650  144.2860 C   0  0  0  0  0  3  0  0  0  0  0  0
  189.6750  177.5170  143.0410 C   0  0  0  0  0  0  0  0  0  0  0  0
  185.5790  177.7230  143.8090 O   0  0  0  0  0  0  0  0  0  0  0  0
  185.6360  177.1370  146.0140 O   0  0  0  0  0  1  0  0  0  0  0  0
  185.1130  179.3940  145.4690 C   0  0  0  0  0  1  0  0  0  0  0  0
  184.9840  177.9260  145.0850 C   0  0  1  0  0  3  0  0  0  0  0  0
  1  2  1  0  0  0  0
  1 57  1  1  0  0  0
  2  3  1  0  0  0  0
  3 25  1  1  0  0  0
  3  5  1  0  0  0  0
  5  4  1  6  0  0  0
  6  5  1  0  0  0  0
  7  6  1  6  0  0  0
  8 10  1  0  0  0  0
  8 13  1  0  0  0  0
  9  7  1  0  0  0  0
 10 11  1  0  0  0  0
 11 12  1  0  0  0  0
 12  7  1  0  0  0  0
 13 14  1  6  0  0  0
 13  9  1  0  0  0  0
 14 16  1  0  0  0  0
 16 15  1  6  0  0  0
 17 21  1  6  0  0  0
 17 18  1  0  0  0  0
 17 16  1  0  0  0  0
 19 18  1  0  0  0  0
 20 18  1  0  0  0  0
 22 21  1  0  0  0  0
 23 24  1  0  0  0  0
 24 22  1  0  0  0  0
 27 26  1  6  0  0  0
 27 25  1  0  0  0  0
 29 28  1  0  0  0  0
 29 27  1  0  0  0  0
 30  1  1  0  0  0  0
 31 30  1  0  0  0  0
 32 31  2  0  0  0  0
 33 31  1  0  0  0  0
 34 35  2  1  0  0  0
 34 33  1  0  0  0  0
 36 50  1  6  0  0  0
 36 34  1  0  0  0  0
 37 46  1  1  0  0  0
 37 36  1  0  0  0  0
 38 40  1  0  0  0  0
 39 38  1  6  0  0  0
 39 40  1  0  0  0  0
 39 41  1  0  0  0  0
 41 42  1  6  0  0  0
 43 44  1  6  0  0  0
 43 39  1  0  0  0  0
 43 37  1  0  0  0  0
 43 41  1  0  0  0  0
 46 45  1  6  0  0  0
 47 48  2  0  0  0  0
 48 49  1  0  0  0  0
 48 46  1  0  0  0  0
 52 51  2  0  0  0  0
 53 54  2  0  0  0  0
 53 56  1  0  0  0  0
 54 52  1  0  0  0  0
 55 51  1  0  0  0  0
 55 50  1  0  0  0  0
 56 55  2  0  0  0  0
 59 58  1  6  0  0  0
 59 57  1  0  0  0  0
 60 59  1  0  0  0  0
 60 66  1  0  0  0  0
 62 67  1  0  0  0  0
 62 61  2  0  0  0  0
 63 64  2  0  0  0  0
 63 66  1  0  0  0  0
 64 62  1  0  0  0  0
 65 61  1  0  0  0  0
 66 65  2  0  0  0  0
 67 70  1  0  0  0  0
 70 69  1  1  0  0  0
 70 68  1  0  0  0  0
M  END
>  <MODEL>
8

>  <REMARK>
 VINA RESULT:      -3.9      2.737      9.537
  Name = 
  32 active torsions:
  status: ('A' for Active; 'I' for Inactive)
    1  A    between atoms: O_1  and  C_20
    2  A    between atoms: O_1  and  C_22
    3  A    between atoms: C_5  and  C_65
    4  A    between atoms: C_6  and  C_20
    5  A    between atoms: C_7  and  O_11
    6  A    between atoms: C_7  and  C_66
    7  A    between atoms: C_9  and  C_31
    8  A    between atoms: C_9  and  C_59
    9  A    between atoms: O_10  and  C_50
   10  A    between atoms: O_10  and  C_64
   11  A    between atoms: O_11  and  C_59
   12  A    between atoms: C_16  and  O_41
   13  A    between atoms: O_17  and  C_61
   14  A    between atoms: O_17  and  C_70
   15  A    between atoms: C_18  and  C_48
   16  A    between atoms: C_20  and  C_70
   17  A    between atoms: O_21  and  C_42
   18  A    between atoms: C_22  and  C_46
   19  A    between atoms: C_27  and  C_31
   20  A    between atoms: C_27  and  C_57
   21  A    between atoms: O_32  and  C_59
   22  A    between atoms: O_32  and  C_60
   23  A    between atoms: C_33  and  C_42
   24  A    between atoms: C_33  and  C_60
   25  A    between atoms: P_38  and  C_50
   26  A    between atoms: P_38  and  C_66
   27  A    between atoms: O_41  and  C_62
   28  A    between atoms: C_48  and  C_54
   29  A    between atoms: C_50  and  C_54
   30  A    between atoms: C_52  and  C_54
   31  A    between atoms: C_60  and  C_63
   32  A    between atoms: C_63  and  C_65
                            x       y       z     vdW  Elec       q    Type
                         _______ _______ _______ _____ _____    ______ ____

>  <TORSDO>
F 32

$$$$
=
 OpenBabel11072409433D

 70 74  0  0  1  0  0  0  0  0999 V2000
  191.4950  173.4470  144.4300 C   0  0  1  0  0  3  0  0  0  0  0  0
  191.3990  174.5330  143.4920 O   0  0  0  0  0  0  0  0  0  0  0  0
  192.5230  175.3660  143.7640 C   0  0  2  0  0  3  0  0  0  0  0  0
  192.6340  177.0670  142.0860 O   0  0  0  0  0  1  0  0  0  0  0  0
  193.2330  175.8420  142.5580 C   0  0  2  0  0  3  0  0  0  0  0  0
  193.5860  174.9060  141.4110 C   0  0  0  0  0  2  0  0  0  0  0  0
  195.1230  174.7930  141.2500 C   0  0  1  0  0  3  0  0  0  0  0  0
  197.0250  173.0740  139.3420 C   0  0  0  0  0  2  0  0  0  0  0  0
  195.6880  173.4030  141.5320 C   0  0  0  0  0  2  0  0  0  0  0  0
  197.9040  174.0930  140.0160 C   0  0  0  0  0  2  0  0  0  0  0  0
  197.2420  175.4690  140.1280 C   0  0  0  0  0  2  0  0  0  0  0  0
  195.7200  175.5000  140.0380 C   0  0  0  0  0  2  0  0  0  0  0  0
  195.9820  172.5600  140.3210 C   0  0  1  0  0  3  0  0  0  0  0  0
  194.7960  172.1480  139.6640 O   0  0  0  0  0  0  0  0  0  0  0  0
  194.4350  170.0240  140.5930 O   0  0  0  0  0  1  0  0  0  0  0  0
  195.0210  170.7390  139.5370 C   0  0  1  0  0  3  0  0  0  0  0  0
  194.4690  170.3050  138.1510 C   0  0  1  0  0  3  0  0  0  0  0  0
  195.0760  171.1960  137.0590 C   0  0  0  0  0  3  0  0  0  0  0  0
  196.0350  170.4350  136.4080 F   0  0  0  0  0  0  0  0  0  0  0  0
  194.1700  171.7240  136.1300 F   0  0  0  0  0  0  0  0  0  0  0  0
  194.7260  168.9830  137.8940 O   0  0  0  0  0  0  0  0  0  0  0  0
  193.5030  168.2410  138.0120 C   0  0  0  0  0  2  0  0  0  0  0  0
  191.1630  168.6980  138.0830 O   0  0  0  0  0  1  0  0  0  0  0  0
  192.3230  168.9620  137.3520 C   0  0  0  0  0  2  0  0  0  0  0  0
  193.3980  174.6860  144.8060 C   0  0  0  0  0  2  0  0  0  0  0  0
  194.3160  176.7330  146.0710 C   0  0  0  0  0  1  0  0  0  0  0  0
  194.5950  175.5720  145.1590 C   0  0  1  0  0  3  0  0  0  0  0  0
  195.4980  173.5690  145.3710 O   0  0  0  0  0  1  0  0  0  0  0  0
  195.7760  174.8490  145.4010 O   0  0  0  0  0  0  0  0  0  0  0  0
  190.3160  173.2830  145.2200 O   0  0  0  0  0  0  0  0  0  0  0  0
  189.7570  174.3670  145.7930 C   0  0  0  0  0  0  0  0  0  0  0  0
  188.5260  174.6260  145.8330 O   0  0  0  0  0  0  0  0  0  0  0  0
  190.6310  175.2380  146.5180 C   0  0  0  0  0  2  0  0  0  0  0  0
  189.7460  176.7850  146.6250 P   0  0  1  0  0  4  0  0  0  0  0  0
  190.3800  178.0170  147.2210 O   0  0  0  0  0  0  0  0  0  0  0  0
  188.4210  176.8970  145.4390 C   0  0  1  0  0  3  0  0  0  0  0  0
  187.1960  177.6450  145.9900 C   0  0  1  0  0  3  0  0  0  0  0  0
  183.7110  179.0000  145.3560 C   0  0  0  0  0  2  0  0  0  0  0  0
  184.5790  177.9820  144.7790 C   0  0  1  0  0  0  0  0  0  0  0  0
  184.0620  177.9620  146.1570 O   0  0  0  0  0  0  0  0  0  0  0  0
  185.4730  176.8550  144.6400 C   0  0  1  0  0  3  0  0  0  0  0  0
  185.5340  176.6470  143.3190 F   0  0  0  0  0  0  0  0  0  0  0  0
  186.1230  178.1990  145.0320 C   0  0  2  0  0  0  0  0  0  0  0  0
  186.6710  179.0280  143.8480 C   0  0  0  0  0  1  0  0  0  0  0  0
  185.9970  176.7090  147.8890 O   0  0  0  0  0  1  0  0  0  0  0  0
  186.9830  177.6060  147.5470 C   0  0  2  0  0  3  0  0  0  0  0  0
  187.7190  179.4510  149.0130 O   0  0  0  0  0  1  0  0  0  0  0  0
  186.7600  178.8950  148.1620 C   0  0  0  0  0  0  0  0  0  0  0  0
  185.6900  179.6220  147.9350 O   0  0  0  0  0  0  0  0  0  0  0  0
  188.8820  177.1680  144.0340 O   0  0  0  0  0  0  0  0  0  0  0  0
  188.0450  177.6010  141.7410 C   0  0  0  0  0  3  0  0  0  0  0  0
  187.7170  177.0650  140.4750 C   0  0  0  0  0  3  0  0  0  0  0  0
  188.1350  174.8330  141.3040 C   0  0  0  0  0  3  0  0  0  0  0  0
  187.7710  175.6790  140.2360 C   0  0  0  0  0  3  0  0  0  0  0  0
  188.4620  176.7430  142.8240 C   0  0  0  0  0  0  0  0  0  0  0  0
  188.4360  175.3680  142.5580 C   0  0  0  0  0  3  0  0  0  0  0  0
  191.8280  172.1910  143.6290 C   0  0  0  0  0  2  0  0  0  0  0  0
  189.5820  172.3660  142.6180 F   0  0  0  0  0  0  0  0  0  0  0  0
  190.9330  172.1920  142.3870 C   0  0  2  0  0  3  0  0  0  0  0  0
  191.3090  171.2930  141.2500 C   0  0  0  0  0  2  0  0  0  0  0  0
  191.2180  173.4320  138.1470 C   0  0  0  0  0  3  0  0  0  0  0  0
  190.1630  172.8280  137.4250 C   0  0  0  0  0  0  0  0  0  0  0  0
  189.8110  171.3760  139.2810 N   0  0  0  0  0  0  0  0  0  0  0  0
  189.4710  171.7850  138.0590 C   0  0  0  0  0  3  0  0  0  0  0  0
  191.5660  172.9760  139.4300 C   0  0  0  0  0  3  0  0  0  0  0  0
  190.8550  171.9030  139.9860 C   0  0  0  0  0  0  0  0  0  0  0  0
  189.8230  173.1560  136.1420 O   0  0  0  0  0  0  0  0  0  0  0  0
  188.4750  174.8900  136.7660 O   0  0  0  0  0  1  0  0  0  0  0  0
  190.4050  175.3850  135.4650 C   0  0  0  0  0  1  0  0  0  0  0  0
  189.2730  174.4060  135.7450 C   0  0  1  0  0  3  0  0  0  0  0  0
  1 57  1  6  0  0  0
  1 30  1  0  0  0  0
  2  3  1  0  0  0  0
  2  1  1  0  0  0  0
  3 25  1  1  0  0  0
  5  4  1  6  0  0  0
  5  3  1  0  0  0  0
  6  5  1  0  0  0  0
  7  6  1  6  0  0  0
  7  9  1  0  0  0  0
  8 10  1  0  0  0  0
  8 13  1  0  0  0  0
 10 11  1  0  0  0  0
 12 11  1  0  0  0  0
 12  7  1  0  0  0  0
 13 14  1  6  0  0  0
 13  9  1  0  0  0  0
 16 14  1  0  0  0  0
 16 15  1  1  0  0  0
 17 18  1  6  0  0  0
 17 16  1  0  0  0  0
 19 18  1  0  0  0  0
 20 18  1  0  0  0  0
 21 22  1  0  0  0  0
 21 17  1  0  0  0  0
 24 22  1  0  0  0  0
 24 23  1  0  0  0  0
 25 27  1  0  0  0  0
 27 29  1  0  0  0  0
 27 26  1  1  0  0  0
 28 29  1  0  0  0  0
 30 31  1  0  0  0  0
 31 32  2  0  0  0  0
 31 33  1  0  0  0  0
 33 34  1  0  0  0  0
 34 35  2  6  0  0  0
 36 50  1  6  0  0  0
 36 34  1  0  0  0  0
 37 36  1  6  0  0  0
 37 46  1  0  0  0  0
 38 40  1  0  0  0  0
 39 43  1  0  0  0  0
 39 38  1  6  0  0  0
 39 40  1  0  0  0  0
 41 42  1  6  0  0  0
 41 39  1  0  0  0  0
 41 43  1  0  0  0  0
 43 44  1  6  0  0  0
 43 37  1  0  0  0  0
 46 45  1  6  0  0  0
 46 48  1  0  0  0  0
 48 47  1  0  0  0  0
 49 48  2  0  0  0  0
 51 55  1  0  0  0  0
 52 51  2  0  0  0  0
 53 56  1  0  0  0  0
 54 52  1  0  0  0  0
 54 53  2  0  0  0  0
 55 50  1  0  0  0  0
 56 55  2  0  0  0  0
 59 58  1  1  0  0  0
 59 57  1  0  0  0  0
 60 59  1  0  0  0  0
 61 65  1  0  0  0  0
 62 64  1  0  0  0  0
 62 61  2  0  0  0  0
 63 66  1  0  0  0  0
 64 63  2  0  0  0  0
 65 66  2  0  0  0  0
 66 60  1  0  0  0  0
 67 62  1  0  0  0  0
 70 69  1  1  0  0  0
 70 67  1  0  0  0  0
 70 68  1  0  0  0  0
M  END
>  <MODEL>
9

>  <REMARK>
 VINA RESULT:      -3.9      2.564      4.811
  Name = 
  32 active torsions:
  status: ('A' for Active; 'I' for Inactive)
    1  A    between atoms: O_1  and  C_20
    2  A    between atoms: O_1  and  C_22
    3  A    between atoms: C_5  and  C_65
    4  A    between atoms: C_6  and  C_20
    5  A    between atoms: C_7  and  O_11
    6  A    between atoms: C_7  and  C_66
    7  A    between atoms: C_9  and  C_31
    8  A    between atoms: C_9  and  C_59
    9  A    between atoms: O_10  and  C_50
   10  A    between atoms: O_10  and  C_64
   11  A    between atoms: O_11  and  C_59
   12  A    between atoms: C_16  and  O_41
   13  A    between atoms: O_17  and  C_61
   14  A    between atoms: O_17  and  C_70
   15  A    between atoms: C_18  and  C_48
   16  A    between atoms: C_20  and  C_70
   17  A    between atoms: O_21  and  C_42
   18  A    between atoms: C_22  and  C_46
   19  A    between atoms: C_27  and  C_31
   20  A    between atoms: C_27  and  C_57
   21  A    between atoms: O_32  and  C_59
   22  A    between atoms: O_32  and  C_60
   23  A    between atoms: C_33  and  C_42
   24  A    between atoms: C_33  and  C_60
   25  A    between atoms: P_38  and  C_50
   26  A    between atoms: P_38  and  C_66
   27  A    between atoms: O_41  and  C_62
   28  A    between atoms: C_48  and  C_54
   29  A    between atoms: C_50  and  C_54
   30  A    between atoms: C_52  and  C_54
   31  A    between atoms: C_60  and  C_63
   32  A    between atoms: C_63  and  C_65
                            x       y       z     vdW  Elec       q    Type
                         _______ _______ _______ _____ _____    ______ ____

>  <TORSDO>
F 32

$$$$
