=
 OpenBabel11062422053D

 34 39  0  0  1  0  0  0  0  0999 V2000
  187.4830  176.4670  146.3260 C   0  0  2  0  0  3  0  0  0  0  0  0
  192.6610  175.3730  143.7790 C   0  0  0  0  0  2  0  0  0  0  0  0
  192.6870  176.0980  145.1180 C   0  0  1  0  0  3  0  0  0  0  0  0
  190.2830  176.3210  143.3930 C   0  0  2  0  0  3  0  0  0  0  0  0
  190.3700  177.7710  147.4930 C   0  0  0  0  0  1  0  0  0  0  0  0
  188.0790  175.5120  147.3600 C   0  0  0  0  0  2  0  0  0  0  0  0
  189.9220  177.2540  146.1360 C   0  0  2  0  0  3  0  0  0  0  0  0
  188.4390  177.6080  145.9520 C   0  0  0  0  0  2  0  0  0  0  0  0
  189.3600  174.8520  146.8380 C   0  0  0  0  0  2  0  0  0  0  0  0
  191.6430  175.9520  142.7990 C   0  0  0  0  0  2  0  0  0  0  0  0
  191.7190  175.3700  146.0830 C   0  0  2  0  0  3  0  0  0  0  0  0
  190.2160  175.7350  145.9000 C   0  0  2  0  0  0  0  0  0  0  0  0
  189.7980  175.3360  144.4650 C   0  0  0  0  0  2  0  0  0  0  0  0
  194.8550  177.2220  144.9310 O   0  0  0  0  0  0  0  0  0  0  0  0
  194.1370  176.2210  145.6070 C   0  0  1  0  0  0  0  0  0  0  0  0
  194.4940  177.4900  146.2690 C   0  0  0  0  0  2  0  0  0  0  0  0
  196.0850  174.7790  144.9340 C   0  0  0  0  0  1  0  0  0  0  0  0
  194.9980  175.0120  145.9680 C   0  0  0  0  0  2  0  0  0  0  0  0
  186.1310  177.7680  147.8330 O   0  0  0  0  0  1  0  0  0  0  0  0
  186.0790  176.9830  146.6790 C   0  0  1  0  0  3  0  0  0  0  0  0
  185.4240  179.2200  145.6060 C   0  0  0  0  0  2  0  0  0  0  0  0
  185.2920  177.7080  145.5730 C   0  0  1  0  0  3  0  0  0  0  0  0
  185.6460  177.2440  144.1690 C   0  0  0  0  0  2  0  0  0  0  0  0
  185.8800  178.5030  143.3520 C   0  0  2  0  0  3  0  0  0  0  0  0
  185.3210  179.6630  144.1660 C   0  0  0  0  0  2  0  0  0  0  0  0
  186.4040  178.2240  140.9040 C   0  0  0  0  0  2  0  0  0  0  0  0
  185.3330  178.3470  141.9230 C   0  0  1  0  0  3  0  0  0  0  0  0
  185.6920  177.1020  141.3690 O   0  0  0  0  0  0  0  0  0  0  0  0
  192.1910  175.1620  147.5050 C   0  0  0  0  0  3  0  0  0  0  0  0
  191.4110  174.9420  148.4170 O   0  0  0  0  0  0  0  0  0  0  0  0
  189.2740  176.4070  142.2610 C   0  0  0  0  0  2  0  0  0  0  0  0
  188.2690  174.9200  140.5860 C   0  0  0  0  0  2  0  0  0  0  0  0
  189.4120  174.3130  141.1380 O   0  0  0  0  0  0  0  0  0  0  0  0
  188.6110  175.0630  142.0170 C   0  0  1  0  0  3  0  0  0  0  0  0
  1 20  1  1  0  0  0
  1  6  1  0  0  0  0
  3  2  1  6  0  0  0
  3 15  1  0  0  0  0
  3 11  1  0  0  0  0
  4 31  1  6  0  0  0
  4 13  1  0  0  0  0
  7  5  1  1  0  0  0
  8  7  1  0  0  0  0
  8  1  1  0  0  0  0
  9  6  1  0  0  0  0
 10  4  1  0  0  0  0
 10  2  1  0  0  0  0
 11 29  1  1  0  0  0
 12 13  1  6  0  0  0
 12 11  1  0  0  0  0
 12  7  1  0  0  0  0
 12  9  1  0  0  0  0
 14 15  1  0  0  0  0
 14 16  1  0  0  0  0
 15 18  1  1  0  0  0
 15 16  1  0  0  0  0
 17 18  1  0  0  0  0
 20 19  1  1  0  0  0
 22 21  1  0  0  0  0
 22 20  1  1  0  0  0
 23 22  1  0  0  0  0
 24 25  1  1  0  0  0
 24 23  1  0  0  0  0
 25 21  1  0  0  0  0
 26 28  1  0  0  0  0
 27 26  1  6  0  0  0
 27 24  1  0  0  0  0
 28 27  1  0  0  0  0
 29 30  2  0  0  0  0
 32 33  1  0  0  0  0
 32 34  1  0  0  0  0
 33 34  1  0  0  0  0
 34 31  1  6  0  0  0
M  END
>  <MODEL>
1

>  <REMARK>
 VINA RESULT:      -7.8      0.000      0.000
  Name = 
  8 active torsions:
  status: ('A' for Active; 'I' for Inactive)
    1  A    between atoms: C_2  and  C_27
    2  A    between atoms: C_5  and  C_12
    3  A    between atoms: C_7  and  C_27
    4  A    between atoms: C_8  and  C_23
    5  A    between atoms: C_12  and  C_29
    6  A    between atoms: C_15  and  C_22
    7  A    between atoms: C_20  and  C_30
    8  A    between atoms: C_23  and  C_34
                            x       y       z     vdW  Elec       q    Type
                         _______ _______ _______ _____ _____    ______ ____

>  <TORSDO>
F 8

$$$$
=
 OpenBabel11062422053D

 34 39  0  0  1  0  0  0  0  0999 V2000
  186.1280  177.9760  142.2130 C   0  0  2  0  0  3  0  0  0  0  0  0
  189.7920  175.8590  146.2850 C   0  0  0  0  0  2  0  0  0  0  0  0
  189.8980  175.2690  144.8850 C   0  0  1  0  0  3  0  0  0  0  0  0
  187.3230  176.4450  145.7760 C   0  0  2  0  0  3  0  0  0  0  0  0
  188.0610  175.2650  141.6540 C   0  0  0  0  0  1  0  0  0  0  0  0
  187.4600  178.4290  141.6170 C   0  0  0  0  0  2  0  0  0  0  0  0
  187.5150  175.9280  142.9080 C   0  0  2  0  0  3  0  0  0  0  0  0
  186.1220  176.4880  142.5880 C   0  0  0  0  0  2  0  0  0  0  0  0
  188.6140  178.2260  142.6060 C   0  0  0  0  0  2  0  0  0  0  0  0
  188.3550  175.9560  146.7920 C   0  0  0  0  0  2  0  0  0  0  0  0
  189.8830  176.4350  143.8650 C   0  0  2  0  0  3  0  0  0  0  0  0
  188.4690  176.9980  143.5360 C   0  0  2  0  0  0  0  0  0  0  0  0
  187.8550  177.5440  144.8460 C   0  0  0  0  0  2  0  0  0  0  0  0
  190.8620  173.0620  145.3290 O   0  0  0  0  0  0  0  0  0  0  0  0
  191.1190  174.3410  144.8080 C   0  0  1  0  0  0  0  0  0  0  0  0
  190.9870  173.1660  143.9280 C   0  0  0  0  0  2  0  0  0  0  0  0
  192.8900  174.7170  146.5540 C   0  0  0  0  0  1  0  0  0  0  0  0
  192.5440  174.8190  145.0790 C   0  0  0  0  0  2  0  0  0  0  0  0
  185.0040  177.8370  140.0900 O   0  0  0  0  0  1  0  0  0  0  0  0
  184.8990  178.3670  141.3780 C   0  0  1  0  0  3  0  0  0  0  0  0
  183.0680  179.0350  143.0480 C   0  0  0  0  0  2  0  0  0  0  0  0
  183.5120  178.0600  141.9720 C   0  0  1  0  0  3  0  0  0  0  0  0
  182.4070  177.9830  140.9320 C   0  0  0  0  0  2  0  0  0  0  0  0
  181.2670  178.8360  141.4600 C   0  0  2  0  0  3  0  0  0  0  0  0
  181.5630  179.1020  142.9310 C   0  0  0  0  0  2  0  0  0  0  0  0
  179.0340  179.0710  140.3180 C   0  0  0  0  0  2  0  0  0  0  0  0
  179.9030  178.1990  141.1440 C   0  0  1  0  0  3  0  0  0  0  0  0
  179.7430  177.9900  139.7600 O   0  0  0  0  0  0  0  0  0  0  0  0
  190.8580  176.3530  142.7120 C   0  0  0  0  0  3  0  0  0  0  0  0
  191.8450  177.0680  142.6500 O   0  0  0  0  0  0  0  0  0  0  0  0
  186.1020  176.9390  146.5320 C   0  0  0  0  0  2  0  0  0  0  0  0
  184.2310  178.5270  146.4700 C   0  0  0  0  0  2  0  0  0  0  0  0
  185.3820  179.1660  146.9670 O   0  0  0  0  0  0  0  0  0  0  0  0
  185.5760  178.2320  145.9340 C   0  0  1  0  0  3  0  0  0  0  0  0
  1 20  1  6  0  0  0
  1  8  1  0  0  0  0
  2 10  1  0  0  0  0
  3  2  1  1  0  0  0
  4 31  1  1  0  0  0
  4 10  1  0  0  0  0
  6  1  1  0  0  0  0
  6  9  1  0  0  0  0
  7  5  1  6  0  0  0
  7 12  1  0  0  0  0
  8  7  1  0  0  0  0
 11 29  1  6  0  0  0
 11  3  1  0  0  0  0
 12  9  1  6  0  0  0
 12 11  1  0  0  0  0
 12 13  1  0  0  0  0
 13  4  1  0  0  0  0
 15  3  1  0  0  0  0
 15 18  1  1  0  0  0
 15 14  1  0  0  0  0
 16 15  1  0  0  0  0
 16 14  1  0  0  0  0
 18 17  1  0  0  0  0
 20 19  1  6  0  0  0
 22 20  1  6  0  0  0
 22 21  1  0  0  0  0
 23 22  1  0  0  0  0
 24 23  1  1  0  0  0
 24 25  1  0  0  0  0
 25 21  1  0  0  0  0
 27 26  1  6  0  0  0
 27 24  1  0  0  0  0
 28 26  1  0  0  0  0
 28 27  1  0  0  0  0
 30 29  2  0  0  0  0
 32 33  1  0  0  0  0
 34 32  1  0  0  0  0
 34 31  1  1  0  0  0
 34 33  1  0  0  0  0
M  END
>  <MODEL>
2

>  <REMARK>
 VINA RESULT:      -7.7      2.622      5.266
  Name = 
  8 active torsions:
  status: ('A' for Active; 'I' for Inactive)
    1  A    between atoms: C_2  and  C_27
    2  A    between atoms: C_5  and  C_12
    3  A    between atoms: C_7  and  C_27
    4  A    between atoms: C_8  and  C_23
    5  A    between atoms: C_12  and  C_29
    6  A    between atoms: C_15  and  C_22
    7  A    between atoms: C_20  and  C_30
    8  A    between atoms: C_23  and  C_34
                            x       y       z     vdW  Elec       q    Type
                         _______ _______ _______ _____ _____    ______ ____

>  <TORSDO>
F 8

$$$$
=
 OpenBabel11062422053D

 34 39  0  0  1  0  0  0  0  0999 V2000
  188.9280  175.7420  145.7930 C   0  0  2  0  0  3  0  0  0  0  0  0
  189.7720  173.4850  140.4370 C   0  0  0  0  0  2  0  0  0  0  0  0
  191.0150  173.7990  141.2600 C   0  0  1  0  0  3  0  0  0  0  0  0
  188.5090  175.3010  141.7810 C   0  0  2  0  0  3  0  0  0  0  0  0
  191.9880  175.5710  144.3780 C   0  0  0  0  0  1  0  0  0  0  0  0
  189.5800  174.4140  146.1760 C   0  0  0  0  0  2  0  0  0  0  0  0
  190.5730  175.6010  143.8240 C   0  0  2  0  0  3  0  0  0  0  0  0
  189.7230  176.5070  144.7270 C   0  0  0  0  0  2  0  0  0  0  0  0
  189.6960  173.4790  144.9670 C   0  0  0  0  0  2  0  0  0  0  0  0
  188.7470  174.6180  140.4350 C   0  0  0  0  0  2  0  0  0  0  0  0
  190.7930  173.2650  142.6960 C   0  0  2  0  0  3  0  0  0  0  0  0
  189.9370  174.1870  143.6130 C   0  0  2  0  0  0  0  0  0  0  0  0
  188.5370  174.3330  142.9710 C   0  0  0  0  0  2  0  0  0  0  0  0
  192.7170  174.1210  139.5290 O   0  0  0  0  0  0  0  0  0  0  0  0
  192.2580  173.2590  140.5390 C   0  0  1  0  0  0  0  0  0  0  0  0
  193.4960  174.0450  140.7030 C   0  0  0  0  0  2  0  0  0  0  0  0
  192.2170  171.5320  138.7120 C   0  0  0  0  0  1  0  0  0  0  0  0
  192.4420  171.7840  140.1920 C   0  0  0  0  0  2  0  0  0  0  0  0
  189.4170  177.7340  147.0500 O   0  0  0  0  0  1  0  0  0  0  0  0
  188.5610  176.6320  146.9910 C   0  0  1  0  0  3  0  0  0  0  0  0
  186.9090  178.3880  147.8730 C   0  0  0  0  0  2  0  0  0  0  0  0
  187.0950  177.0860  147.1130 C   0  0  1  0  0  3  0  0  0  0  0  0
  186.3860  177.2250  145.7760 C   0  0  0  0  0  2  0  0  0  0  0  0
  185.6930  178.5760  145.8010 C   0  0  2  0  0  3  0  0  0  0  0  0
  185.6990  179.0440  147.2510 C   0  0  0  0  0  2  0  0  0  0  0  0
  184.2570  179.3090  143.8650 C   0  0  0  0  0  2  0  0  0  0  0  0
  184.3190  178.5090  145.1130 C   0  0  1  0  0  3  0  0  0  0  0  0
  184.4120  177.9090  143.8410 O   0  0  0  0  0  0  0  0  0  0  0  0
  191.9570  172.5580  143.3550 C   0  0  0  0  0  3  0  0  0  0  0  0
  191.9370  171.3600  143.5860 O   0  0  0  0  0  0  0  0  0  0  0  0
  187.1750  176.0250  141.7220 C   0  0  0  0  0  2  0  0  0  0  0  0
  185.9160  177.8370  140.6450 C   0  0  0  0  0  2  0  0  0  0  0  0
  186.8280  178.3750  141.5720 O   0  0  0  0  0  0  0  0  0  0  0  0
  187.2610  177.2570  140.8380 C   0  0  1  0  0  3  0  0  0  0  0  0
  1  6  1  0  0  0  0
  1 20  1  1  0  0  0
  3  2  1  6  0  0  0
  3 11  1  0  0  0  0
  4 31  1  6  0  0  0
  4 13  1  0  0  0  0
  7  5  1  1  0  0  0
  7  8  1  0  0  0  0
  8  1  1  0  0  0  0
  9  6  1  0  0  0  0
 10  2  1  0  0  0  0
 10  4  1  0  0  0  0
 11 29  1  1  0  0  0
 11 12  1  0  0  0  0
 12 13  1  6  0  0  0
 12  7  1  0  0  0  0
 12  9  1  0  0  0  0
 14 15  1  0  0  0  0
 14 16  1  0  0  0  0
 15 18  1  6  0  0  0
 15 16  1  0  0  0  0
 15  3  1  0  0  0  0
 17 18  1  0  0  0  0
 20 19  1  6  0  0  0
 22 20  1  6  0  0  0
 22 21  1  0  0  0  0
 23 22  1  0  0  0  0
 24 23  1  1  0  0  0
 24 25  1  0  0  0  0
 25 21  1  0  0  0  0
 27 26  1  6  0  0  0
 27 24  1  0  0  0  0
 28 26  1  0  0  0  0
 28 27  1  0  0  0  0
 29 30  2  0  0  0  0
 32 34  1  0  0  0  0
 32 33  1  0  0  0  0
 34 33  1  0  0  0  0
 34 31  1  1  0  0  0
M  END
>  <MODEL>
3

>  <REMARK>
 VINA RESULT:      -7.6      2.413      4.119
  Name = 
  8 active torsions:
  status: ('A' for Active; 'I' for Inactive)
    1  A    between atoms: C_2  and  C_27
    2  A    between atoms: C_5  and  C_12
    3  A    between atoms: C_7  and  C_27
    4  A    between atoms: C_8  and  C_23
    5  A    between atoms: C_12  and  C_29
    6  A    between atoms: C_15  and  C_22
    7  A    between atoms: C_20  and  C_30
    8  A    between atoms: C_23  and  C_34
                            x       y       z     vdW  Elec       q    Type
                         _______ _______ _______ _____ _____    ______ ____

>  <TORSDO>
F 8

$$$$
=
 OpenBabel11062422053D

 34 39  0  0  1  0  0  0  0  0999 V2000
  190.6290  175.9540  146.0990 C   0  0  2  0  0  3  0  0  0  0  0  0
  194.4030  174.0930  142.0020 C   0  0  0  0  0  2  0  0  0  0  0  0
  194.9020  175.1560  142.9720 C   0  0  1  0  0  3  0  0  0  0  0  0
  191.9960  174.9510  142.4120 C   0  0  2  0  0  3  0  0  0  0  0  0
  193.6020  177.4650  145.5780 C   0  0  0  0  0  1  0  0  0  0  0  0
  191.6810  175.3050  146.9980 C   0  0  0  0  0  2  0  0  0  0  0  0
  192.6930  176.6060  144.7150 C   0  0  2  0  0  3  0  0  0  0  0  0
  191.2370  176.9280  145.0810 C   0  0  0  0  0  2  0  0  0  0  0  0
  192.6960  174.5000  146.1790 C   0  0  0  0  0  2  0  0  0  0  0  0
  193.0250  174.4050  141.4220 C   0  0  0  0  0  2  0  0  0  0  0  0
  194.4830  174.7410  144.4040 C   0  0  2  0  0  3  0  0  0  0  0  0
  193.0090  175.0740  144.7770 C   0  0  2  0  0  0  0  0  0  0  0  0
  192.0840  174.3080  143.8030 C   0  0  0  0  0  2  0  0  0  0  0  0
  196.6820  176.3430  141.7790 O   0  0  0  0  0  0  0  0  0  0  0  0
  196.4070  175.3770  142.7620 C   0  0  1  0  0  0  0  0  0  0  0  0
  196.9230  176.7120  143.1200 C   0  0  0  0  0  2  0  0  0  0  0  0
  197.9410  173.9370  141.3850 C   0  0  0  0  0  1  0  0  0  0  0  0
  197.4240  174.2390  142.7800 C   0  0  0  0  0  2  0  0  0  0  0  0
  189.7070  177.9200  147.1340 O   0  0  0  0  0  1  0  0  0  0  0  0
  189.4470  176.5760  146.8600 C   0  0  1  0  0  3  0  0  0  0  0  0
  186.9150  176.4520  147.2570 C   0  0  0  0  0  2  0  0  0  0  0  0
  188.0450  176.4160  146.2440 C   0  0  1  0  0  3  0  0  0  0  0  0
  187.7330  177.4390  145.1650 C   0  0  0  0  0  2  0  0  0  0  0  0
  186.3590  177.9980  145.4950 C   0  0  2  0  0  3  0  0  0  0  0  0
  185.7420  177.0620  146.5260 C   0  0  0  0  0  2  0  0  0  0  0  0
  184.9780  179.6140  144.1430 C   0  0  0  0  0  2  0  0  0  0  0  0
  185.5380  178.2430  144.2180 C   0  0  1  0  0  3  0  0  0  0  0  0
  186.1240  179.2400  143.4140 O   0  0  0  0  0  0  0  0  0  0  0  0
  195.5100  174.9200  145.5000 C   0  0  0  0  0  3  0  0  0  0  0  0
  196.0940  173.9710  145.9980 O   0  0  0  0  0  0  0  0  0  0  0  0
  190.6100  174.7470  141.8250 C   0  0  0  0  0  2  0  0  0  0  0  0
  188.2390  174.7970  142.4590 C   0  0  0  0  0  2  0  0  0  0  0  0
  188.6950  173.4670  142.4260 O   0  0  0  0  0  0  0  0  0  0  0  0
  189.5970  174.4300  142.9110 C   0  0  1  0  0  3  0  0  0  0  0  0
  1 20  1  1  0  0  0
  1  6  1  0  0  0  0
  3  2  1  6  0  0  0
  3 11  1  0  0  0  0
  4 31  1  6  0  0  0
  4 13  1  0  0  0  0
  7 12  1  0  0  0  0
  7  8  1  0  0  0  0
  7  5  1  1  0  0  0
  8  1  1  0  0  0  0
  9  6  1  0  0  0  0
 10  2  1  0  0  0  0
 10  4  1  0  0  0  0
 11 12  1  0  0  0  0
 11 29  1  1  0  0  0
 12 13  1  6  0  0  0
 12  9  1  0  0  0  0
 14 15  1  0  0  0  0
 14 16  1  0  0  0  0
 15 18  1  1  0  0  0
 15  3  1  0  0  0  0
 15 16  1  0  0  0  0
 17 18  1  0  0  0  0
 20 19  1  6  0  0  0
 22 20  1  1  0  0  0
 22 21  1  0  0  0  0
 23 22  1  0  0  0  0
 24 23  1  6  0  0  0
 24 25  1  0  0  0  0
 25 21  1  0  0  0  0
 27 26  1  1  0  0  0
 27 24  1  0  0  0  0
 28 26  1  0  0  0  0
 28 27  1  0  0  0  0
 29 30  2  0  0  0  0
 32 34  1  0  0  0  0
 33 32  1  0  0  0  0
 33 34  1  0  0  0  0
 34 31  1  6  0  0  0
M  END
>  <MODEL>
4

>  <REMARK>
 VINA RESULT:      -7.5      1.991      3.252
  Name = 
  8 active torsions:
  status: ('A' for Active; 'I' for Inactive)
    1  A    between atoms: C_2  and  C_27
    2  A    between atoms: C_5  and  C_12
    3  A    between atoms: C_7  and  C_27
    4  A    between atoms: C_8  and  C_23
    5  A    between atoms: C_12  and  C_29
    6  A    between atoms: C_15  and  C_22
    7  A    between atoms: C_20  and  C_30
    8  A    between atoms: C_23  and  C_34
                            x       y       z     vdW  Elec       q    Type
                         _______ _______ _______ _____ _____    ______ ____

>  <TORSDO>
F 8

$$$$
=
 OpenBabel11062422053D

 34 39  0  0  1  0  0  0  0  0999 V2000
  188.7830  176.4220  142.9510 C   0  0  2  0  0  3  0  0  0  0  0  0
  193.1370  175.1130  146.6700 C   0  0  0  0  0  2  0  0  0  0  0  0
  193.2400  174.5520  145.2570 C   0  0  1  0  0  3  0  0  0  0  0  0
  190.5660  175.1800  146.3790 C   0  0  2  0  0  3  0  0  0  0  0  0
  191.1740  174.1610  142.1940 C   0  0  0  0  0  1  0  0  0  0  0  0
  189.9390  177.1350  142.2510 C   0  0  0  0  0  2  0  0  0  0  0  0
  190.6130  174.7030  143.4980 C   0  0  2  0  0  3  0  0  0  0  0  0
  189.1130  174.9650  143.3040 C   0  0  0  0  0  2  0  0  0  0  0  0
  191.1900  177.1750  143.1370 C   0  0  0  0  0  2  0  0  0  0  0  0
  191.7590  174.9160  147.2980 C   0  0  0  0  0  2  0  0  0  0  0  0
  192.9000  175.6860  144.2590 C   0  0  2  0  0  3  0  0  0  0  0  0
  191.3790  175.9470  144.0580 C   0  0  2  0  0  0  0  0  0  0  0  0
  190.7800  176.3610  145.4230 C   0  0  0  0  0  2  0  0  0  0  0  0
  194.6230  172.5380  145.4390 O   0  0  0  0  0  0  0  0  0  0  0  0
  194.6140  173.8930  145.0650 C   0  0  1  0  0  0  0  0  0  0  0  0
  194.6830  172.8180  144.0570 C   0  0  0  0  0  2  0  0  0  0  0  0
  196.7910  173.7870  146.3200 C   0  0  0  0  0  1  0  0  0  0  0  0
  195.9280  174.6050  145.3770 C   0  0  0  0  0  2  0  0  0  0  0  0
  186.6940  175.3750  142.3790 O   0  0  0  0  0  1  0  0  0  0  0  0
  187.4330  176.5500  142.2280 C   0  0  1  0  0  3  0  0  0  0  0  0
  185.2480  177.8280  141.8080 C   0  0  0  0  0  2  0  0  0  0  0  0
  186.5650  177.7760  142.5630 C   0  0  1  0  0  3  0  0  0  0  0  0
  186.2550  177.9180  144.0440 C   0  0  0  0  0  2  0  0  0  0  0  0
  184.7590  178.1620  144.1430 C   0  0  2  0  0  3  0  0  0  0  0  0
  184.2790  178.5150  142.7410 C   0  0  0  0  0  2  0  0  0  0  0  0
  184.0710  178.5370  146.5370 C   0  0  0  0  0  2  0  0  0  0  0  0
  184.4340  179.1790  145.2510 C   0  0  1  0  0  3  0  0  0  0  0  0
  185.3490  179.0840  146.3180 O   0  0  0  0  0  0  0  0  0  0  0  0
  193.7700  175.8010  143.0260 C   0  0  0  0  0  3  0  0  0  0  0  0
  194.7410  176.5390  142.9890 O   0  0  0  0  0  0  0  0  0  0  0  0
  189.3380  175.4170  147.2420 C   0  0  0  0  0  2  0  0  0  0  0  0
  187.0960  176.4120  147.3380 C   0  0  0  0  0  2  0  0  0  0  0  0
  188.0660  177.4280  147.2540 O   0  0  0  0  0  0  0  0  0  0  0  0
  188.3100  176.2610  146.5100 C   0  0  1  0  0  3  0  0  0  0  0  0
  1 20  1  6  0  0  0
  1  8  1  0  0  0  0
  2 10  1  0  0  0  0
  3  2  1  1  0  0  0
  4 31  1  1  0  0  0
  4 10  1  0  0  0  0
  6  1  1  0  0  0  0
  6  9  1  0  0  0  0
  7  5  1  6  0  0  0
  7 12  1  0  0  0  0
  8  7  1  0  0  0  0
 11 29  1  6  0  0  0
 11  3  1  0  0  0  0
 12  9  1  6  0  0  0
 12 11  1  0  0  0  0
 12 13  1  0  0  0  0
 13  4  1  0  0  0  0
 15  3  1  0  0  0  0
 15 18  1  1  0  0  0
 15 14  1  0  0  0  0
 16 15  1  0  0  0  0
 16 14  1  0  0  0  0
 18 17  1  0  0  0  0
 20 19  1  1  0  0  0
 21 22  1  0  0  0  0
 21 25  1  0  0  0  0
 22 20  1  1  0  0  0
 22 23  1  0  0  0  0
 23 24  1  0  0  0  0
 24 25  1  6  0  0  0
 24 27  1  0  0  0  0
 27 28  1  0  0  0  0
 27 26  1  1  0  0  0
 28 26  1  0  0  0  0
 30 29  2  0  0  0  0
 33 32  1  0  0  0  0
 34 31  1  1  0  0  0
 34 33  1  0  0  0  0
 34 32  1  0  0  0  0
M  END
>  <MODEL>
5

>  <REMARK>
 VINA RESULT:      -7.5      1.696      4.322
  Name = 
  8 active torsions:
  status: ('A' for Active; 'I' for Inactive)
    1  A    between atoms: C_2  and  C_27
    2  A    between atoms: C_5  and  C_12
    3  A    between atoms: C_7  and  C_27
    4  A    between atoms: C_8  and  C_23
    5  A    between atoms: C_12  and  C_29
    6  A    between atoms: C_15  and  C_22
    7  A    between atoms: C_20  and  C_30
    8  A    between atoms: C_23  and  C_34
                            x       y       z     vdW  Elec       q    Type
                         _______ _______ _______ _____ _____    ______ ____

>  <TORSDO>
F 8

$$$$
=
 OpenBabel11062422053D

 34 39  0  0  1  0  0  0  0  0999 V2000
  189.3850  176.4100  143.5290 C   0  0  2  0  0  3  0  0  0  0  0  0
  193.6460  172.7850  145.3200 C   0  0  0  0  0  2  0  0  0  0  0  0
  194.0730  174.0330  144.5580 C   0  0  1  0  0  3  0  0  0  0  0  0
  191.3620  172.9140  144.1080 C   0  0  2  0  0  3  0  0  0  0  0  0
  192.5920  176.7800  142.5410 C   0  0  0  0  0  1  0  0  0  0  0  0
  190.1060  177.3300  144.5130 C   0  0  0  0  0  2  0  0  0  0  0  0
  191.7770  175.6020  143.0470 C   0  0  2  0  0  3  0  0  0  0  0  0
  190.3410  175.7520  142.5240 C   0  0  0  0  0  2  0  0  0  0  0  0
  191.1450  176.5620  145.3400 C   0  0  0  0  0  2  0  0  0  0  0  0
  192.4910  172.0390  144.6560 C   0  0  0  0  0  2  0  0  0  0  0  0
  193.2930  175.2420  145.1330 C   0  0  2  0  0  3  0  0  0  0  0  0
  191.8390  175.3970  144.5970 C   0  0  2  0  0  0  0  0  0  0  0  0
  191.0470  174.1290  144.9910 C   0  0  0  0  0  2  0  0  0  0  0  0
  196.2290  173.4530  143.5520 O   0  0  0  0  0  0  0  0  0  0  0  0
  195.6030  174.1590  144.5930 C   0  0  1  0  0  0  0  0  0  0  0  0
  196.2230  174.8600  143.4540 C   0  0  0  0  0  2  0  0  0  0  0  0
  196.9850  172.7680  146.1680 C   0  0  0  0  0  1  0  0  0  0  0  0
  196.4080  174.1450  145.8900 C   0  0  0  0  0  2  0  0  0  0  0  0
  187.2180  176.0770  142.5380 O   0  0  0  0  0  1  0  0  0  0  0  0
  188.1720  177.0520  142.8380 C   0  0  1  0  0  3  0  0  0  0  0  0
  186.3590  178.8670  142.7640 C   0  0  0  0  0  2  0  0  0  0  0  0
  187.5100  178.2510  143.5400 C   0  0  1  0  0  3  0  0  0  0  0  0
  187.0080  177.9370  144.9400 C   0  0  0  0  0  2  0  0  0  0  0  0
  185.5880  178.4720  145.0120 C   0  0  2  0  0  3  0  0  0  0  0  0
  185.4050  179.3920  143.8110 C   0  0  0  0  0  2  0  0  0  0  0  0
  184.3150  178.3000  147.1790 C   0  0  0  0  0  2  0  0  0  0  0  0
  185.2950  179.0860  146.3920 C   0  0  1  0  0  3  0  0  0  0  0  0
  185.6980  178.2260  147.4320 O   0  0  0  0  0  0  0  0  0  0  0  0
  194.0690  176.5230  145.3470 C   0  0  0  0  0  3  0  0  0  0  0  0
  194.3640  176.9190  146.4630 O   0  0  0  0  0  0  0  0  0  0  0  0
  190.1250  172.0490  143.9390 C   0  0  0  0  0  2  0  0  0  0  0  0
  189.1110  172.2610  141.7130 C   0  0  0  0  0  2  0  0  0  0  0  0
  190.5040  172.4370  141.6210 O   0  0  0  0  0  0  0  0  0  0  0  0
  190.0490  171.4710  142.5370 C   0  0  1  0  0  3  0  0  0  0  0  0
  1 20  1  6  0  0  0
  1  6  1  0  0  0  0
  3 15  1  0  0  0  0
  3 11  1  0  0  0  0
  3  2  1  1  0  0  0
  4 31  1  1  0  0  0
  4 10  1  0  0  0  0
  4 13  1  0  0  0  0
  6  9  1  0  0  0  0
  7  5  1  1  0  0  0
  7 12  1  0  0  0  0
  8  7  1  0  0  0  0
  8  1  1  0  0  0  0
 10  2  1  0  0  0  0
 11 29  1  6  0  0  0
 12 13  1  1  0  0  0
 12 11  1  0  0  0  0
 12  9  1  0  0  0  0
 14 15  1  0  0  0  0
 15 18  1  1  0  0  0
 16 14  1  0  0  0  0
 16 15  1  0  0  0  0
 18 17  1  0  0  0  0
 20 19  1  1  0  0  0
 21 22  1  0  0  0  0
 21 25  1  0  0  0  0
 22 20  1  6  0  0  0
 22 23  1  0  0  0  0
 23 24  1  0  0  0  0
 24 25  1  6  0  0  0
 24 27  1  0  0  0  0
 26 28  1  0  0  0  0
 27 26  1  6  0  0  0
 27 28  1  0  0  0  0
 29 30  2  0  0  0  0
 32 34  1  0  0  0  0
 33 32  1  0  0  0  0
 33 34  1  0  0  0  0
 34 31  1  1  0  0  0
M  END
>  <MODEL>
6

>  <REMARK>
 VINA RESULT:      -7.3      1.991      3.715
  Name = 
  8 active torsions:
  status: ('A' for Active; 'I' for Inactive)
    1  A    between atoms: C_2  and  C_27
    2  A    between atoms: C_5  and  C_12
    3  A    between atoms: C_7  and  C_27
    4  A    between atoms: C_8  and  C_23
    5  A    between atoms: C_12  and  C_29
    6  A    between atoms: C_15  and  C_22
    7  A    between atoms: C_20  and  C_30
    8  A    between atoms: C_23  and  C_34
                            x       y       z     vdW  Elec       q    Type
                         _______ _______ _______ _____ _____    ______ ____

>  <TORSDO>
F 8

$$$$
=
 OpenBabel11062422053D

 34 39  0  0  1  0  0  0  0  0999 V2000
  192.0300  174.4440  145.2780 C   0  0  2  0  0  3  0  0  0  0  0  0
  187.2550  177.5860  143.9290 C   0  0  0  0  0  2  0  0  0  0  0  0
  187.3130  176.9800  145.3250 C   0  0  1  0  0  3  0  0  0  0  0  0
  188.8310  175.6990  143.1200 C   0  0  2  0  0  3  0  0  0  0  0  0
  189.3160  174.5390  147.2840 C   0  0  0  0  0  1  0  0  0  0  0  0
  192.1890  175.5900  146.2770 C   0  0  0  0  0  2  0  0  0  0  0  0
  189.5360  174.7770  145.7990 C   0  0  2  0  0  3  0  0  0  0  0  0
  190.6310  173.8150  145.3150 C   0  0  0  0  0  2  0  0  0  0  0  0
  191.1960  176.7230  145.9900 C   0  0  0  0  0  2  0  0  0  0  0  0
  187.6310  176.5990  142.8260 C   0  0  0  0  0  2  0  0  0  0  0  0
  188.7220  177.2470  145.9110 C   0  0  2  0  0  3  0  0  0  0  0  0
  189.8300  176.2680  145.4250 C   0  0  2  0  0  0  0  0  0  0  0  0
  189.9530  176.4090  143.8900 C   0  0  0  0  0  2  0  0  0  0  0  0
  185.0900  176.5760  146.2700 O   0  0  0  0  0  0  0  0  0  0  0  0
  186.1390  177.5050  146.1630 C   0  0  1  0  0  0  0  0  0  0  0  0
  185.8720  176.7900  147.4250 C   0  0  0  0  0  2  0  0  0  0  0  0
  184.2960  179.0430  145.4120 C   0  0  0  0  0  1  0  0  0  0  0  0
  185.6490  178.9490  146.0940 C   0  0  0  0  0  2  0  0  0  0  0  0
  193.0110  172.4780  144.2990 O   0  0  0  0  0  1  0  0  0  0  0  0
  193.1420  173.3860  145.3520 C   0  0  1  0  0  3  0  0  0  0  0  0
  195.6370  172.7860  145.4050 C   0  0  0  0  0  2  0  0  0  0  0  0
  194.5940  173.8890  145.4470 C   0  0  1  0  0  3  0  0  0  0  0  0
  194.9560  174.9100  144.3810 C   0  0  0  0  0  2  0  0  0  0  0  0
  196.2780  174.4530  143.7880 C   0  0  2  0  0  3  0  0  0  0  0  0
  196.8430  173.4020  144.7350 C   0  0  0  0  0  2  0  0  0  0  0  0
  197.1610  176.0480  142.0490 C   0  0  0  0  0  2  0  0  0  0  0  0
  197.1920  175.6510  143.4780 C   0  0  1  0  0  3  0  0  0  0  0  0
  196.4470  176.7610  143.0320 O   0  0  0  0  0  0  0  0  0  0  0  0
  188.7930  177.6760  147.3600 C   0  0  0  0  0  3  0  0  0  0  0  0
  189.4160  178.6660  147.7090 O   0  0  0  0  0  0  0  0  0  0  0  0
  189.3570  175.1560  141.8030 C   0  0  0  0  0  2  0  0  0  0  0  0
  188.7480  174.0710  139.6860 C   0  0  0  0  0  2  0  0  0  0  0  0
  188.1920  173.3590  140.7640 O   0  0  0  0  0  0  0  0  0  0  0  0
  188.2170  174.7600  140.8810 C   0  0  1  0  0  3  0  0  0  0  0  0
  1  8  1  0  0  0  0
  1 20  1  1  0  0  0
  1  6  1  0  0  0  0
  3  2  1  6  0  0  0
  3 11  1  0  0  0  0
  3 15  1  0  0  0  0
  4 31  1  6  0  0  0
  4 13  1  0  0  0  0
  7  5  1  1  0  0  0
  8  7  1  0  0  0  0
  9  6  1  0  0  0  0
 10  4  1  0  0  0  0
 10  2  1  0  0  0  0
 11 29  1  1  0  0  0
 12 13  1  6  0  0  0
 12  7  1  0  0  0  0
 12 11  1  0  0  0  0
 12  9  1  0  0  0  0
 14 16  1  0  0  0  0
 15 18  1  6  0  0  0
 15 14  1  0  0  0  0
 15 16  1  0  0  0  0
 17 18  1  0  0  0  0
 20 19  1  6  0  0  0
 21 22  1  0  0  0  0
 22 20  1  6  0  0  0
 23 22  1  0  0  0  0
 24 23  1  1  0  0  0
 24 25  1  0  0  0  0
 25 21  1  0  0  0  0
 26 28  1  0  0  0  0
 27 26  1  6  0  0  0
 27 24  1  0  0  0  0
 28 27  1  0  0  0  0
 29 30  2  0  0  0  0
 32 33  1  0  0  0  0
 32 34  1  0  0  0  0
 33 34  1  0  0  0  0
 34 31  1  1  0  0  0
M  END
>  <MODEL>
7

>  <REMARK>
 VINA RESULT:      -7.3      1.881      7.494
  Name = 
  8 active torsions:
  status: ('A' for Active; 'I' for Inactive)
    1  A    between atoms: C_2  and  C_27
    2  A    between atoms: C_5  and  C_12
    3  A    between atoms: C_7  and  C_27
    4  A    between atoms: C_8  and  C_23
    5  A    between atoms: C_12  and  C_29
    6  A    between atoms: C_15  and  C_22
    7  A    between atoms: C_20  and  C_30
    8  A    between atoms: C_23  and  C_34
                            x       y       z     vdW  Elec       q    Type
                         _______ _______ _______ _____ _____    ______ ____

>  <TORSDO>
F 8

$$$$
=
 OpenBabel11062422053D

 34 39  0  0  1  0  0  0  0  0999 V2000
  190.3740  174.0700  144.8960 C   0  0  2  0  0  3  0  0  0  0  0  0
  188.4090  173.7790  139.3690 C   0  0  0  0  0  2  0  0  0  0  0  0
  189.8780  173.4490  139.6000 C   0  0  1  0  0  3  0  0  0  0  0  0
  188.4740  175.2370  141.5060 C   0  0  2  0  0  3  0  0  0  0  0  0
  192.4550  173.6600  142.2690 C   0  0  0  0  0  1  0  0  0  0  0  0
  190.5610  172.5750  144.6380 C   0  0  0  0  0  2  0  0  0  0  0  0
  191.0610  174.2440  142.4260 C   0  0  2  0  0  3  0  0  0  0  0  0
  190.9840  174.9430  143.7910 C   0  0  0  0  0  2  0  0  0  0  0  0
  189.8920  172.1470  143.3270 C   0  0  0  0  0  2  0  0  0  0  0  0
  187.9580  175.0530  140.0790 C   0  0  0  0  0  2  0  0  0  0  0  0
  189.9760  172.5030  140.8230 C   0  0  2  0  0  3  0  0  0  0  0  0
  189.9040  173.2130  142.2070 C   0  0  2  0  0  0  0  0  0  0  0  0
  188.5370  173.9290  142.3060 C   0  0  0  0  0  2  0  0  0  0  0  0
  190.8380  173.9360  137.4000 O   0  0  0  0  0  0  0  0  0  0  0  0
  190.4950  172.9130  138.3010 C   0  0  1  0  0  0  0  0  0  0  0  0
  191.9030  173.2780  138.0510 C   0  0  0  0  0  2  0  0  0  0  0  0
  189.3180  171.9740  136.2860 C   0  0  0  0  0  1  0  0  0  0  0  0
  189.9980  171.6490  137.6040 C   0  0  0  0  0  2  0  0  0  0  0  0
  192.1020  175.0450  146.2560 O   0  0  0  0  0  1  0  0  0  0  0  0
  190.8070  174.5260  146.2980 C   0  0  1  0  0  3  0  0  0  0  0  0
  190.4350  176.8830  147.2440 C   0  0  0  0  0  2  0  0  0  0  0  0
  189.8690  175.4870  147.0510 C   0  0  1  0  0  3  0  0  0  0  0  0
  188.4980  175.6290  146.4090 C   0  0  0  0  0  2  0  0  0  0  0  0
  188.2200  177.1200  146.3270 C   0  0  2  0  0  3  0  0  0  0  0  0
  189.2390  177.8060  147.2280 C   0  0  0  0  0  2  0  0  0  0  0  0
  186.1160  178.2920  145.5880 C   0  0  0  0  0  2  0  0  0  0  0  0
  186.7400  177.4260  146.6170 C   0  0  1  0  0  3  0  0  0  0  0  0
  185.9030  176.9010  145.6130 O   0  0  0  0  0  0  0  0  0  0  0  0
  190.9340  171.3370  140.7160 C   0  0  0  0  0  3  0  0  0  0  0  0
  190.5410  170.1820  140.6720 O   0  0  0  0  0  0  0  0  0  0  0  0
  187.5820  176.2440  142.2120 C   0  0  0  0  0  2  0  0  0  0  0  0
  186.0520  178.0030  141.4410 C   0  0  0  0  0  2  0  0  0  0  0  0
  187.0560  178.5660  142.2510 O   0  0  0  0  0  0  0  0  0  0  0  0
  187.4470  177.5190  141.3970 C   0  0  1  0  0  3  0  0  0  0  0  0
  1 20  1  1  0  0  0
  2 10  1  0  0  0  0
  3  2  1  6  0  0  0
  3 11  1  0  0  0  0
  4 31  1  1  0  0  0
  4 13  1  0  0  0  0
  6  1  1  0  0  0  0
  7  5  1  1  0  0  0
  7  8  1  0  0  0  0
  8  1  1  0  0  0  0
  9  6  1  0  0  0  0
 10  4  1  0  0  0  0
 11 29  1  6  0  0  0
 11 12  1  0  0  0  0
 12 13  1  1  0  0  0
 12  7  1  0  0  0  0
 12  9  1  0  0  0  0
 14 16  1  0  0  0  0
 14 15  1  0  0  0  0
 15 18  1  6  0  0  0
 15  3  1  0  0  0  0
 16 15  1  0  0  0  0
 17 18  1  0  0  0  0
 20 19  1  6  0  0  0
 22 20  1  6  0  0  0
 22 21  1  0  0  0  0
 23 22  1  0  0  0  0
 24 23  1  1  0  0  0
 24 27  1  0  0  0  0
 24 25  1  0  0  0  0
 25 21  1  0  0  0  0
 26 28  1  0  0  0  0
 27 26  1  6  0  0  0
 28 27  1  0  0  0  0
 30 29  2  0  0  0  0
 32 33  1  0  0  0  0
 34 32  1  0  0  0  0
 34 31  1  1  0  0  0
 34 33  1  0  0  0  0
M  END
>  <MODEL>
8

>  <REMARK>
 VINA RESULT:      -7.0      2.585      6.127
  Name = 
  8 active torsions:
  status: ('A' for Active; 'I' for Inactive)
    1  A    between atoms: C_2  and  C_27
    2  A    between atoms: C_5  and  C_12
    3  A    between atoms: C_7  and  C_27
    4  A    between atoms: C_8  and  C_23
    5  A    between atoms: C_12  and  C_29
    6  A    between atoms: C_15  and  C_22
    7  A    between atoms: C_20  and  C_30
    8  A    between atoms: C_23  and  C_34
                            x       y       z     vdW  Elec       q    Type
                         _______ _______ _______ _____ _____    ______ ____

>  <TORSDO>
F 8

$$$$
=
 OpenBabel11062422053D

 34 39  0  0  1  0  0  0  0  0999 V2000
  191.7780  174.6450  144.1220 C   0  0  2  0  0  3  0  0  0  0  0  0
  186.8460  177.8330  144.0460 C   0  0  0  0  0  2  0  0  0  0  0  0
  187.1550  177.0670  145.3260 C   0  0  1  0  0  3  0  0  0  0  0  0
  188.2430  176.0850  142.7450 C   0  0  2  0  0  3  0  0  0  0  0  0
  189.4750  174.4510  146.5830 C   0  0  0  0  0  1  0  0  0  0  0  0
  192.1190  175.6680  145.2050 C   0  0  0  0  0  2  0  0  0  0  0  0
  189.4210  174.8670  145.1230 C   0  0  2  0  0  3  0  0  0  0  0  0
  190.4070  173.9900  144.3370 C   0  0  0  0  0  2  0  0  0  0  0  0
  191.0930  176.8080  145.2410 C   0  0  0  0  0  2  0  0  0  0  0  0
  187.0110  176.9910  142.7830 C   0  0  0  0  0  2  0  0  0  0  0  0
  188.6480  177.2900  145.6750 C   0  0  2  0  0  3  0  0  0  0  0  0
  189.6460  176.3960  144.8830 C   0  0  2  0  0  0  0  0  0  0  0  0
  189.4880  176.7200  143.3790 C   0  0  0  0  0  2  0  0  0  0  0  0
  185.1680  176.4900  146.6360 O   0  0  0  0  0  0  0  0  0  0  0  0
  186.1550  177.4670  146.4190 C   0  0  1  0  0  0  0  0  0  0  0  0
  186.1540  176.6320  147.6350 C   0  0  0  0  0  2  0  0  0  0  0  0
  184.2380  179.0380  145.9950 C   0  0  0  0  0  1  0  0  0  0  0  0
  185.6290  178.8910  146.5840 C   0  0  0  0  0  2  0  0  0  0  0  0
  194.1390  174.1890  144.0410 O   0  0  0  0  0  1  0  0  0  0  0  0
  192.8810  173.6070  143.8660 C   0  0  1  0  0  3  0  0  0  0  0  0
  192.3900  171.0890  143.7810 C   0  0  0  0  0  2  0  0  0  0  0  0
  192.7950  172.2770  144.6360 C   0  0  1  0  0  3  0  0  0  0  0  0
  194.0790  171.9080  145.3620 C   0  0  0  0  0  2  0  0  0  0  0  0
  194.3640  170.4580  145.0100 C   0  0  2  0  0  3  0  0  0  0  0  0
  193.0880  169.8980  144.3940 C   0  0  0  0  0  2  0  0  0  0  0  0
  196.0890  168.8380  145.8720 C   0  0  0  0  0  2  0  0  0  0  0  0
  194.9290  169.6940  146.2190 C   0  0  1  0  0  3  0  0  0  0  0  0
  196.2530  170.0870  146.5000 O   0  0  0  0  0  0  0  0  0  0  0  0
  188.9830  177.5470  147.1280 C   0  0  0  0  0  3  0  0  0  0  0  0
  189.2940  178.6550  147.5320 O   0  0  0  0  0  0  0  0  0  0  0  0
  188.5190  175.7120  141.2990 C   0  0  0  0  0  2  0  0  0  0  0  0
  188.8010  173.8660  139.7050 C   0  0  0  0  0  2  0  0  0  0  0  0
  189.7600  173.7620  140.7290 O   0  0  0  0  0  0  0  0  0  0  0  0
  188.4800  174.2060  141.1070 C   0  0  1  0  0  3  0  0  0  0  0  0
  1 20  1  1  0  0  0
  1  8  1  0  0  0  0
  1  6  1  0  0  0  0
  3  2  1  6  0  0  0
  3 11  1  0  0  0  0
  3 15  1  0  0  0  0
  4 31  1  6  0  0  0
  4 10  1  0  0  0  0
  4 13  1  0  0  0  0
  6  9  1  0  0  0  0
  7  5  1  1  0  0  0
  8  7  1  0  0  0  0
 10  2  1  0  0  0  0
 11 29  1  1  0  0  0
 12 13  1  6  0  0  0
 12  7  1  0  0  0  0
 12  9  1  0  0  0  0
 12 11  1  0  0  0  0
 14 16  1  0  0  0  0
 15 18  1  1  0  0  0
 15 14  1  0  0  0  0
 15 16  1  0  0  0  0
 17 18  1  0  0  0  0
 20 19  1  1  0  0  0
 21 25  1  0  0  0  0
 21 22  1  0  0  0  0
 22 20  1  6  0  0  0
 22 23  1  0  0  0  0
 24 25  1  1  0  0  0
 24 23  1  0  0  0  0
 24 27  1  0  0  0  0
 26 28  1  0  0  0  0
 27 26  1  6  0  0  0
 27 28  1  0  0  0  0
 29 30  2  0  0  0  0
 32 33  1  0  0  0  0
 32 34  1  0  0  0  0
 33 34  1  0  0  0  0
 34 31  1  6  0  0  0
M  END
>  <MODEL>
9

>  <REMARK>
 VINA RESULT:      -7.0      2.787      7.840
  Name = 
  8 active torsions:
  status: ('A' for Active; 'I' for Inactive)
    1  A    between atoms: C_2  and  C_27
    2  A    between atoms: C_5  and  C_12
    3  A    between atoms: C_7  and  C_27
    4  A    between atoms: C_8  and  C_23
    5  A    between atoms: C_12  and  C_29
    6  A    between atoms: C_15  and  C_22
    7  A    between atoms: C_20  and  C_30
    8  A    between atoms: C_23  and  C_34
                            x       y       z     vdW  Elec       q    Type
                         _______ _______ _______ _____ _____    ______ ____

>  <TORSDO>
F 8

$$$$
