=
 OpenBabel11072409173D

 39 42  0  0  1  0  0  0  0  0999 V2000
  188.1180  175.5530  141.2720 C   0  0  0  0  0  0  0  0  0  0  0  0
  189.8750  172.4470  139.1430 N   0  0  0  0  0  0  0  0  0  0  0  0
  189.6640  173.6530  141.3570 C   0  0  0  0  0  0  0  0  0  0  0  0
  189.0130  174.7310  141.9900 C   0  0  0  0  0  3  0  0  0  0  0  0
  188.4960  174.2640  139.3390 C   0  0  0  0  0  0  0  0  0  0  0  0
  189.2720  172.6300  137.8230 C   0  0  0  0  0  3  0  0  0  0  0  0
  189.3720  173.4550  139.9960 C   0  0  2  0  0  3  0  0  0  0  0  0
  188.3330  173.8500  137.9280 C   0  0  0  0  0  3  0  0  0  0  0  0
  187.8680  175.2960  139.9570 N   0  0  0  0  0  0  0  0  0  0  0  0
  191.1900  171.6820  144.2180 N   0  0  0  0  0  1  0  0  0  0  0  0
  190.2150  172.0850  143.2600 C   0  0  0  0  0  0  0  0  0  0  0  0
  190.6080  172.8250  142.0840 N   0  0  0  0  0  0  0  0  0  0  0  0
  189.0110  171.7680  143.4480 O   0  0  0  0  0  0  0  0  0  0  0  0
  192.0300  172.8890  141.7390 C   0  0  0  0  0  2  0  0  0  0  0  0
  192.5330  174.8160  143.2710 C   0  0  0  0  0  2  0  0  0  0  0  0
  194.0810  174.2780  141.8940 C   0  0  0  0  0  2  0  0  0  0  0  0
  192.5670  174.3150  141.8390 C   0  0  1  0  0  3  0  0  0  0  0  0
  194.0500  174.7730  143.3270 C   0  0  1  0  0  3  0  0  0  0  0  0
  194.5830  176.1250  143.3850 N   0  0  0  0  0  2  0  0  0  0  0  0
  195.5870  176.1530  144.4390 C   0  0  2  0  0  3  0  0  0  0  0  0
  196.7530  175.5440  143.9780 O   0  0  0  0  0  1  0  0  0  0  0  0
  195.0830  175.4050  145.6640 C   0  0  0  0  0  2  0  0  0  0  0  0
  194.1520  176.2560  146.4590 C   0  0  0  0  0  0  0  0  0  0  0  0
  193.0310  175.8060  146.8160 O   0  0  0  0  0  0  0  0  0  0  0  0
  194.5340  177.5380  146.8330 O   0  0  0  0  0  1  0  0  0  0  0  0
  187.3830  176.6650  141.9480 C   0  0  2  0  0  3  0  0  0  0  0  0
  186.4050  177.2740  141.0560 N   0  0  0  0  0  1  0  0  0  0  0  0
  189.0240  178.3740  141.6770 O   0  0  0  0  0  0  0  0  0  0  0  0
  188.3350  177.6950  142.4830 C   0  0  0  0  0  0  0  0  0  0  0  0
  188.5620  177.8550  143.8590 O   0  0  0  0  0  0  0  0  0  0  0  0
  187.1150  176.5810  147.0240 C   0  0  0  0  0  3  0  0  0  0  0  0
  185.4770  177.9980  145.9520 C   0  0  0  0  0  0  0  0  0  0  0  0
  183.8930  178.7470  145.9390 Cl  0  0  0  0  0  0  0  0  0  0  0  0
  188.0150  176.8030  145.9670 C   0  0  0  0  0  0  0  0  0  0  0  0
  185.8520  177.1750  147.0160 C   0  0  0  0  0  3  0  0  0  0  0  0
  186.3670  178.2260  144.9010 C   0  0  0  0  0  3  0  0  0  0  0  0
  187.6380  177.6290  144.8940 C   0  0  0  0  0  0  0  0  0  0  0  0
  189.2830  176.2110  145.9620 O   0  0  0  0  0  0  0  0  0  0  0  0
  189.4840  174.8280  145.7010 C   0  0  0  0  0  1  0  0  0  0  0  0
  1 26  1  0  0  0  0
  1  4  1  0  0  0  0
  3  4  2  0  0  0  0
  3 12  1  0  0  0  0
  5  9  1  0  0  0  0
  5  7  1  0  0  0  0
  6  8  1  0  0  0  0
  6  2  2  0  0  0  0
  7  2  1  1  0  0  0
  7  3  1  0  0  0  0
  8  5  2  0  0  0  0
  9  1  2  0  0  0  0
 11 13  2  0  0  0  0
 11 10  1  0  0  0  0
 12 11  1  0  0  0  0
 14 12  1  0  0  0  0
 15 18  1  0  0  0  0
 16 18  1  0  0  0  0
 17 14  1  1  0  0  0
 17 16  1  0  0  0  0
 17 15  1  0  0  0  0
 18 19  1  6  0  0  0
 19 20  1  0  0  0  0
 20 21  1  6  0  0  0
 20 22  1  0  0  0  0
 22 23  1  0  0  0  0
 23 24  2  0  0  0  0
 23 25  1  0  0  0  0
 26 27  1  6  0  0  0
 26 29  1  0  0  0  0
 28 29  2  0  0  0  0
 29 30  1  0  0  0  0
 30 37  1  0  0  0  0
 32 35  2  0  0  0  0
 33 32  1  0  0  0  0
 34 31  2  0  0  0  0
 35 31  1  0  0  0  0
 36 32  1  0  0  0  0
 37 36  2  0  0  0  0
 37 34  1  0  0  0  0
 38 34  1  0  0  0  0
 39 38  1  0  0  0  0
M  END
>  <MODEL>
1

>  <REMARK>
 VINA RESULT:      -7.1      0.000      0.000
  Name = 
  12 active torsions:
  status: ('A' for Active; 'I' for Inactive)
    1  A    between atoms: C_2  and  C_11
    2  A    between atoms: O_5  and  C_19
    3  A    between atoms: O_8  and  C_30
    4  A    between atoms: O_8  and  C_36
    5  A    between atoms: C_11  and  C_36
    6  A    between atoms: C_13  and  N_27
    7  A    between atoms: C_14  and  C_38
    8  A    between atoms: C_17  and  C_33
    9  A    between atoms: C_20  and  N_26
   10  A    between atoms: C_20  and  C_38
   11  A    between atoms: N_26  and  C_31
   12  A    between atoms: N_27  and  C_33
                            x       y       z     vdW  Elec       q    Type
                         _______ _______ _______ _____ _____    ______ ____

>  <TORSDO>
F 12

$$$$
=
 OpenBabel11072409173D

 39 42  0  0  1  0  0  0  0  0999 V2000
  187.8820  175.6790  140.9490 C   0  0  0  0  0  0  0  0  0  0  0  0
  189.8040  172.5360  139.0290 N   0  0  0  0  0  0  0  0  0  0  0  0
  189.4150  173.7830  141.1960 C   0  0  0  0  0  0  0  0  0  0  0  0
  188.7150  174.8730  141.7530 C   0  0  0  0  0  3  0  0  0  0  0  0
  188.4140  174.3550  139.0780 C   0  0  0  0  0  0  0  0  0  0  0  0
  189.3090  172.6930  137.6610 C   0  0  0  0  0  3  0  0  0  0  0  0
  189.2340  173.5590  139.8190 C   0  0  2  0  0  3  0  0  0  0  0  0
  188.3650  173.9130  137.6660 C   0  0  0  0  0  3  0  0  0  0  0  0
  187.7380  175.3970  139.6230 N   0  0  0  0  0  0  0  0  0  0  0  0
  190.6650  171.7950  144.1750 N   0  0  0  0  0  1  0  0  0  0  0  0
  189.7950  172.1880  143.1170 C   0  0  0  0  0  0  0  0  0  0  0  0
  190.2960  172.9700  142.0120 N   0  0  0  0  0  0  0  0  0  0  0  0
  188.5900  171.8240  143.1540 O   0  0  0  0  0  0  0  0  0  0  0  0
  191.7460  173.0920  141.8400 C   0  0  0  0  0  2  0  0  0  0  0  0
  192.3970  174.8270  143.5360 C   0  0  0  0  0  2  0  0  0  0  0  0
  193.7190  174.5980  141.8690 C   0  0  0  0  0  2  0  0  0  0  0  0
  192.2170  174.5280  142.0600 C   0  0  1  0  0  3  0  0  0  0  0  0
  193.9020  174.8910  143.3450 C   0  0  1  0  0  3  0  0  0  0  0  0
  194.3660  176.2590  143.5140 N   0  0  0  0  0  2  0  0  0  0  0  0
  195.5050  176.2240  144.4210 C   0  0  2  0  0  3  0  0  0  0  0  0
  196.5410  175.5060  143.8280 O   0  0  0  0  0  1  0  0  0  0  0  0
  195.1140  175.5520  145.7290 C   0  0  0  0  0  2  0  0  0  0  0  0
  194.1940  176.4210  146.5170 C   0  0  0  0  0  0  0  0  0  0  0  0
  194.5580  177.5750  146.8660 O   0  0  0  0  0  1  0  0  0  0  0  0
  192.9210  175.9690  146.8400 O   0  0  0  0  0  0  0  0  0  0  0  0
  187.0940  176.8040  141.5420 C   0  0  2  0  0  3  0  0  0  0  0  0
  186.2710  177.4630  140.5370 N   0  0  0  0  0  1  0  0  0  0  0  0
  189.0950  178.0920  141.6980 O   0  0  0  0  0  0  0  0  0  0  0  0
  187.9940  177.7890  142.2300 C   0  0  0  0  0  0  0  0  0  0  0  0
  187.6980  178.3070  143.5000 O   0  0  0  0  0  0  0  0  0  0  0  0
  186.2730  176.9930  146.6580 C   0  0  0  0  0  3  0  0  0  0  0  0
  188.4290  175.9600  146.3070 C   0  0  0  0  0  0  0  0  0  0  0  0
  189.6870  174.8560  146.8260 Cl  0  0  0  0  0  0  0  0  0  0  0  0
  186.4190  177.7290  145.4690 C   0  0  0  0  0  0  0  0  0  0  0  0
  187.2730  176.1130  147.0750 C   0  0  0  0  0  3  0  0  0  0  0  0
  188.5800  176.6850  145.1230 C   0  0  0  0  0  3  0  0  0  0  0  0
  187.5830  177.5780  144.6970 C   0  0  0  0  0  0  0  0  0  0  0  0
  185.4250  178.6160  145.0420 O   0  0  0  0  0  0  0  0  0  0  0  0
  184.2780  178.9200  145.8270 C   0  0  0  0  0  1  0  0  0  0  0  0
  1 26  1  0  0  0  0
  1  4  1  0  0  0  0
  3  4  2  0  0  0  0
  3 12  1  0  0  0  0
  5  9  1  0  0  0  0
  5  7  1  0  0  0  0
  6  8  1  0  0  0  0
  6  2  2  0  0  0  0
  7  2  1  1  0  0  0
  7  3  1  0  0  0  0
  8  5  2  0  0  0  0
  9  1  2  0  0  0  0
 11 13  2  0  0  0  0
 11 10  1  0  0  0  0
 12 11  1  0  0  0  0
 14 12  1  0  0  0  0
 16 17  1  0  0  0  0
 16 18  1  0  0  0  0
 17 14  1  1  0  0  0
 17 15  1  0  0  0  0
 18 19  1  6  0  0  0
 18 15  1  0  0  0  0
 19 20  1  0  0  0  0
 20 21  1  6  0  0  0
 20 22  1  0  0  0  0
 22 23  1  0  0  0  0
 23 25  2  0  0  0  0
 23 24  1  0  0  0  0
 26 27  1  6  0  0  0
 26 29  1  0  0  0  0
 28 29  2  0  0  0  0
 29 30  1  0  0  0  0
 30 37  1  0  0  0  0
 31 35  1  0  0  0  0
 32 33  1  0  0  0  0
 32 35  2  0  0  0  0
 34 31  2  0  0  0  0
 36 32  1  0  0  0  0
 37 36  2  0  0  0  0
 37 34  1  0  0  0  0
 38 34  1  0  0  0  0
 38 39  1  0  0  0  0
M  END
>  <MODEL>
2

>  <REMARK>
 VINA RESULT:      -6.8      1.371      2.014
  Name = 
  12 active torsions:
  status: ('A' for Active; 'I' for Inactive)
    1  A    between atoms: C_2  and  C_11
    2  A    between atoms: O_5  and  C_19
    3  A    between atoms: O_8  and  C_30
    4  A    between atoms: O_8  and  C_36
    5  A    between atoms: C_11  and  C_36
    6  A    between atoms: C_13  and  N_27
    7  A    between atoms: C_14  and  C_38
    8  A    between atoms: C_17  and  C_33
    9  A    between atoms: C_20  and  N_26
   10  A    between atoms: C_20  and  C_38
   11  A    between atoms: N_26  and  C_31
   12  A    between atoms: N_27  and  C_33
                            x       y       z     vdW  Elec       q    Type
                         _______ _______ _______ _____ _____    ______ ____

>  <TORSDO>
F 12

$$$$
=
 OpenBabel11072409173D

 39 42  0  0  1  0  0  0  0  0999 V2000
  188.1510  176.8570  146.3580 C   0  0  0  0  0  0  0  0  0  0  0  0
  184.8590  178.0730  144.1350 N   0  0  0  0  0  0  0  0  0  0  0  0
  187.1060  176.9100  144.1420 C   0  0  0  0  0  0  0  0  0  0  0  0
  188.1730  176.5380  144.9840 C   0  0  0  0  0  3  0  0  0  0  0  0
  186.0530  177.8870  146.0800 C   0  0  0  0  0  0  0  0  0  0  0  0
  184.0410  178.7150  145.1650 C   0  0  0  0  0  3  0  0  0  0  0  0
  186.0420  177.6050  144.7470 C   0  0  0  0  0  0  0  0  0  0  0  0
  184.8240  178.6010  146.4900 C   0  0  0  0  0  3  0  0  0  0  0  0
  187.0820  177.5190  146.8840 N   0  0  0  0  0  2  0  0  0  0  0  0
  186.6440  177.3730  140.4050 N   0  0  0  0  0  1  0  0  0  0  0  0
  187.0850  177.6580  141.7300 C   0  0  0  0  0  0  0  0  0  0  0  0
  187.1390  176.6120  142.7230 N   0  0  0  0  0  0  0  0  0  0  0  0
  187.4460  178.8310  142.0110 O   0  0  0  0  0  0  0  0  0  0  0  0
  187.0280  175.2190  142.2820 C   0  0  0  0  0  2  0  0  0  0  0  0
  188.3740  173.1140  142.0270 C   0  0  0  0  0  2  0  0  0  0  0  0
  188.5410  174.5370  140.4370 C   0  0  0  0  0  2  0  0  0  0  0  0
  188.3950  174.6290  141.9420 C   0  0  1  0  0  3  0  0  0  0  0  0
  188.5160  173.0230  140.5180 C   0  0  1  0  0  3  0  0  0  0  0  0
  189.8270  172.4960  140.1730 N   0  0  0  0  0  2  0  0  0  0  0  0
  189.6210  171.3630  139.2820 C   0  0  2  0  0  3  0  0  0  0  0  0
  190.6580  170.4490  139.4540 O   0  0  0  0  0  1  0  0  0  0  0  0
  189.6020  171.8310  137.8330 C   0  0  0  0  0  2  0  0  0  0  0  0
  190.7250  172.7760  137.5680 C   0  0  0  0  0  0  0  0  0  0  0  0
  191.9020  172.3430  137.4520 O   0  0  0  0  0  1  0  0  0  0  0  0
  190.4680  174.1320  137.4180 O   0  0  0  0  0  0  0  0  0  0  0  0
  189.2540  176.4200  147.2690 C   0  0  2  0  0  3  0  0  0  0  0  0
  190.2730  177.4530  147.4020 N   0  0  0  0  0  1  0  0  0  0  0  0
  189.2350  174.0500  147.0020 O   0  0  0  0  0  0  0  0  0  0  0  0
  189.8580  175.1270  146.8030 C   0  0  0  0  0  0  0  0  0  0  0  0
  191.1440  175.0640  146.2450 O   0  0  0  0  0  0  0  0  0  0  0  0
  192.0920  175.4550  142.6830 C   0  0  0  0  0  3  0  0  0  0  0  0
  191.8950  173.0950  143.1660 C   0  0  0  0  0  0  0  0  0  0  0  0
  191.9890  171.4250  142.6440 Cl  0  0  0  0  0  0  0  0  0  0  0  0
  191.7430  175.7660  144.0090 C   0  0  0  0  0  0  0  0  0  0  0  0
  192.1670  174.1250  142.2640 C   0  0  0  0  0  3  0  0  0  0  0  0
  191.5530  173.3960  144.4850 C   0  0  0  0  0  3  0  0  0  0  0  0
  191.4670  174.7300  144.9180 C   0  0  0  0  0  0  0  0  0  0  0  0
  191.6620  177.0950  144.4410 O   0  0  0  0  0  0  0  0  0  0  0  0
  191.1930  178.1470  143.6080 C   0  0  0  0  0  1  0  0  0  0  0  0
  1  9  1  0  0  0  0
  1 26  1  0  0  0  0
  2  7  1  0  0  0  0
  2  6  2  0  0  0  0
  3  7  2  0  0  0  0
  3  4  1  0  0  0  0
  4  1  2  0  0  0  0
  5  8  2  0  0  0  0
  5  9  1  0  0  0  0
  6  8  1  0  0  0  0
  7  5  1  0  0  0  0
 10 11  1  0  0  0  0
 11 13  2  0  0  0  0
 11 12  1  0  0  0  0
 12  3  1  0  0  0  0
 14 12  1  0  0  0  0
 16 18  1  0  0  0  0
 16 17  1  0  0  0  0
 17 15  1  0  0  0  0
 17 14  1  6  0  0  0
 18 19  1  1  0  0  0
 18 15  1  0  0  0  0
 20 21  1  6  0  0  0
 20 19  1  0  0  0  0
 22 20  1  0  0  0  0
 23 22  1  0  0  0  0
 24 23  1  0  0  0  0
 25 23  2  0  0  0  0
 26 27  1  6  0  0  0
 29 28  2  0  0  0  0
 29 26  1  0  0  0  0
 30 29  1  0  0  0  0
 31 34  1  0  0  0  0
 32 36  2  0  0  0  0
 33 32  1  0  0  0  0
 34 38  1  0  0  0  0
 34 37  2  0  0  0  0
 35 31  2  0  0  0  0
 35 32  1  0  0  0  0
 36 37  1  0  0  0  0
 37 30  1  0  0  0  0
 39 38  1  0  0  0  0
M  END
>  <MODEL>
3

>  <REMARK>
 VINA RESULT:      -6.5      3.184      7.407
  Name = 
  12 active torsions:
  status: ('A' for Active; 'I' for Inactive)
    1  A    between atoms: C_2  and  C_11
    2  A    between atoms: O_5  and  C_19
    3  A    between atoms: O_8  and  C_30
    4  A    between atoms: O_8  and  C_36
    5  A    between atoms: C_11  and  C_36
    6  A    between atoms: C_13  and  N_27
    7  A    between atoms: C_14  and  C_38
    8  A    between atoms: C_17  and  C_33
    9  A    between atoms: C_20  and  N_26
   10  A    between atoms: C_20  and  C_38
   11  A    between atoms: N_26  and  C_31
   12  A    between atoms: N_27  and  C_33
                            x       y       z     vdW  Elec       q    Type
                         _______ _______ _______ _____ _____    ______ ____

>  <TORSDO>
F 12

$$$$
=
 OpenBabel11072409173D

 39 42  0  0  1  0  0  0  0  0999 V2000
  193.6390  176.0460  143.2500 C   0  0  0  0  0  0  0  0  0  0  0  0
  190.5710  175.9650  146.0510 N   0  0  0  0  0  0  0  0  0  0  0  0
  191.2420  175.7030  143.6250 C   0  0  0  0  0  0  0  0  0  0  0  0
  192.3510  175.7500  142.7570 C   0  0  0  0  0  3  0  0  0  0  0  0
  192.7560  176.2370  145.4230 C   0  0  0  0  0  0  0  0  0  0  0  0
  191.3010  176.2700  147.2820 C   0  0  0  0  0  3  0  0  0  0  0  0
  191.4960  175.9650  144.9840 C   0  0  0  0  0  0  0  0  0  0  0  0
  192.7810  176.4560  146.8870 C   0  0  0  0  0  3  0  0  0  0  0  0
  193.8200  176.2750  144.5820 N   0  0  0  0  0  2  0  0  0  0  0  0
  188.2750  173.7320  142.3180 N   0  0  0  0  0  1  0  0  0  0  0  0
  189.3240  174.1140  143.2040 C   0  0  0  0  0  0  0  0  0  0  0  0
  189.9110  175.4300  143.1170 N   0  0  0  0  0  0  0  0  0  0  0  0
  189.7140  173.2920  144.0750 O   0  0  0  0  0  0  0  0  0  0  0  0
  189.2220  176.4540  142.3270 C   0  0  0  0  0  2  0  0  0  0  0  0
  187.4720  178.2450  142.5290 C   0  0  0  0  0  2  0  0  0  0  0  0
  187.6610  176.9180  144.1990 C   0  0  0  0  0  2  0  0  0  0  0  0
  188.6300  177.5440  143.2160 C   0  0  1  0  0  3  0  0  0  0  0  0
  186.5010  177.6130  143.5110 C   0  0  1  0  0  3  0  0  0  0  0  0
  185.9530  178.6310  144.3930 N   0  0  0  0  0  2  0  0  0  0  0  0
  184.5740  178.2640  144.6790 C   0  0  2  0  0  3  0  0  0  0  0  0
  183.7260  178.9540  143.8150 O   0  0  0  0  0  1  0  0  0  0  0  0
  184.2230  178.6220  146.1160 C   0  0  0  0  0  2  0  0  0  0  0  0
  185.3220  178.2290  147.0440 C   0  0  0  0  0  0  0  0  0  0  0  0
  185.6120  177.0140  147.2030 O   0  0  0  0  0  0  0  0  0  0  0  0
  186.0470  179.2070  147.7110 O   0  0  0  0  0  1  0  0  0  0  0  0
  194.8300  176.0450  142.3450 C   0  0  2  0  0  3  0  0  0  0  0  0
  194.4750  175.6070  141.0020 N   0  0  0  0  0  1  0  0  0  0  0  0
  196.8950  175.7670  143.5040 O   0  0  0  0  0  0  0  0  0  0  0  0
  195.9370  175.2040  142.9100 C   0  0  0  0  0  0  0  0  0  0  0  0
  195.9960  173.8170  142.7080 O   0  0  0  0  0  0  0  0  0  0  0  0
  194.9800  171.3840  145.3130 C   0  0  0  0  0  3  0  0  0  0  0  0
  193.2870  171.4070  143.5880 C   0  0  0  0  0  0  0  0  0  0  0  0
  191.7640  170.8250  142.9480 Cl  0  0  0  0  0  0  0  0  0  0  0  0
  195.7250  172.3460  144.6090 C   0  0  0  0  0  0  0  0  0  0  0  0
  193.7660  170.9170  144.8040 C   0  0  0  0  0  3  0  0  0  0  0  0
  194.0190  172.3660  142.8860 C   0  0  0  0  0  3  0  0  0  0  0  0
  195.2450  172.8380  143.3830 C   0  0  0  0  0  0  0  0  0  0  0  0
  196.9450  172.8200  145.1060 O   0  0  0  0  0  0  0  0  0  0  0  0
  197.0460  173.5550  146.3190 C   0  0  0  0  0  1  0  0  0  0  0  0
  1  9  1  0  0  0  0
  2  6  2  0  0  0  0
  3  7  2  0  0  0  0
  4  1  2  0  0  0  0
  4  3  1  0  0  0  0
  5  8  2  0  0  0  0
  7  5  1  0  0  0  0
  7  2  1  0  0  0  0
  8  6  1  0  0  0  0
  9  5  1  0  0  0  0
 10 11  1  0  0  0  0
 11 13  2  0  0  0  0
 12 11  1  0  0  0  0
 12  3  1  0  0  0  0
 14 12  1  0  0  0  0
 15 17  1  0  0  0  0
 15 18  1  0  0  0  0
 17 14  1  6  0  0  0
 17 16  1  0  0  0  0
 18 16  1  0  0  0  0
 18 19  1  1  0  0  0
 19 20  1  0  0  0  0
 20 21  1  6  0  0  0
 20 22  1  0  0  0  0
 22 23  1  0  0  0  0
 23 24  2  0  0  0  0
 23 25  1  0  0  0  0
 26 27  1  6  0  0  0
 26 29  1  0  0  0  0
 26  1  1  0  0  0  0
 29 28  2  0  0  0  0
 30 29  1  0  0  0  0
 30 37  1  0  0  0  0
 32 35  2  0  0  0  0
 33 32  1  0  0  0  0
 34 38  1  0  0  0  0
 34 31  2  0  0  0  0
 35 31  1  0  0  0  0
 36 37  2  0  0  0  0
 36 32  1  0  0  0  0
 37 34  1  0  0  0  0
 38 39  1  0  0  0  0
M  END
>  <MODEL>
4

>  <REMARK>
 VINA RESULT:      -6.5      3.417      8.200
  Name = 
  12 active torsions:
  status: ('A' for Active; 'I' for Inactive)
    1  A    between atoms: C_2  and  C_11
    2  A    between atoms: O_5  and  C_19
    3  A    between atoms: O_8  and  C_30
    4  A    between atoms: O_8  and  C_36
    5  A    between atoms: C_11  and  C_36
    6  A    between atoms: C_13  and  N_27
    7  A    between atoms: C_14  and  C_38
    8  A    between atoms: C_17  and  C_33
    9  A    between atoms: C_20  and  N_26
   10  A    between atoms: C_20  and  C_38
   11  A    between atoms: N_26  and  C_31
   12  A    between atoms: N_27  and  C_33
                            x       y       z     vdW  Elec       q    Type
                         _______ _______ _______ _____ _____    ______ ____

>  <TORSDO>
F 12

$$$$
=
 OpenBabel11072409173D

 39 42  0  0  1  0  0  0  0  0999 V2000
  187.6770  175.8990  140.9460 C   0  0  0  0  0  0  0  0  0  0  0  0
  190.0300  172.5360  140.2990 N   0  0  0  0  0  0  0  0  0  0  0  0
  189.1730  174.2430  141.9590 C   0  0  0  0  0  0  0  0  0  0  0  0
  188.3470  175.3790  142.0740 C   0  0  0  0  0  3  0  0  0  0  0  0
  188.6150  174.2010  139.6140 C   0  0  0  0  0  0  0  0  0  0  0  0
  189.8230  172.3150  138.8680 C   0  0  0  0  0  3  0  0  0  0  0  0
  189.2850  173.6750  140.6770 C   0  0  2  0  0  3  0  0  0  0  0  0
  188.8690  173.4250  138.3790 C   0  0  0  0  0  3  0  0  0  0  0  0
  187.8170  175.2910  139.7340 N   0  0  0  0  0  0  0  0  0  0  0  0
  189.8330  172.2890  145.1440 N   0  0  0  0  0  1  0  0  0  0  0  0
  189.4550  172.5260  143.7900 C   0  0  0  0  0  0  0  0  0  0  0  0
  189.8880  173.7240  143.1100 N   0  0  0  0  0  0  0  0  0  0  0  0
  188.7570  171.6640  143.1940 O   0  0  0  0  0  0  0  0  0  0  0  0
  190.9510  174.5290  143.7160 C   0  0  0  0  0  2  0  0  0  0  0  0
  193.2700  175.4300  143.3700 C   0  0  0  0  0  2  0  0  0  0  0  0
  193.1190  173.3210  143.7070 C   0  0  0  0  0  2  0  0  0  0  0  0
  192.2770  174.3510  142.9800 C   0  0  1  0  0  3  0  0  0  0  0  0
  194.1100  174.3980  144.1030 C   0  0  1  0  0  3  0  0  0  0  0  0
  195.3640  174.1860  143.3970 N   0  0  0  0  0  2  0  0  0  0  0  0
  196.4220  174.1310  144.3960 C   0  0  2  0  0  3  0  0  0  0  0  0
  195.9850  174.7540  145.5630 O   0  0  0  0  0  1  0  0  0  0  0  0
  197.6650  174.8450  143.8840 C   0  0  0  0  0  2  0  0  0  0  0  0
  197.2940  175.9710  142.9790 C   0  0  0  0  0  0  0  0  0  0  0  0
  197.3910  175.8370  141.7310 O   0  0  0  0  0  0  0  0  0  0  0  0
  196.8140  177.1590  143.5120 O   0  0  0  0  0  1  0  0  0  0  0  0
  186.7570  177.0720  141.0690 C   0  0  2  0  0  3  0  0  0  0  0  0
  186.3200  177.5420  139.7620 N   0  0  0  0  0  1  0  0  0  0  0  0
  188.5690  178.5420  141.5630 O   0  0  0  0  0  0  0  0  0  0  0  0
  187.3980  178.1800  141.8530 C   0  0  0  0  0  0  0  0  0  0  0  0
  186.7750  178.7590  142.9690 O   0  0  0  0  0  0  0  0  0  0  0  0
  184.8170  177.5010  145.8540 C   0  0  0  0  0  3  0  0  0  0  0  0
  187.1120  176.7930  146.1220 C   0  0  0  0  0  0  0  0  0  0  0  0
  188.3420  175.9450  147.0370 Cl  0  0  0  0  0  0  0  0  0  0  0  0
  185.1470  178.1520  144.6520 C   0  0  0  0  0  0  0  0  0  0  0  0
  185.7950  176.8260  146.5860 C   0  0  0  0  0  3  0  0  0  0  0  0
  187.4460  177.4320  144.9270 C   0  0  0  0  0  3  0  0  0  0  0  0
  186.4720  178.1220  144.1860 C   0  0  0  0  0  0  0  0  0  0  0  0
  184.1760  178.8340  143.9110 O   0  0  0  0  0  0  0  0  0  0  0  0
  183.5950  178.2990  142.7280 C   0  0  0  0  0  1  0  0  0  0  0  0
  1 26  1  0  0  0  0
  1  4  1  0  0  0  0
  2  7  1  0  0  0  0
  3  4  2  0  0  0  0
  3 12  1  0  0  0  0
  5  9  1  0  0  0  0
  6  2  2  0  0  0  0
  7  5  1  1  0  0  0
  7  3  1  0  0  0  0
  8  6  1  0  0  0  0
  8  5  2  0  0  0  0
  9  1  2  0  0  0  0
 11 10  1  0  0  0  0
 12 14  1  0  0  0  0
 12 11  1  0  0  0  0
 13 11  2  0  0  0  0
 15 18  1  0  0  0  0
 16 18  1  0  0  0  0
 17 15  1  0  0  0  0
 17 16  1  0  0  0  0
 17 14  1  1  0  0  0
 18 19  1  6  0  0  0
 19 20  1  0  0  0  0
 20 21  1  1  0  0  0
 22 20  1  0  0  0  0
 23 25  1  0  0  0  0
 23 22  1  0  0  0  0
 24 23  2  0  0  0  0
 26 27  1  6  0  0  0
 26 29  1  0  0  0  0
 28 29  2  0  0  0  0
 29 30  1  0  0  0  0
 30 37  1  0  0  0  0
 31 35  1  0  0  0  0
 32 35  2  0  0  0  0
 32 33  1  0  0  0  0
 34 31  2  0  0  0  0
 36 32  1  0  0  0  0
 37 34  1  0  0  0  0
 37 36  2  0  0  0  0
 38 34  1  0  0  0  0
 39 38  1  0  0  0  0
M  END
>  <MODEL>
5

>  <REMARK>
 VINA RESULT:      -6.5      1.896      2.747
  Name = 
  12 active torsions:
  status: ('A' for Active; 'I' for Inactive)
    1  A    between atoms: C_2  and  C_11
    2  A    between atoms: O_5  and  C_19
    3  A    between atoms: O_8  and  C_30
    4  A    between atoms: O_8  and  C_36
    5  A    between atoms: C_11  and  C_36
    6  A    between atoms: C_13  and  N_27
    7  A    between atoms: C_14  and  C_38
    8  A    between atoms: C_17  and  C_33
    9  A    between atoms: C_20  and  N_26
   10  A    between atoms: C_20  and  C_38
   11  A    between atoms: N_26  and  C_31
   12  A    between atoms: N_27  and  C_33
                            x       y       z     vdW  Elec       q    Type
                         _______ _______ _______ _____ _____    ______ ____

>  <TORSDO>
F 12

$$$$
=
 OpenBabel11072409173D

 39 42  0  0  1  0  0  0  0  0999 V2000
  190.7950  172.5440  143.2080 C   0  0  0  0  0  0  0  0  0  0  0  0
  194.0930  172.6410  145.7330 N   0  0  0  0  0  0  0  0  0  0  0  0
  192.0520  173.8520  144.8560 C   0  0  0  0  0  0  0  0  0  0  0  0
  190.9630  173.7180  143.9720 C   0  0  0  0  0  3  0  0  0  0  0  0
  192.7420  171.6440  144.1760 C   0  0  0  0  0  0  0  0  0  0  0  0
  194.6860  171.3270  145.4780 C   0  0  0  0  0  2  0  0  0  0  0  0
  192.9420  172.7650  144.9240 C   0  0  0  0  0  0  0  0  0  0  0  0
  193.7910  170.6310  144.4310 C   0  0  0  0  0  3  0  0  0  0  0  0
  191.6870  171.5200  143.3330 N   0  0  0  0  0  0  0  0  0  0  0  0
  193.8490  176.7010  146.6030 N   0  0  0  0  0  1  0  0  0  0  0  0
  193.4750  175.8220  145.5450 C   0  0  0  0  0  0  0  0  0  0  0  0
  192.2450  175.0690  145.6200 N   0  0  0  0  0  0  0  0  0  0  0  0
  194.2240  175.7310  144.5370 O   0  0  0  0  0  0  0  0  0  0  0  0
  191.2560  175.4420  146.6350 C   0  0  0  0  0  2  0  0  0  0  0  0
  188.8910  175.9870  145.9870 C   0  0  0  0  0  2  0  0  0  0  0  0
  189.8610  177.3890  147.2820 C   0  0  0  0  0  2  0  0  0  0  0  0
  190.3050  176.5210  146.1220 C   0  0  1  0  0  3  0  0  0  0  0  0
  188.4480  176.8540  147.1530 C   0  0  1  0  0  3  0  0  0  0  0  0
  187.5690  177.9120  146.6790 N   0  0  0  0  0  2  0  0  0  0  0  0
  186.5220  178.0870  147.6740 C   0  0  2  0  0  3  0  0  0  0  0  0
  185.9370  176.8520  147.9470 O   0  0  0  0  0  1  0  0  0  0  0  0
  185.4560  179.0400  147.1530 C   0  0  0  0  0  2  0  0  0  0  0  0
  185.2120  178.8180  145.6990 C   0  0  0  0  0  0  0  0  0  0  0  0
  184.6670  177.7540  145.3040 O   0  0  0  0  0  1  0  0  0  0  0  0
  185.5600  179.7990  144.7800 O   0  0  0  0  0  0  0  0  0  0  0  0
  189.6130  172.3720  142.3080 C   0  0  2  0  0  3  0  0  0  0  0  0
  189.9420  171.5500  141.1510 N   0  0  0  0  0  1  0  0  0  0  0  0
  189.1860  174.0640  140.6820 O   0  0  0  0  0  0  0  0  0  0  0  0
  189.0620  173.7020  141.8820 C   0  0  0  0  0  0  0  0  0  0  0  0
  188.5030  174.6050  142.8000 O   0  0  0  0  0  0  0  0  0  0  0  0
  188.5940  178.2390  142.0800 C   0  0  0  0  0  3  0  0  0  0  0  0
  186.2870  177.5190  142.0840 C   0  0  0  0  0  0  0  0  0  0  0  0
  184.5820  177.8830  141.9020 Cl  0  0  0  0  0  0  0  0  0  0  0  0
  189.0140  176.9300  142.3750 C   0  0  0  0  0  0  0  0  0  0  0  0
  187.2360  178.5320  141.9350 C   0  0  0  0  0  3  0  0  0  0  0  0
  186.6960  176.2170  142.3730 C   0  0  0  0  0  3  0  0  0  0  0  0
  188.0590  175.9100  142.5280 C   0  0  0  0  0  0  0  0  0  0  0  0
  190.3710  176.6240  142.5250 O   0  0  0  0  0  0  0  0  0  0  0  0
  191.3120  177.5470  143.0590 C   0  0  0  0  0  1  0  0  0  0  0  0
  1  9  2  0  0  0  0
  1  4  1  0  0  0  0
  3  7  1  0  0  0  0
  3 12  1  0  0  0  0
  4  3  2  0  0  0  0
  5  8  2  0  0  0  0
  5  7  1  0  0  0  0
  6  2  1  0  0  0  0
  7  2  2  0  0  0  0
  8  6  1  0  0  0  0
  9  5  1  0  0  0  0
 11 12  1  0  0  0  0
 11 10  1  0  0  0  0
 12 14  1  0  0  0  0
 13 11  2  0  0  0  0
 15 17  1  0  0  0  0
 15 18  1  0  0  0  0
 17 14  1  1  0  0  0
 17 16  1  0  0  0  0
 18 19  1  6  0  0  0
 18 16  1  0  0  0  0
 19 20  1  0  0  0  0
 20 21  1  6  0  0  0
 22 20  1  0  0  0  0
 23 22  1  0  0  0  0
 24 23  1  0  0  0  0
 25 23  2  0  0  0  0
 26 27  1  6  0  0  0
 26  1  1  0  0  0  0
 28 29  2  0  0  0  0
 29 26  1  0  0  0  0
 29 30  1  0  0  0  0
 31 34  1  0  0  0  0
 32 36  2  0  0  0  0
 33 32  1  0  0  0  0
 34 38  1  0  0  0  0
 34 37  2  0  0  0  0
 35 31  2  0  0  0  0
 35 32  1  0  0  0  0
 36 37  1  0  0  0  0
 37 30  1  0  0  0  0
 38 39  1  0  0  0  0
M  END
>  <MODEL>
6

>  <REMARK>
 VINA RESULT:      -6.4      2.614      6.514
  Name = 
  12 active torsions:
  status: ('A' for Active; 'I' for Inactive)
    1  A    between atoms: C_2  and  C_11
    2  A    between atoms: O_5  and  C_19
    3  A    between atoms: O_8  and  C_30
    4  A    between atoms: O_8  and  C_36
    5  A    between atoms: C_11  and  C_36
    6  A    between atoms: C_13  and  N_27
    7  A    between atoms: C_14  and  C_38
    8  A    between atoms: C_17  and  C_33
    9  A    between atoms: C_20  and  N_26
   10  A    between atoms: C_20  and  C_38
   11  A    between atoms: N_26  and  C_31
   12  A    between atoms: N_27  and  C_33
                            x       y       z     vdW  Elec       q    Type
                         _______ _______ _______ _____ _____    ______ ____

>  <TORSDO>
F 12

$$$$
=
 OpenBabel11072409173D

 39 42  0  0  1  0  0  0  0  0999 V2000
  188.9050  176.0310  142.6630 C   0  0  0  0  0  0  0  0  0  0  0  0
  190.1070  172.5770  144.6350 N   0  0  0  0  0  0  0  0  0  0  0  0
  189.9720  175.1040  144.6650 C   0  0  0  0  0  0  0  0  0  0  0  0
  189.5250  176.2120  143.9180 C   0  0  0  0  0  3  0  0  0  0  0  0
  189.1570  173.7020  142.8800 C   0  0  0  0  0  0  0  0  0  0  0  0
  189.6810  171.5460  143.6880 C   0  0  0  0  0  3  0  0  0  0  0  0
  189.7680  173.8360  144.0910 C   0  0  2  0  0  3  0  0  0  0  0  0
  189.0340  172.2780  142.4940 C   0  0  0  0  0  3  0  0  0  0  0  0
  188.7240  174.7730  142.1710 N   0  0  0  0  0  0  0  0  0  0  0  0
  190.7320  176.5210  148.1010 N   0  0  0  0  0  1  0  0  0  0  0  0
  189.9730  175.9220  147.0540 C   0  0  0  0  0  0  0  0  0  0  0  0
  190.6370  175.2870  145.9410 N   0  0  0  0  0  0  0  0  0  0  0  0
  188.7160  175.9390  147.1290 O   0  0  0  0  0  0  0  0  0  0  0  0
  192.0700  175.0020  146.0490 C   0  0  0  0  0  2  0  0  0  0  0  0
  194.2560  176.1870  145.6880 C   0  0  0  0  0  2  0  0  0  0  0  0
  193.5410  175.0070  144.0500 C   0  0  0  0  0  2  0  0  0  0  0  0
  192.8890  175.8790  145.1040 C   0  0  1  0  0  3  0  0  0  0  0  0
  194.9080  175.3090  144.6340 C   0  0  1  0  0  3  0  0  0  0  0  0
  195.6630  176.1300  143.7010 N   0  0  0  0  0  2  0  0  0  0  0  0
  197.0020  175.5660  143.6100 C   0  0  2  0  0  3  0  0  0  0  0  0
  197.6410  176.0820  142.4840 O   0  0  0  0  0  1  0  0  0  0  0  0
  196.9270  174.0510  143.4910 C   0  0  0  0  0  2  0  0  0  0  0  0
  196.8430  173.6350  142.0610 C   0  0  0  0  0  0  0  0  0  0  0  0
  197.7660  172.9500  141.5470 O   0  0  0  0  0  1  0  0  0  0  0  0
  195.7320  173.9780  141.3040 O   0  0  0  0  0  0  0  0  0  0  0  0
  188.3800  177.1970  141.8880 C   0  0  2  0  0  3  0  0  0  0  0  0
  188.5100  178.4370  142.6420 N   0  0  0  0  0  1  0  0  0  0  0  0
  186.6070  177.2620  140.2950 O   0  0  0  0  0  0  0  0  0  0  0  0
  186.9560  176.9700  141.4690 C   0  0  0  0  0  0  0  0  0  0  0  0
  185.9740  176.5400  142.3740 O   0  0  0  0  0  0  0  0  0  0  0  0
  184.0420  178.9790  144.3880 C   0  0  0  0  0  3  0  0  0  0  0  0
  185.3900  177.6480  145.8890 C   0  0  0  0  0  0  0  0  0  0  0  0
  185.9150  177.2540  147.5130 Cl  0  0  0  0  0  0  0  0  0  0  0  0
  184.5540  178.2730  143.2850 C   0  0  0  0  0  0  0  0  0  0  0  0
  184.4590  178.6680  145.6830 C   0  0  0  0  0  3  0  0  0  0  0  0
  185.8990  176.9400  144.7990 C   0  0  0  0  0  3  0  0  0  0  0  0
  185.4930  177.2480  143.4890 C   0  0  0  0  0  0  0  0  0  0  0  0
  184.1460  178.5770  141.9810 O   0  0  0  0  0  0  0  0  0  0  0  0
  182.8690  178.2140  141.4710 C   0  0  0  0  0  1  0  0  0  0  0  0
  1  4  1  0  0  0  0
  3 12  1  0  0  0  0
  4  3  2  0  0  0  0
  6  2  2  0  0  0  0
  7  5  1  1  0  0  0
  7  2  1  0  0  0  0
  7  3  1  0  0  0  0
  8  5  2  0  0  0  0
  8  6  1  0  0  0  0
  9  1  2  0  0  0  0
  9  5  1  0  0  0  0
 11 13  2  0  0  0  0
 11 10  1  0  0  0  0
 12 14  1  0  0  0  0
 12 11  1  0  0  0  0
 16 18  1  0  0  0  0
 16 17  1  0  0  0  0
 17 15  1  0  0  0  0
 17 14  1  1  0  0  0
 18 19  1  6  0  0  0
 18 15  1  0  0  0  0
 20 21  1  6  0  0  0
 20 19  1  0  0  0  0
 22 20  1  0  0  0  0
 23 22  1  0  0  0  0
 24 23  1  0  0  0  0
 25 23  2  0  0  0  0
 26 27  1  1  0  0  0
 26  1  1  0  0  0  0
 28 29  2  0  0  0  0
 29 26  1  0  0  0  0
 29 30  1  0  0  0  0
 30 37  1  0  0  0  0
 31 35  1  0  0  0  0
 32 33  1  0  0  0  0
 34 37  1  0  0  0  0
 34 31  2  0  0  0  0
 35 32  2  0  0  0  0
 36 32  1  0  0  0  0
 37 36  2  0  0  0  0
 38 34  1  0  0  0  0
 39 38  1  0  0  0  0
M  END
>  <MODEL>
7

>  <REMARK>
 VINA RESULT:      -6.4      2.666      4.230
  Name = 
  12 active torsions:
  status: ('A' for Active; 'I' for Inactive)
    1  A    between atoms: C_2  and  C_11
    2  A    between atoms: O_5  and  C_19
    3  A    between atoms: O_8  and  C_30
    4  A    between atoms: O_8  and  C_36
    5  A    between atoms: C_11  and  C_36
    6  A    between atoms: C_13  and  N_27
    7  A    between atoms: C_14  and  C_38
    8  A    between atoms: C_17  and  C_33
    9  A    between atoms: C_20  and  N_26
   10  A    between atoms: C_20  and  C_38
   11  A    between atoms: N_26  and  C_31
   12  A    between atoms: N_27  and  C_33
                            x       y       z     vdW  Elec       q    Type
                         _______ _______ _______ _____ _____    ______ ____

>  <TORSDO>
F 12

$$$$
=
 OpenBabel11072409173D

 39 42  0  0  1  0  0  0  0  0999 V2000
  193.1850  175.3170  144.6710 C   0  0  0  0  0  0  0  0  0  0  0  0
  189.3220  174.6960  146.0710 N   0  0  0  0  0  0  0  0  0  0  0  0
  190.8870  174.6980  144.0830 C   0  0  0  0  0  0  0  0  0  0  0  0
  192.2270  174.9290  143.7100 C   0  0  0  0  0  3  0  0  0  0  0  0
  191.5290  175.2420  146.3420 C   0  0  0  0  0  0  0  0  0  0  0  0
  189.4880  174.9760  147.4970 C   0  0  0  0  0  3  0  0  0  0  0  0
  190.5740  174.8760  145.4430 C   0  0  0  0  0  0  0  0  0  0  0  0
  190.9710  175.3450  147.7090 C   0  0  0  0  0  3  0  0  0  0  0  0
  192.8180  175.4570  145.9770 N   0  0  0  0  0  2  0  0  0  0  0  0
  188.8960  172.5340  141.6860 N   0  0  0  0  0  1  0  0  0  0  0  0
  189.4740  172.9590  142.9170 C   0  0  0  0  0  0  0  0  0  0  0  0
  189.8930  174.3290  143.0930 N   0  0  0  0  0  0  0  0  0  0  0  0
  189.5920  172.1250  143.8530 O   0  0  0  0  0  0  0  0  0  0  0  0
  189.4470  175.3290  142.1190 C   0  0  0  0  0  2  0  0  0  0  0  0
  188.1210  177.4400  141.8060 C   0  0  0  0  0  2  0  0  0  0  0  0
  187.4800  176.1510  143.3900 C   0  0  0  0  0  2  0  0  0  0  0  0
  188.8230  176.5420  142.8070 C   0  0  1  0  0  3  0  0  0  0  0  0
  186.7750  177.0440  142.3870 C   0  0  1  0  0  3  0  0  0  0  0  0
  186.1810  178.1760  143.0800 N   0  0  0  0  0  2  0  0  0  0  0  0
  184.7710  177.8730  143.2790 C   0  0  2  0  0  3  0  0  0  0  0  0
  184.0750  178.1270  142.0990 O   0  0  0  0  0  1  0  0  0  0  0  0
  184.2000  178.7410  144.3920 C   0  0  0  0  0  2  0  0  0  0  0  0
  184.8530  178.4280  145.6950 C   0  0  0  0  0  0  0  0  0  0  0  0
  185.5000  179.3180  146.3080 O   0  0  0  0  0  1  0  0  0  0  0  0
  184.7230  177.1620  146.2490 O   0  0  0  0  0  0  0  0  0  0  0  0
  194.6180  175.5120  144.2950 C   0  0  2  0  0  3  0  0  0  0  0  0
  194.7770  175.6270  142.8510 N   0  0  0  0  0  1  0  0  0  0  0  0
  196.1180  174.6020  145.9100 O   0  0  0  0  0  0  0  0  0  0  0  0
  195.4760  174.4100  144.8440 C   0  0  0  0  0  0  0  0  0  0  0  0
  195.6710  173.2040  144.1530 O   0  0  0  0  0  0  0  0  0  0  0  0
  193.4460  170.2930  143.5910 C   0  0  0  0  0  3  0  0  0  0  0  0
  194.5450  170.0130  145.7260 C   0  0  0  0  0  0  0  0  0  0  0  0
  194.8200  169.0770  147.1810 Cl  0  0  0  0  0  0  0  0  0  0  0  0
  194.1120  171.5160  143.3970 C   0  0  0  0  0  0  0  0  0  0  0  0
  193.6620  169.5460  144.7510 C   0  0  0  0  0  3  0  0  0  0  0  0
  195.2130  171.2250  145.5370 C   0  0  0  0  0  3  0  0  0  0  0  0
  194.9990  171.9900  144.3790 C   0  0  0  0  0  0  0  0  0  0  0  0
  193.9020  172.2760  142.2410 O   0  0  0  0  0  0  0  0  0  0  0  0
  192.7760  172.0910  141.3930 C   0  0  0  0  0  1  0  0  0  0  0  0
  1  9  1  0  0  0  0
  2  6  2  0  0  0  0
  3  7  2  0  0  0  0
  4  3  1  0  0  0  0
  4  1  2  0  0  0  0
  5  8  2  0  0  0  0
  6  8  1  0  0  0  0
  7  2  1  0  0  0  0
  7  5  1  0  0  0  0
  9  5  1  0  0  0  0
 10 11  1  0  0  0  0
 11 12  1  0  0  0  0
 11 13  2  0  0  0  0
 12  3  1  0  0  0  0
 14 12  1  0  0  0  0
 15 18  1  0  0  0  0
 15 17  1  0  0  0  0
 17 14  1  6  0  0  0
 17 16  1  0  0  0  0
 18 19  1  1  0  0  0
 18 16  1  0  0  0  0
 19 20  1  0  0  0  0
 20 21  1  6  0  0  0
 20 22  1  0  0  0  0
 22 23  1  0  0  0  0
 23 25  2  0  0  0  0
 23 24  1  0  0  0  0
 26 27  1  6  0  0  0
 26  1  1  0  0  0  0
 26 29  1  0  0  0  0
 29 28  2  0  0  0  0
 30 37  1  0  0  0  0
 30 29  1  0  0  0  0
 31 35  1  0  0  0  0
 32 33  1  0  0  0  0
 34 31  2  0  0  0  0
 34 37  1  0  0  0  0
 35 32  2  0  0  0  0
 36 32  1  0  0  0  0
 37 36  2  0  0  0  0
 38 34  1  0  0  0  0
 39 38  1  0  0  0  0
M  END
>  <MODEL>
8

>  <REMARK>
 VINA RESULT:      -6.4      3.549      8.354
  Name = 
  12 active torsions:
  status: ('A' for Active; 'I' for Inactive)
    1  A    between atoms: C_2  and  C_11
    2  A    between atoms: O_5  and  C_19
    3  A    between atoms: O_8  and  C_30
    4  A    between atoms: O_8  and  C_36
    5  A    between atoms: C_11  and  C_36
    6  A    between atoms: C_13  and  N_27
    7  A    between atoms: C_14  and  C_38
    8  A    between atoms: C_17  and  C_33
    9  A    between atoms: C_20  and  N_26
   10  A    between atoms: C_20  and  C_38
   11  A    between atoms: N_26  and  C_31
   12  A    between atoms: N_27  and  C_33
                            x       y       z     vdW  Elec       q    Type
                         _______ _______ _______ _____ _____    ______ ____

>  <TORSDO>
F 12

$$$$
=
 OpenBabel11072409173D

 39 42  0  0  1  0  0  0  0  0999 V2000
  192.8090  174.2830  142.2040 C   0  0  0  0  0  0  0  0  0  0  0  0
  190.8010  170.9890  140.6590 N   0  0  0  0  0  0  0  0  0  0  0  0
  190.7830  173.4840  141.0790 C   0  0  0  0  0  0  0  0  0  0  0  0
  191.5460  174.5350  141.6270 C   0  0  0  0  0  3  0  0  0  0  0  0
  192.5750  171.9960  141.7010 C   0  0  0  0  0  0  0  0  0  0  0  0
  191.7590  169.9180  140.9340 C   0  0  0  0  0  3  0  0  0  0  0  0
  191.3480  172.1980  141.1440 C   0  0  0  0  0  0  0  0  0  0  0  0
  192.9680  170.5700  141.6350 C   0  0  0  0  0  3  0  0  0  0  0  0
  193.3060  173.0130  142.2200 N   0  0  0  0  0  2  0  0  0  0  0  0
  188.1410  174.5150  138.5590 N   0  0  0  0  0  1  0  0  0  0  0  0
  189.2670  173.8190  139.0870 C   0  0  0  0  0  0  0  0  0  0  0  0
  189.4710  173.7350  140.5130 N   0  0  0  0  0  0  0  0  0  0  0  0
  190.0660  173.2630  138.2880 O   0  0  0  0  0  0  0  0  0  0  0  0
  188.3660  174.1030  141.4020 C   0  0  0  0  0  2  0  0  0  0  0  0
  187.3080  176.3810  141.4520 C   0  0  0  0  0  2  0  0  0  0  0  0
  188.0220  175.6330  143.3260 C   0  0  0  0  0  2  0  0  0  0  0  0
  188.4960  175.5450  141.8890 C   0  0  1  0  0  3  0  0  0  0  0  0
  186.8310  176.4640  142.8910 C   0  0  1  0  0  3  0  0  0  0  0  0
  186.9810  177.8230  143.3870 N   0  0  0  0  0  2  0  0  0  0  0  0
  185.6580  178.2990  143.7650 C   0  0  2  0  0  3  0  0  0  0  0  0
  185.0490  178.8900  142.6590 O   0  0  0  0  0  1  0  0  0  0  0  0
  185.7680  179.3250  144.8830 C   0  0  0  0  0  2  0  0  0  0  0  0
  185.3310  178.7400  146.1830 C   0  0  0  0  0  0  0  0  0  0  0  0
  185.6220  179.3150  147.2650 O   0  0  0  0  0  1  0  0  0  0  0  0
  184.5780  177.5740  146.2010 O   0  0  0  0  0  0  0  0  0  0  0  0
  193.6480  175.3990  142.7400 C   0  0  2  0  0  3  0  0  0  0  0  0
  194.7840  175.6720  141.8700 N   0  0  0  0  0  1  0  0  0  0  0  0
  195.2450  175.4860  144.5080 O   0  0  0  0  0  0  0  0  0  0  0  0
  194.1010  175.1090  144.1410 C   0  0  0  0  0  0  0  0  0  0  0  0
  193.3330  174.3380  145.0270 O   0  0  0  0  0  0  0  0  0  0  0  0
  189.8930  174.5830  146.3840 C   0  0  0  0  0  3  0  0  0  0  0  0
  191.2820  176.1950  147.5300 C   0  0  0  0  0  0  0  0  0  0  0  0
  191.4680  177.4590  148.7290 Cl  0  0  0  0  0  0  0  0  0  0  0  0
  190.9910  174.1720  145.6090 C   0  0  0  0  0  0  0  0  0  0  0  0
  190.0380  175.5910  147.3400 C   0  0  0  0  0  3  0  0  0  0  0  0
  192.3780  175.7890  146.7670 C   0  0  0  0  0  3  0  0  0  0  0  0
  192.2430  174.7810  145.7970 C   0  0  0  0  0  0  0  0  0  0  0  0
  190.8580  173.1650  144.6460 O   0  0  0  0  0  0  0  0  0  0  0  0
  189.6980  172.3490  144.5430 C   0  0  0  0  0  1  0  0  0  0  0  0
  1  9  1  0  0  0  0
  1 26  1  0  0  0  0
  2  6  2  0  0  0  0
  2  7  1  0  0  0  0
  3  7  2  0  0  0  0
  3  4  1  0  0  0  0
  4  1  2  0  0  0  0
  5  9  1  0  0  0  0
  6  8  1  0  0  0  0
  7  5  1  0  0  0  0
  8  5  2  0  0  0  0
 10 11  1  0  0  0  0
 11 12  1  0  0  0  0
 12  3  1  0  0  0  0
 12 14  1  0  0  0  0
 13 11  2  0  0  0  0
 15 17  1  0  0  0  0
 15 18  1  0  0  0  0
 17 14  1  6  0  0  0
 17 16  1  0  0  0  0
 18 16  1  0  0  0  0
 18 19  1  1  0  0  0
 19 20  1  0  0  0  0
 20 21  1  6  0  0  0
 20 22  1  0  0  0  0
 22 23  1  0  0  0  0
 23 25  2  0  0  0  0
 23 24  1  0  0  0  0
 26 27  1  6  0  0  0
 26 29  1  0  0  0  0
 29 28  2  0  0  0  0
 29 30  1  0  0  0  0
 30 37  1  0  0  0  0
 31 35  1  0  0  0  0
 32 33  1  0  0  0  0
 34 37  1  0  0  0  0
 34 31  2  0  0  0  0
 35 32  2  0  0  0  0
 36 32  1  0  0  0  0
 37 36  2  0  0  0  0
 38 34  1  0  0  0  0
 39 38  1  0  0  0  0
M  END
>  <MODEL>
9

>  <REMARK>
 VINA RESULT:      -6.3      2.577      6.438
  Name = 
  12 active torsions:
  status: ('A' for Active; 'I' for Inactive)
    1  A    between atoms: C_2  and  C_11
    2  A    between atoms: O_5  and  C_19
    3  A    between atoms: O_8  and  C_30
    4  A    between atoms: O_8  and  C_36
    5  A    between atoms: C_11  and  C_36
    6  A    between atoms: C_13  and  N_27
    7  A    between atoms: C_14  and  C_38
    8  A    between atoms: C_17  and  C_33
    9  A    between atoms: C_20  and  N_26
   10  A    between atoms: C_20  and  C_38
   11  A    between atoms: N_26  and  C_31
   12  A    between atoms: N_27  and  C_33
                            x       y       z     vdW  Elec       q    Type
                         _______ _______ _______ _____ _____    ______ ____

>  <TORSDO>
F 12

$$$$
