=
 OpenBabel11062421273D

 31 36  0  0  1  0  0  0  0  0999 V2000
  189.1370  174.9490  147.2640 S   0  0  0  0  0  0  0  0  0  0  0  0
  192.6410  176.9720  144.2570 C   0  0  0  0  0  3  0  0  0  0  0  0
  191.5240  175.7960  146.5140 C   0  0  0  0  0  0  0  0  0  0  0  0
  190.7180  176.1290  145.4470 C   0  0  0  0  0  0  0  0  0  0  0  0
  193.4570  176.6440  145.3530 C   0  0  0  0  0  0  0  0  0  0  0  0
  189.2750  175.7940  145.6350 C   0  0  2  0  0  3  0  0  0  0  0  0
  190.8590  175.1810  147.5960 N   0  0  0  0  0  2  0  0  0  0  0  0
  192.8960  176.0430  146.4900 C   0  0  0  0  0  3  0  0  0  0  0  0
  191.2640  176.7140  144.3000 C   0  0  0  0  0  3  0  0  0  0  0  0
  194.9250  176.8980  145.2920 C   0  0  0  0  0  2  0  0  0  0  0  0
  196.1490  174.7980  144.5630 C   0  0  0  0  0  0  0  0  0  0  0  0
  195.5470  176.4600  142.9490 N   0  0  0  0  0  0  0  0  0  0  0  0
  196.7120  174.0220  143.5240 C   0  0  0  0  0  0  0  0  0  0  0  0
  196.6780  174.4900  142.2110 C   0  0  0  0  0  3  0  0  0  0  0  0
  195.5650  176.0390  144.2440 C   0  0  0  0  0  0  0  0  0  0  0  0
  197.3330  172.3170  145.1280 C   0  0  0  0  0  3  0  0  0  0  0  0
  196.1900  174.3160  145.8810 C   0  0  0  0  0  3  0  0  0  0  0  0
  196.7790  173.0790  146.1600 C   0  0  0  0  0  3  0  0  0  0  0  0
  197.2990  172.7880  143.8110 C   0  0  0  0  0  3  0  0  0  0  0  0
  196.0850  175.7230  141.9410 C   0  0  0  0  0  3  0  0  0  0  0  0
  188.4300  177.0620  145.6690 C   0  0  0  0  0  2  0  0  0  0  0  0
  187.3130  177.0430  144.6650 C   0  0  0  0  0  0  0  0  0  0  0  0
  186.0340  176.6920  142.7610 N   0  0  0  0  0  0  0  0  0  0  0  0
  185.4140  177.4730  143.5820 C   0  0  0  0  0  0  0  0  0  0  0  0
  186.1720  177.7030  144.7970 C   0  0  0  0  0  0  0  0  0  0  0  0
  187.3100  176.3110  143.3550 C   0  0  0  0  0  2  0  0  0  0  0  0
  185.6980  177.8560  147.2200 C   0  0  0  0  0  2  0  0  0  0  0  0
  184.4430  178.2580  146.4830 C   0  0  0  0  0  2  0  0  0  0  0  0
  185.8030  178.6290  145.9180 C   0  0  0  0  0  3  0  0  0  0  0  0
  183.6780  178.1910  141.9910 C   0  0  0  0  0  1  0  0  0  0  0  0
  184.1620  178.0320  143.3160 O   0  0  0  0  0  0  0  0  0  0  0  0
  1  7  1  0  0  0  0
  2  9  2  0  0  0  0
  2  5  1  0  0  0  0
  3  7  1  0  0  0  0
  4  6  1  0  0  0  0
  4  3  2  0  0  0  0
  5  8  2  0  0  0  0
  6 21  1  1  0  0  0
  6  1  1  0  0  0  0
  8  3  1  0  0  0  0
  9  4  1  0  0  0  0
 10  5  1  0  0  0  0
 11 17  1  0  0  0  0
 12 15  1  0  0  0  0
 13 19  1  0  0  0  0
 13 11  1  0  0  0  0
 14 13  2  0  0  0  0
 15 11  2  0  0  0  0
 15 10  1  0  0  0  0
 16 18  1  0  0  0  0
 17 18  2  0  0  0  0
 19 16  2  0  0  0  0
 20 14  1  0  0  0  0
 20 12  2  0  0  0  0
 22 25  2  0  0  0  0
 22 21  1  0  0  0  0
 23 26  1  0  0  0  0
 23 24  2  0  0  0  0
 24 25  1  0  0  0  0
 25 29  1  0  0  0  0
 26 22  1  0  0  0  0
 28 27  1  0  0  0  0
 29 28  1  0  0  0  0
 29 27  1  0  0  0  0
 30 31  1  0  0  0  0
 31 24  1  0  0  0  0
M  END
>  <MODEL>
1

>  <REMARK>
 VINA RESULT:      -8.3      0.000      0.000
  Name = 
  6 active torsions:
  status: ('A' for Active; 'I' for Inactive)
    1  A    between atoms: C_2  and  C_21
    2  A    between atoms: C_11  and  C_20
    3  A    between atoms: C_14  and  O_29
    4  A    between atoms: C_16  and  C_31
    5  A    between atoms: C_18  and  C_20
    6  A    between atoms: C_21  and  C_23
                            x       y       z     vdW  Elec       q    Type
                         _______ _______ _______ _____ _____    ______ ____

>  <TORSDO>
F 6

$$$$
=
 OpenBabel11062421273D

 31 36  0  0  1  0  0  0  0  0999 V2000
  188.9180  175.0870  147.2300 S   0  0  0  0  0  0  0  0  0  0  0  0
  192.6480  176.9380  144.3900 C   0  0  0  0  0  3  0  0  0  0  0  0
  191.3650  175.8590  146.6060 C   0  0  0  0  0  0  0  0  0  0  0  0
  190.6350  176.1740  145.4810 C   0  0  0  0  0  0  0  0  0  0  0  0
  193.3860  176.6290  145.5450 C   0  0  0  0  0  0  0  0  0  0  0  0
  189.1760  175.8750  145.5880 C   0  0  2  0  0  3  0  0  0  0  0  0
  190.6200  175.2940  147.6630 N   0  0  0  0  0  2  0  0  0  0  0  0
  192.7410  176.0780  146.6620 C   0  0  0  0  0  3  0  0  0  0  0  0
  191.2650  176.7100  144.3530 C   0  0  0  0  0  3  0  0  0  0  0  0
  194.8600  176.8510  145.5680 C   0  0  0  0  0  2  0  0  0  0  0  0
  196.1260  175.4910  143.8400 C   0  0  0  0  0  0  0  0  0  0  0  0
  195.7520  174.6020  146.0310 N   0  0  0  0  0  0  0  0  0  0  0  0
  196.8240  174.3100  143.5010 C   0  0  0  0  0  0  0  0  0  0  0  0
  196.9690  173.2930  144.4450 C   0  0  0  0  0  3  0  0  0  0  0  0
  195.5860  175.6140  145.1340 C   0  0  0  0  0  0  0  0  0  0  0  0
  197.2260  175.1790  141.2770 C   0  0  0  0  0  3  0  0  0  0  0  0
  195.9860  176.5060  142.8800 C   0  0  0  0  0  3  0  0  0  0  0  0
  196.5360  176.3500  141.6050 C   0  0  0  0  0  3  0  0  0  0  0  0
  197.3700  174.1600  142.2240 C   0  0  0  0  0  3  0  0  0  0  0  0
  196.4210  173.4610  145.7170 C   0  0  0  0  0  3  0  0  0  0  0  0
  188.3590  177.1610  145.5280 C   0  0  0  0  0  2  0  0  0  0  0  0
  187.2580  177.1030  144.5090 C   0  0  0  0  0  0  0  0  0  0  0  0
  186.0080  176.6820  142.6000 N   0  0  0  0  0  0  0  0  0  0  0  0
  185.3730  177.4880  143.3840 C   0  0  0  0  0  0  0  0  0  0  0  0
  186.1120  177.7620  144.6020 C   0  0  0  0  0  0  0  0  0  0  0  0
  187.2770  176.3270  143.2250 C   0  0  0  0  0  2  0  0  0  0  0  0
  185.6680  178.0090  147.0230 C   0  0  0  0  0  2  0  0  0  0  0  0
  184.3870  178.3280  146.2890 C   0  0  0  0  0  2  0  0  0  0  0  0
  185.7230  178.7240  145.6850 C   0  0  0  0  0  3  0  0  0  0  0  0
  183.6790  178.1900  141.7420 C   0  0  0  0  0  1  0  0  0  0  0  0
  184.1230  178.0320  143.0820 O   0  0  0  0  0  0  0  0  0  0  0  0
  1  7  1  0  0  0  0
  2  5  1  0  0  0  0
  3  8  1  0  0  0  0
  3  7  1  0  0  0  0
  4  6  1  0  0  0  0
  4  3  2  0  0  0  0
  5 10  1  0  0  0  0
  5  8  2  0  0  0  0
  6 21  1  1  0  0  0
  6  1  1  0  0  0  0
  9  2  2  0  0  0  0
  9  4  1  0  0  0  0
 11 15  1  0  0  0  0
 13 11  1  0  0  0  0
 13 14  1  0  0  0  0
 14 20  2  0  0  0  0
 15 10  1  0  0  0  0
 15 12  2  0  0  0  0
 16 18  2  0  0  0  0
 16 19  1  0  0  0  0
 17 11  2  0  0  0  0
 18 17  1  0  0  0  0
 19 13  2  0  0  0  0
 20 12  1  0  0  0  0
 22 25  2  0  0  0  0
 22 21  1  0  0  0  0
 23 26  1  0  0  0  0
 23 24  2  0  0  0  0
 24 25  1  0  0  0  0
 25 29  1  0  0  0  0
 26 22  1  0  0  0  0
 28 27  1  0  0  0  0
 29 28  1  0  0  0  0
 29 27  1  0  0  0  0
 30 31  1  0  0  0  0
 31 24  1  0  0  0  0
M  END
>  <MODEL>
2

>  <REMARK>
 VINA RESULT:      -8.2      0.831      1.924
  Name = 
  6 active torsions:
  status: ('A' for Active; 'I' for Inactive)
    1  A    between atoms: C_2  and  C_21
    2  A    between atoms: C_11  and  C_20
    3  A    between atoms: C_14  and  O_29
    4  A    between atoms: C_16  and  C_31
    5  A    between atoms: C_18  and  C_20
    6  A    between atoms: C_21  and  C_23
                            x       y       z     vdW  Elec       q    Type
                         _______ _______ _______ _____ _____    ______ ____

>  <TORSDO>
F 6

$$$$
=
 OpenBabel11062421273D

 31 36  0  0  1  0  0  0  0  0999 V2000
  188.5660  175.7340  146.8260 S   0  0  0  0  0  0  0  0  0  0  0  0
  190.8200  174.7350  142.4290 C   0  0  0  0  0  3  0  0  0  0  0  0
  190.4580  174.9080  145.1790 C   0  0  0  0  0  0  0  0  0  0  0  0
  189.4890  175.3990  144.3310 C   0  0  0  0  0  0  0  0  0  0  0  0
  191.8110  174.2490  143.2980 C   0  0  0  0  0  0  0  0  0  0  0  0
  188.3020  175.9840  145.0230 C   0  0  2  0  0  3  0  0  0  0  0  0
  190.1620  175.0220  146.5540 N   0  0  0  0  0  2  0  0  0  0  0  0
  191.6270  174.3290  144.6870 C   0  0  0  0  0  3  0  0  0  0  0  0
  189.6510  175.3140  142.9440 C   0  0  0  0  0  3  0  0  0  0  0  0
  193.0400  173.6130  142.7440 C   0  0  0  0  0  2  0  0  0  0  0  0
  195.1300  173.6950  144.1810 C   0  0  0  0  0  0  0  0  0  0  0  0
  194.5660  175.5460  142.7720 N   0  0  0  0  0  0  0  0  0  0  0  0
  196.2870  174.3910  144.5990 C   0  0  0  0  0  0  0  0  0  0  0  0
  196.5560  175.6610  144.0890 C   0  0  0  0  0  3  0  0  0  0  0  0
  194.2670  174.3070  143.2520 C   0  0  0  0  0  0  0  0  0  0  0  0
  196.8920  172.5350  146.0330 C   0  0  0  0  0  3  0  0  0  0  0  0
  194.8700  172.4180  144.7030 C   0  0  0  0  0  3  0  0  0  0  0  0
  195.7500  171.8410  145.6240 C   0  0  0  0  0  3  0  0  0  0  0  0
  197.1600  173.8090  145.5210 C   0  0  0  0  0  3  0  0  0  0  0  0
  195.6750  176.2260  143.1670 C   0  0  0  0  0  3  0  0  0  0  0  0
  188.2020  177.4780  144.7440 C   0  0  0  0  0  2  0  0  0  0  0  0
  187.0860  177.8200  143.7980 C   0  0  0  0  0  0  0  0  0  0  0  0
  185.8650  178.4780  141.9390 N   0  0  0  0  0  0  0  0  0  0  0  0
  185.0840  178.3130  142.9540 C   0  0  0  0  0  0  0  0  0  0  0  0
  185.8060  177.8810  144.1360 C   0  0  0  0  0  0  0  0  0  0  0  0
  187.2310  178.1700  142.3470 C   0  0  0  0  0  2  0  0  0  0  0  0
  184.0920  178.6600  145.7400 C   0  0  0  0  0  2  0  0  0  0  0  0
  185.4470  178.9400  146.3470 C   0  0  0  0  0  2  0  0  0  0  0  0
  185.2370  177.6900  145.5100 C   0  0  0  0  0  3  0  0  0  0  0  0
  182.9330  178.2290  141.7610 C   0  0  0  0  0  1  0  0  0  0  0  0
  183.7060  178.5360  142.9110 O   0  0  0  0  0  0  0  0  0  0  0  0
  2  9  2  0  0  0  0
  2  5  1  0  0  0  0
  3  7  1  0  0  0  0
  4  6  1  0  0  0  0
  4  3  2  0  0  0  0
  5  8  2  0  0  0  0
  6 21  1  1  0  0  0
  6  1  1  0  0  0  0
  7  1  1  0  0  0  0
  8  3  1  0  0  0  0
  9  4  1  0  0  0  0
 10 15  1  0  0  0  0
 10  5  1  0  0  0  0
 11 13  1  0  0  0  0
 11 17  1  0  0  0  0
 12 20  2  0  0  0  0
 12 15  1  0  0  0  0
 13 19  1  0  0  0  0
 14 13  2  0  0  0  0
 15 11  2  0  0  0  0
 17 18  2  0  0  0  0
 18 16  1  0  0  0  0
 19 16  2  0  0  0  0
 20 14  1  0  0  0  0
 22 25  2  0  0  0  0
 22 21  1  0  0  0  0
 23 26  1  0  0  0  0
 23 24  2  0  0  0  0
 24 25  1  0  0  0  0
 25 29  1  0  0  0  0
 26 22  1  0  0  0  0
 27 28  1  0  0  0  0
 29 27  1  0  0  0  0
 29 28  1  0  0  0  0
 30 31  1  0  0  0  0
 31 24  1  0  0  0  0
M  END
>  <MODEL>
3

>  <REMARK>
 VINA RESULT:      -7.8      1.671      2.012
  Name = 
  6 active torsions:
  status: ('A' for Active; 'I' for Inactive)
    1  A    between atoms: C_2  and  C_21
    2  A    between atoms: C_11  and  C_20
    3  A    between atoms: C_14  and  O_29
    4  A    between atoms: C_16  and  C_31
    5  A    between atoms: C_18  and  C_20
    6  A    between atoms: C_21  and  C_23
                            x       y       z     vdW  Elec       q    Type
                         _______ _______ _______ _____ _____    ______ ____

>  <TORSDO>
F 6

$$$$
=
 OpenBabel11062421273D

 31 36  0  0  1  0  0  0  0  0999 V2000
  189.6870  174.2100  141.4440 S   0  0  0  0  0  0  0  0  0  0  0  0
  191.9360  176.9710  145.0120 C   0  0  0  0  0  3  0  0  0  0  0  0
  191.4880  174.8570  143.2640 C   0  0  0  0  0  0  0  0  0  0  0  0
  190.5740  175.8850  143.3410 C   0  0  0  0  0  0  0  0  0  0  0  0
  192.8580  175.9130  144.9400 C   0  0  0  0  0  0  0  0  0  0  0  0
  189.4020  175.7380  142.4280 C   0  0  2  0  0  3  0  0  0  0  0  0
  191.1770  173.8490  142.3280 N   0  0  0  0  0  2  0  0  0  0  0  0
  192.6380  174.8490  144.0530 C   0  0  0  0  0  3  0  0  0  0  0  0
  190.7870  176.9610  144.2100 C   0  0  0  0  0  3  0  0  0  0  0  0
  194.0910  175.9420  145.7780 C   0  0  0  0  0  2  0  0  0  0  0  0
  196.0580  174.5780  144.9340 C   0  0  0  0  0  0  0  0  0  0  0  0
  195.6830  176.7900  144.1010 N   0  0  0  0  0  0  0  0  0  0  0  0
  197.1830  174.4700  144.0860 C   0  0  0  0  0  0  0  0  0  0  0  0
  197.5340  175.5370  143.2590 C   0  0  0  0  0  3  0  0  0  0  0  0
  195.3120  175.7720  144.9260 C   0  0  0  0  0  0  0  0  0  0  0  0
  197.5900  172.2270  144.9030 C   0  0  0  0  0  3  0  0  0  0  0  0
  195.7150  173.4980  145.7630 C   0  0  0  0  0  3  0  0  0  0  0  0
  196.4790  172.3270  145.7450 C   0  0  0  0  0  3  0  0  0  0  0  0
  197.9410  173.2970  144.0740 C   0  0  0  0  0  3  0  0  0  0  0  0
  196.7630  176.6990  143.2800 C   0  0  0  0  0  3  0  0  0  0  0  0
  188.1150  175.5720  143.2280 C   0  0  0  0  0  2  0  0  0  0  0  0
  187.3410  176.8530  143.3560 C   0  0  0  0  0  0  0  0  0  0  0  0
  186.4180  178.9460  142.9700 N   0  0  0  0  0  0  0  0  0  0  0  0
  186.1510  178.5510  144.1710 C   0  0  0  0  0  0  0  0  0  0  0  0
  186.6940  177.2350  144.4470 C   0  0  0  0  0  0  0  0  0  0  0  0
  187.1940  177.9090  142.3010 C   0  0  0  0  0  2  0  0  0  0  0  0
  186.9700  177.4770  146.8940 C   0  0  0  0  0  2  0  0  0  0  0  0
  188.0370  176.5240  146.4050 C   0  0  0  0  0  2  0  0  0  0  0  0
  186.6610  176.5130  145.7620 C   0  0  0  0  0  3  0  0  0  0  0  0
  184.0690  179.0410  145.3880 C   0  0  0  0  0  1  0  0  0  0  0  0
  185.4300  179.3150  145.0910 O   0  0  0  0  0  0  0  0  0  0  0  0
  1  7  1  0  0  0  0
  1  6  1  0  0  0  0
  3  4  2  0  0  0  0
  3  8  1  0  0  0  0
  4  9  1  0  0  0  0
  5  2  1  0  0  0  0
  5 10  1  0  0  0  0
  6 21  1  1  0  0  0
  6  4  1  0  0  0  0
  7  3  1  0  0  0  0
  8  5  2  0  0  0  0
  9  2  2  0  0  0  0
 11 17  1  0  0  0  0
 12 15  1  0  0  0  0
 13 11  1  0  0  0  0
 14 20  1  0  0  0  0
 14 13  2  0  0  0  0
 15 11  2  0  0  0  0
 15 10  1  0  0  0  0
 16 18  1  0  0  0  0
 18 17  2  0  0  0  0
 19 13  1  0  0  0  0
 19 16  2  0  0  0  0
 20 12  2  0  0  0  0
 21 22  1  0  0  0  0
 22 25  2  0  0  0  0
 23 24  2  0  0  0  0
 24 25  1  0  0  0  0
 24 31  1  0  0  0  0
 25 29  1  0  0  0  0
 26 23  1  0  0  0  0
 26 22  1  0  0  0  0
 28 27  1  0  0  0  0
 29 28  1  0  0  0  0
 29 27  1  0  0  0  0
 31 30  1  0  0  0  0
M  END
>  <MODEL>
4

>  <REMARK>
 VINA RESULT:      -7.7      2.006      2.393
  Name = 
  6 active torsions:
  status: ('A' for Active; 'I' for Inactive)
    1  A    between atoms: C_2  and  C_21
    2  A    between atoms: C_11  and  C_20
    3  A    between atoms: C_14  and  O_29
    4  A    between atoms: C_16  and  C_31
    5  A    between atoms: C_18  and  C_20
    6  A    between atoms: C_21  and  C_23
                            x       y       z     vdW  Elec       q    Type
                         _______ _______ _______ _____ _____    ______ ____

>  <TORSDO>
F 6

$$$$
=
 OpenBabel11062421273D

 31 36  0  0  1  0  0  0  0  0999 V2000
  189.9150  171.5640  142.6890 S   0  0  0  0  0  0  0  0  0  0  0  0
  190.7660  175.5610  145.6390 C   0  0  0  0  0  3  0  0  0  0  0  0
  189.6910  174.0400  143.5760 C   0  0  0  0  0  0  0  0  0  0  0  0
  190.6500  173.4930  144.4000 C   0  0  0  0  0  0  0  0  0  0  0  0
  189.7980  176.1200  144.7880 C   0  0  0  0  0  0  0  0  0  0  0  0
  191.0070  172.0790  144.0760 C   0  0  2  0  0  3  0  0  0  0  0  0
  189.1940  173.1750  142.5790 N   0  0  0  0  0  2  0  0  0  0  0  0
  189.2490  175.3520  143.7510 C   0  0  0  0  0  3  0  0  0  0  0  0
  191.1970  174.2410  145.4480 C   0  0  0  0  0  3  0  0  0  0  0  0
  189.3260  177.5160  145.0130 C   0  0  0  0  0  2  0  0  0  0  0  0
  186.8390  177.9170  144.7100 C   0  0  0  0  0  0  0  0  0  0  0  0
  187.6800  177.0980  146.7960 N   0  0  0  0  0  0  0  0  0  0  0  0
  185.5310  177.8720  145.2430 C   0  0  0  0  0  0  0  0  0  0  0  0
  185.3280  177.4380  146.5530 C   0  0  0  0  0  3  0  0  0  0  0  0
  187.9180  177.5210  145.5230 C   0  0  0  0  0  0  0  0  0  0  0  0
  184.6430  178.6950  143.1450 C   0  0  0  0  0  3  0  0  0  0  0  0
  187.0290  178.3570  143.3910 C   0  0  0  0  0  3  0  0  0  0  0  0
  185.9340  178.7420  142.6120 C   0  0  0  0  0  3  0  0  0  0  0  0
  184.4420  178.2600  144.4590 C   0  0  0  0  0  3  0  0  0  0  0  0
  186.4270  177.0510  147.3200 C   0  0  0  0  0  3  0  0  0  0  0  0
  192.4580  171.9840  143.6180 C   0  0  0  0  0  2  0  0  0  0  0  0
  193.2130  170.8830  144.3050 C   0  0  0  0  0  0  0  0  0  0  0  0
  193.9360  168.8110  145.0600 N   0  0  0  0  0  0  0  0  0  0  0  0
  194.5720  169.7580  145.6670 C   0  0  0  0  0  0  0  0  0  0  0  0
  194.1630  171.0720  145.2090 C   0  0  0  0  0  0  0  0  0  0  0  0
  193.0050  169.4100  144.1100 C   0  0  0  0  0  2  0  0  0  0  0  0
  195.1710  173.2600  144.6440 C   0  0  0  0  0  2  0  0  0  0  0  0
  196.1190  172.5490  145.5820 C   0  0  0  0  0  2  0  0  0  0  0  0
  194.6190  172.3910  145.7600 C   0  0  0  0  0  3  0  0  0  0  0  0
  195.3750  168.5170  147.6340 C   0  0  0  0  0  1  0  0  0  0  0  0
  195.5330  169.5310  146.6540 O   0  0  0  0  0  0  0  0  0  0  0  0
  1  6  1  0  0  0  0
  3  8  2  0  0  0  0
  3  4  1  0  0  0  0
  4  9  2  0  0  0  0
  5 10  1  0  0  0  0
  5  2  2  0  0  0  0
  6 21  1  6  0  0  0
  6  4  1  0  0  0  0
  7  1  1  0  0  0  0
  7  3  1  0  0  0  0
  8  5  1  0  0  0  0
  9  2  1  0  0  0  0
 10 15  1  0  0  0  0
 11 13  1  0  0  0  0
 11 15  1  0  0  0  0
 12 20  1  0  0  0  0
 13 14  1  0  0  0  0
 14 20  2  0  0  0  0
 15 12  2  0  0  0  0
 16 19  1  0  0  0  0
 17 11  2  0  0  0  0
 18 16  2  0  0  0  0
 18 17  1  0  0  0  0
 19 13  2  0  0  0  0
 21 22  1  0  0  0  0
 22 25  2  0  0  0  0
 23 24  2  0  0  0  0
 24 31  1  0  0  0  0
 25 24  1  0  0  0  0
 25 29  1  0  0  0  0
 26 22  1  0  0  0  0
 26 23  1  0  0  0  0
 27 28  1  0  0  0  0
 27 29  1  0  0  0  0
 28 29  1  0  0  0  0
 31 30  1  0  0  0  0
M  END
>  <MODEL>
5

>  <REMARK>
 VINA RESULT:      -7.6      4.126      9.808
  Name = 
  6 active torsions:
  status: ('A' for Active; 'I' for Inactive)
    1  A    between atoms: C_2  and  C_21
    2  A    between atoms: C_11  and  C_20
    3  A    between atoms: C_14  and  O_29
    4  A    between atoms: C_16  and  C_31
    5  A    between atoms: C_18  and  C_20
    6  A    between atoms: C_21  and  C_23
                            x       y       z     vdW  Elec       q    Type
                         _______ _______ _______ _____ _____    ______ ____

>  <TORSDO>
F 6

$$$$
=
 OpenBabel11062421273D

 31 36  0  0  1  0  0  0  0  0999 V2000
  193.5170  176.3940  146.5390 S   0  0  0  0  0  0  0  0  0  0  0  0
  190.0380  176.4700  142.8930 C   0  0  0  0  0  3  0  0  0  0  0  0
  191.1540  176.0700  145.4060 C   0  0  0  0  0  0  0  0  0  0  0  0
  191.9490  176.5000  144.3670 C   0  0  0  0  0  0  0  0  0  0  0  0
  189.2340  176.0170  143.9520 C   0  0  0  0  0  0  0  0  0  0  0  0
  193.3800  176.7180  144.7340 C   0  0  2  0  0  3  0  0  0  0  0  0
  191.8150  175.9230  146.6440 N   0  0  0  0  0  2  0  0  0  0  0  0
  189.7940  175.8220  145.2240 C   0  0  0  0  0  3  0  0  0  0  0  0
  191.4030  176.7140  143.0970 C   0  0  0  0  0  3  0  0  0  0  0  0
  187.7770  175.7830  143.7350 C   0  0  0  0  0  2  0  0  0  0  0  0
  186.4430  177.5100  145.0290 C   0  0  0  0  0  0  0  0  0  0  0  0
  186.9150  177.8480  142.7070 N   0  0  0  0  0  0  0  0  0  0  0  0
  185.7630  178.7500  145.0510 C   0  0  0  0  0  0  0  0  0  0  0  0
  185.6750  179.5140  143.8880 C   0  0  0  0  0  3  0  0  0  0  0  0
  187.0180  177.0720  143.8210 C   0  0  0  0  0  0  0  0  0  0  0  0
  185.2710  178.4440  147.4030 C   0  0  0  0  0  3  0  0  0  0  0  0
  186.5250  176.7500  146.2060 C   0  0  0  0  0  3  0  0  0  0  0  0
  185.9420  177.2170  147.3880 C   0  0  0  0  0  3  0  0  0  0  0  0
  185.1830  179.2090  146.2350 C   0  0  0  0  0  3  0  0  0  0  0  0
  186.2630  179.0420  142.7150 C   0  0  0  0  0  3  0  0  0  0  0  0
  194.2800  175.7390  143.9900 C   0  0  0  0  0  2  0  0  0  0  0  0
  194.0330  174.3100  144.3810 C   0  0  0  0  0  0  0  0  0  0  0  0
  193.0790  172.2180  144.6910 N   0  0  0  0  0  0  0  0  0  0  0  0
  194.1900  172.3060  145.3430 C   0  0  0  0  0  0  0  0  0  0  0  0
  194.8310  173.5950  145.1610 C   0  0  0  0  0  0  0  0  0  0  0  0
  192.8510  173.4750  143.9880 C   0  0  0  0  0  2  0  0  0  0  0  0
  197.1800  174.2950  144.8230 C   0  0  0  0  0  2  0  0  0  0  0  0
  197.1920  173.0580  145.6900 C   0  0  0  0  0  2  0  0  0  0  0  0
  196.0770  174.0780  145.8430 C   0  0  0  0  0  3  0  0  0  0  0  0
  194.9800  169.9900  145.6070 C   0  0  0  0  0  1  0  0  0  0  0  0
  194.7020  171.2780  146.1370 O   0  0  0  0  0  0  0  0  0  0  0  0
  1  7  1  0  0  0  0
  2  9  2  0  0  0  0
  2  5  1  0  0  0  0
  3  7  1  0  0  0  0
  4  6  1  0  0  0  0
  4  3  2  0  0  0  0
  5  8  2  0  0  0  0
  6 21  1  6  0  0  0
  6  1  1  0  0  0  0
  8  3  1  0  0  0  0
  9  4  1  0  0  0  0
 10 15  1  0  0  0  0
 10  5  1  0  0  0  0
 11 13  1  0  0  0  0
 11 17  1  0  0  0  0
 12 20  2  0  0  0  0
 12 15  1  0  0  0  0
 13 19  1  0  0  0  0
 14 13  2  0  0  0  0
 15 11  2  0  0  0  0
 17 18  2  0  0  0  0
 18 16  1  0  0  0  0
 19 16  2  0  0  0  0
 20 14  1  0  0  0  0
 21 22  1  0  0  0  0
 22 25  2  0  0  0  0
 23 24  2  0  0  0  0
 24 31  1  0  0  0  0
 25 24  1  0  0  0  0
 25 29  1  0  0  0  0
 26 22  1  0  0  0  0
 26 23  1  0  0  0  0
 27 28  1  0  0  0  0
 27 29  1  0  0  0  0
 28 29  1  0  0  0  0
 30 31  1  0  0  0  0
M  END
>  <MODEL>
6

>  <REMARK>
 VINA RESULT:      -7.6      3.009      9.259
  Name = 
  6 active torsions:
  status: ('A' for Active; 'I' for Inactive)
    1  A    between atoms: C_2  and  C_21
    2  A    between atoms: C_11  and  C_20
    3  A    between atoms: C_14  and  O_29
    4  A    between atoms: C_16  and  C_31
    5  A    between atoms: C_18  and  C_20
    6  A    between atoms: C_21  and  C_23
                            x       y       z     vdW  Elec       q    Type
                         _______ _______ _______ _____ _____    ______ ____

>  <TORSDO>
F 6

$$$$
=
 OpenBabel11062421273D

 31 36  0  0  1  0  0  0  0  0999 V2000
  189.5820  178.0720  143.2500 S   0  0  0  0  0  0  0  0  0  0  0  0
  192.2390  176.0300  147.0150 C   0  0  0  0  0  3  0  0  0  0  0  0
  191.6630  177.0060  144.4770 C   0  0  0  0  0  0  0  0  0  0  0  0
  190.6710  176.9590  145.4320 C   0  0  0  0  0  0  0  0  0  0  0  0
  193.2440  176.0660  146.0330 C   0  0  0  0  0  0  0  0  0  0  0  0
  189.3460  177.4700  144.9720 C   0  0  2  0  0  3  0  0  0  0  0  0
  191.2700  177.5420  143.2330 N   0  0  0  0  0  2  0  0  0  0  0  0
  192.9570  176.5650  144.7540 C   0  0  0  0  0  3  0  0  0  0  0  0
  190.9450  176.4780  146.7170 C   0  0  0  0  0  3  0  0  0  0  0  0
  194.6250  175.6110  146.3630 C   0  0  0  0  0  2  0  0  0  0  0  0
  195.0620  173.6220  144.8490 C   0  0  0  0  0  0  0  0  0  0  0  0
  196.0500  175.7470  144.3590 N   0  0  0  0  0  0  0  0  0  0  0  0
  195.6780  173.0920  143.6920 C   0  0  0  0  0  0  0  0  0  0  0  0
  196.4730  173.9100  142.8910 C   0  0  0  0  0  3  0  0  0  0  0  0
  195.2710  174.9770  145.1690 C   0  0  0  0  0  0  0  0  0  0  0  0
  194.6920  170.9280  144.1530 C   0  0  0  0  0  3  0  0  0  0  0  0
  194.2650  172.7870  145.6480 C   0  0  0  0  0  3  0  0  0  0  0  0
  194.0800  171.4460  145.2990 C   0  0  0  0  0  3  0  0  0  0  0  0
  195.4890  171.7510  143.3510 C   0  0  0  0  0  3  0  0  0  0  0  0
  196.6480  175.2480  143.2450 C   0  0  0  0  0  3  0  0  0  0  0  0
  188.3130  176.3500  144.9620 C   0  0  0  0  0  2  0  0  0  0  0  0
  187.1350  176.6530  144.0800 C   0  0  0  0  0  0  0  0  0  0  0  0
  185.6950  176.8340  142.2700 N   0  0  0  0  0  0  0  0  0  0  0  0
  185.2310  177.4910  143.2810 C   0  0  0  0  0  0  0  0  0  0  0  0
  186.0930  177.3880  144.4430 C   0  0  0  0  0  0  0  0  0  0  0  0
  186.9540  176.2090  142.6590 C   0  0  0  0  0  2  0  0  0  0  0  0
  185.8020  177.0910  146.8820 C   0  0  0  0  0  2  0  0  0  0  0  0
  184.5610  177.7710  146.3530 C   0  0  0  0  0  2  0  0  0  0  0  0
  185.9170  178.0990  145.7520 C   0  0  0  0  0  3  0  0  0  0  0  0
  183.2220  178.2630  142.0870 C   0  0  0  0  0  1  0  0  0  0  0  0
  184.0410  178.2200  143.2460 O   0  0  0  0  0  0  0  0  0  0  0  0
  1  6  1  0  0  0  0
  3  8  2  0  0  0  0
  3  4  1  0  0  0  0
  4  9  2  0  0  0  0
  5 10  1  0  0  0  0
  5  2  2  0  0  0  0
  6 21  1  6  0  0  0
  6  4  1  0  0  0  0
  7  1  1  0  0  0  0
  7  3  1  0  0  0  0
  8  5  1  0  0  0  0
  9  2  1  0  0  0  0
 11 15  2  0  0  0  0
 11 17  1  0  0  0  0
 12 15  1  0  0  0  0
 13 11  1  0  0  0  0
 14 20  1  0  0  0  0
 14 13  2  0  0  0  0
 15 10  1  0  0  0  0
 16 18  1  0  0  0  0
 18 17  2  0  0  0  0
 19 13  1  0  0  0  0
 19 16  2  0  0  0  0
 20 12  2  0  0  0  0
 22 25  2  0  0  0  0
 22 21  1  0  0  0  0
 23 26  1  0  0  0  0
 23 24  2  0  0  0  0
 24 25  1  0  0  0  0
 25 29  1  0  0  0  0
 26 22  1  0  0  0  0
 28 27  1  0  0  0  0
 29 28  1  0  0  0  0
 29 27  1  0  0  0  0
 30 31  1  0  0  0  0
 31 24  1  0  0  0  0
M  END
>  <MODEL>
7

>  <REMARK>
 VINA RESULT:      -7.5      1.793      2.050
  Name = 
  6 active torsions:
  status: ('A' for Active; 'I' for Inactive)
    1  A    between atoms: C_2  and  C_21
    2  A    between atoms: C_11  and  C_20
    3  A    between atoms: C_14  and  O_29
    4  A    between atoms: C_16  and  C_31
    5  A    between atoms: C_18  and  C_20
    6  A    between atoms: C_21  and  C_23
                            x       y       z     vdW  Elec       q    Type
                         _______ _______ _______ _____ _____    ______ ____

>  <TORSDO>
F 6

$$$$
=
 OpenBabel11062421273D

 31 36  0  0  1  0  0  0  0  0999 V2000
  192.1570  173.4820  140.5470 S   0  0  0  0  0  0  0  0  0  0  0  0
  188.9900  175.4780  143.9220 C   0  0  0  0  0  3  0  0  0  0  0  0
  189.8630  174.3190  141.5520 C   0  0  0  0  0  0  0  0  0  0  0  0
  190.7770  174.6470  142.5290 C   0  0  0  0  0  0  0  0  0  0  0  0
  188.0630  175.1560  142.9170 C   0  0  0  0  0  0  0  0  0  0  0  0
  192.1920  174.3160  142.1860 C   0  0  2  0  0  3  0  0  0  0  0  0
  190.4090  173.7130  140.4010 N   0  0  0  0  0  2  0  0  0  0  0  0
  188.5000  174.5640  141.7230 C   0  0  0  0  0  3  0  0  0  0  0  0
  190.3550  175.2240  143.7320 C   0  0  0  0  0  3  0  0  0  0  0  0
  186.6090  175.4060  143.1360 C   0  0  0  0  0  2  0  0  0  0  0  0
  186.0440  177.4060  144.5930 C   0  0  0  0  0  0  0  0  0  0  0  0
  186.4470  177.6990  142.2510 N   0  0  0  0  0  0  0  0  0  0  0  0
  185.8380  178.7990  144.7110 C   0  0  0  0  0  0  0  0  0  0  0  0
  185.9410  179.6150  143.5850 C   0  0  0  0  0  3  0  0  0  0  0  0
  186.3500  176.8690  143.3270 C   0  0  0  0  0  0  0  0  0  0  0  0
  185.4290  178.5420  147.0840 C   0  0  0  0  0  3  0  0  0  0  0  0
  185.9370  176.5950  145.7340 C   0  0  0  0  0  3  0  0  0  0  0  0
  185.6320  177.1630  146.9740 C   0  0  0  0  0  3  0  0  0  0  0  0
  185.5320  179.3590  145.9540 C   0  0  0  0  0  3  0  0  0  0  0  0
  186.2500  179.0410  142.3520 C   0  0  0  0  0  3  0  0  0  0  0  0
  193.0270  175.5860  142.0720 C   0  0  0  0  0  2  0  0  0  0  0  0
  194.4500  175.3870  142.5080 C   0  0  0  0  0  0  0  0  0  0  0  0
  196.7320  174.9670  142.5440 N   0  0  0  0  0  0  0  0  0  0  0  0
  196.2740  175.0690  143.7480 C   0  0  0  0  0  0  0  0  0  0  0  0
  194.8520  175.3530  143.7700 C   0  0  0  0  0  0  0  0  0  0  0  0
  195.6310  175.1710  141.6090 C   0  0  0  0  0  2  0  0  0  0  0  0
  193.3780  176.8290  145.1010 C   0  0  0  0  0  2  0  0  0  0  0  0
  194.5460  176.4400  145.9760 C   0  0  0  0  0  2  0  0  0  0  0  0
  193.9780  175.4390  144.9860 C   0  0  0  0  0  3  0  0  0  0  0  0
  197.5410  173.6430  145.3040 C   0  0  0  0  0  1  0  0  0  0  0  0
  197.0650  174.9150  144.8880 O   0  0  0  0  0  0  0  0  0  0  0  0
  1  6  1  0  0  0  0
  3  8  2  0  0  0  0
  3  4  1  0  0  0  0
  4  9  2  0  0  0  0
  5 10  1  0  0  0  0
  5  2  2  0  0  0  0
  6 21  1  6  0  0  0
  6  4  1  0  0  0  0
  7  1  1  0  0  0  0
  7  3  1  0  0  0  0
  8  5  1  0  0  0  0
  9  2  1  0  0  0  0
 10 15  1  0  0  0  0
 11 13  1  0  0  0  0
 11 17  1  0  0  0  0
 12 20  2  0  0  0  0
 12 15  1  0  0  0  0
 13 19  1  0  0  0  0
 14 13  2  0  0  0  0
 15 11  2  0  0  0  0
 17 18  2  0  0  0  0
 18 16  1  0  0  0  0
 19 16  2  0  0  0  0
 20 14  1  0  0  0  0
 21 22  1  0  0  0  0
 22 25  2  0  0  0  0
 23 24  2  0  0  0  0
 24 25  1  0  0  0  0
 24 31  1  0  0  0  0
 25 29  1  0  0  0  0
 26 22  1  0  0  0  0
 26 23  1  0  0  0  0
 27 28  1  0  0  0  0
 29 27  1  0  0  0  0
 29 28  1  0  0  0  0
 31 30  1  0  0  0  0
M  END
>  <MODEL>
8

>  <REMARK>
 VINA RESULT:      -7.5      3.391      9.484
  Name = 
  6 active torsions:
  status: ('A' for Active; 'I' for Inactive)
    1  A    between atoms: C_2  and  C_21
    2  A    between atoms: C_11  and  C_20
    3  A    between atoms: C_14  and  O_29
    4  A    between atoms: C_16  and  C_31
    5  A    between atoms: C_18  and  C_20
    6  A    between atoms: C_21  and  C_23
                            x       y       z     vdW  Elec       q    Type
                         _______ _______ _______ _____ _____    ______ ____

>  <TORSDO>
F 6

$$$$
=
 OpenBabel11062421273D

 31 36  0  0  1  0  0  0  0  0999 V2000
  193.8190  176.5060  146.5160 S   0  0  0  0  0  0  0  0  0  0  0  0
  190.2030  176.6200  143.0060 C   0  0  0  0  0  3  0  0  0  0  0  0
  191.4320  176.1320  145.4510 C   0  0  0  0  0  0  0  0  0  0  0  0
  192.1660  176.6590  144.4110 C   0  0  0  0  0  0  0  0  0  0  0  0
  189.4620  176.0690  144.0650 C   0  0  0  0  0  0  0  0  0  0  0  0
  193.5980  176.9260  144.7390 C   0  0  2  0  0  3  0  0  0  0  0  0
  192.1460  175.9480  146.6530 N   0  0  0  0  0  2  0  0  0  0  0  0
  190.0790  175.8290  145.3020 C   0  0  0  0  0  3  0  0  0  0  0  0
  191.5620  176.9180  143.1760 C   0  0  0  0  0  3  0  0  0  0  0  0
  188.0110  175.7770  143.8860 C   0  0  0  0  0  2  0  0  0  0  0  0
  186.6570  177.4630  145.2140 C   0  0  0  0  0  0  0  0  0  0  0  0
  187.0270  177.7940  142.8730 N   0  0  0  0  0  0  0  0  0  0  0  0
  185.9290  178.6740  145.2500 C   0  0  0  0  0  0  0  0  0  0  0  0
  185.7650  179.4220  144.0840 C   0  0  0  0  0  3  0  0  0  0  0  0
  187.2030  177.0350  143.9890 C   0  0  0  0  0  0  0  0  0  0  0  0
  185.5380  178.3740  147.6220 C   0  0  0  0  0  3  0  0  0  0  0  0
  186.8140  176.7190  146.3940 C   0  0  0  0  0  3  0  0  0  0  0  0
  186.2570  177.1760  147.5930 C   0  0  0  0  0  3  0  0  0  0  0  0
  185.3750  179.1230  146.4510 C   0  0  0  0  0  3  0  0  0  0  0  0
  186.3280  178.9610  142.8940 C   0  0  0  0  0  3  0  0  0  0  0  0
  194.5140  176.0360  143.9080 C   0  0  0  0  0  2  0  0  0  0  0  0
  194.9190  174.7830  144.6300 C   0  0  0  0  0  0  0  0  0  0  0  0
  196.0970  173.1870  145.8340 N   0  0  0  0  0  0  0  0  0  0  0  0
  194.9920  172.6880  145.3880 C   0  0  0  0  0  0  0  0  0  0  0  0
  194.2130  173.6610  144.6450 C   0  0  0  0  0  0  0  0  0  0  0  0
  196.1790  174.5830  145.4200 C   0  0  0  0  0  2  0  0  0  0  0  0
  193.0050  172.0700  143.1860 C   0  0  0  0  0  2  0  0  0  0  0  0
  193.1860  173.3550  142.4100 C   0  0  0  0  0  2  0  0  0  0  0  0
  192.9330  173.4050  143.9070 C   0  0  0  0  0  3  0  0  0  0  0  0
  195.5550  170.3150  145.7110 C   0  0  0  0  0  1  0  0  0  0  0  0
  194.6050  171.3630  145.5950 O   0  0  0  0  0  0  0  0  0  0  0  0
  1  7  1  0  0  0  0
  2  9  2  0  0  0  0
  2  5  1  0  0  0  0
  3  7  1  0  0  0  0
  4  6  1  0  0  0  0
  4  3  2  0  0  0  0
  5  8  2  0  0  0  0
  6 21  1  6  0  0  0
  6  1  1  0  0  0  0
  8  3  1  0  0  0  0
  9  4  1  0  0  0  0
 10 15  1  0  0  0  0
 10  5  1  0  0  0  0
 11 13  1  0  0  0  0
 11 17  1  0  0  0  0
 12 20  2  0  0  0  0
 12 15  1  0  0  0  0
 13 19  1  0  0  0  0
 14 13  2  0  0  0  0
 15 11  2  0  0  0  0
 17 18  2  0  0  0  0
 18 16  1  0  0  0  0
 19 16  2  0  0  0  0
 20 14  1  0  0  0  0
 21 22  1  0  0  0  0
 22 25  2  0  0  0  0
 22 26  1  0  0  0  0
 24 31  1  0  0  0  0
 24 23  2  0  0  0  0
 25 24  1  0  0  0  0
 26 23  1  0  0  0  0
 27 29  1  0  0  0  0
 28 27  1  0  0  0  0
 28 29  1  0  0  0  0
 29 25  1  0  0  0  0
 31 30  1  0  0  0  0
M  END
>  <MODEL>
9

>  <REMARK>
 VINA RESULT:      -7.4      3.086      9.093
  Name = 
  6 active torsions:
  status: ('A' for Active; 'I' for Inactive)
    1  A    between atoms: C_2  and  C_21
    2  A    between atoms: C_11  and  C_20
    3  A    between atoms: C_14  and  O_29
    4  A    between atoms: C_16  and  C_31
    5  A    between atoms: C_18  and  C_20
    6  A    between atoms: C_21  and  C_23
                            x       y       z     vdW  Elec       q    Type
                         _______ _______ _______ _____ _____    ______ ____

>  <TORSDO>
F 6

$$$$
