=
 OpenBabel11072409263D

 39 44  0  0  1  0  0  0  0  0999 V2000
  192.4150  174.9050  145.1290 C   0  0  1  0  0  3  0  0  0  0  0  0
  187.4400  177.4340  144.6210 N   0  0  0  0  0  2  0  0  0  0  0  0
  191.4810  176.6030  146.7200 C   0  0  0  0  0  2  0  0  0  0  0  0
  190.3600  177.4270  143.1990 C   0  0  0  0  0  2  0  0  0  0  0  0
  186.3560  179.0810  143.2120 C   0  0  0  0  0  3  0  0  0  0  0  0
  189.2940  176.0310  145.5460 C   0  0  1  0  0  3  0  0  0  0  0  0
  187.2220  178.0840  143.3830 C   0  0  0  0  0  0  0  0  0  0  0  0
  188.3470  176.3290  144.3740 C   0  0  2  0  0  3  0  0  0  0  0  0
  191.2290  176.9380  144.2730 N   0  0  1  0  0  0  0  0  0  0  0  0
  190.5210  176.9580  145.5660 C   0  0  2  0  0  3  0  0  0  0  0  0
  188.0610  177.5390  142.2900 C   0  0  0  0  0  2  0  0  0  0  0  0
  189.0440  176.6410  143.0370 C   0  0  1  0  0  0  0  0  0  0  0  0
  192.7470  175.8860  146.2480 C   0  0  0  0  0  2  0  0  0  0  0  0
  191.7610  175.6080  143.9290 C   0  0  0  0  0  2  0  0  0  0  0  0
  189.2580  175.4670  142.3160 O   0  0  0  0  0  1  0  0  0  0  0  0
  193.6260  174.1380  144.7000 C   0  0  0  0  0  0  0  0  0  0  0  0
  193.6250  172.7290  144.6430 C   0  0  0  0  0  2  0  0  0  0  0  0
  195.1490  176.1240  144.3010 C   0  0  0  0  0  3  0  0  0  0  0  0
  195.9610  172.7120  143.9170 C   0  0  0  0  0  3  0  0  0  0  0  0
  196.4450  176.1850  143.9010 N   0  0  0  0  0  0  0  0  0  0  0  0
  194.7850  172.0140  144.2570 C   0  0  0  0  0  0  0  0  0  0  0  0
  194.8110  174.7880  144.3540 C   0  0  0  0  0  0  0  0  0  0  0  0
  195.9290  174.1040  143.9800 C   0  0  0  0  0  0  0  0  0  0  0  0
  196.9230  174.9590  143.7050 N   0  0  0  0  0  0  0  0  0  0  0  0
  194.7910  170.5820  144.2260 N   0  0  0  0  0  2  0  0  0  0  0  0
  194.1790  169.7430  145.2510 C   0  0  2  0  0  3  0  0  0  0  0  0
  196.5830  169.3470  145.9220 C   0  0  0  0  0  3  0  0  0  0  0  0
  195.2140  169.2270  146.2070 C   0  0  0  0  0  0  0  0  0  0  0  0
  197.5350  168.8770  146.8350 C   0  0  0  0  0  3  0  0  0  0  0  0
  197.1210  168.2870  148.0330 C   0  0  0  0  0  3  0  0  0  0  0  0
  194.8040  168.6340  147.4060 C   0  0  0  0  0  3  0  0  0  0  0  0
  195.7550  168.1660  148.3190 C   0  0  0  0  0  3  0  0  0  0  0  0
  192.6760  169.2640  143.6960 C   0  0  0  0  0  1  0  0  0  0  0  0
  193.5140  168.6740  144.6430 O   0  0  0  0  0  0  0  0  0  0  0  0
  188.5710  175.8850  146.8910 C   0  0  0  0  0  2  0  0  0  0  0  0
  188.8830  174.5710  147.5890 C   0  0  0  0  0  1  0  0  0  0  0  0
  185.5000  179.6100  144.3150 C   0  0  0  0  0  2  0  0  0  0  0  0
  184.1820  178.8530  144.3910 C   0  0  0  0  0  2  0  0  0  0  0  0
  183.7150  178.8270  145.7090 O   0  0  0  0  0  1  0  0  0  0  0  0
  1 16  1  6  0  0  0
  1 13  1  0  0  0  0
  5  7  2  0  0  0  0
  5 37  1  0  0  0  0
  6 10  1  0  0  0  0
  6 35  1  1  0  0  0
  7  2  1  0  0  0  0
  8  2  1  1  0  0  0
  8  6  1  0  0  0  0
  9  4  1  6  0  0  0
  9 10  1  0  0  0  0
 10  3  1  1  0  0  0
 11 12  1  0  0  0  0
 11  7  1  0  0  0  0
 12 15  1  6  0  0  0
 12  4  1  0  0  0  0
 12  8  1  0  0  0  0
 13  3  1  0  0  0  0
 14  9  1  0  0  0  0
 14  1  1  0  0  0  0
 17 16  1  0  0  0  0
 18 22  1  0  0  0  0
 19 23  1  0  0  0  0
 19 21  2  0  0  0  0
 20 18  2  0  0  0  0
 21 17  1  0  0  0  0
 22 16  2  0  0  0  0
 23 22  1  0  0  0  0
 24 20  1  0  0  0  0
 24 23  2  0  0  0  0
 25 21  1  0  0  0  0
 26 25  1  6  0  0  0
 26 28  1  0  0  0  0
 27 28  2  0  0  0  0
 27 29  1  0  0  0  0
 28 31  1  0  0  0  0
 29 30  2  0  0  0  0
 30 32  1  0  0  0  0
 31 32  2  0  0  0  0
 33 34  1  0  0  0  0
 34 26  1  0  0  0  0
 35 36  1  0  0  0  0
 37 38  1  0  0  0  0
 38 39  1  0  0  0  0
M  END
>  <MODEL>
1

>  <REMARK>
 VINA RESULT:      -8.4      0.000      0.000
  Name = 
  8 active torsions:
  status: ('A' for Active; 'I' for Inactive)
    1  A    between atoms: C_1  and  C_3
    2  A    between atoms: C_6  and  C_13
    3  A    between atoms: C_9  and  C_18
    4  A    between atoms: C_12  and  C_22
    5  A    between atoms: C_18  and  O_21
    6  A    between atoms: C_18  and  N_23
    7  A    between atoms: C_22  and  C_28
    8  A    between atoms: N_23  and  C_29
                            x       y       z     vdW  Elec       q    Type
                         _______ _______ _______ _____ _____    ______ ____

>  <TORSDO>
F 8

$$$$
=
 OpenBabel11072409263D

 39 44  0  0  1  0  0  0  0  0999 V2000
  188.5440  176.6290  145.8840 C   0  0  1  0  0  3  0  0  0  0  0  0
  194.0740  175.7280  145.7410 N   0  0  0  0  0  2  0  0  0  0  0  0
  189.7860  174.9920  147.3210 C   0  0  0  0  0  2  0  0  0  0  0  0
  191.4390  175.1870  143.9210 C   0  0  0  0  0  2  0  0  0  0  0  0
  195.7330  174.7420  144.2760 C   0  0  0  0  0  3  0  0  0  0  0  0
  191.8030  176.3600  146.5820 C   0  0  1  0  0  3  0  0  0  0  0  0
  194.5960  175.4080  144.4650 C   0  0  0  0  0  0  0  0  0  0  0  0
  192.9050  176.5630  145.5320 C   0  0  2  0  0  3  0  0  0  0  0  0
  190.3630  175.2040  144.9160 N   0  0  1  0  0  0  0  0  0  0  0  0
  190.9150  175.1410  146.2820 C   0  0  2  0  0  3  0  0  0  0  0  0
  193.7420  175.8920  143.3550 C   0  0  0  0  0  2  0  0  0  0  0  0
  192.4680  176.3240  144.0750 C   0  0  1  0  0  0  0  0  0  0  0  0
  188.4150  175.4030  146.7810 C   0  0  0  0  0  2  0  0  0  0  0  0
  189.4930  176.3730  144.7020 C   0  0  0  0  0  2  0  0  0  0  0  0
  191.9820  177.5050  143.5150 O   0  0  0  0  0  1  0  0  0  0  0  0
  187.2070  177.0930  145.4010 C   0  0  0  0  0  0  0  0  0  0  0  0
  186.8080  176.9260  144.0580 C   0  0  0  0  0  3  0  0  0  0  0  0
  186.3750  178.0410  147.5990 C   0  0  0  0  0  3  0  0  0  0  0  0
  184.6690  178.0240  144.5100 C   0  0  0  0  0  3  0  0  0  0  0  0
  185.2070  178.6580  147.9170 N   0  0  0  0  0  2  0  0  0  0  0  0
  185.5470  177.3890  143.6090 C   0  0  0  0  0  0  0  0  0  0  0  0
  186.3060  177.7260  146.2590 C   0  0  0  0  0  0  0  0  0  0  0  0
  185.0910  178.1710  145.8300 C   0  0  0  0  0  0  0  0  0  0  0  0
  184.4250  178.7410  146.8440 N   0  0  0  0  0  0  0  0  0  0  0  0
  185.1540  177.2440  142.2390 N   0  0  0  0  0  2  0  0  0  0  0  0
  184.6890  178.3480  141.4040 C   0  0  2  0  0  3  0  0  0  0  0  0
  182.3910  178.8980  142.2980 C   0  0  0  0  0  3  0  0  0  0  0  0
  183.1940  178.3390  141.2920 C   0  0  0  0  0  0  0  0  0  0  0  0
  180.9970  178.8980  142.1660 C   0  0  0  0  0  3  0  0  0  0  0  0
  180.4030  178.3390  141.0310 C   0  0  0  0  0  3  0  0  0  0  0  0
  182.5950  177.7790  140.1580 C   0  0  0  0  0  3  0  0  0  0  0  0
  181.2020  177.7800  140.0260 C   0  0  0  0  0  3  0  0  0  0  0  0
  186.5010  177.6330  140.3480 C   0  0  0  0  0  1  0  0  0  0  0  0
  185.2660  178.2460  140.1340 O   0  0  0  0  0  0  0  0  0  0  0  0
  192.3150  176.4480  148.0260 C   0  0  0  0  0  2  0  0  0  0  0  0
  191.6050  177.5180  148.8390 C   0  0  0  0  0  1  0  0  0  0  0  0
  196.5970  174.2770  145.4020 C   0  0  0  0  0  2  0  0  0  0  0  0
  196.3950  172.7910  145.6650 C   0  0  0  0  0  2  0  0  0  0  0  0
  195.9830  172.1450  144.4950 O   0  0  0  0  0  1  0  0  0  0  0  0
  1 16  1  6  0  0  0
  1 13  1  0  0  0  0
  4 12  1  0  0  0  0
  5  7  2  0  0  0  0
  5 37  1  0  0  0  0
  6 35  1  1  0  0  0
  7  2  1  0  0  0  0
  8  2  1  1  0  0  0
  8  6  1  0  0  0  0
  9  4  1  6  0  0  0
  9 10  1  0  0  0  0
 10  6  1  0  0  0  0
 10  3  1  1  0  0  0
 11 12  1  0  0  0  0
 11  7  1  0  0  0  0
 12 15  1  6  0  0  0
 12  8  1  0  0  0  0
 13  3  1  0  0  0  0
 14  9  1  0  0  0  0
 14  1  1  0  0  0  0
 16 22  1  0  0  0  0
 17 16  2  0  0  0  0
 18 20  1  0  0  0  0
 19 23  1  0  0  0  0
 21 17  1  0  0  0  0
 21 19  2  0  0  0  0
 22 18  2  0  0  0  0
 23 22  1  0  0  0  0
 23 24  2  0  0  0  0
 24 20  1  0  0  0  0
 25 21  1  0  0  0  0
 26 34  1  6  0  0  0
 26 25  1  0  0  0  0
 28 26  1  0  0  0  0
 28 27  2  0  0  0  0
 29 27  1  0  0  0  0
 30 29  2  0  0  0  0
 31 28  1  0  0  0  0
 32 31  2  0  0  0  0
 32 30  1  0  0  0  0
 34 33  1  0  0  0  0
 35 36  1  0  0  0  0
 37 38  1  0  0  0  0
 39 38  1  0  0  0  0
M  END
>  <MODEL>
2

>  <REMARK>
 VINA RESULT:      -8.3      3.001     10.900
  Name = 
  8 active torsions:
  status: ('A' for Active; 'I' for Inactive)
    1  A    between atoms: C_1  and  C_3
    2  A    between atoms: C_6  and  C_13
    3  A    between atoms: C_9  and  C_18
    4  A    between atoms: C_12  and  C_22
    5  A    between atoms: C_18  and  O_21
    6  A    between atoms: C_18  and  N_23
    7  A    between atoms: C_22  and  C_28
    8  A    between atoms: N_23  and  C_29
                            x       y       z     vdW  Elec       q    Type
                         _______ _______ _______ _____ _____    ______ ____

>  <TORSDO>
F 8

$$$$
=
 OpenBabel11072409263D

 39 44  0  0  1  0  0  0  0  0999 V2000
  189.6210  175.7520  143.7380 C   0  0  1  0  0  3  0  0  0  0  0  0
  194.7370  174.3780  145.5680 N   0  0  0  0  0  2  0  0  0  0  0  0
  190.1260  173.9890  145.4480 C   0  0  0  0  0  2  0  0  0  0  0  0
  192.9170  174.0980  142.8930 C   0  0  0  0  0  2  0  0  0  0  0  0
  196.7390  173.2770  144.7590 C   0  0  0  0  0  3  0  0  0  0  0  0
  192.3700  175.1890  145.5580 C   0  0  1  0  0  3  0  0  0  0  0  0
  195.6640  174.0360  144.5550 C   0  0  0  0  0  0  0  0  0  0  0  0
  193.7910  175.3140  144.9900 C   0  0  2  0  0  3  0  0  0  0  0  0
  191.5560  174.1920  143.4290 N   0  0  1  0  0  0  0  0  0  0  0  0
  191.5640  174.0570  144.8980 C   0  0  2  0  0  3  0  0  0  0  0  0
  195.3130  174.6110  143.2350 C   0  0  0  0  0  2  0  0  0  0  0  0
  193.9000  175.1400  143.4640 C   0  0  1  0  0  0  0  0  0  0  0  0
  189.0820  174.5260  144.4680 C   0  0  0  0  0  2  0  0  0  0  0  0
  190.9140  175.4350  142.9700 C   0  0  0  0  0  2  0  0  0  0  0  0
  193.7420  176.3670  142.8220 O   0  0  0  0  0  1  0  0  0  0  0  0
  188.5910  176.3390  142.8260 C   0  0  0  0  0  0  0  0  0  0  0  0
  187.7880  177.4280  143.2240 C   0  0  0  0  0  2  0  0  0  0  0  0
  188.9690  174.7850  140.8590 C   0  0  0  0  0  3  0  0  0  0  0  0
  186.6150  177.4050  141.0770 C   0  0  0  0  0  3  0  0  0  0  0  0
  188.3580  174.7190  139.6480 N   0  0  0  0  0  0  0  0  0  0  0  0
  186.8010  177.9600  142.3590 C   0  0  0  0  0  0  0  0  0  0  0  0
  188.3740  175.8210  141.5480 C   0  0  0  0  0  0  0  0  0  0  0  0
  187.4260  176.3320  140.7120 C   0  0  0  0  0  0  0  0  0  0  0  0
  187.4190  175.6570  139.5550 N   0  0  0  0  0  0  0  0  0  0  0  0
  185.9660  179.0480  142.7750 N   0  0  0  0  0  2  0  0  0  0  0  0
  184.8000  178.8950  143.6400 C   0  0  2  0  0  3  0  0  0  0  0  0
  185.5820  179.4870  145.9680 C   0  0  0  0  0  3  0  0  0  0  0  0
  185.2140  178.5110  145.0290 C   0  0  0  0  0  0  0  0  0  0  0  0
  185.9460  179.1110  147.2670 C   0  0  0  0  0  3  0  0  0  0  0  0
  185.9430  177.7610  147.6290 C   0  0  0  0  0  3  0  0  0  0  0  0
  185.2140  177.1610  145.3960 C   0  0  0  0  0  3  0  0  0  0  0  0
  185.5770  176.7860  146.6940 C   0  0  0  0  0  3  0  0  0  0  0  0
  183.0680  178.6240  142.2850 C   0  0  0  0  0  1  0  0  0  0  0  0
  183.9500  177.9210  143.1070 O   0  0  0  0  0  0  0  0  0  0  0  0
  192.3240  175.2080  147.0910 C   0  0  0  0  0  2  0  0  0  0  0  0
  191.5840  176.4150  147.6440 C   0  0  0  0  0  1  0  0  0  0  0  0
  197.0940  172.7190  146.0990 C   0  0  0  0  0  2  0  0  0  0  0  0
  196.8210  171.2230  146.1540 C   0  0  0  0  0  2  0  0  0  0  0  0
  195.5350  170.9480  145.6790 O   0  0  0  0  0  1  0  0  0  0  0  0
  1 16  1  6  0  0  0
  1 13  1  0  0  0  0
  4 12  1  0  0  0  0
  5 37  1  0  0  0  0
  6 35  1  1  0  0  0
  7  5  2  0  0  0  0
  7  2  1  0  0  0  0
  8  6  1  0  0  0  0
  8  2  1  1  0  0  0
  9  4  1  1  0  0  0
  9 10  1  0  0  0  0
 10  3  1  1  0  0  0
 10  6  1  0  0  0  0
 11 12  1  0  0  0  0
 11  7  1  0  0  0  0
 12 15  1  6  0  0  0
 12  8  1  0  0  0  0
 13  3  1  0  0  0  0
 14  9  1  0  0  0  0
 14  1  1  0  0  0  0
 16 17  1  0  0  0  0
 18 22  1  0  0  0  0
 19 21  2  0  0  0  0
 20 18  2  0  0  0  0
 21 25  1  0  0  0  0
 21 17  1  0  0  0  0
 22 16  2  0  0  0  0
 23 19  1  0  0  0  0
 23 22  1  0  0  0  0
 24 20  1  0  0  0  0
 24 23  2  0  0  0  0
 26 25  1  6  0  0  0
 26 28  1  0  0  0  0
 27 29  1  0  0  0  0
 28 31  1  0  0  0  0
 28 27  2  0  0  0  0
 29 30  2  0  0  0  0
 31 32  2  0  0  0  0
 32 30  1  0  0  0  0
 33 34  1  0  0  0  0
 34 26  1  0  0  0  0
 35 36  1  0  0  0  0
 37 38  1  0  0  0  0
 39 38  1  0  0  0  0
M  END
>  <MODEL>
3

>  <REMARK>
 VINA RESULT:      -8.1      2.472      9.812
  Name = 
  8 active torsions:
  status: ('A' for Active; 'I' for Inactive)
    1  A    between atoms: C_1  and  C_3
    2  A    between atoms: C_6  and  C_13
    3  A    between atoms: C_9  and  C_18
    4  A    between atoms: C_12  and  C_22
    5  A    between atoms: C_18  and  O_21
    6  A    between atoms: C_18  and  N_23
    7  A    between atoms: C_22  and  C_28
    8  A    between atoms: N_23  and  C_29
                            x       y       z     vdW  Elec       q    Type
                         _______ _______ _______ _____ _____    ______ ____

>  <TORSDO>
F 8

$$$$
=
 OpenBabel11072409263D

 39 44  0  0  1  0  0  0  0  0999 V2000
  189.5170  176.4200  143.4970 C   0  0  1  0  0  3  0  0  0  0  0  0
  184.6700  178.2470  141.3560 N   0  0  0  0  0  2  0  0  0  0  0  0
  188.3040  175.3880  141.5600 C   0  0  0  0  0  2  0  0  0  0  0  0
  185.7880  176.7730  144.0260 C   0  0  0  0  0  2  0  0  0  0  0  0
  182.3260  178.3540  141.9580 C   0  0  0  0  0  3  0  0  0  0  0  0
  187.0870  177.6250  141.5400 C   0  0  1  0  0  3  0  0  0  0  0  0
  183.6140  178.3780  142.2900 C   0  0  0  0  0  0  0  0  0  0  0  0
  185.9120  178.4550  142.0780 C   0  0  2  0  0  3  0  0  0  0  0  0
  187.0270  176.1550  143.5460 N   0  0  1  0  0  0  0  0  0  0  0  0
  187.0860  176.1810  142.0730 C   0  0  2  0  0  3  0  0  0  0  0  0
  184.0930  178.5430  143.6820 C   0  0  0  0  0  2  0  0  0  0  0  0
  185.5830  178.2290  143.5650 C   0  0  1  0  0  0  0  0  0  0  0  0
  189.3750  175.1730  142.6320 C   0  0  0  0  0  2  0  0  0  0  0  0
  188.1920  176.7950  144.1800 C   0  0  0  0  0  2  0  0  0  0  0  0
  186.3170  179.1050  144.3630 O   0  0  0  0  0  1  0  0  0  0  0  0
  190.6090  176.2600  144.5070 C   0  0  0  0  0  0  0  0  0  0  0  0
  191.9440  176.6060  144.2100 C   0  0  0  0  0  3  0  0  0  0  0  0
  189.1870  175.3220  146.3840 C   0  0  0  0  0  3  0  0  0  0  0  0
  192.6670  175.9070  146.4410 C   0  0  0  0  0  3  0  0  0  0  0  0
  189.5220  174.9180  147.6360 N   0  0  0  0  0  2  0  0  0  0  0  0
  192.9730  176.4300  145.1680 C   0  0  0  0  0  0  0  0  0  0  0  0
  190.3510  175.7480  145.7790 C   0  0  0  0  0  0  0  0  0  0  0  0
  191.3380  175.5790  146.7040 C   0  0  0  0  0  0  0  0  0  0  0  0
  190.8280  175.0710  147.8350 N   0  0  0  0  0  0  0  0  0  0  0  0
  194.3330  176.7540  144.8570 N   0  0  0  0  0  2  0  0  0  0  0  0
  195.1650  175.9790  143.9410 C   0  0  2  0  0  3  0  0  0  0  0  0
  194.8710  173.4710  144.0260 C   0  0  0  0  0  3  0  0  0  0  0  0
  195.4840  174.6330  144.5200 C   0  0  0  0  0  0  0  0  0  0  0  0
  195.1950  172.2210  144.5660 C   0  0  0  0  0  3  0  0  0  0  0  0
  196.1330  172.1290  145.5990 C   0  0  0  0  0  3  0  0  0  0  0  0
  196.4200  174.5360  145.5550 C   0  0  0  0  0  3  0  0  0  0  0  0
  196.7460  173.2860  146.0940 C   0  0  0  0  0  3  0  0  0  0  0  0
  196.4770  176.6590  142.2910 C   0  0  0  0  0  1  0  0  0  0  0  0
  196.3470  176.6800  143.6800 O   0  0  0  0  0  0  0  0  0  0  0  0
  187.2810  177.7550  140.0240 C   0  0  0  0  0  2  0  0  0  0  0  0
  186.3730  176.8300  139.2310 C   0  0  0  0  0  1  0  0  0  0  0  0
  181.8530  178.2080  140.5480 C   0  0  0  0  0  2  0  0  0  0  0  0
  180.4260  178.7140  140.3970 C   0  0  0  0  0  2  0  0  0  0  0  0
  180.1850  179.7550  141.3000 O   0  0  0  0  0  1  0  0  0  0  0  0
  1 14  1  0  0  0  0
  1 16  1  1  0  0  0
  2  7  1  0  0  0  0
  3 13  1  0  0  0  0
  5  7  2  0  0  0  0
  6 35  1  6  0  0  0
  6 10  1  0  0  0  0
  6  8  1  0  0  0  0
  7 11  1  0  0  0  0
  8  2  1  6  0  0  0
  8 12  1  0  0  0  0
  9  4  1  6  0  0  0
  9 14  1  0  0  0  0
 10  3  1  1  0  0  0
 10  9  1  0  0  0  0
 12 11  1  0  0  0  0
 12  4  1  0  0  0  0
 12 15  1  1  0  0  0
 13  1  1  0  0  0  0
 16 22  1  0  0  0  0
 17 16  2  0  0  0  0
 17 21  1  0  0  0  0
 18 20  1  0  0  0  0
 19 23  1  0  0  0  0
 20 24  1  0  0  0  0
 21 19  2  0  0  0  0
 22 18  2  0  0  0  0
 22 23  1  0  0  0  0
 23 24  2  0  0  0  0
 25 21  1  0  0  0  0
 26 34  1  1  0  0  0
 26 28  1  0  0  0  0
 26 25  1  0  0  0  0
 27 28  2  0  0  0  0
 27 29  1  0  0  0  0
 28 31  1  0  0  0  0
 29 30  2  0  0  0  0
 30 32  1  0  0  0  0
 31 32  2  0  0  0  0
 33 34  1  0  0  0  0
 36 35  1  0  0  0  0
 37  5  1  0  0  0  0
 38 37  1  0  0  0  0
 38 39  1  0  0  0  0
M  END
>  <MODEL>
4

>  <REMARK>
 VINA RESULT:      -8.0      2.881      5.601
  Name = 
  8 active torsions:
  status: ('A' for Active; 'I' for Inactive)
    1  A    between atoms: C_1  and  C_3
    2  A    between atoms: C_6  and  C_13
    3  A    between atoms: C_9  and  C_18
    4  A    between atoms: C_12  and  C_22
    5  A    between atoms: C_18  and  O_21
    6  A    between atoms: C_18  and  N_23
    7  A    between atoms: C_22  and  C_28
    8  A    between atoms: N_23  and  C_29
                            x       y       z     vdW  Elec       q    Type
                         _______ _______ _______ _____ _____    ______ ____

>  <TORSDO>
F 8

$$$$
=
 OpenBabel11072409263D

 39 44  0  0  1  0  0  0  0  0999 V2000
  192.1690  174.1840  143.5730 C   0  0  1  0  0  3  0  0  0  0  0  0
  187.4590  176.8790  144.9740 N   0  0  0  0  0  2  0  0  0  0  0  0
  189.8930  173.7140  142.6320 C   0  0  0  0  0  2  0  0  0  0  0  0
  189.5640  174.7630  146.2540 C   0  0  0  0  0  2  0  0  0  0  0  0
  185.9500  177.0740  146.8600 C   0  0  0  0  0  3  0  0  0  0  0  0
  189.3650  176.0060  143.6080 C   0  0  1  0  0  3  0  0  0  0  0  0
  187.1720  176.9030  146.3590 C   0  0  0  0  0  0  0  0  0  0  0  0
  188.9020  176.8080  144.8330 C   0  0  2  0  0  3  0  0  0  0  0  0
  190.1550  174.1500  145.0620 N   0  0  1  0  0  0  0  0  0  0  0  0
  189.3730  174.4890  143.8590 C   0  0  2  0  0  3  0  0  0  0  0  0
  188.3770  176.7170  147.2010 C   0  0  0  0  0  2  0  0  0  0  0  0
  189.4360  176.2980  146.1840 C   0  0  1  0  0  0  0  0  0  0  0  0
  191.3110  173.1720  142.8210 C   0  0  0  0  0  2  0  0  0  0  0  0
  191.5750  174.5240  144.9490 C   0  0  0  0  0  2  0  0  0  0  0  0
  190.6530  176.9070  146.4860 O   0  0  0  0  0  1  0  0  0  0  0  0
  193.5810  173.7070  143.7070 C   0  0  0  0  0  0  0  0  0  0  0  0
  193.8930  172.3330  143.7680 C   0  0  0  0  0  3  0  0  0  0  0  0
  194.6930  175.9840  143.7640 C   0  0  0  0  0  3  0  0  0  0  0  0
  196.2750  172.8390  144.0000 C   0  0  0  0  0  3  0  0  0  0  0  0
  195.9990  176.3330  143.8890 N   0  0  0  0  0  2  0  0  0  0  0  0
  195.2310  171.8950  143.9170 C   0  0  0  0  0  0  0  0  0  0  0  0
  194.6450  174.6060  143.7920 C   0  0  0  0  0  0  0  0  0  0  0  0
  195.9340  174.1890  143.9330 C   0  0  0  0  0  0  0  0  0  0  0  0
  196.7570  175.2450  143.9920 N   0  0  0  0  0  0  0  0  0  0  0  0
  195.5450  170.5000  144.0080 N   0  0  0  0  0  2  0  0  0  0  0  0
  194.7610  169.5380  144.7760 C   0  0  2  0  0  3  0  0  0  0  0  0
  196.9360  169.0500  145.9660 C   0  0  0  0  0  3  0  0  0  0  0  0
  195.5320  169.0500  145.9660 C   0  0  0  0  0  0  0  0  0  0  0  0
  197.6380  168.6080  147.0930 C   0  0  0  0  0  3  0  0  0  0  0  0
  196.9410  168.1670  148.2220 C   0  0  0  0  0  3  0  0  0  0  0  0
  194.8390  168.6060  147.0970 C   0  0  0  0  0  3  0  0  0  0  0  0
  195.5410  168.1660  148.2250 C   0  0  0  0  0  3  0  0  0  0  0  0
  193.2110  168.8380  143.3560 C   0  0  0  0  0  1  0  0  0  0  0  0
  194.4130  168.4600  143.9560 O   0  0  0  0  0  0  0  0  0  0  0  0
  188.6870  176.4430  142.3030 C   0  0  0  0  0  2  0  0  0  0  0  0
  188.9100  177.9130  141.9850 C   0  0  0  0  0  1  0  0  0  0  0  0
  184.7440  177.2810  146.0030 C   0  0  0  0  0  2  0  0  0  0  0  0
  184.2650  178.7230  146.0770 C   0  0  0  0  0  2  0  0  0  0  0  0
  184.9360  179.5050  145.1310 O   0  0  0  0  0  1  0  0  0  0  0  0
  1 16  1  1  0  0  0
  1 14  1  0  0  0  0
  2  7  1  0  0  0  0
  3 13  1  0  0  0  0
  6 35  1  6  0  0  0
  6 10  1  0  0  0  0
  6  8  1  0  0  0  0
  7  5  2  0  0  0  0
  7 11  1  0  0  0  0
  8  2  1  1  0  0  0
  8 12  1  0  0  0  0
  9 14  1  6  0  0  0
  9  4  1  0  0  0  0
 10  3  1  6  0  0  0
 10  9  1  0  0  0  0
 12  4  1  0  0  0  0
 12 15  1  1  0  0  0
 12 11  1  0  0  0  0
 13  1  1  0  0  0  0
 16 17  2  0  0  0  0
 16 22  1  0  0  0  0
 17 21  1  0  0  0  0
 18 22  2  0  0  0  0
 18 20  1  0  0  0  0
 20 24  1  0  0  0  0
 21 19  2  0  0  0  0
 21 25  1  0  0  0  0
 22 23  1  0  0  0  0
 23 24  2  0  0  0  0
 23 19  1  0  0  0  0
 25 26  1  0  0  0  0
 26 34  1  6  0  0  0
 26 28  1  0  0  0  0
 27 28  2  0  0  0  0
 27 29  1  0  0  0  0
 28 31  1  0  0  0  0
 29 30  2  0  0  0  0
 30 32  1  0  0  0  0
 31 32  2  0  0  0  0
 33 34  1  0  0  0  0
 36 35  1  0  0  0  0
 37 38  1  0  0  0  0
 37  5  1  0  0  0  0
 39 38  1  0  0  0  0
M  END
>  <MODEL>
5

>  <REMARK>
 VINA RESULT:      -7.9      1.537      2.611
  Name = 
  8 active torsions:
  status: ('A' for Active; 'I' for Inactive)
    1  A    between atoms: C_1  and  C_3
    2  A    between atoms: C_6  and  C_13
    3  A    between atoms: C_9  and  C_18
    4  A    between atoms: C_12  and  C_22
    5  A    between atoms: C_18  and  O_21
    6  A    between atoms: C_18  and  N_23
    7  A    between atoms: C_22  and  C_28
    8  A    between atoms: N_23  and  C_29
                            x       y       z     vdW  Elec       q    Type
                         _______ _______ _______ _____ _____    ______ ____

>  <TORSDO>
F 8

$$$$
=
 OpenBabel11072409263D

 39 44  0  0  1  0  0  0  0  0999 V2000
  192.7300  175.1010  145.5400 C   0  0  1  0  0  3  0  0  0  0  0  0
  187.6700  177.1630  144.2920 N   0  0  0  0  0  2  0  0  0  0  0  0
  191.4600  176.7670  146.9190 C   0  0  0  0  0  2  0  0  0  0  0  0
  190.7400  177.3610  143.2500 C   0  0  0  0  0  2  0  0  0  0  0  0
  186.6460  178.6560  142.6810 C   0  0  0  0  0  3  0  0  0  0  0  0
  189.4990  175.9630  145.5070 C   0  0  1  0  0  3  0  0  0  0  0  0
  187.5610  177.7460  143.0060 C   0  0  0  0  0  0  0  0  0  0  0  0
  188.6900  176.1330  144.2130 C   0  0  2  0  0  3  0  0  0  0  0  0
  191.5010  176.9900  144.4470 N   0  0  1  0  0  0  0  0  0  0  0  0
  190.6320  176.9950  145.6390 C   0  0  2  0  0  3  0  0  0  0  0  0
  188.5770  177.2380  142.0550 C   0  0  0  0  0  2  0  0  0  0  0  0
  189.5260  176.4570  142.9610 C   0  0  1  0  0  0  0  0  0  0  0  0
  192.8320  176.1470  146.6440 C   0  0  0  0  0  2  0  0  0  0  0  0
  192.1800  175.7000  144.2360 C   0  0  0  0  0  2  0  0  0  0  0  0
  189.9280  175.2820  142.3290 O   0  0  0  0  0  1  0  0  0  0  0  0
  194.0450  174.4290  145.3040 C   0  0  0  0  0  0  0  0  0  0  0  0
  194.2770  173.0980  145.7100 C   0  0  0  0  0  2  0  0  0  0  0  0
  195.2120  176.3760  144.1760 C   0  0  0  0  0  3  0  0  0  0  0  0
  196.5730  173.1960  144.8720 C   0  0  0  0  0  3  0  0  0  0  0  0
  196.4740  176.4960  143.6900 N   0  0  0  0  0  0  0  0  0  0  0  0
  195.5340  172.4800  145.5000 C   0  0  0  0  0  0  0  0  0  0  0  0
  195.1010  175.0990  144.6850 C   0  0  0  0  0  0  0  0  0  0  0  0
  196.3110  174.5070  144.4790 C   0  0  0  0  0  0  0  0  0  0  0  0
  197.1460  175.3630  143.8730 N   0  0  0  0  0  0  0  0  0  0  0  0
  195.7780  171.1380  145.9380 N   0  0  0  0  0  2  0  0  0  0  0  0
  196.0730  170.0290  145.0370 C   0  0  2  0  0  3  0  0  0  0  0  0
  193.7250  169.3050  144.4450 C   0  0  0  0  0  3  0  0  0  0  0  0
  194.9630  169.8350  144.0470 C   0  0  0  0  0  0  0  0  0  0  0  0
  192.6940  169.1490  143.5110 C   0  0  0  0  0  3  0  0  0  0  0  0
  192.8970  169.5230  142.1790 C   0  0  0  0  0  3  0  0  0  0  0  0
  195.1620  170.2050  142.7130 C   0  0  0  0  0  3  0  0  0  0  0  0
  194.1310  170.0510  141.7790 C   0  0  0  0  0  3  0  0  0  0  0  0
  196.8180  169.2880  146.9870 C   0  0  0  0  0  1  0  0  0  0  0  0
  196.2600  168.8610  145.7820 O   0  0  0  0  0  0  0  0  0  0  0  0
  188.6220  175.8020  146.7560 C   0  0  0  0  0  2  0  0  0  0  0  0
  188.9400  174.5410  147.5420 C   0  0  0  0  0  1  0  0  0  0  0  0
  185.6130  179.1470  143.6420 C   0  0  0  0  0  2  0  0  0  0  0  0
  184.3270  178.3430  143.5170 C   0  0  0  0  0  2  0  0  0  0  0  0
  184.1510  177.9160  142.1970 O   0  0  0  0  0  1  0  0  0  0  0  0
  1 16  1  6  0  0  0
  1 13  1  0  0  0  0
  5  7  2  0  0  0  0
  5 37  1  0  0  0  0
  6 10  1  0  0  0  0
  6 35  1  1  0  0  0
  7  2  1  0  0  0  0
  8  2  1  1  0  0  0
  8  6  1  0  0  0  0
  9  4  1  6  0  0  0
  9 10  1  0  0  0  0
 10  3  1  1  0  0  0
 11 12  1  0  0  0  0
 11  7  1  0  0  0  0
 12 15  1  6  0  0  0
 12  4  1  0  0  0  0
 12  8  1  0  0  0  0
 13  3  1  0  0  0  0
 14  9  1  0  0  0  0
 14  1  1  0  0  0  0
 16 17  1  0  0  0  0
 18 22  1  0  0  0  0
 19 21  2  0  0  0  0
 20 24  1  0  0  0  0
 20 18  2  0  0  0  0
 21 17  1  0  0  0  0
 21 25  1  0  0  0  0
 22 16  2  0  0  0  0
 23 22  1  0  0  0  0
 23 19  1  0  0  0  0
 24 23  2  0  0  0  0
 26 34  1  1  0  0  0
 26 25  1  0  0  0  0
 28 27  1  0  0  0  0
 28 26  1  0  0  0  0
 29 27  2  0  0  0  0
 30 29  1  0  0  0  0
 31 28  2  0  0  0  0
 32 30  2  0  0  0  0
 32 31  1  0  0  0  0
 34 33  1  0  0  0  0
 35 36  1  0  0  0  0
 38 37  1  0  0  0  0
 39 38  1  0  0  0  0
M  END
>  <MODEL>
6

>  <REMARK>
 VINA RESULT:      -7.9      1.234      2.523
  Name = 
  8 active torsions:
  status: ('A' for Active; 'I' for Inactive)
    1  A    between atoms: C_1  and  C_3
    2  A    between atoms: C_6  and  C_13
    3  A    between atoms: C_9  and  C_18
    4  A    between atoms: C_12  and  C_22
    5  A    between atoms: C_18  and  O_21
    6  A    between atoms: C_18  and  N_23
    7  A    between atoms: C_22  and  C_28
    8  A    between atoms: N_23  and  C_29
                            x       y       z     vdW  Elec       q    Type
                         _______ _______ _______ _____ _____    ______ ____

>  <TORSDO>
F 8

$$$$
=
 OpenBabel11072409263D

 39 44  0  0  1  0  0  0  0  0999 V2000
  191.7640  174.8150  143.7580 C   0  0  1  0  0  3  0  0  0  0  0  0
  186.9770  177.5830  144.6700 N   0  0  0  0  0  2  0  0  0  0  0  0
  191.4530  176.6710  145.4150 C   0  0  0  0  0  2  0  0  0  0  0  0
  189.2710  177.3090  142.3880 C   0  0  0  0  0  2  0  0  0  0  0  0
  185.5450  179.1870  143.5520 C   0  0  0  0  0  3  0  0  0  0  0  0
  188.9870  176.1450  145.0630 C   0  0  1  0  0  3  0  0  0  0  0  0
  186.3870  178.1560  143.5180 C   0  0  0  0  0  0  0  0  0  0  0  0
  187.7190  176.4130  144.2390 C   0  0  2  0  0  3  0  0  0  0  0  0
  190.4280  176.8480  143.1610 N   0  0  1  0  0  0  0  0  0  0  0  0
  190.1820  176.9990  144.6070 C   0  0  2  0  0  3  0  0  0  0  0  0
  186.8070  177.4890  142.2640 C   0  0  0  0  0  2  0  0  0  0  0  0
  187.9510  176.5910  142.7270 C   0  0  1  0  0  0  0  0  0  0  0  0
  192.4730  175.8510  144.6220 C   0  0  0  0  0  2  0  0  0  0  0  0
  190.7770  175.4690  142.7790 C   0  0  0  0  0  2  0  0  0  0  0  0
  187.8810  175.3590  142.0770 O   0  0  0  0  0  1  0  0  0  0  0  0
  192.7440  173.9530  143.0280 C   0  0  0  0  0  0  0  0  0  0  0  0
  193.9960  174.4500  142.6090 C   0  0  0  0  0  3  0  0  0  0  0  0
  191.3470  171.8390  142.9760 C   0  0  0  0  0  3  0  0  0  0  0  0
  194.5680  172.2930  141.6080 C   0  0  0  0  0  3  0  0  0  0  0  0
  191.6030  170.6170  142.4410 N   0  0  0  0  0  0  0  0  0  0  0  0
  194.9060  173.6300  141.8990 C   0  0  0  0  0  0  0  0  0  0  0  0
  192.4520  172.6230  142.7190 C   0  0  1  0  0  3  0  0  0  0  0  0
  193.3260  171.8300  142.0390 C   0  0  0  0  0  0  0  0  0  0  0  0
  192.8040  170.6070  141.8700 N   0  0  0  0  0  0  0  0  0  0  0  0
  196.1650  174.1440  141.4490 N   0  0  0  0  0  2  0  0  0  0  0  0
  197.2590  174.5140  142.3410 C   0  0  2  0  0  3  0  0  0  0  0  0
  196.6160  174.5390  144.7850 C   0  0  0  0  0  3  0  0  0  0  0  0
  197.1130  173.8410  143.6730 C   0  0  0  0  0  0  0  0  0  0  0  0
  196.4690  173.8880  146.0160 C   0  0  0  0  0  3  0  0  0  0  0  0
  196.8170  172.5390  146.1380 C   0  0  0  0  0  3  0  0  0  0  0  0
  197.4610  172.4920  143.8010 C   0  0  0  0  0  3  0  0  0  0  0  0
  197.3130  171.8410  145.0300 C   0  0  0  0  0  3  0  0  0  0  0  0
  196.8150  176.4140  141.2920 C   0  0  0  0  0  1  0  0  0  0  0  0
  197.2750  175.9030  142.5070 O   0  0  0  0  0  0  0  0  0  0  0  0
  188.7370  176.1340  146.5760 C   0  0  0  0  0  2  0  0  0  0  0  0
  189.0500  174.7910  147.2160 C   0  0  0  0  0  1  0  0  0  0  0  0
  185.1130  179.8390  144.8240 C   0  0  0  0  0  2  0  0  0  0  0  0
  184.0050  179.0410  145.4960 C   0  0  0  0  0  2  0  0  0  0  0  0
  184.4380  178.5640  146.7380 O   0  0  0  0  0  1  0  0  0  0  0  0
  1 16  1  6  0  0  0
  1 13  1  0  0  0  0
  4 12  1  0  0  0  0
  5 37  1  0  0  0  0
  6 35  1  1  0  0  0
  7  5  2  0  0  0  0
  7  2  1  0  0  0  0
  8  2  1  1  0  0  0
  8  6  1  0  0  0  0
  9  4  1  6  0  0  0
  9 10  1  0  0  0  0
 10  6  1  0  0  0  0
 10  3  1  1  0  0  0
 11 12  1  0  0  0  0
 11  7  1  0  0  0  0
 12 15  1  6  0  0  0
 12  8  1  0  0  0  0
 13  3  1  0  0  0  0
 14  9  1  0  0  0  0
 14  1  1  0  0  0  0
 17 16  2  0  0  0  0
 19 21  2  0  0  0  0
 19 23  1  0  0  0  0
 20 18  2  0  0  0  0
 21 17  1  0  0  0  0
 22 18  1  6  0  0  0
 22 16  1  0  0  0  0
 23 22  1  0  0  0  0
 24 23  2  0  0  0  0
 24 20  1  0  0  0  0
 25 21  1  0  0  0  0
 26 25  1  6  0  0  0
 26 34  1  0  0  0  0
 26 28  1  0  0  0  0
 27 29  1  0  0  0  0
 28 31  1  0  0  0  0
 28 27  2  0  0  0  0
 29 30  2  0  0  0  0
 31 32  2  0  0  0  0
 32 30  1  0  0  0  0
 33 34  1  0  0  0  0
 35 36  1  0  0  0  0
 37 38  1  0  0  0  0
 38 39  1  0  0  0  0
M  END
>  <MODEL>
7

>  <REMARK>
 VINA RESULT:      -7.8      2.626      3.885
  Name = 
  8 active torsions:
  status: ('A' for Active; 'I' for Inactive)
    1  A    between atoms: C_1  and  C_3
    2  A    between atoms: C_6  and  C_13
    3  A    between atoms: C_9  and  C_18
    4  A    between atoms: C_12  and  C_22
    5  A    between atoms: C_18  and  O_21
    6  A    between atoms: C_18  and  N_23
    7  A    between atoms: C_22  and  C_28
    8  A    between atoms: N_23  and  C_29
                            x       y       z     vdW  Elec       q    Type
                         _______ _______ _______ _____ _____    ______ ____

>  <TORSDO>
F 8

$$$$
=
 OpenBabel11072409263D

 39 44  0  0  1  0  0  0  0  0999 V2000
  190.1320  175.4120  143.7050 C   0  0  1  0  0  3  0  0  0  0  0  0
  194.1630  171.8820  145.3480 N   0  0  0  0  0  2  0  0  0  0  0  0
  190.9390  175.1260  146.0620 C   0  0  0  0  0  2  0  0  0  0  0  0
  191.1030  171.7990  144.2630 C   0  0  0  0  0  2  0  0  0  0  0  0
  194.5200  169.4990  145.6010 C   0  0  0  0  0  3  0  0  0  0  0  0
  192.9170  174.0080  144.9110 C   0  0  1  0  0  3  0  0  0  0  0  0
  193.9680  170.5320  144.9700 C   0  0  0  0  0  0  0  0  0  0  0  0
  193.5120  172.7090  144.3490 C   0  0  2  0  0  3  0  0  0  0  0  0
  190.6070  173.1310  144.6220 N   0  0  1  0  0  0  0  0  0  0  0  0
  191.5350  173.7980  145.5540 C   0  0  2  0  0  3  0  0  0  0  0  0
  193.0790  170.3860  143.7940 C   0  0  0  0  0  2  0  0  0  0  0  0
  192.5070  171.7920  143.6270 C   0  0  1  0  0  0  0  0  0  0  0  0
  189.8100  175.6550  145.1750 C   0  0  0  0  0  2  0  0  0  0  0  0
  190.3470  173.9210  143.4060 C   0  0  0  0  0  2  0  0  0  0  0  0
  192.4350  172.1190  142.2740 O   0  0  0  0  0  1  0  0  0  0  0  0
  189.0760  175.9860  142.8140 C   0  0  0  0  0  0  0  0  0  0  0  0
  188.3190  177.1130  143.1990 C   0  0  0  0  0  2  0  0  0  0  0  0
  189.3240  174.3380  140.9050 C   0  0  0  0  0  3  0  0  0  0  0  0
  187.0480  177.0270  141.1100 C   0  0  0  0  0  3  0  0  0  0  0  0
  188.6570  174.2350  139.7270 N   0  0  0  0  0  0  0  0  0  0  0  0
  187.3070  177.6330  142.3560 C   0  0  0  0  0  0  0  0  0  0  0  0
  188.7870  175.4190  141.5720 C   0  0  0  0  0  0  0  0  0  0  0  0
  187.8150  175.9180  140.7580 C   0  0  0  0  0  0  0  0  0  0  0  0
  187.7390  175.1930  139.6340 N   0  0  0  0  0  0  0  0  0  0  0  0
  186.5190  178.7600  142.7590 N   0  0  0  0  0  2  0  0  0  0  0  0
  185.2480  178.6530  143.4670 C   0  0  2  0  0  3  0  0  0  0  0  0
  185.5660  179.4160  145.8550 C   0  0  0  0  0  3  0  0  0  0  0  0
  185.4700  178.3700  144.9230 C   0  0  0  0  0  0  0  0  0  0  0  0
  185.7550  179.1320  147.2130 C   0  0  0  0  0  3  0  0  0  0  0  0
  185.8460  177.8050  147.6420 C   0  0  0  0  0  3  0  0  0  0  0  0
  185.5640  177.0440  145.3580 C   0  0  0  0  0  3  0  0  0  0  0  0
  185.7510  176.7600  146.7150 C   0  0  0  0  0  3  0  0  0  0  0  0
  183.5950  178.2910  142.0370 C   0  0  0  0  0  1  0  0  0  0  0  0
  184.4800  177.6340  142.8940 O   0  0  0  0  0  0  0  0  0  0  0  0
  193.9090  174.8150  145.7590 C   0  0  0  0  0  2  0  0  0  0  0  0
  194.3110  176.1280  145.1060 C   0  0  0  0  0  1  0  0  0  0  0  0
  195.4310  169.6580  146.7740 C   0  0  0  0  0  2  0  0  0  0  0  0
  196.8840  169.4650  146.3650 C   0  0  0  0  0  2  0  0  0  0  0  0
  197.3770  170.6300  145.7670 O   0  0  0  0  0  1  0  0  0  0  0  0
  1 16  1  6  0  0  0
  1 13  1  0  0  0  0
  4  9  1  0  0  0  0
  5 37  1  0  0  0  0
  6 10  1  0  0  0  0
  6 35  1  1  0  0  0
  7  2  1  0  0  0  0
  7  5  2  0  0  0  0
  8  6  1  0  0  0  0
  8  2  1  1  0  0  0
  9 14  1  6  0  0  0
  9 10  1  0  0  0  0
 10  3  1  6  0  0  0
 11  7  1  0  0  0  0
 12 15  1  6  0  0  0
 12 11  1  0  0  0  0
 12  4  1  0  0  0  0
 12  8  1  0  0  0  0
 13  3  1  0  0  0  0
 14  1  1  0  0  0  0
 16 17  1  0  0  0  0
 18 22  1  0  0  0  0
 19 21  2  0  0  0  0
 20 18  2  0  0  0  0
 21 25  1  0  0  0  0
 21 17  1  0  0  0  0
 22 16  2  0  0  0  0
 23 19  1  0  0  0  0
 23 22  1  0  0  0  0
 24 20  1  0  0  0  0
 24 23  2  0  0  0  0
 26 25  1  6  0  0  0
 26 28  1  0  0  0  0
 27 29  1  0  0  0  0
 28 31  1  0  0  0  0
 28 27  2  0  0  0  0
 29 30  2  0  0  0  0
 31 32  2  0  0  0  0
 32 30  1  0  0  0  0
 33 34  1  0  0  0  0
 34 26  1  0  0  0  0
 36 35  1  0  0  0  0
 38 37  1  0  0  0  0
 39 38  1  0  0  0  0
M  END
>  <MODEL>
8

>  <REMARK>
 VINA RESULT:      -7.8      2.476      9.957
  Name = 
  8 active torsions:
  status: ('A' for Active; 'I' for Inactive)
    1  A    between atoms: C_1  and  C_3
    2  A    between atoms: C_6  and  C_13
    3  A    between atoms: C_9  and  C_18
    4  A    between atoms: C_12  and  C_22
    5  A    between atoms: C_18  and  O_21
    6  A    between atoms: C_18  and  N_23
    7  A    between atoms: C_22  and  C_28
    8  A    between atoms: N_23  and  C_29
                            x       y       z     vdW  Elec       q    Type
                         _______ _______ _______ _____ _____    ______ ____

>  <TORSDO>
F 8

$$$$
=
 OpenBabel11072409263D

 39 44  0  0  1  0  0  0  0  0999 V2000
  189.9790  174.0810  144.2880 C   0  0  1  0  0  3  0  0  0  0  0  0
  190.8790  170.7970  139.8360 N   0  0  0  0  0  2  0  0  0  0  0  0
  190.1770  171.5820  144.3440 C   0  0  0  0  0  2  0  0  0  0  0  0
  188.5260  172.6410  141.1060 C   0  0  0  0  0  2  0  0  0  0  0  0
  189.7090  170.0330  137.8560 C   0  0  0  0  0  3  0  0  0  0  0  0
  191.2110  171.9300  142.0430 C   0  0  1  0  0  3  0  0  0  0  0  0
  189.9610  170.9660  138.7720 C   0  0  0  0  0  0  0  0  0  0  0  0
  190.9710  172.0670  140.5320 C   0  0  2  0  0  3  0  0  0  0  0  0
  188.8880  172.6750  142.5260 N   0  0  1  0  0  0  0  0  0  0  0  0
  189.9150  171.6610  142.8270 C   0  0  2  0  0  3  0  0  0  0  0  0
  189.3040  172.2940  138.7830 C   0  0  0  0  0  2  0  0  0  0  0  0
  189.7090  172.8580  140.1420 C   0  0  1  0  0  0  0  0  0  0  0  0
  189.6990  172.8220  145.1010 C   0  0  0  0  0  2  0  0  0  0  0  0
  189.2930  174.0370  142.9140 C   0  0  0  0  0  2  0  0  0  0  0  0
  190.0040  174.2160  140.0250 O   0  0  0  0  0  1  0  0  0  0  0  0
  189.5870  175.3130  145.0400 C   0  0  0  0  0  0  0  0  0  0  0  0
  188.4500  176.0670  144.6790 C   0  0  0  0  0  3  0  0  0  0  0  0
  191.4800  175.2890  146.7240 C   0  0  0  0  0  3  0  0  0  0  0  0
  188.8920  177.6740  146.4700 C   0  0  0  0  0  3  0  0  0  0  0  0
  191.7810  176.1430  147.7360 N   0  0  0  0  0  2  0  0  0  0  0  0
  188.1010  177.2440  145.3850 C   0  0  0  0  0  0  0  0  0  0  0  0
  190.3390  175.7750  146.1210 C   0  0  0  0  0  0  0  0  0  0  0  0
  190.0060  176.9050  146.8040 C   0  0  0  0  0  0  0  0  0  0  0  0
  190.8880  177.1270  147.7880 N   0  0  0  0  0  0  0  0  0  0  0  0
  186.9640  178.0240  145.0000 N   0  0  0  0  0  2  0  0  0  0  0  0
  185.6860  177.4520  144.5880 C   0  0  2  0  0  3  0  0  0  0  0  0
  186.4370  177.7520  142.1940 C   0  0  0  0  0  3  0  0  0  0  0  0
  185.4050  177.7550  143.1460 C   0  0  0  0  0  0  0  0  0  0  0  0
  186.1530  178.0190  140.8490 C   0  0  0  0  0  3  0  0  0  0  0  0
  184.8390  178.2880  140.4530 C   0  0  0  0  0  3  0  0  0  0  0  0
  184.0930  178.0280  142.7450 C   0  0  0  0  0  3  0  0  0  0  0  0
  183.8090  178.2930  141.4010 C   0  0  0  0  0  3  0  0  0  0  0  0
  184.8570  177.3730  146.6410 C   0  0  0  0  0  1  0  0  0  0  0  0
  184.6640  177.9650  145.3920 O   0  0  0  0  0  0  0  0  0  0  0  0
  192.3830  171.0040  142.3910 C   0  0  0  0  0  2  0  0  0  0  0  0
  193.7370  171.6600  142.1780 C   0  0  0  0  0  1  0  0  0  0  0  0
  190.3920  168.7050  137.8430 C   0  0  0  0  0  2  0  0  0  0  0  0
  191.6270  168.7370  136.9530 C   0  0  0  0  0  2  0  0  0  0  0  0
  191.2730  169.0920  135.6480 O   0  0  0  0  0  1  0  0  0  0  0  0
  1 16  1  1  0  0  0
  1 13  1  0  0  0  0
  3 13  1  0  0  0  0
  5  7  2  0  0  0  0
  6 35  1  6  0  0  0
  6 10  1  0  0  0  0
  7 11  1  0  0  0  0
  7  2  1  0  0  0  0
  8  2  1  1  0  0  0
  8  6  1  0  0  0  0
  9  4  1  6  0  0  0
  9 10  1  0  0  0  0
  9 14  1  0  0  0  0
 10  3  1  1  0  0  0
 11 12  1  0  0  0  0
 12 15  1  6  0  0  0
 12  8  1  0  0  0  0
 12  4  1  0  0  0  0
 14  1  1  0  0  0  0
 16 22  1  0  0  0  0
 17 16  2  0  0  0  0
 17 21  1  0  0  0  0
 18 20  1  0  0  0  0
 19 23  1  0  0  0  0
 20 24  1  0  0  0  0
 21 19  2  0  0  0  0
 22 18  2  0  0  0  0
 22 23  1  0  0  0  0
 23 24  2  0  0  0  0
 25 21  1  0  0  0  0
 26 25  1  1  0  0  0
 26 34  1  0  0  0  0
 27 28  1  0  0  0  0
 28 26  1  0  0  0  0
 29 27  2  0  0  0  0
 30 29  1  0  0  0  0
 30 32  2  0  0  0  0
 31 28  2  0  0  0  0
 32 31  1  0  0  0  0
 34 33  1  0  0  0  0
 36 35  1  0  0  0  0
 37  5  1  0  0  0  0
 38 37  1  0  0  0  0
 39 38  1  0  0  0  0
M  END
>  <MODEL>
9

>  <REMARK>
 VINA RESULT:      -7.7      3.910      9.804
  Name = 
  8 active torsions:
  status: ('A' for Active; 'I' for Inactive)
    1  A    between atoms: C_1  and  C_3
    2  A    between atoms: C_6  and  C_13
    3  A    between atoms: C_9  and  C_18
    4  A    between atoms: C_12  and  C_22
    5  A    between atoms: C_18  and  O_21
    6  A    between atoms: C_18  and  N_23
    7  A    between atoms: C_22  and  C_28
    8  A    between atoms: N_23  and  C_29
                            x       y       z     vdW  Elec       q    Type
                         _______ _______ _______ _____ _____    ______ ____

>  <TORSDO>
F 8

$$$$
