=
 OpenBabel11062419373D

 42 46  0  0  1  0  0  0  0  0999 V2000
  194.0100  168.9750  142.0730 C   0  0  2  0  0  3  0  0  0  0  0  0
  191.5180  175.3120  147.0050 C   0  0  0  0  0  2  0  0  0  0  0  0
  190.2400  171.9350  141.3780 C   0  0  2  0  0  3  0  0  0  0  0  0
  196.9490  171.3550  145.6540 O   0  0  0  0  0  1  0  0  0  0  0  0
  194.1490  173.6820  144.4710 C   0  0  1  0  0  3  0  0  0  0  0  0
  188.7270  177.0460  146.2020 O   0  0  0  0  0  0  0  0  0  0  0  0
  193.8470  177.1870  147.2290 O   0  0  0  0  0  0  0  0  0  0  0  0
  194.6980  171.2700  142.2880 C   0  0  0  0  0  2  0  0  0  0  0  0
  192.1270  176.1800  145.9260 C   0  0  1  0  0  0  0  0  0  0  0  0
  190.1490  176.2560  144.4640 C   0  0  2  0  0  3  0  0  0  0  0  0
  193.5390  176.6320  146.1860 C   0  0  0  0  0  0  0  0  0  0  0  0
  194.5790  176.3810  145.1370 C   0  0  0  0  0  2  0  0  0  0  0  0
  189.6630  174.4770  142.7300 C   0  0  2  0  0  3  0  0  0  0  0  0
  193.6050  170.3800  141.7080 C   0  0  2  0  0  3  0  0  0  0  0  0
  196.5420  168.7040  141.8870 C   0  0  0  0  0  1  0  0  0  0  0  0
  189.1860  172.7590  142.5660 S   0  0  0  0  0  0  0  0  0  0  0  0
  195.3670  169.0960  142.7730 C   0  0  1  0  0  3  0  0  0  0  0  0
  194.0530  168.1660  140.9320 O   0  0  0  0  0  1  0  0  0  0  0  0
  192.2940  173.0110  141.8580 O   0  0  0  0  0  0  0  0  0  0  0  0
  195.5440  175.4230  145.5180 O   0  0  0  0  0  0  0  0  0  0  0  0
  187.7500  172.6650  142.1140 O   0  0  0  0  0  0  0  0  0  0  0  0
  191.6390  175.9400  144.4970 C   0  0  0  0  0  2  0  0  0  0  0  0
  196.6080  173.5530  143.8130 C   0  0  0  0  0  1  0  0  0  0  0  0
  195.5310  170.4810  143.1970 N   0  0  2  0  0  0  0  0  0  0  0  0
  189.8480  176.7170  145.8490 C   0  0  0  0  0  0  0  0  0  0  0  0
  194.9260  174.1590  145.7030 C   0  0  2  0  0  3  0  0  0  0  0  0
  189.3240  172.0580  143.8900 O   0  0  0  0  0  0  0  0  0  0  0  0
  195.5200  173.0940  144.7760 C   0  0  1  0  0  0  0  0  0  0  0  0
  194.9570  170.5880  144.5390 C   0  0  0  0  0  2  0  0  0  0  0  0
  191.0080  176.7360  146.7810 C   0  0  1  0  0  3  0  0  0  0  0  0
  189.3560  174.9940  144.1360 C   0  0  0  0  0  2  0  0  0  0  0  0
  191.6620  171.9630  141.8520 C   0  0  0  0  0  0  0  0  0  0  0  0
  192.2740  170.7030  142.3820 C   0  0  0  0  0  2  0  0  0  0  0  0
  192.9720  172.8550  144.9570 C   0  0  0  0  0  1  0  0  0  0  0  0
  195.6180  171.6850  145.3840 C   0  0  1  0  0  3  0  0  0  0  0  0
  188.9590  175.3180  141.6750 C   0  0  0  0  0  2  0  0  0  0  0  0
  187.7380  175.9900  142.2730 C   0  0  0  0  0  2  0  0  0  0  0  0
  187.5820  177.3670  141.7100 C   0  0  0  0  0  3  0  0  0  0  0  0
  188.5240  178.1460  141.7240 O   0  0  0  0  0  0  0  0  0  0  0  0
  190.0850  172.5600  139.9940 C   0  0  0  0  0  2  0  0  0  0  0  0
  190.1670  170.4170  138.9940 O   0  0  0  0  0  0  0  0  0  0  0  0
  189.6850  171.5420  138.9700 C   0  0  0  0  0  3  0  0  0  0  0  0
  1 18  1  6  0  0  0
  1 17  1  0  0  0  0
  3 40  1  6  0  0  0
  3 32  1  0  0  0  0
  3 16  1  0  0  0  0
  5 28  1  0  0  0  0
  5 34  1  1  0  0  0
  5 26  1  0  0  0  0
  9 22  1  6  0  0  0
  9 11  1  0  0  0  0
  9 30  1  0  0  0  0
  9  2  1  0  0  0  0
 10 31  1  1  0  0  0
 10 22  1  0  0  0  0
 10 25  1  0  0  0  0
 11  7  2  0  0  0  0
 12 20  1  0  0  0  0
 12 11  1  0  0  0  0
 13 36  1  6  0  0  0
 13 31  1  0  0  0  0
 14  1  1  0  0  0  0
 14  8  1  1  0  0  0
 14 33  1  0  0  0  0
 16 13  1  0  0  0  0
 16 27  2  0  0  0  0
 17 15  1  6  0  0  0
 17 24  1  0  0  0  0
 21 16  2  0  0  0  0
 24  8  1  6  0  0  0
 24 29  1  0  0  0  0
 25  6  2  0  0  0  0
 25 30  1  0  0  0  0
 26 20  1  6  0  0  0
 28 23  1  6  0  0  0
 28 35  1  0  0  0  0
 28 26  1  0  0  0  0
 29 35  1  0  0  0  0
 30  2  1  1  0  0  0
 32 19  2  0  0  0  0
 32 33  1  0  0  0  0
 35  4  1  6  0  0  0
 36 37  1  0  0  0  0
 38 39  2  0  0  0  0
 38 37  1  0  0  0  0
 42 41  2  0  0  0  0
 42 40  1  0  0  0  0
M  END
>  <MODEL>
1

>  <REMARK>
 VINA RESULT:      -7.3      0.000      0.000
  Name = 
  5 active torsions:
  status: ('A' for Active; 'I' for Inactive)
    1  A    between atoms: C_1  and  C_14
    2  A    between atoms: C_1  and  C_25
    3  A    between atoms: C_4  and  C_21
    4  A    between atoms: C_21  and  C_34
    5  A    between atoms: C_24  and  C_25
                            x       y       z     vdW  Elec       q    Type
                         _______ _______ _______ _____ _____    ______ ____

>  <TORSDO>
F 5

$$$$
=
 OpenBabel11062419373D

 42 46  0  0  1  0  0  0  0  0999 V2000
  194.6330  171.8650  139.0390 C   0  0  2  0  0  3  0  0  0  0  0  0
  192.6450  174.5080  146.7690 C   0  0  0  0  0  2  0  0  0  0  0  0
  190.2210  172.8890  140.7520 C   0  0  2  0  0  3  0  0  0  0  0  0
  197.9340  174.0350  142.4350 O   0  0  0  0  0  1  0  0  0  0  0  0
  194.3410  175.1130  143.1970 C   0  0  1  0  0  3  0  0  0  0  0  0
  189.3950  174.9750  147.5820 O   0  0  0  0  0  0  0  0  0  0  0  0
  194.1780  177.0450  147.2240 O   0  0  0  0  0  0  0  0  0  0  0  0
  194.6270  174.0260  140.0950 C   0  0  0  0  0  2  0  0  0  0  0  0
  192.4590  175.8480  146.0900 C   0  0  1  0  0  0  0  0  0  0  0  0
  190.1310  175.4940  145.3780 C   0  0  2  0  0  3  0  0  0  0  0  0
  193.6460  176.7730  146.1590 C   0  0  0  0  0  0  0  0  0  0  0  0
  194.1790  177.3560  144.8870 C   0  0  0  0  0  2  0  0  0  0  0  0
  189.5260  174.3340  143.2110 C   0  0  2  0  0  3  0  0  0  0  0  0
  193.7140  172.9780  139.4710 C   0  0  2  0  0  3  0  0  0  0  0  0
  196.8120  172.8220  138.1140 C   0  0  0  0  0  1  0  0  0  0  0  0
  189.5620  172.7350  142.4080 S   0  0  0  0  0  0  0  0  0  0  0  0
  196.0540  172.3490  139.3470 C   0  0  1  0  0  3  0  0  0  0  0  0
  194.4390  171.5660  137.6860 O   0  0  0  0  0  1  0  0  0  0  0  0
  191.8620  174.5520  141.1320 O   0  0  0  0  0  0  0  0  0  0  0  0
  195.4520  176.8620  144.5300 O   0  0  0  0  0  0  0  0  0  0  0  0
  188.1690  172.1600  142.3440 O   0  0  0  0  0  0  0  0  0  0  0  0
  191.5190  175.8820  144.8850 C   0  0  0  0  0  2  0  0  0  0  0  0
  196.2180  176.3070  141.9530 C   0  0  0  0  0  1  0  0  0  0  0  0
  195.9560  173.4480  140.3000 N   0  0  2  0  0  0  0  0  0  0  0  0
  190.3090  175.3090  146.8470 C   0  0  0  0  0  0  0  0  0  0  0  0
  195.3770  175.4690  144.2670 C   0  0  2  0  0  3  0  0  0  0  0  0
  190.4410  171.7900  143.1830 O   0  0  0  0  0  0  0  0  0  0  0  0
  195.8210  175.1340  142.8410 C   0  0  1  0  0  0  0  0  0  0  0  0
  195.9890  172.8580  141.6380 C   0  0  0  0  0  2  0  0  0  0  0  0
  191.6870  175.5460  147.3560 C   0  0  1  0  0  3  0  0  0  0  0  0
  189.6910  174.1870  144.7240 C   0  0  0  0  0  2  0  0  0  0  0  0
  191.6310  173.3940  140.8080 C   0  0  0  0  0  0  0  0  0  0  0  0
  192.7540  172.4430  140.5310 C   0  0  0  0  0  2  0  0  0  0  0  0
  193.7790  173.7430  143.5330 C   0  0  0  0  0  1  0  0  0  0  0  0
  196.5800  173.8050  142.6920 C   0  0  1  0  0  3  0  0  0  0  0  0
  188.2310  175.0600  142.8730 C   0  0  0  0  0  2  0  0  0  0  0  0
  188.5360  176.3960  142.2260 C   0  0  0  0  0  2  0  0  0  0  0  0
  187.4720  176.7410  141.2330 C   0  0  0  0  0  3  0  0  0  0  0  0
  187.4050  177.8710  140.7720 O   0  0  0  0  0  0  0  0  0  0  0  0
  189.3260  173.7810  139.8950 C   0  0  0  0  0  2  0  0  0  0  0  0
  188.1940  173.4620  137.8430 O   0  0  0  0  0  0  0  0  0  0  0  0
  188.5190  172.9800  138.9200 C   0  0  0  0  0  3  0  0  0  0  0  0
  1 18  1  6  0  0  0
  1 17  1  0  0  0  0
  1 14  1  0  0  0  0
  3 40  1  6  0  0  0
  3 32  1  0  0  0  0
  3 16  1  0  0  0  0
  5 34  1  1  0  0  0
  5 26  1  0  0  0  0
  9 22  1  6  0  0  0
  9 11  1  0  0  0  0
  9  2  1  0  0  0  0
  9 30  1  0  0  0  0
 10 31  1  6  0  0  0
 10 25  1  0  0  0  0
 11  7  2  0  0  0  0
 12 11  1  0  0  0  0
 13 36  1  1  0  0  0
 13 31  1  0  0  0  0
 14  8  1  1  0  0  0
 14 33  1  0  0  0  0
 16 27  2  0  0  0  0
 16 13  1  0  0  0  0
 17 15  1  6  0  0  0
 17 24  1  0  0  0  0
 20 12  1  0  0  0  0
 21 16  2  0  0  0  0
 22 10  1  0  0  0  0
 24  8  1  6  0  0  0
 24 29  1  0  0  0  0
 25 30  1  0  0  0  0
 25  6  2  0  0  0  0
 26 20  1  6  0  0  0
 28 23  1  6  0  0  0
 28  5  1  0  0  0  0
 28 26  1  0  0  0  0
 29 35  1  0  0  0  0
 30  2  1  6  0  0  0
 32 19  2  0  0  0  0
 33 32  1  0  0  0  0
 35  4  1  6  0  0  0
 35 28  1  0  0  0  0
 37 36  1  0  0  0  0
 38 37  1  0  0  0  0
 39 38  2  0  0  0  0
 41 42  2  0  0  0  0
 42 40  1  0  0  0  0
M  END
>  <MODEL>
2

>  <REMARK>
 VINA RESULT:      -7.2      2.267      2.563
  Name = 
  5 active torsions:
  status: ('A' for Active; 'I' for Inactive)
    1  A    between atoms: C_1  and  C_14
    2  A    between atoms: C_1  and  C_25
    3  A    between atoms: C_4  and  C_21
    4  A    between atoms: C_21  and  C_34
    5  A    between atoms: C_24  and  C_25
                            x       y       z     vdW  Elec       q    Type
                         _______ _______ _______ _____ _____    ______ ____

>  <TORSDO>
F 5

$$$$
=
 OpenBabel11062419373D

 42 46  0  0  1  0  0  0  0  0999 V2000
  186.6600  177.2100  140.0930 C   0  0  2  0  0  3  0  0  0  0  0  0
  192.5920  176.0880  145.9440 C   0  0  0  0  0  2  0  0  0  0  0  0
  190.0880  173.7910  140.1860 C   0  0  2  0  0  3  0  0  0  0  0  0
  186.5270  179.1170  144.9380 O   0  0  0  0  0  1  0  0  0  0  0  0
  188.7630  176.0130  144.7910 C   0  0  1  0  0  3  0  0  0  0  0  0
  194.8860  173.6350  145.5370 O   0  0  0  0  0  0  0  0  0  0  0  0
  191.1590  175.7120  148.5510 O   0  0  0  0  0  0  0  0  0  0  0  0
  186.6840  176.1080  142.2300 C   0  0  0  0  0  2  0  0  0  0  0  0
  191.7220  174.9260  146.3750 C   0  0  1  0  0  0  0  0  0  0  0  0
  192.6490  173.2710  144.8090 C   0  0  2  0  0  3  0  0  0  0  0  0
  190.7700  175.2220  147.5030 C   0  0  0  0  0  0  0  0  0  0  0  0
  189.3170  174.9100  147.3180 C   0  0  0  0  0  2  0  0  0  0  0  0
  191.7980  173.0050  142.4400 C   0  0  2  0  0  3  0  0  0  0  0  0
  187.1120  175.9460  140.7770 C   0  0  2  0  0  3  0  0  0  0  0  0
  184.3930  177.9500  141.0040 C   0  0  0  0  0  1  0  0  0  0  0  0
  191.7460  173.8380  140.8560 S   0  0  0  0  0  0  0  0  0  0  0  0
  185.9060  178.0180  141.1550 C   0  0  1  0  0  3  0  0  0  0  0  0
  185.8730  176.9080  138.9760 O   0  0  0  0  0  1  0  0  0  0  0  0
  188.8460  174.0300  142.1870 O   0  0  0  0  0  0  0  0  0  0  0  0
  188.5000  176.0590  147.2400 O   0  0  0  0  0  0  0  0  0  0  0  0
  192.6970  173.1710  139.8930 O   0  0  0  0  0  0  0  0  0  0  0  0
  191.3540  173.9080  145.2960 C   0  0  0  0  0  2  0  0  0  0  0  0
  186.3480  176.3010  145.5530 C   0  0  0  0  0  1  0  0  0  0  0  0
  186.2800  177.4960  142.4630 N   0  0  2  0  0  0  0  0  0  0  0  0
  193.7020  173.8990  145.6580 C   0  0  0  0  0  0  0  0  0  0  0  0
  188.8390  176.8190  146.0910 C   0  0  2  0  0  3  0  0  0  0  0  0
  192.1520  175.2780  141.0190 O   0  0  0  0  0  0  0  0  0  0  0  0
  187.6460  176.9850  145.1450 C   0  0  1  0  0  0  0  0  0  0  0  0
  187.4620  178.2410  142.8990 C   0  0  0  0  0  2  0  0  0  0  0  0
  193.2080  174.8840  146.6590 C   0  0  1  0  0  3  0  0  0  0  0  0
  192.8770  173.6100  143.3380 C   0  0  0  0  0  2  0  0  0  0  0  0
  189.1460  174.5120  141.1030 C   0  0  0  0  0  0  0  0  0  0  0  0
  188.6350  175.8610  140.7020 C   0  0  0  0  0  2  0  0  0  0  0  0
  189.8160  176.5600  143.8430 C   0  0  0  0  0  1  0  0  0  0  0  0
  187.5720  178.3440  144.4260 C   0  0  1  0  0  3  0  0  0  0  0  0
  192.0310  171.5140  142.2390 C   0  0  0  0  0  2  0  0  0  0  0  0
  190.7930  170.7350  142.6380 C   0  0  0  0  0  2  0  0  0  0  0  0
  190.8170  169.3760  142.0120 C   0  0  0  0  0  3  0  0  0  0  0  0
  190.9690  169.2600  140.8040 O   0  0  0  0  0  0  0  0  0  0  0  0
  189.6490  172.3520  139.9300 C   0  0  0  0  0  2  0  0  0  0  0  0
  188.1920  173.0340  138.1960 O   0  0  0  0  0  0  0  0  0  0  0  0
  188.3690  172.2940  139.1540 C   0  0  0  0  0  3  0  0  0  0  0  0
  1 18  1  6  0  0  0
  1 14  1  0  0  0  0
  1 17  1  0  0  0  0
  2  9  1  0  0  0  0
  3 40  1  1  0  0  0
  3 16  1  0  0  0  0
  3 32  1  0  0  0  0
  5 34  1  6  0  0  0
  5 28  1  0  0  0  0
  5 26  1  0  0  0  0
  6 25  2  0  0  0  0
  9 22  1  6  0  0  0
  9 30  1  0  0  0  0
  9 11  1  0  0  0  0
 10 31  1  6  0  0  0
 10 22  1  0  0  0  0
 10 25  1  0  0  0  0
 11  7  2  0  0  0  0
 12 11  1  0  0  0  0
 13 36  1  6  0  0  0
 13 31  1  0  0  0  0
 14 33  1  1  0  0  0
 14  8  1  0  0  0  0
 16 27  2  0  0  0  0
 16 13  1  0  0  0  0
 17 15  1  6  0  0  0
 17 24  1  0  0  0  0
 20 12  1  0  0  0  0
 21 16  2  0  0  0  0
 24  8  1  6  0  0  0
 24 29  1  0  0  0  0
 25 30  1  0  0  0  0
 26 20  1  1  0  0  0
 28 23  1  1  0  0  0
 28 26  1  0  0  0  0
 29 35  1  0  0  0  0
 30  2  1  6  0  0  0
 32 19  2  0  0  0  0
 33 32  1  0  0  0  0
 35  4  1  1  0  0  0
 35 28  1  0  0  0  0
 36 37  1  0  0  0  0
 38 37  1  0  0  0  0
 39 38  2  0  0  0  0
 41 42  2  0  0  0  0
 42 40  1  0  0  0  0
M  END
>  <MODEL>
3

>  <REMARK>
 VINA RESULT:      -6.7      2.909      7.373
  Name = 
  5 active torsions:
  status: ('A' for Active; 'I' for Inactive)
    1  A    between atoms: C_1  and  C_14
    2  A    between atoms: C_1  and  C_25
    3  A    between atoms: C_4  and  C_21
    4  A    between atoms: C_21  and  C_34
    5  A    between atoms: C_24  and  C_25
                            x       y       z     vdW  Elec       q    Type
                         _______ _______ _______ _____ _____    ______ ____

>  <TORSDO>
F 5

$$$$
=
 OpenBabel11062419373D

 42 46  0  0  1  0  0  0  0  0999 V2000
  192.3930  170.1340  138.0770 C   0  0  2  0  0  3  0  0  0  0  0  0
  195.6210  174.6330  144.4040 C   0  0  0  0  0  2  0  0  0  0  0  0
  189.9820  172.2850  141.6840 C   0  0  2  0  0  3  0  0  0  0  0  0
  197.1260  172.3080  138.1340 O   0  0  0  0  0  1  0  0  0  0  0  0
  194.7790  174.1650  140.5220 C   0  0  1  0  0  3  0  0  0  0  0  0
  193.5640  175.8500  146.7980 O   0  0  0  0  0  0  0  0  0  0  0  0
  197.1610  176.8810  143.1530 O   0  0  0  0  0  0  0  0  0  0  0  0
  193.0800  172.4290  138.2890 C   0  0  0  0  0  2  0  0  0  0  0  0
  195.0850  175.8150  143.6250 C   0  0  1  0  0  0  0  0  0  0  0  0
  192.8040  175.7580  144.5440 C   0  0  2  0  0  3  0  0  0  0  0  0
  196.0830  176.4990  142.7280 C   0  0  0  0  0  0  0  0  0  0  0  0
  195.7340  176.6990  141.2850 C   0  0  0  0  0  2  0  0  0  0  0  0
  190.9720  174.3100  143.5670 C   0  0  2  0  0  3  0  0  0  0  0  0
  191.9550  171.4620  138.6380 C   0  0  2  0  0  3  0  0  0  0  0  0
  193.5650  170.4600  135.8320 C   0  0  0  0  0  1  0  0  0  0  0  0
  190.4760  172.6010  143.3750 S   0  0  0  0  0  0  0  0  0  0  0  0
  193.7130  170.4000  137.3470 C   0  0  1  0  0  3  0  0  0  0  0  0
  191.4040  169.6040  137.2420 O   0  0  0  0  0  1  0  0  0  0  0  0
  191.5440  173.6590  140.5540 O   0  0  0  0  0  0  0  0  0  0  0  0
  196.5110  175.9150  140.4040 O   0  0  0  0  0  0  0  0  0  0  0  0
  189.3250  172.2930  144.3000 O   0  0  0  0  0  0  0  0  0  0  0  0
  193.6040  175.7730  143.2480 C   0  0  0  0  0  2  0  0  0  0  0  0
  195.5230  174.7090  138.1450 C   0  0  0  0  0  1  0  0  0  0  0  0
  194.2430  171.6700  137.8260 N   0  0  2  0  0  0  0  0  0  0  0  0
  193.8410  175.8500  145.6100 C   0  0  0  0  0  0  0  0  0  0  0  0
  196.2620  174.5370  140.6330 C   0  0  2  0  0  3  0  0  0  0  0  0
  191.6260  171.6900  143.7110 O   0  0  0  0  0  0  0  0  0  0  0  0
  195.7290  173.8390  139.3770 C   0  0  1  0  0  0  0  0  0  0  0  0
  195.0790  171.3730  138.9910 C   0  0  0  0  0  2  0  0  0  0  0  0
  195.2470  175.9280  145.1260 C   0  0  1  0  0  3  0  0  0  0  0  0
  192.0280  174.4490  144.6640 C   0  0  0  0  0  2  0  0  0  0  0  0
  191.1400  172.5220  140.7620 C   0  0  0  0  0  0  0  0  0  0  0  0
  191.8370  171.3440  140.1550 C   0  0  0  0  0  2  0  0  0  0  0  0
  194.5140  173.0220  141.4850 C   0  0  0  0  0  1  0  0  0  0  0  0
  196.2110  172.3900  139.1870 C   0  0  1  0  0  3  0  0  0  0  0  0
  189.7580  175.1770  143.8670 C   0  0  0  0  0  2  0  0  0  0  0  0
  189.6680  176.3130  142.8670 C   0  0  0  0  0  2  0  0  0  0  0  0
  189.3520  177.5940  143.5720 C   0  0  0  0  0  3  0  0  0  0  0  0
  190.1430  178.0610  144.3790 O   0  0  0  0  0  0  0  0  0  0  0  0
  188.7690  173.1320  141.3090 C   0  0  0  0  0  2  0  0  0  0  0  0
  188.2620  173.6760  139.0630 O   0  0  0  0  0  0  0  0  0  0  0  0
  188.2770  172.8120  139.9300 C   0  0  0  0  0  3  0  0  0  0  0  0
  1 18  1  6  0  0  0
  1 14  1  0  0  0  0
  3 40  1  6  0  0  0
  3 16  1  0  0  0  0
  5 26  1  0  0  0  0
  5 34  1  1  0  0  0
  9 22  1  6  0  0  0
  9  2  1  0  0  0  0
  9 30  1  0  0  0  0
 10 22  1  6  0  0  0
 10 31  1  0  0  0  0
 10 25  1  0  0  0  0
 11  7  2  0  0  0  0
 11  9  1  0  0  0  0
 12 11  1  0  0  0  0
 13 36  1  1  0  0  0
 13 31  1  0  0  0  0
 14  8  1  1  0  0  0
 14 33  1  0  0  0  0
 16 13  1  0  0  0  0
 16 27  2  0  0  0  0
 16 21  2  0  0  0  0
 17 15  1  6  0  0  0
 17 24  1  0  0  0  0
 17  1  1  0  0  0  0
 19 32  2  0  0  0  0
 20 12  1  0  0  0  0
 24  8  1  1  0  0  0
 24 29  1  0  0  0  0
 25  6  2  0  0  0  0
 26 20  1  6  0  0  0
 28 23  1  6  0  0  0
 28  5  1  0  0  0  0
 28 26  1  0  0  0  0
 29 35  1  0  0  0  0
 30  2  1  1  0  0  0
 30 25  1  0  0  0  0
 32  3  1  0  0  0  0
 33 32  1  0  0  0  0
 35  4  1  6  0  0  0
 35 28  1  0  0  0  0
 37 38  1  0  0  0  0
 37 36  1  0  0  0  0
 38 39  2  0  0  0  0
 41 42  2  0  0  0  0
 42 40  1  0  0  0  0
M  END
>  <MODEL>
4

>  <REMARK>
 VINA RESULT:      -6.6      2.960      4.167
  Name = 
  5 active torsions:
  status: ('A' for Active; 'I' for Inactive)
    1  A    between atoms: C_1  and  C_14
    2  A    between atoms: C_1  and  C_25
    3  A    between atoms: C_4  and  C_21
    4  A    between atoms: C_21  and  C_34
    5  A    between atoms: C_24  and  C_25
                            x       y       z     vdW  Elec       q    Type
                         _______ _______ _______ _____ _____    ______ ____

>  <TORSDO>
F 5

$$$$
=
 OpenBabel11062419373D

 42 46  0  0  1  0  0  0  0  0999 V2000
  192.7200  172.5410  137.3460 C   0  0  2  0  0  3  0  0  0  0  0  0
  191.8260  176.7830  144.5500 C   0  0  0  0  0  2  0  0  0  0  0  0
  196.1940  173.7520  140.4940 C   0  0  2  0  0  3  0  0  0  0  0  0
  188.2570  173.1510  139.9620 O   0  0  0  0  0  1  0  0  0  0  0  0
  191.2460  173.5080  142.3270 C   0  0  1  0  0  3  0  0  0  0  0  0
  194.5650  177.5330  146.3880 O   0  0  0  0  0  0  0  0  0  0  0  0
  189.8800  175.2290  146.2190 O   0  0  0  0  0  0  0  0  0  0  0  0
  192.0890  171.8960  139.5750 C   0  0  0  0  0  2  0  0  0  0  0  0
  192.0170  175.4240  145.1880 C   0  0  1  0  0  0  0  0  0  0  0  0
  194.4770  175.4610  145.2200 C   0  0  2  0  0  3  0  0  0  0  0  0
  190.7470  174.6980  145.5440 C   0  0  0  0  0  0  0  0  0  0  0  0
  190.5550  173.2980  145.0460 C   0  0  0  0  0  2  0  0  0  0  0  0
  195.8810  174.7120  143.2520 C   0  0  2  0  0  3  0  0  0  0  0  0
  193.2910  172.2550  138.7100 C   0  0  2  0  0  3  0  0  0  0  0  0
  190.8180  170.9200  136.8220 C   0  0  0  0  0  1  0  0  0  0  0  0
  196.3240  175.1690  141.5790 S   0  0  0  0  0  0  0  0  0  0  0  0
  191.2190  172.2490  137.4470 C   0  0  1  0  0  3  0  0  0  0  0  0
  193.3620  171.7670  136.3730 O   0  0  0  0  0  1  0  0  0  0  0  0
  194.2940  172.7040  141.4410 O   0  0  0  0  0  0  0  0  0  0  0  0
  189.5380  173.1820  144.0730 O   0  0  0  0  0  0  0  0  0  0  0  0
  197.7370  175.6970  141.5480 O   0  0  0  0  0  0  0  0  0  0  0  0
  193.2680  174.6450  144.7810 C   0  0  0  0  0  2  0  0  0  0  0  0
  189.6920  171.5380  141.8800 C   0  0  0  0  0  1  0  0  0  0  0  0
  190.8590  172.2410  138.8600 N   0  0  2  0  0  0  0  0  0  0  0  0
  193.8840  176.6420  145.9100 C   0  0  0  0  0  0  0  0  0  0  0  0
  189.8900  173.9180  142.9120 C   0  0  2  0  0  3  0  0  0  0  0  0
  195.3950  176.2410  141.0760 O   0  0  0  0  0  0  0  0  0  0  0  0
  189.9610  173.0230  141.6710 C   0  0  1  0  0  0  0  0  0  0  0  0
  190.5010  173.6140  139.2180 C   0  0  0  0  0  2  0  0  0  0  0  0
  192.3960  176.6670  145.9640 C   0  0  1  0  0  3  0  0  0  0  0  0
  195.2810  175.9020  144.0010 C   0  0  0  0  0  2  0  0  0  0  0  0
  194.7770  173.2620  140.4650 C   0  0  0  0  0  0  0  0  0  0  0  0
  193.9440  173.5260  139.2490 C   0  0  0  0  0  2  0  0  0  0  0  0
  191.8680  174.7390  141.6920 C   0  0  0  0  0  1  0  0  0  0  0  0
  189.4840  173.6840  140.3660 C   0  0  1  0  0  3  0  0  0  0  0  0
  197.0980  174.1660  143.9860 C   0  0  0  0  0  2  0  0  0  0  0  0
  196.8140  172.7680  144.4990 C   0  0  0  0  0  2  0  0  0  0  0  0
  196.8230  172.7580  145.9940 C   0  0  0  0  0  3  0  0  0  0  0  0
  197.1910  173.7470  146.6120 O   0  0  0  0  0  0  0  0  0  0  0  0
  197.1710  172.6580  140.9150 C   0  0  0  0  0  2  0  0  0  0  0  0
  197.4990  172.2860  138.6020 O   0  0  0  0  0  0  0  0  0  0  0  0
  197.9070  172.0920  139.7400 C   0  0  0  0  0  3  0  0  0  0  0  0
  1 18  1  6  0  0  0
  1 17  1  0  0  0  0
  1 14  1  0  0  0  0
  3 40  1  1  0  0  0
  3 16  1  0  0  0  0
  5 34  1  6  0  0  0
  5 26  1  0  0  0  0
  9  2  1  6  0  0  0
  9 11  1  0  0  0  0
  9 30  1  0  0  0  0
 10 31  1  6  0  0  0
 10 25  1  0  0  0  0
 11  7  2  0  0  0  0
 12 11  1  0  0  0  0
 13 36  1  1  0  0  0
 13 31  1  0  0  0  0
 14 33  1  1  0  0  0
 14  8  1  0  0  0  0
 16 13  1  0  0  0  0
 17 15  1  1  0  0  0
 17 24  1  0  0  0  0
 20 12  1  0  0  0  0
 21 16  2  0  0  0  0
 22  9  1  0  0  0  0
 22 10  1  0  0  0  0
 24 29  1  1  0  0  0
 24  8  1  0  0  0  0
 25 30  1  0  0  0  0
 25  6  2  0  0  0  0
 26 20  1  1  0  0  0
 27 16  2  0  0  0  0
 28 23  1  1  0  0  0
 28  5  1  0  0  0  0
 28 26  1  0  0  0  0
 29 35  1  0  0  0  0
 30  2  1  6  0  0  0
 32  3  1  0  0  0  0
 32 19  2  0  0  0  0
 33 32  1  0  0  0  0
 35  4  1  6  0  0  0
 35 28  1  0  0  0  0
 36 37  1  0  0  0  0
 37 38  1  0  0  0  0
 38 39  2  0  0  0  0
 41 42  2  0  0  0  0
 42 40  1  0  0  0  0
M  END
>  <MODEL>
5

>  <REMARK>
 VINA RESULT:      -6.6      2.915      6.574
  Name = 
  5 active torsions:
  status: ('A' for Active; 'I' for Inactive)
    1  A    between atoms: C_1  and  C_14
    2  A    between atoms: C_1  and  C_25
    3  A    between atoms: C_4  and  C_21
    4  A    between atoms: C_21  and  C_34
    5  A    between atoms: C_24  and  C_25
                            x       y       z     vdW  Elec       q    Type
                         _______ _______ _______ _____ _____    ______ ____

>  <TORSDO>
F 5

$$$$
=
 OpenBabel11062419373D

 42 46  0  0  1  0  0  0  0  0999 V2000
  196.5980  173.1700  145.2490 C   0  0  2  0  0  3  0  0  0  0  0  0
  190.5720  173.6320  139.4040 C   0  0  0  0  0  2  0  0  0  0  0  0
  192.3690  175.5080  145.5650 C   0  0  2  0  0  3  0  0  0  0  0  0
  196.0460  169.9250  141.2130 O   0  0  0  0  0  1  0  0  0  0  0  0
  192.6900  171.5500  142.0820 C   0  0  1  0  0  3  0  0  0  0  0  0
  187.8160  175.5020  140.0010 O   0  0  0  0  0  0  0  0  0  0  0  0
  189.7670  170.8110  138.7830 O   0  0  0  0  0  0  0  0  0  0  0  0
  194.7900  171.7140  144.6230 C   0  0  0  0  0  2  0  0  0  0  0  0
  189.8510  172.6470  140.2980 C   0  0  1  0  0  0  0  0  0  0  0  0
  188.8260  174.3070  141.7950 C   0  0  2  0  0  3  0  0  0  0  0  0
  190.0080  171.1990  139.9150 C   0  0  0  0  0  0  0  0  0  0  0  0
  190.4790  170.2270  140.9540 C   0  0  0  0  0  2  0  0  0  0  0  0
  190.0200  175.2420  143.8220 C   0  0  2  0  0  3  0  0  0  0  0  0
  195.1080  172.9950  145.3840 C   0  0  2  0  0  3  0  0  0  0  0  0
  197.7750  170.9090  145.3880 C   0  0  0  0  0  1  0  0  0  0  0  0
  191.3880  176.2960  144.2930 S   0  0  0  0  0  0  0  0  0  0  0  0
  197.1000  171.9380  144.4900 C   0  0  1  0  0  3  0  0  0  0  0  0
  197.1910  173.3170  146.5080 O   0  0  0  0  0  1  0  0  0  0  0  0
  192.2280  173.2600  144.8360 O   0  0  0  0  0  0  0  0  0  0  0  0
  191.7740  169.7220  140.7060 O   0  0  0  0  0  0  0  0  0  0  0  0
  190.8680  177.6160  144.8050 O   0  0  0  0  0  0  0  0  0  0  0  0
  189.6810  173.0480  141.7630 C   0  0  0  0  0  2  0  0  0  0  0  0
  193.6410  169.2580  142.6650 C   0  0  0  0  0  1  0  0  0  0  0  0
  195.9560  171.3200  143.8310 N   0  0  2  0  0  0  0  0  0  0  0  0
  188.4890  174.5520  140.3640 C   0  0  0  0  0  0  0  0  0  0  0  0
  192.7250  170.7750  140.7610 C   0  0  2  0  0  3  0  0  0  0  0  0
  192.2730  176.5530  143.1020 O   0  0  0  0  0  0  0  0  0  0  0  0
  193.7890  170.5250  141.8340 C   0  0  1  0  0  0  0  0  0  0  0  0
  195.8360  171.9410  142.5120 C   0  0  0  0  0  2  0  0  0  0  0  0
  189.0440  173.5610  139.4010 C   0  0  1  0  0  3  0  0  0  0  0  0
  189.6340  175.4730  142.3610 C   0  0  0  0  0  2  0  0  0  0  0  0
  192.9480  174.2280  145.0430 C   0  0  0  0  0  0  0  0  0  0  0  0
  194.4080  174.1740  144.7130 C   0  0  0  0  0  2  0  0  0  0  0  0
  193.0730  172.9890  141.7860 C   0  0  0  0  0  1  0  0  0  0  0  0
  195.2030  171.0090  141.4700 C   0  0  1  0  0  3  0  0  0  0  0  0
  188.8330  175.4830  144.7440 C   0  0  0  0  0  2  0  0  0  0  0  0
  187.8810  176.4820  144.1160 C   0  0  0  0  0  2  0  0  0  0  0  0
  187.3790  177.4350  145.1540 C   0  0  0  0  0  3  0  0  0  0  0  0
  187.8230  177.3930  146.2920 O   0  0  0  0  0  0  0  0  0  0  0  0
  191.5400  175.2890  146.8270 C   0  0  0  0  0  2  0  0  0  0  0  0
  190.8160  177.1890  148.0360 O   0  0  0  0  0  0  0  0  0  0  0  0
  191.7260  176.4020  147.8120 C   0  0  0  0  0  3  0  0  0  0  0  0
  1 14  1  0  0  0  0
  1 18  1  1  0  0  0
  3 40  1  1  0  0  0
  5 34  1  6  0  0  0
  6 25  2  0  0  0  0
  7 11  2  0  0  0  0
  9  2  1  6  0  0  0
  9 22  1  0  0  0  0
 10 22  1  6  0  0  0
 10 31  1  0  0  0  0
 11  9  1  0  0  0  0
 11 12  1  0  0  0  0
 13 16  1  0  0  0  0
 13 36  1  1  0  0  0
 14  8  1  6  0  0  0
 16 21  2  0  0  0  0
 16  3  1  0  0  0  0
 17  1  1  0  0  0  0
 17 15  1  1  0  0  0
 19 32  2  0  0  0  0
 20 12  1  0  0  0  0
 24 29  1  6  0  0  0
 24 17  1  0  0  0  0
 24  8  1  0  0  0  0
 25 10  1  0  0  0  0
 26 20  1  1  0  0  0
 26 28  1  0  0  0  0
 26  5  1  0  0  0  0
 27 16  2  0  0  0  0
 28  5  1  0  0  0  0
 28 23  1  1  0  0  0
 30  2  1  6  0  0  0
 30  9  1  0  0  0  0
 30 25  1  0  0  0  0
 31 13  1  0  0  0  0
 32  3  1  0  0  0  0
 33 32  1  0  0  0  0
 33 14  1  0  0  0  0
 35  4  1  1  0  0  0
 35 28  1  0  0  0  0
 35 29  1  0  0  0  0
 37 36  1  0  0  0  0
 37 38  1  0  0  0  0
 38 39  2  0  0  0  0
 40 42  1  0  0  0  0
 42 41  2  0  0  0  0
M  END
>  <MODEL>
6

>  <REMARK>
 VINA RESULT:      -6.6      1.902      5.932
  Name = 
  5 active torsions:
  status: ('A' for Active; 'I' for Inactive)
    1  A    between atoms: C_1  and  C_14
    2  A    between atoms: C_1  and  C_25
    3  A    between atoms: C_4  and  C_21
    4  A    between atoms: C_21  and  C_34
    5  A    between atoms: C_24  and  C_25
                            x       y       z     vdW  Elec       q    Type
                         _______ _______ _______ _____ _____    ______ ____

>  <TORSDO>
F 5

$$$$
=
 OpenBabel11062419373D

 42 46  0  0  1  0  0  0  0  0999 V2000
  191.8940  169.8380  139.8310 C   0  0  2  0  0  3  0  0  0  0  0  0
  192.2190  174.9140  146.5250 C   0  0  0  0  0  2  0  0  0  0  0  0
  188.9470  173.5400  140.8590 C   0  0  2  0  0  3  0  0  0  0  0  0
  196.0400  170.5210  142.9090 O   0  0  0  0  0  1  0  0  0  0  0  0
  193.7410  173.5770  143.0760 C   0  0  1  0  0  3  0  0  0  0  0  0
  189.8580  177.3060  146.9140 O   0  0  0  0  0  0  0  0  0  0  0  0
  194.9410  176.1710  146.5120 O   0  0  0  0  0  0  0  0  0  0  0  0
  193.1750  171.8060  140.3500 C   0  0  0  0  0  2  0  0  0  0  0  0
  192.7830  175.9150  145.5390 C   0  0  1  0  0  0  0  0  0  0  0  0
  190.6250  176.7700  144.7250 C   0  0  2  0  0  3  0  0  0  0  0  0
  194.2860  175.9970  145.4970 C   0  0  0  0  0  0  0  0  0  0  0  0
  194.9770  175.8510  144.1760 C   0  0  0  0  0  2  0  0  0  0  0  0
  189.3400  175.6690  142.8420 C   0  0  2  0  0  3  0  0  0  0  0  0
  191.7930  171.3390  139.9090 C   0  0  2  0  0  3  0  0  0  0  0  0
  194.1720  169.1470  138.9070 C   0  0  0  0  0  1  0  0  0  0  0  0
  188.4180  174.1890  142.4400 S   0  0  0  0  0  0  0  0  0  0  0  0
  193.3550  169.4970  140.1440 C   0  0  1  0  0  3  0  0  0  0  0  0
  191.4840  169.3830  138.5730 O   0  0  0  0  0  1  0  0  0  0  0  0
  191.2600  174.0260  140.9860 O   0  0  0  0  0  0  0  0  0  0  0  0
  195.7240  174.6590  144.0600 O   0  0  0  0  0  0  0  0  0  0  0  0
  186.9430  174.5010  142.3880 O   0  0  0  0  0  0  0  0  0  0  0  0
  191.9560  176.1780  144.2810 C   0  0  0  0  0  2  0  0  0  0  0  0
  195.8850  173.1660  141.7620 C   0  0  0  0  0  1  0  0  0  0  0  0
  193.9540  170.6520  140.8020 N   0  0  2  0  0  0  0  0  0  0  0  0
  190.7550  176.8790  146.2060 C   0  0  0  0  0  0  0  0  0  0  0  0
  194.8590  173.5360  144.1230 C   0  0  2  0  0  3  0  0  0  0  0  0
  188.6530  173.1350  143.4890 O   0  0  0  0  0  0  0  0  0  0  0  0
  194.9490  172.6770  142.8580 C   0  0  1  0  0  0  0  0  0  0  0  0
  193.7280  170.4900  142.2390 C   0  0  0  0  0  2  0  0  0  0  0  0
  192.0540  176.4160  146.7670 C   0  0  1  0  0  3  0  0  0  0  0  0
  189.4840  175.8250  144.3570 C   0  0  0  0  0  2  0  0  0  0  0  0
  190.3960  173.1620  140.9220 C   0  0  0  0  0  0  0  0  0  0  0  0
  190.7650  171.7110  140.9740 C   0  0  0  0  0  2  0  0  0  0  0  0
  192.5240  172.8900  143.6700 C   0  0  0  0  0  1  0  0  0  0  0  0
  194.8120  171.1620  143.0910 C   0  0  1  0  0  3  0  0  0  0  0  0
  188.6660  176.8890  142.2310 C   0  0  0  0  0  2  0  0  0  0  0  0
  187.7470  177.5400  143.2460 C   0  0  0  0  0  2  0  0  0  0  0  0
  186.7550  178.4170  142.5520 C   0  0  0  0  0  3  0  0  0  0  0  0
  185.7590  178.8060  143.1460 O   0  0  0  0  0  0  0  0  0  0  0  0
  188.6640  174.5410  139.7420 C   0  0  0  0  0  2  0  0  0  0  0  0
  188.0830  174.4680  137.4500 O   0  0  0  0  0  0  0  0  0  0  0  0
  188.5420  173.8650  138.4110 C   0  0  0  0  0  3  0  0  0  0  0  0
  1 18  1  6  0  0  0
  1 14  1  0  0  0  0
  1 17  1  0  0  0  0
  3 40  1  6  0  0  0
  3 32  1  0  0  0  0
  3 16  1  0  0  0  0
  5 34  1  1  0  0  0
  5 26  1  0  0  0  0
  9 22  1  6  0  0  0
  9  2  1  0  0  0  0
  9 30  1  0  0  0  0
 10 22  1  1  0  0  0
 10 25  1  0  0  0  0
 11  9  1  0  0  0  0
 11  7  2  0  0  0  0
 12 11  1  0  0  0  0
 13 36  1  1  0  0  0
 13 31  1  0  0  0  0
 14  8  1  1  0  0  0
 14 33  1  0  0  0  0
 16 13  1  0  0  0  0
 16 27  2  0  0  0  0
 17 15  1  6  0  0  0
 17 24  1  0  0  0  0
 20 12  1  0  0  0  0
 21 16  2  0  0  0  0
 24  8  1  6  0  0  0
 24 29  1  0  0  0  0
 25 30  1  0  0  0  0
 25  6  2  0  0  0  0
 26 20  1  6  0  0  0
 28 23  1  6  0  0  0
 28  5  1  0  0  0  0
 28 35  1  0  0  0  0
 28 26  1  0  0  0  0
 29 35  1  0  0  0  0
 30  2  1  1  0  0  0
 31 10  1  0  0  0  0
 32 33  1  0  0  0  0
 32 19  2  0  0  0  0
 35  4  1  6  0  0  0
 36 37  1  0  0  0  0
 38 39  2  0  0  0  0
 38 37  1  0  0  0  0
 41 42  2  0  0  0  0
 42 40  1  0  0  0  0
M  END
>  <MODEL>
7

>  <REMARK>
 VINA RESULT:      -6.5      1.839      2.218
  Name = 
  5 active torsions:
  status: ('A' for Active; 'I' for Inactive)
    1  A    between atoms: C_1  and  C_14
    2  A    between atoms: C_1  and  C_25
    3  A    between atoms: C_4  and  C_21
    4  A    between atoms: C_21  and  C_34
    5  A    between atoms: C_24  and  C_25
                            x       y       z     vdW  Elec       q    Type
                         _______ _______ _______ _____ _____    ______ ____

>  <TORSDO>
F 5

$$$$
=
 OpenBabel11062419373D

 42 46  0  0  1  0  0  0  0  0999 V2000
  189.5600  176.1970  145.0100 C   0  0  2  0  0  3  0  0  0  0  0  0
  193.3840  169.2730  142.1610 C   0  0  0  0  0  2  0  0  0  0  0  0
  194.3050  175.2330  145.0470 C   0  0  2  0  0  3  0  0  0  0  0  0
  187.5170  172.7790  141.6530 O   0  0  0  0  0  1  0  0  0  0  0  0
  191.3410  172.6510  141.5200 C   0  0  1  0  0  3  0  0  0  0  0  0
  196.7340  168.9590  142.5130 O   0  0  0  0  0  0  0  0  0  0  0  0
  192.6420  169.0170  139.2670 O   0  0  0  0  0  0  0  0  0  0  0  0
  190.2870  175.4910  142.8290 C   0  0  0  0  0  2  0  0  0  0  0  0
  193.7910  170.1650  141.0080 C   0  0  1  0  0  0  0  0  0  0  0  0
  195.8050  171.1040  142.0630 C   0  0  2  0  0  3  0  0  0  0  0  0
  192.9060  170.0860  139.7920 C   0  0  0  0  0  0  0  0  0  0  0  0
  192.3400  171.3550  139.2320 C   0  0  0  0  0  2  0  0  0  0  0  0
  195.7360  173.1290  143.5800 C   0  0  2  0  0  3  0  0  0  0  0  0
  190.7900  176.0590  144.1500 C   0  0  2  0  0  3  0  0  0  0  0  0
  187.5750  176.9720  143.6030 C   0  0  0  0  0  1  0  0  0  0  0  0
  195.1640  173.6690  145.1880 S   0  0  0  0  0  0  0  0  0  0  0  0
  188.3790  175.7880  144.1240 C   0  0  1  0  0  3  0  0  0  0  0  0
  189.4490  177.5030  145.5000 O   0  0  0  0  0  1  0  0  0  0  0  0
  193.2250  174.9050  142.9670 O   0  0  0  0  0  0  0  0  0  0  0  0
  190.9420  171.4680  139.3960 O   0  0  0  0  0  0  0  0  0  0  0  0
  196.3360  173.8220  146.1260 O   0  0  0  0  0  0  0  0  0  0  0  0
  194.5000  171.4700  141.3690 C   0  0  0  0  0  2  0  0  0  0  0  0
  189.6510  173.8130  140.0060 C   0  0  0  0  0  1  0  0  0  0  0  0
  188.9060  175.0340  142.9940 N   0  0  2  0  0  0  0  0  0  0  0  0
  195.8280  169.6140  142.0270 C   0  0  0  0  0  0  0  0  0  0  0  0
  190.6170  171.5240  140.7760 C   0  0  2  0  0  3  0  0  0  0  0  0
  194.2120  172.6550  145.7630 O   0  0  0  0  0  0  0  0  0  0  0  0
  189.8770  172.8160  141.1350 C   0  0  1  0  0  0  0  0  0  0  0  0
  188.9430  173.6280  143.3980 C   0  0  0  0  0  2  0  0  0  0  0  0
  194.6570  168.9760  141.3650 C   0  0  1  0  0  3  0  0  0  0  0  0
  195.7870  171.6030  143.5060 C   0  0  0  0  0  2  0  0  0  0  0  0
  193.0990  175.0750  144.1720 C   0  0  0  0  0  0  0  0  0  0  0  0
  191.7410  175.0610  144.8050 C   0  0  0  0  0  2  0  0  0  0  0  0
  191.5830  172.1850  142.9450 C   0  0  0  0  0  1  0  0  0  0  0  0
  188.7910  172.6630  142.2140 C   0  0  1  0  0  3  0  0  0  0  0  0
  197.0990  173.7350  143.2790 C   0  0  0  0  0  2  0  0  0  0  0  0
  197.0260  174.5880  142.0280 C   0  0  0  0  0  2  0  0  0  0  0  0
  197.9310  174.0320  140.9740 C   0  0  0  0  0  3  0  0  0  0  0  0
  197.4610  173.4640  139.9990 O   0  0  0  0  0  0  0  0  0  0  0  0
  195.2460  176.3210  144.5360 C   0  0  0  0  0  2  0  0  0  0  0  0
  194.5660  177.5410  146.4460 O   0  0  0  0  0  0  0  0  0  0  0  0
  195.1810  177.5520  145.3880 C   0  0  0  0  0  3  0  0  0  0  0  0
  1 18  1  6  0  0  0
  3 40  1  6  0  0  0
  3 16  1  0  0  0  0
  5 34  1  1  0  0  0
  7 11  2  0  0  0  0
  9 30  1  0  0  0  0
  9 22  1  1  0  0  0
  9  2  1  0  0  0  0
 10 22  1  6  0  0  0
 10 31  1  0  0  0  0
 11  9  1  0  0  0  0
 12 20  1  0  0  0  0
 12 11  1  0  0  0  0
 13 36  1  1  0  0  0
 13 16  1  0  0  0  0
 14  8  1  6  0  0  0
 14 33  1  0  0  0  0
 14  1  1  0  0  0  0
 16 27  2  0  0  0  0
 16 21  2  0  0  0  0
 17 15  1  6  0  0  0
 17  1  1  0  0  0  0
 19 32  2  0  0  0  0
 24  8  1  1  0  0  0
 24 29  1  0  0  0  0
 24 17  1  0  0  0  0
 25 10  1  0  0  0  0
 25  6  2  0  0  0  0
 26 20  1  6  0  0  0
 26 28  1  0  0  0  0
 26  5  1  0  0  0  0
 28 23  1  6  0  0  0
 28  5  1  0  0  0  0
 28 35  1  0  0  0  0
 30 25  1  0  0  0  0
 30  2  1  1  0  0  0
 31 13  1  0  0  0  0
 32 33  1  0  0  0  0
 32  3  1  0  0  0  0
 35  4  1  6  0  0  0
 35 29  1  0  0  0  0
 37 36  1  0  0  0  0
 38 37  1  0  0  0  0
 39 38  2  0  0  0  0
 40 42  1  0  0  0  0
 42 41  2  0  0  0  0
M  END
>  <MODEL>
8

>  <REMARK>
 VINA RESULT:      -6.2      2.380      8.382
  Name = 
  5 active torsions:
  status: ('A' for Active; 'I' for Inactive)
    1  A    between atoms: C_1  and  C_14
    2  A    between atoms: C_1  and  C_25
    3  A    between atoms: C_4  and  C_21
    4  A    between atoms: C_21  and  C_34
    5  A    between atoms: C_24  and  C_25
                            x       y       z     vdW  Elec       q    Type
                         _______ _______ _______ _____ _____    ______ ____

>  <TORSDO>
F 5

$$$$
=
 OpenBabel11062419373D

 42 46  0  0  1  0  0  0  0  0999 V2000
  190.4560  171.3070  138.9130 C   0  0  2  0  0  3  0  0  0  0  0  0
  195.5230  174.7900  144.6470 C   0  0  0  0  0  2  0  0  0  0  0  0
  189.1990  174.2550  142.5430 C   0  0  2  0  0  3  0  0  0  0  0  0
  195.6140  171.8610  138.4510 O   0  0  0  0  0  1  0  0  0  0  0  0
  194.2090  174.4610  140.8840 C   0  0  1  0  0  3  0  0  0  0  0  0
  194.1910  176.6920  147.1070 O   0  0  0  0  0  0  0  0  0  0  0  0
  197.5640  176.3790  143.1300 O   0  0  0  0  0  0  0  0  0  0  0  0
  191.8440  173.2700  138.9140 C   0  0  0  0  0  2  0  0  0  0  0  0
  195.3130  176.0490  143.8340 C   0  0  1  0  0  0  0  0  0  0  0  0
  193.2280  176.7580  144.9310 C   0  0  2  0  0  3  0  0  0  0  0  0
  196.3840  176.3430  142.8180 C   0  0  0  0  0  0  0  0  0  0  0  0
  195.9790  176.5870  141.3960 C   0  0  0  0  0  2  0  0  0  0  0  0
  190.9500  175.9310  144.2010 C   0  0  2  0  0  3  0  0  0  0  0  0
  190.5120  172.7270  139.4150 C   0  0  2  0  0  3  0  0  0  0  0  0
  191.4500  171.1540  136.5660 C   0  0  0  0  0  1  0  0  0  0  0  0
  189.9270  174.4630  144.1650 S   0  0  0  0  0  0  0  0  0  0  0  0
  191.7160  171.1090  138.0650 C   0  0  1  0  0  3  0  0  0  0  0  0
  189.2740  171.0870  138.1960 O   0  0  0  0  0  1  0  0  0  0  0  0
  190.9970  175.0130  141.2030 O   0  0  0  0  0  0  0  0  0  0  0  0
  196.3820  175.5620  140.5120 O   0  0  0  0  0  0  0  0  0  0  0  0
  188.8320  174.5750  145.1970 O   0  0  0  0  0  0  0  0  0  0  0  0
  193.8650  176.4660  143.5790 C   0  0  0  0  0  2  0  0  0  0  0  0
  194.8540  174.6460  138.4250 C   0  0  0  0  0  1  0  0  0  0  0  0
  192.6610  172.1630  138.4140 N   0  0  2  0  0  0  0  0  0  0  0  0
  194.3400  176.5570  145.9040 C   0  0  0  0  0  0  0  0  0  0  0  0
  195.7360  174.3450  140.8520 C   0  0  2  0  0  3  0  0  0  0  0  0
  190.7590  173.2480  144.4720 O   0  0  0  0  0  0  0  0  0  0  0  0
  194.8940  173.8040  139.6930 C   0  0  1  0  0  0  0  0  0  0  0  0
  193.4690  171.6610  139.5270 C   0  0  0  0  0  2  0  0  0  0  0  0
  195.6450  176.1640  145.3070 C   0  0  1  0  0  3  0  0  0  0  0  0
  192.0960  175.7700  145.2000 C   0  0  0  0  0  2  0  0  0  0  0  0
  190.2790  174.0740  141.5190 C   0  0  0  0  0  0  0  0  0  0  0  0
  190.5090  172.7120  140.9420 C   0  0  0  0  0  2  0  0  0  0  0  0
  193.6920  173.5010  141.9400 C   0  0  0  0  0  1  0  0  0  0  0  0
  194.8760  172.2710  139.5640 C   0  0  1  0  0  3  0  0  0  0  0  0
  190.1040  177.1510  144.5360 C   0  0  0  0  0  2  0  0  0  0  0  0
  190.0300  177.3370  146.0390 C   0  0  0  0  0  2  0  0  0  0  0  0
  188.6310  177.6780  146.4460 C   0  0  0  0  0  3  0  0  0  0  0  0
  187.7110  177.5470  145.6510 O   0  0  0  0  0  0  0  0  0  0  0  0
  188.2820  175.4280  142.2080 C   0  0  0  0  0  2  0  0  0  0  0  0
  186.1370  176.1780  142.8650 O   0  0  0  0  0  0  0  0  0  0  0  0
  186.9060  175.2310  142.7660 C   0  0  0  0  0  3  0  0  0  0  0  0
  1 18  1  6  0  0  0
  1 14  1  0  0  0  0
  3 40  1  6  0  0  0
  3 16  1  0  0  0  0
  5 34  1  1  0  0  0
  9 22  1  6  0  0  0
  9  2  1  0  0  0  0
  9 30  1  0  0  0  0
 10 22  1  6  0  0  0
 10 31  1  0  0  0  0
 10 25  1  0  0  0  0
 11  7  2  0  0  0  0
 11  9  1  0  0  0  0
 12 11  1  0  0  0  0
 13 36  1  1  0  0  0
 13 31  1  0  0  0  0
 14  8  1  1  0  0  0
 14 33  1  0  0  0  0
 16 13  1  0  0  0  0
 16 27  2  0  0  0  0
 16 21  2  0  0  0  0
 17 15  1  6  0  0  0
 17 24  1  0  0  0  0
 17  1  1  0  0  0  0
 19 32  2  0  0  0  0
 20 12  1  0  0  0  0
 24  8  1  1  0  0  0
 24 29  1  0  0  0  0
 25  6  2  0  0  0  0
 26 20  1  6  0  0  0
 26  5  1  0  0  0  0
 28 23  1  6  0  0  0
 28 26  1  0  0  0  0
 28  5  1  0  0  0  0
 29 35  1  0  0  0  0
 30  2  1  1  0  0  0
 30 25  1  0  0  0  0
 32  3  1  0  0  0  0
 33 32  1  0  0  0  0
 35  4  1  6  0  0  0
 35 28  1  0  0  0  0
 36 37  1  0  0  0  0
 37 38  1  0  0  0  0
 39 38  2  0  0  0  0
 40 42  1  0  0  0  0
 42 41  2  0  0  0  0
M  END
>  <MODEL>
9

>  <REMARK>
 VINA RESULT:      -6.2      2.617      4.754
  Name = 
  5 active torsions:
  status: ('A' for Active; 'I' for Inactive)
    1  A    between atoms: C_1  and  C_14
    2  A    between atoms: C_1  and  C_25
    3  A    between atoms: C_4  and  C_21
    4  A    between atoms: C_21  and  C_34
    5  A    between atoms: C_24  and  C_25
                            x       y       z     vdW  Elec       q    Type
                         _______ _______ _______ _____ _____    ______ ____

>  <TORSDO>
F 5

$$$$
