=
 OpenBabel11062421043D

 38 40  0  0  1  0  0  0  0  0999 V2000
  192.4550  176.3090  146.9270 C   0  0  0  0  0  0  0  0  0  0  0  0
  191.4820  177.1530  148.9500 N   0  0  0  0  0  1  0  0  0  0  0  0
  193.7740  176.7540  146.8400 C   0  0  0  0  0  3  0  0  0  0  0  0
  192.9800  174.2790  145.7470 C   0  0  0  0  0  3  0  0  0  0  0  0
  191.2930  177.0030  147.5160 C   0  0  2  0  0  3  0  0  0  0  0  0
  190.1320  176.1320  147.2620 N   0  0  0  0  0  2  0  0  0  0  0  0
  192.0700  175.1170  146.3980 C   0  0  0  0  0  0  0  0  0  0  0  0
  194.7110  175.9330  146.1920 C   0  0  0  0  0  3  0  0  0  0  0  0
  190.6180  174.9220  146.5790 C   0  0  2  0  0  3  0  0  0  0  0  0
  194.3180  174.6890  145.6460 C   0  0  0  0  0  0  0  0  0  0  0  0
  189.9710  174.8010  145.2680 C   0  0  0  0  0  0  0  0  0  0  0  0
  189.4560  174.7520  144.1800 C   0  0  0  0  0  0  0  0  0  0  0  0
  188.8570  174.7410  142.8660 C   0  0  0  0  0  0  0  0  0  0  0  0
  188.4160  175.8750  142.2990 C   0  0  0  0  0  3  0  0  0  0  0  0
  189.3870  178.0710  142.2430 O   0  0  0  0  0  1  0  0  0  0  0  0
  188.4700  177.2550  142.9060 C   0  0  1  0  0  3  0  0  0  0  0  0
  186.9490  177.2440  145.4270 C   0  0  0  0  0  2  0  0  0  0  0  0
  184.5740  178.7910  145.5410 C   0  0  0  0  0  3  0  0  0  0  0  0
  186.4460  177.9920  144.2710 N   0  0  0  0  0  0  0  0  0  0  0  0
  186.5690  177.9560  146.7210 C   0  0  0  0  0  2  0  0  0  0  0  0
  186.6240  178.4800  141.9940 O   0  0  0  0  0  0  0  0  0  0  0  0
  187.1300  177.9260  143.0100 C   0  0  0  0  0  0  0  0  0  0  0  0
  185.1800  178.6650  144.3630 C   0  0  0  0  0  3  0  0  0  0  0  0
  185.1880  178.3090  146.7030 O   0  0  0  0  0  0  0  0  0  0  0  0
  188.7280  173.4550  142.1480 C   0  0  0  0  0  0  0  0  0  0  0  0
  188.5010  173.4450  140.9070 O   0  0  0  0  0  0  0  0  0  0  0  0
  188.8870  172.1480  142.8560 C   0  0  0  0  0  2  0  0  0  0  0  0
  190.1700  171.4710  142.4150 C   0  0  0  0  0  1  0  0  0  0  0  0
  195.2800  173.8270  144.8870 C   0  0  1  0  0  3  0  0  0  0  0  0
  195.1640  172.3520  145.2790 C   0  0  0  0  0  2  0  0  0  0  0  0
  196.4560  171.7890  145.8550 C   0  0  0  0  0  2  0  0  0  0  0  0
  197.1970  170.9940  144.7980 C   0  0  0  0  0  2  0  0  0  0  0  0
  197.9290  169.9710  145.4000 O   0  0  0  0  0  1  0  0  0  0  0  0
  195.2090  174.0500  143.3760 C   0  0  0  0  0  2  0  0  0  0  0  0
  196.4670  174.7290  142.8630 C   0  0  0  0  0  2  0  0  0  0  0  0
  196.2320  176.1830  142.6430 C   0  0  0  0  0  0  0  0  0  0  0  0
  195.4850  176.6070  141.5510 O   0  0  0  0  0  0  0  0  0  0  0  0
  196.6840  177.0270  143.4600 O   0  0  0  0  0  1  0  0  0  0  0  0
  1  5  1  0  0  0  0
  3  1  1  0  0  0  0
  4  7  1  0  0  0  0
  5  2  1  1  0  0  0
  6  5  1  0  0  0  0
  7  9  1  0  0  0  0
  7  1  2  0  0  0  0
  8  3  2  0  0  0  0
  9 11  1  6  0  0  0
  9  6  1  0  0  0  0
 10  4  2  0  0  0  0
 10  8  1  0  0  0  0
 12 11  3  0  0  0  0
 13 12  1  0  0  0  0
 14 13  2  0  0  0  0
 14 16  1  0  0  0  0
 16 15  1  6  0  0  0
 16 22  1  0  0  0  0
 17 20  1  0  0  0  0
 18 24  1  0  0  0  0
 19 23  1  0  0  0  0
 19 17  1  0  0  0  0
 21 22  2  0  0  0  0
 22 19  1  0  0  0  0
 23 18  2  0  0  0  0
 24 20  1  0  0  0  0
 25 27  1  0  0  0  0
 25 13  1  0  0  0  0
 26 25  2  0  0  0  0
 28 27  1  0  0  0  0
 29 34  1  6  0  0  0
 29 30  1  0  0  0  0
 29 10  1  0  0  0  0
 30 31  1  0  0  0  0
 32 33  1  0  0  0  0
 32 31  1  0  0  0  0
 35 34  1  0  0  0  0
 36 35  1  0  0  0  0
 36 38  1  0  0  0  0
 37 36  2  0  0  0  0
M  END
>  <MODEL>
1

>  <REMARK>
 VINA RESULT:      -7.0      0.000      0.000
  Name = 
  13 active torsions:
  status: ('A' for Active; 'I' for Inactive)
    1  A    between atoms: C_2  and  C_8
    2  A    between atoms: C_2  and  C_20
    3  A    between atoms: C_5  and  C_12
    4  A    between atoms: C_6  and  C_16
    5  A    between atoms: C_8  and  C_14
    6  A    between atoms: C_12  and  C_21
    7  A    between atoms: C_16  and  C_38
    8  A    between atoms: C_17  and  C_27
    9  A    between atoms: C_19  and  C_33
   10  A    between atoms: C_21  and  C_24
   11  A    between atoms: C_24  and  C_34
   12  A    between atoms: C_24  and  C_38
   13  A    between atoms: C_27  and  C_32
                            x       y       z     vdW  Elec       q    Type
                         _______ _______ _______ _____ _____    ______ ____

>  <TORSDO>
F 13

$$$$
=
 OpenBabel11062421043D

 38 40  0  0  1  0  0  0  0  0999 V2000
  192.4690  176.2890  146.9180 C   0  0  0  0  0  0  0  0  0  0  0  0
  191.4840  177.1560  148.9250 N   0  0  0  0  0  1  0  0  0  0  0  0
  193.7970  176.7110  146.8480 C   0  0  0  0  0  3  0  0  0  0  0  0
  192.9740  174.2470  145.7510 C   0  0  0  0  0  3  0  0  0  0  0  0
  191.3120  177.0050  147.4890 C   0  0  2  0  0  3  0  0  0  0  0  0
  190.1390  176.1540  147.2210 N   0  0  0  0  0  2  0  0  0  0  0  0
  192.0710  175.1020  146.3870 C   0  0  0  0  0  0  0  0  0  0  0  0
  194.7280  175.8720  146.2140 C   0  0  0  0  0  3  0  0  0  0  0  0
  190.6130  174.9340  146.5480 C   0  0  2  0  0  3  0  0  0  0  0  0
  194.3210  174.6340  145.6670 C   0  0  0  0  0  0  0  0  0  0  0  0
  189.9820  174.8200  145.2290 C   0  0  0  0  0  0  0  0  0  0  0  0
  189.4400  174.7730  144.1550 C   0  0  0  0  0  0  0  0  0  0  0  0
  188.7690  174.7660  142.8750 C   0  0  0  0  0  0  0  0  0  0  0  0
  188.2470  175.8910  142.3630 C   0  0  0  0  0  3  0  0  0  0  0  0
  189.1310  178.1230  142.3220 O   0  0  0  0  0  1  0  0  0  0  0  0
  188.2730  177.2570  143.0010 C   0  0  1  0  0  3  0  0  0  0  0  0
  186.8300  177.0700  145.5610 C   0  0  0  0  0  2  0  0  0  0  0  0
  184.4050  178.5210  145.8170 C   0  0  0  0  0  3  0  0  0  0  0  0
  186.2660  177.8530  144.4570 N   0  0  0  0  0  0  0  0  0  0  0  0
  186.4640  177.7050  146.8980 C   0  0  0  0  0  2  0  0  0  0  0  0
  186.3590  178.4550  142.2020 O   0  0  0  0  0  0  0  0  0  0  0  0
  186.9130  177.8730  143.1750 C   0  0  0  0  0  0  0  0  0  0  0  0
  184.9810  178.4740  144.6170 C   0  0  0  0  0  3  0  0  0  0  0  0
  185.0710  178.0070  146.9360 O   0  0  0  0  0  0  0  0  0  0  0  0
  188.6570  173.4910  142.1320 C   0  0  0  0  0  0  0  0  0  0  0  0
  188.4450  173.5030  140.8890 O   0  0  0  0  0  0  0  0  0  0  0  0
  188.8180  172.1730  142.8190 C   0  0  0  0  0  2  0  0  0  0  0  0
  190.0920  171.4960  142.3510 C   0  0  0  0  0  1  0  0  0  0  0  0
  195.2770  173.7520  144.9230 C   0  0  1  0  0  3  0  0  0  0  0  0
  196.6550  174.4000  144.7650 C   0  0  0  0  0  2  0  0  0  0  0  0
  196.9300  174.8680  143.3430 C   0  0  0  0  0  2  0  0  0  0  0  0
  196.7500  176.3700  143.2430 C   0  0  0  0  0  2  0  0  0  0  0  0
  196.2260  176.7040  141.9940 O   0  0  0  0  0  1  0  0  0  0  0  0
  195.3460  172.3370  145.4980 C   0  0  0  0  0  2  0  0  0  0  0  0
  196.7840  171.9120  145.7390 C   0  0  0  0  0  2  0  0  0  0  0  0
  196.8650  170.4520  146.0220 C   0  0  0  0  0  0  0  0  0  0  0  0
  197.9310  169.7090  145.5340 O   0  0  0  0  0  0  0  0  0  0  0  0
  195.9830  169.8960  146.7280 O   0  0  0  0  0  1  0  0  0  0  0  0
  1  5  1  0  0  0  0
  3  1  1  0  0  0  0
  4  7  1  0  0  0  0
  5  2  1  1  0  0  0
  6  5  1  0  0  0  0
  7  9  1  0  0  0  0
  7  1  2  0  0  0  0
  8  3  2  0  0  0  0
  9 11  1  6  0  0  0
  9  6  1  0  0  0  0
 10  4  2  0  0  0  0
 10  8  1  0  0  0  0
 12 11  3  0  0  0  0
 13 12  1  0  0  0  0
 14 13  2  0  0  0  0
 14 16  1  0  0  0  0
 16 15  1  6  0  0  0
 16 22  1  0  0  0  0
 17 20  1  0  0  0  0
 18 24  1  0  0  0  0
 19 23  1  0  0  0  0
 19 17  1  0  0  0  0
 20 24  1  0  0  0  0
 21 22  2  0  0  0  0
 22 19  1  0  0  0  0
 23 18  2  0  0  0  0
 25 27  1  0  0  0  0
 25 13  1  0  0  0  0
 26 25  2  0  0  0  0
 28 27  1  0  0  0  0
 29 30  1  1  0  0  0
 29 34  1  0  0  0  0
 29 10  1  0  0  0  0
 31 30  1  0  0  0  0
 32 31  1  0  0  0  0
 33 32  1  0  0  0  0
 34 35  1  0  0  0  0
 35 36  1  0  0  0  0
 36 38  1  0  0  0  0
 37 36  2  0  0  0  0
M  END
>  <MODEL>
2

>  <REMARK>
 VINA RESULT:      -7.0      0.585      2.880
  Name = 
  13 active torsions:
  status: ('A' for Active; 'I' for Inactive)
    1  A    between atoms: C_2  and  C_8
    2  A    between atoms: C_2  and  C_20
    3  A    between atoms: C_5  and  C_12
    4  A    between atoms: C_6  and  C_16
    5  A    between atoms: C_8  and  C_14
    6  A    between atoms: C_12  and  C_21
    7  A    between atoms: C_16  and  C_38
    8  A    between atoms: C_17  and  C_27
    9  A    between atoms: C_19  and  C_33
   10  A    between atoms: C_21  and  C_24
   11  A    between atoms: C_24  and  C_34
   12  A    between atoms: C_24  and  C_38
   13  A    between atoms: C_27  and  C_32
                            x       y       z     vdW  Elec       q    Type
                         _______ _______ _______ _____ _____    ______ ____

>  <TORSDO>
F 13

$$$$
=
 OpenBabel11062421043D

 38 40  0  0  1  0  0  0  0  0999 V2000
  189.4660  174.1110  141.8920 C   0  0  0  0  0  0  0  0  0  0  0  0
  189.5230  172.0950  140.5940 N   0  0  0  0  0  1  0  0  0  0  0  0
  188.6550  175.0430  141.2440 C   0  0  0  0  0  3  0  0  0  0  0  0
  188.8830  174.9890  144.0540 C   0  0  0  0  0  3  0  0  0  0  0  0
  190.3350  173.0810  141.2900 C   0  0  2  0  0  3  0  0  0  0  0  0
  191.0340  172.4350  142.4150 N   0  0  0  0  0  2  0  0  0  0  0  0
  189.5790  174.0860  143.2470 C   0  0  0  0  0  0  0  0  0  0  0  0
  187.9430  175.9640  142.0300 C   0  0  0  0  0  3  0  0  0  0  0  0
  190.5410  173.0450  143.6610 C   0  0  2  0  0  3  0  0  0  0  0  0
  188.0510  175.9370  143.4390 C   0  0  0  0  0  0  0  0  0  0  0  0
  191.6570  173.6670  144.3820 C   0  0  0  0  0  0  0  0  0  0  0  0
  192.5530  174.2260  144.9610 C   0  0  0  0  0  0  0  0  0  0  0  0
  193.6030  174.9420  145.6470 C   0  0  0  0  0  0  0  0  0  0  0  0
  194.8840  174.5500  145.5490 C   0  0  0  0  0  3  0  0  0  0  0  0
  196.3220  173.7670  143.7930 O   0  0  0  0  0  1  0  0  0  0  0  0
  195.3970  173.3720  144.7590 C   0  0  1  0  0  3  0  0  0  0  0  0
  194.0030  170.7880  144.9930 C   0  0  0  0  0  2  0  0  0  0  0  0
  195.3130  168.7070  146.4080 C   0  0  0  0  0  3  0  0  0  0  0  0
  195.3060  170.9790  145.6380 N   0  0  0  0  0  0  0  0  0  0  0  0
  193.8530  169.3440  144.5270 C   0  0  0  0  0  2  0  0  0  0  0  0
  197.0110  172.4460  146.2680 O   0  0  0  0  0  0  0  0  0  0  0  0
  195.9490  172.2630  145.6110 C   0  0  0  0  0  0  0  0  0  0  0  0
  195.8620  169.9190  146.4320 C   0  0  0  0  0  3  0  0  0  0  0  0
  194.2180  168.4470  145.5750 O   0  0  0  0  0  0  0  0  0  0  0  0
  193.2500  176.1190  146.4690 C   0  0  0  0  0  0  0  0  0  0  0  0
  194.1600  176.8360  146.9690 O   0  0  0  0  0  0  0  0  0  0  0  0
  191.8250  176.5040  146.7060 C   0  0  0  0  0  2  0  0  0  0  0  0
  191.3310  175.8940  148.0040 C   0  0  0  0  0  1  0  0  0  0  0  0
  187.3590  176.9520  144.2970 C   0  0  1  0  0  3  0  0  0  0  0  0
  188.2630  177.4700  145.4190 C   0  0  0  0  0  2  0  0  0  0  0  0
  187.9520  176.8380  146.7690 C   0  0  0  0  0  2  0  0  0  0  0  0
  186.4560  176.6530  146.9280 C   0  0  0  0  0  2  0  0  0  0  0  0
  185.9360  177.6650  147.7350 O   0  0  0  0  0  1  0  0  0  0  0  0
  186.7140  178.0740  143.4840 C   0  0  0  0  0  2  0  0  0  0  0  0
  185.9440  179.0280  144.3800 C   0  0  0  0  0  2  0  0  0  0  0  0
  184.4940  178.6850  144.3960 C   0  0  0  0  0  0  0  0  0  0  0  0
  183.7400  178.9120  145.5400 O   0  0  0  0  0  1  0  0  0  0  0  0
  183.9450  178.2170  143.3650 O   0  0  0  0  0  0  0  0  0  0  0  0
  1  7  1  0  0  0  0
  3  1  2  0  0  0  0
  3  8  1  0  0  0  0
  5  2  1  1  0  0  0
  5  1  1  0  0  0  0
  5  6  1  0  0  0  0
  6  9  1  0  0  0  0
  7  9  1  0  0  0  0
  7  4  2  0  0  0  0
  8 10  2  0  0  0  0
  9 11  1  6  0  0  0
 10  4  1  0  0  0  0
 10 29  1  0  0  0  0
 11 12  3  0  0  0  0
 12 13  1  0  0  0  0
 13 25  1  0  0  0  0
 14 13  2  0  0  0  0
 16 15  1  6  0  0  0
 16 14  1  0  0  0  0
 16 22  1  0  0  0  0
 17 19  1  0  0  0  0
 18 23  2  0  0  0  0
 19 23  1  0  0  0  0
 20 17  1  0  0  0  0
 20 24  1  0  0  0  0
 22 19  1  0  0  0  0
 22 21  2  0  0  0  0
 24 18  1  0  0  0  0
 25 27  1  0  0  0  0
 25 26  2  0  0  0  0
 27 28  1  0  0  0  0
 29 34  1  6  0  0  0
 29 30  1  0  0  0  0
 30 31  1  0  0  0  0
 31 32  1  0  0  0  0
 32 33  1  0  0  0  0
 34 35  1  0  0  0  0
 35 36  1  0  0  0  0
 36 37  1  0  0  0  0
 38 36  2  0  0  0  0
M  END
>  <MODEL>
3

>  <REMARK>
 VINA RESULT:      -6.8      2.996      9.497
  Name = 
  13 active torsions:
  status: ('A' for Active; 'I' for Inactive)
    1  A    between atoms: C_2  and  C_8
    2  A    between atoms: C_2  and  C_20
    3  A    between atoms: C_5  and  C_12
    4  A    between atoms: C_6  and  C_16
    5  A    between atoms: C_8  and  C_14
    6  A    between atoms: C_12  and  C_21
    7  A    between atoms: C_16  and  C_38
    8  A    between atoms: C_17  and  C_27
    9  A    between atoms: C_19  and  C_33
   10  A    between atoms: C_21  and  C_24
   11  A    between atoms: C_24  and  C_34
   12  A    between atoms: C_24  and  C_38
   13  A    between atoms: C_27  and  C_32
                            x       y       z     vdW  Elec       q    Type
                         _______ _______ _______ _____ _____    ______ ____

>  <TORSDO>
F 13

$$$$
=
 OpenBabel11062421043D

 38 40  0  0  1  0  0  0  0  0999 V2000
  189.5380  175.7720  146.2770 C   0  0  0  0  0  0  0  0  0  0  0  0
  191.3010  175.9110  147.8950 N   0  0  0  0  0  1  0  0  0  0  0  0
  188.3110  175.8680  146.9350 C   0  0  0  0  0  3  0  0  0  0  0  0
  188.6510  176.8260  144.3040 C   0  0  0  0  0  3  0  0  0  0  0  0
  190.7900  175.1590  146.7610 C   0  0  2  0  0  3  0  0  0  0  0  0
  191.7430  175.2490  145.6420 N   0  0  0  0  0  2  0  0  0  0  0  0
  189.7010  176.2310  145.0070 C   0  0  0  0  0  0  0  0  0  0  0  0
  187.2360  176.4610  146.2530 C   0  0  0  0  0  3  0  0  0  0  0  0
  191.0730  175.9510  144.5350 C   0  0  2  0  0  3  0  0  0  0  0  0
  187.4030  176.9470  144.9360 C   0  0  0  0  0  0  0  0  0  0  0  0
  191.0180  175.0800  143.3570 C   0  0  0  0  0  0  0  0  0  0  0  0
  191.0190  174.3890  142.3710 C   0  0  0  0  0  0  0  0  0  0  0  0
  191.0650  173.5810  141.1740 C   0  0  0  0  0  0  0  0  0  0  0  0
  192.2000  172.9720  140.7950 C   0  0  0  0  0  3  0  0  0  0  0  0
  194.1720  171.7960  141.4960 O   0  0  0  0  0  1  0  0  0  0  0  0
  193.5250  173.0320  141.5120 C   0  0  1  0  0  3  0  0  0  0  0  0
  194.7590  174.9510  143.3740 C   0  0  0  0  0  2  0  0  0  0  0  0
  196.6680  176.7670  142.3220 C   0  0  0  0  0  3  0  0  0  0  0  0
  195.1020  174.9890  141.9490 N   0  0  0  0  0  0  0  0  0  0  0  0
  195.9640  175.3560  144.2160 C   0  0  0  0  0  2  0  0  0  0  0  0
  194.6540  174.2430  139.7810 O   0  0  0  0  0  0  0  0  0  0  0  0
  194.4350  174.1210  141.0180 C   0  0  0  0  0  0  0  0  0  0  0  0
  195.9930  176.0050  141.4640 C   0  0  0  0  0  3  0  0  0  0  0  0
  196.5470  176.5510  143.7000 O   0  0  0  0  0  0  0  0  0  0  0  0
  189.8390  173.4360  140.3590 C   0  0  0  0  0  0  0  0  0  0  0  0
  189.8180  172.6300  139.3900 O   0  0  0  0  0  0  0  0  0  0  0  0
  188.5980  174.2080  140.6750 C   0  0  0  0  0  2  0  0  0  0  0  0
  187.7930  173.4860  141.7380 C   0  0  0  0  0  1  0  0  0  0  0  0
  186.2560  177.5190  144.1600 C   0  0  1  0  0  3  0  0  0  0  0  0
  186.1610  179.0390  144.3090 C   0  0  0  0  0  2  0  0  0  0  0  0
  185.3960  179.4650  145.5550 C   0  0  0  0  0  2  0  0  0  0  0  0
  184.0700  178.7360  145.6290 C   0  0  0  0  0  2  0  0  0  0  0  0
  184.0120  177.9740  146.7960 O   0  0  0  0  0  1  0  0  0  0  0  0
  186.2420  177.0600  142.7020 C   0  0  0  0  0  2  0  0  0  0  0  0
  186.2960  178.2450  141.7540 C   0  0  0  0  0  2  0  0  0  0  0  0
  185.6100  177.9280  140.4700 C   0  0  0  0  0  0  0  0  0  0  0  0
  184.2960  178.3290  140.2680 O   0  0  0  0  0  1  0  0  0  0  0  0
  186.2280  177.3210  139.5570 O   0  0  0  0  0  0  0  0  0  0  0  0
  1  5  1  0  0  0  0
  1  3  1  0  0  0  0
  4 10  2  0  0  0  0
  4  7  1  0  0  0  0
  5  2  1  1  0  0  0
  6  5  1  0  0  0  0
  7  1  2  0  0  0  0
  8  3  2  0  0  0  0
  9 11  1  6  0  0  0
  9  7  1  0  0  0  0
  9  6  1  0  0  0  0
 10  8  1  0  0  0  0
 12 11  3  0  0  0  0
 13 12  1  0  0  0  0
 14 13  2  0  0  0  0
 14 16  1  0  0  0  0
 16 15  1  6  0  0  0
 17 20  1  0  0  0  0
 18 24  1  0  0  0  0
 19 17  1  0  0  0  0
 21 22  2  0  0  0  0
 22 16  1  0  0  0  0
 22 19  1  0  0  0  0
 23 19  1  0  0  0  0
 23 18  2  0  0  0  0
 24 20  1  0  0  0  0
 25 27  1  0  0  0  0
 25 13  1  0  0  0  0
 26 25  2  0  0  0  0
 27 28  1  0  0  0  0
 29 34  1  6  0  0  0
 29 30  1  0  0  0  0
 29 10  1  0  0  0  0
 30 31  1  0  0  0  0
 31 32  1  0  0  0  0
 32 33  1  0  0  0  0
 35 34  1  0  0  0  0
 36 35  1  0  0  0  0
 37 36  1  0  0  0  0
 38 36  2  0  0  0  0
M  END
>  <MODEL>
4

>  <REMARK>
 VINA RESULT:      -6.7      2.516      8.457
  Name = 
  13 active torsions:
  status: ('A' for Active; 'I' for Inactive)
    1  A    between atoms: C_2  and  C_8
    2  A    between atoms: C_2  and  C_20
    3  A    between atoms: C_5  and  C_12
    4  A    between atoms: C_6  and  C_16
    5  A    between atoms: C_8  and  C_14
    6  A    between atoms: C_12  and  C_21
    7  A    between atoms: C_16  and  C_38
    8  A    between atoms: C_17  and  C_27
    9  A    between atoms: C_19  and  C_33
   10  A    between atoms: C_21  and  C_24
   11  A    between atoms: C_24  and  C_34
   12  A    between atoms: C_24  and  C_38
   13  A    between atoms: C_27  and  C_32
                            x       y       z     vdW  Elec       q    Type
                         _______ _______ _______ _____ _____    ______ ____

>  <TORSDO>
F 13

$$$$
=
 OpenBabel11062421043D

 38 40  0  0  1  0  0  0  0  0999 V2000
  188.1910  175.0240  140.9790 C   0  0  0  0  0  0  0  0  0  0  0  0
  188.4900  173.2730  139.3670 N   0  0  0  0  0  1  0  0  0  0  0  0
  187.6030  176.1210  140.3490 C   0  0  0  0  0  3  0  0  0  0  0  0
  187.1240  175.5510  143.0700 C   0  0  0  0  0  3  0  0  0  0  0  0
  189.1410  174.0470  140.4120 C   0  0  2  0  0  3  0  0  0  0  0  0
  189.5130  173.1540  141.5240 N   0  0  0  0  0  2  0  0  0  0  0  0
  187.9630  174.7490  142.2910 C   0  0  0  0  0  0  0  0  0  0  0  0
  186.7550  176.9450  141.1070 C   0  0  0  0  0  3  0  0  0  0  0  0
  188.7510  173.5740  142.7120 C   0  0  2  0  0  3  0  0  0  0  0  0
  186.5080  176.6600  142.4700 C   0  0  0  0  0  0  0  0  0  0  0  0
  189.6770  173.9610  143.7820 C   0  0  0  0  0  0  0  0  0  0  0  0
  190.3950  174.2740  144.6960 C   0  0  0  0  0  0  0  0  0  0  0  0
  191.2170  174.6410  145.8260 C   0  0  0  0  0  0  0  0  0  0  0  0
  192.5410  174.4150  145.8190 C   0  0  0  0  0  3  0  0  0  0  0  0
  194.2470  174.6740  144.1490 O   0  0  0  0  0  1  0  0  0  0  0  0
  193.3300  173.7790  144.7030 C   0  0  1  0  0  3  0  0  0  0  0  0
  192.1890  171.1740  143.9410 C   0  0  0  0  0  2  0  0  0  0  0  0
  193.7180  168.8500  144.5000 C   0  0  0  0  0  3  0  0  0  0  0  0
  193.4820  171.2340  144.6290 N   0  0  0  0  0  0  0  0  0  0  0  0
  192.1630  169.9970  142.9710 C   0  0  0  0  0  2  0  0  0  0  0  0
  195.0570  172.5170  145.7810 O   0  0  0  0  0  0  0  0  0  0  0  0
  194.0020  172.4910  145.0890 C   0  0  0  0  0  0  0  0  0  0  0  0
  194.1520  170.0130  144.9800 C   0  0  0  0  0  3  0  0  0  0  0  0
  192.6330  168.8150  143.6150 O   0  0  0  0  0  0  0  0  0  0  0  0
  190.5790  175.2690  147.0030 C   0  0  0  0  0  0  0  0  0  0  0  0
  191.1620  175.2500  148.1210 O   0  0  0  0  0  0  0  0  0  0  0  0
  189.2580  175.9590  146.8970 C   0  0  0  0  0  2  0  0  0  0  0  0
  189.4520  177.3810  146.4070 C   0  0  0  0  0  1  0  0  0  0  0  0
  185.6650  177.5610  143.3190 C   0  0  1  0  0  3  0  0  0  0  0  0
  186.4610  178.1750  144.4740 C   0  0  0  0  0  2  0  0  0  0  0  0
  185.5790  178.9020  145.4800 C   0  0  0  0  0  2  0  0  0  0  0  0
  184.8820  177.9030  146.3830 C   0  0  0  0  0  2  0  0  0  0  0  0
  185.7350  176.8330  146.6540 O   0  0  0  0  0  1  0  0  0  0  0  0
  184.9020  178.6030  142.5010 C   0  0  0  0  0  2  0  0  0  0  0  0
  183.4170  178.2880  142.4610 C   0  0  0  0  0  2  0  0  0  0  0  0
  182.9290  178.2110  141.0560 C   0  0  0  0  0  0  0  0  0  0  0  0
  181.5660  178.2540  140.7920 O   0  0  0  0  0  1  0  0  0  0  0  0
  183.7500  178.1370  140.1050 O   0  0  0  0  0  0  0  0  0  0  0  0
  1  7  1  0  0  0  0
  3  1  2  0  0  0  0
  3  8  1  0  0  0  0
  5  2  1  6  0  0  0
  5  1  1  0  0  0  0
  5  6  1  0  0  0  0
  6  9  1  0  0  0  0
  7  9  1  0  0  0  0
  7  4  2  0  0  0  0
  8 10  2  0  0  0  0
  9 11  1  1  0  0  0
 10  4  1  0  0  0  0
 10 29  1  0  0  0  0
 11 12  3  0  0  0  0
 12 13  1  0  0  0  0
 13 25  1  0  0  0  0
 14 13  2  0  0  0  0
 16 15  1  1  0  0  0
 16 22  1  0  0  0  0
 16 14  1  0  0  0  0
 17 19  1  0  0  0  0
 18 23  2  0  0  0  0
 19 23  1  0  0  0  0
 19 22  1  0  0  0  0
 20 24  1  0  0  0  0
 20 17  1  0  0  0  0
 22 21  2  0  0  0  0
 24 18  1  0  0  0  0
 25 26  2  0  0  0  0
 27 25  1  0  0  0  0
 28 27  1  0  0  0  0
 29 34  1  6  0  0  0
 29 30  1  0  0  0  0
 30 31  1  0  0  0  0
 31 32  1  0  0  0  0
 32 33  1  0  0  0  0
 35 34  1  0  0  0  0
 36 35  1  0  0  0  0
 37 36  1  0  0  0  0
 38 36  2  0  0  0  0
M  END
>  <MODEL>
5

>  <REMARK>
 VINA RESULT:      -6.7      3.196      9.664
  Name = 
  13 active torsions:
  status: ('A' for Active; 'I' for Inactive)
    1  A    between atoms: C_2  and  C_8
    2  A    between atoms: C_2  and  C_20
    3  A    between atoms: C_5  and  C_12
    4  A    between atoms: C_6  and  C_16
    5  A    between atoms: C_8  and  C_14
    6  A    between atoms: C_12  and  C_21
    7  A    between atoms: C_16  and  C_38
    8  A    between atoms: C_17  and  C_27
    9  A    between atoms: C_19  and  C_33
   10  A    between atoms: C_21  and  C_24
   11  A    between atoms: C_24  and  C_34
   12  A    between atoms: C_24  and  C_38
   13  A    between atoms: C_27  and  C_32
                            x       y       z     vdW  Elec       q    Type
                         _______ _______ _______ _____ _____    ______ ____

>  <TORSDO>
F 13

$$$$
=
 OpenBabel11062421043D

 38 40  0  0  1  0  0  0  0  0999 V2000
  188.1150  175.1860  140.7460 C   0  0  0  0  0  0  0  0  0  0  0  0
  188.5210  173.0960  139.6410 N   0  0  0  0  0  1  0  0  0  0  0  0
  187.5500  176.0770  139.8330 C   0  0  0  0  0  3  0  0  0  0  0  0
  186.9280  176.1900  142.5810 C   0  0  0  0  0  3  0  0  0  0  0  0
  189.1050  174.1210  140.4910 C   0  0  2  0  0  3  0  0  0  0  0  0
  189.4250  173.5440  141.8070 N   0  0  0  0  0  2  0  0  0  0  0  0
  187.8180  175.2410  142.0710 C   0  0  0  0  0  0  0  0  0  0  0  0
  186.6520  177.0430  140.3160 C   0  0  0  0  0  3  0  0  0  0  0  0
  188.5950  174.2270  142.8130 C   0  0  2  0  0  3  0  0  0  0  0  0
  186.3340  177.1000  141.6930 C   0  0  0  0  0  0  0  0  0  0  0  0
  189.4550  174.8910  143.7980 C   0  0  0  0  0  0  0  0  0  0  0  0
  190.1320  175.4810  144.5990 C   0  0  0  0  0  0  0  0  0  0  0  0
  190.9130  176.2300  145.5570 C   0  0  0  0  0  0  0  0  0  0  0  0
  192.2370  176.3860  145.3970 C   0  0  0  0  0  3  0  0  0  0  0  0
  192.9150  176.5920  143.1030 O   0  0  0  0  0  1  0  0  0  0  0  0
  193.0690  175.8360  144.2660 C   0  0  1  0  0  3  0  0  0  0  0  0
  194.0790  173.3200  145.4130 C   0  0  0  0  0  2  0  0  0  0  0  0
  196.8850  173.0510  145.7390 C   0  0  0  0  0  3  0  0  0  0  0  0
  195.0130  174.3990  145.0770 N   0  0  0  0  0  0  0  0  0  0  0  0
  194.7420  171.9630  145.1950 C   0  0  0  0  0  2  0  0  0  0  0  0
  195.3260  176.6220  144.4330 O   0  0  0  0  0  0  0  0  0  0  0  0
  194.5220  175.6640  144.6070 C   0  0  0  0  0  0  0  0  0  0  0  0
  196.4100  174.2390  145.3700 C   0  0  0  0  0  3  0  0  0  0  0  0
  196.0330  171.9420  145.8000 O   0  0  0  0  0  0  0  0  0  0  0  0
  190.2330  176.8240  146.7280 C   0  0  0  0  0  0  0  0  0  0  0  0
  190.7900  176.8000  147.8590 O   0  0  0  0  0  0  0  0  0  0  0  0
  188.8990  177.4860  146.6010 C   0  0  0  0  0  2  0  0  0  0  0  0
  187.7940  176.4890  146.8940 C   0  0  0  0  0  1  0  0  0  0  0  0
  185.4360  178.1640  142.2460 C   0  0  1  0  0  3  0  0  0  0  0  0
  184.2530  178.4580  141.3210 C   0  0  0  0  0  2  0  0  0  0  0  0
  182.9060  178.2880  142.0100 C   0  0  0  0  0  2  0  0  0  0  0  0
  181.7860  178.3400  140.9890 C   0  0  0  0  0  2  0  0  0  0  0  0
  180.5590  178.1350  141.6200 O   0  0  0  0  0  1  0  0  0  0  0  0
  185.0120  177.8880  143.6890 C   0  0  0  0  0  2  0  0  0  0  0  0
  185.6160  178.9040  144.6420 C   0  0  0  0  0  2  0  0  0  0  0  0
  185.0670  178.7340  146.0160 C   0  0  0  0  0  0  0  0  0  0  0  0
  185.6400  179.4150  147.0820 O   0  0  0  0  0  1  0  0  0  0  0  0
  184.0660  177.9960  146.2090 O   0  0  0  0  0  0  0  0  0  0  0  0
  1  7  1  0  0  0  0
  3  8  1  0  0  0  0
  3  1  2  0  0  0  0
  5  2  1  6  0  0  0
  5  1  1  0  0  0  0
  5  6  1  0  0  0  0
  6  9  1  0  0  0  0
  7  4  2  0  0  0  0
  7  9  1  0  0  0  0
  8 10  2  0  0  0  0
  9 11  1  1  0  0  0
 10 29  1  0  0  0  0
 10  4  1  0  0  0  0
 11 12  3  0  0  0  0
 12 13  1  0  0  0  0
 13 25  1  0  0  0  0
 14 13  2  0  0  0  0
 16 15  1  6  0  0  0
 16 22  1  0  0  0  0
 16 14  1  0  0  0  0
 18 24  1  0  0  0  0
 19 23  1  0  0  0  0
 19 17  1  0  0  0  0
 20 17  1  0  0  0  0
 20 24  1  0  0  0  0
 21 22  2  0  0  0  0
 22 19  1  0  0  0  0
 23 18  2  0  0  0  0
 25 26  2  0  0  0  0
 27 25  1  0  0  0  0
 27 28  1  0  0  0  0
 29 30  1  6  0  0  0
 29 34  1  0  0  0  0
 30 31  1  0  0  0  0
 32 33  1  0  0  0  0
 32 31  1  0  0  0  0
 34 35  1  0  0  0  0
 35 36  1  0  0  0  0
 36 38  2  0  0  0  0
 36 37  1  0  0  0  0
M  END
>  <MODEL>
6

>  <REMARK>
 VINA RESULT:      -6.6      2.891      9.930
  Name = 
  13 active torsions:
  status: ('A' for Active; 'I' for Inactive)
    1  A    between atoms: C_2  and  C_8
    2  A    between atoms: C_2  and  C_20
    3  A    between atoms: C_5  and  C_12
    4  A    between atoms: C_6  and  C_16
    5  A    between atoms: C_8  and  C_14
    6  A    between atoms: C_12  and  C_21
    7  A    between atoms: C_16  and  C_38
    8  A    between atoms: C_17  and  C_27
    9  A    between atoms: C_19  and  C_33
   10  A    between atoms: C_21  and  C_24
   11  A    between atoms: C_24  and  C_34
   12  A    between atoms: C_24  and  C_38
   13  A    between atoms: C_27  and  C_32
                            x       y       z     vdW  Elec       q    Type
                         _______ _______ _______ _____ _____    ______ ____

>  <TORSDO>
F 13

$$$$
=
 OpenBabel11062421043D

 38 40  0  0  1  0  0  0  0  0999 V2000
  191.7900  176.4820  146.1590 C   0  0  0  0  0  0  0  0  0  0  0  0
  194.0160  176.9970  146.8880 N   0  0  0  0  0  1  0  0  0  0  0  0
  190.9290  176.5470  147.2540 C   0  0  0  0  0  3  0  0  0  0  0  0
  190.0520  177.1810  144.6500 C   0  0  0  0  0  3  0  0  0  0  0  0
  193.2040  176.0580  146.1310 C   0  0  2  0  0  3  0  0  0  0  0  0
  193.6080  176.0900  144.7150 N   0  0  0  0  0  2  0  0  0  0  0  0
  191.3670  176.7840  144.9020 C   0  0  0  0  0  0  0  0  0  0  0  0
  189.6000  176.9430  147.0320 C   0  0  0  0  0  3  0  0  0  0  0  0
  192.4600  176.5750  143.9300 C   0  0  2  0  0  3  0  0  0  0  0  0
  189.1570  177.2660  145.7280 C   0  0  0  0  0  0  0  0  0  0  0  0
  192.0610  175.5560  142.9540 C   0  0  0  0  0  0  0  0  0  0  0  0
  191.7310  174.7580  142.1150 C   0  0  0  0  0  0  0  0  0  0  0  0
  191.3380  173.8390  141.0720 C   0  0  0  0  0  0  0  0  0  0  0  0
  192.2540  173.1240  140.4000 C   0  0  0  0  0  3  0  0  0  0  0  0
  194.4050  172.2420  139.7980 O   0  0  0  0  0  1  0  0  0  0  0  0
  193.7460  173.1650  140.6110 C   0  0  1  0  0  3  0  0  0  0  0  0
  195.5020  174.3010  142.6850 C   0  0  0  0  0  2  0  0  0  0  0  0
  196.7740  176.7750  142.1270 C   0  0  0  0  0  3  0  0  0  0  0  0
  195.2720  175.0350  141.4370 N   0  0  0  0  0  0  0  0  0  0  0  0
  196.9150  174.5590  143.1960 C   0  0  0  0  0  2  0  0  0  0  0  0
  194.0680  175.2340  139.4460 O   0  0  0  0  0  0  0  0  0  0  0  0
  194.3440  174.5360  140.4610 C   0  0  0  0  0  0  0  0  0  0  0  0
  195.8600  176.3340  141.2650 C   0  0  0  0  0  3  0  0  0  0  0  0
  197.1980  175.9570  143.1810 O   0  0  0  0  0  0  0  0  0  0  0  0
  189.9020  173.6970  140.7460 C   0  0  0  0  0  0  0  0  0  0  0  0
  189.5150  173.7920  139.5490 O   0  0  0  0  0  0  0  0  0  0  0  0
  188.8870  173.4130  141.8060 C   0  0  0  0  0  2  0  0  0  0  0  0
  188.1400  174.6840  142.1640 C   0  0  0  0  0  1  0  0  0  0  0  0
  187.7280  177.6210  145.4510 C   0  0  1  0  0  3  0  0  0  0  0  0
  187.4830  177.9080  143.9680 C   0  0  0  0  0  2  0  0  0  0  0  0
  186.3110  178.8520  143.7330 C   0  0  0  0  0  2  0  0  0  0  0  0
  185.3010  178.2090  142.8030 C   0  0  0  0  0  2  0  0  0  0  0  0
  185.5140  176.8310  142.7510 O   0  0  0  0  0  1  0  0  0  0  0  0
  186.7430  176.6080  146.0340 C   0  0  0  0  0  2  0  0  0  0  0  0
  186.1560  177.1050  147.3440 C   0  0  0  0  0  2  0  0  0  0  0  0
  185.2830  178.2900  147.1160 C   0  0  0  0  0  0  0  0  0  0  0  0
  184.0890  178.1490  146.4220 O   0  0  0  0  0  0  0  0  0  0  0  0
  185.6120  179.4150  147.5770 O   0  0  0  0  0  1  0  0  0  0  0  0
  1  3  1  0  0  0  0
  4  7  1  0  0  0  0
  4 10  2  0  0  0  0
  5  1  1  0  0  0  0
  5  2  1  1  0  0  0
  6  5  1  0  0  0  0
  7  1  2  0  0  0  0
  8  3  2  0  0  0  0
  9 11  1  6  0  0  0
  9  6  1  0  0  0  0
  9  7  1  0  0  0  0
 10  8  1  0  0  0  0
 12 11  3  0  0  0  0
 13 12  1  0  0  0  0
 14 16  1  0  0  0  0
 14 13  2  0  0  0  0
 16 15  1  6  0  0  0
 17 20  1  0  0  0  0
 18 24  1  0  0  0  0
 19 17  1  0  0  0  0
 21 22  2  0  0  0  0
 22 16  1  0  0  0  0
 22 19  1  0  0  0  0
 23 19  1  0  0  0  0
 23 18  2  0  0  0  0
 24 20  1  0  0  0  0
 25 13  1  0  0  0  0
 25 27  1  0  0  0  0
 26 25  2  0  0  0  0
 27 28  1  0  0  0  0
 29 30  1  6  0  0  0
 29 10  1  0  0  0  0
 29 34  1  0  0  0  0
 31 30  1  0  0  0  0
 32 31  1  0  0  0  0
 33 32  1  0  0  0  0
 34 35  1  0  0  0  0
 36 35  1  0  0  0  0
 36 38  1  0  0  0  0
 37 36  2  0  0  0  0
M  END
>  <MODEL>
7

>  <REMARK>
 VINA RESULT:      -6.5      2.589      8.335
  Name = 
  13 active torsions:
  status: ('A' for Active; 'I' for Inactive)
    1  A    between atoms: C_2  and  C_8
    2  A    between atoms: C_2  and  C_20
    3  A    between atoms: C_5  and  C_12
    4  A    between atoms: C_6  and  C_16
    5  A    between atoms: C_8  and  C_14
    6  A    between atoms: C_12  and  C_21
    7  A    between atoms: C_16  and  C_38
    8  A    between atoms: C_17  and  C_27
    9  A    between atoms: C_19  and  C_33
   10  A    between atoms: C_21  and  C_24
   11  A    between atoms: C_24  and  C_34
   12  A    between atoms: C_24  and  C_38
   13  A    between atoms: C_27  and  C_32
                            x       y       z     vdW  Elec       q    Type
                         _______ _______ _______ _____ _____    ______ ____

>  <TORSDO>
F 13

$$$$
=
 OpenBabel11062421043D

 38 40  0  0  1  0  0  0  0  0999 V2000
  192.3990  176.0630  146.6330 C   0  0  0  0  0  0  0  0  0  0  0  0
  191.4750  176.8680  148.6940 N   0  0  0  0  0  1  0  0  0  0  0  0
  193.7430  176.4310  146.5670 C   0  0  0  0  0  3  0  0  0  0  0  0
  192.8010  174.0630  145.3580 C   0  0  0  0  0  3  0  0  0  0  0  0
  191.2800  176.7980  147.2550 C   0  0  2  0  0  3  0  0  0  0  0  0
  190.0690  176.0140  146.9610 N   0  0  0  0  0  2  0  0  0  0  0  0
  191.9440  174.9240  146.0480 C   0  0  0  0  0  0  0  0  0  0  0  0
  194.6300  175.5860  145.8790 C   0  0  0  0  0  3  0  0  0  0  0  0
  190.4810  174.8100  146.2210 C   0  0  2  0  0  3  0  0  0  0  0  0
  194.1630  174.3960  145.2760 C   0  0  0  0  0  0  0  0  0  0  0  0
  189.8310  174.7900  144.9060 C   0  0  0  0  0  0  0  0  0  0  0  0
  189.2770  174.8240  143.8370 C   0  0  0  0  0  0  0  0  0  0  0  0
  188.5970  174.9120  142.5660 C   0  0  0  0  0  0  0  0  0  0  0  0
  188.1190  176.0840  142.1190 C   0  0  0  0  0  3  0  0  0  0  0  0
  189.0750  178.2870  142.1710 O   0  0  0  0  0  1  0  0  0  0  0  0
  188.2090  177.4120  142.8280 C   0  0  1  0  0  3  0  0  0  0  0  0
  186.8770  177.2090  145.4460 C   0  0  0  0  0  2  0  0  0  0  0  0
  184.5070  178.7180  145.8410 C   0  0  0  0  0  3  0  0  0  0  0  0
  186.2860  178.0300  144.3860 N   0  0  0  0  0  0  0  0  0  0  0  0
  186.5880  177.8240  146.8120 C   0  0  0  0  0  2  0  0  0  0  0  0
  186.2940  178.6770  142.1420 O   0  0  0  0  0  0  0  0  0  0  0  0
  186.8760  178.0600  143.0770 C   0  0  0  0  0  0  0  0  0  0  0  0
  185.0260  178.6810  144.6160 C   0  0  0  0  0  3  0  0  0  0  0  0
  185.2070  178.1630  146.9190 O   0  0  0  0  0  0  0  0  0  0  0  0
  188.4250  173.6850  141.7580 C   0  0  0  0  0  0  0  0  0  0  0  0
  188.1770  172.5870  142.3250 O   0  0  0  0  0  0  0  0  0  0  0  0
  188.5120  173.7170  140.2660 C   0  0  0  0  0  2  0  0  0  0  0  0
  189.5190  172.6920  139.7820 C   0  0  0  0  0  1  0  0  0  0  0  0
  195.0710  173.5130  144.4760 C   0  0  1  0  0  3  0  0  0  0  0  0
  195.2410  172.1320  145.1130 C   0  0  0  0  0  2  0  0  0  0  0  0
  196.5590  171.9840  145.8620 C   0  0  0  0  0  2  0  0  0  0  0  0
  196.8180  170.5250  146.1810 C   0  0  0  0  0  2  0  0  0  0  0  0
  197.6070  169.9530  145.1830 O   0  0  0  0  0  1  0  0  0  0  0  0
  194.6800  173.4450  142.9990 C   0  0  0  0  0  2  0  0  0  0  0  0
  194.4560  174.8340  142.4270 C   0  0  0  0  0  2  0  0  0  0  0  0
  193.4300  174.8030  141.3480 C   0  0  0  0  0  0  0  0  0  0  0  0
  192.0810  174.7380  141.6750 O   0  0  0  0  0  1  0  0  0  0  0  0
  193.7800  174.8640  140.1410 O   0  0  0  0  0  0  0  0  0  0  0  0
  1  5  1  0  0  0  0
  3  1  1  0  0  0  0
  4  7  1  0  0  0  0
  5  2  1  1  0  0  0
  6  5  1  0  0  0  0
  7  9  1  0  0  0  0
  7  1  2  0  0  0  0
  8  3  2  0  0  0  0
  9 11  1  6  0  0  0
  9  6  1  0  0  0  0
 10  4  2  0  0  0  0
 10  8  1  0  0  0  0
 12 11  3  0  0  0  0
 13 12  1  0  0  0  0
 14 13  2  0  0  0  0
 14 16  1  0  0  0  0
 16 15  1  6  0  0  0
 16 22  1  0  0  0  0
 17 20  1  0  0  0  0
 18 24  1  0  0  0  0
 19 23  1  0  0  0  0
 19 17  1  0  0  0  0
 20 24  1  0  0  0  0
 21 22  2  0  0  0  0
 22 19  1  0  0  0  0
 23 18  2  0  0  0  0
 25 26  2  0  0  0  0
 25 13  1  0  0  0  0
 27 25  1  0  0  0  0
 28 27  1  0  0  0  0
 29 34  1  6  0  0  0
 29 30  1  0  0  0  0
 29 10  1  0  0  0  0
 30 31  1  0  0  0  0
 31 32  1  0  0  0  0
 33 32  1  0  0  0  0
 35 34  1  0  0  0  0
 36 37  1  0  0  0  0
 36 35  1  0  0  0  0
 38 36  2  0  0  0  0
M  END
>  <MODEL>
8

>  <REMARK>
 VINA RESULT:      -6.5      1.293      1.479
  Name = 
  13 active torsions:
  status: ('A' for Active; 'I' for Inactive)
    1  A    between atoms: C_2  and  C_8
    2  A    between atoms: C_2  and  C_20
    3  A    between atoms: C_5  and  C_12
    4  A    between atoms: C_6  and  C_16
    5  A    between atoms: C_8  and  C_14
    6  A    between atoms: C_12  and  C_21
    7  A    between atoms: C_16  and  C_38
    8  A    between atoms: C_17  and  C_27
    9  A    between atoms: C_19  and  C_33
   10  A    between atoms: C_21  and  C_24
   11  A    between atoms: C_24  and  C_34
   12  A    between atoms: C_24  and  C_38
   13  A    between atoms: C_27  and  C_32
                            x       y       z     vdW  Elec       q    Type
                         _______ _______ _______ _____ _____    ______ ____

>  <TORSDO>
F 13

$$$$
=
 OpenBabel11062421043D

 38 40  0  0  1  0  0  0  0  0999 V2000
  190.3490  173.9050  142.6780 C   0  0  0  0  0  0  0  0  0  0  0  0
  189.8340  172.8920  140.5660 N   0  0  0  0  0  1  0  0  0  0  0  0
  189.7450  175.1620  142.7350 C   0  0  0  0  0  3  0  0  0  0  0  0
  190.1370  173.6070  145.0560 C   0  0  0  0  0  3  0  0  0  0  0  0
  190.9030  173.2110  141.4990 C   0  0  2  0  0  3  0  0  0  0  0  0
  191.4980  171.9630  142.0090 N   0  0  0  0  0  2  0  0  0  0  0  0
  190.5410  173.1560  143.7960 C   0  0  0  0  0  0  0  0  0  0  0  0
  189.3280  175.6420  143.9880 C   0  0  0  0  0  3  0  0  0  0  0  0
  191.2500  171.9060  143.4590 C   0  0  2  0  0  3  0  0  0  0  0  0
  189.5190  174.8640  145.1530 C   0  0  0  0  0  0  0  0  0  0  0  0
  192.5270  171.8560  144.1780 C   0  0  0  0  0  0  0  0  0  0  0  0
  193.5710  171.7600  144.7710 C   0  0  0  0  0  0  0  0  0  0  0  0
  194.8180  171.5940  145.4810 C   0  0  0  0  0  0  0  0  0  0  0  0
  195.6020  172.6490  145.7550 C   0  0  0  0  0  3  0  0  0  0  0  0
  195.3630  174.9180  146.5050 O   0  0  0  0  0  1  0  0  0  0  0  0
  195.3260  174.0850  145.3860 C   0  0  1  0  0  3  0  0  0  0  0  0
  194.1940  175.1060  142.8670 C   0  0  0  0  0  2  0  0  0  0  0  0
  195.9710  176.3260  141.0210 C   0  0  0  0  0  3  0  0  0  0  0  0
  195.6370  175.1940  143.1100 N   0  0  0  0  0  0  0  0  0  0  0  0
  193.7270  176.2990  142.0390 C   0  0  0  0  0  2  0  0  0  0  0  0
  197.4650  174.5920  144.4340 O   0  0  0  0  0  0  0  0  0  0  0  0
  196.2110  174.6130  144.2920 C   0  0  0  0  0  0  0  0  0  0  0  0
  196.4950  175.7230  142.0870 C   0  0  0  0  0  3  0  0  0  0  0  0
  194.5850  176.4860  140.9150 O   0  0  0  0  0  0  0  0  0  0  0  0
  195.2280  170.2370  145.9020 C   0  0  0  0  0  0  0  0  0  0  0  0
  194.4810  169.2500  145.6630 O   0  0  0  0  0  0  0  0  0  0  0  0
  196.5340  169.9960  146.5880 C   0  0  0  0  0  2  0  0  0  0  0  0
  197.5480  169.4530  145.5990 C   0  0  0  0  0  1  0  0  0  0  0  0
  189.1500  175.3800  146.5100 C   0  0  1  0  0  3  0  0  0  0  0  0
  190.3090  175.2710  147.5030 C   0  0  0  0  0  2  0  0  0  0  0  0
  191.1030  176.5640  147.6320 C   0  0  0  0  0  2  0  0  0  0  0  0
  192.4670  176.4070  146.9900 C   0  0  0  0  0  2  0  0  0  0  0  0
  192.3680  176.6000  145.6120 O   0  0  0  0  0  1  0  0  0  0  0  0
  188.5340  176.7790  146.4630 C   0  0  0  0  0  2  0  0  0  0  0  0
  187.1350  176.7820  147.0540 C   0  0  0  0  0  2  0  0  0  0  0  0
  186.1630  177.4030  146.1120 C   0  0  0  0  0  0  0  0  0  0  0  0
  184.8280  177.0200  146.1390 O   0  0  0  0  0  1  0  0  0  0  0  0
  186.5430  178.2960  145.3100 O   0  0  0  0  0  0  0  0  0  0  0  0
  1  3  2  0  0  0  0
  1  7  1  0  0  0  0
  3  8  1  0  0  0  0
  4 10  1  0  0  0  0
  5  2  1  6  0  0  0
  5  6  1  0  0  0  0
  5  1  1  0  0  0  0
  6  9  1  0  0  0  0
  7  4  2  0  0  0  0
  8 10  2  0  0  0  0
  9  7  1  0  0  0  0
  9 11  1  1  0  0  0
 10 29  1  0  0  0  0
 11 12  3  0  0  0  0
 12 13  1  0  0  0  0
 13 14  2  0  0  0  0
 13 25  1  0  0  0  0
 16 14  1  0  0  0  0
 16 15  1  1  0  0  0
 17 19  1  0  0  0  0
 18 23  2  0  0  0  0
 19 22  1  0  0  0  0
 20 17  1  0  0  0  0
 22 21  2  0  0  0  0
 22 16  1  0  0  0  0
 23 19  1  0  0  0  0
 24 18  1  0  0  0  0
 24 20  1  0  0  0  0
 25 27  1  0  0  0  0
 26 25  2  0  0  0  0
 28 27  1  0  0  0  0
 29 34  1  6  0  0  0
 29 30  1  0  0  0  0
 30 31  1  0  0  0  0
 32 31  1  0  0  0  0
 33 32  1  0  0  0  0
 34 35  1  0  0  0  0
 36 37  1  0  0  0  0
 36 35  1  0  0  0  0
 38 36  2  0  0  0  0
M  END
>  <MODEL>
9

>  <REMARK>
 VINA RESULT:      -6.4      2.904      8.302
  Name = 
  13 active torsions:
  status: ('A' for Active; 'I' for Inactive)
    1  A    between atoms: C_2  and  C_8
    2  A    between atoms: C_2  and  C_20
    3  A    between atoms: C_5  and  C_12
    4  A    between atoms: C_6  and  C_16
    5  A    between atoms: C_8  and  C_14
    6  A    between atoms: C_12  and  C_21
    7  A    between atoms: C_16  and  C_38
    8  A    between atoms: C_17  and  C_27
    9  A    between atoms: C_19  and  C_33
   10  A    between atoms: C_21  and  C_24
   11  A    between atoms: C_24  and  C_34
   12  A    between atoms: C_24  and  C_38
   13  A    between atoms: C_27  and  C_32
                            x       y       z     vdW  Elec       q    Type
                         _______ _______ _______ _____ _____    ______ ____

>  <TORSDO>
F 13

$$$$
