=
 OpenBabel11062419243D

 38 42  0  0  1  0  0  0  0  0999 V2000
  193.1610  174.7660  141.3200 C   0  0  0  0  0  0  0  0  0  0  0  0
  196.1710  173.2190  140.9280 N   0  0  0  0  0  1  0  0  0  0  0  0
  196.3130  175.6170  142.7990 N   0  0  0  0  0  0  0  0  0  0  0  0
  196.0310  176.2260  143.9550 N   0  0  0  0  0  0  0  0  0  0  0  0
  194.0380  174.1890  140.2480 C   0  0  2  0  0  3  0  0  0  0  0  0
  194.0010  175.3860  142.3370 C   0  0  0  0  0  0  0  0  0  0  0  0
  191.9440  174.2910  141.5560 C   0  0  0  0  0  2  0  0  0  0  0  0
  194.7440  176.4500  144.3490 C   0  0  0  0  0  3  0  0  0  0  0  0
  195.4810  174.4760  140.6990 C   0  0  1  0  0  3  0  0  0  0  0  0
  195.3100  175.2000  141.9880 C   0  0  0  0  0  0  0  0  0  0  0  0
  193.6730  176.0390  143.5380 C   0  0  0  0  0  0  0  0  0  0  0  0
  187.9820  176.7860  146.5330 C   0  0  0  0  0  0  0  0  0  0  0  0
  191.6880  175.5930  144.8770 C   0  0  0  0  0  3  0  0  0  0  0  0
  188.6000  177.5810  145.7060 N   0  0  0  0  0  0  0  0  0  0  0  0
  191.6440  177.6320  143.4360 C   0  0  0  0  0  2  0  0  0  0  0  0
  189.9660  177.3370  145.2490 C   0  0  1  0  0  3  0  0  0  0  0  0
  188.6150  175.4680  146.9580 C   0  0  0  0  0  2  0  0  0  0  0  0
  190.2810  175.8540  145.3180 C   0  0  2  0  0  3  0  0  0  0  0  0
  190.1670  177.7950  143.8150 C   0  0  0  0  0  2  0  0  0  0  0  0
  192.2840  176.3470  143.9370 C   0  0  0  0  0  0  0  0  0  0  0  0
  190.0560  175.4050  146.6850 N   0  0  0  0  0  2  0  0  0  0  0  0
  186.7000  177.1390  146.9610 O   0  0  0  0  0  0  0  0  0  0  0  0
  185.4970  177.7790  145.9100 P   0  0  0  0  0  0  0  0  0  0  0  0
  185.7980  179.4200  145.6360 O   0  0  0  0  0  1  0  0  0  0  0  0
  185.5260  176.9450  144.4400 O   0  0  0  0  0  0  0  0  0  0  0  0
  184.1380  177.6190  146.5500 O   0  0  0  0  0  1  0  0  0  0  0  0
  193.2740  176.2440  136.6880 O   0  0  0  0  0  1  0  0  0  0  0  0
  192.7240  174.9970  136.8770 N   0  0  0  0  0  0  0  0  0  0  0  0
  192.9400  174.3240  137.9620 C   0  0  0  0  0  0  0  0  0  0  0  0
  193.7790  174.8680  138.9870 N   0  0  0  0  0  2  0  0  0  0  0  0
  192.3220  172.9670  138.1000 C   0  0  0  0  0  2  0  0  0  0  0  0
  190.9060  172.9140  137.5200 C   0  0  1  0  0  3  0  0  0  0  0  0
  189.5520  171.5930  135.6900 S   0  0  0  0  0  0  0  0  0  0  0  0
  191.0370  170.8970  135.0600 N   0  0  0  0  0  2  0  0  0  0  0  0
  190.5440  171.5400  137.1520 N   0  0  0  0  0  0  0  0  0  0  0  0
  191.6410  170.9580  136.3820 C   0  0  0  0  0  2  0  0  0  0  0  0
  189.9480  173.4390  138.5850 C   0  0  0  0  0  2  0  0  0  0  0  0
  189.5050  172.3150  139.5030 C   0  0  0  0  0  1  0  0  0  0  0  0
  1  7  2  0  0  0  0
  1  6  1  0  0  0  0
  3  4  1  0  0  0  0
  4  8  2  0  0  0  0
  5 30  1  6  0  0  0
  5  9  1  0  0  0  0
  5  1  1  0  0  0  0
  6 11  2  0  0  0  0
  9  2  1  1  0  0  0
  9 10  1  0  0  0  0
 10  6  1  0  0  0  0
 10  3  2  0  0  0  0
 11 20  1  0  0  0  0
 11  8  1  0  0  0  0
 12 17  1  0  0  0  0
 12 22  1  0  0  0  0
 14 12  2  0  0  0  0
 15 19  1  0  0  0  0
 15 20  1  0  0  0  0
 16 19  1  6  0  0  0
 16 18  1  0  0  0  0
 16 14  1  0  0  0  0
 18 13  1  1  0  0  0
 18 21  1  0  0  0  0
 20 13  2  0  0  0  0
 21 17  1  0  0  0  0
 23 26  1  0  0  0  0
 23 22  1  0  0  0  0
 24 23  1  0  0  0  0
 25 23  2  0  0  0  0
 27 28  1  0  0  0  0
 28 29  2  0  0  0  0
 29 31  1  0  0  0  0
 29 30  1  0  0  0  0
 32 31  1  1  0  0  0
 32 37  1  0  0  0  0
 33 35  1  0  0  0  0
 34 33  1  0  0  0  0
 34 36  1  0  0  0  0
 35 32  1  0  0  0  0
 36 35  1  0  0  0  0
 37 38  1  0  0  0  0
M  END
>  <MODEL>
1

>  <REMARK>
 VINA RESULT:      -6.4      0.000      0.000
  Name = 
  8 active torsions:
  status: ('A' for Active; 'I' for Inactive)
    1  A    between atoms: P_1  and  O_13
    2  A    between atoms: C_2  and  O_13
    3  A    between atoms: C_12  and  C_27
    4  A    between atoms: C_14  and  N_35
    5  A    between atoms: C_22  and  C_27
    6  A    between atoms: C_22  and  C_30
    7  A    between atoms: N_23  and  C_27
    8  A    between atoms: C_33  and  C_38
                            x       y       z     vdW  Elec       q    Type
                         _______ _______ _______ _____ _____    ______ ____

>  <TORSDO>
F 8

$$$$
=
 OpenBabel11062419243D

 38 42  0  0  1  0  0  0  0  0999 V2000
  192.8830  174.7470  142.3860 C   0  0  0  0  0  0  0  0  0  0  0  0
  196.0270  173.4990  142.7890 N   0  0  0  0  0  1  0  0  0  0  0  0
  195.6230  176.1580  144.2160 N   0  0  0  0  0  0  0  0  0  0  0  0
  195.0810  176.9030  145.1850 N   0  0  0  0  0  0  0  0  0  0  0  0
  193.9890  174.1120  141.5950 C   0  0  2  0  0  3  0  0  0  0  0  0
  193.4650  175.6050  143.4100 C   0  0  0  0  0  0  0  0  0  0  0  0
  191.6860  174.1830  142.4870 C   0  0  0  0  0  2  0  0  0  0  0  0
  193.7290  177.0420  145.3080 C   0  0  0  0  0  3  0  0  0  0  0  0
  195.2940  174.6220  142.2320 C   0  0  1  0  0  3  0  0  0  0  0  0
  194.8270  175.5130  143.3300 C   0  0  0  0  0  0  0  0  0  0  0  0
  192.8650  176.3960  144.4070 C   0  0  0  0  0  0  0  0  0  0  0  0
  186.5540  177.4110  143.3880 C   0  0  0  0  0  0  0  0  0  0  0  0
  190.7800  177.3070  143.5400 C   0  0  0  0  0  3  0  0  0  0  0  0
  187.1450  176.6410  144.2570 N   0  0  0  0  0  0  0  0  0  0  0  0
  190.6230  175.8510  145.5620 C   0  0  0  0  0  2  0  0  0  0  0  0
  188.5850  176.3950  144.2430 C   0  0  1  0  0  3  0  0  0  0  0  0
  187.3700  178.2180  142.3870 C   0  0  0  0  0  2  0  0  0  0  0  0
  189.3040  177.5590  143.5850 C   0  0  2  0  0  3  0  0  0  0  0  0
  189.1390  176.2310  145.6460 C   0  0  0  0  0  2  0  0  0  0  0  0
  191.4070  176.6070  144.5020 C   0  0  0  0  0  0  0  0  0  0  0  0
  188.7510  177.7400  142.2500 N   0  0  0  0  0  2  0  0  0  0  0  0
  185.1630  177.5330  143.4460 O   0  0  0  0  0  0  0  0  0  0  0  0
  184.3620  178.8350  144.2360 P   0  0  0  0  0  0  0  0  0  0  0  0
  184.0620  178.4230  145.8480 O   0  0  0  0  0  1  0  0  0  0  0  0
  185.3330  180.2190  144.1760 O   0  0  0  0  0  1  0  0  0  0  0  0
  183.0510  179.1130  143.5380 O   0  0  0  0  0  0  0  0  0  0  0  0
  193.7550  175.5000  137.6590 O   0  0  0  0  0  1  0  0  0  0  0  0
  193.1960  174.2840  137.9780 N   0  0  0  0  0  0  0  0  0  0  0  0
  193.2510  173.8140  139.1840 C   0  0  0  0  0  0  0  0  0  0  0  0
  193.9180  174.5560  140.2120 N   0  0  0  0  0  2  0  0  0  0  0  0
  192.6360  172.4780  139.4630 C   0  0  0  0  0  2  0  0  0  0  0  0
  191.3800  172.2320  138.6230 C   0  0  1  0  0  3  0  0  0  0  0  0
  189.8640  170.1720  138.0010 S   0  0  0  0  0  0  0  0  0  0  0  0
  189.9670  170.5820  136.2960 N   0  0  0  0  0  2  0  0  0  0  0  0
  191.4570  170.9390  137.9350 N   0  0  0  0  0  0  0  0  0  0  0  0
  191.2860  171.1610  136.5010 C   0  0  0  0  0  2  0  0  0  0  0  0
  190.1790  172.2530  139.5640 C   0  0  0  0  0  2  0  0  0  0  0  0
  189.4780  173.5970  139.5030 C   0  0  0  0  0  1  0  0  0  0  0  0
  1  7  2  0  0  0  0
  1  6  1  0  0  0  0
  3  4  1  0  0  0  0
  4  8  2  0  0  0  0
  5 30  1  6  0  0  0
  5  9  1  0  0  0  0
  5  1  1  0  0  0  0
  6 11  2  0  0  0  0
  9  2  1  1  0  0  0
  9 10  1  0  0  0  0
 10  6  1  0  0  0  0
 10  3  2  0  0  0  0
 11 20  1  0  0  0  0
 11  8  1  0  0  0  0
 12 22  1  0  0  0  0
 12 14  2  0  0  0  0
 13 20  2  0  0  0  0
 15 19  1  0  0  0  0
 16 14  1  0  0  0  0
 16 19  1  1  0  0  0
 17 12  1  0  0  0  0
 18 13  1  6  0  0  0
 18 16  1  0  0  0  0
 20 15  1  0  0  0  0
 21 17  1  0  0  0  0
 21 18  1  0  0  0  0
 22 23  1  0  0  0  0
 23 24  1  0  0  0  0
 25 23  1  0  0  0  0
 26 23  2  0  0  0  0
 27 28  1  0  0  0  0
 28 29  2  0  0  0  0
 29 31  1  0  0  0  0
 29 30  1  0  0  0  0
 32 31  1  1  0  0  0
 32 37  1  0  0  0  0
 34 36  1  0  0  0  0
 34 33  1  0  0  0  0
 35 33  1  0  0  0  0
 35 32  1  0  0  0  0
 36 35  1  0  0  0  0
 38 37  1  0  0  0  0
M  END
>  <MODEL>
2

>  <REMARK>
 VINA RESULT:      -6.4      1.694      2.324
  Name = 
  8 active torsions:
  status: ('A' for Active; 'I' for Inactive)
    1  A    between atoms: P_1  and  O_13
    2  A    between atoms: C_2  and  O_13
    3  A    between atoms: C_12  and  C_27
    4  A    between atoms: C_14  and  N_35
    5  A    between atoms: C_22  and  C_27
    6  A    between atoms: C_22  and  C_30
    7  A    between atoms: N_23  and  C_27
    8  A    between atoms: C_33  and  C_38
                            x       y       z     vdW  Elec       q    Type
                         _______ _______ _______ _____ _____    ______ ____

>  <TORSDO>
F 8

$$$$
=
 OpenBabel11062419243D

 38 42  0  0  1  0  0  0  0  0999 V2000
  192.3400  175.7140  144.4140 C   0  0  0  0  0  0  0  0  0  0  0  0
  194.0260  177.3760  146.8640 N   0  0  0  0  0  1  0  0  0  0  0  0
  195.5300  174.9310  145.8490 N   0  0  0  0  0  0  0  0  0  0  0  0
  196.2140  174.2790  144.9030 N   0  0  0  0  0  0  0  0  0  0  0  0
  192.1100  176.3520  145.7530 C   0  0  2  0  0  3  0  0  0  0  0  0
  193.6590  175.0950  144.4050 C   0  0  0  0  0  0  0  0  0  0  0  0
  191.7140  176.1390  143.3240 C   0  0  0  0  0  2  0  0  0  0  0  0
  195.6630  173.9990  143.6870 C   0  0  0  0  0  3  0  0  0  0  0  0
  193.4000  176.1030  146.5530 C   0  0  1  0  0  3  0  0  0  0  0  0
  194.2590  175.3360  145.6090 C   0  0  0  0  0  0  0  0  0  0  0  0
  194.3470  174.3950  143.3970 C   0  0  0  0  0  0  0  0  0  0  0  0
  190.5770  172.3080  138.5670 C   0  0  0  0  0  0  0  0  0  0  0  0
  192.8540  173.0100  142.0620 C   0  0  0  0  0  3  0  0  0  0  0  0
  191.3410  173.3610  138.6330 N   0  0  0  0  0  0  0  0  0  0  0  0
  193.9410  174.9380  140.9070 C   0  0  0  0  0  2  0  0  0  0  0  0
  191.9990  173.7820  139.8670 C   0  0  1  0  0  3  0  0  0  0  0  0
  190.4470  171.3700  139.7590 C   0  0  0  0  0  2  0  0  0  0  0  0
  192.2030  172.5870  140.7810 C   0  0  2  0  0  3  0  0  0  0  0  0
  193.3570  174.4030  139.5930 C   0  0  0  0  0  2  0  0  0  0  0  0
  193.7330  174.0270  142.1060 C   0  0  0  0  0  0  0  0  0  0  0  0
  190.9060  171.9690  141.0180 N   0  0  0  0  0  2  0  0  0  0  0  0
  189.9400  172.0230  137.3560 O   0  0  0  0  0  0  0  0  0  0  0  0
  190.7600  171.9890  135.8440 P   0  0  0  0  0  0  0  0  0  0  0  0
  190.9260  173.5640  135.2520 O   0  0  0  0  0  1  0  0  0  0  0  0
  192.2890  171.2950  136.0430 O   0  0  0  0  0  1  0  0  0  0  0  0
  189.9610  171.1660  134.8600 O   0  0  0  0  0  0  0  0  0  0  0  0
  188.9400  174.3740  147.6280 O   0  0  0  0  0  1  0  0  0  0  0  0
  188.6880  175.5220  146.9120 N   0  0  0  0  0  0  0  0  0  0  0  0
  189.6420  176.1680  146.3210 C   0  0  0  0  0  0  0  0  0  0  0  0
  190.9920  175.7020  146.4200 N   0  0  0  0  0  2  0  0  0  0  0  0
  189.3030  177.4180  145.5690 C   0  0  0  0  0  2  0  0  0  0  0  0
  187.9330  177.3320  144.8900 C   0  0  1  0  0  3  0  0  0  0  0  0
  185.9690  178.9710  144.2700 S   0  0  0  0  0  0  0  0  0  0  0  0
  184.8070  177.9150  145.0600 N   0  0  0  0  0  2  0  0  0  0  0  0
  186.9770  178.2440  145.5280 N   0  0  0  0  0  0  0  0  0  0  0  0
  185.8300  177.4680  145.9940 C   0  0  0  0  0  2  0  0  0  0  0  0
  188.1160  177.7090  143.4230 C   0  0  0  0  0  2  0  0  0  0  0  0
  188.0390  176.4760  142.5430 C   0  0  0  0  0  1  0  0  0  0  0  0
  1  5  1  0  0  0  0
  4  3  2  0  0  0  0
  5 30  1  1  0  0  0
  5  9  1  0  0  0  0
  6  1  1  0  0  0  0
  6 10  2  0  0  0  0
  7  1  2  0  0  0  0
  8  4  1  0  0  0  0
  9  2  1  6  0  0  0
 10  3  1  0  0  0  0
 10  9  1  0  0  0  0
 11  8  2  0  0  0  0
 11  6  1  0  0  0  0
 12 14  2  0  0  0  0
 12 17  1  0  0  0  0
 13 20  2  0  0  0  0
 14 16  1  0  0  0  0
 15 20  1  0  0  0  0
 16 19  1  6  0  0  0
 16 18  1  0  0  0  0
 17 21  1  0  0  0  0
 18 21  1  0  0  0  0
 18 13  1  1  0  0  0
 19 15  1  0  0  0  0
 20 11  1  0  0  0  0
 22 12  1  0  0  0  0
 23 25  1  0  0  0  0
 23 22  1  0  0  0  0
 24 23  1  0  0  0  0
 26 23  2  0  0  0  0
 28 27  1  0  0  0  0
 29 30  1  0  0  0  0
 29 28  2  0  0  0  0
 31 29  1  0  0  0  0
 32 37  1  6  0  0  0
 32 35  1  0  0  0  0
 32 31  1  0  0  0  0
 33 34  1  0  0  0  0
 33 35  1  0  0  0  0
 34 36  1  0  0  0  0
 35 36  1  0  0  0  0
 38 37  1  0  0  0  0
M  END
>  <MODEL>
3

>  <REMARK>
 VINA RESULT:      -6.2      3.831      8.493
  Name = 
  8 active torsions:
  status: ('A' for Active; 'I' for Inactive)
    1  A    between atoms: P_1  and  O_13
    2  A    between atoms: C_2  and  O_13
    3  A    between atoms: C_12  and  C_27
    4  A    between atoms: C_14  and  N_35
    5  A    between atoms: C_22  and  C_27
    6  A    between atoms: C_22  and  C_30
    7  A    between atoms: N_23  and  C_27
    8  A    between atoms: C_33  and  C_38
                            x       y       z     vdW  Elec       q    Type
                         _______ _______ _______ _____ _____    ______ ____

>  <TORSDO>
F 8

$$$$
=
 OpenBabel11062419243D

 38 42  0  0  1  0  0  0  0  0999 V2000
  192.7460  173.4520  142.2460 C   0  0  0  0  0  0  0  0  0  0  0  0
  194.2420  171.8100  139.6620 N   0  0  0  0  0  1  0  0  0  0  0  0
  191.2700  171.1870  139.8920 N   0  0  0  0  0  0  0  0  0  0  0  0
  189.9840  171.5370  139.7940 N   0  0  0  0  0  0  0  0  0  0  0  0
  193.9850  172.6660  141.9340 C   0  0  2  0  0  3  0  0  0  0  0  0
  191.6260  172.8870  141.5040 C   0  0  0  0  0  0  0  0  0  0  0  0
  192.8050  174.7160  142.6460 C   0  0  0  0  0  2  0  0  0  0  0  0
  189.4600  172.5540  140.5390 C   0  0  0  0  0  3  0  0  0  0  0  0
  193.5470  171.5950  140.9200 C   0  0  1  0  0  3  0  0  0  0  0  0
  192.0910  171.8510  140.7420 C   0  0  0  0  0  0  0  0  0  0  0  0
  190.2740  173.2660  141.4360 C   0  0  0  0  0  0  0  0  0  0  0  0
  186.7850  178.0380  144.0750 C   0  0  0  0  0  0  0  0  0  0  0  0
  189.0370  175.3460  141.7130 C   0  0  0  0  0  3  0  0  0  0  0  0
  187.3150  176.9870  144.6320 N   0  0  0  0  0  0  0  0  0  0  0  0
  189.6400  174.1030  143.7940 C   0  0  0  0  0  2  0  0  0  0  0  0
  187.9320  175.9110  143.8590 C   0  0  1  0  0  3  0  0  0  0  0  0
  186.9130  178.2670  142.5740 C   0  0  0  0  0  2  0  0  0  0  0  0
  188.4260  176.4450  142.5270 C   0  0  2  0  0  3  0  0  0  0  0  0
  189.1160  175.3040  144.5910 C   0  0  0  0  0  2  0  0  0  0  0  0
  189.6860  174.3180  142.2890 C   0  0  0  0  0  0  0  0  0  0  0  0
  187.2990  177.0580  141.8370 N   0  0  0  0  0  2  0  0  0  0  0  0
  186.1620  178.9820  144.8950 O   0  0  0  0  0  0  0  0  0  0  0  0
  185.0740  178.5610  146.1590 P   0  0  0  0  0  0  0  0  0  0  0  0
  185.0500  176.8820  146.3530 O   0  0  0  0  0  1  0  0  0  0  0  0
  185.5700  179.2910  147.6010 O   0  0  0  0  0  1  0  0  0  0  0  0
  183.6860  179.0440  145.8060 O   0  0  0  0  0  0  0  0  0  0  0  0
  195.2720  170.8190  145.4560 O   0  0  0  0  0  1  0  0  0  0  0  0
  196.0600  171.7870  144.8770 N   0  0  0  0  0  0  0  0  0  0  0  0
  195.7010  172.3800  143.7830 C   0  0  0  0  0  0  0  0  0  0  0  0
  194.4720  172.0190  143.1420 N   0  0  0  0  0  2  0  0  0  0  0  0
  196.6100  173.4150  143.1970 C   0  0  0  0  0  2  0  0  0  0  0  0
  196.8400  174.5900  144.1500 C   0  0  1  0  0  3  0  0  0  0  0  0
  197.6100  175.3450  141.7490 S   0  0  0  0  0  0  0  0  0  0  0  0
  196.5570  176.7490  141.8280 N   0  0  0  0  0  2  0  0  0  0  0  0
  197.5980  175.6590  143.4890 N   0  0  0  0  0  0  0  0  0  0  0  0
  196.7090  176.7980  143.2740 C   0  0  0  0  0  2  0  0  0  0  0  0
  195.4740  175.1110  144.5840 C   0  0  0  0  0  2  0  0  0  0  0  0
  195.3260  175.0260  146.0920 C   0  0  0  0  0  1  0  0  0  0  0  0
  1  7  2  0  0  0  0
  3 10  1  0  0  0  0
  4  3  2  0  0  0  0
  4  8  1  0  0  0  0
  5  1  1  0  0  0  0
  5 30  1  1  0  0  0
  6  1  1  0  0  0  0
  8 11  2  0  0  0  0
  9  2  1  6  0  0  0
  9  5  1  0  0  0  0
 10  9  1  0  0  0  0
 10  6  2  0  0  0  0
 11  6  1  0  0  0  0
 11 20  1  0  0  0  0
 12 14  2  0  0  0  0
 12 22  1  0  0  0  0
 13 20  2  0  0  0  0
 15 19  1  0  0  0  0
 16 19  1  1  0  0  0
 16 14  1  0  0  0  0
 17 12  1  0  0  0  0
 18 13  1  6  0  0  0
 18 16  1  0  0  0  0
 20 15  1  0  0  0  0
 21 18  1  0  0  0  0
 21 17  1  0  0  0  0
 22 23  1  0  0  0  0
 23 24  1  0  0  0  0
 23 25  1  0  0  0  0
 26 23  2  0  0  0  0
 28 27  1  0  0  0  0
 29 28  2  0  0  0  0
 30 29  1  0  0  0  0
 31 29  1  0  0  0  0
 32 31  1  6  0  0  0
 32 37  1  0  0  0  0
 33 34  1  0  0  0  0
 33 35  1  0  0  0  0
 34 36  1  0  0  0  0
 35 32  1  0  0  0  0
 36 35  1  0  0  0  0
 37 38  1  0  0  0  0
M  END
>  <MODEL>
4

>  <REMARK>
 VINA RESULT:      -6.0      3.502      6.175
  Name = 
  8 active torsions:
  status: ('A' for Active; 'I' for Inactive)
    1  A    between atoms: P_1  and  O_13
    2  A    between atoms: C_2  and  O_13
    3  A    between atoms: C_12  and  C_27
    4  A    between atoms: C_14  and  N_35
    5  A    between atoms: C_22  and  C_27
    6  A    between atoms: C_22  and  C_30
    7  A    between atoms: N_23  and  C_27
    8  A    between atoms: C_33  and  C_38
                            x       y       z     vdW  Elec       q    Type
                         _______ _______ _______ _____ _____    ______ ____

>  <TORSDO>
F 8

$$$$
=
 OpenBabel11062419243D

 38 42  0  0  1  0  0  0  0  0999 V2000
  193.1070  174.1040  143.1980 C   0  0  0  0  0  0  0  0  0  0  0  0
  195.8460  172.4340  144.3470 N   0  0  0  0  0  1  0  0  0  0  0  0
  195.4690  175.1430  145.6850 N   0  0  0  0  0  0  0  0  0  0  0  0
  194.8100  175.9700  146.5030 N   0  0  0  0  0  0  0  0  0  0  0  0
  194.2760  173.3100  142.6950 C   0  0  2  0  0  3  0  0  0  0  0  0
  193.5270  174.8860  144.3540 C   0  0  0  0  0  0  0  0  0  0  0  0
  191.8560  173.7140  142.9840 C   0  0  0  0  0  2  0  0  0  0  0  0
  193.5040  176.2990  146.2880 C   0  0  0  0  0  3  0  0  0  0  0  0
  195.4380  173.6410  143.6490 C   0  0  1  0  0  3  0  0  0  0  0  0
  194.8390  174.6040  144.6140 C   0  0  0  0  0  0  0  0  0  0  0  0
  192.8120  175.7670  145.1860 C   0  0  0  0  0  0  0  0  0  0  0  0
  186.5740  177.4750  145.4410 C   0  0  0  0  0  0  0  0  0  0  0  0
  190.4490  175.8100  145.7700 C   0  0  0  0  0  3  0  0  0  0  0  0
  187.5310  177.9250  144.6810 N   0  0  0  0  0  0  0  0  0  0  0  0
  191.1550  177.1910  143.8130 C   0  0  0  0  0  2  0  0  0  0  0  0
  188.9300  177.5500  144.8680 C   0  0  1  0  0  3  0  0  0  0  0  0
  186.8550  176.4070  146.4890 C   0  0  0  0  0  2  0  0  0  0  0  0
  189.0180  176.1960  145.5480 C   0  0  2  0  0  3  0  0  0  0  0  0
  189.6690  177.4620  143.5450 C   0  0  0  0  0  2  0  0  0  0  0  0
  191.4210  176.1810  144.9180 C   0  0  0  0  0  0  0  0  0  0  0  0
  188.2820  176.2670  146.8020 N   0  0  0  0  0  2  0  0  0  0  0  0
  185.2760  177.9430  145.2220 O   0  0  0  0  0  0  0  0  0  0  0  0
  184.8450  178.9420  143.8890 P   0  0  0  0  0  0  0  0  0  0  0  0
  183.1630  179.1040  143.8200 O   0  0  0  0  0  1  0  0  0  0  0  0
  185.5540  180.4660  144.0690 O   0  0  0  0  0  1  0  0  0  0  0  0
  185.3390  178.3080  142.6090 O   0  0  0  0  0  0  0  0  0  0  0  0
  195.2030  174.6550  138.8480 O   0  0  0  0  0  1  0  0  0  0  0  0
  194.6750  173.3950  139.0110 N   0  0  0  0  0  0  0  0  0  0  0  0
  194.3790  172.9370  140.1860 C   0  0  0  0  0  0  0  0  0  0  0  0
  194.6170  173.7400  141.3480 N   0  0  0  0  0  2  0  0  0  0  0  0
  193.8200  171.5530  140.2970 C   0  0  0  0  0  2  0  0  0  0  0  0
  192.2960  171.5310  140.1550 C   0  0  1  0  0  3  0  0  0  0  0  0
  190.5510  170.3400  138.5850 S   0  0  0  0  0  0  0  0  0  0  0  0
  189.7460  171.8710  138.2790 N   0  0  0  0  0  2  0  0  0  0  0  0
  191.9040  171.4680  138.7430 N   0  0  0  0  0  0  0  0  0  0  0  0
  191.0030  172.5820  138.4570 C   0  0  0  0  0  2  0  0  0  0  0  0
  191.7770  170.3030  140.8970 C   0  0  0  0  0  2  0  0  0  0  0  0
  192.5560  170.0870  142.1800 C   0  0  0  0  0  1  0  0  0  0  0  0
  1  6  1  0  0  0  0
  3  4  1  0  0  0  0
  5 30  1  6  0  0  0
  5  1  1  0  0  0  0
  5  9  1  0  0  0  0
  6 10  1  0  0  0  0
  6 11  2  0  0  0  0
  7  1  2  0  0  0  0
  8  4  2  0  0  0  0
  9  2  1  1  0  0  0
  9 10  1  0  0  0  0
 10  3  2  0  0  0  0
 11  8  1  0  0  0  0
 12 17  1  0  0  0  0
 14 16  1  0  0  0  0
 14 12  2  0  0  0  0
 15 20  1  0  0  0  0
 16 19  1  6  0  0  0
 16 18  1  0  0  0  0
 17 21  1  0  0  0  0
 18 13  1  1  0  0  0
 18 21  1  0  0  0  0
 19 15  1  0  0  0  0
 20 11  1  0  0  0  0
 20 13  2  0  0  0  0
 22 12  1  0  0  0  0
 23 25  1  0  0  0  0
 23 22  1  0  0  0  0
 24 23  1  0  0  0  0
 26 23  2  0  0  0  0
 27 28  1  0  0  0  0
 28 29  2  0  0  0  0
 29 31  1  0  0  0  0
 29 30  1  0  0  0  0
 32 31  1  6  0  0  0
 32 37  1  0  0  0  0
 33 35  1  0  0  0  0
 34 36  1  0  0  0  0
 34 33  1  0  0  0  0
 35 32  1  0  0  0  0
 36 35  1  0  0  0  0
 37 38  1  0  0  0  0
M  END
>  <MODEL>
5

>  <REMARK>
 VINA RESULT:      -6.0      2.139      2.720
  Name = 
  8 active torsions:
  status: ('A' for Active; 'I' for Inactive)
    1  A    between atoms: P_1  and  O_13
    2  A    between atoms: C_2  and  O_13
    3  A    between atoms: C_12  and  C_27
    4  A    between atoms: C_14  and  N_35
    5  A    between atoms: C_22  and  C_27
    6  A    between atoms: C_22  and  C_30
    7  A    between atoms: N_23  and  C_27
    8  A    between atoms: C_33  and  C_38
                            x       y       z     vdW  Elec       q    Type
                         _______ _______ _______ _____ _____    ______ ____

>  <TORSDO>
F 8

$$$$
=
 OpenBabel11062419243D

 38 42  0  0  1  0  0  0  0  0999 V2000
  191.8880  173.4290  140.7860 C   0  0  0  0  0  0  0  0  0  0  0  0
  192.8430  171.9310  137.8790 N   0  0  0  0  0  1  0  0  0  0  0  0
  189.9080  171.4590  138.5390 N   0  0  0  0  0  0  0  0  0  0  0  0
  188.6500  171.8880  138.6760 N   0  0  0  0  0  0  0  0  0  0  0  0
  193.0050  172.6030  140.2190 C   0  0  2  0  0  3  0  0  0  0  0  0
  190.6290  172.9940  140.1940 C   0  0  0  0  0  0  0  0  0  0  0  0
  192.0970  174.6490  141.2640 C   0  0  0  0  0  2  0  0  0  0  0  0
  188.3210  172.8660  139.5690 C   0  0  0  0  0  3  0  0  0  0  0  0
  192.3400  171.6490  139.2120 C   0  0  1  0  0  3  0  0  0  0  0  0
  190.8960  172.0010  139.2910 C   0  0  0  0  0  0  0  0  0  0  0  0
  189.3120  173.4530  140.3740 C   0  0  0  0  0  0  0  0  0  0  0  0
  186.5870  178.1350  143.9170 C   0  0  0  0  0  0  0  0  0  0  0  0
  188.2420  175.5460  141.0090 C   0  0  0  0  0  3  0  0  0  0  0  0
  187.1640  177.0310  144.2970 N   0  0  0  0  0  0  0  0  0  0  0  0
  189.1640  174.1410  142.8570 C   0  0  0  0  0  2  0  0  0  0  0  0
  187.5790  175.9930  143.3560 C   0  0  1  0  0  3  0  0  0  0  0  0
  186.4450  178.4650  142.4370 C   0  0  0  0  0  2  0  0  0  0  0  0
  187.8410  176.6040  141.9910 C   0  0  2  0  0  3  0  0  0  0  0  0
  188.8490  175.2990  143.8130 C   0  0  0  0  0  2  0  0  0  0  0  0
  188.9400  174.4600  141.3870 C   0  0  0  0  0  0  0  0  0  0  0  0
  186.6350  177.3000  141.5650 N   0  0  0  0  0  2  0  0  0  0  0  0
  186.1690  179.0390  144.8970 O   0  0  0  0  0  0  0  0  0  0  0  0
  185.0950  178.6150  146.1730 P   0  0  0  0  0  0  0  0  0  0  0  0
  185.1300  176.9420  146.4130 O   0  0  0  0  0  1  0  0  0  0  0  0
  185.5660  179.4010  147.5950 O   0  0  0  0  0  1  0  0  0  0  0  0
  183.6920  179.0400  145.8080 O   0  0  0  0  0  0  0  0  0  0  0  0
  194.6940  170.3890  143.3370 O   0  0  0  0  0  1  0  0  0  0  0  0
  195.4270  171.3960  142.7530 N   0  0  0  0  0  0  0  0  0  0  0  0
  194.9440  172.1030  141.7810 C   0  0  0  0  0  0  0  0  0  0  0  0
  193.6300  171.8300  141.2820 N   0  0  0  0  0  2  0  0  0  0  0  0
  195.7970  173.1760  141.1800 C   0  0  0  0  0  2  0  0  0  0  0  0
  195.5170  174.5500  141.7940 C   0  0  1  0  0  3  0  0  0  0  0  0
  196.9020  176.3920  143.0660 S   0  0  0  0  0  0  0  0  0  0  0  0
  195.6880  176.4630  144.3340 N   0  0  0  0  0  2  0  0  0  0  0  0
  196.2840  174.7360  143.0310 N   0  0  0  0  0  0  0  0  0  0  0  0
  195.3560  175.0630  144.1110 C   0  0  0  0  0  2  0  0  0  0  0  0
  195.9160  175.6080  140.7690 C   0  0  0  0  0  2  0  0  0  0  0  0
  195.4270  175.2200  139.3870 C   0  0  0  0  0  1  0  0  0  0  0  0
  1  7  2  0  0  0  0
  3  4  2  0  0  0  0
  3 10  1  0  0  0  0
  4  8  1  0  0  0  0
  5  1  1  0  0  0  0
  5 30  1  1  0  0  0
  6 11  1  0  0  0  0
  6  1  1  0  0  0  0
  8 11  2  0  0  0  0
  9  2  1  6  0  0  0
  9 10  1  0  0  0  0
  9  5  1  0  0  0  0
 10  6  2  0  0  0  0
 11 20  1  0  0  0  0
 12 14  2  0  0  0  0
 12 22  1  0  0  0  0
 13 20  2  0  0  0  0
 15 19  1  0  0  0  0
 16 19  1  1  0  0  0
 16 14  1  0  0  0  0
 17 12  1  0  0  0  0
 18 13  1  6  0  0  0
 18 16  1  0  0  0  0
 20 15  1  0  0  0  0
 21 18  1  0  0  0  0
 21 17  1  0  0  0  0
 22 23  1  0  0  0  0
 23 24  1  0  0  0  0
 23 25  1  0  0  0  0
 26 23  2  0  0  0  0
 28 27  1  0  0  0  0
 29 28  2  0  0  0  0
 30 29  1  0  0  0  0
 31 29  1  0  0  0  0
 31 32  1  0  0  0  0
 32 37  1  6  0  0  0
 32 35  1  0  0  0  0
 33 34  1  0  0  0  0
 35 33  1  0  0  0  0
 35 36  1  0  0  0  0
 36 34  1  0  0  0  0
 38 37  1  0  0  0  0
M  END
>  <MODEL>
6

>  <REMARK>
 VINA RESULT:      -5.9      3.266      6.051
  Name = 
  8 active torsions:
  status: ('A' for Active; 'I' for Inactive)
    1  A    between atoms: P_1  and  O_13
    2  A    between atoms: C_2  and  O_13
    3  A    between atoms: C_12  and  C_27
    4  A    between atoms: C_14  and  N_35
    5  A    between atoms: C_22  and  C_27
    6  A    between atoms: C_22  and  C_30
    7  A    between atoms: N_23  and  C_27
    8  A    between atoms: C_33  and  C_38
                            x       y       z     vdW  Elec       q    Type
                         _______ _______ _______ _____ _____    ______ ____

>  <TORSDO>
F 8

$$$$
=
 OpenBabel11062419243D

 38 42  0  0  1  0  0  0  0  0999 V2000
  189.7310  174.8030  142.2320 C   0  0  0  0  0  0  0  0  0  0  0  0
  191.8920  173.7250  144.6360 N   0  0  0  0  0  1  0  0  0  0  0  0
  191.1360  176.6570  144.9590 N   0  0  0  0  0  0  0  0  0  0  0  0
  190.2550  177.6200  145.2480 N   0  0  0  0  0  0  0  0  0  0  0  0
  190.9870  173.9960  142.3850 C   0  0  2  0  0  3  0  0  0  0  0  0
  189.7510  175.8980  143.1920 C   0  0  0  0  0  0  0  0  0  0  0  0
  188.6190  174.2730  141.7380 C   0  0  0  0  0  2  0  0  0  0  0  0
  189.1040  177.7750  144.5320 C   0  0  0  0  0  3  0  0  0  0  0  0
  191.7650  174.6630  143.5340 C   0  0  1  0  0  3  0  0  0  0  0  0
  190.8940  175.8000  143.9370 C   0  0  0  0  0  0  0  0  0  0  0  0
  188.8140  176.9130  143.4610 C   0  0  0  0  0  0  0  0  0  0  0  0
  183.0220  178.5340  141.0690 C   0  0  0  0  0  0  0  0  0  0  0  0
  186.4150  177.2760  143.2610 C   0  0  0  0  0  3  0  0  0  0  0  0
  184.1850  178.5020  140.4850 N   0  0  0  0  0  0  0  0  0  0  0  0
  187.7550  177.3930  141.1570 C   0  0  0  0  0  2  0  0  0  0  0  0
  185.4300  178.2750  141.2170 C   0  0  1  0  0  3  0  0  0  0  0  0
  182.8870  178.1880  142.5470 C   0  0  0  0  0  2  0  0  0  0  0  0
  185.1500  177.4930  142.4870 C   0  0  2  0  0  3  0  0  0  0  0  0
  186.4310  177.4890  140.3900 C   0  0  0  0  0  2  0  0  0  0  0  0
  187.6020  177.1290  142.6460 C   0  0  0  0  0  0  0  0  0  0  0  0
  184.1650  178.2280  143.2670 N   0  0  0  0  0  2  0  0  0  0  0  0
  181.8960  178.8200  140.2930 O   0  0  0  0  0  0  0  0  0  0  0  0
  180.3950  179.3320  140.9610 P   0  0  0  0  0  0  0  0  0  0  0  0
  179.2090  178.1660  140.6540 O   0  0  0  0  0  1  0  0  0  0  0  0
  180.5600  179.5450  142.6310 O   0  0  0  0  0  1  0  0  0  0  0  0
  179.9860  180.6410  140.3280 O   0  0  0  0  0  0  0  0  0  0  0  0
  193.2090  174.3320  138.8610 O   0  0  0  0  0  1  0  0  0  0  0  0
  192.3460  173.2720  139.0140 N   0  0  0  0  0  0  0  0  0  0  0  0
  191.6440  173.1270  140.0920 C   0  0  0  0  0  0  0  0  0  0  0  0
  191.7700  174.0710  141.1610 N   0  0  0  0  0  2  0  0  0  0  0  0
  190.7330  171.9430  140.2020 C   0  0  0  0  0  2  0  0  0  0  0  0
  190.0380  171.6230  138.8760 C   0  0  1  0  0  3  0  0  0  0  0  0
  190.8380  169.7830  137.1720 S   0  0  0  0  0  0  0  0  0  0  0  0
  191.9170  169.1020  138.3800 N   0  0  0  0  0  2  0  0  0  0  0  0
  189.9660  170.1740  138.6600 N   0  0  0  0  0  0  0  0  0  0  0  0
  191.0210  169.5330  139.4420 C   0  0  0  0  0  2  0  0  0  0  0  0
  188.6310  172.2120  138.9340 C   0  0  0  0  0  2  0  0  0  0  0  0
  188.5340  173.4460  138.0560 C   0  0  0  0  0  1  0  0  0  0  0  0
  1  5  1  0  0  0  0
  1  6  1  0  0  0  0
  3  4  1  0  0  0  0
  5 30  1  6  0  0  0
  5  9  1  0  0  0  0
  6 11  2  0  0  0  0
  6 10  1  0  0  0  0
  7  1  2  0  0  0  0
  8  4  2  0  0  0  0
  9 10  1  0  0  0  0
  9  2  1  1  0  0  0
 10  3  2  0  0  0  0
 11  8  1  0  0  0  0
 12 17  1  0  0  0  0
 14 12  2  0  0  0  0
 14 16  1  0  0  0  0
 15 20  1  0  0  0  0
 16 19  1  6  0  0  0
 16 18  1  0  0  0  0
 17 21  1  0  0  0  0
 18 13  1  1  0  0  0
 18 21  1  0  0  0  0
 19 15  1  0  0  0  0
 20 13  2  0  0  0  0
 20 11  1  0  0  0  0
 22 23  1  0  0  0  0
 22 12  1  0  0  0  0
 23 25  1  0  0  0  0
 24 23  1  0  0  0  0
 26 23  2  0  0  0  0
 27 28  1  0  0  0  0
 28 29  2  0  0  0  0
 29 31  1  0  0  0  0
 29 30  1  0  0  0  0
 32 37  1  1  0  0  0
 32 31  1  0  0  0  0
 33 34  1  0  0  0  0
 33 35  1  0  0  0  0
 34 36  1  0  0  0  0
 35 32  1  0  0  0  0
 35 36  1  0  0  0  0
 38 37  1  0  0  0  0
M  END
>  <MODEL>
7

>  <REMARK>
 VINA RESULT:      -5.9      4.097      5.241
  Name = 
  8 active torsions:
  status: ('A' for Active; 'I' for Inactive)
    1  A    between atoms: P_1  and  O_13
    2  A    between atoms: C_2  and  O_13
    3  A    between atoms: C_12  and  C_27
    4  A    between atoms: C_14  and  N_35
    5  A    between atoms: C_22  and  C_27
    6  A    between atoms: C_22  and  C_30
    7  A    between atoms: N_23  and  C_27
    8  A    between atoms: C_33  and  C_38
                            x       y       z     vdW  Elec       q    Type
                         _______ _______ _______ _____ _____    ______ ____

>  <TORSDO>
F 8

$$$$
=
 OpenBabel11062419243D

 38 42  0  0  1  0  0  0  0  0999 V2000
  193.7350  173.9580  142.2110 C   0  0  0  0  0  0  0  0  0  0  0  0
  196.7240  172.6960  141.1690 N   0  0  0  0  0  1  0  0  0  0  0  0
  196.9710  175.4930  142.3460 N   0  0  0  0  0  0  0  0  0  0  0  0
  196.9380  176.3430  143.3780 N   0  0  0  0  0  0  0  0  0  0  0  0
  194.3440  173.2250  141.0510 C   0  0  2  0  0  3  0  0  0  0  0  0
  194.7100  174.9040  142.7380 C   0  0  0  0  0  0  0  0  0  0  0  0
  192.7530  173.4310  142.9300 C   0  0  0  0  0  2  0  0  0  0  0  0
  195.8090  176.5200  144.1220 C   0  0  0  0  0  3  0  0  0  0  0  0
  195.7780  173.7710  140.9280 C   0  0  1  0  0  3  0  0  0  0  0  0
  195.8680  174.7770  142.0210 C   0  0  0  0  0  0  0  0  0  0  0  0
  194.6400  175.8030  143.8170 C   0  0  0  0  0  0  0  0  0  0  0  0
  188.6180  177.0140  145.8610 C   0  0  0  0  0  0  0  0  0  0  0  0
  192.4250  176.7920  144.0290 C   0  0  0  0  0  3  0  0  0  0  0  0
  189.5170  176.2070  146.3470 N   0  0  0  0  0  0  0  0  0  0  0  0
  193.1720  175.2890  145.8770 C   0  0  0  0  0  2  0  0  0  0  0  0
  190.7760  175.9220  145.6620 C   0  0  1  0  0  3  0  0  0  0  0  0
  188.9040  177.8240  144.6030 C   0  0  0  0  0  2  0  0  0  0  0  0
  191.1490  177.0820  144.7570 C   0  0  2  0  0  3  0  0  0  0  0  0
  191.9120  175.7070  146.6450 C   0  0  0  0  0  2  0  0  0  0  0  0
  193.4010  176.0510  144.5820 C   0  0  0  0  0  0  0  0  0  0  0  0
  190.0460  177.3130  143.8350 N   0  0  0  0  0  2  0  0  0  0  0  0
  187.4190  177.1720  146.5590 O   0  0  0  0  0  0  0  0  0  0  0  0
  185.8940  177.3680  145.7840 P   0  0  0  0  0  0  0  0  0  0  0  0
  185.5780  179.0140  145.5600 O   0  0  0  0  0  1  0  0  0  0  0  0
  185.9160  176.5860  144.2850 O   0  0  0  0  0  0  0  0  0  0  0  0
  184.8130  176.7640  146.6490 O   0  0  0  0  0  1  0  0  0  0  0  0
  192.1850  174.2040  137.6090 O   0  0  0  0  0  1  0  0  0  0  0  0
  192.0310  172.9570  138.1680 N   0  0  0  0  0  0  0  0  0  0  0  0
  192.6850  172.6100  139.2310 C   0  0  0  0  0  0  0  0  0  0  0  0
  193.6030  173.5270  139.8370 N   0  0  0  0  0  2  0  0  0  0  0  0
  192.4820  171.2330  139.7820 C   0  0  0  0  0  2  0  0  0  0  0  0
  191.0010  170.8550  139.8650 C   0  0  1  0  0  3  0  0  0  0  0  0
  189.8640  169.7470  137.7660 S   0  0  0  0  0  0  0  0  0  0  0  0
  191.4330  169.2510  137.1490 N   0  0  0  0  0  2  0  0  0  0  0  0
  190.7650  169.5340  139.2720 N   0  0  0  0  0  0  0  0  0  0  0  0
  191.9470  169.1480  138.5070 C   0  0  0  0  0  2  0  0  0  0  0  0
  190.6060  170.8440  141.3390 C   0  0  0  0  0  2  0  0  0  0  0  0
  191.5300  169.9400  142.1310 C   0  0  0  0  0  1  0  0  0  0  0  0
  1  6  1  0  0  0  0
  1  7  2  0  0  0  0
  3  4  1  0  0  0  0
  4  8  2  0  0  0  0
  5 30  1  6  0  0  0
  5  1  1  0  0  0  0
  6 11  2  0  0  0  0
  9  5  1  0  0  0  0
  9  2  1  1  0  0  0
  9 10  1  0  0  0  0
 10  3  2  0  0  0  0
 10  6  1  0  0  0  0
 11  8  1  0  0  0  0
 11 20  1  0  0  0  0
 12 14  2  0  0  0  0
 12 22  1  0  0  0  0
 13 20  2  0  0  0  0
 15 19  1  0  0  0  0
 16 14  1  0  0  0  0
 16 19  1  1  0  0  0
 17 12  1  0  0  0  0
 18 13  1  6  0  0  0
 18 16  1  0  0  0  0
 20 15  1  0  0  0  0
 21 17  1  0  0  0  0
 21 18  1  0  0  0  0
 23 22  1  0  0  0  0
 23 26  1  0  0  0  0
 24 23  1  0  0  0  0
 25 23  2  0  0  0  0
 27 28  1  0  0  0  0
 28 29  2  0  0  0  0
 29 31  1  0  0  0  0
 29 30  1  0  0  0  0
 32 31  1  1  0  0  0
 32 37  1  0  0  0  0
 33 35  1  0  0  0  0
 34 33  1  0  0  0  0
 34 36  1  0  0  0  0
 35 32  1  0  0  0  0
 36 35  1  0  0  0  0
 37 38  1  0  0  0  0
M  END
>  <MODEL>
8

>  <REMARK>
 VINA RESULT:      -5.9      1.738      2.179
  Name = 
  8 active torsions:
  status: ('A' for Active; 'I' for Inactive)
    1  A    between atoms: P_1  and  O_13
    2  A    between atoms: C_2  and  O_13
    3  A    between atoms: C_12  and  C_27
    4  A    between atoms: C_14  and  N_35
    5  A    between atoms: C_22  and  C_27
    6  A    between atoms: C_22  and  C_30
    7  A    between atoms: N_23  and  C_27
    8  A    between atoms: C_33  and  C_38
                            x       y       z     vdW  Elec       q    Type
                         _______ _______ _______ _____ _____    ______ ____

>  <TORSDO>
F 8

$$$$
=
 OpenBabel11062419243D

 38 42  0  0  1  0  0  0  0  0999 V2000
  192.9800  173.4980  143.0390 C   0  0  0  0  0  0  0  0  0  0  0  0
  195.6490  171.4550  142.4750 N   0  0  0  0  0  1  0  0  0  0  0  0
  196.3900  173.9550  144.0480 N   0  0  0  0  0  0  0  0  0  0  0  0
  196.3540  174.7020  145.1560 N   0  0  0  0  0  0  0  0  0  0  0  0
  193.6140  172.6940  141.9420 C   0  0  2  0  0  3  0  0  0  0  0  0
  194.0290  174.0610  143.8800 C   0  0  0  0  0  0  0  0  0  0  0  0
  191.7470  173.2490  143.4610 C   0  0  0  0  0  2  0  0  0  0  0  0
  195.1770  175.1660  145.6680 C   0  0  0  0  0  3  0  0  0  0  0  0
  195.1300  172.7820  142.1920 C   0  0  1  0  0  3  0  0  0  0  0  0
  195.2390  173.6360  143.4070 C   0  0  0  0  0  0  0  0  0  0  0  0
  193.9610  174.8630  145.0340 C   0  0  0  0  0  0  0  0  0  0  0  0
  188.0530  177.3590  145.9170 C   0  0  0  0  0  0  0  0  0  0  0  0
  191.9650  176.2320  144.7640 C   0  0  0  0  0  3  0  0  0  0  0  0
  188.7080  176.4920  146.6350 N   0  0  0  0  0  0  0  0  0  0  0  0
  192.1530  174.9120  146.8760 C   0  0  0  0  0  2  0  0  0  0  0  0
  189.9720  175.9020  146.2020 C   0  0  1  0  0  3  0  0  0  0  0  0
  188.6570  177.9150  144.6340 C   0  0  0  0  0  2  0  0  0  0  0  0
  190.6780  176.8370  145.2370 C   0  0  2  0  0  3  0  0  0  0  0  0
  190.9010  175.6450  147.3740 C   0  0  0  0  0  2  0  0  0  0  0  0
  192.6980  175.4260  145.5530 C   0  0  0  0  0  0  0  0  0  0  0  0
  189.7760  177.1120  144.1280 N   0  0  0  0  0  2  0  0  0  0  0  0
  186.8210  177.8180  146.3880 O   0  0  0  0  0  0  0  0  0  0  0  0
  185.4990  178.2000  145.3550 P   0  0  0  0  0  0  0  0  0  0  0  0
  184.0640  178.2170  146.2500 O   0  0  0  0  0  1  0  0  0  0  0  0
  185.7470  179.7190  144.6540 O   0  0  0  0  0  1  0  0  0  0  0  0
  185.3970  177.1570  144.2660 O   0  0  0  0  0  0  0  0  0  0  0  0
  192.7180  174.5220  138.2910 O   0  0  0  0  0  1  0  0  0  0  0  0
  191.9820  173.4330  138.6970 N   0  0  0  0  0  0  0  0  0  0  0  0
  192.2310  172.8330  139.8180 C   0  0  0  0  0  0  0  0  0  0  0  0
  193.3000  173.2910  140.6530 N   0  0  0  0  0  2  0  0  0  0  0  0
  191.4020  171.6450  140.1950 C   0  0  0  0  0  2  0  0  0  0  0  0
  192.0460  170.3270  139.7550 C   0  0  1  0  0  3  0  0  0  0  0  0
  193.1420  168.6170  141.4290 S   0  0  0  0  0  0  0  0  0  0  0  0
  192.3670  169.4150  142.7880 N   0  0  0  0  0  2  0  0  0  0  0  0
  191.6730  169.2360  140.6620 N   0  0  0  0  0  0  0  0  0  0  0  0
  191.2540  169.8110  141.9380 C   0  0  0  0  0  2  0  0  0  0  0  0
  191.5580  170.0210  138.3420 C   0  0  0  0  0  2  0  0  0  0  0  0
  190.2190  169.3090  138.3840 C   0  0  0  0  0  1  0  0  0  0  0  0
  1  7  2  0  0  0  0
  1  6  1  0  0  0  0
  3  4  1  0  0  0  0
  4  8  2  0  0  0  0
  5 30  1  6  0  0  0
  5  9  1  0  0  0  0
  5  1  1  0  0  0  0
  6 11  2  0  0  0  0
  9  2  1  1  0  0  0
  9 10  1  0  0  0  0
 10  6  1  0  0  0  0
 10  3  2  0  0  0  0
 11 20  1  0  0  0  0
 11  8  1  0  0  0  0
 12 22  1  0  0  0  0
 12 14  2  0  0  0  0
 13 20  2  0  0  0  0
 15 19  1  0  0  0  0
 16 14  1  0  0  0  0
 16 19  1  1  0  0  0
 17 12  1  0  0  0  0
 18 13  1  6  0  0  0
 18 16  1  0  0  0  0
 20 15  1  0  0  0  0
 21 17  1  0  0  0  0
 21 18  1  0  0  0  0
 23 24  1  0  0  0  0
 23 22  1  0  0  0  0
 25 23  1  0  0  0  0
 26 23  2  0  0  0  0
 27 28  1  0  0  0  0
 28 29  2  0  0  0  0
 29 31  1  0  0  0  0
 29 30  1  0  0  0  0
 32 37  1  6  0  0  0
 32 31  1  0  0  0  0
 32 35  1  0  0  0  0
 33 34  1  0  0  0  0
 35 33  1  0  0  0  0
 35 36  1  0  0  0  0
 36 34  1  0  0  0  0
 37 38  1  0  0  0  0
M  END
>  <MODEL>
9

>  <REMARK>
 VINA RESULT:      -5.7      2.526      3.156
  Name = 
  8 active torsions:
  status: ('A' for Active; 'I' for Inactive)
    1  A    between atoms: P_1  and  O_13
    2  A    between atoms: C_2  and  O_13
    3  A    between atoms: C_12  and  C_27
    4  A    between atoms: C_14  and  N_35
    5  A    between atoms: C_22  and  C_27
    6  A    between atoms: C_22  and  C_30
    7  A    between atoms: N_23  and  C_27
    8  A    between atoms: C_33  and  C_38
                            x       y       z     vdW  Elec       q    Type
                         _______ _______ _______ _____ _____    ______ ____

>  <TORSDO>
F 8

$$$$
