=
 OpenBabel11072408503D

 26 29  0  0  1  0  0  0  0  0999 V2000
  187.4550  176.9250  146.0200 C   0  0  0  0  0  0  0  0  0  0  0  0
  186.3940  179.2650  145.4710 C   0  0  2  0  0  3  0  0  0  0  0  0
  188.8560  177.8210  142.6770 C   0  0  0  0  0  2  0  0  0  0  0  0
  184.9880  178.1780  143.6380 C   0  0  0  0  0  0  0  0  0  0  0  0
  186.5840  176.4130  147.0430 N   0  0  0  0  0  2  0  0  0  0  0  0
  188.5290  176.3670  142.3750 C   0  0  2  0  0  3  0  0  0  0  0  0
  185.9260  177.3210  144.0370 C   0  0  0  0  0  0  0  0  0  0  0  0
  189.6300  177.8540  143.9870 C   0  0  0  0  0  2  0  0  0  0  0  0
  184.9050  178.1260  147.0500 N   0  0  0  0  0  2  0  0  0  0  0  0
  186.1720  176.0000  143.3720 C   0  0  0  0  0  2  0  0  0  0  0  0
  189.5140  176.4680  144.5980 C   0  0  2  0  0  3  0  0  0  0  0  0
  187.0320  176.1490  142.1120 C   0  0  0  0  0  2  0  0  0  0  0  0
  189.0550  175.5140  143.5150 C   0  0  0  0  0  2  0  0  0  0  0  0
  188.6730  176.3420  145.8510 C   0  0  0  0  0  0  0  0  0  0  0  0
  185.6670  177.1990  147.8620 C   0  0  0  0  0  2  0  0  0  0  0  0
  186.9110  177.8980  144.9930 C   0  0  2  0  0  3  0  0  0  0  0  0
  185.7690  179.2780  146.8610 C   0  0  0  0  0  2  0  0  0  0  0  0
  185.1650  179.8430  144.2530 S   0  0  0  0  0  0  0  0  0  0  0  0
  183.9830  177.8750  142.6610 N   0  0  0  0  0  2  0  0  0  0  0  0
  185.1090  178.6700  140.7700 O   0  0  0  0  0  0  0  0  0  0  0  0
  184.0350  178.2480  141.2790 C   0  0  0  0  0  0  0  0  0  0  0  0
  182.8410  178.0960  140.4430 C   0  0  0  0  0  0  0  0  0  0  0  0
  182.8320  177.1790  139.3990 O   0  0  0  0  0  0  0  0  0  0  0  0
  181.8150  178.7920  140.6660 O   0  0  0  0  0  1  0  0  0  0  0  0
  190.5690  175.5210  147.2570 C   0  0  0  0  0  1  0  0  0  0  0  0
  189.2170  175.4810  146.8180 O   0  0  0  0  0  0  0  0  0  0  0  0
  1  5  1  0  0  0  0
  2 17  1  1  0  0  0
  3  8  1  0  0  0  0
  4  7  2  0  0  0  0
  4 18  1  0  0  0  0
  5 15  1  0  0  0  0
  6 12  1  1  0  0  0
  6  3  1  0  0  0  0
  6 13  1  0  0  0  0
  8 11  1  0  0  0  0
  9 15  1  0  0  0  0
 10  7  1  0  0  0  0
 11 13  1  6  0  0  0
 11 14  1  0  0  0  0
 12 10  1  0  0  0  0
 14  1  2  0  0  0  0
 14 26  1  0  0  0  0
 16  7  1  1  0  0  0
 16  2  1  0  0  0  0
 16  1  1  0  0  0  0
 17  9  1  0  0  0  0
 18  2  1  0  0  0  0
 19  4  1  0  0  0  0
 20 21  2  0  0  0  0
 21 19  1  0  0  0  0
 22 24  1  0  0  0  0
 22 21  1  0  0  0  0
 23 22  2  0  0  0  0
 26 25  1  0  0  0  0
M  END
>  <MODEL>
1

>  <REMARK>
 VINA RESULT:      -7.4      0.000      0.000
  Name = 
  3 active torsions:
  status: ('A' for Active; 'I' for Inactive)
    1  A    between atoms: C_1  and  C_25
    2  A    between atoms: C_5  and  N_15
    3  A    between atoms: O_17  and  C_20
                            x       y       z     vdW  Elec       q    Type
                         _______ _______ _______ _____ _____    ______ ____

>  <TORSDO>
F 3

$$$$
=
 OpenBabel11072408503D

 26 29  0  0  1  0  0  0  0  0999 V2000
  191.5850  174.9760  144.9090 C   0  0  0  0  0  0  0  0  0  0  0  0
  189.8850  173.4880  143.5660 C   0  0  2  0  0  3  0  0  0  0  0  0
  188.2960  175.5950  146.5640 C   0  0  0  0  0  2  0  0  0  0  0  0
  188.8280  175.6010  142.5990 C   0  0  0  0  0  0  0  0  0  0  0  0
  192.7000  175.0770  144.0080 N   0  0  0  0  0  2  0  0  0  0  0  0
  188.7710  177.0380  146.5160 C   0  0  2  0  0  3  0  0  0  0  0  0
  189.6360  175.9360  143.6030 C   0  0  0  0  0  0  0  0  0  0  0  0
  189.4250  174.7600  147.1490 C   0  0  0  0  0  2  0  0  0  0  0  0
  191.7820  173.9680  142.0890 N   0  0  0  0  0  2  0  0  0  0  0  0
  189.7480  177.3310  144.1410 C   0  0  0  0  0  2  0  0  0  0  0  0
  190.6560  175.6500  147.1800 C   0  0  2  0  0  3  0  0  0  0  0  0
  188.6140  177.6570  145.1190 C   0  0  0  0  0  2  0  0  0  0  0  0
  190.2010  177.0860  147.0210 C   0  0  0  0  0  2  0  0  0  0  0  0
  191.7730  175.3060  146.2160 C   0  0  0  0  0  0  0  0  0  0  0  0
  192.9750  174.1930  142.8810 C   0  0  0  0  0  2  0  0  0  0  0  0
  190.1890  174.7750  144.3530 C   0  0  2  0  0  3  0  0  0  0  0  0
  191.0550  172.9150  142.7750 C   0  0  0  0  0  2  0  0  0  0  0  0
  188.5090  173.8550  142.4270 S   0  0  0  0  0  0  0  0  0  0  0  0
  188.1160  176.5460  141.7880 N   0  0  0  0  0  2  0  0  0  0  0  0
  186.0570  176.4470  142.8960 O   0  0  0  0  0  0  0  0  0  0  0  0
  186.7170  176.8380  141.8960 C   0  0  0  0  0  0  0  0  0  0  0  0
  186.0620  177.6350  140.8550 C   0  0  0  0  0  0  0  0  0  0  0  0
  184.9500  178.4070  141.1640 O   0  0  0  0  0  1  0  0  0  0  0  0
  186.5040  177.6270  139.6760 O   0  0  0  0  0  0  0  0  0  0  0  0
  193.8200  176.6420  146.7340 C   0  0  0  0  0  1  0  0  0  0  0  0
  193.0590  175.4410  146.7630 O   0  0  0  0  0  0  0  0  0  0  0  0
  1 14  2  0  0  0  0
  2 17  1  6  0  0  0
  2 16  1  0  0  0  0
  3  8  1  0  0  0  0
  4  7  2  0  0  0  0
  5  1  1  0  0  0  0
  6 12  1  6  0  0  0
  6  3  1  0  0  0  0
  6 13  1  0  0  0  0
  7 10  1  0  0  0  0
  8 11  1  0  0  0  0
  9 17  1  0  0  0  0
  9 15  1  0  0  0  0
 10 12  1  0  0  0  0
 11 13  1  6  0  0  0
 14 26  1  0  0  0  0
 14 11  1  0  0  0  0
 15  5  1  0  0  0  0
 16  7  1  6  0  0  0
 16  1  1  0  0  0  0
 18  4  1  0  0  0  0
 18  2  1  0  0  0  0
 19 21  1  0  0  0  0
 19  4  1  0  0  0  0
 21 20  2  0  0  0  0
 22 23  1  0  0  0  0
 22 21  1  0  0  0  0
 24 22  2  0  0  0  0
 25 26  1  0  0  0  0
M  END
>  <MODEL>
2

>  <REMARK>
 VINA RESULT:      -7.1      3.275      5.276
  Name = 
  3 active torsions:
  status: ('A' for Active; 'I' for Inactive)
    1  A    between atoms: C_1  and  C_25
    2  A    between atoms: C_5  and  N_15
    3  A    between atoms: O_17  and  C_20
                            x       y       z     vdW  Elec       q    Type
                         _______ _______ _______ _____ _____    ______ ____

>  <TORSDO>
F 3

$$$$
=
 OpenBabel11072408503D

 26 29  0  0  1  0  0  0  0  0999 V2000
  186.3940  177.8610  144.6060 C   0  0  0  0  0  0  0  0  0  0  0  0
  187.2630  176.1060  146.3580 C   0  0  2  0  0  3  0  0  0  0  0  0
  188.2000  175.3160  142.5560 C   0  0  0  0  0  2  0  0  0  0  0  0
  189.6550  176.8930  145.9330 C   0  0  0  0  0  0  0  0  0  0  0  0
  186.1190  179.0130  145.4200 N   0  0  0  0  0  2  0  0  0  0  0  0
  188.7550  176.5550  141.8730 C   0  0  2  0  0  3  0  0  0  0  0  0
  188.8550  177.3930  144.9920 C   0  0  0  0  0  0  0  0  0  0  0  0
  186.6880  175.4690  142.6260 C   0  0  0  0  0  2  0  0  0  0  0  0
  186.9530  178.2350  147.5310 N   0  0  0  0  0  2  0  0  0  0  0  0
  189.3570  178.1610  143.8070 C   0  0  0  0  0  2  0  0  0  0  0  0
  186.3760  176.9070  142.2470 C   0  0  2  0  0  3  0  0  0  0  0  0
  189.8610  177.2310  142.6980 C   0  0  0  0  0  2  0  0  0  0  0  0
  187.5980  177.4890  141.5670 C   0  0  0  0  0  2  0  0  0  0  0  0
  185.8670  177.8090  143.3520 C   0  0  0  0  0  0  0  0  0  0  0  0
  185.9290  179.0160  146.8660 C   0  0  0  0  0  2  0  0  0  0  0  0
  187.4600  176.8750  145.0410 C   0  0  2  0  0  3  0  0  0  0  0  0
  186.5050  176.8570  147.4460 C   0  0  0  0  0  2  0  0  0  0  0  0
  188.9170  175.6520  146.9800 S   0  0  0  0  0  0  0  0  0  0  0  0
  191.0560  177.1820  146.0360 N   0  0  0  0  0  2  0  0  0  0  0  0
  191.8610  175.3470  144.8280 O   0  0  0  0  0  0  0  0  0  0  0  0
  192.1110  176.3260  145.5830 C   0  0  0  0  0  0  0  0  0  0  0  0
  193.4950  176.6180  145.9650 C   0  0  0  0  0  0  0  0  0  0  0  0
  194.5140  176.5210  145.0260 O   0  0  0  0  0  0  0  0  0  0  0  0
  193.7690  176.9610  147.1450 O   0  0  0  0  0  1  0  0  0  0  0  0
  183.7300  178.2900  142.1500 C   0  0  0  0  0  1  0  0  0  0  0  0
  184.8390  178.6780  142.9500 O   0  0  0  0  0  0  0  0  0  0  0  0
  1  5  1  0  0  0  0
  2 18  1  0  0  0  0
  2 17  1  1  0  0  0
  3  8  1  0  0  0  0
  4 19  1  0  0  0  0
  4 18  1  0  0  0  0
  5 15  1  0  0  0  0
  6 13  1  1  0  0  0
  6  3  1  0  0  0  0
  6 12  1  0  0  0  0
  7 16  1  0  0  0  0
  7  4  2  0  0  0  0
 10  7  1  0  0  0  0
 11 13  1  1  0  0  0
 11  8  1  0  0  0  0
 11 14  1  0  0  0  0
 12 10  1  0  0  0  0
 14  1  2  0  0  0  0
 15  9  1  0  0  0  0
 16  1  1  1  0  0  0
 16  2  1  0  0  0  0
 17  9  1  0  0  0  0
 20 21  2  0  0  0  0
 21 22  1  0  0  0  0
 21 19  1  0  0  0  0
 22 24  1  0  0  0  0
 23 22  2  0  0  0  0
 25 26  1  0  0  0  0
 26 14  1  0  0  0  0
M  END
>  <MODEL>
3

>  <REMARK>
 VINA RESULT:      -7.0      2.577      6.382
  Name = 
  3 active torsions:
  status: ('A' for Active; 'I' for Inactive)
    1  A    between atoms: C_1  and  C_25
    2  A    between atoms: C_5  and  N_15
    3  A    between atoms: O_17  and  C_20
                            x       y       z     vdW  Elec       q    Type
                         _______ _______ _______ _____ _____    ______ ____

>  <TORSDO>
F 3

$$$$
=
 OpenBabel11072408503D

 26 29  0  0  1  0  0  0  0  0999 V2000
  191.5980  175.0000  143.6440 C   0  0  0  0  0  0  0  0  0  0  0  0
  189.6020  173.5570  142.7280 C   0  0  2  0  0  3  0  0  0  0  0  0
  188.8750  175.4760  146.1540 C   0  0  0  0  0  2  0  0  0  0  0  0
  188.3190  175.7000  142.1990 C   0  0  0  0  0  0  0  0  0  0  0  0
  192.4290  175.1660  142.4830 N   0  0  0  0  0  2  0  0  0  0  0  0
  189.3180  176.9280  146.0590 C   0  0  2  0  0  3  0  0  0  0  0  0
  189.3670  175.9950  142.9650 C   0  0  0  0  0  0  0  0  0  0  0  0
  190.1220  174.6310  146.3670 C   0  0  0  0  0  2  0  0  0  0  0  0
  191.0300  174.1450  140.8240 N   0  0  0  0  0  2  0  0  0  0  0  0
  189.6180  177.3610  143.5290 C   0  0  0  0  0  2  0  0  0  0  0  0
  191.3140  175.5380  146.1140 C   0  0  2  0  0  3  0  0  0  0  0  0
  188.7890  177.6170  144.7920 C   0  0  0  0  0  2  0  0  0  0  0  0
  190.8310  176.9730  146.1630 C   0  0  0  0  0  2  0  0  0  0  0  0
  192.1300  175.2630  144.8690 C   0  0  0  0  0  0  0  0  0  0  0  0
  192.3910  174.3470  141.2760 C   0  0  0  0  0  2  0  0  0  0  0  0
  190.1040  174.8050  143.4730 C   0  0  2  0  0  3  0  0  0  0  0  0
  190.5160  173.0450  141.6210 C   0  0  0  0  0  2  0  0  0  0  0  0
  187.9690  173.9600  142.0220 S   0  0  0  0  0  0  0  0  0  0  0  0
  187.4140  176.6740  141.6620 N   0  0  0  0  0  2  0  0  0  0  0  0
  185.7820  176.5640  143.3360 O   0  0  0  0  0  0  0  0  0  0  0  0
  186.1170  176.9770  142.1930 C   0  0  0  0  0  0  0  0  0  0  0  0
  185.1940  177.8090  141.4160 C   0  0  0  0  0  0  0  0  0  0  0  0
  183.9010  178.0290  141.8720 O   0  0  0  0  0  1  0  0  0  0  0  0
  185.5680  178.3320  140.3330 O   0  0  0  0  0  0  0  0  0  0  0  0
  194.1430  175.5530  146.3220 C   0  0  0  0  0  1  0  0  0  0  0  0
  193.5160  175.3910  145.0560 O   0  0  0  0  0  0  0  0  0  0  0  0
  1 14  2  0  0  0  0
  2 17  1  6  0  0  0
  2 16  1  0  0  0  0
  3  8  1  0  0  0  0
  4  7  2  0  0  0  0
  5  1  1  0  0  0  0
  6 12  1  6  0  0  0
  6  3  1  0  0  0  0
  6 13  1  0  0  0  0
  7 10  1  0  0  0  0
  9 15  1  0  0  0  0
  9 17  1  0  0  0  0
 10 12  1  0  0  0  0
 11 13  1  6  0  0  0
 11  8  1  0  0  0  0
 14 26  1  0  0  0  0
 14 11  1  0  0  0  0
 15  5  1  0  0  0  0
 16  7  1  6  0  0  0
 16  1  1  0  0  0  0
 18  4  1  0  0  0  0
 18  2  1  0  0  0  0
 19 21  1  0  0  0  0
 19  4  1  0  0  0  0
 21 20  2  0  0  0  0
 22 23  1  0  0  0  0
 22 21  1  0  0  0  0
 24 22  2  0  0  0  0
 26 25  1  0  0  0  0
M  END
>  <MODEL>
4

>  <REMARK>
 VINA RESULT:      -6.6      3.383      5.258
  Name = 
  3 active torsions:
  status: ('A' for Active; 'I' for Inactive)
    1  A    between atoms: C_1  and  C_25
    2  A    between atoms: C_5  and  N_15
    3  A    between atoms: O_17  and  C_20
                            x       y       z     vdW  Elec       q    Type
                         _______ _______ _______ _____ _____    ______ ____

>  <TORSDO>
F 3

$$$$
=
 OpenBabel11072408503D

 26 29  0  0  1  0  0  0  0  0999 V2000
  187.6090  176.6290  144.3980 C   0  0  0  0  0  0  0  0  0  0  0  0
  189.6200  177.8830  143.2610 C   0  0  2  0  0  3  0  0  0  0  0  0
  190.2160  176.8210  147.0650 C   0  0  0  0  0  2  0  0  0  0  0  0
  190.9670  175.7150  143.2940 C   0  0  0  0  0  0  0  0  0  0  0  0
  186.8390  176.1770  143.2720 N   0  0  0  0  0  2  0  0  0  0  0  0
  189.8070  175.3740  147.2880 C   0  0  2  0  0  3  0  0  0  0  0  0
  189.8890  175.5720  144.0630 C   0  0  0  0  0  0  0  0  0  0  0  0
  188.9450  177.6560  147.0240 C   0  0  0  0  0  2  0  0  0  0  0  0
  188.2980  176.8330  141.4840 N   0  0  0  0  0  2  0  0  0  0  0  0
  189.6380  174.3640  144.9140 C   0  0  0  0  0  2  0  0  0  0  0  0
  187.7840  176.6800  146.9360 C   0  0  2  0  0  3  0  0  0  0  0  0
  190.4090  174.4290  146.2370 C   0  0  0  0  0  2  0  0  0  0  0  0
  188.2910  175.3090  147.3340 C   0  0  0  0  0  2  0  0  0  0  0  0
  187.0240  176.6380  145.6270 C   0  0  0  0  0  0  0  0  0  0  0  0
  186.9200  176.6990  141.9120 C   0  0  0  0  0  2  0  0  0  0  0  0
  189.1060  176.8240  144.2510 C   0  0  2  0  0  3  0  0  0  0  0  0
  188.7510  178.1000  142.0280 C   0  0  0  0  0  2  0  0  0  0  0  0
  191.2930  177.3780  142.7380 S   0  0  0  0  0  0  0  0  0  0  0  0
  191.9160  174.6710  143.0360 N   0  0  0  0  0  2  0  0  0  0  0  0
  193.4860  175.2380  144.6760 O   0  0  0  0  0  0  0  0  0  0  0  0
  193.2010  174.5500  143.6590 C   0  0  0  0  0  0  0  0  0  0  0  0
  194.1720  173.5860  143.1330 C   0  0  0  0  0  0  0  0  0  0  0  0
  193.7430  172.5180  142.3550 O   0  0  0  0  0  0  0  0  0  0  0  0
  195.3990  173.7200  143.3810 O   0  0  0  0  0  1  0  0  0  0  0  0
  184.8190  177.4440  146.4840 C   0  0  0  0  0  1  0  0  0  0  0  0
  185.6330  176.5150  145.7790 O   0  0  0  0  0  0  0  0  0  0  0  0
  1 14  2  0  0  0  0
  2 17  1  6  0  0  0
  2 16  1  0  0  0  0
  3  6  1  0  0  0  0
  4  7  2  0  0  0  0
  5  1  1  0  0  0  0
  6 12  1  6  0  0  0
  6 13  1  0  0  0  0
  7 10  1  0  0  0  0
  8  3  1  0  0  0  0
  9 15  1  0  0  0  0
  9 17  1  0  0  0  0
 10 12  1  0  0  0  0
 11  8  1  6  0  0  0
 11 13  1  0  0  0  0
 14 26  1  0  0  0  0
 14 11  1  0  0  0  0
 15  5  1  0  0  0  0
 16  7  1  6  0  0  0
 16  1  1  0  0  0  0
 18  2  1  0  0  0  0
 18  4  1  0  0  0  0
 19  4  1  0  0  0  0
 19 21  1  0  0  0  0
 21 20  2  0  0  0  0
 22 24  1  0  0  0  0
 22 21  1  0  0  0  0
 23 22  2  0  0  0  0
 26 25  1  0  0  0  0
M  END
>  <MODEL>
5

>  <REMARK>
 VINA RESULT:      -6.5      3.629      6.921
  Name = 
  3 active torsions:
  status: ('A' for Active; 'I' for Inactive)
    1  A    between atoms: C_1  and  C_25
    2  A    between atoms: C_5  and  N_15
    3  A    between atoms: O_17  and  C_20
                            x       y       z     vdW  Elec       q    Type
                         _______ _______ _______ _____ _____    ______ ____

>  <TORSDO>
F 3

$$$$
=
 OpenBabel11072408503D

 26 29  0  0  1  0  0  0  0  0999 V2000
  186.3650  177.6900  143.2240 C   0  0  0  0  0  0  0  0  0  0  0  0
  185.9450  176.7960  145.6590 C   0  0  2  0  0  3  0  0  0  0  0  0
  188.5300  174.6580  143.4900 C   0  0  0  0  0  2  0  0  0  0  0  0
  188.3140  177.4940  146.3050 C   0  0  0  0  0  0  0  0  0  0  0  0
  185.9040  179.0490  143.3000 N   0  0  0  0  0  2  0  0  0  0  0  0
  189.5410  175.5690  142.8120 C   0  0  2  0  0  3  0  0  0  0  0  0
  188.1880  177.5470  144.9800 C   0  0  0  0  0  0  0  0  0  0  0  0
  187.2350  174.7410  142.6960 C   0  0  0  0  0  2  0  0  0  0  0  0
  185.4270  179.1920  145.6460 N   0  0  0  0  0  2  0  0  0  0  0  0
  189.3330  177.8260  144.0540 C   0  0  0  0  0  2  0  0  0  0  0  0
  187.3880  175.9020  141.7290 C   0  0  2  0  0  3  0  0  0  0  0  0
  190.1710  176.5710  143.7910 C   0  0  0  0  0  2  0  0  0  0  0  0
  188.8600  176.2460  141.6370 C   0  0  0  0  0  2  0  0  0  0  0  0
  186.5420  177.1300  141.9960 C   0  0  0  0  0  0  0  0  0  0  0  0
  185.0150  179.5970  144.3180 C   0  0  0  0  0  2  0  0  0  0  0  0
  186.8970  177.0090  144.4700 C   0  0  2  0  0  3  0  0  0  0  0  0
  184.8720  177.8630  145.8360 C   0  0  0  0  0  2  0  0  0  0  0  0
  186.9640  176.7110  147.1690 S   0  0  0  0  0  0  0  0  0  0  0  0
  189.4980  177.8790  147.0180 N   0  0  0  0  0  2  0  0  0  0  0  0
  190.5150  175.7750  147.1300 O   0  0  0  0  0  0  0  0  0  0  0  0
  190.4950  176.9760  147.5110 C   0  0  0  0  0  0  0  0  0  0  0  0
  191.5250  177.4680  148.4310 C   0  0  0  0  0  0  0  0  0  0  0  0
  191.1710  178.2690  149.5100 O   0  0  0  0  0  1  0  0  0  0  0  0
  192.7340  177.1670  148.2520 O   0  0  0  0  0  0  0  0  0  0  0  0
  186.5330  177.5290  139.5290 C   0  0  0  0  0  1  0  0  0  0  0  0
  186.0080  177.7170  140.8370 O   0  0  0  0  0  0  0  0  0  0  0  0
  1  5  1  0  0  0  0
  2 17  1  1  0  0  0
  2 18  1  0  0  0  0
  4 19  1  0  0  0  0
  4 18  1  0  0  0  0
  5 15  1  0  0  0  0
  6 13  1  6  0  0  0
  6  3  1  0  0  0  0
  6 12  1  0  0  0  0
  7  4  2  0  0  0  0
  8  3  1  0  0  0  0
  9 17  1  0  0  0  0
 10  7  1  0  0  0  0
 11 13  1  1  0  0  0
 11 14  1  0  0  0  0
 11  8  1  0  0  0  0
 12 10  1  0  0  0  0
 14  1  2  0  0  0  0
 15  9  1  0  0  0  0
 16  1  1  6  0  0  0
 16  7  1  0  0  0  0
 16  2  1  0  0  0  0
 19 21  1  0  0  0  0
 20 21  2  0  0  0  0
 21 22  1  0  0  0  0
 22 23  1  0  0  0  0
 24 22  2  0  0  0  0
 25 26  1  0  0  0  0
 26 14  1  0  0  0  0
M  END
>  <MODEL>
6

>  <REMARK>
 VINA RESULT:      -6.3      2.220      6.315
  Name = 
  3 active torsions:
  status: ('A' for Active; 'I' for Inactive)
    1  A    between atoms: C_1  and  C_25
    2  A    between atoms: C_5  and  N_15
    3  A    between atoms: O_17  and  C_20
                            x       y       z     vdW  Elec       q    Type
                         _______ _______ _______ _____ _____    ______ ____

>  <TORSDO>
F 3

$$$$
=
 OpenBabel11072408503D

 26 29  0  0  1  0  0  0  0  0999 V2000
  190.0660  176.3250  146.2390 C   0  0  0  0  0  0  0  0  0  0  0  0
  189.2690  177.3520  143.9550 C   0  0  2  0  0  3  0  0  0  0  0  0
  192.9980  175.9220  143.9620 C   0  0  0  0  0  2  0  0  0  0  0  0
  189.2400  175.0130  142.9340 C   0  0  0  0  0  0  0  0  0  0  0  0
  188.8280  176.0810  146.9270 N   0  0  0  0  0  2  0  0  0  0  0  0
  193.0400  174.5380  144.5910 C   0  0  2  0  0  3  0  0  0  0  0  0
  189.8750  174.9720  144.1040 C   0  0  0  0  0  0  0  0  0  0  0  0
  192.9020  176.9360  145.0920 C   0  0  0  0  0  2  0  0  0  0  0  0
  187.2730  176.6500  145.1920 N   0  0  0  0  0  2  0  0  0  0  0  0
  190.5780  173.7520  144.6180 C   0  0  0  0  0  2  0  0  0  0  0  0
  192.6020  176.1520  146.3590 C   0  0  2  0  0  3  0  0  0  0  0  0
  191.9750  173.6000  144.0060 C   0  0  0  0  0  2  0  0  0  0  0  0
  192.9210  174.6950  146.0960 C   0  0  0  0  0  2  0  0  0  0  0  0
  191.2220  176.3250  146.9580 C   0  0  0  0  0  0  0  0  0  0  0  0
  187.5390  176.6880  146.6160 C   0  0  0  0  0  2  0  0  0  0  0  0
  190.0960  176.3080  144.7230 C   0  0  2  0  0  3  0  0  0  0  0  0
  187.9770  177.7910  144.6350 C   0  0  0  0  0  2  0  0  0  0  0  0
  188.8790  176.6480  142.3190 S   0  0  0  0  0  0  0  0  0  0  0  0
  188.9870  173.8630  142.1140 N   0  0  0  0  0  2  0  0  0  0  0  0
  190.8800  174.0080  140.7470 O   0  0  0  0  0  0  0  0  0  0  0  0
  189.7570  173.4790  140.9690 C   0  0  0  0  0  0  0  0  0  0  0  0
  189.2530  172.4310  140.0760 C   0  0  0  0  0  0  0  0  0  0  0  0
  187.9930  172.5500  139.5040 O   0  0  0  0  0  0  0  0  0  0  0  0
  189.9590  171.4200  139.8210 O   0  0  0  0  0  1  0  0  0  0  0  0
  191.5370  177.5660  149.1040 C   0  0  0  0  0  1  0  0  0  0  0  0
  191.2150  176.3980  148.3610 O   0  0  0  0  0  0  0  0  0  0  0  0
  1  5  1  0  0  0  0
  1 14  2  0  0  0  0
  2 17  1  1  0  0  0
  2 16  1  0  0  0  0
  3  8  1  0  0  0  0
  4  7  2  0  0  0  0
  6  3  1  6  0  0  0
  6 13  1  0  0  0  0
  7 10  1  0  0  0  0
  9 15  1  0  0  0  0
 11  8  1  6  0  0  0
 11 14  1  0  0  0  0
 12  6  1  0  0  0  0
 12 10  1  0  0  0  0
 13 11  1  0  0  0  0
 14 26  1  0  0  0  0
 15  5  1  0  0  0  0
 16  7  1  6  0  0  0
 16  1  1  0  0  0  0
 17  9  1  0  0  0  0
 18  4  1  0  0  0  0
 18  2  1  0  0  0  0
 19  4  1  0  0  0  0
 20 21  2  0  0  0  0
 21 19  1  0  0  0  0
 22 21  1  0  0  0  0
 23 22  2  0  0  0  0
 24 22  1  0  0  0  0
 26 25  1  0  0  0  0
M  END
>  <MODEL>
7

>  <REMARK>
 VINA RESULT:      -6.3      3.799      5.274
  Name = 
  3 active torsions:
  status: ('A' for Active; 'I' for Inactive)
    1  A    between atoms: C_1  and  C_25
    2  A    between atoms: C_5  and  N_15
    3  A    between atoms: O_17  and  C_20
                            x       y       z     vdW  Elec       q    Type
                         _______ _______ _______ _____ _____    ______ ____

>  <TORSDO>
F 3

$$$$
=
 OpenBabel11072408503D

 26 29  0  0  1  0  0  0  0  0999 V2000
  188.1960  176.4220  145.5350 C   0  0  0  0  0  0  0  0  0  0  0  0
  189.3240  174.2080  144.6780 C   0  0  2  0  0  3  0  0  0  0  0  0
  187.4060  176.3240  141.8860 C   0  0  0  0  0  2  0  0  0  0  0  0
  191.0390  175.5990  143.3970 C   0  0  0  0  0  0  0  0  0  0  0  0
  188.8740  176.6630  146.7790 N   0  0  0  0  0  2  0  0  0  0  0  0
  187.7900  177.7930  141.9700 C   0  0  2  0  0  3  0  0  0  0  0  0
  190.0500  176.3910  143.8060 C   0  0  0  0  0  0  0  0  0  0  0  0
  186.4120  176.0460  143.0040 C   0  0  0  0  0  2  0  0  0  0  0  0
  190.5150  174.9150  146.7000 N   0  0  0  0  0  2  0  0  0  0  0  0
  189.9340  177.8330  143.4140 C   0  0  0  0  0  2  0  0  0  0  0  0
  186.4250  177.2630  143.9130 C   0  0  2  0  0  3  0  0  0  0  0  0
  189.3120  177.9960  142.0230 C   0  0  0  0  0  2  0  0  0  0  0  0
  187.0750  178.4050  143.1610 C   0  0  0  0  0  2  0  0  0  0  0  0
  187.0310  177.0810  145.2890 C   0  0  0  0  0  0  0  0  0  0  0  0
  189.6260  175.6800  147.5510 C   0  0  0  0  0  2  0  0  0  0  0  0
  188.9080  175.6670  144.4290 C   0  0  2  0  0  3  0  0  0  0  0  0
  189.6910  173.8710  146.1180 C   0  0  0  0  0  2  0  0  0  0  0  0
  190.7460  173.8500  143.5940 S   0  0  0  0  0  0  0  0  0  0  0  0
  192.2040  176.0590  142.6980 N   0  0  0  0  0  2  0  0  0  0  0  0
  193.7840  174.6980  143.7590 O   0  0  0  0  0  0  0  0  0  0  0  0
  193.5520  175.6750  142.9970 C   0  0  0  0  0  0  0  0  0  0  0  0
  194.6650  176.3990  142.3760 C   0  0  0  0  0  0  0  0  0  0  0  0
  195.8190  176.6600  143.1040 O   0  0  0  0  0  1  0  0  0  0  0  0
  194.5830  176.7850  141.1810 O   0  0  0  0  0  0  0  0  0  0  0  0
  184.9200  177.6650  146.4930 C   0  0  0  0  0  1  0  0  0  0  0  0
  186.3280  177.7380  146.3130 O   0  0  0  0  0  0  0  0  0  0  0  0
  1  5  1  0  0  0  0
  2 17  1  1  0  0  0
  3  8  1  0  0  0  0
  4 18  1  0  0  0  0
  4  7  2  0  0  0  0
  5 15  1  0  0  0  0
  6  3  1  1  0  0  0
  6 12  1  0  0  0  0
  6 13  1  0  0  0  0
  9 15  1  0  0  0  0
 10  7  1  0  0  0  0
 11  8  1  6  0  0  0
 11 14  1  0  0  0  0
 12 10  1  0  0  0  0
 13 11  1  0  0  0  0
 14  1  2  0  0  0  0
 14 26  1  0  0  0  0
 16  7  1  1  0  0  0
 16  2  1  0  0  0  0
 16  1  1  0  0  0  0
 17  9  1  0  0  0  0
 18  2  1  0  0  0  0
 19 21  1  0  0  0  0
 19  4  1  0  0  0  0
 21 20  2  0  0  0  0
 22 21  1  0  0  0  0
 22 23  1  0  0  0  0
 24 22  2  0  0  0  0
 26 25  1  0  0  0  0
M  END
>  <MODEL>
8

>  <REMARK>
 VINA RESULT:      -5.9      3.831      6.730
  Name = 
  3 active torsions:
  status: ('A' for Active; 'I' for Inactive)
    1  A    between atoms: C_1  and  C_25
    2  A    between atoms: C_5  and  N_15
    3  A    between atoms: O_17  and  C_20
                            x       y       z     vdW  Elec       q    Type
                         _______ _______ _______ _____ _____    ______ ____

>  <TORSDO>
F 3

$$$$
=
 OpenBabel11072408503D

 26 29  0  0  1  0  0  0  0  0999 V2000
  188.4620  175.0160  142.5090 C   0  0  0  0  0  0  0  0  0  0  0  0
  190.6550  174.5430  141.1400 C   0  0  2  0  0  3  0  0  0  0  0  0
  190.6950  177.9030  143.2990 C   0  0  0  0  0  2  0  0  0  0  0  0
  191.8970  174.0870  143.3240 C   0  0  0  0  0  0  0  0  0  0  0  0
  187.8310  173.7260  142.5550 N   0  0  0  0  0  2  0  0  0  0  0  0
  190.2020  177.6370  144.7130 C   0  0  2  0  0  3  0  0  0  0  0  0
  190.7210  174.6480  143.5980 C   0  0  0  0  0  0  0  0  0  0  0  0
  189.4750  177.9640  142.3920 C   0  0  0  0  0  2  0  0  0  0  0  0
  189.5400  172.3940  141.5260 N   0  0  0  0  0  2  0  0  0  0  0  0
  190.3100  175.0680  144.9770 C   0  0  0  0  0  2  0  0  0  0  0  0
  188.2970  177.4570  143.2080 C   0  0  2  0  0  3  0  0  0  0  0  0
  190.9000  176.4300  145.3570 C   0  0  0  0  0  2  0  0  0  0  0  0
  188.6920  177.4870  144.6700 C   0  0  0  0  0  2  0  0  0  0  0  0
  187.7180  176.1150  142.8110 C   0  0  0  0  0  0  0  0  0  0  0  0
  188.1130  172.6000  141.6710 C   0  0  0  0  0  2  0  0  0  0  0  0
  189.9710  175.1080  142.3970 C   0  0  2  0  0  3  0  0  0  0  0  0
  189.9680  173.3380  140.5090 C   0  0  0  0  0  2  0  0  0  0  0  0
  192.3610  174.0900  141.6010 S   0  0  0  0  0  0  0  0  0  0  0  0
  192.8300  173.6420  144.3190 N   0  0  0  0  0  2  0  0  0  0  0  0
  194.2040  175.5350  144.3530 O   0  0  0  0  0  0  0  0  0  0  0  0
  194.0210  174.3380  144.7040 C   0  0  0  0  0  0  0  0  0  0  0  0
  195.0120  173.6650  145.5490 C   0  0  0  0  0  0  0  0  0  0  0  0
  196.0470  174.3910  146.1240 O   0  0  0  0  0  1  0  0  0  0  0  0
  194.9290  172.4260  145.7600 O   0  0  0  0  0  0  0  0  0  0  0  0
  185.4680  177.2030  142.8180 C   0  0  0  0  0  1  0  0  0  0  0  0
  186.3160  176.0620  142.8630 O   0  0  0  0  0  0  0  0  0  0  0  0
  1  5  1  0  0  0  0
  1 14  2  0  0  0  0
  2 17  1  1  0  0  0
  2 18  1  0  0  0  0
  2 16  1  0  0  0  0
  4  7  2  0  0  0  0
  4 19  1  0  0  0  0
  6  3  1  6  0  0  0
  6 12  1  0  0  0  0
  7 10  1  0  0  0  0
  8  3  1  0  0  0  0
  9 15  1  0  0  0  0
 10 12  1  0  0  0  0
 11  8  1  6  0  0  0
 11 13  1  0  0  0  0
 13  6  1  0  0  0  0
 14 26  1  0  0  0  0
 14 11  1  0  0  0  0
 15  5  1  0  0  0  0
 16  1  1  1  0  0  0
 16  7  1  0  0  0  0
 17  9  1  0  0  0  0
 18  4  1  0  0  0  0
 19 21  1  0  0  0  0
 20 21  2  0  0  0  0
 21 22  1  0  0  0  0
 22 24  2  0  0  0  0
 22 23  1  0  0  0  0
 25 26  1  0  0  0  0
M  END
>  <MODEL>
9

>  <REMARK>
 VINA RESULT:      -5.9      4.289      8.099
  Name = 
  3 active torsions:
  status: ('A' for Active; 'I' for Inactive)
    1  A    between atoms: C_1  and  C_25
    2  A    between atoms: C_5  and  N_15
    3  A    between atoms: O_17  and  C_20
                            x       y       z     vdW  Elec       q    Type
                         _______ _______ _______ _____ _____    ______ ____

>  <TORSDO>
F 3

$$$$
