=
 OpenBabel11072409023D

 47 51  0  0  1  0  0  0  0  0999 V2000
  193.7530  171.1370  144.0150 C   0  0  0  0  0  2  0  0  0  0  0  0
  190.0620  173.3400  144.5980 C   0  0  0  0  0  2  0  0  0  0  0  0
  195.6130  172.5060  145.1130 C   0  0  2  0  0  0  0  0  0  0  0  0
  196.0570  171.2560  145.5570 O   0  0  0  0  0  1  0  0  0  0  0  0
  192.6410  174.7120  146.2760 C   0  0  0  0  0  2  0  0  0  0  0  0
  189.9060  176.0490  145.9650 C   0  0  2  0  0  3  0  0  0  0  0  0
  194.0610  174.4830  145.7690 C   0  0  2  0  0  3  0  0  0  0  0  0
  194.2920  175.3330  144.5110 C   0  0  0  0  0  2  0  0  0  0  0  0
  191.7580  172.2470  143.1820 C   0  0  0  0  0  2  0  0  0  0  0  0
  192.3860  176.1280  146.5450 N   0  0  1  0  0  0  0  0  0  0  0  0
  188.5020  174.9300  147.5840 O   0  0  0  0  0  1  0  0  0  0  0  0
  188.9900  174.8550  146.2780 C   0  0  2  0  0  3  0  0  0  0  0  0
  192.6690  171.1140  143.0170 N   0  0  0  0  0  0  0  0  0  0  0  0
  190.9050  172.0930  144.4300 C   0  0  0  0  0  2  0  0  0  0  0  0
  189.6820  173.5160  146.0580 C   0  0  0  0  0  2  0  0  0  0  0  0
  194.2490  172.9630  145.6040 C   0  0  1  0  0  3  0  0  0  0  0  0
  193.9820  176.7940  144.8030 C   0  0  0  0  0  2  0  0  0  0  0  0
  192.5530  176.9110  145.3140 C   0  0  0  0  0  2  0  0  0  0  0  0
  194.4340  172.5050  144.1500 C   0  0  2  0  0  3  0  0  0  0  0  0
  191.0090  176.2330  147.0500 C   0  0  1  0  0  3  0  0  0  0  0  0
  189.0860  177.3130  145.6490 C   0  0  1  0  0  3  0  0  0  0  0  0
  189.7690  178.1270  144.7430 O   0  0  0  0  0  1  0  0  0  0  0  0
  186.9920  178.1050  144.7680 O   0  0  0  0  0  0  0  0  0  0  0  0
  186.5830  177.3580  145.8830 C   0  0  1  0  0  0  0  0  0  0  0  0
  185.3630  176.7330  145.6290 O   0  0  0  0  0  1  0  0  0  0  0  0
  187.7370  176.9370  145.0450 C   0  0  2  0  0  3  0  0  0  0  0  0
  185.8000  179.0810  147.4520 C   0  0  0  0  0  2  0  0  0  0  0  0
  186.7110  178.1640  147.1400 C   0  0  0  0  0  3  0  0  0  0  0  0
  190.8470  177.4000  147.8040 O   0  0  0  0  0  0  0  0  0  0  0  0
  191.5810  177.2060  148.8780 O   0  0  0  0  0  1  0  0  0  0  0  0
  197.3790  173.6500  145.9550 O   0  0  0  0  0  1  0  0  0  0  0  0
  196.6320  173.5090  144.8330 N   0  0  0  0  0  2  0  0  0  0  0  0
  193.2550  171.2270  141.6880 C   0  0  0  0  0  2  0  0  0  0  0  0
  192.6610  172.4130  140.9300 C   0  0  0  0  0  2  0  0  0  0  0  0
  191.2380  170.4250  137.3210 C   0  0  2  0  0  3  0  0  0  0  0  0
  190.5760  171.7500  137.6860 C   0  0  0  0  0  2  0  0  0  0  0  0
  190.8440  172.1070  139.1490 C   0  0  1  0  0  3  0  0  0  0  0  0
  193.0210  170.8010  139.0230 C   0  0  0  0  0  2  0  0  0  0  0  0
  192.7400  170.5170  137.5520 C   0  0  0  0  0  2  0  0  0  0  0  0
  192.3570  172.1090  139.4570 C   0  0  2  0  0  3  0  0  0  0  0  0
  190.9230  170.0640  135.6090 Cl  0  0  0  0  0  0  0  0  0  0  0  0
  190.1770  173.4430  139.4940 C   0  0  0  0  0  2  0  0  0  0  0  0
  188.8530  173.2460  140.0670 N   0  0  0  0  0  2  0  0  0  0  0  0
  188.8860  173.7670  141.3420 O   0  0  0  0  0  0  0  0  0  0  0  0
  189.9050  175.8020  142.2450 N   0  0  0  0  0  1  0  0  0  0  0  0
  188.8470  175.1420  141.5550 C   0  0  0  0  0  0  0  0  0  0  0  0
  187.8420  175.8260  141.1230 N   0  0  0  0  0  2  0  0  0  0  0  0
  1 19  1  0  0  0  0
  2 15  1  0  0  0  0
  3  4  1  1  0  0  0
  3 16  1  0  0  0  0
  5 10  1  0  0  0  0
  6 21  1  1  0  0  0
  6 12  1  0  0  0  0
  6 20  1  0  0  0  0
  7  8  1  6  0  0  0
  7  5  1  0  0  0  0
  8 17  1  0  0  0  0
  9 14  1  0  0  0  0
 10 18  1  6  0  0  0
 10 20  1  0  0  0  0
 12 11  1  1  0  0  0
 13  9  1  0  0  0  0
 13  1  1  0  0  0  0
 14  2  1  0  0  0  0
 15 12  1  0  0  0  0
 16  7  1  0  0  0  0
 17 18  1  0  0  0  0
 19  3  1  0  0  0  0
 19 16  1  0  0  0  0
 20 29  1  0  0  0  0
 22 21  1  0  0  0  0
 23 26  1  0  0  0  0
 23 24  1  0  0  0  0
 24 28  1  0  0  0  0
 25 24  1  0  0  0  0
 26 21  1  0  0  0  0
 26 24  1  0  0  0  0
 28 27  2  0  0  0  0
 29 30  1  0  0  0  0
 32  3  1  0  0  0  0
 32 31  1  0  0  0  0
 33 13  1  0  0  0  0
 34 33  1  0  0  0  0
 35 39  1  0  0  0  0
 35 36  1  0  0  0  0
 36 37  1  0  0  0  0
 37 40  1  0  0  0  0
 37 42  1  0  0  0  0
 38 40  1  0  0  0  0
 39 38  1  0  0  0  0
 40 34  1  0  0  0  0
 41 35  1  0  0  0  0
 42 43  1  0  0  0  0
 43 44  1  0  0  0  0
 44 46  1  0  0  0  0
 46 45  1  0  0  0  0
 47 46  2  0  0  0  0
M  END
>  <MODEL>
1

>  <REMARK>
 VINA RESULT:      -6.9      0.000      0.000
  Name = 
  12 active torsions:
  status: ('A' for Active; 'I' for Inactive)
    1  A    between atoms: C_2  and  C_11
    2  A    between atoms: C_2  and  C_29
    3  A    between atoms: C_4  and  N_28
    4  A    between atoms: O_14  and  C_47
    5  A    between atoms: C_15  and  C_38
    6  A    between atoms: C_18  and  C_41
    7  A    between atoms: C_19  and  C_31
    8  A    between atoms: C_19  and  C_44
    9  A    between atoms: C_22  and  O_32
   10  A    between atoms: N_23  and  O_32
   11  A    between atoms: N_23  and  C_41
   12  A    between atoms: N_36  and  C_44
                            x       y       z     vdW  Elec       q    Type
                         _______ _______ _______ _____ _____    ______ ____

>  <TORSDO>
F 12

$$$$
=
 OpenBabel11072409023D

 47 51  0  0  1  0  0  0  0  0999 V2000
  193.8020  171.0690  143.9740 C   0  0  0  0  0  2  0  0  0  0  0  0
  190.1650  173.3960  144.3930 C   0  0  0  0  0  2  0  0  0  0  0  0
  195.6470  172.3540  145.1940 C   0  0  2  0  0  0  0  0  0  0  0  0
  196.0220  171.0830  145.6400 O   0  0  0  0  0  1  0  0  0  0  0  0
  192.6960  174.6500  146.2300 C   0  0  0  0  0  2  0  0  0  0  0  0
  190.0310  176.0890  145.7930 C   0  0  2  0  0  3  0  0  0  0  0  0
  194.1320  174.3770  145.7970 C   0  0  2  0  0  3  0  0  0  0  0  0
  194.4610  175.2350  144.5660 C   0  0  0  0  0  2  0  0  0  0  0  0
  191.8970  172.2620  143.0530 C   0  0  0  0  0  2  0  0  0  0  0  0
  192.4760  176.0700  146.5080 N   0  0  1  0  0  0  0  0  0  0  0  0
  188.5020  174.9980  147.3150 O   0  0  0  0  0  1  0  0  0  0  0  0
  189.0570  174.9250  146.0370 C   0  0  2  0  0  3  0  0  0  0  0  0
  192.7740  171.1000  142.9200 N   0  0  0  0  0  0  0  0  0  0  0  0
  190.9720  172.1210  144.2500 C   0  0  0  0  0  2  0  0  0  0  0  0
  189.7120  173.5640  145.8330 C   0  0  0  0  0  2  0  0  0  0  0  0
  194.2750  172.8530  145.6180 C   0  0  1  0  0  3  0  0  0  0  0  0
  194.1880  176.7030  144.8650 C   0  0  0  0  0  2  0  0  0  0  0  0
  192.7380  176.8630  145.3000 C   0  0  0  0  0  2  0  0  0  0  0  0
  194.5220  172.4100  144.1690 C   0  0  2  0  0  3  0  0  0  0  0  0
  191.0780  176.2180  146.9390 C   0  0  1  0  0  3  0  0  0  0  0  0
  189.2740  177.3860  145.4530 C   0  0  1  0  0  3  0  0  0  0  0  0
  190.0770  178.2360  144.6900 O   0  0  0  0  0  1  0  0  0  0  0  0
  187.2850  178.2650  144.4240 O   0  0  0  0  0  0  0  0  0  0  0  0
  186.7610  177.4080  145.4040 C   0  0  1  0  0  0  0  0  0  0  0  0
  185.5840  176.8120  144.9510 O   0  0  0  0  0  1  0  0  0  0  0  0
  188.0070  177.0740  144.6640 C   0  0  2  0  0  3  0  0  0  0  0  0
  186.0020  177.5890  147.7360 C   0  0  0  0  0  2  0  0  0  0  0  0
  186.7350  178.0820  146.7430 C   0  0  0  0  0  3  0  0  0  0  0  0
  190.9170  177.3780  147.7010 O   0  0  0  0  0  0  0  0  0  0  0  0
  191.5490  177.1270  148.8280 O   0  0  0  0  0  1  0  0  0  0  0  0
  197.3220  173.5170  146.1810 O   0  0  0  0  0  1  0  0  0  0  0  0
  196.7140  173.3240  144.9860 N   0  0  0  0  0  2  0  0  0  0  0  0
  193.4350  171.2100  141.6260 C   0  0  0  0  0  2  0  0  0  0  0  0
  192.4110  171.3090  140.4970 C   0  0  0  0  0  2  0  0  0  0  0  0
  193.3710  174.4150  137.5940 C   0  0  2  0  0  3  0  0  0  0  0  0
  191.9330  173.9070  137.6120 C   0  0  0  0  0  2  0  0  0  0  0  0
  191.8380  172.5650  138.3390 C   0  0  1  0  0  3  0  0  0  0  0  0
  193.8590  173.2270  139.7320 C   0  0  0  0  0  2  0  0  0  0  0  0
  193.8800  174.5750  139.0200 C   0  0  0  0  0  2  0  0  0  0  0  0
  192.4410  172.6520  139.7570 C   0  0  2  0  0  3  0  0  0  0  0  0
  193.4290  175.9860  136.7640 Cl  0  0  0  0  0  0  0  0  0  0  0  0
  190.3860  172.0760  138.3510 C   0  0  0  0  0  2  0  0  0  0  0  0
  189.4960  173.0640  138.9450 N   0  0  0  0  0  2  0  0  0  0  0  0
  189.0070  172.5160  140.1100 O   0  0  0  0  0  0  0  0  0  0  0  0
  188.4850  174.7220  141.0370 N   0  0  0  0  0  2  0  0  0  0  0  0
  188.3500  173.3030  141.0520 C   0  0  0  0  0  0  0  0  0  0  0  0
  187.6110  172.7420  141.9490 N   0  0  0  0  0  1  0  0  0  0  0  0
  1 19  1  0  0  0  0
  2 15  1  0  0  0  0
  3 16  1  0  0  0  0
  3  4  1  1  0  0  0
  5 10  1  0  0  0  0
  6 21  1  1  0  0  0
  6 12  1  0  0  0  0
  6 20  1  0  0  0  0
  7  8  1  6  0  0  0
  7  5  1  0  0  0  0
  8 17  1  0  0  0  0
  9 14  1  0  0  0  0
 10 18  1  6  0  0  0
 10 20  1  0  0  0  0
 12 11  1  1  0  0  0
 13  9  1  0  0  0  0
 13  1  1  0  0  0  0
 14  2  1  0  0  0  0
 15 12  1  0  0  0  0
 16  7  1  0  0  0  0
 17 18  1  0  0  0  0
 19  3  1  0  0  0  0
 19 16  1  0  0  0  0
 20 29  1  0  0  0  0
 22 21  1  0  0  0  0
 23 26  1  0  0  0  0
 23 24  1  0  0  0  0
 24 28  1  0  0  0  0
 25 24  1  0  0  0  0
 26 24  1  0  0  0  0
 26 21  1  0  0  0  0
 28 27  2  0  0  0  0
 29 30  1  0  0  0  0
 32  3  1  0  0  0  0
 32 31  1  0  0  0  0
 33 13  1  0  0  0  0
 34 33  1  0  0  0  0
 35 36  1  0  0  0  0
 35 39  1  0  0  0  0
 36 37  1  0  0  0  0
 37 42  1  0  0  0  0
 37 40  1  0  0  0  0
 38 40  1  0  0  0  0
 39 38  1  0  0  0  0
 40 34  1  0  0  0  0
 41 35  1  0  0  0  0
 42 43  1  0  0  0  0
 43 44  1  0  0  0  0
 44 46  1  0  0  0  0
 45 46  2  0  0  0  0
 46 47  1  0  0  0  0
M  END
>  <MODEL>
2

>  <REMARK>
 VINA RESULT:      -6.7      1.419      1.676
  Name = 
  12 active torsions:
  status: ('A' for Active; 'I' for Inactive)
    1  A    between atoms: C_2  and  C_11
    2  A    between atoms: C_2  and  C_29
    3  A    between atoms: C_4  and  N_28
    4  A    between atoms: O_14  and  C_47
    5  A    between atoms: C_15  and  C_38
    6  A    between atoms: C_18  and  C_41
    7  A    between atoms: C_19  and  C_31
    8  A    between atoms: C_19  and  C_44
    9  A    between atoms: C_22  and  O_32
   10  A    between atoms: N_23  and  O_32
   11  A    between atoms: N_23  and  C_41
   12  A    between atoms: N_36  and  C_44
                            x       y       z     vdW  Elec       q    Type
                         _______ _______ _______ _____ _____    ______ ____

>  <TORSDO>
F 12

$$$$
=
 OpenBabel11072409023D

 47 51  0  0  1  0  0  0  0  0999 V2000
  193.7280  170.9730  143.9550 C   0  0  0  0  0  2  0  0  0  0  0  0
  190.1200  173.3340  144.4260 C   0  0  0  0  0  2  0  0  0  0  0  0
  195.6140  172.2660  145.1010 C   0  0  2  0  0  0  0  0  0  0  0  0
  195.9910  171.0010  145.5610 O   0  0  0  0  0  1  0  0  0  0  0  0
  192.7080  174.6030  146.1720 C   0  0  0  0  0  2  0  0  0  0  0  0
  190.0430  176.0540  145.7780 C   0  0  2  0  0  3  0  0  0  0  0  0
  194.1300  174.3110  145.7060 C   0  0  2  0  0  3  0  0  0  0  0  0
  194.4320  175.1440  144.4520 C   0  0  0  0  0  2  0  0  0  0  0  0
  191.8070  172.1630  143.0630 C   0  0  0  0  0  2  0  0  0  0  0  0
  192.5060  176.0290  146.4290 N   0  0  1  0  0  0  0  0  0  0  0  0
  188.5470  175.0030  147.3610 O   0  0  0  0  0  1  0  0  0  0  0  0
  189.0670  174.9020  146.0700 C   0  0  2  0  0  3  0  0  0  0  0  0
  192.6730  170.9920  142.9280 N   0  0  0  0  0  0  0  0  0  0  0  0
  190.9140  172.0510  144.2860 C   0  0  0  0  0  2  0  0  0  0  0  0
  189.7070  173.5330  145.8740 C   0  0  0  0  0  2  0  0  0  0  0  0
  194.2570  172.7830  145.5520 C   0  0  1  0  0  3  0  0  0  0  0  0
  194.1770  176.6190  144.7300 C   0  0  0  0  0  2  0  0  0  0  0  0
  192.7400  176.7980  145.2000 C   0  0  0  0  0  2  0  0  0  0  0  0
  194.4630  172.3110  144.1050 C   0  0  2  0  0  3  0  0  0  0  0  0
  191.1210  176.1960  146.8940 C   0  0  1  0  0  3  0  0  0  0  0  0
  189.2860  177.3500  145.4350 C   0  0  1  0  0  3  0  0  0  0  0  0
  190.0940  178.2040  144.6820 O   0  0  0  0  0  1  0  0  0  0  0  0
  187.3230  178.2310  144.3600 O   0  0  0  0  0  0  0  0  0  0  0  0
  186.7740  177.3980  145.3470 C   0  0  1  0  0  0  0  0  0  0  0  0
  185.5980  176.8070  144.8860 O   0  0  0  0  0  1  0  0  0  0  0  0
  188.0280  177.0370  144.6320 C   0  0  2  0  0  3  0  0  0  0  0  0
  186.0820  177.5640  147.7000 C   0  0  0  0  0  2  0  0  0  0  0  0
  186.7360  178.0970  146.6730 C   0  0  0  0  0  3  0  0  0  0  0  0
  190.9880  177.3720  147.6390 O   0  0  0  0  0  0  0  0  0  0  0  0
  191.5860  177.1110  148.7810 O   0  0  0  0  0  1  0  0  0  0  0  0
  197.6790  172.5580  144.2150 O   0  0  0  0  0  1  0  0  0  0  0  0
  196.6820  173.2230  144.8470 N   0  0  0  0  0  2  0  0  0  0  0  0
  193.3000  171.0730  141.6150 C   0  0  0  0  0  2  0  0  0  0  0  0
  192.7000  172.2130  140.7940 C   0  0  0  0  0  2  0  0  0  0  0  0
  190.1190  171.8930  137.2960 C   0  0  2  0  0  3  0  0  0  0  0  0
  191.5380  172.4000  137.0630 C   0  0  0  0  0  2  0  0  0  0  0  0
  192.1720  172.8690  138.3750 C   0  0  1  0  0  3  0  0  0  0  0  0
  190.7020  171.2130  139.6240 C   0  0  0  0  0  2  0  0  0  0  0  0
  190.1400  170.7390  138.2890 C   0  0  0  0  0  2  0  0  0  0  0  0
  192.1200  171.7610  139.4490 C   0  0  2  0  0  3  0  0  0  0  0  0
  189.4330  171.3370  135.7540 Cl  0  0  0  0  0  0  0  0  0  0  0  0
  193.5980  173.3670  138.1200 C   0  0  0  0  0  2  0  0  0  0  0  0
  193.7190  174.7940  138.3850 N   0  0  0  0  0  2  0  0  0  0  0  0
  194.9480  174.9900  138.9770 O   0  0  0  0  0  0  0  0  0  0  0  0
  195.7920  174.1470  141.1160 N   0  0  0  0  0  1  0  0  0  0  0  0
  195.0660  175.1120  140.3580 C   0  0  0  0  0  0  0  0  0  0  0  0
  194.5120  176.1110  140.9600 N   0  0  0  0  0  2  0  0  0  0  0  0
  1 19  1  0  0  0  0
  2 15  1  0  0  0  0
  3 16  1  0  0  0  0
  3  4  1  1  0  0  0
  5 10  1  0  0  0  0
  6 21  1  1  0  0  0
  6 12  1  0  0  0  0
  6 20  1  0  0  0  0
  7  8  1  6  0  0  0
  7  5  1  0  0  0  0
  8 17  1  0  0  0  0
  9 14  1  0  0  0  0
 10 18  1  6  0  0  0
 10 20  1  0  0  0  0
 12 11  1  1  0  0  0
 13  9  1  0  0  0  0
 13  1  1  0  0  0  0
 14  2  1  0  0  0  0
 15 12  1  0  0  0  0
 16  7  1  0  0  0  0
 17 18  1  0  0  0  0
 19  3  1  0  0  0  0
 19 16  1  0  0  0  0
 20 29  1  0  0  0  0
 22 21  1  0  0  0  0
 23 26  1  0  0  0  0
 23 24  1  0  0  0  0
 24 28  1  0  0  0  0
 25 24  1  0  0  0  0
 26 24  1  0  0  0  0
 26 21  1  0  0  0  0
 28 27  2  0  0  0  0
 29 30  1  0  0  0  0
 31 32  1  0  0  0  0
 32  3  1  0  0  0  0
 33 13  1  0  0  0  0
 34 33  1  0  0  0  0
 35 39  1  0  0  0  0
 36 35  1  0  0  0  0
 36 37  1  0  0  0  0
 37 40  1  0  0  0  0
 39 38  1  0  0  0  0
 40 38  1  0  0  0  0
 40 34  1  0  0  0  0
 41 35  1  0  0  0  0
 42 37  1  0  0  0  0
 42 43  1  0  0  0  0
 43 44  1  0  0  0  0
 44 46  1  0  0  0  0
 46 47  2  0  0  0  0
 46 45  1  0  0  0  0
M  END
>  <MODEL>
3

>  <REMARK>
 VINA RESULT:      -6.6      1.893      2.283
  Name = 
  12 active torsions:
  status: ('A' for Active; 'I' for Inactive)
    1  A    between atoms: C_2  and  C_11
    2  A    between atoms: C_2  and  C_29
    3  A    between atoms: C_4  and  N_28
    4  A    between atoms: O_14  and  C_47
    5  A    between atoms: C_15  and  C_38
    6  A    between atoms: C_18  and  C_41
    7  A    between atoms: C_19  and  C_31
    8  A    between atoms: C_19  and  C_44
    9  A    between atoms: C_22  and  O_32
   10  A    between atoms: N_23  and  O_32
   11  A    between atoms: N_23  and  C_41
   12  A    between atoms: N_36  and  C_44
                            x       y       z     vdW  Elec       q    Type
                         _______ _______ _______ _____ _____    ______ ____

>  <TORSDO>
F 12

$$$$
=
 OpenBabel11072409023D

 47 51  0  0  1  0  0  0  0  0999 V2000
  188.2850  173.7890  141.2640 C   0  0  0  0  0  2  0  0  0  0  0  0
  191.3410  172.9170  144.2160 C   0  0  0  0  0  2  0  0  0  0  0  0
  189.2760  173.2070  138.9790 C   0  0  2  0  0  0  0  0  0  0  0  0
  188.0060  172.6760  138.7370 O   0  0  0  0  0  1  0  0  0  0  0  0
  192.2220  171.8870  141.1310 C   0  0  0  0  0  2  0  0  0  0  0  0
  194.1280  171.9270  143.5240 C   0  0  2  0  0  3  0  0  0  0  0  0
  191.6170  172.5830  139.9170 C   0  0  2  0  0  3  0  0  0  0  0  0
  192.2630  173.9670  139.7530 C   0  0  0  0  0  2  0  0  0  0  0  0
  189.7480  174.4280  143.0950 C   0  0  0  0  0  2  0  0  0  0  0  0
  193.6770  171.7760  141.0210 N   0  0  1  0  0  0  0  0  0  0  0  0
  193.5320  169.9620  144.8010 O   0  0  0  0  0  1  0  0  0  0  0  0
  193.2200  171.3070  144.5990 C   0  0  2  0  0  3  0  0  0  0  0  0
  188.4220  174.5830  142.4970 N   0  0  0  0  0  0  0  0  0  0  0  0
  189.9190  173.0480  143.7080 C   0  0  0  0  0  2  0  0  0  0  0  0
  191.7400  171.4520  144.2650 C   0  0  0  0  0  2  0  0  0  0  0  0
  190.0860  172.5670  140.0940 C   0  0  1  0  0  3  0  0  0  0  0  0
  193.7780  173.8310  139.6820 C   0  0  0  0  0  2  0  0  0  0  0  0
  194.2760  173.1130  140.9280 C   0  0  0  0  0  2  0  0  0  0  0  0
  189.4610  173.9550  140.2920 C   0  0  2  0  0  3  0  0  0  0  0  0
  194.1510  171.0720  142.2220 C   0  0  1  0  0  3  0  0  0  0  0  0
  195.5140  172.2740  144.0990 C   0  0  1  0  0  3  0  0  0  0  0  0
  195.7240  173.6540  144.0710 O   0  0  0  0  0  1  0  0  0  0  0  0
  196.8720  172.1910  146.0830 O   0  0  0  0  0  0  0  0  0  0  0  0
  196.7440  170.8330  145.7520 C   0  0  1  0  0  0  0  0  0  0  0  0
  196.6900  170.0530  146.9060 O   0  0  0  0  0  1  0  0  0  0  0  0
  195.6280  171.7940  145.5430 C   0  0  2  0  0  3  0  0  0  0  0  0
  197.9230  169.1710  144.3750 C   0  0  0  0  0  2  0  0  0  0  0  0
  197.7300  170.4480  144.6900 C   0  0  0  0  0  3  0  0  0  0  0  0
  195.3900  170.4690  141.9830 O   0  0  0  0  0  0  0  0  0  0  0  0
  195.1380  169.5300  141.0970 O   0  0  0  0  0  1  0  0  0  0  0  0
  189.8630  172.9140  136.8100 O   0  0  0  0  0  1  0  0  0  0  0  0
  189.9800  173.7850  137.8410 N   0  0  0  0  0  2  0  0  0  0  0  0
  188.2650  175.9930  142.1640 C   0  0  0  0  0  2  0  0  0  0  0  0
  188.9070  176.8780  143.2310 C   0  0  0  0  0  2  0  0  0  0  0  0
  185.1980  177.8330  145.3130 C   0  0  2  0  0  3  0  0  0  0  0  0
  186.3470  177.2940  146.1600 C   0  0  0  0  0  2  0  0  0  0  0  0
  187.3960  176.6090  145.2820 C   0  0  1  0  0  3  0  0  0  0  0  0
  186.7260  178.1370  143.3650 C   0  0  0  0  0  2  0  0  0  0  0  0
  185.7320  178.8280  144.2920 C   0  0  0  0  0  2  0  0  0  0  0  0
  187.8910  177.5500  144.1630 C   0  0  2  0  0  3  0  0  0  0  0  0
  184.0190  178.6410  146.3690 Cl  0  0  0  0  0  0  0  0  0  0  0  0
  188.5430  176.0820  146.1510 C   0  0  0  0  0  2  0  0  0  0  0  0
  189.3860  177.1660  146.6370 N   0  0  0  0  0  2  0  0  0  0  0  0
  190.6820  176.8530  146.2910 O   0  0  0  0  0  0  0  0  0  0  0  0
  191.5600  176.8850  148.5770 N   0  0  0  0  0  1  0  0  0  0  0  0
  191.5850  176.3850  147.2420 C   0  0  0  0  0  0  0  0  0  0  0  0
  192.4530  175.4900  146.9110 N   0  0  0  0  0  2  0  0  0  0  0  0
  1 13  1  0  0  0  0
  2 15  1  0  0  0  0
  3  4  1  6  0  0  0
  3 16  1  0  0  0  0
  3 19  1  0  0  0  0
  6 21  1  1  0  0  0
  6 12  1  0  0  0  0
  7  8  1  1  0  0  0
  7 16  1  0  0  0  0
  7  5  1  0  0  0  0
  9 14  1  0  0  0  0
 10 18  1  1  0  0  0
 10  5  1  0  0  0  0
 10 20  1  0  0  0  0
 12 11  1  6  0  0  0
 13  9  1  0  0  0  0
 14  2  1  0  0  0  0
 15 12  1  0  0  0  0
 16 19  1  0  0  0  0
 17  8  1  0  0  0  0
 17 18  1  0  0  0  0
 19  1  1  0  0  0  0
 20  6  1  0  0  0  0
 21 26  1  0  0  0  0
 22 21  1  0  0  0  0
 24 23  1  0  0  0  0
 24 25  1  0  0  0  0
 26 24  1  0  0  0  0
 26 23  1  0  0  0  0
 27 28  2  0  0  0  0
 28 24  1  0  0  0  0
 29 20  1  0  0  0  0
 30 29  1  0  0  0  0
 31 32  1  0  0  0  0
 32  3  1  0  0  0  0
 33 13  1  0  0  0  0
 33 34  1  0  0  0  0
 34 40  1  0  0  0  0
 35 36  1  0  0  0  0
 35 41  1  0  0  0  0
 37 42  1  0  0  0  0
 37 36  1  0  0  0  0
 38 40  1  0  0  0  0
 38 39  1  0  0  0  0
 39 35  1  0  0  0  0
 40 37  1  0  0  0  0
 42 43  1  0  0  0  0
 44 43  1  0  0  0  0
 44 46  1  0  0  0  0
 46 45  1  0  0  0  0
 47 46  2  0  0  0  0
M  END
>  <MODEL>
4

>  <REMARK>
 VINA RESULT:      -6.5      3.191      8.859
  Name = 
  12 active torsions:
  status: ('A' for Active; 'I' for Inactive)
    1  A    between atoms: C_2  and  C_11
    2  A    between atoms: C_2  and  C_29
    3  A    between atoms: C_4  and  N_28
    4  A    between atoms: O_14  and  C_47
    5  A    between atoms: C_15  and  C_38
    6  A    between atoms: C_18  and  C_41
    7  A    between atoms: C_19  and  C_31
    8  A    between atoms: C_19  and  C_44
    9  A    between atoms: C_22  and  O_32
   10  A    between atoms: N_23  and  O_32
   11  A    between atoms: N_23  and  C_41
   12  A    between atoms: N_36  and  C_44
                            x       y       z     vdW  Elec       q    Type
                         _______ _______ _______ _____ _____    ______ ____

>  <TORSDO>
F 12

$$$$
=
 OpenBabel11072409023D

 47 51  0  0  1  0  0  0  0  0999 V2000
  188.4570  173.9260  141.6510 C   0  0  0  0  0  2  0  0  0  0  0  0
  191.7260  173.4130  144.4560 C   0  0  0  0  0  2  0  0  0  0  0  0
  189.3210  173.1830  139.3620 C   0  0  2  0  0  0  0  0  0  0  0  0
  188.0600  172.5910  139.2510 O   0  0  0  0  0  1  0  0  0  0  0  0
  192.4470  172.1510  141.4160 C   0  0  0  0  0  2  0  0  0  0  0  0
  194.5000  172.4600  143.6640 C   0  0  2  0  0  3  0  0  0  0  0  0
  191.7400  172.7190  140.1910 C   0  0  2  0  0  3  0  0  0  0  0  0
  192.3210  174.1040  139.8690 C   0  0  0  0  0  2  0  0  0  0  0  0
  190.0080  174.7690  143.3210 C   0  0  0  0  0  2  0  0  0  0  0  0
  193.8950  172.0780  141.2190 N   0  0  1  0  0  0  0  0  0  0  0  0
  194.0630  170.5940  145.1390 O   0  0  0  0  0  1  0  0  0  0  0  0
  193.6860  171.9060  144.8460 C   0  0  2  0  0  3  0  0  0  0  0  0
  188.6420  174.8280  142.8010 N   0  0  0  0  0  0  0  0  0  0  0  0
  190.2710  173.4540  144.0340 C   0  0  0  0  0  2  0  0  0  0  0  0
  192.1840  171.9720  144.6000 C   0  0  0  0  0  2  0  0  0  0  0  0
  190.2250  172.6680  140.4710 C   0  0  1  0  0  3  0  0  0  0  0  0
  193.8320  174.0120  139.7080 C   0  0  0  0  0  2  0  0  0  0  0  0
  194.4360  173.4220  140.9740 C   0  0  0  0  0  2  0  0  0  0  0  0
  189.5610  174.0470  140.5930 C   0  0  2  0  0  3  0  0  0  0  0  0
  194.4730  171.4970  142.4400 C   0  0  1  0  0  3  0  0  0  0  0  0
  195.9040  172.9010  144.1140 C   0  0  1  0  0  3  0  0  0  0  0  0
  196.8570  171.9460  143.7530 O   0  0  0  0  0  1  0  0  0  0  0  0
  197.3230  174.8420  144.1980 O   0  0  0  0  0  0  0  0  0  0  0  0
  196.0440  175.4000  144.3580 C   0  0  1  0  0  0  0  0  0  0  0  0
  195.9790  176.6500  143.7450 O   0  0  0  0  0  1  0  0  0  0  0  0
  196.2790  174.2310  143.4680 C   0  0  2  0  0  3  0  0  0  0  0  0
  194.3710  175.6860  146.1370 C   0  0  0  0  0  2  0  0  0  0  0  0
  195.5900  175.2910  145.7830 C   0  0  0  0  0  3  0  0  0  0  0  0
  195.7160  170.9160  142.1710 O   0  0  0  0  0  0  0  0  0  0  0  0
  195.4410  169.8850  141.4020 O   0  0  0  0  0  1  0  0  0  0  0  0
  188.9280  174.1530  137.3530 O   0  0  0  0  0  1  0  0  0  0  0  0
  189.9280  173.6820  138.1360 N   0  0  0  0  0  2  0  0  0  0  0  0
  188.4100  176.1980  142.3630 C   0  0  0  0  0  2  0  0  0  0  0  0
  188.9080  177.1950  143.4070 C   0  0  0  0  0  2  0  0  0  0  0  0
  184.9970  177.9380  145.1830 C   0  0  2  0  0  3  0  0  0  0  0  0
  186.0930  177.4310  146.1140 C   0  0  0  0  0  2  0  0  0  0  0  0
  187.2440  176.8130  145.3170 C   0  0  1  0  0  3  0  0  0  0  0  0
  186.6680  178.3530  143.3780 C   0  0  0  0  0  2  0  0  0  0  0  0
  185.5690  178.9780  144.2300 C   0  0  0  0  0  2  0  0  0  0  0  0
  187.7880  177.8000  144.2620 C   0  0  2  0  0  3  0  0  0  0  0  0
  183.6970  178.6690  146.1490 Cl  0  0  0  0  0  0  0  0  0  0  0  0
  188.3360  176.3170  146.2700 C   0  0  0  0  0  2  0  0  0  0  0  0
  189.0280  177.4270  146.9110 N   0  0  0  0  0  2  0  0  0  0  0  0
  190.3780  177.1740  146.8050 O   0  0  0  0  0  0  0  0  0  0  0  0
  191.3450  175.2920  148.0400 N   0  0  0  0  0  2  0  0  0  0  0  0
  191.1030  176.6890  147.8910 C   0  0  0  0  0  0  0  0  0  0  0  0
  191.5610  177.5140  148.7720 N   0  0  0  0  0  1  0  0  0  0  0  0
  1 13  1  0  0  0  0
  2 15  1  0  0  0  0
  3  4  1  6  0  0  0
  3 16  1  0  0  0  0
  3 19  1  0  0  0  0
  6 21  1  1  0  0  0
  6 12  1  0  0  0  0
  7  8  1  1  0  0  0
  7 16  1  0  0  0  0
  7  5  1  0  0  0  0
  9 14  1  0  0  0  0
 10 18  1  1  0  0  0
 10  5  1  0  0  0  0
 10 20  1  0  0  0  0
 12 11  1  6  0  0  0
 13  9  1  0  0  0  0
 14  2  1  0  0  0  0
 15 12  1  0  0  0  0
 16 19  1  0  0  0  0
 17  8  1  0  0  0  0
 17 18  1  0  0  0  0
 19  1  1  0  0  0  0
 20  6  1  0  0  0  0
 22 21  1  0  0  0  0
 23 24  1  0  0  0  0
 24 28  1  0  0  0  0
 25 24  1  0  0  0  0
 26 21  1  0  0  0  0
 26 23  1  0  0  0  0
 26 24  1  0  0  0  0
 28 27  2  0  0  0  0
 29 20  1  0  0  0  0
 30 29  1  0  0  0  0
 31 32  1  0  0  0  0
 32  3  1  0  0  0  0
 33 13  1  0  0  0  0
 33 34  1  0  0  0  0
 34 40  1  0  0  0  0
 35 36  1  0  0  0  0
 35 41  1  0  0  0  0
 37 36  1  0  0  0  0
 37 42  1  0  0  0  0
 38 39  1  0  0  0  0
 38 40  1  0  0  0  0
 39 35  1  0  0  0  0
 40 37  1  0  0  0  0
 42 43  1  0  0  0  0
 44 43  1  0  0  0  0
 44 46  1  0  0  0  0
 46 45  2  0  0  0  0
 46 47  1  0  0  0  0
M  END
>  <MODEL>
5

>  <REMARK>
 VINA RESULT:      -6.5      3.114      8.409
  Name = 
  12 active torsions:
  status: ('A' for Active; 'I' for Inactive)
    1  A    between atoms: C_2  and  C_11
    2  A    between atoms: C_2  and  C_29
    3  A    between atoms: C_4  and  N_28
    4  A    between atoms: O_14  and  C_47
    5  A    between atoms: C_15  and  C_38
    6  A    between atoms: C_18  and  C_41
    7  A    between atoms: C_19  and  C_31
    8  A    between atoms: C_19  and  C_44
    9  A    between atoms: C_22  and  O_32
   10  A    between atoms: N_23  and  O_32
   11  A    between atoms: N_23  and  C_41
   12  A    between atoms: N_36  and  C_44
                            x       y       z     vdW  Elec       q    Type
                         _______ _______ _______ _____ _____    ______ ____

>  <TORSDO>
F 12

$$$$
=
 OpenBabel11072409023D

 47 51  0  0  1  0  0  0  0  0999 V2000
  194.0580  171.3100  143.8530 C   0  0  0  0  0  2  0  0  0  0  0  0
  190.3220  173.4660  144.3040 C   0  0  0  0  0  2  0  0  0  0  0  0
  195.8390  172.6440  145.1140 C   0  0  2  0  0  0  0  0  0  0  0  0
  196.2670  171.3800  145.5330 O   0  0  0  0  0  1  0  0  0  0  0  0
  192.7860  174.7840  146.1860 C   0  0  0  0  0  2  0  0  0  0  0  0
  190.0630  176.1160  145.7670 C   0  0  2  0  0  3  0  0  0  0  0  0
  194.2350  174.5840  145.7560 C   0  0  2  0  0  3  0  0  0  0  0  0
  194.5330  175.4850  144.5480 C   0  0  0  0  0  2  0  0  0  0  0  0
  192.1080  172.4410  142.9480 C   0  0  0  0  0  2  0  0  0  0  0  0
  192.5030  176.1860  146.4970 N   0  0  1  0  0  0  0  0  0  0  0  0
  188.5750  174.9240  147.2530 O   0  0  0  0  0  1  0  0  0  0  0  0
  189.1390  174.9050  145.9770 C   0  0  2  0  0  3  0  0  0  0  0  0
  193.0360  171.3210  142.7930 N   0  0  0  0  0  0  0  0  0  0  0  0
  191.1840  172.2310  144.1360 C   0  0  0  0  0  2  0  0  0  0  0  0
  189.8540  173.5800  145.7450 C   0  0  0  0  0  2  0  0  0  0  0  0
  194.4450  173.0720  145.5410 C   0  0  1  0  0  3  0  0  0  0  0  0
  194.1940  176.9320  144.8800 C   0  0  0  0  0  2  0  0  0  0  0  0
  192.7360  177.0190  145.3100 C   0  0  0  0  0  2  0  0  0  0  0  0
  194.7190  172.6760  144.0840 C   0  0  2  0  0  3  0  0  0  0  0  0
  191.0970  176.2620  146.9220 C   0  0  1  0  0  3  0  0  0  0  0  0
  189.2520  177.3870  145.4540 C   0  0  1  0  0  3  0  0  0  0  0  0
  190.0160  178.2830  144.7040 O   0  0  0  0  0  1  0  0  0  0  0  0
  187.2830  178.2160  144.3480 O   0  0  0  0  0  0  0  0  0  0  0  0
  186.7400  177.4140  145.3640 C   0  0  1  0  0  0  0  0  0  0  0  0
  185.5680  176.7990  144.9240 O   0  0  0  0  0  1  0  0  0  0  0  0
  187.9960  177.0370  144.6620 C   0  0  2  0  0  3  0  0  0  0  0  0
  185.9800  177.6980  147.6850 C   0  0  0  0  0  2  0  0  0  0  0  0
  186.6960  178.1580  146.6640 C   0  0  0  0  0  3  0  0  0  0  0  0
  190.8820  177.3960  147.7110 O   0  0  0  0  0  0  0  0  0  0  0  0
  191.7310  177.2740  148.7090 O   0  0  0  0  0  1  0  0  0  0  0  0
  197.5300  173.7760  146.1110 O   0  0  0  0  0  1  0  0  0  0  0  0
  196.8640  173.6640  144.9360 N   0  0  0  0  0  2  0  0  0  0  0  0
  193.6980  171.4910  141.5060 C   0  0  0  0  0  2  0  0  0  0  0  0
  192.8870  172.4080  140.5930 C   0  0  0  0  0  2  0  0  0  0  0  0
  196.2020  174.4010  138.5820 C   0  0  2  0  0  3  0  0  0  0  0  0
  194.9370  174.1680  137.7630 C   0  0  0  0  0  2  0  0  0  0  0  0
  194.0490  173.1090  138.4200 C   0  0  1  0  0  3  0  0  0  0  0  0
  195.0060  173.7720  140.6790 C   0  0  0  0  0  2  0  0  0  0  0  0
  195.8300  174.8530  139.9880 C   0  0  0  0  0  2  0  0  0  0  0  0
  193.7330  173.4740  139.8860 C   0  0  2  0  0  3  0  0  0  0  0  0
  197.1880  175.6540  137.7970 Cl  0  0  0  0  0  0  0  0  0  0  0  0
  192.7820  172.8950  137.5850 C   0  0  0  0  0  2  0  0  0  0  0  0
  191.9300  174.0760  137.5970 N   0  0  0  0  0  2  0  0  0  0  0  0
  190.6840  173.6680  138.0220 O   0  0  0  0  0  0  0  0  0  0  0  0
  189.6670  173.1090  135.8650 N   0  0  0  0  0  2  0  0  0  0  0  0
  189.5900  173.6960  137.1620 C   0  0  0  0  0  0  0  0  0  0  0  0
  188.4940  174.2600  137.5430 N   0  0  0  0  0  1  0  0  0  0  0  0
  1 19  1  0  0  0  0
  2 15  1  0  0  0  0
  3  4  1  1  0  0  0
  3 16  1  0  0  0  0
  5 10  1  0  0  0  0
  6 21  1  1  0  0  0
  6 12  1  0  0  0  0
  6 20  1  0  0  0  0
  7  8  1  6  0  0  0
  7  5  1  0  0  0  0
  8 17  1  0  0  0  0
  9 14  1  0  0  0  0
 10 18  1  6  0  0  0
 10 20  1  0  0  0  0
 12 11  1  1  0  0  0
 13  9  1  0  0  0  0
 13  1  1  0  0  0  0
 14  2  1  0  0  0  0
 15 12  1  0  0  0  0
 16  7  1  0  0  0  0
 17 18  1  0  0  0  0
 19  3  1  0  0  0  0
 19 16  1  0  0  0  0
 20 29  1  0  0  0  0
 22 21  1  0  0  0  0
 23 26  1  0  0  0  0
 23 24  1  0  0  0  0
 24 28  1  0  0  0  0
 25 24  1  0  0  0  0
 26 24  1  0  0  0  0
 26 21  1  0  0  0  0
 28 27  2  0  0  0  0
 29 30  1  0  0  0  0
 32  3  1  0  0  0  0
 32 31  1  0  0  0  0
 33 13  1  0  0  0  0
 34 33  1  0  0  0  0
 35 39  1  0  0  0  0
 36 37  1  0  0  0  0
 36 35  1  0  0  0  0
 37 40  1  0  0  0  0
 39 38  1  0  0  0  0
 40 34  1  0  0  0  0
 40 38  1  0  0  0  0
 41 35  1  0  0  0  0
 42 43  1  0  0  0  0
 42 37  1  0  0  0  0
 43 44  1  0  0  0  0
 45 46  2  0  0  0  0
 46 47  1  0  0  0  0
 46 44  1  0  0  0  0
M  END
>  <MODEL>
6

>  <REMARK>
 VINA RESULT:      -6.2      2.132      2.694
  Name = 
  12 active torsions:
  status: ('A' for Active; 'I' for Inactive)
    1  A    between atoms: C_2  and  C_11
    2  A    between atoms: C_2  and  C_29
    3  A    between atoms: C_4  and  N_28
    4  A    between atoms: O_14  and  C_47
    5  A    between atoms: C_15  and  C_38
    6  A    between atoms: C_18  and  C_41
    7  A    between atoms: C_19  and  C_31
    8  A    between atoms: C_19  and  C_44
    9  A    between atoms: C_22  and  O_32
   10  A    between atoms: N_23  and  O_32
   11  A    between atoms: N_23  and  C_41
   12  A    between atoms: N_36  and  C_44
                            x       y       z     vdW  Elec       q    Type
                         _______ _______ _______ _____ _____    ______ ____

>  <TORSDO>
F 12

$$$$
=
 OpenBabel11072409023D

 47 51  0  0  1  0  0  0  0  0999 V2000
  188.5360  173.2950  141.1500 C   0  0  0  0  0  2  0  0  0  0  0  0
  191.5090  172.8590  144.2770 C   0  0  0  0  0  2  0  0  0  0  0  0
  189.7460  172.9450  138.9240 C   0  0  2  0  0  0  0  0  0  0  0  0
  188.5980  172.2190  138.5920 O   0  0  0  0  0  1  0  0  0  0  0  0
  192.7340  172.0700  141.2390 C   0  0  0  0  0  2  0  0  0  0  0  0
  194.4590  172.3590  143.7500 C   0  0  2  0  0  3  0  0  0  0  0  0
  192.0970  172.6900  140.0000 C   0  0  2  0  0  3  0  0  0  0  0  0
  192.5140  174.1640  139.9010 C   0  0  0  0  0  2  0  0  0  0  0  0
  189.7590  174.1170  143.0810 C   0  0  0  0  0  2  0  0  0  0  0  0
  194.1910  172.2020  141.2210 N   0  0  1  0  0  0  0  0  0  0  0  0
  194.1210  170.2890  144.9540 O   0  0  0  0  0  1  0  0  0  0  0  0
  193.6030  171.5700  144.7530 C   0  0  2  0  0  3  0  0  0  0  0  0
  188.4650  174.0680  142.4020 N   0  0  0  0  0  0  0  0  0  0  0  0
  190.1190  172.7690  143.6810 C   0  0  0  0  0  2  0  0  0  0  0  0
  192.1420  171.4790  144.3280 C   0  0  0  0  0  2  0  0  0  0  0  0
  190.5820  172.4170  140.0790 C   0  0  1  0  0  3  0  0  0  0  0  0
  194.0320  174.2810  139.9240 C   0  0  0  0  0  2  0  0  0  0  0  0
  194.5650  173.6220  141.1880 C   0  0  0  0  0  2  0  0  0  0  0  0
  189.7250  173.6780  140.2590 C   0  0  2  0  0  3  0  0  0  0  0  0
  194.7020  171.5540  142.4380 C   0  0  1  0  0  3  0  0  0  0  0  0
  195.7300  172.9130  144.4180 C   0  0  1  0  0  3  0  0  0  0  0  0
  196.7980  172.0290  144.2510 O   0  0  0  0  0  1  0  0  0  0  0  0
  197.0460  174.9160  144.6370 O   0  0  0  0  0  0  0  0  0  0  0  0
  195.7350  175.4160  144.6580 C   0  0  1  0  0  0  0  0  0  0  0  0
  195.6790  176.6610  144.0340 O   0  0  0  0  0  1  0  0  0  0  0  0
  196.1120  174.2570  143.8060 C   0  0  2  0  0  3  0  0  0  0  0  0
  193.9260  175.7710  146.2850 C   0  0  0  0  0  2  0  0  0  0  0  0
  195.1380  175.2900  146.0280 C   0  0  0  0  0  3  0  0  0  0  0  0
  196.0360  171.1690  142.2690 O   0  0  0  0  0  0  0  0  0  0  0  0
  195.9700  169.9630  141.7480 O   0  0  0  0  0  1  0  0  0  0  0  0
  190.5990  172.7790  136.8310 O   0  0  0  0  0  1  0  0  0  0  0  0
  190.4120  173.6600  137.8430 N   0  0  0  0  0  2  0  0  0  0  0  0
  188.0970  175.4410  142.0830 C   0  0  0  0  0  2  0  0  0  0  0  0
  188.6050  176.4040  143.1560 C   0  0  0  0  0  2  0  0  0  0  0  0
  186.7110  178.0340  146.7270 C   0  0  2  0  0  3  0  0  0  0  0  0
  186.1090  178.4320  145.3840 C   0  0  0  0  0  2  0  0  0  0  0  0
  187.0930  178.1630  144.2440 C   0  0  1  0  0  3  0  0  0  0  0  0
  188.1140  176.2900  145.6270 C   0  0  0  0  0  2  0  0  0  0  0  0
  187.0770  176.5570  146.7120 C   0  0  0  0  0  2  0  0  0  0  0  0
  187.5750  176.6960  144.2540 C   0  0  2  0  0  3  0  0  0  0  0  0
  185.5250  178.3390  148.0150 Cl  0  0  0  0  0  0  0  0  0  0  0  0
  186.4670  178.5620  142.9040 C   0  0  0  0  0  2  0  0  0  0  0  0
  185.0740  178.9590  143.0630 N   0  0  0  0  0  2  0  0  0  0  0  0
  184.3050  177.9500  142.5270 O   0  0  0  0  0  0  0  0  0  0  0  0
  182.0790  178.2910  141.5640 N   0  0  0  0  0  1  0  0  0  0  0  0
  183.4930  178.1790  141.4200 C   0  0  0  0  0  0  0  0  0  0  0  0
  184.0260  178.2910  140.2500 N   0  0  0  0  0  2  0  0  0  0  0  0
  1 13  1  0  0  0  0
  2 15  1  0  0  0  0
  3  4  1  6  0  0  0
  3 16  1  0  0  0  0
  3 19  1  0  0  0  0
  6 21  1  1  0  0  0
  6 12  1  0  0  0  0
  7  8  1  1  0  0  0
  7 16  1  0  0  0  0
  7  5  1  0  0  0  0
  8 17  1  0  0  0  0
  9 14  1  0  0  0  0
 10 18  1  1  0  0  0
 10  5  1  0  0  0  0
 10 20  1  0  0  0  0
 12 11  1  6  0  0  0
 13  9  1  0  0  0  0
 14  2  1  0  0  0  0
 15 12  1  0  0  0  0
 16 19  1  0  0  0  0
 17 18  1  0  0  0  0
 19  1  1  0  0  0  0
 20  6  1  0  0  0  0
 22 21  1  0  0  0  0
 23 24  1  0  0  0  0
 24 28  1  0  0  0  0
 25 24  1  0  0  0  0
 26 21  1  0  0  0  0
 26 23  1  0  0  0  0
 26 24  1  0  0  0  0
 28 27  2  0  0  0  0
 29 20  1  0  0  0  0
 30 29  1  0  0  0  0
 31 32  1  0  0  0  0
 32  3  1  0  0  0  0
 33 13  1  0  0  0  0
 33 34  1  0  0  0  0
 34 40  1  0  0  0  0
 35 41  1  0  0  0  0
 36 35  1  0  0  0  0
 37 40  1  0  0  0  0
 37 36  1  0  0  0  0
 38 39  1  0  0  0  0
 39 35  1  0  0  0  0
 40 38  1  0  0  0  0
 42 43  1  0  0  0  0
 42 37  1  0  0  0  0
 44 43  1  0  0  0  0
 46 45  1  0  0  0  0
 46 44  1  0  0  0  0
 47 46  2  0  0  0  0
M  END
>  <MODEL>
7

>  <REMARK>
 VINA RESULT:      -6.1      3.651      8.224
  Name = 
  12 active torsions:
  status: ('A' for Active; 'I' for Inactive)
    1  A    between atoms: C_2  and  C_11
    2  A    between atoms: C_2  and  C_29
    3  A    between atoms: C_4  and  N_28
    4  A    between atoms: O_14  and  C_47
    5  A    between atoms: C_15  and  C_38
    6  A    between atoms: C_18  and  C_41
    7  A    between atoms: C_19  and  C_31
    8  A    between atoms: C_19  and  C_44
    9  A    between atoms: C_22  and  O_32
   10  A    between atoms: N_23  and  O_32
   11  A    between atoms: N_23  and  C_41
   12  A    between atoms: N_36  and  C_44
                            x       y       z     vdW  Elec       q    Type
                         _______ _______ _______ _____ _____    ______ ____

>  <TORSDO>
F 12

$$$$
=
 OpenBabel11072409023D

 47 51  0  0  1  0  0  0  0  0999 V2000
  194.6930  174.2360  145.1380 C   0  0  0  0  0  2  0  0  0  0  0  0
  192.6440  174.5200  141.3260 C   0  0  0  0  0  2  0  0  0  0  0  0
  195.4450  171.8050  145.3950 C   0  0  2  0  0  0  0  0  0  0  0  0
  196.6170  172.3840  145.8920 O   0  0  0  0  0  1  0  0  0  0  0  0
  194.0900  171.5100  141.7720 C   0  0  0  0  0  2  0  0  0  0  0  0
  192.1640  172.1540  139.4820 C   0  0  2  0  0  3  0  0  0  0  0  0
  194.3270  171.0050  143.1910 C   0  0  2  0  0  3  0  0  0  0  0  0
  192.9880  170.5690  143.8030 C   0  0  0  0  0  2  0  0  0  0  0  0
  192.7530  174.7700  143.7760 C   0  0  0  0  0  2  0  0  0  0  0  0
  193.4390  170.4970  140.9400 N   0  0  1  0  0  0  0  0  0  0  0  0
  193.5120  173.3760  137.8890 O   0  0  0  0  0  1  0  0  0  0  0  0
  192.7270  173.5130  139.0350 C   0  0  2  0  0  3  0  0  0  0  0  0
  193.5620  175.1570  144.9310 N   0  0  0  0  0  0  0  0  0  0  0  0
  193.4890  175.0360  142.4730 C   0  0  0  0  0  2  0  0  0  0  0  0
  193.5290  174.2010  140.1330 C   0  0  0  0  0  2  0  0  0  0  0  0
  195.0910  172.1080  143.9480 C   0  0  1  0  0  3  0  0  0  0  0  0
  192.3100  169.5460  142.9020 C   0  0  0  0  0  2  0  0  0  0  0  0
  192.1340  170.1420  141.5120 C   0  0  0  0  0  2  0  0  0  0  0  0
  194.2950  172.7550  145.0900 C   0  0  2  0  0  3  0  0  0  0  0  0
  193.2810  171.0740  139.5960 C   0  0  1  0  0  3  0  0  0  0  0  0
  190.9500  171.7470  138.6280 C   0  0  1  0  0  3  0  0  0  0  0  0
  190.0640  170.9680  139.3760 O   0  0  0  0  0  1  0  0  0  0  0  0
  188.8500  172.6700  137.9040 O   0  0  0  0  0  0  0  0  0  0  0  0
  189.6510  172.8180  136.7610 C   0  0  1  0  0  0  0  0  0  0  0  0
  189.3130  173.9860  136.0770 O   0  0  0  0  0  1  0  0  0  0  0  0
  190.2090  172.9830  138.1300 C   0  0  2  0  0  3  0  0  0  0  0  0
  190.0710  171.5410  134.7020 C   0  0  0  0  0  2  0  0  0  0  0  0
  189.7080  171.5390  135.9810 C   0  0  0  0  0  3  0  0  0  0  0  0
  193.1680  170.0630  138.6360 O   0  0  0  0  0  0  0  0  0  0  0  0
  194.3080  170.0980  137.9800 O   0  0  0  0  0  1  0  0  0  0  0  0
  196.1390  169.9900  146.5600 O   0  0  0  0  0  1  0  0  0  0  0  0
  195.0470  170.5240  145.9620 N   0  0  0  0  0  2  0  0  0  0  0  0
  192.6930  175.1010  146.0990 C   0  0  0  0  0  2  0  0  0  0  0  0
  191.9210  176.4080  146.2680 C   0  0  0  0  0  2  0  0  0  0  0  0
  187.6070  176.9840  146.5050 C   0  0  2  0  0  3  0  0  0  0  0  0
  188.2880  177.3960  145.2040 C   0  0  0  0  0  2  0  0  0  0  0  0
  189.7970  177.5510  145.4040 C   0  0  1  0  0  3  0  0  0  0  0  0
  189.6810  175.8300  147.2720 C   0  0  0  0  0  2  0  0  0  0  0  0
  188.1900  175.6670  146.9990 C   0  0  0  0  0  2  0  0  0  0  0  0
  190.4170  176.2700  146.0050 C   0  0  2  0  0  3  0  0  0  0  0  0
  185.8640  176.7910  146.2190 Cl  0  0  0  0  0  0  0  0  0  0  0  0
  190.4620  177.9580  144.0850 C   0  0  0  0  0  2  0  0  0  0  0  0
  189.6000  177.6790  142.9450 N   0  0  0  0  0  2  0  0  0  0  0  0
  190.0390  176.4980  142.3880 O   0  0  0  0  0  0  0  0  0  0  0  0
  189.1300  174.4050  143.2760 N   0  0  0  0  0  1  0  0  0  0  0  0
  189.1870  175.4050  142.2620 C   0  0  0  0  0  0  0  0  0  0  0  0
  188.4420  175.2950  141.2140 N   0  0  0  0  0  2  0  0  0  0  0  0
  2 14  1  0  0  0  0
  3  4  1  1  0  0  0
  3 32  1  0  0  0  0
  6 21  1  6  0  0  0
  6 20  1  0  0  0  0
  7  5  1  6  0  0  0
  7  8  1  0  0  0  0
  7 16  1  0  0  0  0
  9 13  1  0  0  0  0
 10 18  1  1  0  0  0
 10  5  1  0  0  0  0
 12 11  1  6  0  0  0
 12  6  1  0  0  0  0
 12 15  1  0  0  0  0
 13  1  1  0  0  0  0
 13 33  1  0  0  0  0
 14  9  1  0  0  0  0
 15  2  1  0  0  0  0
 16 19  1  0  0  0  0
 16  3  1  0  0  0  0
 17  8  1  0  0  0  0
 18 17  1  0  0  0  0
 19  1  1  0  0  0  0
 19  3  1  0  0  0  0
 20 10  1  0  0  0  0
 21 22  1  0  0  0  0
 23 26  1  0  0  0  0
 24 23  1  0  0  0  0
 24 26  1  0  0  0  0
 25 24  1  0  0  0  0
 26 21  1  0  0  0  0
 27 28  2  0  0  0  0
 28 24  1  0  0  0  0
 29 20  1  0  0  0  0
 30 29  1  0  0  0  0
 32 31  1  0  0  0  0
 33 34  1  0  0  0  0
 35 39  1  0  0  0  0
 36 37  1  0  0  0  0
 36 35  1  0  0  0  0
 37 40  1  0  0  0  0
 39 38  1  0  0  0  0
 40 34  1  0  0  0  0
 40 38  1  0  0  0  0
 41 35  1  0  0  0  0
 42 37  1  0  0  0  0
 43 42  1  0  0  0  0
 44 43  1  0  0  0  0
 46 44  1  0  0  0  0
 46 45  1  0  0  0  0
 47 46  2  0  0  0  0
M  END
>  <MODEL>
8

>  <REMARK>
 VINA RESULT:      -6.0      3.173      7.985
  Name = 
  12 active torsions:
  status: ('A' for Active; 'I' for Inactive)
    1  A    between atoms: C_2  and  C_11
    2  A    between atoms: C_2  and  C_29
    3  A    between atoms: C_4  and  N_28
    4  A    between atoms: O_14  and  C_47
    5  A    between atoms: C_15  and  C_38
    6  A    between atoms: C_18  and  C_41
    7  A    between atoms: C_19  and  C_31
    8  A    between atoms: C_19  and  C_44
    9  A    between atoms: C_22  and  O_32
   10  A    between atoms: N_23  and  O_32
   11  A    between atoms: N_23  and  C_41
   12  A    between atoms: N_36  and  C_44
                            x       y       z     vdW  Elec       q    Type
                         _______ _______ _______ _____ _____    ______ ____

>  <TORSDO>
F 12

$$$$
=
 OpenBabel11072409023D

 47 51  0  0  1  0  0  0  0  0999 V2000
  191.4010  177.0690  145.1740 C   0  0  0  0  0  2  0  0  0  0  0  0
  192.8690  174.9880  141.6640 C   0  0  0  0  0  2  0  0  0  0  0  0
  190.6120  175.2790  146.8210 C   0  0  2  0  0  0  0  0  0  0  0  0
  191.2300  176.1000  147.7690 O   0  0  0  0  0  1  0  0  0  0  0  0
  192.1120  172.8710  144.1730 C   0  0  0  0  0  2  0  0  0  0  0  0
  192.7870  171.9690  141.3280 C   0  0  2  0  0  3  0  0  0  0  0  0
  191.0780  173.2930  145.2120 C   0  0  2  0  0  3  0  0  0  0  0  0
  189.6770  173.2200  144.5880 C   0  0  0  0  0  2  0  0  0  0  0  0
  191.3960  176.6130  142.7880 C   0  0  0  0  0  2  0  0  0  0  0  0
  191.8400  171.5310  143.6530 N   0  0  1  0  0  0  0  0  0  0  0  0
  195.1970  172.1160  141.2060 O   0  0  0  0  0  1  0  0  0  0  0  0
  194.0180  172.8480  141.0550 C   0  0  2  0  0  3  0  0  0  0  0  0
  191.2700  177.6390  143.8230 N   0  0  0  0  0  0  0  0  0  0  0  0
  192.8270  176.1160  142.6740 C   0  0  0  0  0  2  0  0  0  0  0  0
  194.0590  174.0860  141.9430 C   0  0  0  0  0  2  0  0  0  0  0  0
  191.5080  174.6700  145.7540 C   0  0  1  0  0  3  0  0  0  0  0  0
  189.4300  171.8300  144.0170 C   0  0  0  0  0  2  0  0  0  0  0  0
  190.5210  171.5020  143.0070 C   0  0  0  0  0  2  0  0  0  0  0  0
  190.5480  175.8140  145.3970 C   0  0  2  0  0  3  0  0  0  0  0  0
  192.9020  171.2150  142.6860 C   0  0  1  0  0  3  0  0  0  0  0  0
  192.4580  171.0790  140.1160 C   0  0  1  0  0  3  0  0  0  0  0  0
  191.1020  170.7510  140.1020 O   0  0  0  0  0  1  0  0  0  0  0  0
  192.0820  171.2230  137.7440 O   0  0  0  0  0  0  0  0  0  0  0  0
  193.4510  170.9220  137.8110 C   0  0  1  0  0  0  0  0  0  0  0  0
  194.1400  171.5550  136.7770 O   0  0  0  0  0  1  0  0  0  0  0  0
  192.7970  171.8020  138.8160 C   0  0  2  0  0  3  0  0  0  0  0  0
  192.9440  168.5680  137.3120 C   0  0  0  0  0  2  0  0  0  0  0  0
  193.6650  169.4500  137.9980 C   0  0  0  0  0  3  0  0  0  0  0  0
  193.0380  169.8320  142.5360 O   0  0  0  0  0  0  0  0  0  0  0  0
  194.2400  169.5630  142.9980 O   0  0  0  0  0  1  0  0  0  0  0  0
  188.4270  175.4390  147.4010 O   0  0  0  0  0  1  0  0  0  0  0  0
  189.4310  174.5420  147.2510 N   0  0  0  0  0  2  0  0  0  0  0  0
  189.9420  178.2220  143.6880 C   0  0  0  0  0  2  0  0  0  0  0  0
  189.0250  177.3060  142.8780 C   0  0  0  0  0  2  0  0  0  0  0  0
  184.8280  177.6550  141.7520 C   0  0  2  0  0  3  0  0  0  0  0  0
  185.1360  177.5260  143.2410 C   0  0  0  0  0  2  0  0  0  0  0  0
  186.5510  176.9870  143.4600 C   0  0  1  0  0  3  0  0  0  0  0  0
  187.2420  178.0260  141.2460 C   0  0  0  0  0  2  0  0  0  0  0  0
  185.8340  178.5910  141.0960 C   0  0  0  0  0  2  0  0  0  0  0  0
  187.5990  177.8480  142.7230 C   0  0  2  0  0  3  0  0  0  0  0  0
  183.1880  178.3080  141.5460 Cl  0  0  0  0  0  0  0  0  0  0  0  0
  186.8410  176.8730  144.9610 C   0  0  0  0  0  2  0  0  0  0  0  0
  185.6550  176.4720  145.7040 N   0  0  0  0  0  2  0  0  0  0  0  0
  185.6550  177.1920  146.8790 O   0  0  0  0  0  0  0  0  0  0  0  0
  185.9300  179.5080  147.6250 N   0  0  0  0  0  1  0  0  0  0  0  0
  185.2060  178.5090  146.9120 C   0  0  0  0  0  0  0  0  0  0  0  0
  184.1200  178.8280  146.2910 N   0  0  0  0  0  2  0  0  0  0  0  0
  1 19  1  0  0  0  0
  2 15  1  0  0  0  0
  2 14  1  0  0  0  0
  3 32  1  0  0  0  0
  3  4  1  1  0  0  0
  6 21  1  6  0  0  0
  6 20  1  0  0  0  0
  7  5  1  6  0  0  0
  7 16  1  0  0  0  0
  8  7  1  0  0  0  0
  9 13  1  0  0  0  0
 10 18  1  6  0  0  0
 10  5  1  0  0  0  0
 12 11  1  1  0  0  0
 12  6  1  0  0  0  0
 12 15  1  0  0  0  0
 13  1  1  0  0  0  0
 14  9  1  0  0  0  0
 16  3  1  0  0  0  0
 17  8  1  0  0  0  0
 18 17  1  0  0  0  0
 19 16  1  0  0  0  0
 19  3  1  0  0  0  0
 20 10  1  0  0  0  0
 22 21  1  0  0  0  0
 23 24  1  0  0  0  0
 23 26  1  0  0  0  0
 24 28  1  0  0  0  0
 24 26  1  0  0  0  0
 25 24  1  0  0  0  0
 26 21  1  0  0  0  0
 27 28  2  0  0  0  0
 29 20  1  0  0  0  0
 29 30  1  0  0  0  0
 32 31  1  0  0  0  0
 33 13  1  0  0  0  0
 34 33  1  0  0  0  0
 35 36  1  0  0  0  0
 36 37  1  0  0  0  0
 37 42  1  0  0  0  0
 38 40  1  0  0  0  0
 39 38  1  0  0  0  0
 39 35  1  0  0  0  0
 40 34  1  0  0  0  0
 40 37  1  0  0  0  0
 41 35  1  0  0  0  0
 42 43  1  0  0  0  0
 43 44  1  0  0  0  0
 44 46  1  0  0  0  0
 46 45  1  0  0  0  0
 47 46  2  0  0  0  0
M  END
>  <MODEL>
9

>  <REMARK>
 VINA RESULT:      -6.0      3.592      8.461
  Name = 
  12 active torsions:
  status: ('A' for Active; 'I' for Inactive)
    1  A    between atoms: C_2  and  C_11
    2  A    between atoms: C_2  and  C_29
    3  A    between atoms: C_4  and  N_28
    4  A    between atoms: O_14  and  C_47
    5  A    between atoms: C_15  and  C_38
    6  A    between atoms: C_18  and  C_41
    7  A    between atoms: C_19  and  C_31
    8  A    between atoms: C_19  and  C_44
    9  A    between atoms: C_22  and  O_32
   10  A    between atoms: N_23  and  O_32
   11  A    between atoms: N_23  and  C_41
   12  A    between atoms: N_36  and  C_44
                            x       y       z     vdW  Elec       q    Type
                         _______ _______ _______ _____ _____    ______ ____

>  <TORSDO>
F 12

$$$$
