=
 OpenBabel11062420513D

 50 53  0  0  1  0  0  0  0  0999 V2000
  189.6890  172.4250  142.4050 C   0  0  0  0  0  0  0  0  0  0  0  0
  188.6070  171.9680  142.8550 O   0  0  0  0  0  0  0  0  0  0  0  0
  189.7290  172.0220  139.9860 N   0  0  0  0  0  0  0  0  0  0  0  0
  189.2900  172.2450  138.7850 C   0  0  0  0  0  0  0  0  0  0  0  0
  188.5080  174.0240  140.8430 C   0  0  1  0  0  3  0  0  0  0  0  0
  189.4090  171.2360  137.7910 N   0  0  0  0  0  1  0  0  0  0  0  0
  188.6790  173.4990  138.4610 N   0  0  0  0  0  0  0  0  0  0  0  0
  188.3430  174.3500  139.3820 C   0  0  0  0  0  3  0  0  0  0  0  0
  189.6790  173.0450  141.0320 C   0  0  1  0  0  3  0  0  0  0  0  0
  188.7870  175.2980  141.6450 C   0  0  0  0  0  2  0  0  0  0  0  0
  188.0370  175.4150  142.9790 C   0  0  2  0  0  3  0  0  0  0  0  0
  185.2820  177.6030  144.2370 C   0  0  0  0  0  0  0  0  0  0  0  0
  185.5900  178.1190  141.9030 C   0  0  0  0  0  3  0  0  0  0  0  0
  186.9480  176.4470  142.9920 C   0  0  0  0  0  0  0  0  0  0  0  0
  186.6030  177.1600  141.8370 C   0  0  0  0  0  3  0  0  0  0  0  0
  184.9270  178.3480  143.1100 C   0  0  0  0  0  3  0  0  0  0  0  0
  186.2820  176.6840  144.1560 N   0  0  0  0  0  0  0  0  0  0  0  0
  184.5940  177.8460  145.5350 C   0  0  0  0  0  2  0  0  0  0  0  0
  185.7000  179.1140  146.9620 C   0  0  0  0  0  1  0  0  0  0  0  0
  184.7720  179.1750  145.9260 O   0  0  0  0  0  0  0  0  0  0  0  0
  188.9560  175.4920  144.1940 C   0  0  0  0  0  2  0  0  0  0  0  0
  190.1480  176.3960  143.9060 C   0  0  0  0  0  2  0  0  0  0  0  0
  190.7930  176.8740  145.1970 C   0  0  0  0  0  2  0  0  0  0  0  0
  189.7300  177.3030  146.1930 C   0  0  0  0  0  2  0  0  0  0  0  0
  190.2710  177.3050  147.4790 O   0  0  0  0  0  0  0  0  0  0  0  0
  191.3550  176.4320  147.4050 C   0  0  0  0  0  1  0  0  0  0  0  0
  190.8520  172.2650  143.1700 O   0  0  0  0  0  0  0  0  0  0  0  0
  192.9250  173.4260  144.9230 C   0  0  0  0  0  2  0  0  0  0  0  0
  193.8260  172.2800  145.1420 N   0  0  0  0  0  0  0  0  0  0  0  0
  193.0950  171.3430  142.9330 C   0  0  2  0  0  3  0  0  0  0  0  0
  193.3010  171.0980  144.4350 C   0  0  0  0  0  2  0  0  0  0  0  0
  192.7460  173.7490  143.4360 C   0  0  0  0  0  2  0  0  0  0  0  0
  192.1700  172.5420  142.6970 C   0  0  2  0  0  3  0  0  0  0  0  0
  192.6270  170.0860  142.2610 C   0  0  0  0  0  0  0  0  0  0  0  0
  192.3820  168.9270  142.9880 O   0  0  0  0  0  1  0  0  0  0  0  0
  192.3900  170.1010  141.0220 O   0  0  0  0  0  0  0  0  0  0  0  0
  195.2040  172.6140  144.7240 C   0  0  2  0  0  3  0  0  0  0  0  0
  196.3610  170.8900  146.1240 C   0  0  0  0  0  3  0  0  0  0  0  0
  197.2340  169.8070  146.2750 C   0  0  0  0  0  3  0  0  0  0  0  0
  196.7910  170.9010  143.7390 C   0  0  0  0  0  3  0  0  0  0  0  0
  197.6610  169.8180  143.8910 C   0  0  0  0  0  3  0  0  0  0  0  0
  197.8860  169.2730  145.1590 C   0  0  0  0  0  3  0  0  0  0  0  0
  196.1440  171.4480  144.8590 C   0  0  0  0  0  0  0  0  0  0  0  0
  195.7440  173.7860  145.5420 C   0  0  0  0  0  2  0  0  0  0  0  0
  197.6790  174.3230  144.2440 O   0  0  0  0  0  0  0  0  0  0  0  0
  194.8190  176.4990  144.9050 C   0  0  0  0  0  1  0  0  0  0  0  0
  196.5740  174.7200  144.7050 C   0  0  0  0  0  0  0  0  0  0  0  0
  196.0800  176.0210  144.3520 N   0  0  0  0  0  0  0  0  0  0  0  0
  195.8750  176.4280  141.9280 C   0  0  0  0  0  1  0  0  0  0  0  0
  196.6590  176.7090  143.2020 C   0  0  0  0  0  2  0  0  0  0  0  0
  1  2  2  0  0  0  0
  1 27  1  0  0  0  0
  3  9  1  0  0  0  0
  4  3  2  0  0  0  0
  5  9  1  0  0  0  0
  5 10  1  1  0  0  0
  6  4  1  0  0  0  0
  7  4  1  0  0  0  0
  7  8  2  0  0  0  0
  8  5  1  0  0  0  0
  9  1  1  1  0  0  0
 11 10  1  6  0  0  0
 11 14  1  0  0  0  0
 11 21  1  0  0  0  0
 12 18  1  0  0  0  0
 13 16  1  0  0  0  0
 14 17  2  0  0  0  0
 15 13  2  0  0  0  0
 15 14  1  0  0  0  0
 16 12  2  0  0  0  0
 17 12  1  0  0  0  0
 18 20  1  0  0  0  0
 20 19  1  0  0  0  0
 22 21  1  0  0  0  0
 22 23  1  0  0  0  0
 23 24  1  0  0  0  0
 24 25  1  0  0  0  0
 26 25  1  0  0  0  0
 28 29  1  0  0  0  0
 30 34  1  1  0  0  0
 30 31  1  0  0  0  0
 31 29  1  0  0  0  0
 32 28  1  0  0  0  0
 33 30  1  0  0  0  0
 33 27  1  1  0  0  0
 33 32  1  0  0  0  0
 34 35  1  0  0  0  0
 36 34  2  0  0  0  0
 37 43  1  0  0  0  0
 37 29  1  0  0  0  0
 37 44  1  1  0  0  0
 38 39  1  0  0  0  0
 40 41  2  0  0  0  0
 40 43  1  0  0  0  0
 41 42  1  0  0  0  0
 42 39  2  0  0  0  0
 43 38  2  0  0  0  0
 45 47  2  0  0  0  0
 47 44  1  0  0  0  0
 48 47  1  0  0  0  0
 48 46  1  0  0  0  0
 49 50  1  0  0  0  0
 50 48  1  0  0  0  0
M  END
>  <MODEL>
1

>  <REMARK>
 VINA RESULT:      -6.3      0.000      0.000
  Name = 
  19 active torsions:
  status: ('A' for Active; 'I' for Inactive)
    1  A    between atoms: C_1  and  N_17
    2  A    between atoms: C_1  and  C_42
    3  A    between atoms: C_1  and  C_45
    4  A    between atoms: C_7  and  C_11
    5  A    between atoms: C_7  and  C_15
    6  A    between atoms: C_8  and  C_33
    7  A    between atoms: C_11  and  O_20
    8  A    between atoms: C_12  and  C_24
    9  A    between atoms: C_14  and  C_23
   10  A    between atoms: C_15  and  C_46
   11  A    between atoms: C_18  and  O_32
   12  A    between atoms: C_18  and  C_50
   13  A    between atoms: C_23  and  C_41
   14  A    between atoms: C_26  and  C_41
   15  A    between atoms: O_32  and  C_39
   16  A    between atoms: C_33  and  O_49
   17  A    between atoms: C_41  and  C_46
   18  A    between atoms: C_42  and  C_43
   19  A    between atoms: N_44  and  C_47
                            x       y       z     vdW  Elec       q    Type
                         _______ _______ _______ _____ _____    ______ ____

>  <TORSDO>
F 19

$$$$
=
 OpenBabel11062420513D

 50 53  0  0  1  0  0  0  0  0999 V2000
  192.1240  173.8100  142.4050 C   0  0  0  0  0  0  0  0  0  0  0  0
  193.1930  174.4630  142.5200 O   0  0  0  0  0  0  0  0  0  0  0  0
  192.1020  171.6760  141.1950 N   0  0  0  0  0  0  0  0  0  0  0  0
  192.5750  170.4900  140.9660 C   0  0  0  0  0  0  0  0  0  0  0  0
  193.4290  171.8400  143.3020 C   0  0  1  0  0  3  0  0  0  0  0  0
  192.4120  169.9000  139.6830 N   0  0  0  0  0  1  0  0  0  0  0  0
  193.2680  169.7780  141.9970 N   0  0  0  0  0  0  0  0  0  0  0  0
  193.6390  170.3620  143.0950 C   0  0  0  0  0  3  0  0  0  0  0  0
  192.1960  172.3090  142.5110 C   0  0  1  0  0  3  0  0  0  0  0  0
  193.2140  172.1430  144.7880 C   0  0  0  0  0  2  0  0  0  0  0  0
  194.3760  172.8640  145.4870 C   0  0  2  0  0  3  0  0  0  0  0  0
  192.7100  175.9320  146.8160 C   0  0  0  0  0  0  0  0  0  0  0  0
  194.7090  176.6470  145.6750 C   0  0  0  0  0  3  0  0  0  0  0  0
  194.1170  174.3100  145.7930 C   0  0  0  0  0  0  0  0  0  0  0  0
  194.9880  175.3170  145.3550 C   0  0  0  0  0  3  0  0  0  0  0  0
  193.5670  176.9600  146.4150 C   0  0  0  0  0  3  0  0  0  0  0  0
  193.0070  174.6410  146.5060 N   0  0  0  0  0  0  0  0  0  0  0  0
  191.4950  176.2490  147.6160 C   0  0  0  0  0  2  0  0  0  0  0  0
  189.6540  175.0890  147.2470 C   0  0  0  0  0  1  0  0  0  0  0  0
  190.8400  175.0680  147.9760 O   0  0  0  0  0  0  0  0  0  0  0  0
  195.7320  172.6200  144.8320 C   0  0  0  0  0  2  0  0  0  0  0  0
  196.7290  172.0850  145.8510 C   0  0  0  0  0  2  0  0  0  0  0  0
  196.3550  170.6790  146.2930 C   0  0  0  0  0  2  0  0  0  0  0  0
  197.2120  169.6510  145.5750 C   0  0  0  0  0  2  0  0  0  0  0  0
  197.9380  168.9150  146.5110 O   0  0  0  0  0  0  0  0  0  0  0  0
  197.0050  168.5710  147.4870 C   0  0  0  0  0  1  0  0  0  0  0  0
  190.9440  174.5060  142.1100 O   0  0  0  0  0  0  0  0  0  0  0  0
  189.5850  177.1090  142.4230 C   0  0  0  0  0  2  0  0  0  0  0  0
  188.2830  176.8590  141.7790 N   0  0  0  0  0  0  0  0  0  0  0  0
  188.5200  174.4280  142.3460 C   0  0  2  0  0  3  0  0  0  0  0  0
  188.2440  175.4800  141.2610 C   0  0  0  0  0  2  0  0  0  0  0  0
  189.8710  176.1210  143.5580 C   0  0  0  0  0  2  0  0  0  0  0  0
  189.8670  174.6880  143.0290 C   0  0  2  0  0  3  0  0  0  0  0  0
  188.3980  173.0470  141.7720 C   0  0  0  0  0  0  0  0  0  0  0  0
  188.1000  172.8470  140.4290 O   0  0  0  0  0  0  0  0  0  0  0  0
  188.6340  172.0500  142.5080 O   0  0  0  0  0  1  0  0  0  0  0  0
  187.1750  177.1340  142.7200 C   0  0  2  0  0  3  0  0  0  0  0  0
  184.7110  177.5720  142.7280 C   0  0  0  0  0  3  0  0  0  0  0  0
  183.5240  177.9580  142.0940 C   0  0  0  0  0  3  0  0  0  0  0  0
  185.9310  177.9490  140.6690 C   0  0  0  0  0  3  0  0  0  0  0  0
  184.7460  178.3360  140.0370 C   0  0  0  0  0  3  0  0  0  0  0  0
  183.5420  178.3370  140.7480 C   0  0  0  0  0  3  0  0  0  0  0  0
  185.9150  177.5560  142.0170 C   0  0  0  0  0  0  0  0  0  0  0  0
  187.5760  178.2190  143.7190 C   0  0  0  0  0  2  0  0  0  0  0  0
  187.2880  177.0450  145.7810 O   0  0  0  0  0  0  0  0  0  0  0  0
  185.5290  180.0690  144.7240 C   0  0  0  0  0  1  0  0  0  0  0  0
  186.9280  178.0150  145.0590 C   0  0  0  0  0  0  0  0  0  0  0  0
  185.9730  178.9630  145.5630 N   0  0  0  0  0  0  0  0  0  0  0  0
  184.4330  178.2670  147.3590 C   0  0  0  0  0  1  0  0  0  0  0  0
  185.7120  179.0100  146.9980 C   0  0  0  0  0  2  0  0  0  0  0  0
  1  2  2  0  0  0  0
  3  9  1  0  0  0  0
  4  3  2  0  0  0  0
  4  7  1  0  0  0  0
  5 10  1  1  0  0  0
  6  4  1  0  0  0  0
  7  8  2  0  0  0  0
  8  5  1  0  0  0  0
  9  1  1  6  0  0  0
  9  5  1  0  0  0  0
 11 10  1  6  0  0  0
 11 14  1  0  0  0  0
 12 18  1  0  0  0  0
 13 16  1  0  0  0  0
 14 17  2  0  0  0  0
 15 13  2  0  0  0  0
 15 14  1  0  0  0  0
 16 12  2  0  0  0  0
 17 12  1  0  0  0  0
 18 20  1  0  0  0  0
 19 20  1  0  0  0  0
 21 11  1  0  0  0  0
 21 22  1  0  0  0  0
 22 23  1  0  0  0  0
 24 23  1  0  0  0  0
 24 25  1  0  0  0  0
 25 26  1  0  0  0  0
 27  1  1  0  0  0  0
 28 32  1  0  0  0  0
 29 28  1  0  0  0  0
 29 37  1  0  0  0  0
 30 34  1  6  0  0  0
 30 33  1  0  0  0  0
 31 29  1  0  0  0  0
 31 30  1  0  0  0  0
 33 27  1  6  0  0  0
 33 32  1  0  0  0  0
 34 36  1  0  0  0  0
 35 34  2  0  0  0  0
 37 44  1  1  0  0  0
 39 38  1  0  0  0  0
 40 43  1  0  0  0  0
 41 40  2  0  0  0  0
 41 42  1  0  0  0  0
 42 39  2  0  0  0  0
 43 37  1  0  0  0  0
 43 38  2  0  0  0  0
 44 47  1  0  0  0  0
 46 48  1  0  0  0  0
 47 48  1  0  0  0  0
 47 45  2  0  0  0  0
 48 50  1  0  0  0  0
 50 49  1  0  0  0  0
M  END
>  <MODEL>
2

>  <REMARK>
 VINA RESULT:      -6.1      2.264      8.958
  Name = 
  19 active torsions:
  status: ('A' for Active; 'I' for Inactive)
    1  A    between atoms: C_1  and  N_17
    2  A    between atoms: C_1  and  C_42
    3  A    between atoms: C_1  and  C_45
    4  A    between atoms: C_7  and  C_11
    5  A    between atoms: C_7  and  C_15
    6  A    between atoms: C_8  and  C_33
    7  A    between atoms: C_11  and  O_20
    8  A    between atoms: C_12  and  C_24
    9  A    between atoms: C_14  and  C_23
   10  A    between atoms: C_15  and  C_46
   11  A    between atoms: C_18  and  O_32
   12  A    between atoms: C_18  and  C_50
   13  A    between atoms: C_23  and  C_41
   14  A    between atoms: C_26  and  C_41
   15  A    between atoms: O_32  and  C_39
   16  A    between atoms: C_33  and  O_49
   17  A    between atoms: C_41  and  C_46
   18  A    between atoms: C_42  and  C_43
   19  A    between atoms: N_44  and  C_47
                            x       y       z     vdW  Elec       q    Type
                         _______ _______ _______ _____ _____    ______ ____

>  <TORSDO>
F 19

$$$$
=
 OpenBabel11062420513D

 50 53  0  0  1  0  0  0  0  0999 V2000
  188.5420  175.7080  146.2520 C   0  0  0  0  0  0  0  0  0  0  0  0
  188.7400  175.1340  147.3540 O   0  0  0  0  0  0  0  0  0  0  0  0
  187.0440  177.4720  147.0650 N   0  0  0  0  0  0  0  0  0  0  0  0
  186.2680  178.4920  146.8630 C   0  0  0  0  0  0  0  0  0  0  0  0
  187.0770  176.9660  144.6210 C   0  0  1  0  0  3  0  0  0  0  0  0
  186.0760  179.4490  147.8970 N   0  0  0  0  0  1  0  0  0  0  0  0
  185.6140  178.6630  145.6010 N   0  0  0  0  0  0  0  0  0  0  0  0
  185.9390  177.9520  144.5660 C   0  0  0  0  0  3  0  0  0  0  0  0
  187.2350  176.4300  146.0550 C   0  0  1  0  0  3  0  0  0  0  0  0
  186.8100  175.7910  143.6760 C   0  0  0  0  0  2  0  0  0  0  0  0
  187.3490  175.9600  142.2480 C   0  0  2  0  0  3  0  0  0  0  0  0
  189.0740  173.6920  139.8330 C   0  0  0  0  0  0  0  0  0  0  0  0
  188.9250  172.5140  141.9310 C   0  0  0  0  0  3  0  0  0  0  0  0
  188.0400  174.7480  141.6960 C   0  0  0  0  0  0  0  0  0  0  0  0
  188.2670  173.6130  142.4870 C   0  0  0  0  0  3  0  0  0  0  0  0
  189.3380  172.5520  140.5980 C   0  0  0  0  0  3  0  0  0  0  0  0
  188.4450  174.7570  140.3970 N   0  0  0  0  0  0  0  0  0  0  0  0
  189.5210  173.7520  138.4140 C   0  0  0  0  0  2  0  0  0  0  0  0
  191.1850  173.3930  137.0100 C   0  0  0  0  0  1  0  0  0  0  0  0
  190.9140  173.6620  138.3480 O   0  0  0  0  0  0  0  0  0  0  0  0
  188.1350  177.2500  142.0390 C   0  0  0  0  0  2  0  0  0  0  0  0
  187.3070  178.2590  141.2530 C   0  0  0  0  0  2  0  0  0  0  0  0
  186.3830  177.5560  140.2710 C   0  0  0  0  0  2  0  0  0  0  0  0
  184.9840  178.1420  140.3470 C   0  0  0  0  0  2  0  0  0  0  0  0
  184.7200  178.5490  141.6540 O   0  0  0  0  0  0  0  0  0  0  0  0
  183.3910  178.1870  141.8720 C   0  0  0  0  0  1  0  0  0  0  0  0
  189.5120  175.5800  145.2490 O   0  0  0  0  0  0  0  0  0  0  0  0
  191.3500  173.4160  144.4410 C   0  0  0  0  0  2  0  0  0  0  0  0
  192.0450  174.0130  143.2850 N   0  0  0  0  0  0  0  0  0  0  0  0
  191.6280  176.2830  144.2660 C   0  0  2  0  0  3  0  0  0  0  0  0
  191.5180  175.3670  143.0380 C   0  0  0  0  0  2  0  0  0  0  0  0
  191.4920  174.2660  145.7060 C   0  0  0  0  0  2  0  0  0  0  0  0
  190.9190  175.6630  145.4750 C   0  0  2  0  0  3  0  0  0  0  0  0
  191.1400  177.6620  143.9300 C   0  0  0  0  0  0  0  0  0  0  0  0
  191.4460  178.2590  142.7120 O   0  0  0  0  0  0  0  0  0  0  0  0
  190.3860  178.2630  144.7410 O   0  0  0  0  0  1  0  0  0  0  0  0
  193.5080  174.0140  143.5010 C   0  0  2  0  0  3  0  0  0  0  0  0
  195.0450  175.7170  142.4990 C   0  0  0  0  0  3  0  0  0  0  0  0
  195.7530  176.2560  141.4180 C   0  0  0  0  0  3  0  0  0  0  0  0
  194.2060  173.9520  141.0660 C   0  0  0  0  0  3  0  0  0  0  0  0
  194.9150  174.4900  139.9880 C   0  0  0  0  0  3  0  0  0  0  0  0
  195.6850  175.6440  140.1630 C   0  0  0  0  0  3  0  0  0  0  0  0
  194.2620  174.5710  142.3250 C   0  0  0  0  0  0  0  0  0  0  0  0
  194.0100  172.5990  143.7890 C   0  0  0  0  0  2  0  0  0  0  0  0
  195.2480  173.2390  145.7310 O   0  0  0  0  0  0  0  0  0  0  0  0
  196.4150  171.1130  142.9980 C   0  0  0  0  0  1  0  0  0  0  0  0
  195.2480  172.6050  144.6400 C   0  0  0  0  0  0  0  0  0  0  0  0
  196.3950  171.8240  144.2700 N   0  0  0  0  0  0  0  0  0  0  0  0
  197.0960  170.1050  145.8950 C   0  0  0  0  0  1  0  0  0  0  0  0
  197.3760  171.4760  145.2950 C   0  0  0  0  0  2  0  0  0  0  0  0
  1  2  2  0  0  0  0
  4  3  2  0  0  0  0
  4  6  1  0  0  0  0
  5 10  1  6  0  0  0
  5  9  1  0  0  0  0
  7  4  1  0  0  0  0
  8  5  1  0  0  0  0
  8  7  2  0  0  0  0
  9  1  1  6  0  0  0
  9  3  1  0  0  0  0
 11 21  1  1  0  0  0
 11 10  1  0  0  0  0
 12 17  2  0  0  0  0
 12 16  1  0  0  0  0
 13 15  1  0  0  0  0
 14 11  1  0  0  0  0
 14 15  2  0  0  0  0
 16 13  2  0  0  0  0
 17 14  1  0  0  0  0
 18 12  1  0  0  0  0
 19 20  1  0  0  0  0
 20 18  1  0  0  0  0
 22 21  1  0  0  0  0
 23 24  1  0  0  0  0
 23 22  1  0  0  0  0
 24 25  1  0  0  0  0
 25 26  1  0  0  0  0
 27  1  1  0  0  0  0
 28 32  1  0  0  0  0
 29 37  1  0  0  0  0
 29 28  1  0  0  0  0
 30 34  1  6  0  0  0
 30 33  1  0  0  0  0
 31 29  1  0  0  0  0
 31 30  1  0  0  0  0
 33 27  1  6  0  0  0
 33 32  1  0  0  0  0
 34 36  1  0  0  0  0
 35 34  2  0  0  0  0
 37 44  1  6  0  0  0
 39 38  2  0  0  0  0
 40 43  2  0  0  0  0
 41 42  2  0  0  0  0
 41 40  1  0  0  0  0
 42 39  1  0  0  0  0
 43 38  1  0  0  0  0
 43 37  1  0  0  0  0
 44 47  1  0  0  0  0
 46 48  1  0  0  0  0
 47 45  2  0  0  0  0
 48 47  1  0  0  0  0
 48 50  1  0  0  0  0
 50 49  1  0  0  0  0
M  END
>  <MODEL>
3

>  <REMARK>
 VINA RESULT:      -6.0      2.397      6.770
  Name = 
  19 active torsions:
  status: ('A' for Active; 'I' for Inactive)
    1  A    between atoms: C_1  and  N_17
    2  A    between atoms: C_1  and  C_42
    3  A    between atoms: C_1  and  C_45
    4  A    between atoms: C_7  and  C_11
    5  A    between atoms: C_7  and  C_15
    6  A    between atoms: C_8  and  C_33
    7  A    between atoms: C_11  and  O_20
    8  A    between atoms: C_12  and  C_24
    9  A    between atoms: C_14  and  C_23
   10  A    between atoms: C_15  and  C_46
   11  A    between atoms: C_18  and  O_32
   12  A    between atoms: C_18  and  C_50
   13  A    between atoms: C_23  and  C_41
   14  A    between atoms: C_26  and  C_41
   15  A    between atoms: O_32  and  C_39
   16  A    between atoms: C_33  and  O_49
   17  A    between atoms: C_41  and  C_46
   18  A    between atoms: C_42  and  C_43
   19  A    between atoms: N_44  and  C_47
                            x       y       z     vdW  Elec       q    Type
                         _______ _______ _______ _____ _____    ______ ____

>  <TORSDO>
F 19

$$$$
=
 OpenBabel11062420513D

 50 53  0  0  1  0  0  0  0  0999 V2000
  188.5670  174.9600  141.9100 C   0  0  0  0  0  0  0  0  0  0  0  0
  187.6200  174.1440  142.0550 O   0  0  0  0  0  0  0  0  0  0  0  0
  187.0050  176.6410  141.0440 N   0  0  0  0  0  0  0  0  0  0  0  0
  186.2790  177.7060  141.1910 C   0  0  0  0  0  0  0  0  0  0  0  0
  188.1850  177.1030  143.1940 C   0  0  1  0  0  3  0  0  0  0  0  0
  185.1250  177.8920  140.3810 N   0  0  0  0  0  1  0  0  0  0  0  0
  186.6280  178.6880  142.1720 N   0  0  0  0  0  0  0  0  0  0  0  0
  187.5250  178.4530  143.0800 C   0  0  0  0  0  3  0  0  0  0  0  0
  188.2310  176.4250  141.8140 C   0  0  1  0  0  3  0  0  0  0  0  0
  189.6140  177.2530  143.7250 C   0  0  0  0  0  2  0  0  0  0  0  0
  189.8460  176.7210  145.1470 C   0  0  2  0  0  3  0  0  0  0  0  0
  193.5340  176.2700  144.7580 C   0  0  0  0  0  0  0  0  0  0  0  0
  193.0520  176.1740  147.1180 C   0  0  0  0  0  3  0  0  0  0  0  0
  191.2880  176.5100  145.5040 C   0  0  0  0  0  0  0  0  0  0  0  0
  191.6960  176.3570  146.8360 C   0  0  0  0  0  3  0  0  0  0  0  0
  193.9800  176.1360  146.0760 C   0  0  0  0  0  3  0  0  0  0  0  0
  192.2110  176.4620  144.5050 N   0  0  0  0  0  0  0  0  0  0  0  0
  194.5140  176.2440  143.6370 C   0  0  0  0  0  2  0  0  0  0  0  0
  196.6660  176.1420  143.1620 C   0  0  0  0  0  1  0  0  0  0  0  0
  195.7680  176.6580  144.0920 O   0  0  0  0  0  0  0  0  0  0  0  0
  188.9550  175.5390  145.5120 C   0  0  0  0  0  2  0  0  0  0  0  0
  188.2080  175.8140  146.8110 C   0  0  0  0  0  2  0  0  0  0  0  0
  187.6620  177.2330  146.8340 C   0  0  0  0  0  2  0  0  0  0  0  0
  186.1600  177.2200  147.0630 C   0  0  0  0  0  2  0  0  0  0  0  0
  185.5130  177.7210  145.9340 O   0  0  0  0  0  0  0  0  0  0  0  0
  184.2860  178.1830  146.4090 C   0  0  0  0  0  1  0  0  0  0  0  0
  189.8670  174.4570  141.7710 O   0  0  0  0  0  0  0  0  0  0  0  0
  192.0800  173.6840  139.9750 C   0  0  0  0  0  2  0  0  0  0  0  0
  193.0820  173.1620  140.9220 N   0  0  0  0  0  0  0  0  0  0  0  0
  191.2190  172.5610  142.4890 C   0  0  2  0  0  3  0  0  0  0  0  0
  192.5650  173.2740  142.2980 C   0  0  0  0  0  2  0  0  0  0  0  0
  190.7390  172.9530  140.0860 C   0  0  0  0  0  2  0  0  0  0  0  0
  190.1750  173.0900  141.4990 C   0  0  2  0  0  3  0  0  0  0  0  0
  190.7820  172.6520  143.9220 C   0  0  0  0  0  0  0  0  0  0  0  0
  189.5460  172.1660  144.3320 O   0  0  0  0  0  0  0  0  0  0  0  0
  191.5780  173.1200  144.7810 O   0  0  0  0  0  1  0  0  0  0  0  0
  193.4520  171.7720  140.5760 C   0  0  2  0  0  3  0  0  0  0  0  0
  194.3610  170.1100  142.2120 C   0  0  0  0  0  3  0  0  0  0  0  0
  195.3910  169.6050  143.0140 C   0  0  0  0  0  3  0  0  0  0  0  0
  195.8350  171.8680  141.4310 C   0  0  0  0  0  3  0  0  0  0  0  0
  196.8620  171.3620  142.2320 C   0  0  0  0  0  3  0  0  0  0  0  0
  196.6400  170.2330  143.0260 C   0  0  0  0  0  3  0  0  0  0  0  0
  194.5750  171.2470  141.4270 C   0  0  0  0  0  0  0  0  0  0  0  0
  193.8530  171.6740  139.1050 C   0  0  0  0  0  2  0  0  0  0  0  0
  193.1440  169.4000  138.9030 O   0  0  0  0  0  0  0  0  0  0  0  0
  192.3780  172.1390  136.6080 C   0  0  0  0  0  1  0  0  0  0  0  0
  193.1360  170.5570  138.4000 C   0  0  0  0  0  0  0  0  0  0  0  0
  192.3690  170.8130  137.2130 N   0  0  0  0  0  0  0  0  0  0  0  0
  189.9790  170.5320  136.6680 C   0  0  0  0  0  1  0  0  0  0  0  0
  191.3370  169.8590  136.8180 C   0  0  0  0  0  2  0  0  0  0  0  0
  1  2  2  0  0  0  0
  3  4  2  0  0  0  0
  3  9  1  0  0  0  0
  4  7  1  0  0  0  0
  5 10  1  6  0  0  0
  6  4  1  0  0  0  0
  7  8  2  0  0  0  0
  8  5  1  0  0  0  0
  9  1  1  1  0  0  0
  9  5  1  0  0  0  0
 11 10  1  6  0  0  0
 11 14  1  0  0  0  0
 11 21  1  0  0  0  0
 12 16  1  0  0  0  0
 14 15  2  0  0  0  0
 15 13  1  0  0  0  0
 16 13  2  0  0  0  0
 17 12  2  0  0  0  0
 17 14  1  0  0  0  0
 18 20  1  0  0  0  0
 18 12  1  0  0  0  0
 19 20  1  0  0  0  0
 21 22  1  0  0  0  0
 22 23  1  0  0  0  0
 23 24  1  0  0  0  0
 25 26  1  0  0  0  0
 25 24  1  0  0  0  0
 27  1  1  0  0  0  0
 28 32  1  0  0  0  0
 28 29  1  0  0  0  0
 29 31  1  0  0  0  0
 30 34  1  1  0  0  0
 31 30  1  0  0  0  0
 32 33  1  0  0  0  0
 33 27  1  1  0  0  0
 33 30  1  0  0  0  0
 34 35  2  0  0  0  0
 34 36  1  0  0  0  0
 37 44  1  6  0  0  0
 37 29  1  0  0  0  0
 37 43  1  0  0  0  0
 38 39  1  0  0  0  0
 39 42  2  0  0  0  0
 40 41  2  0  0  0  0
 41 42  1  0  0  0  0
 43 40  1  0  0  0  0
 43 38  2  0  0  0  0
 46 48  1  0  0  0  0
 47 45  2  0  0  0  0
 47 44  1  0  0  0  0
 48 47  1  0  0  0  0
 49 50  1  0  0  0  0
 50 48  1  0  0  0  0
M  END
>  <MODEL>
4

>  <REMARK>
 VINA RESULT:      -5.9      2.364      6.278
  Name = 
  19 active torsions:
  status: ('A' for Active; 'I' for Inactive)
    1  A    between atoms: C_1  and  N_17
    2  A    between atoms: C_1  and  C_42
    3  A    between atoms: C_1  and  C_45
    4  A    between atoms: C_7  and  C_11
    5  A    between atoms: C_7  and  C_15
    6  A    between atoms: C_8  and  C_33
    7  A    between atoms: C_11  and  O_20
    8  A    between atoms: C_12  and  C_24
    9  A    between atoms: C_14  and  C_23
   10  A    between atoms: C_15  and  C_46
   11  A    between atoms: C_18  and  O_32
   12  A    between atoms: C_18  and  C_50
   13  A    between atoms: C_23  and  C_41
   14  A    between atoms: C_26  and  C_41
   15  A    between atoms: O_32  and  C_39
   16  A    between atoms: C_33  and  O_49
   17  A    between atoms: C_41  and  C_46
   18  A    between atoms: C_42  and  C_43
   19  A    between atoms: N_44  and  C_47
                            x       y       z     vdW  Elec       q    Type
                         _______ _______ _______ _____ _____    ______ ____

>  <TORSDO>
F 19

$$$$
=
 OpenBabel11062420513D

 50 53  0  0  1  0  0  0  0  0999 V2000
  192.1710  173.4860  142.5790 C   0  0  0  0  0  0  0  0  0  0  0  0
  192.0850  172.6620  143.5260 O   0  0  0  0  0  0  0  0  0  0  0  0
  193.5790  172.2910  140.9640 N   0  0  0  0  0  0  0  0  0  0  0  0
  194.3050  172.2580  139.8890 C   0  0  0  0  0  0  0  0  0  0  0  0
  193.5790  174.7870  140.9310 C   0  0  1  0  0  3  0  0  0  0  0  0
  194.4460  171.0400  139.1700 N   0  0  0  0  0  1  0  0  0  0  0  0
  194.9530  173.4450  139.4180 N   0  0  0  0  0  0  0  0  0  0  0  0
  194.6680  174.6140  139.9040 C   0  0  0  0  0  3  0  0  0  0  0  0
  193.4420  173.5050  141.7700 C   0  0  1  0  0  3  0  0  0  0  0  0
  193.9060  175.9600  141.8600 C   0  0  0  0  0  2  0  0  0  0  0  0
  194.9340  175.6610  142.9610 C   0  0  2  0  0  3  0  0  0  0  0  0
  193.1000  175.5610  146.2140 C   0  0  0  0  0  0  0  0  0  0  0  0
  194.5870  177.4570  146.2940 C   0  0  0  0  0  3  0  0  0  0  0  0
  194.4920  176.0370  144.3440 C   0  0  0  0  0  0  0  0  0  0  0  0
  195.0230  177.1550  145.0020 C   0  0  0  0  0  3  0  0  0  0  0  0
  193.6240  176.6550  146.9090 C   0  0  0  0  0  3  0  0  0  0  0  0
  193.5490  175.2750  144.9620 N   0  0  0  0  0  0  0  0  0  0  0  0
  192.0830  174.6890  146.8620 C   0  0  0  0  0  2  0  0  0  0  0  0
  190.0210  175.1470  147.5010 C   0  0  0  0  0  1  0  0  0  0  0  0
  191.3520  175.4240  147.7990 O   0  0  0  0  0  0  0  0  0  0  0  0
  196.3440  176.1370  142.6280 C   0  0  0  0  0  2  0  0  0  0  0  0
  197.3260  174.9740  142.6750 C   0  0  0  0  0  2  0  0  0  0  0  0
  197.6820  174.6210  144.1110 C   0  0  0  0  0  2  0  0  0  0  0  0
  197.7740  173.1140  144.2790 C   0  0  0  0  0  2  0  0  0  0  0  0
  197.2610  172.7520  145.5240 O   0  0  0  0  0  0  0  0  0  0  0  0
  197.0740  171.3730  145.4380 C   0  0  0  0  0  1  0  0  0  0  0  0
  191.1160  174.3850  142.3780 O   0  0  0  0  0  0  0  0  0  0  0  0
  189.7120  176.9510  142.7850 C   0  0  0  0  0  2  0  0  0  0  0  0
  188.4570  176.7410  142.0400 N   0  0  0  0  0  0  0  0  0  0  0  0
  188.6820  174.2770  142.4460 C   0  0  2  0  0  3  0  0  0  0  0  0
  188.4680  175.4020  141.4240 C   0  0  0  0  0  2  0  0  0  0  0  0
  189.9320  175.8860  143.8640 C   0  0  0  0  0  2  0  0  0  0  0  0
  189.9790  174.4950  143.2340 C   0  0  2  0  0  3  0  0  0  0  0  0
  188.6130  172.9400  141.7680 C   0  0  0  0  0  0  0  0  0  0  0  0
  188.2270  172.8240  140.4380 O   0  0  0  0  0  0  0  0  0  0  0  0
  188.9740  171.9090  142.3990 O   0  0  0  0  0  1  0  0  0  0  0  0
  187.2880  176.9410  142.9230 C   0  0  2  0  0  3  0  0  0  0  0  0
  186.2130  177.7900  140.8270 C   0  0  0  0  0  3  0  0  0  0  0  0
  185.1060  178.2610  140.1120 C   0  0  0  0  0  3  0  0  0  0  0  0
  184.8310  177.5490  142.8030 C   0  0  0  0  0  3  0  0  0  0  0  0
  183.7260  178.0190  142.0870 C   0  0  0  0  0  3  0  0  0  0  0  0
  183.8640  178.3790  140.7430 C   0  0  0  0  0  3  0  0  0  0  0  0
  186.0830  177.4420  142.1760 C   0  0  0  0  0  0  0  0  0  0  0  0
  187.6230  177.9230  144.0440 C   0  0  0  0  0  2  0  0  0  0  0  0
  187.3170  176.4350  145.8900 O   0  0  0  0  0  0  0  0  0  0  0  0
  185.6770  179.6620  145.3910 C   0  0  0  0  0  1  0  0  0  0  0  0
  186.9890  177.5260  145.3470 C   0  0  0  0  0  0  0  0  0  0  0  0
  186.0850  178.4140  146.0240 N   0  0  0  0  0  0  0  0  0  0  0  0
  186.8170  179.0580  148.2900 C   0  0  0  0  0  1  0  0  0  0  0  0
  185.8500  178.2320  147.4530 C   0  0  0  0  0  2  0  0  0  0  0  0
  1  2  2  0  0  0  0
  3  9  1  0  0  0  0
  4  3  2  0  0  0  0
  5  9  1  0  0  0  0
  5 10  1  1  0  0  0
  6  4  1  0  0  0  0
  7  4  1  0  0  0  0
  7  8  2  0  0  0  0
  8  5  1  0  0  0  0
  9  1  1  6  0  0  0
 11 10  1  6  0  0  0
 11 14  1  0  0  0  0
 12 18  1  0  0  0  0
 12 16  1  0  0  0  0
 13 16  2  0  0  0  0
 14 17  1  0  0  0  0
 14 15  2  0  0  0  0
 15 13  1  0  0  0  0
 17 12  2  0  0  0  0
 18 20  1  0  0  0  0
 19 20  1  0  0  0  0
 21 22  1  0  0  0  0
 21 11  1  0  0  0  0
 22 23  1  0  0  0  0
 23 24  1  0  0  0  0
 24 25  1  0  0  0  0
 26 25  1  0  0  0  0
 27  1  1  0  0  0  0
 28 32  1  0  0  0  0
 29 28  1  0  0  0  0
 29 37  1  0  0  0  0
 30 34  1  6  0  0  0
 30 33  1  0  0  0  0
 31 29  1  0  0  0  0
 31 30  1  0  0  0  0
 33 27  1  6  0  0  0
 33 32  1  0  0  0  0
 34 36  1  0  0  0  0
 35 34  2  0  0  0  0
 37 44  1  1  0  0  0
 38 43  1  0  0  0  0
 39 42  1  0  0  0  0
 39 38  2  0  0  0  0
 41 40  1  0  0  0  0
 42 41  2  0  0  0  0
 43 40  2  0  0  0  0
 43 37  1  0  0  0  0
 44 47  1  0  0  0  0
 46 48  1  0  0  0  0
 47 45  2  0  0  0  0
 47 48  1  0  0  0  0
 48 50  1  0  0  0  0
 50 49  1  0  0  0  0
M  END
>  <MODEL>
5

>  <REMARK>
 VINA RESULT:      -5.9      2.281      8.663
  Name = 
  19 active torsions:
  status: ('A' for Active; 'I' for Inactive)
    1  A    between atoms: C_1  and  N_17
    2  A    between atoms: C_1  and  C_42
    3  A    between atoms: C_1  and  C_45
    4  A    between atoms: C_7  and  C_11
    5  A    between atoms: C_7  and  C_15
    6  A    between atoms: C_8  and  C_33
    7  A    between atoms: C_11  and  O_20
    8  A    between atoms: C_12  and  C_24
    9  A    between atoms: C_14  and  C_23
   10  A    between atoms: C_15  and  C_46
   11  A    between atoms: C_18  and  O_32
   12  A    between atoms: C_18  and  C_50
   13  A    between atoms: C_23  and  C_41
   14  A    between atoms: C_26  and  C_41
   15  A    between atoms: O_32  and  C_39
   16  A    between atoms: C_33  and  O_49
   17  A    between atoms: C_41  and  C_46
   18  A    between atoms: C_42  and  C_43
   19  A    between atoms: N_44  and  C_47
                            x       y       z     vdW  Elec       q    Type
                         _______ _______ _______ _____ _____    ______ ____

>  <TORSDO>
F 19

$$$$
=
 OpenBabel11062420513D

 50 53  0  0  1  0  0  0  0  0999 V2000
  188.7560  174.0420  141.8530 C   0  0  0  0  0  0  0  0  0  0  0  0
  187.8290  173.2080  141.6850 O   0  0  0  0  0  0  0  0  0  0  0  0
  187.7330  175.4310  140.1100 N   0  0  0  0  0  0  0  0  0  0  0  0
  187.0630  176.4760  139.7310 C   0  0  0  0  0  0  0  0  0  0  0  0
  188.0280  176.4030  142.3900 C   0  0  1  0  0  3  0  0  0  0  0  0
  186.3170  176.4350  138.5210 N   0  0  0  0  0  1  0  0  0  0  0  0
  187.0650  177.6640  140.5300 N   0  0  0  0  0  0  0  0  0  0  0  0
  187.5350  177.6690  141.7390 C   0  0  0  0  0  3  0  0  0  0  0  0
  188.5600  175.4360  141.3180 C   0  0  1  0  0  3  0  0  0  0  0  0
  189.1530  176.7170  143.3810 C   0  0  0  0  0  2  0  0  0  0  0  0
  188.7130  176.9000  144.8410 C   0  0  2  0  0  3  0  0  0  0  0  0
  191.8730  176.1720  146.6950 C   0  0  0  0  0  0  0  0  0  0  0  0
  190.1200  174.8990  147.7520 C   0  0  0  0  0  3  0  0  0  0  0  0
  189.6530  176.3130  145.8520 C   0  0  0  0  0  0  0  0  0  0  0  0
  189.2080  175.4090  146.8250 C   0  0  0  0  0  3  0  0  0  0  0  0
  191.4600  175.2850  147.6930 C   0  0  0  0  0  3  0  0  0  0  0  0
  190.9660  176.6690  145.8110 N   0  0  0  0  0  0  0  0  0  0  0  0
  193.2960  176.6040  146.6290 C   0  0  0  0  0  2  0  0  0  0  0  0
  194.9810  177.1950  145.3310 C   0  0  0  0  0  1  0  0  0  0  0  0
  193.5950  177.0620  145.3430 O   0  0  0  0  0  0  0  0  0  0  0  0
  187.2530  176.5340  145.0900 C   0  0  0  0  0  2  0  0  0  0  0  0
  186.5090  177.7040  145.7210 C   0  0  0  0  0  2  0  0  0  0  0  0
  185.0420  177.6940  145.3210 C   0  0  0  0  0  2  0  0  0  0  0  0
  184.5750  179.0990  144.9830 C   0  0  0  0  0  2  0  0  0  0  0  0
  184.8180  179.3590  143.6340 O   0  0  0  0  0  0  0  0  0  0  0  0
  184.0510  178.4150  142.9520 C   0  0  0  0  0  1  0  0  0  0  0  0
  189.9430  173.6090  142.4590 O   0  0  0  0  0  0  0  0  0  0  0  0
  192.5020  174.0650  143.8600 C   0  0  0  0  0  2  0  0  0  0  0  0
  193.0530  172.7010  143.9540 N   0  0  0  0  0  0  0  0  0  0  0  0
  191.7610  172.0880  141.8940 C   0  0  2  0  0  3  0  0  0  0  0  0
  192.1080  171.7450  143.3500 C   0  0  0  0  0  2  0  0  0  0  0  0
  192.2040  174.4740  142.4150 C   0  0  0  0  0  2  0  0  0  0  0  0
  191.1980  173.5100  141.7870 C   0  0  2  0  0  3  0  0  0  0  0  0
  190.8520  171.0420  141.3170 C   0  0  0  0  0  0  0  0  0  0  0  0
  190.5700  169.8700  142.0090 O   0  0  0  0  0  1  0  0  0  0  0  0
  190.2850  171.2600  140.2120 O   0  0  0  0  0  0  0  0  0  0  0  0
  194.3910  172.6360  143.3260 C   0  0  2  0  0  3  0  0  0  0  0  0
  195.8350  172.2870  145.3410 C   0  0  0  0  0  3  0  0  0  0  0  0
  196.7380  171.5290  146.0950 C   0  0  0  0  0  3  0  0  0  0  0  0
  195.7730  170.5390  143.6640 C   0  0  0  0  0  3  0  0  0  0  0  0
  196.6730  169.7820  144.4180 C   0  0  0  0  0  3  0  0  0  0  0  0
  197.1590  170.2780  145.6320 C   0  0  0  0  0  3  0  0  0  0  0  0
  195.3580  171.8010  144.1190 C   0  0  0  0  0  0  0  0  0  0  0  0
  194.9710  174.0380  143.1510 C   0  0  0  0  0  2  0  0  0  0  0  0
  196.5000  173.1820  141.5250 O   0  0  0  0  0  0  0  0  0  0  0  0
  194.8980  176.4670  141.5020 C   0  0  0  0  0  1  0  0  0  0  0  0
  195.7880  174.1560  141.8950 C   0  0  0  0  0  0  0  0  0  0  0  0
  195.6940  175.3260  141.0670 N   0  0  0  0  0  0  0  0  0  0  0  0
  194.9520  174.8480  138.7640 C   0  0  0  0  0  1  0  0  0  0  0  0
  196.1110  175.2400  139.6700 C   0  0  0  0  0  2  0  0  0  0  0  0
  1 27  1  0  0  0  0
  2  1  2  0  0  0  0
  3  9  1  0  0  0  0
  4  3  2  0  0  0  0
  4  7  1  0  0  0  0
  5 10  1  1  0  0  0
  6  4  1  0  0  0  0
  7  8  2  0  0  0  0
  8  5  1  0  0  0  0
  9  1  1  1  0  0  0
  9  5  1  0  0  0  0
 11 10  1  6  0  0  0
 11 21  1  0  0  0  0
 11 14  1  0  0  0  0
 12 16  1  0  0  0  0
 14 15  2  0  0  0  0
 15 13  1  0  0  0  0
 16 13  2  0  0  0  0
 17 14  1  0  0  0  0
 17 12  2  0  0  0  0
 18 12  1  0  0  0  0
 19 20  1  0  0  0  0
 20 18  1  0  0  0  0
 21 22  1  0  0  0  0
 23 22  1  0  0  0  0
 24 23  1  0  0  0  0
 25 24  1  0  0  0  0
 26 25  1  0  0  0  0
 28 29  1  0  0  0  0
 30 34  1  1  0  0  0
 30 31  1  0  0  0  0
 31 29  1  0  0  0  0
 32 28  1  0  0  0  0
 33 30  1  0  0  0  0
 33 32  1  0  0  0  0
 33 27  1  1  0  0  0
 34 35  1  0  0  0  0
 36 34  2  0  0  0  0
 37 44  1  1  0  0  0
 37 29  1  0  0  0  0
 37 43  1  0  0  0  0
 38 39  1  0  0  0  0
 40 43  1  0  0  0  0
 40 41  2  0  0  0  0
 41 42  1  0  0  0  0
 42 39  2  0  0  0  0
 43 38  2  0  0  0  0
 45 47  2  0  0  0  0
 47 44  1  0  0  0  0
 48 46  1  0  0  0  0
 48 47  1  0  0  0  0
 49 50  1  0  0  0  0
 50 48  1  0  0  0  0
M  END
>  <MODEL>
6

>  <REMARK>
 VINA RESULT:      -5.8      2.069      4.493
  Name = 
  19 active torsions:
  status: ('A' for Active; 'I' for Inactive)
    1  A    between atoms: C_1  and  N_17
    2  A    between atoms: C_1  and  C_42
    3  A    between atoms: C_1  and  C_45
    4  A    between atoms: C_7  and  C_11
    5  A    between atoms: C_7  and  C_15
    6  A    between atoms: C_8  and  C_33
    7  A    between atoms: C_11  and  O_20
    8  A    between atoms: C_12  and  C_24
    9  A    between atoms: C_14  and  C_23
   10  A    between atoms: C_15  and  C_46
   11  A    between atoms: C_18  and  O_32
   12  A    between atoms: C_18  and  C_50
   13  A    between atoms: C_23  and  C_41
   14  A    between atoms: C_26  and  C_41
   15  A    between atoms: O_32  and  C_39
   16  A    between atoms: C_33  and  O_49
   17  A    between atoms: C_41  and  C_46
   18  A    between atoms: C_42  and  C_43
   19  A    between atoms: N_44  and  C_47
                            x       y       z     vdW  Elec       q    Type
                         _______ _______ _______ _____ _____    ______ ____

>  <TORSDO>
F 19

$$$$
=
 OpenBabel11062420513D

 50 53  0  0  1  0  0  0  0  0999 V2000
  188.3120  174.0690  141.7650 C   0  0  0  0  0  0  0  0  0  0  0  0
  187.2970  173.5530  142.3000 O   0  0  0  0  0  0  0  0  0  0  0  0
  187.6960  175.2790  139.7220 N   0  0  0  0  0  0  0  0  0  0  0  0
  187.0740  176.2380  139.1080 C   0  0  0  0  0  0  0  0  0  0  0  0
  187.2780  176.3700  141.9280 C   0  0  1  0  0  3  0  0  0  0  0  0
  186.6920  176.0750  137.7480 N   0  0  0  0  0  1  0  0  0  0  0  0
  186.7600  177.4530  139.7970 N   0  0  0  0  0  0  0  0  0  0  0  0
  186.8800  177.5550  141.0860 C   0  0  0  0  0  3  0  0  0  0  0  0
  188.1580  175.4140  141.1050 C   0  0  1  0  0  3  0  0  0  0  0  0
  188.0600  176.8330  143.1610 C   0  0  0  0  0  2  0  0  0  0  0  0
  187.5160  176.3380  144.5090 C   0  0  2  0  0  3  0  0  0  0  0  0
  184.4180  178.4250  144.5520 C   0  0  0  0  0  0  0  0  0  0  0  0
  185.0180  177.9960  146.8470 C   0  0  0  0  0  3  0  0  0  0  0  0
  186.3480  177.1200  145.0330 C   0  0  0  0  0  0  0  0  0  0  0  0
  186.1260  177.2680  146.4090 C   0  0  0  0  0  3  0  0  0  0  0  0
  184.1530  178.5740  145.9170 C   0  0  0  0  0  3  0  0  0  0  0  0
  185.4950  177.6990  144.1460 N   0  0  0  0  0  0  0  0  0  0  0  0
  183.4980  179.0250  143.5480 C   0  0  0  0  0  2  0  0  0  0  0  0
  182.4840  178.2740  141.7370 C   0  0  0  0  0  1  0  0  0  0  0  0
  183.7470  178.4770  142.2870 O   0  0  0  0  0  0  0  0  0  0  0  0
  188.6000  176.0970  145.5550 C   0  0  0  0  0  2  0  0  0  0  0  0
  189.5720  177.2690  145.5960 C   0  0  0  0  0  2  0  0  0  0  0  0
  190.8780  176.8680  146.2640 C   0  0  0  0  0  2  0  0  0  0  0  0
  190.6460  175.7290  147.2410 C   0  0  0  0  0  2  0  0  0  0  0  0
  191.5250  175.8520  148.3170 O   0  0  0  0  0  0  0  0  0  0  0  0
  191.5490  177.2170  148.5960 C   0  0  0  0  0  1  0  0  0  0  0  0
  189.5050  173.3340  141.7470 O   0  0  0  0  0  0  0  0  0  0  0  0
  191.3420  174.3660  143.8160 C   0  0  0  0  0  2  0  0  0  0  0  0
  192.3920  173.3320  143.8440 N   0  0  0  0  0  0  0  0  0  0  0  0
  191.8630  172.7960  141.4520 C   0  0  2  0  0  3  0  0  0  0  0  0
  192.0610  172.2670  142.8810 C   0  0  0  0  0  2  0  0  0  0  0  0
  191.1580  174.9700  142.4200 C   0  0  0  0  0  2  0  0  0  0  0  0
  190.7810  173.8810  141.4170 C   0  0  2  0  0  3  0  0  0  0  0  0
  191.5990  171.6580  140.5100 C   0  0  0  0  0  0  0  0  0  0  0  0
  191.9040  171.7560  139.1570 O   0  0  0  0  0  0  0  0  0  0  0  0
  191.1510  170.5710  140.9660 O   0  0  0  0  0  1  0  0  0  0  0  0
  193.7190  173.9290  143.5830 C   0  0  2  0  0  3  0  0  0  0  0  0
  194.9500  172.6260  145.3310 C   0  0  0  0  0  3  0  0  0  0  0  0
  195.9930  171.7870  145.7370 C   0  0  0  0  0  3  0  0  0  0  0  0
  195.7860  172.5610  143.0570 C   0  0  0  0  0  3  0  0  0  0  0  0
  196.8270  171.7220  143.4640 C   0  0  0  0  0  3  0  0  0  0  0  0
  196.9330  171.3380  144.8040 C   0  0  0  0  0  3  0  0  0  0  0  0
  194.8470  173.0240  143.9940 C   0  0  0  0  0  0  0  0  0  0  0  0
  193.8600  175.2640  144.3130 C   0  0  0  0  0  2  0  0  0  0  0  0
  196.0350  176.0890  144.8630 O   0  0  0  0  0  0  0  0  0  0  0  0
  194.3920  176.2640  141.6030 C   0  0  0  0  0  1  0  0  0  0  0  0
  195.1500  175.9570  143.9740 C   0  0  0  0  0  0  0  0  0  0  0  0
  195.4200  176.3850  142.6300 N   0  0  0  0  0  0  0  0  0  0  0  0
  197.2550  175.6250  141.1670 C   0  0  0  0  0  1  0  0  0  0  0  0
  196.8030  176.6210  142.2260 C   0  0  0  0  0  2  0  0  0  0  0  0
  1  2  2  0  0  0  0
  3  9  1  0  0  0  0
  4  3  2  0  0  0  0
  4  7  1  0  0  0  0
  5 10  1  1  0  0  0
  6  4  1  0  0  0  0
  7  8  2  0  0  0  0
  8  5  1  0  0  0  0
  9  1  1  1  0  0  0
  9  5  1  0  0  0  0
 11 10  1  6  0  0  0
 11 14  1  0  0  0  0
 11 21  1  0  0  0  0
 12 16  1  0  0  0  0
 14 15  2  0  0  0  0
 15 13  1  0  0  0  0
 16 13  2  0  0  0  0
 17 12  2  0  0  0  0
 17 14  1  0  0  0  0
 18 12  1  0  0  0  0
 19 20  1  0  0  0  0
 20 18  1  0  0  0  0
 21 22  1  0  0  0  0
 22 23  1  0  0  0  0
 23 24  1  0  0  0  0
 24 25  1  0  0  0  0
 25 26  1  0  0  0  0
 27  1  1  0  0  0  0
 28 29  1  0  0  0  0
 30 34  1  6  0  0  0
 30 31  1  0  0  0  0
 31 29  1  0  0  0  0
 32 28  1  0  0  0  0
 33 30  1  0  0  0  0
 33 27  1  1  0  0  0
 33 32  1  0  0  0  0
 34 36  1  0  0  0  0
 35 34  2  0  0  0  0
 37 29  1  0  0  0  0
 37 43  1  0  0  0  0
 37 44  1  1  0  0  0
 38 39  1  0  0  0  0
 40 41  2  0  0  0  0
 40 43  1  0  0  0  0
 41 42  1  0  0  0  0
 42 39  2  0  0  0  0
 43 38  2  0  0  0  0
 46 48  1  0  0  0  0
 47 44  1  0  0  0  0
 47 45  2  0  0  0  0
 48 47  1  0  0  0  0
 49 50  1  0  0  0  0
 50 48  1  0  0  0  0
M  END
>  <MODEL>
7

>  <REMARK>
 VINA RESULT:      -5.8      1.913      2.888
  Name = 
  19 active torsions:
  status: ('A' for Active; 'I' for Inactive)
    1  A    between atoms: C_1  and  N_17
    2  A    between atoms: C_1  and  C_42
    3  A    between atoms: C_1  and  C_45
    4  A    between atoms: C_7  and  C_11
    5  A    between atoms: C_7  and  C_15
    6  A    between atoms: C_8  and  C_33
    7  A    between atoms: C_11  and  O_20
    8  A    between atoms: C_12  and  C_24
    9  A    between atoms: C_14  and  C_23
   10  A    between atoms: C_15  and  C_46
   11  A    between atoms: C_18  and  O_32
   12  A    between atoms: C_18  and  C_50
   13  A    between atoms: C_23  and  C_41
   14  A    between atoms: C_26  and  C_41
   15  A    between atoms: O_32  and  C_39
   16  A    between atoms: C_33  and  O_49
   17  A    between atoms: C_41  and  C_46
   18  A    between atoms: C_42  and  C_43
   19  A    between atoms: N_44  and  C_47
                            x       y       z     vdW  Elec       q    Type
                         _______ _______ _______ _____ _____    ______ ____

>  <TORSDO>
F 19

$$$$
=
 OpenBabel11062420513D

 50 53  0  0  1  0  0  0  0  0999 V2000
  191.5680  173.4360  140.1810 C   0  0  0  0  0  0  0  0  0  0  0  0
  191.6620  173.7680  138.9710 O   0  0  0  0  0  0  0  0  0  0  0  0
  191.9710  171.0310  139.9120 N   0  0  0  0  0  0  0  0  0  0  0  0
  192.7680  170.0140  139.7990 C   0  0  0  0  0  0  0  0  0  0  0  0
  193.8690  172.4870  140.6230 C   0  0  1  0  0  3  0  0  0  0  0  0
  192.3300  168.8460  139.1170 N   0  0  0  0  0  1  0  0  0  0  0  0
  194.0890  170.0670  140.3470 N   0  0  0  0  0  0  0  0  0  0  0  0
  194.6060  171.1810  140.7680 C   0  0  0  0  0  3  0  0  0  0  0  0
  192.3520  172.2380  140.6490 C   0  0  1  0  0  3  0  0  0  0  0  0
  194.2390  173.4370  141.7670 C   0  0  0  0  0  2  0  0  0  0  0  0
  195.7430  173.5760  142.0470 C   0  0  2  0  0  3  0  0  0  0  0  0
  196.3700  171.8320  145.2900 C   0  0  0  0  0  0  0  0  0  0  0  0
  196.9400  174.1520  145.6090 C   0  0  0  0  0  3  0  0  0  0  0  0
  196.1310  173.3560  143.4790 C   0  0  0  0  0  0  0  0  0  0  0  0
  196.5790  174.4100  144.2850 C   0  0  0  0  0  3  0  0  0  0  0  0
  196.8420  172.8560  146.1160 C   0  0  0  0  0  3  0  0  0  0  0  0
  196.0370  172.1010  143.9990 N   0  0  0  0  0  0  0  0  0  0  0  0
  196.2720  170.4420  145.8130 C   0  0  0  0  0  2  0  0  0  0  0  0
  197.5790  168.8450  145.0290 C   0  0  0  0  0  1  0  0  0  0  0  0
  196.3950  169.5280  144.7630 O   0  0  0  0  0  0  0  0  0  0  0  0
  196.3650  174.8280  141.4380 C   0  0  0  0  0  2  0  0  0  0  0  0
  197.6970  174.4950  140.7770 C   0  0  0  0  0  2  0  0  0  0  0  0
  197.9410  175.3860  139.5690 C   0  0  0  0  0  2  0  0  0  0  0  0
  196.7840  175.2820  138.5910 C   0  0  0  0  0  2  0  0  0  0  0  0
  197.2600  175.4340  137.2880 O   0  0  0  0  0  0  0  0  0  0  0  0
  196.1580  175.1600  136.4790 C   0  0  0  0  0  1  0  0  0  0  0  0
  190.6870  174.1490  141.0030 O   0  0  0  0  0  0  0  0  0  0  0  0
  190.3000  176.5750  142.6430 C   0  0  0  0  0  2  0  0  0  0  0  0
  188.9470  176.3680  143.1910 N   0  0  0  0  0  0  0  0  0  0  0  0
  189.2920  173.8930  142.9850 C   0  0  2  0  0  3  0  0  0  0  0  0
  188.3960  175.1010  142.6780 C   0  0  0  0  0  2  0  0  0  0  0  0
  191.2480  175.4210  142.9850 C   0  0  0  0  0  2  0  0  0  0  0  0
  190.7050  174.1060  142.4300 C   0  0  2  0  0  3  0  0  0  0  0  0
  188.6440  172.6290  142.5000 C   0  0  0  0  0  0  0  0  0  0  0  0
  187.3620  172.6350  141.9640 O   0  0  0  0  0  0  0  0  0  0  0  0
  189.3010  171.5520  142.5210 O   0  0  0  0  0  1  0  0  0  0  0  0
  188.9720  176.4090  144.6690 C   0  0  2  0  0  3  0  0  0  0  0  0
  187.1150  178.0880  144.6360 C   0  0  0  0  0  3  0  0  0  0  0  0
  185.9390  178.6370  145.1600 C   0  0  0  0  0  3  0  0  0  0  0  0
  187.1030  176.4050  146.3800 C   0  0  0  0  0  3  0  0  0  0  0  0
  185.9280  176.9540  146.9010 C   0  0  0  0  0  3  0  0  0  0  0  0
  185.3480  178.0720  146.2940 C   0  0  0  0  0  3  0  0  0  0  0  0
  187.7060  176.9790  145.2490 C   0  0  0  0  0  0  0  0  0  0  0  0
  190.1610  177.2320  145.1630 C   0  0  0  0  0  2  0  0  0  0  0  0
  190.3970  175.8420  147.0940 O   0  0  0  0  0  0  0  0  0  0  0  0
  193.0930  177.1730  145.0170 C   0  0  0  0  0  1  0  0  0  0  0  0
  190.9800  176.4820  146.1760 C   0  0  0  0  0  0  0  0  0  0  0  0
  192.4090  176.4120  146.0560 N   0  0  0  0  0  0  0  0  0  0  0  0
  193.2060  174.0840  145.8850 C   0  0  0  0  0  1  0  0  0  0  0  0
  193.1260  175.3410  146.7410 C   0  0  0  0  0  2  0  0  0  0  0  0
  1 27  1  0  0  0  0
  2  1  2  0  0  0  0
  3  9  1  0  0  0  0
  4  3  2  0  0  0  0
  4  7  1  0  0  0  0
  5  9  1  0  0  0  0
  5  8  1  0  0  0  0
  5 10  1  1  0  0  0
  6  4  1  0  0  0  0
  7  8  2  0  0  0  0
  9  1  1  6  0  0  0
 10 11  1  0  0  0  0
 11 21  1  1  0  0  0
 11 14  1  0  0  0  0
 12 18  1  0  0  0  0
 12 16  1  0  0  0  0
 13 16  2  0  0  0  0
 14 17  1  0  0  0  0
 14 15  2  0  0  0  0
 15 13  1  0  0  0  0
 17 12  2  0  0  0  0
 20 19  1  0  0  0  0
 20 18  1  0  0  0  0
 22 21  1  0  0  0  0
 23 22  1  0  0  0  0
 24 23  1  0  0  0  0
 25 24  1  0  0  0  0
 26 25  1  0  0  0  0
 28 32  1  0  0  0  0
 28 29  1  0  0  0  0
 29 37  1  0  0  0  0
 30 34  1  6  0  0  0
 31 30  1  0  0  0  0
 31 29  1  0  0  0  0
 33 27  1  6  0  0  0
 33 30  1  0  0  0  0
 33 32  1  0  0  0  0
 34 36  1  0  0  0  0
 35 34  2  0  0  0  0
 37 44  1  6  0  0  0
 37 43  1  0  0  0  0
 38 39  2  0  0  0  0
 38 43  1  0  0  0  0
 39 42  1  0  0  0  0
 40 41  1  0  0  0  0
 42 41  2  0  0  0  0
 43 40  2  0  0  0  0
 44 47  1  0  0  0  0
 46 48  1  0  0  0  0
 47 45  2  0  0  0  0
 48 47  1  0  0  0  0
 48 50  1  0  0  0  0
 49 50  1  0  0  0  0
M  END
>  <MODEL>
8

>  <REMARK>
 VINA RESULT:      -5.6      2.624      8.877
  Name = 
  19 active torsions:
  status: ('A' for Active; 'I' for Inactive)
    1  A    between atoms: C_1  and  N_17
    2  A    between atoms: C_1  and  C_42
    3  A    between atoms: C_1  and  C_45
    4  A    between atoms: C_7  and  C_11
    5  A    between atoms: C_7  and  C_15
    6  A    between atoms: C_8  and  C_33
    7  A    between atoms: C_11  and  O_20
    8  A    between atoms: C_12  and  C_24
    9  A    between atoms: C_14  and  C_23
   10  A    between atoms: C_15  and  C_46
   11  A    between atoms: C_18  and  O_32
   12  A    between atoms: C_18  and  C_50
   13  A    between atoms: C_23  and  C_41
   14  A    between atoms: C_26  and  C_41
   15  A    between atoms: O_32  and  C_39
   16  A    between atoms: C_33  and  O_49
   17  A    between atoms: C_41  and  C_46
   18  A    between atoms: C_42  and  C_43
   19  A    between atoms: N_44  and  C_47
                            x       y       z     vdW  Elec       q    Type
                         _______ _______ _______ _____ _____    ______ ____

>  <TORSDO>
F 19

$$$$
=
 OpenBabel11062420513D

 50 53  0  0  1  0  0  0  0  0999 V2000
  188.4980  174.6850  141.9950 C   0  0  0  0  0  0  0  0  0  0  0  0
  187.5150  174.0310  142.4280 O   0  0  0  0  0  0  0  0  0  0  0  0
  187.0930  176.4140  140.9710 N   0  0  0  0  0  0  0  0  0  0  0  0
  186.4850  177.5600  141.0090 C   0  0  0  0  0  0  0  0  0  0  0  0
  188.3800  176.9880  143.0310 C   0  0  1  0  0  3  0  0  0  0  0  0
  185.3330  177.7750  140.2040 N   0  0  0  0  0  1  0  0  0  0  0  0
  186.9650  178.6040  141.8630 N   0  0  0  0  0  0  0  0  0  0  0  0
  187.8600  178.3780  142.7750 C   0  0  0  0  0  3  0  0  0  0  0  0
  188.3130  176.1570  141.7380 C   0  0  1  0  0  3  0  0  0  0  0  0
  189.8320  177.0430  143.5150 C   0  0  0  0  0  2  0  0  0  0  0  0
  190.0970  176.3890  144.8790 C   0  0  2  0  0  3  0  0  0  0  0  0
  193.7120  175.4600  145.0360 C   0  0  0  0  0  0  0  0  0  0  0  0
  192.4520  173.4060  144.9890 C   0  0  0  0  0  3  0  0  0  0  0  0
  191.3370  175.5460  144.9340 C   0  0  0  0  0  0  0  0  0  0  0  0
  191.2700  174.1460  144.9240 C   0  0  0  0  0  3  0  0  0  0  0  0
  193.6820  174.0630  145.0510 C   0  0  0  0  0  3  0  0  0  0  0  0
  192.5490  176.1630  144.9870 N   0  0  0  0  0  0  0  0  0  0  0  0
  195.0160  176.1750  145.1140 C   0  0  0  0  0  2  0  0  0  0  0  0
  196.3930  176.4740  143.4160 C   0  0  0  0  0  1  0  0  0  0  0  0
  195.9680  175.5160  144.3320 O   0  0  0  0  0  0  0  0  0  0  0  0
  188.8740  175.7020  145.4760 C   0  0  0  0  0  2  0  0  0  0  0  0
  188.3080  176.5250  146.6270 C   0  0  0  0  0  2  0  0  0  0  0  0
  186.8250  176.7930  146.4250 C   0  0  0  0  0  2  0  0  0  0  0  0
  186.2240  177.4200  147.6710 C   0  0  0  0  0  2  0  0  0  0  0  0
  185.5820  178.6100  147.3320 O   0  0  0  0  0  0  0  0  0  0  0  0
  186.2940  179.5980  148.0110 C   0  0  0  0  0  1  0  0  0  0  0  0
  189.6840  173.9950  141.7070 O   0  0  0  0  0  0  0  0  0  0  0  0
  192.2030  172.5290  141.2360 C   0  0  0  0  0  2  0  0  0  0  0  0
  191.8260  171.6020  140.1530 N   0  0  0  0  0  0  0  0  0  0  0  0
  190.0750  173.2420  139.4220 C   0  0  2  0  0  3  0  0  0  0  0  0
  190.4050  171.7940  139.8120 C   0  0  0  0  0  2  0  0  0  0  0  0
  191.9520  173.9930  140.8620 C   0  0  0  0  0  2  0  0  0  0  0  0
  190.4760  174.2130  140.5390 C   0  0  2  0  0  3  0  0  0  0  0  0
  188.6330  173.3560  139.0210 C   0  0  0  0  0  0  0  0  0  0  0  0
  188.1890  174.3960  138.2140 O   0  0  0  0  0  0  0  0  0  0  0  0
  187.8230  172.4550  139.3710 O   0  0  0  0  0  1  0  0  0  0  0  0
  192.7110  171.7840  138.9810 C   0  0  2  0  0  3  0  0  0  0  0  0
  192.0060  171.2550  136.6380 C   0  0  0  0  0  3  0  0  0  0  0  0
  191.7340  170.3490  135.6070 C   0  0  0  0  0  3  0  0  0  0  0  0
  192.5950  169.4120  138.0970 C   0  0  0  0  0  3  0  0  0  0  0  0
  192.3240  168.5090  137.0660 C   0  0  0  0  0  3  0  0  0  0  0  0
  191.8890  168.9760  135.8220 C   0  0  0  0  0  3  0  0  0  0  0  0
  192.4270  170.7910  137.8880 C   0  0  0  0  0  0  0  0  0  0  0  0
  194.1780  171.6670  139.3930 C   0  0  0  0  0  2  0  0  0  0  0  0
  194.9740  173.1150  137.6650 O   0  0  0  0  0  0  0  0  0  0  0  0
  195.7810  173.3090  141.2240 C   0  0  0  0  0  1  0  0  0  0  0  0
  194.9960  172.8240  138.8930 C   0  0  0  0  0  0  0  0  0  0  0  0
  195.7260  173.6550  139.8090 N   0  0  0  0  0  0  0  0  0  0  0  0
  197.5670  175.2950  139.7490 C   0  0  0  0  0  1  0  0  0  0  0  0
  196.1180  174.9970  139.3890 C   0  0  0  0  0  2  0  0  0  0  0  0
  1  2  2  0  0  0  0
  3  4  2  0  0  0  0
  3  9  1  0  0  0  0
  4  7  1  0  0  0  0
  5 10  1  6  0  0  0
  6  4  1  0  0  0  0
  7  8  2  0  0  0  0
  8  5  1  0  0  0  0
  9  1  1  1  0  0  0
  9  5  1  0  0  0  0
 11 10  1  6  0  0  0
 11 14  1  0  0  0  0
 11 21  1  0  0  0  0
 12 16  1  0  0  0  0
 12 18  1  0  0  0  0
 13 16  2  0  0  0  0
 14 17  1  0  0  0  0
 15 14  2  0  0  0  0
 15 13  1  0  0  0  0
 17 12  2  0  0  0  0
 19 20  1  0  0  0  0
 20 18  1  0  0  0  0
 21 22  1  0  0  0  0
 23 22  1  0  0  0  0
 23 24  1  0  0  0  0
 25 24  1  0  0  0  0
 25 26  1  0  0  0  0
 27  1  1  0  0  0  0
 29 28  1  0  0  0  0
 30 34  1  1  0  0  0
 30 31  1  0  0  0  0
 30 33  1  0  0  0  0
 31 29  1  0  0  0  0
 32 28  1  0  0  0  0
 33 32  1  0  0  0  0
 33 27  1  1  0  0  0
 34 36  1  0  0  0  0
 35 34  2  0  0  0  0
 37 44  1  1  0  0  0
 37 29  1  0  0  0  0
 38 43  1  0  0  0  0
 39 42  1  0  0  0  0
 39 38  2  0  0  0  0
 41 40  1  0  0  0  0
 42 41  2  0  0  0  0
 43 40  2  0  0  0  0
 43 37  1  0  0  0  0
 45 47  2  0  0  0  0
 47 44  1  0  0  0  0
 47 48  1  0  0  0  0
 48 46  1  0  0  0  0
 50 49  1  0  0  0  0
 50 48  1  0  0  0  0
M  END
>  <MODEL>
9

>  <REMARK>
 VINA RESULT:      -5.5      2.868      6.615
  Name = 
  19 active torsions:
  status: ('A' for Active; 'I' for Inactive)
    1  A    between atoms: C_1  and  N_17
    2  A    between atoms: C_1  and  C_42
    3  A    between atoms: C_1  and  C_45
    4  A    between atoms: C_7  and  C_11
    5  A    between atoms: C_7  and  C_15
    6  A    between atoms: C_8  and  C_33
    7  A    between atoms: C_11  and  O_20
    8  A    between atoms: C_12  and  C_24
    9  A    between atoms: C_14  and  C_23
   10  A    between atoms: C_15  and  C_46
   11  A    between atoms: C_18  and  O_32
   12  A    between atoms: C_18  and  C_50
   13  A    between atoms: C_23  and  C_41
   14  A    between atoms: C_26  and  C_41
   15  A    between atoms: O_32  and  C_39
   16  A    between atoms: C_33  and  O_49
   17  A    between atoms: C_41  and  C_46
   18  A    between atoms: C_42  and  C_43
   19  A    between atoms: N_44  and  C_47
                            x       y       z     vdW  Elec       q    Type
                         _______ _______ _______ _____ _____    ______ ____

>  <TORSDO>
F 19

$$$$
