=
 OpenBabel11062418403D

 69 71  0  0  1  0  0  0  0  0999 V2000
  195.4640  174.2200  142.8970 C   0  0  1  0  0  3  0  0  0  0  0  0
  190.5770  172.6990  142.3820 C   0  0  0  0  0  2  0  0  0  0  0  0
  194.3930  171.9280  143.0560 C   0  0  0  0  0  2  0  0  0  0  0  0
  193.0820  174.4130  138.4740 C   0  0  0  0  0  0  0  0  0  0  0  0
  192.0370  171.4050  143.9750 C   0  0  1  0  0  3  0  0  0  0  0  0
  192.3130  172.5420  144.7480 O   0  0  0  0  0  1  0  0  0  0  0  0
  196.4430  174.9150  141.0320 C   0  0  2  0  0  3  0  0  0  0  0  0
  190.6570  171.5090  143.3340 C   0  0  1  0  0  3  0  0  0  0  0  0
  191.1180  174.2410  139.9760 C   0  0  0  0  0  2  0  0  0  0  0  0
  197.5300  175.7470  141.3130 O   0  0  0  0  0  1  0  0  0  0  0  0
  193.0010  175.0490  137.3910 O   0  0  0  0  0  0  0  0  0  0  0  0
  196.4140  173.8500  141.9370 O   0  0  0  0  0  0  0  0  0  0  0  0
  189.5590  171.5830  144.3810 C   0  0  0  0  0  1  0  0  0  0  0  0
  193.3840  169.7940  142.8630 F   0  0  0  0  0  0  0  0  0  0  0  0
  195.4670  174.2500  138.8580 C   0  0  0  0  0  0  0  0  0  0  0  0
  192.4490  172.3390  139.3850 O   0  0  0  0  0  1  0  0  0  0  0  0
  194.1860  173.4040  142.7210 C   0  0  0  0  0  2  0  0  0  0  0  0
  189.7100  172.4190  141.1490 C   0  0  1  0  0  3  0  0  0  0  0  0
  189.7480  173.5700  140.1310 C   0  0  1  0  0  3  0  0  0  0  0  0
  194.2620  174.5120  139.2820 N   0  0  0  0  0  0  0  0  0  0  0  0
  193.0960  171.1430  142.8880 C   0  0  2  0  0  3  0  0  0  0  0  0
  196.5640  174.4180  139.7070 O   0  0  0  0  0  0  0  0  0  0  0  0
  191.9460  173.5500  138.9050 C   0  0  2  0  0  3  0  0  0  0  0  0
  195.7010  173.7300  137.5010 C   0  0  0  0  0  3  0  0  0  0  0  0
  197.1720  170.7840  136.2640 O   0  0  0  0  0  1  0  0  0  0  0  0
  196.1380  171.1880  137.0980 C   0  0  0  0  0  0  0  0  0  0  0  0
  195.9330  172.4620  137.2930 C   0  0  0  0  0  0  0  0  0  0  0  0
  195.2270  170.1830  137.7550 C   0  0  2  0  0  3  0  0  0  0  0  0
  193.9600  169.9170  136.9890 C   0  0  0  0  0  3  0  0  0  0  0  0
  193.5900  168.7800  136.7410 O   0  0  0  0  0  0  0  0  0  0  0  0
  194.9940  170.4450  139.1410 O   0  0  0  0  0  0  0  0  0  0  0  0
  195.8490  170.0710  140.1850 C   0  0  0  0  0  0  0  0  0  0  0  0
  195.6710  168.9690  140.7680 O   0  0  0  0  0  1  0  0  0  0  0  0
  196.8950  170.8930  140.5880 O   0  0  0  0  0  0  0  0  0  0  0  0
  188.6970  174.5940  140.4140 C   0  0  0  0  0  3  0  0  0  0  0  0
  188.0190  175.1530  139.4110 C   0  0  0  0  0  3  0  0  0  0  0  0
  187.0110  176.2330  139.6490 C   0  0  0  0  0  2  0  0  0  0  0  0
  187.4980  177.2180  140.7100 C   0  0  0  0  0  2  0  0  0  0  0  0
  185.2050  177.8530  140.8410 O   0  0  0  0  0  0  0  0  0  0  0  0
  186.3540  177.9340  141.3530 C   0  0  0  0  0  0  0  0  0  0  0  0
  186.5570  178.6680  142.5580 N   0  0  0  0  0  2  0  0  0  0  0  0
  185.4430  179.1920  143.3270 C   0  0  0  0  0  2  0  0  0  0  0  0
  186.7510  178.2660  145.2390 C   0  0  0  0  0  3  0  0  0  0  0  0
  183.1810  179.0920  145.0760 F   0  0  0  0  0  0  0  0  0  0  0  0
  185.5250  178.7110  144.7340 C   0  0  0  0  0  0  0  0  0  0  0  0
  186.8430  177.8000  146.5520 C   0  0  0  0  0  3  0  0  0  0  0  0
  184.4790  178.2090  146.8620 C   0  0  0  0  0  3  0  0  0  0  0  0
  184.3810  178.6710  145.5450 C   0  0  0  0  0  0  0  0  0  0  0  0
  185.7070  177.7730  147.3650 C   0  0  0  0  0  3  0  0  0  0  0  0
  190.0560  171.1070  140.4600 C   0  0  0  0  0  2  0  0  0  0  0  0
  189.3950  171.0540  139.0980 C   0  0  0  0  0  2  0  0  0  0  0  0
  189.9060  169.8570  138.3210 C   0  0  0  0  0  2  0  0  0  0  0  0
  190.8420  169.0580  139.2030 C   0  0  0  0  0  1  0  0  0  0  0  0
  196.0320  174.0550  144.3040 C   0  0  0  0  0  2  0  0  0  0  0  0
  195.6840  175.2390  145.1920 C   0  0  0  0  0  2  0  0  0  0  0  0
  194.4140  175.0570  145.7760 O   0  0  0  0  0  0  0  0  0  0  0  0
  191.9150  175.6250  144.2380 O   0  0  0  0  0  0  0  0  0  0  0  0
  192.7930  177.8340  144.1290 O   0  0  0  0  0  1  0  0  0  0  0  0
  193.7270  176.2980  145.8080 C   0  0  1  0  0  0  0  0  0  0  0  0
  191.0040  175.2830  147.9580 C   0  0  0  0  0  2  0  0  0  0  0  0
  193.0290  176.4830  144.4460 C   0  0  1  0  0  3  0  0  0  0  0  0
  189.5800  175.4280  144.7370 C   0  0  0  0  0  0  0  0  0  0  0  0
  192.7080  176.3310  146.9590 C   0  0  0  0  0  2  0  0  0  0  0  0
  189.7230  175.6030  147.1990 C   0  0  0  0  0  2  0  0  0  0  0  0
  192.0740  175.0880  147.0780 O   0  0  0  0  0  0  0  0  0  0  0  0
  194.6330  177.3550  145.9810 O   0  0  0  0  0  1  0  0  0  0  0  0
  188.5110  175.4260  143.9440 C   0  0  0  0  0  2  0  0  0  0  0  0
  189.5400  174.6580  146.0210 C   0  0  0  0  0  2  0  0  0  0  0  0
  190.7190  176.3470  144.4210 C   0  0  0  0  0  2  0  0  0  0  0  0
  1 54  1  1  0  0  0
  2  8  1  0  0  0  0
  4 23  1  0  0  0  0
  4 20  1  0  0  0  0
  5  6  1  6  0  0  0
  7 10  1  1  0  0  0
  7 12  1  0  0  0  0
  8  5  1  0  0  0  0
  8 13  1  1  0  0  0
  9 19  1  0  0  0  0
 11  4  2  0  0  0  0
 12  1  1  0  0  0  0
 15 20  2  0  0  0  0
 15 22  1  0  0  0  0
 17  1  1  0  0  0  0
 17  3  1  0  0  0  0
 18 50  1  6  0  0  0
 18  2  1  0  0  0  0
 19 35  1  1  0  0  0
 19 18  1  0  0  0  0
 21 14  1  1  0  0  0
 21  3  1  0  0  0  0
 21  5  1  0  0  0  0
 22  7  1  0  0  0  0
 23 16  1  1  0  0  0
 23  9  1  0  0  0  0
 24 15  1  0  0  0  0
 25 26  1  0  0  0  0
 26 27  2  0  0  0  0
 26 28  1  0  0  0  0
 27 24  2  0  0  0  0
 28 29  1  6  0  0  0
 28 31  1  0  0  0  0
 30 29  2  0  0  0  0
 31 32  1  0  0  0  0
 32 34  2  0  0  0  0
 32 33  1  0  0  0  0
 36 37  1  0  0  0  0
 36 35  2  0  0  0  0
 37 38  1  0  0  0  0
 38 40  1  0  0  0  0
 39 40  2  0  0  0  0
 40 41  1  0  0  0  0
 41 42  1  0  0  0  0
 42 45  1  0  0  0  0
 43 46  1  0  0  0  0
 44 48  1  0  0  0  0
 45 43  2  0  0  0  0
 45 48  1  0  0  0  0
 46 49  2  0  0  0  0
 47 49  1  0  0  0  0
 48 47  2  0  0  0  0
 51 50  1  0  0  0  0
 52 51  1  0  0  0  0
 52 53  1  0  0  0  0
 54 55  1  0  0  0  0
 55 56  1  0  0  0  0
 56 59  1  0  0  0  0
 57 69  1  0  0  0  0
 57 61  1  0  0  0  0
 59 66  1  1  0  0  0
 59 63  1  0  0  0  0
 61 58  1  1  0  0  0
 61 59  1  0  0  0  0
 62 68  1  0  0  0  0
 63 65  1  0  0  0  0
 64 60  1  0  0  0  0
 65 60  1  0  0  0  0
 67 62  2  0  0  0  0
 68 64  1  0  0  0  0
 69 62  1  0  0  0  0
M  END
>  <MODEL>
1

>  <REMARK>
 VINA RESULT:      -6.7      0.000      0.000
  Name = 
  18 active torsions:
  status: ('A' for Active; 'I' for Inactive)
    1  A    between atoms: C_1  and  C_25
    2  A    between atoms: C_1  and  N_64
    3  A    between atoms: C_2  and  C_8
    4  A    between atoms: C_2  and  C_20
    5  A    between atoms: O_3  and  C_12
    6  A    between atoms: O_3  and  C_20
    7  A    between atoms: C_6  and  C_62
    8  A    between atoms: C_7  and  C_14
    9  A    between atoms: C_7  and  C_16
   10  A    between atoms: O_10  and  C_18
   11  A    between atoms: O_10  and  C_60
   12  A    between atoms: C_11  and  C_13
   13  A    between atoms: C_11  and  C_44
   14  A    between atoms: C_15  and  C_60
   15  A    between atoms: C_16  and  C_61
   16  A    between atoms: C_33  and  C_52
   17  A    between atoms: C_44  and  C_58
   18  A    between atoms: C_56  and  C_60
                            x       y       z     vdW  Elec       q    Type
                         _______ _______ _______ _____ _____    ______ ____

>  <TORSDO>
F 18

$$$$
=
 OpenBabel11062418403D

 69 71  0  0  1  0  0  0  0  0999 V2000
  191.0280  174.9480  145.0790 C   0  0  1  0  0  3  0  0  0  0  0  0
  190.9140  173.2780  140.2130 C   0  0  0  0  0  2  0  0  0  0  0  0
  190.4080  172.6970  144.0890 C   0  0  0  0  0  2  0  0  0  0  0  0
  195.2300  174.3520  142.3830 C   0  0  0  0  0  0  0  0  0  0  0  0
  189.2420  172.2960  141.8210 C   0  0  1  0  0  3  0  0  0  0  0  0
  188.6920  173.5520  142.1180 O   0  0  0  0  0  1  0  0  0  0  0  0
  193.0510  175.3360  145.9010 C   0  0  2  0  0  3  0  0  0  0  0  0
  189.7860  172.2670  140.3960 C   0  0  1  0  0  3  0  0  0  0  0  0
  193.5770  174.4020  140.5370 C   0  0  0  0  0  2  0  0  0  0  0  0
  192.9950  176.2210  146.9810 O   0  0  0  0  0  1  0  0  0  0  0  0
  196.3950  174.7950  142.2070 O   0  0  0  0  0  0  0  0  0  0  0  0
  191.9810  174.4380  145.9680 O   0  0  0  0  0  0  0  0  0  0  0  0
  188.6870  172.4980  139.3740 C   0  0  0  0  0  1  0  0  0  0  0  0
  190.1670  170.5440  143.1320 F   0  0  0  0  0  0  0  0  0  0  0  0
  195.0030  174.2960  144.7930 C   0  0  0  0  0  0  0  0  0  0  0  0
  193.9410  172.4510  141.8780 O   0  0  0  0  0  1  0  0  0  0  0  0
  190.9690  174.0920  143.8150 C   0  0  0  0  0  2  0  0  0  0  0  0
  192.0150  172.7800  139.2700 C   0  0  1  0  0  3  0  0  0  0  0  0
  193.2110  173.7430  139.2020 C   0  0  1  0  0  3  0  0  0  0  0  0
  194.5400  174.6060  143.6150 N   0  0  0  0  0  0  0  0  0  0  0  0
  190.3450  171.8730  142.8080 C   0  0  2  0  0  3  0  0  0  0  0  0
  194.2790  174.6240  145.9430 O   0  0  0  0  0  0  0  0  0  0  0  0
  194.5770  173.5540  141.3070 C   0  0  2  0  0  3  0  0  0  0  0  0
  196.2680  173.5590  144.9460 C   0  0  0  0  0  3  0  0  0  0  0  0
  197.0620  170.3390  146.1180 O   0  0  0  0  0  1  0  0  0  0  0  0
  196.2860  170.9560  145.1460 C   0  0  0  0  0  0  0  0  0  0  0  0
  196.2850  172.2590  145.0590 C   0  0  0  0  0  0  0  0  0  0  0  0
  195.4730  170.1490  144.1670 C   0  0  2  0  0  3  0  0  0  0  0  0
  194.2570  169.5020  144.7720 C   0  0  0  0  0  3  0  0  0  0  0  0
  193.1340  169.7300  144.3490 O   0  0  0  0  0  0  0  0  0  0  0  0
  196.2560  169.2420  143.3870 O   0  0  0  0  0  0  0  0  0  0  0  0
  196.7820  169.5180  142.1190 C   0  0  0  0  0  0  0  0  0  0  0  0
  197.0820  168.5650  141.3520 O   0  0  0  0  0  0  0  0  0  0  0  0
  196.9760  170.8250  141.6900 O   0  0  0  0  0  1  0  0  0  0  0  0
  193.0240  174.7820  138.1430 C   0  0  0  0  0  3  0  0  0  0  0  0
  192.4070  174.4730  137.0030 C   0  0  0  0  0  3  0  0  0  0  0  0
  192.2650  175.4660  135.8920 C   0  0  0  0  0  2  0  0  0  0  0  0
  190.9100  175.3280  135.2000 C   0  0  0  0  0  2  0  0  0  0  0  0
  189.1660  174.3830  136.5190 O   0  0  0  0  0  0  0  0  0  0  0  0
  190.1370  174.1710  135.7440 C   0  0  0  0  0  0  0  0  0  0  0  0
  190.4720  172.8410  135.3530 N   0  0  0  0  0  2  0  0  0  0  0  0
  189.6190  171.7130  135.6820 C   0  0  0  0  0  2  0  0  0  0  0  0
  191.6280  170.2700  135.3600 C   0  0  0  0  0  3  0  0  0  0  0  0
  188.9170  169.9300  137.8060 F   0  0  0  0  0  0  0  0  0  0  0  0
  190.4530  170.5410  136.0670 C   0  0  0  0  0  0  0  0  0  0  0  0
  192.4160  169.1680  135.7000 C   0  0  0  0  0  3  0  0  0  0  0  0
  190.8490  168.5910  137.4510 C   0  0  0  0  0  3  0  0  0  0  0  0
  190.0550  169.6910  137.1100 C   0  0  0  0  0  0  0  0  0  0  0  0
  192.0270  168.3290  136.7470 C   0  0  0  0  0  3  0  0  0  0  0  0
  192.4990  171.3760  139.6050 C   0  0  0  0  0  2  0  0  0  0  0  0
  193.6380  170.9940  138.6820 C   0  0  0  0  0  2  0  0  0  0  0  0
  194.4200  169.8390  139.2770 C   0  0  0  0  0  2  0  0  0  0  0  0
  195.3060  169.2390  138.2050 C   0  0  0  0  0  1  0  0  0  0  0  0
  189.6590  175.0320  145.7490 C   0  0  0  0  0  2  0  0  0  0  0  0
  188.9210  176.3030  145.3620 C   0  0  0  0  0  2  0  0  0  0  0  0
  188.0480  176.0540  144.2830 O   0  0  0  0  0  0  0  0  0  0  0  0
  185.8850  176.7100  142.3280 O   0  0  0  0  0  0  0  0  0  0  0  0
  187.6950  177.4220  140.9580 O   0  0  0  0  0  1  0  0  0  0  0  0
  188.1080  177.1350  143.3670 C   0  0  1  0  0  0  0  0  0  0  0  0
  185.8600  179.3660  145.1080 C   0  0  0  0  0  2  0  0  0  0  0  0
  187.2910  176.7380  142.1200 C   0  0  1  0  0  3  0  0  0  0  0  0
  183.9680  178.1450  142.3960 C   0  0  0  0  0  0  0  0  0  0  0  0
  187.5570  178.4220  144.0010 C   0  0  0  0  0  2  0  0  0  0  0  0
  184.7720  179.7370  144.1080 C   0  0  0  0  0  2  0  0  0  0  0  0
  186.4370  178.1330  144.7880 O   0  0  0  0  0  0  0  0  0  0  0  0
  189.4320  177.3630  142.9650 O   0  0  0  0  0  1  0  0  0  0  0  0
  182.8870  178.2030  141.6220 C   0  0  0  0  0  2  0  0  0  0  0  0
  183.8600  178.5510  143.8340 C   0  0  0  0  0  2  0  0  0  0  0  0
  185.2980  177.8620  141.7700 C   0  0  0  0  0  2  0  0  0  0  0  0
  1 54  1  1  0  0  0
  1 12  1  0  0  0  0
  2  8  1  0  0  0  0
  4 20  1  0  0  0  0
  5  6  1  1  0  0  0
  5 21  1  0  0  0  0
  7 22  1  0  0  0  0
  7 12  1  0  0  0  0
  7 10  1  1  0  0  0
  8 13  1  6  0  0  0
  8  5  1  0  0  0  0
  9 23  1  0  0  0  0
 11  4  2  0  0  0  0
 15 24  1  0  0  0  0
 15 22  1  0  0  0  0
 17  3  1  0  0  0  0
 17  1  1  0  0  0  0
 18 50  1  1  0  0  0
 18  2  1  0  0  0  0
 19 35  1  6  0  0  0
 19 18  1  0  0  0  0
 19  9  1  0  0  0  0
 20 15  2  0  0  0  0
 21 14  1  1  0  0  0
 21  3  1  0  0  0  0
 23 16  1  1  0  0  0
 23  4  1  0  0  0  0
 24 27  2  0  0  0  0
 26 25  1  0  0  0  0
 27 26  2  0  0  0  0
 28 29  1  1  0  0  0
 28 26  1  0  0  0  0
 30 29  2  0  0  0  0
 31 28  1  0  0  0  0
 32 31  1  0  0  0  0
 33 32  2  0  0  0  0
 34 32  1  0  0  0  0
 36 35  2  0  0  0  0
 37 36  1  0  0  0  0
 38 40  1  0  0  0  0
 38 37  1  0  0  0  0
 40 39  2  0  0  0  0
 41 42  1  0  0  0  0
 41 40  1  0  0  0  0
 42 45  1  0  0  0  0
 43 46  2  0  0  0  0
 43 45  1  0  0  0  0
 45 48  2  0  0  0  0
 46 49  1  0  0  0  0
 48 47  1  0  0  0  0
 48 44  1  0  0  0  0
 49 47  2  0  0  0  0
 51 52  1  0  0  0  0
 51 50  1  0  0  0  0
 53 52  1  0  0  0  0
 55 54  1  0  0  0  0
 56 55  1  0  0  0  0
 59 66  1  6  0  0  0
 59 63  1  0  0  0  0
 59 56  1  0  0  0  0
 61 58  1  6  0  0  0
 61 57  1  0  0  0  0
 61 59  1  0  0  0  0
 62 68  1  0  0  0  0
 63 65  1  0  0  0  0
 64 60  1  0  0  0  0
 65 60  1  0  0  0  0
 67 62  2  0  0  0  0
 68 64  1  0  0  0  0
 69 57  1  0  0  0  0
 69 62  1  0  0  0  0
M  END
>  <MODEL>
2

>  <REMARK>
 VINA RESULT:      -6.4      2.776      7.198
  Name = 
  18 active torsions:
  status: ('A' for Active; 'I' for Inactive)
    1  A    between atoms: C_1  and  C_25
    2  A    between atoms: C_1  and  N_64
    3  A    between atoms: C_2  and  C_8
    4  A    between atoms: C_2  and  C_20
    5  A    between atoms: O_3  and  C_12
    6  A    between atoms: O_3  and  C_20
    7  A    between atoms: C_6  and  C_62
    8  A    between atoms: C_7  and  C_14
    9  A    between atoms: C_7  and  C_16
   10  A    between atoms: O_10  and  C_18
   11  A    between atoms: O_10  and  C_60
   12  A    between atoms: C_11  and  C_13
   13  A    between atoms: C_11  and  C_44
   14  A    between atoms: C_15  and  C_60
   15  A    between atoms: C_16  and  C_61
   16  A    between atoms: C_33  and  C_52
   17  A    between atoms: C_44  and  C_58
   18  A    between atoms: C_56  and  C_60
                            x       y       z     vdW  Elec       q    Type
                         _______ _______ _______ _____ _____    ______ ____

>  <TORSDO>
F 18

$$$$
=
 OpenBabel11062418403D

 69 71  0  0  1  0  0  0  0  0999 V2000
  190.5700  171.3070  141.9770 C   0  0  1  0  0  3  0  0  0  0  0  0
  195.3980  173.0690  142.2030 C   0  0  0  0  0  2  0  0  0  0  0  0
  192.4270  170.9050  143.6550 C   0  0  0  0  0  2  0  0  0  0  0  0
  191.5830  176.1520  142.8520 C   0  0  0  0  0  0  0  0  0  0  0  0
  194.9530  170.7710  143.1330 C   0  0  1  0  0  3  0  0  0  0  0  0
  194.4620  170.2980  141.9070 O   0  0  0  0  0  1  0  0  0  0  0  0
  188.9890  172.8210  142.3370 C   0  0  2  0  0  3  0  0  0  0  0  0
  195.9990  171.8600  142.9140 C   0  0  1  0  0  3  0  0  0  0  0  0
  193.7630  175.4560  141.9030 C   0  0  0  0  0  2  0  0  0  0  0  0
  187.7700  172.4170  141.7880 O   0  0  0  0  0  1  0  0  0  0  0  0
  191.1600  177.3260  142.6810 O   0  0  0  0  0  0  0  0  0  0  0  0
  189.6300  171.7260  142.9270 O   0  0  0  0  0  0  0  0  0  0  0  0
  197.2030  171.3320  142.1540 C   0  0  0  0  0  1  0  0  0  0  0  0
  194.0870  170.8420  145.3450 F   0  0  0  0  0  0  0  0  0  0  0  0
  189.5980  174.9220  143.4920 C   0  0  0  0  0  0  0  0  0  0  0  0
  193.1440  174.9860  144.1690 O   0  0  0  0  0  1  0  0  0  0  0  0
  191.9800  171.6890  142.4230 C   0  0  0  0  0  2  0  0  0  0  0  0
  195.9870  174.3990  142.6870 C   0  0  1  0  0  3  0  0  0  0  0  0
  195.2790  175.6150  142.0690 C   0  0  1  0  0  3  0  0  0  0  0  0
  190.6800  175.0410  142.7740 N   0  0  0  0  0  0  0  0  0  0  0  0
  193.8440  171.2950  144.0640 C   0  0  2  0  0  3  0  0  0  0  0  0
  188.7530  173.8230  143.3150 O   0  0  0  0  0  0  0  0  0  0  0  0
  193.0270  175.9290  143.1450 C   0  0  2  0  0  3  0  0  0  0  0  0
  189.2610  175.9080  144.5330 C   0  0  0  0  0  3  0  0  0  0  0  0
  187.4280  178.9090  144.5140 O   0  0  0  0  0  1  0  0  0  0  0  0
  187.2680  177.5630  144.2140 C   0  0  0  0  0  0  0  0  0  0  0  0
  188.2740  176.7470  144.3760 C   0  0  0  0  0  0  0  0  0  0  0  0
  185.9450  177.0200  143.7390 C   0  0  2  0  0  3  0  0  0  0  0  0
  185.7660  177.0700  142.2460 C   0  0  0  0  0  3  0  0  0  0  0  0
  185.7750  178.1270  141.6360 O   0  0  0  0  0  0  0  0  0  0  0  0
  184.8230  177.5480  144.4510 O   0  0  0  0  0  0  0  0  0  0  0  0
  184.6580  177.5010  145.8410 C   0  0  0  0  0  0  0  0  0  0  0  0
  185.0970  176.5110  146.4840 O   0  0  0  0  0  0  0  0  0  0  0  0
  184.0220  178.5300  146.5250 O   0  0  0  0  0  1  0  0  0  0  0  0
  195.9050  176.0180  140.7710 C   0  0  0  0  0  3  0  0  0  0  0  0
  196.8550  175.2610  140.2230 C   0  0  0  0  0  3  0  0  0  0  0  0
  197.5540  175.6670  138.9630 C   0  0  0  0  0  2  0  0  0  0  0  0
  197.9250  174.4480  138.1210 C   0  0  0  0  0  2  0  0  0  0  0  0
  197.7080  173.7560  135.8510 O   0  0  0  0  0  0  0  0  0  0  0  0
  197.7410  174.7190  136.6620 C   0  0  0  0  0  0  0  0  0  0  0  0
  197.5630  176.0570  136.2020 N   0  0  0  0  0  2  0  0  0  0  0  0
  197.1670  176.3450  134.8350 C   0  0  0  0  0  2  0  0  0  0  0  0
  196.2400  178.6390  134.5140 C   0  0  0  0  0  3  0  0  0  0  0  0
  194.4910  175.5610  135.4740 F   0  0  0  0  0  0  0  0  0  0  0  0
  196.0190  177.2940  134.8280 C   0  0  0  0  0  0  0  0  0  0  0  0
  195.1770  179.5450  134.5160 C   0  0  0  0  0  3  0  0  0  0  0  0
  193.6650  177.7680  135.1560 C   0  0  0  0  0  3  0  0  0  0  0  0
  194.7280  176.8580  135.1620 C   0  0  0  0  0  0  0  0  0  0  0  0
  193.8880  179.1090  134.8350 C   0  0  0  0  0  3  0  0  0  0  0  0
  196.0060  174.5280  144.2040 C   0  0  0  0  0  2  0  0  0  0  0  0
  197.3160  173.9980  144.7470 C   0  0  0  0  0  2  0  0  0  0  0  0
  197.1310  173.5260  146.1760 C   0  0  0  0  0  2  0  0  0  0  0  0
  196.8930  172.0310  146.1750 C   0  0  0  0  0  1  0  0  0  0  0  0
  190.4570  169.8030  141.7400 C   0  0  0  0  0  2  0  0  0  0  0  0
  191.1120  169.3910  140.4310 C   0  0  0  0  0  2  0  0  0  0  0  0
  190.5990  170.1580  139.3640 O   0  0  0  0  0  0  0  0  0  0  0  0
  190.4940  171.9680  136.9880 O   0  0  0  0  0  0  0  0  0  0  0  0
  191.1830  170.0240  135.8020 O   0  0  0  0  0  1  0  0  0  0  0  0
  191.4650  170.0500  138.2460 C   0  0  1  0  0  0  0  0  0  0  0  0
  193.6270  172.8350  139.0410 C   0  0  0  0  0  2  0  0  0  0  0  0
  190.6990  170.5610  137.0090 C   0  0  1  0  0  3  0  0  0  0  0  0
  191.5960  174.0160  136.4140 C   0  0  0  0  0  0  0  0  0  0  0  0
  192.7530  170.8580  138.4690 C   0  0  0  0  0  2  0  0  0  0  0  0
  193.6110  173.7460  137.8210 C   0  0  0  0  0  2  0  0  0  0  0  0
  192.4600  172.0670  139.1110 O   0  0  0  0  0  0  0  0  0  0  0  0
  191.8090  168.7090  138.0210 O   0  0  0  0  0  1  0  0  0  0  0  0
  191.3240  174.9270  135.4830 C   0  0  0  0  0  2  0  0  0  0  0  0
  192.2660  174.4440  137.6830 C   0  0  0  0  0  2  0  0  0  0  0  0
  191.4020  172.5670  136.0930 C   0  0  0  0  0  2  0  0  0  0  0  0
  1 54  1  1  0  0  0
  1 17  1  0  0  0  0
  1 12  1  0  0  0  0
  2 18  1  0  0  0  0
  2  8  1  0  0  0  0
  3 21  1  0  0  0  0
  4 23  1  0  0  0  0
  5  6  1  6  0  0  0
  5 21  1  0  0  0  0
  7 10  1  1  0  0  0
  7 12  1  0  0  0  0
  7 22  1  0  0  0  0
  8 13  1  6  0  0  0
  8  5  1  0  0  0  0
  9 19  1  0  0  0  0
  9 23  1  0  0  0  0
 11  4  2  0  0  0  0
 15 24  1  0  0  0  0
 17  3  1  0  0  0  0
 18 50  1  1  0  0  0
 19 35  1  6  0  0  0
 19 18  1  0  0  0  0
 20  4  1  0  0  0  0
 20 15  2  0  0  0  0
 21 14  1  1  0  0  0
 22 15  1  0  0  0  0
 23 16  1  1  0  0  0
 26 27  2  0  0  0  0
 26 25  1  0  0  0  0
 27 24  2  0  0  0  0
 28 29  1  6  0  0  0
 28 26  1  0  0  0  0
 28 31  1  0  0  0  0
 30 29  2  0  0  0  0
 31 32  1  0  0  0  0
 32 33  2  0  0  0  0
 32 34  1  0  0  0  0
 36 35  2  0  0  0  0
 37 36  1  0  0  0  0
 38 37  1  0  0  0  0
 39 40  2  0  0  0  0
 40 38  1  0  0  0  0
 41 40  1  0  0  0  0
 42 41  1  0  0  0  0
 43 46  2  0  0  0  0
 43 45  1  0  0  0  0
 45 42  1  0  0  0  0
 45 48  2  0  0  0  0
 46 49  1  0  0  0  0
 47 48  1  0  0  0  0
 48 44  1  0  0  0  0
 49 47  2  0  0  0  0
 50 51  1  0  0  0  0
 51 52  1  0  0  0  0
 53 52  1  0  0  0  0
 55 54  1  0  0  0  0
 56 55  1  0  0  0  0
 57 61  1  0  0  0  0
 59 66  1  6  0  0  0
 59 63  1  0  0  0  0
 59 56  1  0  0  0  0
 60 65  1  0  0  0  0
 61 58  1  6  0  0  0
 61 59  1  0  0  0  0
 62 68  1  0  0  0  0
 63 65  1  0  0  0  0
 64 60  1  0  0  0  0
 67 62  2  0  0  0  0
 68 64  1  0  0  0  0
 69 62  1  0  0  0  0
 69 57  1  0  0  0  0
M  END
>  <MODEL>
3

>  <REMARK>
 VINA RESULT:      -6.1      3.117     10.236
  Name = 
  18 active torsions:
  status: ('A' for Active; 'I' for Inactive)
    1  A    between atoms: C_1  and  C_25
    2  A    between atoms: C_1  and  N_64
    3  A    between atoms: C_2  and  C_8
    4  A    between atoms: C_2  and  C_20
    5  A    between atoms: O_3  and  C_12
    6  A    between atoms: O_3  and  C_20
    7  A    between atoms: C_6  and  C_62
    8  A    between atoms: C_7  and  C_14
    9  A    between atoms: C_7  and  C_16
   10  A    between atoms: O_10  and  C_18
   11  A    between atoms: O_10  and  C_60
   12  A    between atoms: C_11  and  C_13
   13  A    between atoms: C_11  and  C_44
   14  A    between atoms: C_15  and  C_60
   15  A    between atoms: C_16  and  C_61
   16  A    between atoms: C_33  and  C_52
   17  A    between atoms: C_44  and  C_58
   18  A    between atoms: C_56  and  C_60
                            x       y       z     vdW  Elec       q    Type
                         _______ _______ _______ _____ _____    ______ ____

>  <TORSDO>
F 18

$$$$
=
 OpenBabel11062418403D

 69 71  0  0  1  0  0  0  0  0999 V2000
  190.9970  174.3580  142.5470 C   0  0  1  0  0  3  0  0  0  0  0  0
  192.8960  170.6950  139.4740 C   0  0  0  0  0  2  0  0  0  0  0  0
  191.2760  171.8610  142.8850 C   0  0  0  0  0  2  0  0  0  0  0  0
  195.8730  174.1780  141.3400 C   0  0  0  0  0  0  0  0  0  0  0  0
  191.0560  170.0410  141.0660 C   0  0  1  0  0  3  0  0  0  0  0  0
  190.1660  170.9810  140.5270 O   0  0  0  0  0  1  0  0  0  0  0  0
  192.4840  175.8070  143.3270 C   0  0  2  0  0  3  0  0  0  0  0  0
  192.0350  169.5510  140.0030 C   0  0  1  0  0  3  0  0  0  0  0  0
  194.9650  172.7370  139.5400 C   0  0  0  0  0  2  0  0  0  0  0  0
  191.8690  177.0020  143.7110 O   0  0  0  0  0  1  0  0  0  0  0  0
  196.8960  174.8830  141.1360 O   0  0  0  0  0  0  0  0  0  0  0  0
  191.6890  174.7210  143.7080 O   0  0  0  0  0  0  0  0  0  0  0  0
  191.3170  168.8470  138.8650 C   0  0  0  0  0  1  0  0  0  0  0  0
  191.8690  169.5970  143.2550 F   0  0  0  0  0  0  0  0  0  0  0  0
  194.8770  175.1810  143.3050 C   0  0  0  0  0  0  0  0  0  0  0  0
  195.3000  171.9390  141.7740 O   0  0  0  0  0  1  0  0  0  0  0  0
  191.5600  173.0570  141.9780 C   0  0  0  0  0  2  0  0  0  0  0  0
  194.3310  170.2620  139.1530 C   0  0  1  0  0  3  0  0  0  0  0  0
  195.2260  171.4460  138.7540 C   0  0  1  0  0  3  0  0  0  0  0  0
  194.7740  174.7030  142.0960 N   0  0  0  0  0  0  0  0  0  0  0  0
  191.8350  170.5760  142.2820 C   0  0  2  0  0  3  0  0  0  0  0  0
  193.7560  175.7140  143.9490 O   0  0  0  0  0  0  0  0  0  0  0  0
  195.8180  172.7910  140.7970 C   0  0  2  0  0  3  0  0  0  0  0  0
  196.1520  175.1330  144.0390 C   0  0  0  0  0  3  0  0  0  0  0  0
  197.1580  173.5910  147.0360 O   0  0  0  0  0  1  0  0  0  0  0  0
  196.6130  173.2640  145.8020 C   0  0  0  0  0  0  0  0  0  0  0  0
  196.3860  174.2090  144.9310 C   0  0  0  0  0  0  0  0  0  0  0  0
  196.3130  171.8330  145.4360 C   0  0  2  0  0  3  0  0  0  0  0  0
  194.8650  171.4550  145.5920 C   0  0  0  0  0  3  0  0  0  0  0  0
  194.0000  172.2980  145.7690 O   0  0  0  0  0  0  0  0  0  0  0  0
  197.2020  170.8910  146.0410 O   0  0  0  0  0  0  0  0  0  0  0  0
  196.8980  169.5490  146.3010 C   0  0  0  0  0  0  0  0  0  0  0  0
  196.3440  168.8550  145.4070 O   0  0  0  0  0  0  0  0  0  0  0  0
  197.1980  168.9680  147.5270 O   0  0  0  0  0  1  0  0  0  0  0  0
  195.1690  171.7120  137.2840 C   0  0  0  0  0  3  0  0  0  0  0  0
  195.4900  172.9160  136.8090 C   0  0  0  0  0  3  0  0  0  0  0  0
  195.3770  173.2420  135.3530 C   0  0  0  0  0  2  0  0  0  0  0  0
  195.2370  171.9730  134.5130 C   0  0  0  0  0  2  0  0  0  0  0  0
  193.6360  170.2130  134.6340 O   0  0  0  0  0  0  0  0  0  0  0  0
  193.8360  171.4530  134.5430 C   0  0  0  0  0  0  0  0  0  0  0  0
  192.7370  172.3610  134.5130 N   0  0  0  0  0  2  0  0  0  0  0  0
  191.3760  171.9180  134.7580 C   0  0  0  0  0  2  0  0  0  0  0  0
  191.7720  173.1680  136.8810 C   0  0  0  0  0  3  0  0  0  0  0  0
  188.6860  171.5950  135.6740 F   0  0  0  0  0  0  0  0  0  0  0  0
  190.8870  172.4710  136.0510 C   0  0  0  0  0  0  0  0  0  0  0  0
  191.3330  173.6820  138.1030 C   0  0  0  0  0  3  0  0  0  0  0  0
  189.1220  172.7940  137.6810 C   0  0  0  0  0  3  0  0  0  0  0  0
  189.5590  172.2720  136.4580 C   0  0  0  0  0  0  0  0  0  0  0  0
  190.0070  173.4970  138.5020 C   0  0  0  0  0  3  0  0  0  0  0  0
  194.9850  169.4750  140.2800 C   0  0  0  0  0  2  0  0  0  0  0  0
  195.6950  168.2640  139.7140 C   0  0  0  0  0  2  0  0  0  0  0  0
  197.1560  168.5880  139.4690 C   0  0  0  0  0  2  0  0  0  0  0  0
  197.5260  168.1660  138.0630 C   0  0  0  0  0  1  0  0  0  0  0  0
  189.5020  174.2310  142.8320 C   0  0  0  0  0  2  0  0  0  0  0  0
  188.6720  175.0300  141.8410 C   0  0  0  0  0  2  0  0  0  0  0  0
  187.5070  175.5240  142.4630 O   0  0  0  0  0  0  0  0  0  0  0  0
  185.3870  177.2370  143.6900 O   0  0  0  0  0  0  0  0  0  0  0  0
  186.2410  178.8980  142.2160 O   0  0  0  0  0  1  0  0  0  0  0  0
  187.6350  176.9220  142.6650 C   0  0  1  0  0  0  0  0  0  0  0  0
  188.2490  176.8370  146.2270 C   0  0  0  0  0  2  0  0  0  0  0  0
  186.2250  177.5400  142.5810 C   0  0  1  0  0  3  0  0  0  0  0  0
  184.9140  177.9400  145.9300 C   0  0  0  0  0  0  0  0  0  0  0  0
  188.2880  177.2210  144.0240 C   0  0  0  0  0  2  0  0  0  0  0  0
  187.1960  177.7380  146.8600 C   0  0  0  0  0  2  0  0  0  0  0  0
  187.8080  176.3360  144.9970 O   0  0  0  0  0  0  0  0  0  0  0  0
  188.4220  177.4930  141.6540 O   0  0  0  0  0  1  0  0  0  0  0  0
  183.8190  178.4670  146.4720 C   0  0  0  0  0  2  0  0  0  0  0  0
  185.8170  177.1000  146.7800 C   0  0  0  0  0  2  0  0  0  0  0  0
  185.3150  178.3520  144.5480 C   0  0  0  0  0  2  0  0  0  0  0  0
  1 54  1  1  0  0  0
  1 12  1  0  0  0  0
  2  8  1  0  0  0  0
  4 20  1  0  0  0  0
  5  6  1  6  0  0  0
  5 21  1  0  0  0  0
  7 12  1  0  0  0  0
  7 10  1  1  0  0  0
  7 22  1  0  0  0  0
  8 13  1  6  0  0  0
  8  5  1  0  0  0  0
  9 23  1  0  0  0  0
 11  4  2  0  0  0  0
 15 22  1  0  0  0  0
 15 24  1  0  0  0  0
 17  1  1  0  0  0  0
 17  3  1  0  0  0  0
 18  2  1  0  0  0  0
 18 50  1  1  0  0  0
 19 35  1  6  0  0  0
 19 18  1  0  0  0  0
 19  9  1  0  0  0  0
 20 15  2  0  0  0  0
 21  3  1  0  0  0  0
 21 14  1  1  0  0  0
 23  4  1  0  0  0  0
 23 16  1  1  0  0  0
 24 27  2  0  0  0  0
 26 25  1  0  0  0  0
 27 26  2  0  0  0  0
 28 29  1  1  0  0  0
 28 26  1  0  0  0  0
 28 31  1  0  0  0  0
 29 30  2  0  0  0  0
 31 32  1  0  0  0  0
 32 34  1  0  0  0  0
 33 32  2  0  0  0  0
 36 35  2  0  0  0  0
 37 36  1  0  0  0  0
 38 40  1  0  0  0  0
 38 37  1  0  0  0  0
 40 39  2  0  0  0  0
 41 40  1  0  0  0  0
 41 42  1  0  0  0  0
 42 45  1  0  0  0  0
 43 46  1  0  0  0  0
 44 48  1  0  0  0  0
 45 48  1  0  0  0  0
 45 43  2  0  0  0  0
 46 49  2  0  0  0  0
 47 49  1  0  0  0  0
 48 47  2  0  0  0  0
 51 50  1  0  0  0  0
 52 51  1  0  0  0  0
 53 52  1  0  0  0  0
 55 56  1  0  0  0  0
 55 54  1  0  0  0  0
 56 59  1  0  0  0  0
 57 69  1  0  0  0  0
 59 66  1  6  0  0  0
 59 63  1  0  0  0  0
 60 64  1  0  0  0  0
 61 58  1  1  0  0  0
 61 59  1  0  0  0  0
 61 57  1  0  0  0  0
 62 67  2  0  0  0  0
 62 68  1  0  0  0  0
 63 65  1  0  0  0  0
 65 60  1  0  0  0  0
 68 64  1  0  0  0  0
 69 62  1  0  0  0  0
M  END
>  <MODEL>
4

>  <REMARK>
 VINA RESULT:      -5.7      2.815      7.493
  Name = 
  18 active torsions:
  status: ('A' for Active; 'I' for Inactive)
    1  A    between atoms: C_1  and  C_25
    2  A    between atoms: C_1  and  N_64
    3  A    between atoms: C_2  and  C_8
    4  A    between atoms: C_2  and  C_20
    5  A    between atoms: O_3  and  C_12
    6  A    between atoms: O_3  and  C_20
    7  A    between atoms: C_6  and  C_62
    8  A    between atoms: C_7  and  C_14
    9  A    between atoms: C_7  and  C_16
   10  A    between atoms: O_10  and  C_18
   11  A    between atoms: O_10  and  C_60
   12  A    between atoms: C_11  and  C_13
   13  A    between atoms: C_11  and  C_44
   14  A    between atoms: C_15  and  C_60
   15  A    between atoms: C_16  and  C_61
   16  A    between atoms: C_33  and  C_52
   17  A    between atoms: C_44  and  C_58
   18  A    between atoms: C_56  and  C_60
                            x       y       z     vdW  Elec       q    Type
                         _______ _______ _______ _____ _____    ______ ____

>  <TORSDO>
F 18

$$$$
=
 OpenBabel11062418403D

 69 71  0  0  1  0  0  0  0  0999 V2000
  190.1280  174.2380  141.2130 C   0  0  1  0  0  3  0  0  0  0  0  0
  193.1130  170.4260  139.4720 C   0  0  0  0  0  2  0  0  0  0  0  0
  190.2640  171.7870  141.8480 C   0  0  0  0  0  2  0  0  0  0  0  0
  195.0840  174.1580  142.0540 C   0  0  0  0  0  0  0  0  0  0  0  0
  190.7950  169.8250  140.2560 C   0  0  1  0  0  3  0  0  0  0  0  0
  190.1880  170.6850  139.3300 O   0  0  0  0  0  1  0  0  0  0  0  0
  191.1750  175.8000  142.3890 C   0  0  2  0  0  3  0  0  0  0  0  0
  192.1190  169.2940  139.7140 C   0  0  1  0  0  3  0  0  0  0  0  0
  194.9740  172.5480  140.1740 C   0  0  0  0  0  2  0  0  0  0  0  0
  190.4520  176.9960  142.3940 O   0  0  0  0  0  1  0  0  0  0  0  0
  196.1000  174.8850  142.2110 O   0  0  0  0  0  0  0  0  0  0  0  0
  190.3000  174.7170  142.5170 O   0  0  0  0  0  0  0  0  0  0  0  0
  191.9170  168.4760  138.4510 C   0  0  0  0  0  1  0  0  0  0  0  0
  190.6740  169.5850  142.6170 F   0  0  0  0  0  0  0  0  0  0  0  0
  193.3830  175.2700  143.3700 C   0  0  0  0  0  0  0  0  0  0  0  0
  194.3970  171.9390  142.4180 O   0  0  0  0  0  1  0  0  0  0  0  0
  190.8780  172.9200  141.0290 C   0  0  0  0  0  2  0  0  0  0  0  0
  194.5600  170.0270  139.7830 C   0  0  1  0  0  3  0  0  0  0  0  0
  195.5330  171.2110  139.6700 C   0  0  1  0  0  3  0  0  0  0  0  0
  193.7720  174.6970  142.2660 N   0  0  0  0  0  0  0  0  0  0  0  0
  191.0230  170.4830  141.6300 C   0  0  2  0  0  3  0  0  0  0  0  0
  192.0960  175.8060  143.4690 O   0  0  0  0  0  0  0  0  0  0  0  0
  195.2570  172.7320  141.6560 C   0  0  2  0  0  3  0  0  0  0  0  0
  194.2620  175.3290  144.5500 C   0  0  0  0  0  3  0  0  0  0  0  0
  194.5030  177.5410  147.2740 O   0  0  0  0  0  1  0  0  0  0  0  0
  193.5790  176.7050  146.6600 C   0  0  0  0  0  0  0  0  0  0  0  0
  193.9340  176.0250  145.6040 C   0  0  0  0  0  0  0  0  0  0  0  0
  192.1870  176.5420  147.2120 C   0  0  2  0  0  3  0  0  0  0  0  0
  191.9480  177.2890  148.4960 C   0  0  0  0  0  3  0  0  0  0  0  0
  190.9150  177.9090  148.6930 O   0  0  0  0  0  0  0  0  0  0  0  0
  191.7520  175.1810  147.2710 O   0  0  0  0  0  0  0  0  0  0  0  0
  190.5060  174.7150  146.8360 C   0  0  0  0  0  0  0  0  0  0  0  0
  190.4050  174.1870  145.6960 O   0  0  0  0  0  0  0  0  0  0  0  0
  189.3770  174.8210  147.6390 O   0  0  0  0  0  1  0  0  0  0  0  0
  196.0640  171.3610  138.2810 C   0  0  0  0  0  3  0  0  0  0  0  0
  196.9340  172.3300  137.9980 C   0  0  0  0  0  3  0  0  0  0  0  0
  197.4330  172.5560  136.6050 C   0  0  0  0  0  2  0  0  0  0  0  0
  196.4120  172.0830  135.5700 C   0  0  0  0  0  2  0  0  0  0  0  0
  195.5910  174.3100  135.3650 O   0  0  0  0  0  0  0  0  0  0  0  0
  195.3130  173.0820  135.3960 C   0  0  0  0  0  0  0  0  0  0  0  0
  193.9690  172.6400  135.2230 N   0  0  0  0  0  2  0  0  0  0  0  0
  192.9100  173.5560  134.8360 C   0  0  0  0  0  2  0  0  0  0  0  0
  190.9900  172.0370  135.3140 C   0  0  0  0  0  3  0  0  0  0  0  0
  191.7710  175.2990  136.7970 F   0  0  0  0  0  0  0  0  0  0  0  0
  191.6620  173.2340  135.5810 C   0  0  0  0  0  0  0  0  0  0  0  0
  189.8110  171.7250  135.9950 C   0  0  0  0  0  3  0  0  0  0  0  0
  189.9620  173.8120  137.2090 C   0  0  0  0  0  3  0  0  0  0  0  0
  191.1400  174.1310  136.5250 C   0  0  0  0  0  0  0  0  0  0  0  0
  189.2980  172.6120  136.9440 C   0  0  0  0  0  3  0  0  0  0  0  0
  194.7160  169.3560  141.1410 C   0  0  0  0  0  2  0  0  0  0  0  0
  196.1490  168.9010  141.3240 C   0  0  0  0  0  2  0  0  0  0  0  0
  196.5870  169.1370  142.7560 C   0  0  0  0  0  2  0  0  0  0  0  0
  195.4400  168.8030  143.6860 C   0  0  0  0  0  1  0  0  0  0  0  0
  188.6440  174.0740  140.8930 C   0  0  0  0  0  2  0  0  0  0  0  0
  187.9500  175.4190  140.7470 C   0  0  0  0  0  2  0  0  0  0  0  0
  187.1280  175.6700  141.8650 O   0  0  0  0  0  0  0  0  0  0  0  0
  185.0900  176.9460  143.6390 O   0  0  0  0  0  0  0  0  0  0  0  0
  185.1710  178.7010  142.0340 O   0  0  0  0  0  1  0  0  0  0  0  0
  187.0120  177.0710  142.0610 C   0  0  1  0  0  0  0  0  0  0  0  0
  188.5280  177.2250  145.3390 C   0  0  0  0  0  2  0  0  0  0  0  0
  185.5310  177.3810  142.3590 C   0  0  1  0  0  3  0  0  0  0  0  0
  185.0760  177.6060  145.9420 C   0  0  0  0  0  0  0  0  0  0  0  0
  187.9170  177.5400  143.2110 C   0  0  0  0  0  2  0  0  0  0  0  0
  187.5110  177.9090  146.2440 C   0  0  0  0  0  2  0  0  0  0  0  0
  187.8980  176.6060  144.2530 O   0  0  0  0  0  0  0  0  0  0  0  0
  187.3750  177.7600  140.8940 O   0  0  0  0  0  1  0  0  0  0  0  0
  184.0730  177.9120  146.7610 C   0  0  0  0  0  2  0  0  0  0  0  0
  186.3220  176.9970  146.5090 C   0  0  0  0  0  2  0  0  0  0  0  0
  185.0120  178.0480  144.5140 C   0  0  0  0  0  2  0  0  0  0  0  0
  1 54  1  1  0  0  0
  1 12  1  0  0  0  0
  2  8  1  0  0  0  0
  2 18  1  0  0  0  0
  4 11  2  0  0  0  0
  4 20  1  0  0  0  0
  5  6  1  6  0  0  0
  5 21  1  0  0  0  0
  7 10  1  1  0  0  0
  7 12  1  0  0  0  0
  7 22  1  0  0  0  0
  8 13  1  6  0  0  0
  8  5  1  0  0  0  0
  9 23  1  0  0  0  0
 15 22  1  0  0  0  0
 15 24  1  0  0  0  0
 17  1  1  0  0  0  0
 17  3  1  0  0  0  0
 18 50  1  1  0  0  0
 19 35  1  6  0  0  0
 19 18  1  0  0  0  0
 19  9  1  0  0  0  0
 20 15  2  0  0  0  0
 21  3  1  0  0  0  0
 21 14  1  1  0  0  0
 23  4  1  0  0  0  0
 23 16  1  1  0  0  0
 24 27  2  0  0  0  0
 26 28  1  0  0  0  0
 26 25  1  0  0  0  0
 27 26  2  0  0  0  0
 28 31  1  0  0  0  0
 28 29  1  1  0  0  0
 29 30  2  0  0  0  0
 32 31  1  0  0  0  0
 32 34  1  0  0  0  0
 33 32  2  0  0  0  0
 36 35  2  0  0  0  0
 37 36  1  0  0  0  0
 38 37  1  0  0  0  0
 39 40  2  0  0  0  0
 40 38  1  0  0  0  0
 41 40  1  0  0  0  0
 42 41  1  0  0  0  0
 42 45  1  0  0  0  0
 43 45  2  0  0  0  0
 43 46  1  0  0  0  0
 45 48  1  0  0  0  0
 46 49  2  0  0  0  0
 48 44  1  0  0  0  0
 48 47  2  0  0  0  0
 49 47  1  0  0  0  0
 50 51  1  0  0  0  0
 51 52  1  0  0  0  0
 52 53  1  0  0  0  0
 55 54  1  0  0  0  0
 55 56  1  0  0  0  0
 56 59  1  0  0  0  0
 57 69  1  0  0  0  0
 59 66  1  6  0  0  0
 59 61  1  0  0  0  0
 59 63  1  0  0  0  0
 60 64  1  0  0  0  0
 61 58  1  1  0  0  0
 61 57  1  0  0  0  0
 62 68  1  0  0  0  0
 62 67  2  0  0  0  0
 63 65  1  0  0  0  0
 64 68  1  0  0  0  0
 65 60  1  0  0  0  0
 69 62  1  0  0  0  0
M  END
>  <MODEL>
5

>  <REMARK>
 VINA RESULT:      -5.6      2.706      8.496
  Name = 
  18 active torsions:
  status: ('A' for Active; 'I' for Inactive)
    1  A    between atoms: C_1  and  C_25
    2  A    between atoms: C_1  and  N_64
    3  A    between atoms: C_2  and  C_8
    4  A    between atoms: C_2  and  C_20
    5  A    between atoms: O_3  and  C_12
    6  A    between atoms: O_3  and  C_20
    7  A    between atoms: C_6  and  C_62
    8  A    between atoms: C_7  and  C_14
    9  A    between atoms: C_7  and  C_16
   10  A    between atoms: O_10  and  C_18
   11  A    between atoms: O_10  and  C_60
   12  A    between atoms: C_11  and  C_13
   13  A    between atoms: C_11  and  C_44
   14  A    between atoms: C_15  and  C_60
   15  A    between atoms: C_16  and  C_61
   16  A    between atoms: C_33  and  C_52
   17  A    between atoms: C_44  and  C_58
   18  A    between atoms: C_56  and  C_60
                            x       y       z     vdW  Elec       q    Type
                         _______ _______ _______ _____ _____    ______ ____

>  <TORSDO>
F 18

$$$$
=
 OpenBabel11062418403D

 69 71  0  0  1  0  0  0  0  0999 V2000
  192.4270  176.2460  143.0680 C   0  0  1  0  0  3  0  0  0  0  0  0
  191.2700  173.3880  138.9500 C   0  0  0  0  0  2  0  0  0  0  0  0
  190.9830  174.1780  142.8110 C   0  0  0  0  0  2  0  0  0  0  0  0
  195.8850  173.4440  140.7320 C   0  0  0  0  0  0  0  0  0  0  0  0
  189.5310  173.5750  140.7640 C   0  0  1  0  0  3  0  0  0  0  0  0
  189.4730  174.9720  140.6540 O   0  0  0  0  0  1  0  0  0  0  0  0
  194.5320  176.1130  143.7540 C   0  0  2  0  0  3  0  0  0  0  0  0
  189.8880  172.9420  139.4220 C   0  0  1  0  0  3  0  0  0  0  0  0
  194.1740  173.5370  138.9420 C   0  0  0  0  0  2  0  0  0  0  0  0
  194.8880  177.2340  144.5090 O   0  0  0  0  0  1  0  0  0  0  0  0
  197.1080  173.3730  140.4410 O   0  0  0  0  0  0  0  0  0  0  0  0
  193.2320  175.7140  144.0820 O   0  0  0  0  0  0  0  0  0  0  0  0
  188.8380  173.2390  138.3670 C   0  0  0  0  0  1  0  0  0  0  0  0
  189.9300  172.0710  142.5590 F   0  0  0  0  0  0  0  0  0  0  0  0
  195.8940  174.1760  143.0400 C   0  0  0  0  0  0  0  0  0  0  0  0
  193.9830  172.0640  140.8210 O   0  0  0  0  0  1  0  0  0  0  0  0
  191.9550  175.1390  142.1280 C   0  0  0  0  0  2  0  0  0  0  0  0
  192.0350  172.2800  138.2170 C   0  0  1  0  0  3  0  0  0  0  0  0
  193.4740  172.6930  137.8700 C   0  0  1  0  0  3  0  0  0  0  0  0
  195.4490  174.2720  141.8180 N   0  0  0  0  0  0  0  0  0  0  0  0
  190.5170  173.0950  141.8440 C   0  0  2  0  0  3  0  0  0  0  0  0
  195.4420  175.0580  144.0250 O   0  0  0  0  0  0  0  0  0  0  0  0
  194.8960  172.6530  139.9450 C   0  0  2  0  0  3  0  0  0  0  0  0
  196.8410  173.1170  143.4250 C   0  0  0  0  0  3  0  0  0  0  0  0
  196.9560  170.8360  146.1000 O   0  0  0  0  0  1  0  0  0  0  0  0
  196.1230  171.2060  145.0530 C   0  0  0  0  0  0  0  0  0  0  0  0
  196.4940  172.1650  144.2480 C   0  0  0  0  0  0  0  0  0  0  0  0
  194.8170  170.4980  144.8070 C   0  0  2  0  0  3  0  0  0  0  0  0
  194.9580  169.1980  144.0630 C   0  0  0  0  0  3  0  0  0  0  0  0
  193.9970  168.4770  143.8460 O   0  0  0  0  0  0  0  0  0  0  0  0
  193.8030  171.3440  144.2600 O   0  0  0  0  0  0  0  0  0  0  0  0
  192.9920  172.2120  145.0010 C   0  0  0  0  0  0  0  0  0  0  0  0
  191.7400  172.0760  144.9620 O   0  0  0  0  0  0  0  0  0  0  0  0
  193.5440  173.2190  145.7840 O   0  0  0  0  0  1  0  0  0  0  0  0
  193.5490  173.3750  136.5410 C   0  0  0  0  0  3  0  0  0  0  0  0
  193.9290  174.6500  136.4640 C   0  0  0  0  0  3  0  0  0  0  0  0
  193.9470  175.3870  135.1620 C   0  0  0  0  0  2  0  0  0  0  0  0
  195.0680  176.4250  135.1320 C   0  0  0  0  0  2  0  0  0  0  0  0
  197.2180  176.2560  136.1440 O   0  0  0  0  0  0  0  0  0  0  0  0
  196.4080  175.7840  135.3030 C   0  0  0  0  0  0  0  0  0  0  0  0
  196.7440  174.6220  134.5480 N   0  0  0  0  0  2  0  0  0  0  0  0
  197.9370  173.8460  134.8380 C   0  0  0  0  0  2  0  0  0  0  0  0
  197.5390  171.3980  134.5650 C   0  0  0  0  0  3  0  0  0  0  0  0
  197.1910  173.4670  137.5730 F   0  0  0  0  0  0  0  0  0  0  0  0
  197.5560  172.5200  135.3990 C   0  0  0  0  0  0  0  0  0  0  0  0
  197.1720  170.1500  135.0720 C   0  0  0  0  0  3  0  0  0  0  0  0
  196.8250  171.1390  137.2530 C   0  0  0  0  0  3  0  0  0  0  0  0
  197.1860  172.3930  136.7470 C   0  0  0  0  0  0  0  0  0  0  0  0
  196.8170  170.0200  136.4170 C   0  0  0  0  0  3  0  0  0  0  0  0
  192.0440  170.9590  138.9720 C   0  0  0  0  0  2  0  0  0  0  0  0
  192.8750  169.9430  138.2170 C   0  0  0  0  0  2  0  0  0  0  0  0
  191.9960  169.1680  137.2550 C   0  0  0  0  0  2  0  0  0  0  0  0
  192.7960  168.8320  136.0140 C   0  0  0  0  0  1  0  0  0  0  0  0
  191.2420  177.0010  143.6660 C   0  0  0  0  0  2  0  0  0  0  0  0
  191.2740  176.9810  145.1860 C   0  0  0  0  0  2  0  0  0  0  0  0
  190.0440  177.4320  145.7080 O   0  0  0  0  0  0  0  0  0  0  0  0
  187.3640  177.6080  147.0190 O   0  0  0  0  0  0  0  0  0  0  0  0
  187.8550  175.3910  147.7300 O   0  0  0  0  0  1  0  0  0  0  0  0
  189.1680  176.3290  145.8730 C   0  0  1  0  0  0  0  0  0  0  0  0
  186.8410  177.1630  143.2350 C   0  0  0  0  0  2  0  0  0  0  0  0
  188.3360  176.5780  147.1470 C   0  0  1  0  0  3  0  0  0  0  0  0
  185.1440  178.0020  146.2080 C   0  0  0  0  0  0  0  0  0  0  0  0
  188.2590  176.1610  144.6450 C   0  0  0  0  0  2  0  0  0  0  0  0
  185.4650  177.2180  143.8860 C   0  0  0  0  0  2  0  0  0  0  0  0
  187.8500  177.4140  144.1720 O   0  0  0  0  0  0  0  0  0  0  0  0
  189.8990  175.1460  146.0550 O   0  0  0  0  0  1  0  0  0  0  0  0
  184.0260  178.3440  146.8440 C   0  0  0  0  0  2  0  0  0  0  0  0
  185.3410  178.4360  144.7880 C   0  0  0  0  0  2  0  0  0  0  0  0
  186.0860  177.0370  146.8590 C   0  0  0  0  0  2  0  0  0  0  0  0
  1 54  1  1  0  0  0
  1 12  1  0  0  0  0
  2  8  1  0  0  0  0
  4 20  1  0  0  0  0
  5  6  1  6  0  0  0
  5 21  1  0  0  0  0
  7 22  1  0  0  0  0
  7 12  1  0  0  0  0
  7 10  1  1  0  0  0
  8 13  1  6  0  0  0
  8  5  1  0  0  0  0
  9 23  1  0  0  0  0
 11  4  2  0  0  0  0
 15 24  1  0  0  0  0
 15 22  1  0  0  0  0
 17  3  1  0  0  0  0
 17  1  1  0  0  0  0
 18  2  1  0  0  0  0
 18 50  1  1  0  0  0
 19 35  1  6  0  0  0
 19 18  1  0  0  0  0
 19  9  1  0  0  0  0
 20 15  2  0  0  0  0
 21 14  1  1  0  0  0
 21  3  1  0  0  0  0
 23  4  1  0  0  0  0
 23 16  1  1  0  0  0
 24 27  2  0  0  0  0
 26 25  1  0  0  0  0
 27 26  2  0  0  0  0
 28 29  1  6  0  0  0
 28 26  1  0  0  0  0
 30 29  2  0  0  0  0
 31 28  1  0  0  0  0
 31 32  1  0  0  0  0
 32 34  1  0  0  0  0
 33 32  2  0  0  0  0
 36 35  2  0  0  0  0
 37 36  1  0  0  0  0
 38 37  1  0  0  0  0
 38 40  1  0  0  0  0
 40 39  2  0  0  0  0
 41 42  1  0  0  0  0
 41 40  1  0  0  0  0
 42 45  1  0  0  0  0
 43 46  2  0  0  0  0
 43 45  1  0  0  0  0
 45 48  2  0  0  0  0
 46 49  1  0  0  0  0
 48 47  1  0  0  0  0
 48 44  1  0  0  0  0
 49 47  2  0  0  0  0
 51 50  1  0  0  0  0
 52 51  1  0  0  0  0
 53 52  1  0  0  0  0
 54 55  1  0  0  0  0
 55 56  1  0  0  0  0
 56 59  1  0  0  0  0
 57 61  1  0  0  0  0
 59 66  1  1  0  0  0
 59 61  1  0  0  0  0
 60 64  1  0  0  0  0
 60 65  1  0  0  0  0
 61 58  1  6  0  0  0
 62 67  2  0  0  0  0
 62 69  1  0  0  0  0
 63 59  1  0  0  0  0
 64 68  1  0  0  0  0
 65 63  1  0  0  0  0
 68 62  1  0  0  0  0
 69 57  1  0  0  0  0
M  END
>  <MODEL>
6

>  <REMARK>
 VINA RESULT:      -5.4      2.794      8.049
  Name = 
  18 active torsions:
  status: ('A' for Active; 'I' for Inactive)
    1  A    between atoms: C_1  and  C_25
    2  A    between atoms: C_1  and  N_64
    3  A    between atoms: C_2  and  C_8
    4  A    between atoms: C_2  and  C_20
    5  A    between atoms: O_3  and  C_12
    6  A    between atoms: O_3  and  C_20
    7  A    between atoms: C_6  and  C_62
    8  A    between atoms: C_7  and  C_14
    9  A    between atoms: C_7  and  C_16
   10  A    between atoms: O_10  and  C_18
   11  A    between atoms: O_10  and  C_60
   12  A    between atoms: C_11  and  C_13
   13  A    between atoms: C_11  and  C_44
   14  A    between atoms: C_15  and  C_60
   15  A    between atoms: C_16  and  C_61
   16  A    between atoms: C_33  and  C_52
   17  A    between atoms: C_44  and  C_58
   18  A    between atoms: C_56  and  C_60
                            x       y       z     vdW  Elec       q    Type
                         _______ _______ _______ _____ _____    ______ ____

>  <TORSDO>
F 18

$$$$
=
 OpenBabel11062418403D

 69 71  0  0  1  0  0  0  0  0999 V2000
  196.1010  174.1390  142.1450 C   0  0  1  0  0  3  0  0  0  0  0  0
  192.0830  171.0210  141.3650 C   0  0  0  0  0  2  0  0  0  0  0  0
  195.9680  171.6390  141.7400 C   0  0  0  0  0  2  0  0  0  0  0  0
  193.3150  174.4010  137.9680 C   0  0  0  0  0  0  0  0  0  0  0  0
  194.0900  170.0600  142.5450 C   0  0  1  0  0  3  0  0  0  0  0  0
  194.0190  171.0090  143.5760 O   0  0  0  0  0  1  0  0  0  0  0  0
  196.5330  175.5590  140.4970 C   0  0  2  0  0  3  0  0  0  0  0  0
  192.7020  169.7700  141.9820 C   0  0  1  0  0  3  0  0  0  0  0  0
  191.7390  173.1550  139.4180 C   0  0  0  0  0  2  0  0  0  0  0  0
  197.2670  176.6560  140.9570 O   0  0  0  0  0  1  0  0  0  0  0  0
  192.8820  175.1860  137.0830 O   0  0  0  0  0  0  0  0  0  0  0  0
  197.0020  174.3880  141.1020 O   0  0  0  0  0  0  0  0  0  0  0  0
  191.7840  169.1790  143.0360 C   0  0  0  0  0  1  0  0  0  0  0  0
  195.7930  169.3860  141.0320 F   0  0  0  0  0  0  0  0  0  0  0  0
  195.6220  175.0810  138.2470 C   0  0  0  0  0  0  0  0  0  0  0  0
  193.5950  172.0960  138.3350 O   0  0  0  0  0  1  0  0  0  0  0  0
  195.1980  172.9570  141.7940 C   0  0  0  0  0  2  0  0  0  0  0  0
  191.2410  170.7180  140.1200 C   0  0  1  0  0  3  0  0  0  0  0  0
  190.7380  171.9940  139.4270 C   0  0  1  0  0  3  0  0  0  0  0  0
  194.4630  174.7590  138.7500 N   0  0  0  0  0  0  0  0  0  0  0  0
  195.0370  170.4780  141.4060 C   0  0  2  0  0  3  0  0  0  0  0  0
  196.6730  175.4600  139.0870 O   0  0  0  0  0  0  0  0  0  0  0  0
  192.6320  173.0950  138.1900 C   0  0  2  0  0  3  0  0  0  0  0  0
  195.8710  175.0130  136.7980 C   0  0  0  0  0  3  0  0  0  0  0  0
  197.9410  172.9950  134.7940 O   0  0  0  0  0  1  0  0  0  0  0  0
  196.9100  172.8760  135.7170 C   0  0  0  0  0  0  0  0  0  0  0  0
  196.4020  173.9540  136.2510 C   0  0  0  0  0  0  0  0  0  0  0  0
  196.3440  171.5300  136.0850 C   0  0  2  0  0  3  0  0  0  0  0  0
  197.1440  170.7950  137.1260 C   0  0  0  0  0  3  0  0  0  0  0  0
  196.7690  170.7200  138.2850 O   0  0  0  0  0  0  0  0  0  0  0  0
  196.0240  170.7160  134.9530 O   0  0  0  0  0  0  0  0  0  0  0  0
  196.0960  169.3180  134.9210 C   0  0  0  0  0  0  0  0  0  0  0  0
  195.0920  168.6380  135.2640 O   0  0  0  0  0  1  0  0  0  0  0  0
  197.2530  168.6660  134.5130 O   0  0  0  0  0  0  0  0  0  0  0  0
  189.4250  172.4450  139.9830 C   0  0  0  0  0  3  0  0  0  0  0  0
  189.1380  173.7450  140.0510 C   0  0  0  0  0  3  0  0  0  0  0  0
  187.8660  174.2380  140.6660 C   0  0  0  0  0  2  0  0  0  0  0  0
  188.0530  174.5390  142.1530 C   0  0  0  0  0  2  0  0  0  0  0  0
  186.5070  176.3500  142.2170 O   0  0  0  0  0  0  0  0  0  0  0  0
  187.6730  175.9490  142.4730 C   0  0  0  0  0  0  0  0  0  0  0  0
  188.6140  176.8160  143.1030 N   0  0  0  0  0  2  0  0  0  0  0  0
  188.2220  178.1130  143.6260 C   0  0  0  0  0  2  0  0  0  0  0  0
  187.7030  177.0550  145.8250 C   0  0  0  0  0  3  0  0  0  0  0  0
  185.7240  179.4770  143.9080 F   0  0  0  0  0  0  0  0  0  0  0  0
  187.3300  177.9370  144.8050 C   0  0  0  0  0  0  0  0  0  0  0  0
  186.8710  176.8690  146.9320 C   0  0  0  0  0  3  0  0  0  0  0  0
  185.2820  178.4370  146.0000 C   0  0  0  0  0  3  0  0  0  0  0  0
  186.1080  178.6220  144.8870 C   0  0  0  0  0  0  0  0  0  0  0  0
  185.6610  177.5610  147.0200 C   0  0  0  0  0  3  0  0  0  0  0  0
  191.9600  169.8320  139.1130 C   0  0  0  0  0  2  0  0  0  0  0  0
  191.1490  168.5770  138.8650 C   0  0  0  0  0  2  0  0  0  0  0  0
  190.4490  168.6710  137.5230 C   0  0  0  0  0  2  0  0  0  0  0  0
  191.3160  169.4650  136.5680 C   0  0  0  0  0  1  0  0  0  0  0  0
  196.8490  173.8880  143.4520 C   0  0  0  0  0  2  0  0  0  0  0  0
  196.7500  175.0800  144.3920 C   0  0  0  0  0  2  0  0  0  0  0  0
  195.5370  175.0390  145.1080 O   0  0  0  0  0  0  0  0  0  0  0  0
  192.6720  174.5140  144.4370 O   0  0  0  0  0  0  0  0  0  0  0  0
  193.0450  176.1310  142.7330 O   0  0  0  0  0  1  0  0  0  0  0  0
  194.6500  176.0190  144.5930 C   0  0  1  0  0  0  0  0  0  0  0  0
  192.8030  176.6430  147.6370 C   0  0  0  0  0  2  0  0  0  0  0  0
  193.6130  175.2950  143.7120 C   0  0  1  0  0  3  0  0  0  0  0  0
  190.6210  174.7040  145.6600 C   0  0  0  0  0  0  0  0  0  0  0  0
  193.9640  176.7900  145.7320 C   0  0  0  0  0  2  0  0  0  0  0  0
  191.3360  176.4150  147.2960 C   0  0  0  0  0  2  0  0  0  0  0  0
  193.6370  175.9190  146.7770 O   0  0  0  0  0  0  0  0  0  0  0  0
  195.3450  176.9320  143.7870 O   0  0  0  0  0  1  0  0  0  0  0  0
  189.4100  174.2060  145.4250 C   0  0  0  0  0  2  0  0  0  0  0  0
  191.0540  174.9360  147.0750 C   0  0  0  0  0  2  0  0  0  0  0  0
  191.4420  175.1970  144.5100 C   0  0  0  0  0  2  0  0  0  0  0  0
  1 54  1  1  0  0  0
  2  8  1  0  0  0  0
  3 17  1  0  0  0  0
  4 23  1  0  0  0  0
  4 20  1  0  0  0  0
  5  6  1  1  0  0  0
  7 10  1  1  0  0  0
  7 12  1  0  0  0  0
  8  5  1  0  0  0  0
  8 13  1  1  0  0  0
  9 19  1  0  0  0  0
 11  4  2  0  0  0  0
 12  1  1  0  0  0  0
 15 20  2  0  0  0  0
 15 22  1  0  0  0  0
 17  1  1  0  0  0  0
 18 50  1  6  0  0  0
 18  2  1  0  0  0  0
 19 35  1  1  0  0  0
 19 18  1  0  0  0  0
 21 14  1  1  0  0  0
 21  3  1  0  0  0  0
 21  5  1  0  0  0  0
 22  7  1  0  0  0  0
 23 16  1  1  0  0  0
 23  9  1  0  0  0  0
 24 15  1  0  0  0  0
 25 26  1  0  0  0  0
 26 28  1  0  0  0  0
 26 27  2  0  0  0  0
 27 24  2  0  0  0  0
 28 29  1  1  0  0  0
 29 30  2  0  0  0  0
 31 28  1  0  0  0  0
 32 31  1  0  0  0  0
 32 33  1  0  0  0  0
 34 32  2  0  0  0  0
 35 36  2  0  0  0  0
 36 37  1  0  0  0  0
 37 38  1  0  0  0  0
 38 40  1  0  0  0  0
 39 40  2  0  0  0  0
 40 41  1  0  0  0  0
 41 42  1  0  0  0  0
 42 45  1  0  0  0  0
 43 46  1  0  0  0  0
 44 48  1  0  0  0  0
 45 48  1  0  0  0  0
 45 43  2  0  0  0  0
 46 49  2  0  0  0  0
 47 49  1  0  0  0  0
 48 47  2  0  0  0  0
 51 50  1  0  0  0  0
 52 51  1  0  0  0  0
 53 52  1  0  0  0  0
 54 55  1  0  0  0  0
 55 56  1  0  0  0  0
 57 69  1  0  0  0  0
 59 66  1  6  0  0  0
 59 56  1  0  0  0  0
 59 63  1  0  0  0  0
 61 58  1  1  0  0  0
 61 57  1  0  0  0  0
 61 59  1  0  0  0  0
 62 68  1  0  0  0  0
 63 65  1  0  0  0  0
 64 60  1  0  0  0  0
 65 60  1  0  0  0  0
 67 62  2  0  0  0  0
 68 64  1  0  0  0  0
 69 62  1  0  0  0  0
M  END
>  <MODEL>
7

>  <REMARK>
 VINA RESULT:      -5.3      1.696      2.435
  Name = 
  18 active torsions:
  status: ('A' for Active; 'I' for Inactive)
    1  A    between atoms: C_1  and  C_25
    2  A    between atoms: C_1  and  N_64
    3  A    between atoms: C_2  and  C_8
    4  A    between atoms: C_2  and  C_20
    5  A    between atoms: O_3  and  C_12
    6  A    between atoms: O_3  and  C_20
    7  A    between atoms: C_6  and  C_62
    8  A    between atoms: C_7  and  C_14
    9  A    between atoms: C_7  and  C_16
   10  A    between atoms: O_10  and  C_18
   11  A    between atoms: O_10  and  C_60
   12  A    between atoms: C_11  and  C_13
   13  A    between atoms: C_11  and  C_44
   14  A    between atoms: C_15  and  C_60
   15  A    between atoms: C_16  and  C_61
   16  A    between atoms: C_33  and  C_52
   17  A    between atoms: C_44  and  C_58
   18  A    between atoms: C_56  and  C_60
                            x       y       z     vdW  Elec       q    Type
                         _______ _______ _______ _____ _____    ______ ____

>  <TORSDO>
F 18

$$$$
=
 OpenBabel11062418403D

 69 71  0  0  1  0  0  0  0  0999 V2000
  191.2710  169.9330  142.1540 C   0  0  1  0  0  3  0  0  0  0  0  0
  188.9090  174.3880  143.1780 C   0  0  0  0  0  2  0  0  0  0  0  0
  190.7340  171.9270  140.6820 C   0  0  0  0  0  2  0  0  0  0  0  0
  193.3410  173.4030  145.1450 C   0  0  0  0  0  0  0  0  0  0  0  0
  188.6470  173.4370  140.8600 C   0  0  1  0  0  3  0  0  0  0  0  0
  188.0830  172.2470  141.3410 O   0  0  0  0  0  1  0  0  0  0  0  0
  193.2690  169.6830  143.0840 C   0  0  2  0  0  3  0  0  0  0  0  0
  188.3200  174.6040  141.7870 C   0  0  1  0  0  3  0  0  0  0  0  0
  190.9900  174.1840  145.2000 C   0  0  0  0  0  2  0  0  0  0  0  0
  193.6120  168.3320  143.1850 O   0  0  0  0  0  1  0  0  0  0  0  0
  194.0900  173.5680  146.1430 O   0  0  0  0  0  0  0  0  0  0  0  0
  192.6390  169.9220  141.8580 O   0  0  0  0  0  0  0  0  0  0  0  0
  186.8240  174.8500  141.8680 C   0  0  0  0  0  1  0  0  0  0  0  0
  190.4990  173.9420  139.4600 F   0  0  0  0  0  0  0  0  0  0  0  0
  194.4790  171.6970  143.8580 C   0  0  0  0  0  0  0  0  0  0  0  0
  192.4480  174.6380  143.3540 O   0  0  0  0  0  1  0  0  0  0  0  0
  190.7280  171.3600  142.1010 C   0  0  0  0  0  2  0  0  0  0  0  0
  189.3990  175.6880  143.8270 C   0  0  1  0  0  3  0  0  0  0  0  0
  190.1150  175.4430  145.1640 C   0  0  1  0  0  3  0  0  0  0  0  0
  193.3950  172.1810  144.3960 N   0  0  0  0  0  0  0  0  0  0  0  0
  190.1710  173.3440  140.6590 C   0  0  2  0  0  3  0  0  0  0  0  0
  194.4440  170.4730  143.1830 O   0  0  0  0  0  0  0  0  0  0  0  0
  192.4060  174.4920  144.7420 C   0  0  2  0  0  3  0  0  0  0  0  0
  195.7510  172.4370  143.9050 C   0  0  0  0  0  3  0  0  0  0  0  0
  197.7080  174.0340  141.4580 O   0  0  0  0  0  1  0  0  0  0  0  0
  196.4230  174.0680  141.9810 C   0  0  0  0  0  0  0  0  0  0  0  0
  196.1000  173.2450  142.9410 C   0  0  0  0  0  0  0  0  0  0  0  0
  195.4050  175.0620  141.4850 C   0  0  2  0  0  3  0  0  0  0  0  0
  195.1240  174.9620  140.0100 C   0  0  0  0  0  3  0  0  0  0  0  0
  193.9990  175.1190  139.5610 O   0  0  0  0  0  0  0  0  0  0  0  0
  195.6590  176.4020  141.9130 O   0  0  0  0  0  0  0  0  0  0  0  0
  196.3480  176.7560  143.0800 C   0  0  0  0  0  0  0  0  0  0  0  0
  197.5880  176.9710  143.0270 O   0  0  0  0  0  0  0  0  0  0  0  0
  195.6870  176.8800  144.2960 O   0  0  0  0  0  1  0  0  0  0  0  0
  189.1580  175.4420  146.3130 C   0  0  0  0  0  3  0  0  0  0  0  0
  188.1780  176.3440  146.3670 C   0  0  0  0  0  3  0  0  0  0  0  0
  187.2450  176.4210  147.5350 C   0  0  0  0  0  2  0  0  0  0  0  0
  185.7870  176.3930  147.0780 C   0  0  0  0  0  2  0  0  0  0  0  0
  185.9330  178.7490  146.7510 O   0  0  0  0  0  0  0  0  0  0  0  0
  185.4110  177.6630  146.3840 C   0  0  0  0  0  0  0  0  0  0  0  0
  184.4990  177.6340  145.2880 N   0  0  0  0  0  2  0  0  0  0  0  0
  184.2760  178.8010  144.4520 C   0  0  0  0  0  2  0  0  0  0  0  0
  183.9580  178.2500  142.0400 C   0  0  0  0  0  3  0  0  0  0  0  0
  187.0720  178.9160  143.8610 F   0  0  0  0  0  0  0  0  0  0  0  0
  184.8270  178.5630  143.0900 C   0  0  0  0  0  0  0  0  0  0  0  0
  184.4600  178.0120  140.7590 C   0  0  0  0  0  3  0  0  0  0  0  0
  186.7080  178.3870  141.5710 C   0  0  0  0  0  3  0  0  0  0  0  0
  186.2100  178.6200  142.8580 C   0  0  0  0  0  0  0  0  0  0  0  0
  185.8350  178.0820  140.5240 C   0  0  0  0  0  3  0  0  0  0  0  0
  190.2860  176.5170  142.9090 C   0  0  0  0  0  2  0  0  0  0  0  0
  190.1050  177.9890  143.2150 C   0  0  0  0  0  2  0  0  0  0  0  0
  191.4510  178.6290  143.4920 C   0  0  0  0  0  2  0  0  0  0  0  0
  192.5480  177.6700  143.0810 C   0  0  0  0  0  1  0  0  0  0  0  0
  190.5080  169.0200  141.1970 C   0  0  0  0  0  2  0  0  0  0  0  0
  191.3380  168.6750  139.9710 C   0  0  0  0  0  2  0  0  0  0  0  0
  191.7570  169.8510  139.3160 O   0  0  0  0  0  0  0  0  0  0  0  0
  191.5880  171.8690  137.1180 O   0  0  0  0  0  0  0  0  0  0  0  0
  190.8950  170.0050  135.8110 O   0  0  0  0  0  1  0  0  0  0  0  0
  192.0230  169.5630  137.9520 C   0  0  1  0  0  0  0  0  0  0  0  0
  195.2960  171.0870  137.7700 C   0  0  0  0  0  2  0  0  0  0  0  0
  191.1610  170.5130  137.0960 C   0  0  1  0  0  3  0  0  0  0  0  0
  193.1710  173.3540  136.1050 C   0  0  0  0  0  0  0  0  0  0  0  0
  193.5170  169.7390  137.6360 C   0  0  0  0  0  2  0  0  0  0  0  0
  195.2320  172.0920  136.6260 C   0  0  0  0  0  2  0  0  0  0  0  0
  194.0250  170.8570  138.3080 O   0  0  0  0  0  0  0  0  0  0  0  0
  191.6510  168.2450  137.6480 O   0  0  0  0  0  1  0  0  0  0  0  0
  193.0010  174.4210  135.3280 C   0  0  0  0  0  2  0  0  0  0  0  0
  194.3680  173.2860  137.0020 C   0  0  0  0  0  2  0  0  0  0  0  0
  192.2730  172.1700  135.9240 C   0  0  0  0  0  2  0  0  0  0  0  0
  1 54  1  6  0  0  0
  2 18  1  0  0  0  0
  3 17  1  0  0  0  0
  4 11  2  0  0  0  0
  5  6  1  1  0  0  0
  5  8  1  0  0  0  0
  7 22  1  0  0  0  0
  7 10  1  6  0  0  0
  8 13  1  1  0  0  0
  8  2  1  0  0  0  0
 12  1  1  0  0  0  0
 12  7  1  0  0  0  0
 15 24  1  0  0  0  0
 15 20  2  0  0  0  0
 17  1  1  0  0  0  0
 18 50  1  6  0  0  0
 18 19  1  0  0  0  0
 19  9  1  0  0  0  0
 19 35  1  1  0  0  0
 20  4  1  0  0  0  0
 21 14  1  6  0  0  0
 21  3  1  0  0  0  0
 21  5  1  0  0  0  0
 22 15  1  0  0  0  0
 23 16  1  6  0  0  0
 23  4  1  0  0  0  0
 23  9  1  0  0  0  0
 25 26  1  0  0  0  0
 26 27  2  0  0  0  0
 27 24  2  0  0  0  0
 28 29  1  6  0  0  0
 28 31  1  0  0  0  0
 28 26  1  0  0  0  0
 30 29  2  0  0  0  0
 31 32  1  0  0  0  0
 32 34  1  0  0  0  0
 33 32  2  0  0  0  0
 35 36  2  0  0  0  0
 36 37  1  0  0  0  0
 38 37  1  0  0  0  0
 40 39  2  0  0  0  0
 40 38  1  0  0  0  0
 41 40  1  0  0  0  0
 42 41  1  0  0  0  0
 43 45  1  0  0  0  0
 45 42  1  0  0  0  0
 46 43  2  0  0  0  0
 47 48  1  0  0  0  0
 48 45  2  0  0  0  0
 48 44  1  0  0  0  0
 49 46  1  0  0  0  0
 49 47  2  0  0  0  0
 50 51  1  0  0  0  0
 51 52  1  0  0  0  0
 53 52  1  0  0  0  0
 55 54  1  0  0  0  0
 56 55  1  0  0  0  0
 59 66  1  6  0  0  0
 59 56  1  0  0  0  0
 60 65  1  0  0  0  0
 61 58  1  6  0  0  0
 61 57  1  0  0  0  0
 61 59  1  0  0  0  0
 62 68  1  0  0  0  0
 63 59  1  0  0  0  0
 63 65  1  0  0  0  0
 64 68  1  0  0  0  0
 64 60  1  0  0  0  0
 67 62  2  0  0  0  0
 69 62  1  0  0  0  0
 69 57  1  0  0  0  0
M  END
>  <MODEL>
8

>  <REMARK>
 VINA RESULT:      -5.1      2.346      7.281
  Name = 
  18 active torsions:
  status: ('A' for Active; 'I' for Inactive)
    1  A    between atoms: C_1  and  C_25
    2  A    between atoms: C_1  and  N_64
    3  A    between atoms: C_2  and  C_8
    4  A    between atoms: C_2  and  C_20
    5  A    between atoms: O_3  and  C_12
    6  A    between atoms: O_3  and  C_20
    7  A    between atoms: C_6  and  C_62
    8  A    between atoms: C_7  and  C_14
    9  A    between atoms: C_7  and  C_16
   10  A    between atoms: O_10  and  C_18
   11  A    between atoms: O_10  and  C_60
   12  A    between atoms: C_11  and  C_13
   13  A    between atoms: C_11  and  C_44
   14  A    between atoms: C_15  and  C_60
   15  A    between atoms: C_16  and  C_61
   16  A    between atoms: C_33  and  C_52
   17  A    between atoms: C_44  and  C_58
   18  A    between atoms: C_56  and  C_60
                            x       y       z     vdW  Elec       q    Type
                         _______ _______ _______ _____ _____    ______ ____

>  <TORSDO>
F 18

$$$$
=
 OpenBabel11062418403D

 69 71  0  0  1  0  0  0  0  0999 V2000
  191.0560  175.1840  145.5750 C   0  0  1  0  0  3  0  0  0  0  0  0
  191.2720  173.5280  140.7090 C   0  0  0  0  0  2  0  0  0  0  0  0
  190.6660  172.8930  144.5620 C   0  0  0  0  0  2  0  0  0  0  0  0
  195.3940  174.9520  143.0460 C   0  0  0  0  0  0  0  0  0  0  0  0
  189.6260  172.4030  142.2500 C   0  0  1  0  0  3  0  0  0  0  0  0
  188.9620  173.6070  142.5250 O   0  0  0  0  0  1  0  0  0  0  0  0
  193.0050  175.7370  146.4760 C   0  0  2  0  0  3  0  0  0  0  0  0
  190.2260  172.4250  140.8470 C   0  0  1  0  0  3  0  0  0  0  0  0
  193.8170  174.8690  141.1370 C   0  0  0  0  0  2  0  0  0  0  0  0
  192.8320  176.6110  147.5530 O   0  0  0  0  0  1  0  0  0  0  0  0
  196.5240  175.4910  142.9160 O   0  0  0  0  0  0  0  0  0  0  0  0
  192.0120  174.7530  146.5010 O   0  0  0  0  0  0  0  0  0  0  0  0
  189.1520  172.5660  139.7830 C   0  0  0  0  0  1  0  0  0  0  0  0
  190.6440  170.7300  143.5960 F   0  0  0  0  0  0  0  0  0  0  0  0
  195.0790  174.8690  145.4450 C   0  0  0  0  0  0  0  0  0  0  0  0
  194.2900  172.9510  142.4910 O   0  0  0  0  0  1  0  0  0  0  0  0
  191.1180  174.3300  144.3100 C   0  0  0  0  0  2  0  0  0  0  0  0
  192.4460  173.1260  139.8090 C   0  0  1  0  0  3  0  0  0  0  0  0
  193.5590  174.1860  139.7880 C   0  0  1  0  0  3  0  0  0  0  0  0
  194.6380  175.1430  144.2500 N   0  0  0  0  0  0  0  0  0  0  0  0
  190.7220  172.0710  143.2780 C   0  0  2  0  0  3  0  0  0  0  0  0
  194.2860  175.1310  146.5660 O   0  0  0  0  0  0  0  0  0  0  0  0
  194.8530  174.1060  141.9450 C   0  0  2  0  0  3  0  0  0  0  0  0
  196.3950  174.2400  145.6480 C   0  0  0  0  0  3  0  0  0  0  0  0
  197.4210  170.9350  146.2780 O   0  0  0  0  0  1  0  0  0  0  0  0
  196.7110  171.6670  145.3360 C   0  0  0  0  0  0  0  0  0  0  0  0
  196.5590  172.9530  145.5060 C   0  0  0  0  0  0  0  0  0  0  0  0
  196.1440  171.0120  144.1030 C   0  0  2  0  0  3  0  0  0  0  0  0
  195.0710  169.9980  144.3900 C   0  0  0  0  0  3  0  0  0  0  0  0
  193.9500  170.3340  144.7360 O   0  0  0  0  0  0  0  0  0  0  0  0
  197.1450  170.5250  143.2050 O   0  0  0  0  0  0  0  0  0  0  0  0
  197.6470  171.2270  142.1020 C   0  0  0  0  0  0  0  0  0  0  0  0
  197.8880  172.4590  142.2090 O   0  0  0  0  0  1  0  0  0  0  0  0
  197.8880  170.5880  140.8920 O   0  0  0  0  0  0  0  0  0  0  0  0
  193.3280  175.2100  138.7230 C   0  0  0  0  0  3  0  0  0  0  0  0
  193.7830  175.0050  137.4870 C   0  0  0  0  0  3  0  0  0  0  0  0
  193.6340  176.0370  136.4140 C   0  0  0  0  0  2  0  0  0  0  0  0
  192.9040  175.4660  135.1980 C   0  0  0  0  0  2  0  0  0  0  0  0
  191.9060  173.3340  135.5630 O   0  0  0  0  0  0  0  0  0  0  0  0
  192.9300  173.9720  135.2010 C   0  0  0  0  0  0  0  0  0  0  0  0
  194.0940  173.2780  134.7550 N   0  0  0  0  0  2  0  0  0  0  0  0
  194.0860  171.8420  134.5370 C   0  0  0  0  0  2  0  0  0  0  0  0
  196.4540  171.9260  135.3170 C   0  0  0  0  0  3  0  0  0  0  0  0
  194.0110  169.2110  135.6560 F   0  0  0  0  0  0  0  0  0  0  0  0
  195.2520  171.2180  135.2210 C   0  0  0  0  0  0  0  0  0  0  0  0
  197.5610  171.3500  135.9450 C   0  0  0  0  0  3  0  0  0  0  0  0
  196.2740  169.3480  136.3760 C   0  0  0  0  0  3  0  0  0  0  0  0
  195.1640  169.9180  135.7420 C   0  0  0  0  0  0  0  0  0  0  0  0
  197.4700  170.0610  136.4760 C   0  0  0  0  0  3  0  0  0  0  0  0
  193.0340  171.7670  140.1630 C   0  0  0  0  0  2  0  0  0  0  0  0
  193.8600  171.2500  139.0040 C   0  0  0  0  0  2  0  0  0  0  0  0
  194.1810  169.7820  139.2120 C   0  0  0  0  0  2  0  0  0  0  0  0
  193.1400  169.1750  140.1280 C   0  0  0  0  0  1  0  0  0  0  0  0
  189.6590  175.1510  146.1920 C   0  0  0  0  0  2  0  0  0  0  0  0
  188.8700  176.4080  145.8620 C   0  0  0  0  0  2  0  0  0  0  0  0
  188.2970  176.3040  144.5780 O   0  0  0  0  0  0  0  0  0  0  0  0
  186.7060  177.0640  142.1650 O   0  0  0  0  0  0  0  0  0  0  0  0
  188.6760  178.2540  141.5610 O   0  0  0  0  0  1  0  0  0  0  0  0
  188.4240  177.5450  143.9030 C   0  0  1  0  0  0  0  0  0  0  0  0
  185.4080  179.0890  145.1650 C   0  0  0  0  0  2  0  0  0  0  0  0
  188.0840  177.3080  142.4180 C   0  0  1  0  0  3  0  0  0  0  0  0
  184.6270  178.2090  141.8420 C   0  0  0  0  0  0  0  0  0  0  0  0
  187.4930  178.6020  144.5190 C   0  0  0  0  0  2  0  0  0  0  0  0
  184.6060  179.5140  143.9420 C   0  0  0  0  0  2  0  0  0  0  0  0
  186.2640  178.0250  144.8600 O   0  0  0  0  0  0  0  0  0  0  0  0
  189.7450  178.0120  143.9780 O   0  0  0  0  0  1  0  0  0  0  0  0
  183.8220  178.2850  140.7850 C   0  0  0  0  0  2  0  0  0  0  0  0
  184.0390  178.3030  143.2170 C   0  0  0  0  0  2  0  0  0  0  0  0
  186.1090  178.2230  141.6320 C   0  0  0  0  0  2  0  0  0  0  0  0
  1 54  1  1  0  0  0
  1 12  1  0  0  0  0
  2  8  1  0  0  0  0
  4 20  1  0  0  0  0
  5  6  1  1  0  0  0
  5 21  1  0  0  0  0
  7 12  1  0  0  0  0
  7 22  1  0  0  0  0
  7 10  1  1  0  0  0
  8 13  1  6  0  0  0
  8  5  1  0  0  0  0
  9 23  1  0  0  0  0
 11  4  2  0  0  0  0
 15 24  1  0  0  0  0
 15 22  1  0  0  0  0
 17  3  1  0  0  0  0
 17  1  1  0  0  0  0
 18 50  1  1  0  0  0
 18  2  1  0  0  0  0
 19 35  1  6  0  0  0
 19 18  1  0  0  0  0
 19  9  1  0  0  0  0
 20 15  2  0  0  0  0
 21 14  1  1  0  0  0
 21  3  1  0  0  0  0
 23 16  1  1  0  0  0
 23  4  1  0  0  0  0
 26 27  2  0  0  0  0
 26 25  1  0  0  0  0
 27 24  2  0  0  0  0
 28 29  1  1  0  0  0
 28 26  1  0  0  0  0
 29 30  2  0  0  0  0
 31 28  1  0  0  0  0
 32 33  1  0  0  0  0
 32 31  1  0  0  0  0
 34 32  2  0  0  0  0
 36 35  2  0  0  0  0
 37 36  1  0  0  0  0
 38 40  1  0  0  0  0
 38 37  1  0  0  0  0
 40 39  2  0  0  0  0
 41 40  1  0  0  0  0
 42 41  1  0  0  0  0
 42 45  1  0  0  0  0
 43 46  1  0  0  0  0
 44 48  1  0  0  0  0
 45 43  2  0  0  0  0
 45 48  1  0  0  0  0
 46 49  2  0  0  0  0
 47 49  1  0  0  0  0
 48 47  2  0  0  0  0
 51 52  1  0  0  0  0
 51 50  1  0  0  0  0
 52 53  1  0  0  0  0
 55 54  1  0  0  0  0
 56 55  1  0  0  0  0
 57 61  1  0  0  0  0
 59 66  1  1  0  0  0
 59 63  1  0  0  0  0
 59 56  1  0  0  0  0
 61 58  1  6  0  0  0
 61 59  1  0  0  0  0
 62 68  1  0  0  0  0
 63 65  1  0  0  0  0
 64 60  1  0  0  0  0
 65 60  1  0  0  0  0
 67 62  2  0  0  0  0
 68 64  1  0  0  0  0
 69 62  1  0  0  0  0
 69 57  1  0  0  0  0
M  END
>  <MODEL>
9

>  <REMARK>
 VINA RESULT:      -4.9      2.769      8.028
  Name = 
  18 active torsions:
  status: ('A' for Active; 'I' for Inactive)
    1  A    between atoms: C_1  and  C_25
    2  A    between atoms: C_1  and  N_64
    3  A    between atoms: C_2  and  C_8
    4  A    between atoms: C_2  and  C_20
    5  A    between atoms: O_3  and  C_12
    6  A    between atoms: O_3  and  C_20
    7  A    between atoms: C_6  and  C_62
    8  A    between atoms: C_7  and  C_14
    9  A    between atoms: C_7  and  C_16
   10  A    between atoms: O_10  and  C_18
   11  A    between atoms: O_10  and  C_60
   12  A    between atoms: C_11  and  C_13
   13  A    between atoms: C_11  and  C_44
   14  A    between atoms: C_15  and  C_60
   15  A    between atoms: C_16  and  C_61
   16  A    between atoms: C_33  and  C_52
   17  A    between atoms: C_44  and  C_58
   18  A    between atoms: C_56  and  C_60
                            x       y       z     vdW  Elec       q    Type
                         _______ _______ _______ _____ _____    ______ ____

>  <TORSDO>
F 18

$$$$
