=
 OpenBabel11062423083D

 28 32  0  0  1  0  0  0  0  0999 V2000
  188.4690  174.3500  141.0980 C   0  0  0  0  0  3  0  0  0  0  0  0
  191.0120  175.1610  146.7070 C   0  0  1  0  0  3  0  0  0  0  0  0
  188.2060  176.1000  144.4110 C   0  0  0  0  0  0  0  0  0  0  0  0
  189.2860  175.5410  145.1210 C   0  0  0  0  0  0  0  0  0  0  0  0
  189.9990  171.9680  142.1360 C   0  0  0  0  0  2  0  0  0  0  0  0
  194.3560  176.5980  146.5180 O   0  0  0  0  0  0  0  0  0  0  0  0
  189.5850  172.1900  140.7980 O   0  0  0  0  0  0  0  0  0  0  0  0
  192.5920  173.9630  145.0020 C   0  0  1  0  0  3  0  0  0  0  0  0
  193.6580  174.4160  145.9940 C   0  0  0  0  0  2  0  0  0  0  0  0
  193.4150  175.8330  146.3900 C   0  0  0  0  0  0  0  0  0  0  0  0
  188.8190  174.7010  142.4930 C   0  0  0  0  0  0  0  0  0  0  0  0
  192.8380  172.4930  144.7260 C   0  0  0  0  0  1  0  0  0  0  0  0
  188.8200  173.2810  140.3700 C   0  0  0  0  0  3  0  0  0  0  0  0
  191.1540  174.1480  145.5390 C   0  0  2  0  0  3  0  0  0  0  0  0
  189.9090  174.1620  143.2210 C   0  0  0  0  0  0  0  0  0  0  0  0
  190.1380  174.6210  144.5360 C   0  0  0  0  0  0  0  0  0  0  0  0
  192.0230  176.3140  146.6450 C   0  0  0  0  0  2  0  0  0  0  0  0
  187.9990  175.6640  143.0950 C   0  0  0  0  0  3  0  0  0  0  0  0
  189.6250  175.7720  146.5490 C   0  0  0  0  0  2  0  0  0  0  0  0
  190.8130  173.1460  142.6120 C   0  0  0  0  0  2  0  0  0  0  0  0
  185.4870  177.9030  148.1550 O   0  0  0  0  0  1  0  0  0  0  0  0
  186.3060  178.1590  147.0570 C   0  0  2  0  0  3  0  0  0  0  0  0
  186.8920  178.1860  144.2810 C   0  0  0  0  0  3  0  0  0  0  0  0
  185.9540  179.1760  144.8430 C   0  0  0  0  0  0  0  0  0  0  0  0
  185.3880  180.1380  144.0180 O   0  0  0  0  0  1  0  0  0  0  0  0
  187.2770  177.1100  144.9860 C   0  0  0  0  0  0  0  0  0  0  0  0
  185.6380  179.1440  146.1400 C   0  0  0  0  0  3  0  0  0  0  0  0
  186.6240  176.8500  146.3270 C   0  0  0  0  0  2  0  0  0  0  0  0
  1 11  1  0  0  0  0
  2 19  1  6  0  0  0
  3 26  1  0  0  0  0
  3  4  1  0  0  0  0
  4 19  1  0  0  0  0
  5 20  1  0  0  0  0
  7  5  1  0  0  0  0
  8 12  1  1  0  0  0
  8 14  1  0  0  0  0
  8  9  1  0  0  0  0
  9 10  1  0  0  0  0
 10  6  2  0  0  0  0
 10 17  1  0  0  0  0
 11 18  1  0  0  0  0
 11 15  2  0  0  0  0
 13  7  1  0  0  0  0
 13  1  2  0  0  0  0
 14 16  1  6  0  0  0
 14  2  1  0  0  0  0
 15 16  1  0  0  0  0
 16  4  2  0  0  0  0
 17  2  1  0  0  0  0
 18  3  2  0  0  0  0
 20 15  1  0  0  0  0
 22 21  1  1  0  0  0
 23 24  1  0  0  0  0
 23 26  2  0  0  0  0
 24 27  2  0  0  0  0
 25 24  1  0  0  0  0
 26 28  1  0  0  0  0
 27 22  1  0  0  0  0
 28 22  1  0  0  0  0
M  END
>  <MODEL>
1

>  <REMARK>
 VINA RESULT:      -9.1      0.000      0.000
  Name = 
  1 active torsions:
  status: ('A' for Active; 'I' for Inactive)
    1  A    between atoms: C_4  and  C_25
                            x       y       z     vdW  Elec       q    Type
                         _______ _______ _______ _____ _____    ______ ____

>  <TORSDO>
F 1

$$$$
=
 OpenBabel11062423083D

 28 32  0  0  1  0  0  0  0  0999 V2000
  188.5220  174.0910  141.3790 C   0  0  0  0  0  3  0  0  0  0  0  0
  191.2860  175.3330  146.8000 C   0  0  1  0  0  3  0  0  0  0  0  0
  188.3440  176.0300  144.5900 C   0  0  0  0  0  0  0  0  0  0  0  0
  189.4760  175.5540  145.2790 C   0  0  0  0  0  0  0  0  0  0  0  0
  190.1880  171.8320  142.4820 C   0  0  0  0  0  2  0  0  0  0  0  0
  194.5600  176.8730  146.3670 O   0  0  0  0  0  0  0  0  0  0  0  0
  189.7050  171.9570  141.1540 O   0  0  0  0  0  0  0  0  0  0  0  0
  192.8310  174.0900  145.0960 C   0  0  1  0  0  3  0  0  0  0  0  0
  193.9230  174.6400  146.0080 C   0  0  0  0  0  2  0  0  0  0  0  0
  193.6450  176.0690  146.3300 C   0  0  0  0  0  0  0  0  0  0  0  0
  188.9210  174.5380  142.7320 C   0  0  0  0  0  0  0  0  0  0  0  0
  193.1200  172.6140  144.8970 C   0  0  0  0  0  1  0  0  0  0  0  0
  188.8800  172.9920  140.6990 C   0  0  0  0  0  3  0  0  0  0  0  0
  191.4120  174.2560  145.6900 C   0  0  2  0  0  3  0  0  0  0  0  0
  190.0640  174.0840  143.4370 C   0  0  0  0  0  0  0  0  0  0  0  0
  190.3350  174.6300  144.7100 C   0  0  0  0  0  0  0  0  0  0  0  0
  192.2480  176.5150  146.6220 C   0  0  0  0  0  2  0  0  0  0  0  0
  188.0940  175.5080  143.3140 C   0  0  0  0  0  3  0  0  0  0  0  0
  189.8710  175.8840  146.6740 C   0  0  0  0  0  2  0  0  0  0  0  0
  190.9770  173.0650  142.8470 C   0  0  0  0  0  2  0  0  0  0  0  0
  185.5730  180.1280  144.1540 O   0  0  0  0  0  1  0  0  0  0  0  0
  185.7150  178.8460  144.6820 C   0  0  2  0  0  3  0  0  0  0  0  0
  186.9150  176.9260  146.3930 C   0  0  0  0  0  3  0  0  0  0  0  0
  186.0010  177.9390  146.9530 C   0  0  0  0  0  0  0  0  0  0  0  0
  185.7050  177.9280  148.3090 O   0  0  0  0  0  1  0  0  0  0  0  0
  187.4040  177.0400  145.1480 C   0  0  0  0  0  0  0  0  0  0  0  0
  185.4660  178.8740  146.1630 C   0  0  0  0  0  3  0  0  0  0  0  0
  187.1130  178.3040  144.3660 C   0  0  0  0  0  2  0  0  0  0  0  0
  1 11  1  0  0  0  0
  2 17  1  6  0  0  0
  3 26  1  0  0  0  0
  3  4  1  0  0  0  0
  4 19  1  0  0  0  0
  5 20  1  0  0  0  0
  7  5  1  0  0  0  0
  8 12  1  1  0  0  0
  8 14  1  0  0  0  0
  8  9  1  0  0  0  0
  9 10  1  0  0  0  0
 10  6  2  0  0  0  0
 10 17  1  0  0  0  0
 11 18  1  0  0  0  0
 11 15  2  0  0  0  0
 13  7  1  0  0  0  0
 13  1  2  0  0  0  0
 14 16  1  6  0  0  0
 14  2  1  0  0  0  0
 15 16  1  0  0  0  0
 16  4  2  0  0  0  0
 18  3  2  0  0  0  0
 19  2  1  0  0  0  0
 20 15  1  0  0  0  0
 22 21  1  1  0  0  0
 22 27  1  0  0  0  0
 23 24  1  0  0  0  0
 24 25  1  0  0  0  0
 26 23  2  0  0  0  0
 27 24  2  0  0  0  0
 28 22  1  0  0  0  0
 28 26  1  0  0  0  0
M  END
>  <MODEL>
2

>  <REMARK>
 VINA RESULT:      -8.9      0.327      1.597
  Name = 
  1 active torsions:
  status: ('A' for Active; 'I' for Inactive)
    1  A    between atoms: C_4  and  C_25
                            x       y       z     vdW  Elec       q    Type
                         _______ _______ _______ _____ _____    ______ ____

>  <TORSDO>
F 1

$$$$
=
 OpenBabel11062423083D

 28 32  0  0  1  0  0  0  0  0999 V2000
  189.4020  172.9650  142.1770 C   0  0  0  0  0  3  0  0  0  0  0  0
  192.1950  175.8940  146.8880 C   0  0  1  0  0  3  0  0  0  0  0  0
  189.0730  175.5920  144.8410 C   0  0  0  0  0  0  0  0  0  0  0  0
  190.3000  175.4690  145.5210 C   0  0  0  0  0  0  0  0  0  0  0  0
  191.4620  171.3140  143.6330 C   0  0  0  0  0  2  0  0  0  0  0  0
  195.1530  177.7340  145.8180 O   0  0  0  0  0  0  0  0  0  0  0  0
  190.9000  171.0360  142.3610 O   0  0  0  0  0  0  0  0  0  0  0  0
  193.8330  174.5040  145.3980 C   0  0  1  0  0  3  0  0  0  0  0  0
  194.8670  175.4140  146.0540 C   0  0  0  0  0  2  0  0  0  0  0  0
  194.3790  176.8230  146.0520 C   0  0  0  0  0  0  0  0  0  0  0  0
  189.7900  173.7860  143.3450 C   0  0  0  0  0  0  0  0  0  0  0  0
  194.3460  173.0830  145.5290 C   0  0  0  0  0  1  0  0  0  0  0  0
  189.8970  171.7960  141.7480 C   0  0  0  0  0  3  0  0  0  0  0  0
  192.4380  174.6070  146.0570 C   0  0  2  0  0  3  0  0  0  0  0  0
  191.0250  173.6900  144.0360 C   0  0  0  0  0  0  0  0  0  0  0  0
  191.2670  174.5670  145.1140 C   0  0  0  0  0  0  0  0  0  0  0  0
  192.9440  177.1220  146.3520 C   0  0  0  0  0  2  0  0  0  0  0  0
  188.8480  174.7400  143.7510 C   0  0  0  0  0  3  0  0  0  0  0  0
  190.7060  176.1870  146.7580 C   0  0  0  0  0  2  0  0  0  0  0  0
  192.0600  172.7000  143.6260 C   0  0  0  0  0  2  0  0  0  0  0  0
  186.0750  179.4160  143.8150 O   0  0  0  0  0  1  0  0  0  0  0  0
  186.2540  178.1910  144.4550 C   0  0  2  0  0  3  0  0  0  0  0  0
  187.4090  176.5010  146.4210 C   0  0  0  0  0  3  0  0  0  0  0  0
  186.3720  177.4770  146.8080 C   0  0  0  0  0  0  0  0  0  0  0  0
  185.9410  177.5410  148.1260 O   0  0  0  0  0  1  0  0  0  0  0  0
  188.0120  176.5630  145.2230 C   0  0  0  0  0  0  0  0  0  0  0  0
  185.8550  178.3060  145.8990 C   0  0  0  0  0  3  0  0  0  0  0  0
  187.7120  177.7400  144.3190 C   0  0  0  0  0  2  0  0  0  0  0  0
  1 11  1  0  0  0  0
  2 17  1  6  0  0  0
  3 26  1  0  0  0  0
  3  4  1  0  0  0  0
  4 19  1  0  0  0  0
  6 10  2  0  0  0  0
  7  5  1  0  0  0  0
  8 12  1  1  0  0  0
  8  9  1  0  0  0  0
  8 14  1  0  0  0  0
 10  9  1  0  0  0  0
 10 17  1  0  0  0  0
 11 18  1  0  0  0  0
 11 15  2  0  0  0  0
 13  1  2  0  0  0  0
 13  7  1  0  0  0  0
 14 16  1  6  0  0  0
 14  2  1  0  0  0  0
 15 16  1  0  0  0  0
 16  4  2  0  0  0  0
 18  3  2  0  0  0  0
 19  2  1  0  0  0  0
 20  5  1  0  0  0  0
 20 15  1  0  0  0  0
 22 21  1  1  0  0  0
 22 27  1  0  0  0  0
 23 24  1  0  0  0  0
 24 25  1  0  0  0  0
 26 23  2  0  0  0  0
 27 24  2  0  0  0  0
 28 22  1  0  0  0  0
 28 26  1  0  0  0  0
M  END
>  <MODEL>
3

>  <REMARK>
 VINA RESULT:      -8.4      1.178      2.127
  Name = 
  1 active torsions:
  status: ('A' for Active; 'I' for Inactive)
    1  A    between atoms: C_4  and  C_25
                            x       y       z     vdW  Elec       q    Type
                         _______ _______ _______ _____ _____    ______ ____

>  <TORSDO>
F 1

$$$$
=
 OpenBabel11062423083D

 28 32  0  0  1  0  0  0  0  0999 V2000
  189.5660  174.1420  140.8470 C   0  0  0  0  0  3  0  0  0  0  0  0
  188.5190  177.7910  145.7630 C   0  0  1  0  0  3  0  0  0  0  0  0
  191.0300  175.6970  143.9370 C   0  0  0  0  0  0  0  0  0  0  0  0
  189.9600  176.4870  144.3980 C   0  0  0  0  0  0  0  0  0  0  0  0
  187.4650  176.2610  140.4100 C   0  0  0  0  0  2  0  0  0  0  0  0
  185.9710  176.4290  147.9830 O   0  0  0  0  0  0  0  0  0  0  0  0
  187.6930  175.1160  139.6030 O   0  0  0  0  0  0  0  0  0  0  0  0
  186.3380  177.0280  144.5400 C   0  0  1  0  0  3  0  0  0  0  0  0
  185.7050  177.4230  145.8710 C   0  0  0  0  0  2  0  0  0  0  0  0
  186.5220  176.8900  146.9990 C   0  0  0  0  0  0  0  0  0  0  0  0
  189.6190  174.9870  142.0610 C   0  0  0  0  0  0  0  0  0  0  0  0
  185.5190  177.6870  143.4460 C   0  0  0  0  0  1  0  0  0  0  0  0
  188.7220  174.1900  139.8060 C   0  0  0  0  0  3  0  0  0  0  0  0
  187.8120  177.4810  144.4170 C   0  0  2  0  0  3  0  0  0  0  0  0
  188.5500  175.7780  142.5520 C   0  0  0  0  0  0  0  0  0  0  0  0
  188.7400  176.5060  143.7460 C   0  0  0  0  0  0  0  0  0  0  0  0
  188.0150  176.9360  146.9330 C   0  0  0  0  0  2  0  0  0  0  0  0
  190.8290  174.9520  142.7670 C   0  0  0  0  0  3  0  0  0  0  0  0
  189.9840  177.4330  145.5450 C   0  0  0  0  0  2  0  0  0  0  0  0
  187.2420  175.8320  141.8390 C   0  0  0  0  0  2  0  0  0  0  0  0
  194.9690  177.8360  146.0740 O   0  0  0  0  0  1  0  0  0  0  0  0
  194.0620  176.7790  146.0550 C   0  0  2  0  0  3  0  0  0  0  0  0
  192.9130  174.4430  144.9250 C   0  0  0  0  0  3  0  0  0  0  0  0
  194.2340  174.3690  145.5780 C   0  0  0  0  0  0  0  0  0  0  0  0
  194.8940  173.1520  145.6660 O   0  0  0  0  0  1  0  0  0  0  0  0
  192.3520  175.6230  144.6150 C   0  0  0  0  0  0  0  0  0  0  0  0
  194.8020  175.4710  146.0730 C   0  0  0  0  0  3  0  0  0  0  0  0
  193.1610  176.8870  144.8210 C   0  0  0  0  0  2  0  0  0  0  0  0
  1 11  1  0  0  0  0
  2 19  1  6  0  0  0
  2 17  1  0  0  0  0
  3  4  1  0  0  0  0
  3 26  1  0  0  0  0
  4 19  1  0  0  0  0
  5 20  1  0  0  0  0
  7 13  1  0  0  0  0
  7  5  1  0  0  0  0
  8 12  1  6  0  0  0
  8  9  1  0  0  0  0
  9 10  1  0  0  0  0
 10  6  2  0  0  0  0
 11 15  2  0  0  0  0
 11 18  1  0  0  0  0
 13  1  2  0  0  0  0
 14 16  1  1  0  0  0
 14  8  1  0  0  0  0
 14  2  1  0  0  0  0
 15 16  1  0  0  0  0
 16  4  2  0  0  0  0
 17 10  1  0  0  0  0
 18  3  2  0  0  0  0
 20 15  1  0  0  0  0
 22 27  1  0  0  0  0
 22 21  1  6  0  0  0
 23 24  1  0  0  0  0
 24 25  1  0  0  0  0
 24 27  2  0  0  0  0
 26 28  1  0  0  0  0
 26 23  2  0  0  0  0
 28 22  1  0  0  0  0
M  END
>  <MODEL>
4

>  <REMARK>
 VINA RESULT:      -8.4      1.933      6.241
  Name = 
  1 active torsions:
  status: ('A' for Active; 'I' for Inactive)
    1  A    between atoms: C_4  and  C_25
                            x       y       z     vdW  Elec       q    Type
                         _______ _______ _______ _____ _____    ______ ____

>  <TORSDO>
F 1

$$$$
=
 OpenBabel11062423083D

 28 32  0  0  1  0  0  0  0  0999 V2000
  192.0450  176.0750  145.0510 C   0  0  0  0  0  3  0  0  0  0  0  0
  185.9270  176.6790  144.1640 C   0  0  1  0  0  3  0  0  0  0  0  0
  189.1400  175.3330  142.7880 C   0  0  0  0  0  0  0  0  0  0  0  0
  188.0570  175.8420  143.5320 C   0  0  0  0  0  0  0  0  0  0  0  0
  190.4200  176.2290  147.5870 C   0  0  0  0  0  2  0  0  0  0  0  0
  184.9040  180.1660  143.8880 O   0  0  0  0  0  0  0  0  0  0  0  0
  191.8240  176.3980  147.4690 O   0  0  0  0  0  0  0  0  0  0  0  0
  186.8700  178.2200  146.0550 C   0  0  1  0  0  3  0  0  0  0  0  0
  185.5680  178.9730  145.8000 C   0  0  0  0  0  2  0  0  0  0  0  0
  185.3460  179.1210  144.3330 C   0  0  0  0  0  0  0  0  0  0  0  0
  190.6350  176.0300  144.6030 C   0  0  0  0  0  0  0  0  0  0  0  0
  186.9780  178.0150  147.5540 C   0  0  0  0  0  1  0  0  0  0  0  0
  192.5480  176.2550  146.2800 C   0  0  0  0  0  3  0  0  0  0  0  0
  186.9170  176.8450  145.3470 C   0  0  2  0  0  3  0  0  0  0  0  0
  189.5320  176.5490  145.3270 C   0  0  0  0  0  0  0  0  0  0  0  0
  188.2450  176.4630  144.7540 C   0  0  0  0  0  0  0  0  0  0  0  0
  185.6490  177.9860  143.4080 C   0  0  0  0  0  2  0  0  0  0  0  0
  190.4200  175.4470  143.3480 C   0  0  0  0  0  3  0  0  0  0  0  0
  186.6150  175.7350  143.1870 C   0  0  0  0  0  2  0  0  0  0  0  0
  189.7190  177.1900  146.6590 C   0  0  0  0  0  2  0  0  0  0  0  0
  190.0900  171.6380  139.6100 O   0  0  0  0  0  1  0  0  0  0  0  0
  189.1770  172.5650  140.1080 C   0  0  2  0  0  3  0  0  0  0  0  0
  188.1990  175.1990  140.5110 C   0  0  0  0  0  3  0  0  0  0  0  0
  188.0700  174.5620  139.1860 C   0  0  0  0  0  0  0  0  0  0  0  0
  187.4420  175.2400  138.1510 O   0  0  0  0  0  1  0  0  0  0  0  0
  188.9930  174.6800  141.4600 C   0  0  0  0  0  0  0  0  0  0  0  0
  188.5670  173.3400  138.9750 C   0  0  0  0  0  3  0  0  0  0  0  0
  189.8710  173.4980  141.1060 C   0  0  0  0  0  2  0  0  0  0  0  0
  1 13  2  0  0  0  0
  2 19  1  6  0  0  0
  2 14  1  0  0  0  0
  3 18  2  0  0  0  0
  3  4  1  0  0  0  0
  4 16  2  0  0  0  0
  6 10  2  0  0  0  0
  7  5  1  0  0  0  0
  8 12  1  1  0  0  0
  9  8  1  0  0  0  0
 10  9  1  0  0  0  0
 11  1  1  0  0  0  0
 11 15  2  0  0  0  0
 13  7  1  0  0  0  0
 14 16  1  6  0  0  0
 14  8  1  0  0  0  0
 15 20  1  0  0  0  0
 16 15  1  0  0  0  0
 17  2  1  0  0  0  0
 17 10  1  0  0  0  0
 18 11  1  0  0  0  0
 19  4  1  0  0  0  0
 20  5  1  0  0  0  0
 22 21  1  6  0  0  0
 22 28  1  0  0  0  0
 23 26  2  0  0  0  0
 24 23  1  0  0  0  0
 25 24  1  0  0  0  0
 26  3  1  0  0  0  0
 27 24  2  0  0  0  0
 27 22  1  0  0  0  0
 28 26  1  0  0  0  0
M  END
>  <MODEL>
5

>  <REMARK>
 VINA RESULT:      -8.4      1.752      6.928
  Name = 
  1 active torsions:
  status: ('A' for Active; 'I' for Inactive)
    1  A    between atoms: C_4  and  C_25
                            x       y       z     vdW  Elec       q    Type
                         _______ _______ _______ _____ _____    ______ ____

>  <TORSDO>
F 1

$$$$
=
 OpenBabel11062423083D

 28 32  0  0  1  0  0  0  0  0999 V2000
  187.4070  178.6370  147.6550 C   0  0  0  0  0  3  0  0  0  0  0  0
  187.0660  175.7260  142.1790 C   0  0  1  0  0  3  0  0  0  0  0  0
  188.9960  176.1200  145.3650 C   0  0  0  0  0  0  0  0  0  0  0  0
  188.0750  176.0750  144.3000 C   0  0  0  0  0  0  0  0  0  0  0  0
  184.6060  178.2820  146.5980 C   0  0  0  0  0  2  0  0  0  0  0  0
  187.3010  178.0320  139.3660 O   0  0  0  0  0  0  0  0  0  0  0  0
  185.0130  179.1570  147.6380 O   0  0  0  0  0  0  0  0  0  0  0  0
  185.4830  177.7990  142.3660 C   0  0  1  0  0  3  0  0  0  0  0  0
  185.5060  177.6890  140.8440 C   0  0  0  0  0  2  0  0  0  0  0  0
  186.9030  177.4690  140.3720 C   0  0  0  0  0  0  0  0  0  0  0  0
  187.5580  177.7760  146.4600 C   0  0  0  0  0  0  0  0  0  0  0  0
  184.0300  177.9160  142.7810 C   0  0  0  0  0  1  0  0  0  0  0  0
  186.3160  179.2440  148.1420 C   0  0  0  0  0  3  0  0  0  0  0  0
  186.1180  176.5750  143.0670 C   0  0  2  0  0  3  0  0  0  0  0  0
  186.6520  177.7270  145.3720 C   0  0  0  0  0  0  0  0  0  0  0  0
  186.9480  176.8790  144.2830 C   0  0  0  0  0  0  0  0  0  0  0  0
  187.8140  176.5470  141.1190 C   0  0  0  0  0  2  0  0  0  0  0  0
  188.7140  176.9850  146.4310 C   0  0  0  0  0  3  0  0  0  0  0  0
  188.1150  175.1610  143.1290 C   0  0  0  0  0  2  0  0  0  0  0  0
  185.4190  178.5630  145.3580 C   0  0  0  0  0  2  0  0  0  0  0  0
  191.4420  171.8600  144.6380 O   0  0  0  0  0  1  0  0  0  0  0  0
  191.4550  173.2530  144.6030 C   0  0  2  0  0  3  0  0  0  0  0  0
  191.4060  175.8210  145.8080 C   0  0  0  0  0  3  0  0  0  0  0  0
  192.6280  174.9980  145.8830 C   0  0  0  0  0  0  0  0  0  0  0  0
  193.7600  175.4970  146.5130 O   0  0  0  0  0  1  0  0  0  0  0  0
  190.2330  175.2960  145.4190 C   0  0  0  0  0  0  0  0  0  0  0  0
  192.6470  173.7710  145.3570 C   0  0  0  0  0  3  0  0  0  0  0  0
  190.1490  173.8020  145.1860 C   0  0  0  0  0  2  0  0  0  0  0  0
  1 13  2  0  0  0  0
  2 17  1  6  0  0  0
  2 14  1  0  0  0  0
  2 19  1  0  0  0  0
  3 26  1  0  0  0  0
  3 18  1  0  0  0  0
  4  3  2  0  0  0  0
  5  7  1  0  0  0  0
  6 10  2  0  0  0  0
  7 13  1  0  0  0  0
  8 12  1  1  0  0  0
  8 14  1  0  0  0  0
  9  8  1  0  0  0  0
 10  9  1  0  0  0  0
 10 17  1  0  0  0  0
 11  1  1  0  0  0  0
 14 16  1  1  0  0  0
 15 11  1  0  0  0  0
 16  4  1  0  0  0  0
 16 15  2  0  0  0  0
 18 11  2  0  0  0  0
 19  4  1  0  0  0  0
 20 15  1  0  0  0  0
 20  5  1  0  0  0  0
 22 21  1  1  0  0  0
 22 28  1  0  0  0  0
 22 27  1  0  0  0  0
 23 24  1  0  0  0  0
 24 25  1  0  0  0  0
 26 23  2  0  0  0  0
 27 24  2  0  0  0  0
 28 26  1  0  0  0  0
M  END
>  <MODEL>
6

>  <REMARK>
 VINA RESULT:      -8.0      2.104      7.499
  Name = 
  1 active torsions:
  status: ('A' for Active; 'I' for Inactive)
    1  A    between atoms: C_4  and  C_25
                            x       y       z     vdW  Elec       q    Type
                         _______ _______ _______ _____ _____    ______ ____

>  <TORSDO>
F 1

$$$$
=
 OpenBabel11062423083D

 28 32  0  0  1  0  0  0  0  0999 V2000
  187.7310  178.3350  147.5310 C   0  0  0  0  0  3  0  0  0  0  0  0
  186.9520  175.6790  141.9710 C   0  0  1  0  0  3  0  0  0  0  0  0
  189.0870  175.8710  145.0410 C   0  0  0  0  0  0  0  0  0  0  0  0
  188.1010  175.9030  144.0360 C   0  0  0  0  0  0  0  0  0  0  0  0
  184.8590  178.1170  146.6390 C   0  0  0  0  0  2  0  0  0  0  0  0
  187.0920  178.0970  139.2470 O   0  0  0  0  0  0  0  0  0  0  0  0
  185.3610  178.9310  147.6860 O   0  0  0  0  0  0  0  0  0  0  0  0
  185.4570  177.7920  142.3430 C   0  0  1  0  0  3  0  0  0  0  0  0
  185.3820  177.7470  140.8200 C   0  0  0  0  0  2  0  0  0  0  0  0
  186.7390  177.5040  140.2510 C   0  0  0  0  0  0  0  0  0  0  0  0
  187.7780  177.5230  146.2940 C   0  0  0  0  0  0  0  0  0  0  0  0
  184.0360  177.9370  142.8530 C   0  0  0  0  0  1  0  0  0  0  0  0
  186.6940  178.9550  148.1110 C   0  0  0  0  0  3  0  0  0  0  0  0
  186.0900  176.5190  142.9510 C   0  0  2  0  0  3  0  0  0  0  0  0
  186.8050  177.5500  145.2630 C   0  0  0  0  0  0  0  0  0  0  0  0
  187.0040  176.7420  144.1240 C   0  0  0  0  0  0  0  0  0  0  0  0
  187.6610  176.5210  140.9010 C   0  0  0  0  0  2  0  0  0  0  0  0
  188.9020  176.6970  146.1580 C   0  0  0  0  0  3  0  0  0  0  0  0
  188.0370  175.0400  142.8280 C   0  0  0  0  0  2  0  0  0  0  0  0
  185.6040  178.4260  145.3630 C   0  0  0  0  0  2  0  0  0  0  0  0
  193.9980  175.2010  145.3450 O   0  0  0  0  0  1  0  0  0  0  0  0
  192.7190  174.7080  145.5930 C   0  0  2  0  0  3  0  0  0  0  0  0
  190.1970  173.6800  144.7940 C   0  0  0  0  0  3  0  0  0  0  0  0
  191.3970  172.8250  144.7140 C   0  0  0  0  0  0  0  0  0  0  0  0
  191.2830  171.5120  144.2810 O   0  0  0  0  0  1  0  0  0  0  0  0
  190.2960  175.0060  144.9830 C   0  0  0  0  0  0  0  0  0  0  0  0
  192.5950  173.3140  145.0470 C   0  0  0  0  0  3  0  0  0  0  0  0
  191.6720  175.6390  144.9760 C   0  0  0  0  0  2  0  0  0  0  0  0
  1 13  2  0  0  0  0
  2 17  1  6  0  0  0
  2 19  1  0  0  0  0
  2 14  1  0  0  0  0
  3 18  1  0  0  0  0
  4 16  1  0  0  0  0
  4  3  2  0  0  0  0
  5  7  1  0  0  0  0
  6 10  2  0  0  0  0
  7 13  1  0  0  0  0
  8 12  1  1  0  0  0
  8 14  1  0  0  0  0
  9  8  1  0  0  0  0
 10  9  1  0  0  0  0
 10 17  1  0  0  0  0
 11  1  1  0  0  0  0
 14 16  1  1  0  0  0
 15 20  1  0  0  0  0
 15 11  1  0  0  0  0
 16 15  2  0  0  0  0
 18 11  2  0  0  0  0
 19  4  1  0  0  0  0
 20  5  1  0  0  0  0
 22 21  1  6  0  0  0
 23 26  2  0  0  0  0
 24 23  1  0  0  0  0
 24 27  2  0  0  0  0
 25 24  1  0  0  0  0
 26  3  1  0  0  0  0
 27 22  1  0  0  0  0
 28 26  1  0  0  0  0
 28 22  1  0  0  0  0
M  END
>  <MODEL>
7

>  <REMARK>
 VINA RESULT:      -7.9      2.114      7.556
  Name = 
  1 active torsions:
  status: ('A' for Active; 'I' for Inactive)
    1  A    between atoms: C_4  and  C_25
                            x       y       z     vdW  Elec       q    Type
                         _______ _______ _______ _____ _____    ______ ____

>  <TORSDO>
F 1

$$$$
=
 OpenBabel11062423083D

 28 32  0  0  1  0  0  0  0  0999 V2000
  191.1600  176.7200  147.4400 C   0  0  0  0  0  3  0  0  0  0  0  0
  188.8840  175.9460  141.7130 C   0  0  1  0  0  3  0  0  0  0  0  0
  188.2150  177.2320  145.1660 C   0  0  0  0  0  0  0  0  0  0  0  0
  188.7160  176.7660  143.9350 C   0  0  0  0  0  0  0  0  0  0  0  0
  193.2370  176.7400  145.2530 C   0  0  0  0  0  2  0  0  0  0  0  0
  188.6530  172.4310  140.7770 O   0  0  0  0  0  0  0  0  0  0  0  0
  193.4730  176.5850  146.6440 O   0  0  0  0  0  0  0  0  0  0  0  0
  191.0640  174.5750  142.1690 C   0  0  1  0  0  3  0  0  0  0  0  0
  190.5660  173.7830  140.9650 C   0  0  0  0  0  2  0  0  0  0  0  0
  189.1050  173.5150  141.1020 C   0  0  0  0  0  0  0  0  0  0  0  0
  190.3850  176.7060  146.1790 C   0  0  0  0  0  0  0  0  0  0  0  0
  192.5230  174.9000  141.9150 C   0  0  0  0  0  1  0  0  0  0  0  0
  192.4850  176.6460  147.6330 C   0  0  0  0  0  3  0  0  0  0  0  0
  190.2800  175.8900  142.3900 C   0  0  2  0  0  3  0  0  0  0  0  0
  190.8630  176.2280  144.9330 C   0  0  0  0  0  0  0  0  0  0  0  0
  189.9930  176.2460  143.8220 C   0  0  0  0  0  0  0  0  0  0  0  0
  188.1910  174.5790  141.6210 C   0  0  0  0  0  2  0  0  0  0  0  0
  189.0720  177.1850  146.2740 C   0  0  0  0  0  3  0  0  0  0  0  0
  188.0280  176.8220  142.6180 C   0  0  0  0  0  2  0  0  0  0  0  0
  192.2480  175.6960  144.7930 C   0  0  0  0  0  2  0  0  0  0  0  0
  183.9880  179.1040  143.3520 O   0  0  0  0  0  1  0  0  0  0  0  0
  184.6140  178.2900  144.2940 C   0  0  2  0  0  3  0  0  0  0  0  0
  186.2660  177.8350  146.5560 C   0  0  0  0  0  3  0  0  0  0  0  0
  184.9130  178.3950  146.7360 C   0  0  0  0  0  0  0  0  0  0  0  0
  184.4410  178.6650  148.0130 O   0  0  0  0  0  1  0  0  0  0  0  0
  186.8420  177.7770  145.3440 C   0  0  0  0  0  0  0  0  0  0  0  0
  184.1450  178.6530  145.6750 C   0  0  0  0  0  3  0  0  0  0  0  0
  186.1350  178.4250  144.1730 C   0  0  0  0  0  2  0  0  0  0  0  0
  1 13  2  0  0  0  0
  2 17  1  1  0  0  0
  2 14  1  0  0  0  0
  2 19  1  0  0  0  0
  3 26  1  0  0  0  0
  3 18  1  0  0  0  0
  4  3  2  0  0  0  0
  5  7  1  0  0  0  0
  6 10  2  0  0  0  0
  7 13  1  0  0  0  0
  8 12  1  6  0  0  0
  8 14  1  0  0  0  0
  9 10  1  0  0  0  0
  9  8  1  0  0  0  0
 10 17  1  0  0  0  0
 11 18  2  0  0  0  0
 11  1  1  0  0  0  0
 14 16  1  1  0  0  0
 15 11  1  0  0  0  0
 16  4  1  0  0  0  0
 16 15  2  0  0  0  0
 19  4  1  0  0  0  0
 20 15  1  0  0  0  0
 20  5  1  0  0  0  0
 22 21  1  6  0  0  0
 22 27  1  0  0  0  0
 23 24  1  0  0  0  0
 24 25  1  0  0  0  0
 26 23  2  0  0  0  0
 27 24  2  0  0  0  0
 28 22  1  0  0  0  0
 28 26  1  0  0  0  0
M  END
>  <MODEL>
8

>  <REMARK>
 VINA RESULT:      -7.9      1.501      4.942
  Name = 
  1 active torsions:
  status: ('A' for Active; 'I' for Inactive)
    1  A    between atoms: C_4  and  C_25
                            x       y       z     vdW  Elec       q    Type
                         _______ _______ _______ _____ _____    ______ ____

>  <TORSDO>
F 1

$$$$
=
 OpenBabel11062423083D

 28 32  0  0  1  0  0  0  0  0999 V2000
  190.4390  172.7100  140.6480 C   0  0  0  0  0  3  0  0  0  0  0  0
  189.8290  177.8170  144.1280 C   0  0  1  0  0  3  0  0  0  0  0  0
  192.2000  175.2510  142.7810 C   0  0  0  0  0  0  0  0  0  0  0  0
  191.1540  176.1400  143.0950 C   0  0  0  0  0  0  0  0  0  0  0  0
  188.1750  174.5230  139.8240 C   0  0  0  0  0  2  0  0  0  0  0  0
  187.6800  177.2750  147.0220 O   0  0  0  0  0  0  0  0  0  0  0  0
  188.3640  173.1740  139.4310 O   0  0  0  0  0  0  0  0  0  0  0  0
  187.5560  176.6550  143.5650 C   0  0  1  0  0  3  0  0  0  0  0  0
  187.0810  177.4770  144.7590 C   0  0  0  0  0  2  0  0  0  0  0  0
  188.0690  177.3750  145.8710 C   0  0  0  0  0  0  0  0  0  0  0  0
  190.6000  173.9220  141.4820 C   0  0  0  0  0  0  0  0  0  0  0  0
  186.5630  176.8860  142.4430 C   0  0  0  0  0  1  0  0  0  0  0  0
  189.4650  172.3860  139.7860 C   0  0  0  0  0  3  0  0  0  0  0  0
  188.9710  177.0540  143.0850 C   0  0  2  0  0  3  0  0  0  0  0  0
  189.5590  174.8210  141.8230 C   0  0  0  0  0  0  0  0  0  0  0  0
  189.8600  175.9180  142.6580 C   0  0  0  0  0  0  0  0  0  0  0  0
  189.5350  177.4130  145.5790 C   0  0  0  0  0  2  0  0  0  0  0  0
  191.8920  174.1460  141.9760 C   0  0  0  0  0  3  0  0  0  0  0  0
  191.2710  177.4220  143.8370 C   0  0  0  0  0  2  0  0  0  0  0  0
  188.1690  174.6110  141.3310 C   0  0  0  0  0  2  0  0  0  0  0  0
  195.7800  174.6950  146.1770 O   0  0  0  0  0  1  0  0  0  0  0  0
  195.4160  174.7060  144.8320 C   0  0  2  0  0  3  0  0  0  0  0  0
  194.5360  175.9770  142.4520 C   0  0  0  0  0  3  0  0  0  0  0  0
  195.9210  176.1750  142.9220 C   0  0  0  0  0  0  0  0  0  0  0  0
  196.7970  176.9550  142.1800 O   0  0  0  0  0  1  0  0  0  0  0  0
  193.6020  175.4300  143.2460 C   0  0  0  0  0  0  0  0  0  0  0  0
  196.3310  175.6160  144.0630 C   0  0  0  0  0  3  0  0  0  0  0  0
  193.9550  175.1420  144.6900 C   0  0  0  0  0  2  0  0  0  0  0  0
  1 11  1  0  0  0  0
  2 19  1  6  0  0  0
  2 17  1  0  0  0  0
  3  4  1  0  0  0  0
  3 26  1  0  0  0  0
  4 19  1  0  0  0  0
  5 20  1  0  0  0  0
  7 13  1  0  0  0  0
  7  5  1  0  0  0  0
  8 12  1  6  0  0  0
  8  9  1  0  0  0  0
  9 10  1  0  0  0  0
 10  6  2  0  0  0  0
 11 15  2  0  0  0  0
 11 18  1  0  0  0  0
 13  1  2  0  0  0  0
 14 16  1  1  0  0  0
 14  8  1  0  0  0  0
 14  2  1  0  0  0  0
 15 16  1  0  0  0  0
 16  4  2  0  0  0  0
 17 10  1  0  0  0  0
 18  3  2  0  0  0  0
 20 15  1  0  0  0  0
 22 21  1  1  0  0  0
 23 24  1  0  0  0  0
 23 26  2  0  0  0  0
 24 27  2  0  0  0  0
 25 24  1  0  0  0  0
 26 28  1  0  0  0  0
 27 22  1  0  0  0  0
 28 22  1  0  0  0  0
M  END
>  <MODEL>
9

>  <REMARK>
 VINA RESULT:      -7.8      2.343      6.439
  Name = 
  1 active torsions:
  status: ('A' for Active; 'I' for Inactive)
    1  A    between atoms: C_4  and  C_25
                            x       y       z     vdW  Elec       q    Type
                         _______ _______ _______ _____ _____    ______ ____

>  <TORSDO>
F 1

$$$$
