=
 OpenBabel11062422353D

 59 64  0  0  1  0  0  0  0  0999 V2000
  191.5210  171.2880  138.8130 C   0  0  1  0  0  3  0  0  0  0  0  0
  191.7660  175.1740  135.6470 N   0  0  0  0  0  0  0  0  0  0  0  0
  189.6740  172.9470  139.4040 C   0  0  2  0  0  3  0  0  0  0  0  0
  189.7180  173.3230  138.0310 O   0  0  0  0  0  0  0  0  0  0  0  0
  192.1870  173.4460  137.7490 C   0  0  0  0  0  0  0  0  0  0  0  0
  193.0270  174.8460  136.0240 C   0  0  0  0  0  3  0  0  0  0  0  0
  190.8650  173.8030  137.3840 C   0  0  0  0  0  0  0  0  0  0  0  0
  190.2730  171.5590  139.6530 C   0  0  2  0  0  3  0  0  0  0  0  0
  192.4880  172.4740  138.8660 C   0  0  2  0  0  3  0  0  0  0  0  0
  192.1220  170.1100  139.2270 F   0  0  0  0  0  0  0  0  0  0  0  0
  190.6930  174.6680  136.3030 C   0  0  0  0  0  3  0  0  0  0  0  0
  190.5690  171.4190  141.0110 O   0  0  0  0  0  1  0  0  0  0  0  0
  193.2280  173.9910  137.0600 N   0  0  0  0  0  0  0  0  0  0  0  0
  193.8130  172.0250  138.7790 O   0  0  0  0  0  0  0  0  0  0  0  0
  194.1740  171.6810  140.0850 C   0  0  2  0  0  3  0  0  0  0  0  0
  194.0530  172.8870  140.9740 C   0  0  0  0  0  3  0  0  0  0  0  0
  195.6130  171.1490  140.0940 C   0  0  0  0  0  2  0  0  0  0  0  0
  196.6020  172.2770  139.9500 C   0  0  0  0  0  0  0  0  0  0  0  0
  196.3310  173.4510  140.4460 N   0  0  0  0  0  0  0  0  0  0  0  0
  195.0780  173.7400  141.0870 C   0  0  0  0  0  0  0  0  0  0  0  0
  194.4260  176.3160  141.2700 O   0  0  0  0  0  0  0  0  0  0  0  0
  196.2980  175.5070  142.6350 O   0  0  0  0  0  0  0  0  0  0  0  0
  194.9360  175.1700  142.0960 S   0  0  0  0  0  0  0  0  0  0  0  0
  193.9740  173.8340  144.2820 C   0  0  0  0  0  0  0  0  0  0  0  0
  192.8160  175.9830  146.1530 C   0  0  0  0  0  0  0  0  0  0  0  0
  192.7940  176.8160  147.2630 O   0  0  0  0  0  1  0  0  0  0  0  0
  193.8120  174.8540  143.4220 C   0  0  0  0  0  0  0  0  0  0  0  0
  192.9380  173.5820  145.3330 C   0  0  0  0  0  2  0  0  0  0  0  0
  192.7750  176.6530  144.7950 C   0  0  0  0  0  2  0  0  0  0  0  0
  192.6190  175.7490  143.5730 C   0  0  0  0  0  2  0  0  0  0  0  0
  192.9230  174.6630  146.3730 C   0  0  0  0  0  3  0  0  0  0  0  0
  196.5500  172.6230  144.4100 C   0  0  1  0  0  3  0  0  0  0  0  0
  195.7070  171.6310  143.9550 C   0  0  0  0  0  2  0  0  0  0  0  0
  195.1070  172.9670  144.2300 N   0  0  0  0  0  0  0  0  0  0  0  0
  197.1830  173.7430  146.5240 C   0  0  0  0  0  1  0  0  0  0  0  0
  196.8290  172.4170  145.8850 C   0  0  0  0  0  2  0  0  0  0  0  0
  197.8280  172.0280  139.3280 O   0  0  0  0  0  0  0  0  0  0  0  0
  197.9310  171.5430  137.9930 C   0  0  0  0  0  2  0  0  0  0  0  0
  197.9350  170.1480  137.9920 O   0  0  0  0  0  1  0  0  0  0  0  0
  188.2360  173.0170  139.9040 C   0  0  0  0  0  2  0  0  0  0  0  0
  188.1670  173.7440  141.1650 N   0  0  0  0  0  2  0  0  0  0  0  0
  188.3940  175.0990  140.8850 N   0  0  0  0  0  2  0  0  0  0  0  0
  187.8370  175.8920  141.9800 C   0  0  2  0  0  3  0  0  0  0  0  0
  187.2410  177.1970  141.4620 C   0  0  0  0  0  2  0  0  0  0  0  0
  186.8040  177.0300  140.1480 O   0  0  0  0  0  1  0  0  0  0  0  0
  188.8980  176.1410  143.0650 C   0  0  1  0  0  3  0  0  0  0  0  0
  189.4830  177.5330  142.8350 C   0  0  0  0  0  1  0  0  0  0  0  0
  189.2770  175.2880  145.2510 C   0  0  0  0  0  2  0  0  0  0  0  0
  188.3280  176.0110  144.4180 N   0  0  0  0  0  0  0  0  0  0  0  0
  188.2140  177.2520  144.9790 O   0  0  0  0  0  0  0  0  0  0  0  0
  189.0900  175.8350  146.6290 C   0  0  0  0  0  2  0  0  0  0  0  0
  188.2390  177.0470  146.3710 C   0  0  2  0  0  3  0  0  0  0  0  0
  186.8280  176.7960  146.8910 C   0  0  0  0  0  2  0  0  0  0  0  0
  186.1500  179.0280  147.1700 O   0  0  0  0  0  0  0  0  0  0  0  0
  185.9310  177.9660  146.6070 C   0  0  0  0  0  0  0  0  0  0  0  0
  184.7510  177.8590  145.6800 C   0  0  1  0  0  3  0  0  0  0  0  0
  183.6960  178.6340  146.1690 O   0  0  0  0  0  1  0  0  0  0  0  0
  184.0540  179.0900  143.7530 O   0  0  0  0  0  1  0  0  0  0  0  0
  185.0790  178.2850  144.2540 C   0  0  0  0  0  2  0  0  0  0  0  0
  1  9  1  0  0  0  0
  1 10  1  1  0  0  0
  1  8  1  0  0  0  0
  2  6  2  0  0  0  0
  2 11  1  0  0  0  0
  3  8  1  0  0  0  0
  3 40  1  6  0  0  0
  4  3  1  0  0  0  0
  5  9  1  0  0  0  0
  6 13  1  0  0  0  0
  7  5  1  0  0  0  0
  7  4  1  0  0  0  0
  8 12  1  1  0  0  0
  9 14  1  6  0  0  0
 11  7  2  0  0  0  0
 13  5  2  0  0  0  0
 15 14  1  6  0  0  0
 15 17  1  0  0  0  0
 15 16  1  0  0  0  0
 16 20  2  0  0  0  0
 18 17  1  0  0  0  0
 18 19  2  0  0  0  0
 19 20  1  0  0  0  0
 20 23  1  0  0  0  0
 21 23  2  0  0  0  0
 23 22  2  0  0  0  0
 23 27  1  0  0  0  0
 24 28  1  0  0  0  0
 25 31  2  0  0  0  0
 25 26  1  0  0  0  0
 27 30  1  0  0  0  0
 27 24  2  0  0  0  0
 28 31  1  0  0  0  0
 29 25  1  0  0  0  0
 30 29  1  0  0  0  0
 32 36  1  1  0  0  0
 33 34  1  0  0  0  0
 33 32  1  0  0  0  0
 34 24  1  0  0  0  0
 34 32  1  0  0  0  0
 36 35  1  0  0  0  0
 37 18  1  0  0  0  0
 38 37  1  0  0  0  0
 39 38  1  0  0  0  0
 40 41  1  0  0  0  0
 42 41  1  0  0  0  0
 42 43  1  0  0  0  0
 43 44  1  6  0  0  0
 43 46  1  0  0  0  0
 45 44  1  0  0  0  0
 46 47  1  6  0  0  0
 46 49  1  0  0  0  0
 48 51  1  0  0  0  0
 49 50  1  0  0  0  0
 49 48  1  0  0  0  0
 50 52  1  0  0  0  0
 52 51  1  0  0  0  0
 52 53  1  6  0  0  0
 55 53  1  0  0  0  0
 55 54  2  0  0  0  0
 56 57  1  1  0  0  0
 56 55  1  0  0  0  0
 58 59  1  0  0  0  0
 59 56  1  0  0  0  0
M  END
>  <MODEL>
1

>  <REMARK>
 VINA RESULT:      -6.5      0.000      0.000
  Name = 
  19 active torsions:
  status: ('A' for Active; 'I' for Inactive)
    1  A    between atoms: C_2  and  O_26
    2  A    between atoms: C_3  and  N_45
    3  A    between atoms: C_4  and  C_21
    4  A    between atoms: C_6  and  O_38
    5  A    between atoms: C_7  and  N_27
    6  A    between atoms: C_7  and  C_29
    7  A    between atoms: C_7  and  C_43
    8  A    between atoms: C_16  and  C_37
    9  A    between atoms: N_17  and  N_27
   10  A    between atoms: N_17  and  C_37
   11  A    between atoms: C_18  and  C_47
   12  A    between atoms: C_18  and  C_56
   13  A    between atoms: C_22  and  S_25
   14  A    between atoms: N_23  and  C_29
   15  A    between atoms: S_25  and  C_59
   16  A    between atoms: O_26  and  C_46
   17  A    between atoms: C_28  and  O_38
   18  A    between atoms: C_36  and  C_53
   19  A    between atoms: C_36  and  C_56
                            x       y       z     vdW  Elec       q    Type
                         _______ _______ _______ _____ _____    ______ ____

>  <TORSDO>
F 19

$$$$
=
 OpenBabel11062422353D

 59 64  0  0  1  0  0  0  0  0999 V2000
  195.8810  176.0030  143.5790 C   0  0  1  0  0  3  0  0  0  0  0  0
  197.4220  171.5950  145.4170 N   0  0  0  0  0  0  0  0  0  0  0  0
  194.4020  175.3780  145.5620 C   0  0  2  0  0  3  0  0  0  0  0  0
  195.5310  174.6510  146.0390 O   0  0  0  0  0  0  0  0  0  0  0  0
  196.2000  173.5490  143.9110 C   0  0  0  0  0  0  0  0  0  0  0  0
  197.4280  171.5220  144.0620 C   0  0  0  0  0  3  0  0  0  0  0  0
  196.1610  173.6230  145.3250 C   0  0  0  0  0  0  0  0  0  0  0  0
  194.7850  176.4560  144.5430 C   0  0  2  0  0  3  0  0  0  0  0  0
  195.5840  174.6070  143.0250 C   0  0  2  0  0  3  0  0  0  0  0  0
  196.0380  176.9390  142.5690 F   0  0  0  0  0  0  0  0  0  0  0  0
  196.8070  172.6220  146.0530 C   0  0  0  0  0  3  0  0  0  0  0  0
  193.6480  176.8430  143.8300 O   0  0  0  0  0  1  0  0  0  0  0  0
  196.8260  172.4910  143.3250 N   0  0  0  0  0  0  0  0  0  0  0  0
  196.0700  174.4900  141.7150 O   0  0  0  0  0  0  0  0  0  0  0  0
  194.9850  174.8020  140.8890 C   0  0  2  0  0  3  0  0  0  0  0  0
  194.2490  173.5420  140.5300 C   0  0  0  0  0  3  0  0  0  0  0  0
  195.4940  175.5080  139.6240 C   0  0  0  0  0  2  0  0  0  0  0  0
  196.1310  174.5210  138.6810 C   0  0  0  0  0  0  0  0  0  0  0  0
  195.6890  173.2960  138.6200 N   0  0  0  0  0  0  0  0  0  0  0  0
  194.6380  172.8190  139.4740 C   0  0  0  0  0  0  0  0  0  0  0  0
  194.5570  170.1610  139.6390 O   0  0  0  0  0  0  0  0  0  0  0  0
  193.7600  171.2060  137.5660 O   0  0  0  0  0  0  0  0  0  0  0  0
  193.8050  171.3270  139.0640 S   0  0  0  0  0  0  0  0  0  0  0  0
  191.8840  170.9470  140.9760 C   0  0  0  0  0  0  0  0  0  0  0  0
  189.9140  173.2910  140.6820 C   0  0  0  0  0  0  0  0  0  0  0  0
  189.3240  174.4980  141.0270 O   0  0  0  0  0  1  0  0  0  0  0  0
  192.1690  171.3580  139.7280 C   0  0  0  0  0  0  0  0  0  0  0  0
  190.4610  170.9300  141.4410 C   0  0  0  0  0  2  0  0  0  0  0  0
  190.5590  173.2120  139.3130 C   0  0  0  0  0  2  0  0  0  0  0  0
  191.0540  171.8420  138.8510 C   0  0  0  0  0  2  0  0  0  0  0  0
  189.9100  172.3150  141.6040 C   0  0  0  0  0  3  0  0  0  0  0  0
  193.8940  170.7070  142.9820 C   0  0  1  0  0  3  0  0  0  0  0  0
  193.7480  169.4380  142.4640 C   0  0  0  0  0  2  0  0  0  0  0  0
  192.8970  170.5160  141.8850 N   0  0  0  0  0  0  0  0  0  0  0  0
  192.7980  172.2480  144.5790 C   0  0  0  0  0  1  0  0  0  0  0  0
  193.1610  170.8040  144.3040 C   0  0  0  0  0  2  0  0  0  0  0  0
  197.1590  174.9550  137.8400 O   0  0  0  0  0  0  0  0  0  0  0  0
  196.9720  175.1780  136.4460 C   0  0  0  0  0  2  0  0  0  0  0  0
  195.7820  175.8740  136.2300 O   0  0  0  0  0  1  0  0  0  0  0  0
  193.6550  175.9860  146.7430 C   0  0  0  0  0  2  0  0  0  0  0  0
  192.4310  175.2420  147.0130 N   0  0  0  0  0  2  0  0  0  0  0  0
  191.5030  175.5790  146.0160 N   0  0  0  0  0  2  0  0  0  0  0  0
  190.2260  175.8770  146.6630 C   0  0  2  0  0  3  0  0  0  0  0  0
  189.2420  174.7250  146.4850 C   0  0  0  0  0  2  0  0  0  0  0  0
  189.7080  173.8500  145.5060 O   0  0  0  0  0  1  0  0  0  0  0  0
  189.6500  177.2040  146.1430 C   0  0  1  0  0  3  0  0  0  0  0  0
  190.4000  177.5700  144.8640 C   0  0  0  0  0  1  0  0  0  0  0  0
  187.5060  177.5650  147.1060 C   0  0  0  0  0  2  0  0  0  0  0  0
  188.1980  177.1080  145.9090 N   0  0  0  0  0  0  0  0  0  0  0  0
  187.8430  177.9830  144.9210 O   0  0  0  0  0  0  0  0  0  0  0  0
  186.2360  178.1820  146.6170 C   0  0  0  0  0  2  0  0  0  0  0  0
  186.4840  178.2750  145.1370 C   0  0  2  0  0  3  0  0  0  0  0  0
  185.6060  177.2600  144.4120 C   0  0  0  0  0  2  0  0  0  0  0  0
  184.1040  178.7520  143.3920 O   0  0  0  0  0  0  0  0  0  0  0  0
  184.9410  177.8780  143.2170 C   0  0  0  0  0  0  0  0  0  0  0  0
  185.2450  177.4290  141.8130 C   0  0  1  0  0  3  0  0  0  0  0  0
  184.9690  178.4650  140.9170 O   0  0  0  0  0  1  0  0  0  0  0  0
  187.3060  177.7310  140.6420 O   0  0  0  0  0  1  0  0  0  0  0  0
  186.6890  176.9740  141.6380 C   0  0  0  0  0  2  0  0  0  0  0  0
  1 10  1  6  0  0  0
  1  8  1  0  0  0  0
  2 11  1  0  0  0  0
  3  4  1  0  0  0  0
  3 40  1  1  0  0  0
  5  7  1  0  0  0  0
  6  2  2  0  0  0  0
  7  4  1  0  0  0  0
  7 11  2  0  0  0  0
  8 12  1  6  0  0  0
  8  3  1  0  0  0  0
  9 14  1  6  0  0  0
  9  1  1  0  0  0  0
  9  5  1  0  0  0  0
 13  5  2  0  0  0  0
 13  6  1  0  0  0  0
 15 14  1  1  0  0  0
 16 15  1  0  0  0  0
 17 15  1  0  0  0  0
 18 17  1  0  0  0  0
 19 18  2  0  0  0  0
 19 20  1  0  0  0  0
 20 16  2  0  0  0  0
 22 23  2  0  0  0  0
 23 20  1  0  0  0  0
 23 21  2  0  0  0  0
 23 27  1  0  0  0  0
 24 28  1  0  0  0  0
 24 34  1  0  0  0  0
 25 26  1  0  0  0  0
 25 31  2  0  0  0  0
 27 24  2  0  0  0  0
 28 31  1  0  0  0  0
 29 25  1  0  0  0  0
 30 29  1  0  0  0  0
 30 27  1  0  0  0  0
 32 36  1  1  0  0  0
 33 32  1  0  0  0  0
 34 33  1  0  0  0  0
 34 32  1  0  0  0  0
 36 35  1  0  0  0  0
 37 18  1  0  0  0  0
 38 37  1  0  0  0  0
 39 38  1  0  0  0  0
 40 41  1  0  0  0  0
 42 43  1  0  0  0  0
 42 41  1  0  0  0  0
 43 44  1  6  0  0  0
 45 44  1  0  0  0  0
 46 47  1  6  0  0  0
 46 43  1  0  0  0  0
 49 46  1  0  0  0  0
 49 48  1  0  0  0  0
 50 52  1  0  0  0  0
 50 49  1  0  0  0  0
 51 48  1  0  0  0  0
 52 53  1  6  0  0  0
 52 51  1  0  0  0  0
 55 54  2  0  0  0  0
 55 53  1  0  0  0  0
 56 57  1  6  0  0  0
 56 55  1  0  0  0  0
 58 59  1  0  0  0  0
 59 56  1  0  0  0  0
M  END
>  <MODEL>
2

>  <REMARK>
 VINA RESULT:      -6.4      2.672      5.988
  Name = 
  19 active torsions:
  status: ('A' for Active; 'I' for Inactive)
    1  A    between atoms: C_2  and  O_26
    2  A    between atoms: C_3  and  N_45
    3  A    between atoms: C_4  and  C_21
    4  A    between atoms: C_6  and  O_38
    5  A    between atoms: C_7  and  N_27
    6  A    between atoms: C_7  and  C_29
    7  A    between atoms: C_7  and  C_43
    8  A    between atoms: C_16  and  C_37
    9  A    between atoms: N_17  and  N_27
   10  A    between atoms: N_17  and  C_37
   11  A    between atoms: C_18  and  C_47
   12  A    between atoms: C_18  and  C_56
   13  A    between atoms: C_22  and  S_25
   14  A    between atoms: N_23  and  C_29
   15  A    between atoms: S_25  and  C_59
   16  A    between atoms: O_26  and  C_46
   17  A    between atoms: C_28  and  O_38
   18  A    between atoms: C_36  and  C_53
   19  A    between atoms: C_36  and  C_56
                            x       y       z     vdW  Elec       q    Type
                         _______ _______ _______ _____ _____    ______ ____

>  <TORSDO>
F 19

$$$$
=
 OpenBabel11062422353D

 59 64  0  0  1  0  0  0  0  0999 V2000
  190.5530  170.7910  139.6780 C   0  0  1  0  0  3  0  0  0  0  0  0
  191.7920  174.1600  136.1720 N   0  0  0  0  0  0  0  0  0  0  0  0
  189.9070  173.1160  140.5090 C   0  0  2  0  0  3  0  0  0  0  0  0
  189.7800  173.4570  139.1320 O   0  0  0  0  0  0  0  0  0  0  0  0
  191.8630  172.3930  138.2830 C   0  0  0  0  0  0  0  0  0  0  0  0
  192.8030  173.2620  136.2820 C   0  0  0  0  0  3  0  0  0  0  0  0
  190.8170  173.3450  138.1960 C   0  0  0  0  0  0  0  0  0  0  0  0
  189.8280  171.6040  140.7510 C   0  0  2  0  0  3  0  0  0  0  0  0
  191.9410  171.3700  139.3920 C   0  0  2  0  0  3  0  0  0  0  0  0
  190.6150  169.4590  140.0590 F   0  0  0  0  0  0  0  0  0  0  0  0
  190.8070  174.2120  137.1020 C   0  0  0  0  0  3  0  0  0  0  0  0
  190.3510  171.3100  142.0120 O   0  0  0  0  0  1  0  0  0  0  0  0
  192.8310  172.3910  137.3240 N   0  0  0  0  0  0  0  0  0  0  0  0
  192.8340  170.3450  139.0500 O   0  0  0  0  0  0  0  0  0  0  0  0
  193.4680  169.9930  140.2450 C   0  0  2  0  0  3  0  0  0  0  0  0
  193.7290  171.2290  141.0590 C   0  0  0  0  0  3  0  0  0  0  0  0
  194.7840  169.2690  139.9300 C   0  0  0  0  0  2  0  0  0  0  0  0
  195.8370  170.2450  139.4760 C   0  0  0  0  0  0  0  0  0  0  0  0
  195.8510  171.4590  139.9500 N   0  0  0  0  0  0  0  0  0  0  0  0
  194.8480  171.9360  140.8610 C   0  0  0  0  0  0  0  0  0  0  0  0
  193.8450  173.9420  142.2980 O   0  0  0  0  0  0  0  0  0  0  0  0
  195.7860  174.4110  140.8710 O   0  0  0  0  0  0  0  0  0  0  0  0
  195.1480  173.4010  141.7830 S   0  0  0  0  0  0  0  0  0  0  0  0
  196.3870  173.8860  144.1740 C   0  0  0  0  0  0  0  0  0  0  0  0
  196.5250  171.1780  145.6270 C   0  0  0  0  0  0  0  0  0  0  0  0
  196.1580  170.2280  146.5690 O   0  0  0  0  0  1  0  0  0  0  0  0
  196.2150  173.0400  143.1440 C   0  0  0  0  0  0  0  0  0  0  0  0
  197.3680  173.5450  145.2530 C   0  0  0  0  0  2  0  0  0  0  0  0
  196.4050  170.7800  144.1710 C   0  0  0  0  0  2  0  0  0  0  0  0
  196.9710  171.7460  143.1320 C   0  0  0  0  0  2  0  0  0  0  0  0
  196.9060  172.3830  146.0810 C   0  0  0  0  0  3  0  0  0  0  0  0
  194.4870  175.9590  144.6300 C   0  0  1  0  0  3  0  0  0  0  0  0
  195.5980  176.5950  144.1200 C   0  0  0  0  0  2  0  0  0  0  0  0
  195.6680  175.1140  144.2790 N   0  0  0  0  0  0  0  0  0  0  0  0
  193.0020  176.1260  146.6030 C   0  0  0  0  0  1  0  0  0  0  0  0
  194.4410  176.1430  146.1330 C   0  0  0  0  0  2  0  0  0  0  0  0
  196.8240  169.8130  138.5860 O   0  0  0  0  0  0  0  0  0  0  0  0
  196.5620  169.5500  137.2120 C   0  0  0  0  0  2  0  0  0  0  0  0
  195.5960  170.4360  136.7330 O   0  0  0  0  0  1  0  0  0  0  0  0
  188.8430  173.8520  141.3140 C   0  0  0  0  0  2  0  0  0  0  0  0
  189.4190  175.0070  141.9890 N   0  0  0  0  0  2  0  0  0  0  0  0
  188.8260  175.0940  143.2580 N   0  0  0  0  0  2  0  0  0  0  0  0
  189.8830  175.3310  144.2400 C   0  0  2  0  0  3  0  0  0  0  0  0
  190.2080  174.0560  145.0120 C   0  0  0  0  0  2  0  0  0  0  0  0
  191.3500  173.4580  144.4820 O   0  0  0  0  0  1  0  0  0  0  0  0
  189.5010  176.4850  145.1810 C   0  0  1  0  0  3  0  0  0  0  0  0
  190.1300  177.7640  144.6320 C   0  0  0  0  0  1  0  0  0  0  0  0
  187.6550  176.1930  146.6510 C   0  0  0  0  0  2  0  0  0  0  0  0
  188.0390  176.6150  145.3120 N   0  0  0  0  0  0  0  0  0  0  0  0
  187.6960  177.9350  145.2270 O   0  0  0  0  0  0  0  0  0  0  0  0
  186.4610  177.0200  146.9980 C   0  0  0  0  0  2  0  0  0  0  0  0
  186.4710  178.0570  145.9100 C   0  0  2  0  0  3  0  0  0  0  0  0
  185.3100  177.8010  144.9560 C   0  0  0  0  0  2  0  0  0  0  0  0
  185.3560  179.9390  143.9790 O   0  0  0  0  0  0  0  0  0  0  0  0
  185.3620  178.7330  143.7800 C   0  0  0  0  0  0  0  0  0  0  0  0
  185.3850  178.2270  142.3620 C   0  0  1  0  0  3  0  0  0  0  0  0
  185.9750  176.9610  142.3230 O   0  0  0  0  0  1  0  0  0  0  0  0
  184.0820  178.4450  140.3700 O   0  0  0  0  0  1  0  0  0  0  0  0
  183.9980  178.1630  141.7340 C   0  0  0  0  0  2  0  0  0  0  0  0
  1 10  1  1  0  0  0
  1  8  1  0  0  0  0
  2  6  2  0  0  0  0
  2 11  1  0  0  0  0
  3  8  1  0  0  0  0
  3 40  1  1  0  0  0
  4  3  1  0  0  0  0
  5  9  1  0  0  0  0
  6 13  1  0  0  0  0
  7  5  1  0  0  0  0
  7  4  1  0  0  0  0
  8 12  1  1  0  0  0
  9 14  1  6  0  0  0
  9  1  1  0  0  0  0
 11  7  2  0  0  0  0
 13  5  2  0  0  0  0
 15 14  1  6  0  0  0
 15 16  1  0  0  0  0
 17 15  1  0  0  0  0
 18 17  1  0  0  0  0
 18 19  2  0  0  0  0
 19 20  1  0  0  0  0
 20 16  2  0  0  0  0
 20 23  1  0  0  0  0
 22 23  2  0  0  0  0
 23 21  2  0  0  0  0
 23 27  1  0  0  0  0
 24 34  1  0  0  0  0
 24 28  1  0  0  0  0
 25 31  2  0  0  0  0
 25 26  1  0  0  0  0
 27 24  2  0  0  0  0
 28 31  1  0  0  0  0
 29 25  1  0  0  0  0
 30 27  1  0  0  0  0
 30 29  1  0  0  0  0
 32 36  1  1  0  0  0
 33 34  1  0  0  0  0
 33 32  1  0  0  0  0
 34 32  1  0  0  0  0
 36 35  1  0  0  0  0
 37 18  1  0  0  0  0
 38 37  1  0  0  0  0
 39 38  1  0  0  0  0
 40 41  1  0  0  0  0
 41 42  1  0  0  0  0
 42 43  1  0  0  0  0
 43 44  1  1  0  0  0
 43 46  1  0  0  0  0
 45 44  1  0  0  0  0
 46 47  1  6  0  0  0
 46 49  1  0  0  0  0
 48 51  1  0  0  0  0
 49 48  1  0  0  0  0
 50 49  1  0  0  0  0
 50 52  1  0  0  0  0
 52 53  1  6  0  0  0
 52 51  1  0  0  0  0
 55 54  2  0  0  0  0
 55 53  1  0  0  0  0
 56 57  1  1  0  0  0
 56 55  1  0  0  0  0
 58 59  1  0  0  0  0
 59 56  1  0  0  0  0
M  END
>  <MODEL>
3

>  <REMARK>
 VINA RESULT:      -6.3      1.873      3.240
  Name = 
  19 active torsions:
  status: ('A' for Active; 'I' for Inactive)
    1  A    between atoms: C_2  and  O_26
    2  A    between atoms: C_3  and  N_45
    3  A    between atoms: C_4  and  C_21
    4  A    between atoms: C_6  and  O_38
    5  A    between atoms: C_7  and  N_27
    6  A    between atoms: C_7  and  C_29
    7  A    between atoms: C_7  and  C_43
    8  A    between atoms: C_16  and  C_37
    9  A    between atoms: N_17  and  N_27
   10  A    between atoms: N_17  and  C_37
   11  A    between atoms: C_18  and  C_47
   12  A    between atoms: C_18  and  C_56
   13  A    between atoms: C_22  and  S_25
   14  A    between atoms: N_23  and  C_29
   15  A    between atoms: S_25  and  C_59
   16  A    between atoms: O_26  and  C_46
   17  A    between atoms: C_28  and  O_38
   18  A    between atoms: C_36  and  C_53
   19  A    between atoms: C_36  and  C_56
                            x       y       z     vdW  Elec       q    Type
                         _______ _______ _______ _____ _____    ______ ____

>  <TORSDO>
F 19

$$$$
=
 OpenBabel11062422353D

 59 64  0  0  1  0  0  0  0  0999 V2000
  196.9820  174.9810  143.3390 C   0  0  1  0  0  3  0  0  0  0  0  0
  197.0690  170.4720  145.5400 N   0  0  0  0  0  0  0  0  0  0  0  0
  195.3220  174.9810  145.2770 C   0  0  2  0  0  3  0  0  0  0  0  0
  196.1640  173.9910  145.8600 O   0  0  0  0  0  0  0  0  0  0  0  0
  196.5380  172.5780  143.8470 C   0  0  0  0  0  0  0  0  0  0  0  0
  197.0950  170.2950  144.1950 C   0  0  0  0  0  3  0  0  0  0  0  0
  196.4780  172.7700  145.2490 C   0  0  0  0  0  0  0  0  0  0  0  0
  196.0430  175.8140  144.2110 C   0  0  2  0  0  3  0  0  0  0  0  0
  196.2960  173.6980  142.8620 C   0  0  2  0  0  3  0  0  0  0  0  0
  197.4440  175.7470  142.2800 F   0  0  0  0  0  0  0  0  0  0  0  0
  196.7700  171.6830  146.0740 C   0  0  0  0  0  3  0  0  0  0  0  0
  195.0970  176.4650  143.4150 O   0  0  0  0  0  1  0  0  0  0  0  0
  196.8350  171.3390  143.3650 N   0  0  0  0  0  0  0  0  0  0  0  0
  196.7660  173.3400  141.5900 O   0  0  0  0  0  0  0  0  0  0  0  0
  195.7990  173.8060  140.6940 C   0  0  2  0  0  3  0  0  0  0  0  0
  194.4800  173.1490  140.9920 C   0  0  0  0  0  3  0  0  0  0  0  0
  196.2430  173.4970  139.2580 C   0  0  0  0  0  2  0  0  0  0  0  0
  196.0560  172.0350  138.9440 C   0  0  0  0  0  0  0  0  0  0  0  0
  195.0780  171.3690  139.4890 N   0  0  0  0  0  0  0  0  0  0  0  0
  194.1850  171.9650  140.4430 C   0  0  0  0  0  0  0  0  0  0  0  0
  192.8670  170.1830  141.9220 O   0  0  0  0  0  0  0  0  0  0  0  0
  192.1940  170.4510  139.5770 O   0  0  0  0  0  0  0  0  0  0  0  0
  192.6610  171.1720  140.8110 S   0  0  0  0  0  0  0  0  0  0  0  0
  191.0420  173.3550  140.4910 C   0  0  0  0  0  0  0  0  0  0  0  0
  188.4570  172.7320  142.0350 C   0  0  0  0  0  0  0  0  0  0  0  0
  187.1230  172.3760  142.1770 O   0  0  0  0  0  1  0  0  0  0  0  0
  191.4690  172.3760  141.3080 C   0  0  0  0  0  0  0  0  0  0  0  0
  190.0880  174.3860  141.0090 C   0  0  0  0  0  2  0  0  0  0  0  0
  189.4790  171.8360  142.7030 C   0  0  0  0  0  2  0  0  0  0  0  0
  190.9310  172.3110  142.7060 C   0  0  0  0  0  2  0  0  0  0  0  0
  188.7310  173.8060  141.2770 C   0  0  0  0  0  3  0  0  0  0  0  0
  191.3980  173.1640  137.6700 C   0  0  1  0  0  3  0  0  0  0  0  0
  192.3940  174.0130  138.1020 C   0  0  0  0  0  2  0  0  0  0  0  0
  191.4740  173.4550  139.1340 N   0  0  0  0  0  0  0  0  0  0  0  0
  189.6020  173.1680  135.9670 C   0  0  0  0  0  1  0  0  0  0  0  0
  190.2680  173.9710  137.0640 C   0  0  0  0  0  2  0  0  0  0  0  0
  196.9110  171.4260  138.0220 O   0  0  0  0  0  0  0  0  0  0  0  0
  196.4670  170.9490  136.7560 C   0  0  0  0  0  2  0  0  0  0  0  0
  196.0110  172.0150  135.9790 O   0  0  0  0  0  1  0  0  0  0  0  0
  194.7550  175.8750  146.3740 C   0  0  0  0  0  2  0  0  0  0  0  0
  193.5390  176.5370  145.9180 N   0  0  0  0  0  2  0  0  0  0  0  0
  192.4850  175.6200  146.0470 N   0  0  0  0  0  2  0  0  0  0  0  0
  191.2250  176.3600  145.9800 C   0  0  2  0  0  3  0  0  0  0  0  0
  190.4370  176.2150  147.2780 C   0  0  0  0  0  2  0  0  0  0  0  0
  191.1660  175.4570  148.1940 O   0  0  0  0  0  1  0  0  0  0  0  0
  190.4000  175.9190  144.7610 C   0  0  1  0  0  3  0  0  0  0  0  0
  189.6250  174.6620  145.1500 C   0  0  0  0  0  1  0  0  0  0  0  0
  189.9660  177.4680  143.0100 C   0  0  0  0  0  2  0  0  0  0  0  0
  189.4980  176.9900  144.3030 N   0  0  0  0  0  0  0  0  0  0  0  0
  188.2560  176.4660  144.0760 O   0  0  0  0  0  0  0  0  0  0  0  0
  188.7350  177.8900  142.2750 C   0  0  0  0  0  2  0  0  0  0  0  0
  187.6450  177.3190  143.1390 C   0  0  2  0  0  3  0  0  0  0  0  0
  186.9210  178.4540  143.8560 C   0  0  0  0  0  2  0  0  0  0  0  0
  185.2980  176.8740  144.4820 O   0  0  0  0  0  0  0  0  0  0  0  0
  185.8550  177.9220  144.7700 C   0  0  0  0  0  0  0  0  0  0  0  0
  185.4280  178.6600  146.0100 C   0  0  1  0  0  3  0  0  0  0  0  0
  184.0460  178.8680  145.9820 O   0  0  0  0  0  1  0  0  0  0  0  0
  186.7410  178.6820  148.0070 O   0  0  0  0  0  1  0  0  0  0  0  0
  185.8070  177.9300  147.2930 C   0  0  0  0  0  2  0  0  0  0  0  0
  1 10  1  6  0  0  0
  1  8  1  0  0  0  0
  2 11  1  0  0  0  0
  3  4  1  0  0  0  0
  3 40  1  1  0  0  0
  5  7  1  0  0  0  0
  6  2  2  0  0  0  0
  7  4  1  0  0  0  0
  7 11  2  0  0  0  0
  8 12  1  6  0  0  0
  8  3  1  0  0  0  0
  9 14  1  6  0  0  0
  9  1  1  0  0  0  0
  9  5  1  0  0  0  0
 13  5  2  0  0  0  0
 13  6  1  0  0  0  0
 15 16  1  0  0  0  0
 15 14  1  1  0  0  0
 17 15  1  0  0  0  0
 18 17  1  0  0  0  0
 18 19  2  0  0  0  0
 19 20  1  0  0  0  0
 20 23  1  0  0  0  0
 20 16  2  0  0  0  0
 22 23  2  0  0  0  0
 23 27  1  0  0  0  0
 23 21  2  0  0  0  0
 24 28  1  0  0  0  0
 24 27  2  0  0  0  0
 25 26  1  0  0  0  0
 25 29  1  0  0  0  0
 27 30  1  0  0  0  0
 28 31  1  0  0  0  0
 29 30  1  0  0  0  0
 31 25  2  0  0  0  0
 32 36  1  6  0  0  0
 32 33  1  0  0  0  0
 32 34  1  0  0  0  0
 33 34  1  0  0  0  0
 34 24  1  0  0  0  0
 35 36  1  0  0  0  0
 37 18  1  0  0  0  0
 38 37  1  0  0  0  0
 39 38  1  0  0  0  0
 41 42  1  0  0  0  0
 41 40  1  0  0  0  0
 43 42  1  0  0  0  0
 43 44  1  1  0  0  0
 44 45  1  0  0  0  0
 46 47  1  1  0  0  0
 46 43  1  0  0  0  0
 48 49  1  0  0  0  0
 49 46  1  0  0  0  0
 50 49  1  0  0  0  0
 51 48  1  0  0  0  0
 51 52  1  0  0  0  0
 52 53  1  1  0  0  0
 52 50  1  0  0  0  0
 53 55  1  0  0  0  0
 54 55  2  0  0  0  0
 55 56  1  0  0  0  0
 56 57  1  6  0  0  0
 56 59  1  0  0  0  0
 59 58  1  0  0  0  0
M  END
>  <MODEL>
4

>  <REMARK>
 VINA RESULT:      -6.3      2.412      6.479
  Name = 
  19 active torsions:
  status: ('A' for Active; 'I' for Inactive)
    1  A    between atoms: C_2  and  O_26
    2  A    between atoms: C_3  and  N_45
    3  A    between atoms: C_4  and  C_21
    4  A    between atoms: C_6  and  O_38
    5  A    between atoms: C_7  and  N_27
    6  A    between atoms: C_7  and  C_29
    7  A    between atoms: C_7  and  C_43
    8  A    between atoms: C_16  and  C_37
    9  A    between atoms: N_17  and  N_27
   10  A    between atoms: N_17  and  C_37
   11  A    between atoms: C_18  and  C_47
   12  A    between atoms: C_18  and  C_56
   13  A    between atoms: C_22  and  S_25
   14  A    between atoms: N_23  and  C_29
   15  A    between atoms: S_25  and  C_59
   16  A    between atoms: O_26  and  C_46
   17  A    between atoms: C_28  and  O_38
   18  A    between atoms: C_36  and  C_53
   19  A    between atoms: C_36  and  C_56
                            x       y       z     vdW  Elec       q    Type
                         _______ _______ _______ _____ _____    ______ ____

>  <TORSDO>
F 19

$$$$
=
 OpenBabel11062422353D

 59 64  0  0  1  0  0  0  0  0999 V2000
  188.2530  172.7990  141.8650 C   0  0  1  0  0  3  0  0  0  0  0  0
  189.2300  173.2030  136.9600 N   0  0  0  0  0  0  0  0  0  0  0  0
  188.5870  175.2630  141.2950 C   0  0  2  0  0  3  0  0  0  0  0  0
  188.1360  174.9140  139.9900 O   0  0  0  0  0  0  0  0  0  0  0  0
  189.4560  172.8280  139.6780 C   0  0  0  0  0  0  0  0  0  0  0  0
  189.9270  172.1480  137.4520 C   0  0  0  0  0  3  0  0  0  0  0  0
  188.7510  173.9500  139.1790 C   0  0  0  0  0  0  0  0  0  0  0  0
  188.1630  174.2430  142.3570 C   0  0  2  0  0  3  0  0  0  0  0  0
  189.5850  172.5410  141.1560 C   0  0  2  0  0  3  0  0  0  0  0  0
  188.0520  171.9270  142.9240 F   0  0  0  0  0  0  0  0  0  0  0  0
  188.6440  174.0970  137.7950 C   0  0  0  0  0  3  0  0  0  0  0  0
  188.9490  174.4120  143.5000 O   0  0  0  0  0  1  0  0  0  0  0  0
  190.0320  171.9660  138.7940 N   0  0  0  0  0  0  0  0  0  0  0  0
  189.9970  171.2160  141.3620 O   0  0  0  0  0  0  0  0  0  0  0  0
  190.8890  171.2700  142.4380 C   0  0  2  0  0  3  0  0  0  0  0  0
  191.6940  172.5360  142.3610 C   0  0  0  0  0  3  0  0  0  0  0  0
  191.8100  170.0430  142.3980 C   0  0  0  0  0  2  0  0  0  0  0  0
  192.8540  170.1920  141.3220 C   0  0  0  0  0  0  0  0  0  0  0  0
  193.3150  171.3730  141.0170 N   0  0  0  0  0  0  0  0  0  0  0  0
  192.8180  172.5700  141.6360 C   0  0  0  0  0  0  0  0  0  0  0  0
  193.4940  174.9080  142.7200 O   0  0  0  0  0  0  0  0  0  0  0  0
  193.3060  174.7890  140.2760 O   0  0  0  0  0  0  0  0  0  0  0  0
  193.7490  174.0550  141.5110 S   0  0  0  0  0  0  0  0  0  0  0  0
  196.1540  173.1350  142.4390 C   0  0  0  0  0  0  0  0  0  0  0  0
  197.5080  171.7370  140.0590 C   0  0  0  0  0  0  0  0  0  0  0  0
  197.9400  170.6530  139.3070 O   0  0  0  0  0  1  0  0  0  0  0  0
  195.4710  173.6710  141.4130 C   0  0  0  0  0  0  0  0  0  0  0  0
  197.6280  172.9100  142.3080 C   0  0  0  0  0  2  0  0  0  0  0  0
  196.5410  172.6920  139.3900 C   0  0  0  0  0  2  0  0  0  0  0  0
  196.1980  173.9780  140.1390 C   0  0  0  0  0  2  0  0  0  0  0  0
  197.9410  171.8200  141.3270 C   0  0  0  0  0  3  0  0  0  0  0  0
  195.2690  172.8840  145.1360 C   0  0  1  0  0  3  0  0  0  0  0  0
  194.5340  171.9570  144.4280 C   0  0  0  0  0  2  0  0  0  0  0  0
  195.5220  172.7740  143.6680 N   0  0  0  0  0  0  0  0  0  0  0  0
  195.2510  175.1550  146.1190 C   0  0  0  0  0  1  0  0  0  0  0  0
  194.4220  174.1110  145.4010 C   0  0  0  0  0  2  0  0  0  0  0  0
  193.3540  169.0460  140.6990 O   0  0  0  0  0  0  0  0  0  0  0  0
  192.7520  168.4710  139.5440 C   0  0  0  0  0  2  0  0  0  0  0  0
  193.4680  168.8340  138.4020 O   0  0  0  0  0  1  0  0  0  0  0  0
  188.0840  176.6580  141.6490 C   0  0  0  0  0  2  0  0  0  0  0  0
  186.6360  176.7320  141.5040 N   0  0  0  0  0  2  0  0  0  0  0  0
  186.0730  176.5040  142.7690 N   0  0  0  0  0  2  0  0  0  0  0  0
  185.3380  177.7050  143.1660 C   0  0  2  0  0  3  0  0  0  0  0  0
  184.5800  178.2970  141.9820 C   0  0  0  0  0  2  0  0  0  0  0  0
  183.2070  178.2150  142.2080 O   0  0  0  0  0  1  0  0  0  0  0  0
  186.2840  178.7330  143.8080 C   0  0  1  0  0  3  0  0  0  0  0  0
  185.5340  180.0590  143.9070 C   0  0  0  0  0  1  0  0  0  0  0  0
  185.6020  177.8990  145.9280 C   0  0  0  0  0  2  0  0  0  0  0  0
  186.7570  178.2800  145.1280 N   0  0  0  0  0  0  0  0  0  0  0  0
  187.4940  177.1390  144.9740 O   0  0  0  0  0  0  0  0  0  0  0  0
  186.0830  176.7970  146.8160 C   0  0  0  0  0  2  0  0  0  0  0  0
  187.4160  176.4630  146.2060 C   0  0  2  0  0  3  0  0  0  0  0  0
  188.5300  176.9330  147.1350 C   0  0  0  0  0  2  0  0  0  0  0  0
  189.3780  174.7930  147.6090 O   0  0  0  0  0  0  0  0  0  0  0  0
  189.6350  175.9200  147.2090 C   0  0  0  0  0  0  0  0  0  0  0  0
  191.0540  176.2580  146.8420 C   0  0  1  0  0  3  0  0  0  0  0  0
  191.9300  175.3720  147.4760 O   0  0  0  0  0  1  0  0  0  0  0  0
  191.1030  177.5020  144.8020 O   0  0  0  0  0  1  0  0  0  0  0  0
  191.2990  176.2290  145.3380 C   0  0  0  0  0  2  0  0  0  0  0  0
  1  8  1  0  0  0  0
  1 10  1  1  0  0  0
  2  6  2  0  0  0  0
  2 11  1  0  0  0  0
  3 40  1  1  0  0  0
  3  8  1  0  0  0  0
  4  3  1  0  0  0  0
  5  9  1  0  0  0  0
  6 13  1  0  0  0  0
  7  5  1  0  0  0  0
  7  4  1  0  0  0  0
  8 12  1  1  0  0  0
  9 14  1  6  0  0  0
  9  1  1  0  0  0  0
 11  7  2  0  0  0  0
 13  5  2  0  0  0  0
 15 14  1  6  0  0  0
 16 15  1  0  0  0  0
 17 15  1  0  0  0  0
 18 17  1  0  0  0  0
 19 18  2  0  0  0  0
 19 20  1  0  0  0  0
 20 16  2  0  0  0  0
 22 23  2  0  0  0  0
 23 20  1  0  0  0  0
 23 21  2  0  0  0  0
 24 34  1  0  0  0  0
 25 31  2  0  0  0  0
 26 25  1  0  0  0  0
 27 23  1  0  0  0  0
 27 24  2  0  0  0  0
 28 24  1  0  0  0  0
 29 25  1  0  0  0  0
 29 30  1  0  0  0  0
 30 27  1  0  0  0  0
 31 28  1  0  0  0  0
 32 36  1  6  0  0  0
 33 32  1  0  0  0  0
 34 33  1  0  0  0  0
 34 32  1  0  0  0  0
 36 35  1  0  0  0  0
 37 18  1  0  0  0  0
 38 37  1  0  0  0  0
 39 38  1  0  0  0  0
 41 40  1  0  0  0  0
 41 42  1  0  0  0  0
 42 43  1  0  0  0  0
 43 44  1  6  0  0  0
 43 46  1  0  0  0  0
 44 45  1  0  0  0  0
 46 47  1  1  0  0  0
 46 49  1  0  0  0  0
 48 51  1  0  0  0  0
 49 48  1  0  0  0  0
 50 49  1  0  0  0  0
 50 52  1  0  0  0  0
 52 51  1  0  0  0  0
 52 53  1  1  0  0  0
 53 55  1  0  0  0  0
 55 54  2  0  0  0  0
 56 55  1  0  0  0  0
 56 57  1  1  0  0  0
 58 59  1  0  0  0  0
 59 56  1  0  0  0  0
M  END
>  <MODEL>
5

>  <REMARK>
 VINA RESULT:      -6.1      2.263      4.631
  Name = 
  19 active torsions:
  status: ('A' for Active; 'I' for Inactive)
    1  A    between atoms: C_2  and  O_26
    2  A    between atoms: C_3  and  N_45
    3  A    between atoms: C_4  and  C_21
    4  A    between atoms: C_6  and  O_38
    5  A    between atoms: C_7  and  N_27
    6  A    between atoms: C_7  and  C_29
    7  A    between atoms: C_7  and  C_43
    8  A    between atoms: C_16  and  C_37
    9  A    between atoms: N_17  and  N_27
   10  A    between atoms: N_17  and  C_37
   11  A    between atoms: C_18  and  C_47
   12  A    between atoms: C_18  and  C_56
   13  A    between atoms: C_22  and  S_25
   14  A    between atoms: N_23  and  C_29
   15  A    between atoms: S_25  and  C_59
   16  A    between atoms: O_26  and  C_46
   17  A    between atoms: C_28  and  O_38
   18  A    between atoms: C_36  and  C_53
   19  A    between atoms: C_36  and  C_56
                            x       y       z     vdW  Elec       q    Type
                         _______ _______ _______ _____ _____    ______ ____

>  <TORSDO>
F 19

$$$$
=
 OpenBabel11062422353D

 59 64  0  0  1  0  0  0  0  0999 V2000
  192.8060  176.3360  144.8270 C   0  0  1  0  0  3  0  0  0  0  0  0
  188.5760  175.3300  147.3330 N   0  0  0  0  0  0  0  0  0  0  0  0
  190.8360  177.3350  143.5480 C   0  0  2  0  0  3  0  0  0  0  0  0
  190.1920  177.4180  144.8150 O   0  0  0  0  0  0  0  0  0  0  0  0
  190.7780  175.1620  145.6880 C   0  0  0  0  0  0  0  0  0  0  0  0
  189.3540  174.2190  147.3380 C   0  0  0  0  0  3  0  0  0  0  0  0
  189.9570  176.3170  145.6510 C   0  0  0  0  0  0  0  0  0  0  0  0
  192.3610  177.2290  143.6690 C   0  0  2  0  0  3  0  0  0  0  0  0
  192.0220  175.0210  144.8410 C   0  0  2  0  0  3  0  0  0  0  0  0
  194.1740  176.1220  144.7590 F   0  0  0  0  0  0  0  0  0  0  0  0
  188.8600  176.3710  146.5110 C   0  0  0  0  0  3  0  0  0  0  0  0
  192.8880  176.7540  142.4650 O   0  0  0  0  0  1  0  0  0  0  0  0
  190.4410  174.1430  146.5270 N   0  0  0  0  0  0  0  0  0  0  0  0
  192.8260  173.9800  145.3250 O   0  0  0  0  0  0  0  0  0  0  0  0
  193.5090  173.4900  144.2080 C   0  0  2  0  0  3  0  0  0  0  0  0
  192.5190  173.0030  143.1880 C   0  0  0  0  0  3  0  0  0  0  0  0
  194.4420  172.3500  144.6390 C   0  0  0  0  0  2  0  0  0  0  0  0
  193.6590  171.0920  144.9090 C   0  0  0  0  0  0  0  0  0  0  0  0
  192.5780  170.8360  144.2280 N   0  0  0  0  0  0  0  0  0  0  0  0
  192.0540  171.7500  143.2520 C   0  0  0  0  0  0  0  0  0  0  0  0
  189.4910  171.5310  142.5610 O   0  0  0  0  0  0  0  0  0  0  0  0
  191.0000  169.6870  141.9710 O   0  0  0  0  0  0  0  0  0  0  0  0
  190.8720  171.1810  142.0850 S   0  0  0  0  0  0  0  0  0  0  0  0
  192.2920  171.7420  139.8140 C   0  0  0  0  0  0  0  0  0  0  0  0
  190.2250  171.9490  137.5450 C   0  0  0  0  0  0  0  0  0  0  0  0
  189.5350  171.5210  136.4200 O   0  0  0  0  0  1  0  0  0  0  0  0
  191.1660  171.9450  140.5190 C   0  0  0  0  0  0  0  0  0  0  0  0
  192.5040  172.4850  138.5310 C   0  0  0  0  0  2  0  0  0  0  0  0
  189.4020  172.2330  138.7850 C   0  0  0  0  0  2  0  0  0  0  0  0
  190.1220  172.8710  139.9710 C   0  0  0  0  0  2  0  0  0  0  0  0
  191.5630  172.0250  137.4580 C   0  0  0  0  0  3  0  0  0  0  0  0
  193.8700  169.4910  140.5610 C   0  0  1  0  0  3  0  0  0  0  0  0
  194.7000  170.5810  140.7170 C   0  0  0  0  0  2  0  0  0  0  0  0
  193.3100  170.8400  140.2470 N   0  0  0  0  0  0  0  0  0  0  0  0
  195.7020  168.6170  139.1450 C   0  0  0  0  0  1  0  0  0  0  0  0
  194.2020  168.7800  139.2650 C   0  0  0  0  0  2  0  0  0  0  0  0
  194.1410  170.1840  145.8560 O   0  0  0  0  0  0  0  0  0  0  0  0
  195.3950  169.5230  145.7220 C   0  0  0  0  0  2  0  0  0  0  0  0
  196.3220  170.0780  146.6040 O   0  0  0  0  0  1  0  0  0  0  0  0
  190.4410  178.5360  142.6980 C   0  0  0  0  0  2  0  0  0  0  0  0
  189.2190  178.2570  141.9540 N   0  0  0  0  0  2  0  0  0  0  0  0
  188.9350  176.8910  142.1050 N   0  0  0  0  0  2  0  0  0  0  0  0
  187.5670  176.6550  141.6450 C   0  0  2  0  0  3  0  0  0  0  0  0
  187.4900  175.3990  140.7830 C   0  0  0  0  0  2  0  0  0  0  0  0
  187.5120  174.2650  141.5940 O   0  0  0  0  0  1  0  0  0  0  0  0
  187.0220  177.8880  140.9050 C   0  0  1  0  0  3  0  0  0  0  0  0
  186.6580  177.4580  139.4860 C   0  0  0  0  0  1  0  0  0  0  0  0
  184.7220  178.4560  140.7050 C   0  0  0  0  0  2  0  0  0  0  0  0
  185.8650  178.4710  141.6070 N   0  0  0  0  0  0  0  0  0  0  0  0
  185.5210  177.6630  142.6540 O   0  0  0  0  0  0  0  0  0  0  0  0
  183.5270  178.2820  141.5860 C   0  0  0  0  0  2  0  0  0  0  0  0
  184.1580  177.9140  142.9000 C   0  0  2  0  0  3  0  0  0  0  0  0
  184.0040  179.0740  143.8780 C   0  0  0  0  0  2  0  0  0  0  0  0
  185.9410  179.4940  145.1420 O   0  0  0  0  0  0  0  0  0  0  0  0
  184.8830  178.8850  145.0810 C   0  0  0  0  0  0  0  0  0  0  0  0
  184.5170  177.9430  146.1950 C   0  0  1  0  0  3  0  0  0  0  0  0
  185.1570  176.7150  146.0030 O   0  0  0  0  0  1  0  0  0  0  0  0
  185.9300  177.7650  148.1150 O   0  0  0  0  0  1  0  0  0  0  0  0
  184.8680  178.4910  147.5730 C   0  0  0  0  0  2  0  0  0  0  0  0
  1 10  1  6  0  0  0
  1  9  1  0  0  0  0
  2  6  1  0  0  0  0
  3 40  1  6  0  0  0
  3  8  1  0  0  0  0
  3  4  1  0  0  0  0
  4  7  1  0  0  0  0
  5 13  1  0  0  0  0
  7  5  2  0  0  0  0
  7 11  1  0  0  0  0
  8 12  1  6  0  0  0
  8  1  1  0  0  0  0
  9 14  1  1  0  0  0
  9  5  1  0  0  0  0
 11  2  2  0  0  0  0
 13  6  2  0  0  0  0
 15 17  1  0  0  0  0
 15 14  1  1  0  0  0
 16 20  2  0  0  0  0
 16 15  1  0  0  0  0
 17 18  1  0  0  0  0
 18 37  1  0  0  0  0
 19 18  2  0  0  0  0
 20 19  1  0  0  0  0
 22 23  2  0  0  0  0
 23 21  2  0  0  0  0
 23 20  1  0  0  0  0
 24 34  1  0  0  0  0
 24 27  2  0  0  0  0
 25 29  1  0  0  0  0
 26 25  1  0  0  0  0
 27 23  1  0  0  0  0
 28 24  1  0  0  0  0
 29 30  1  0  0  0  0
 30 27  1  0  0  0  0
 31 25  2  0  0  0  0
 31 28  1  0  0  0  0
 32 36  1  6  0  0  0
 32 33  1  0  0  0  0
 34 32  1  0  0  0  0
 34 33  1  0  0  0  0
 35 36  1  0  0  0  0
 38 37  1  0  0  0  0
 38 39  1  0  0  0  0
 41 42  1  0  0  0  0
 41 40  1  0  0  0  0
 43 44  1  6  0  0  0
 43 42  1  0  0  0  0
 44 45  1  0  0  0  0
 46 47  1  6  0  0  0
 46 49  1  0  0  0  0
 46 43  1  0  0  0  0
 48 51  1  0  0  0  0
 48 49  1  0  0  0  0
 49 50  1  0  0  0  0
 50 52  1  0  0  0  0
 51 52  1  0  0  0  0
 52 53  1  1  0  0  0
 53 55  1  0  0  0  0
 55 54  2  0  0  0  0
 55 56  1  0  0  0  0
 56 57  1  6  0  0  0
 56 59  1  0  0  0  0
 59 58  1  0  0  0  0
M  END
>  <MODEL>
6

>  <REMARK>
 VINA RESULT:      -6.1      3.072      6.711
  Name = 
  19 active torsions:
  status: ('A' for Active; 'I' for Inactive)
    1  A    between atoms: C_2  and  O_26
    2  A    between atoms: C_3  and  N_45
    3  A    between atoms: C_4  and  C_21
    4  A    between atoms: C_6  and  O_38
    5  A    between atoms: C_7  and  N_27
    6  A    between atoms: C_7  and  C_29
    7  A    between atoms: C_7  and  C_43
    8  A    between atoms: C_16  and  C_37
    9  A    between atoms: N_17  and  N_27
   10  A    between atoms: N_17  and  C_37
   11  A    between atoms: C_18  and  C_47
   12  A    between atoms: C_18  and  C_56
   13  A    between atoms: C_22  and  S_25
   14  A    between atoms: N_23  and  C_29
   15  A    between atoms: S_25  and  C_59
   16  A    between atoms: O_26  and  C_46
   17  A    between atoms: C_28  and  O_38
   18  A    between atoms: C_36  and  C_53
   19  A    between atoms: C_36  and  C_56
                            x       y       z     vdW  Elec       q    Type
                         _______ _______ _______ _____ _____    ______ ____

>  <TORSDO>
F 19

$$$$
=
 OpenBabel11062422353D

 59 64  0  0  1  0  0  0  0  0999 V2000
  191.2200  170.6770  138.5010 C   0  0  1  0  0  3  0  0  0  0  0  0
  192.6990  174.8110  136.0710 N   0  0  0  0  0  0  0  0  0  0  0  0
  190.1780  172.7120  139.6330 C   0  0  2  0  0  3  0  0  0  0  0  0
  190.2680  173.3370  138.3570 O   0  0  0  0  0  0  0  0  0  0  0  0
  192.5770  172.6340  137.7530 C   0  0  0  0  0  0  0  0  0  0  0  0
  193.7660  173.9840  136.2020 C   0  0  0  0  0  3  0  0  0  0  0  0
  191.4660  173.5060  137.6490 C   0  0  0  0  0  0  0  0  0  0  0  0
  190.2250  171.1830  139.5450 C   0  0  2  0  0  3  0  0  0  0  0  0
  192.5640  171.4000  138.6260 C   0  0  2  0  0  3  0  0  0  0  0  0
  191.3600  169.3020  138.6110 F   0  0  0  0  0  0  0  0  0  0  0  0
  191.5600  174.5890  136.7730 C   0  0  0  0  0  3  0  0  0  0  0  0
  190.5360  170.6560  140.8010 O   0  0  0  0  0  1  0  0  0  0  0  0
  193.6990  172.9090  137.0300 N   0  0  0  0  0  0  0  0  0  0  0  0
  193.6140  170.5410  138.2730 O   0  0  0  0  0  0  0  0  0  0  0  0
  194.1370  170.0800  139.4850 C   0  0  2  0  0  3  0  0  0  0  0  0
  194.1710  171.2070  140.4780 C   0  0  0  0  0  3  0  0  0  0  0  0
  195.5490  169.5250  139.2520 C   0  0  0  0  0  2  0  0  0  0  0  0
  196.5410  170.6450  139.0690 C   0  0  0  0  0  0  0  0  0  0  0  0
  196.3720  171.7760  139.6940 N   0  0  0  0  0  0  0  0  0  0  0  0
  195.2250  172.0290  140.5210 C   0  0  0  0  0  0  0  0  0  0  0  0
  193.8600  173.6890  142.0950 O   0  0  0  0  0  0  0  0  0  0  0  0
  195.8530  174.5630  140.9600 O   0  0  0  0  0  0  0  0  0  0  0  0
  195.2600  173.3700  141.6560 S   0  0  0  0  0  0  0  0  0  0  0  0
  196.4300  173.7680  144.0970 C   0  0  0  0  0  0  0  0  0  0  0  0
  196.2820  171.0690  145.5640 C   0  0  0  0  0  0  0  0  0  0  0  0
  195.7980  170.1590  146.4930 O   0  0  0  0  0  1  0  0  0  0  0  0
  196.2340  172.9330  143.0630 C   0  0  0  0  0  0  0  0  0  0  0  0
  197.3320  173.3570  145.2190 C   0  0  0  0  0  2  0  0  0  0  0  0
  196.1930  170.6720  144.1050 C   0  0  0  0  0  2  0  0  0  0  0  0
  196.8820  171.5810  143.0890 C   0  0  0  0  0  2  0  0  0  0  0  0
  196.7400  172.2420  146.0300 C   0  0  0  0  0  3  0  0  0  0  0  0
  194.6920  175.9950  144.4730 C   0  0  1  0  0  3  0  0  0  0  0  0
  195.8640  176.5310  143.9860 C   0  0  0  0  0  2  0  0  0  0  0  0
  195.8100  175.0530  144.1660 N   0  0  0  0  0  0  0  0  0  0  0  0
  193.3030  175.6720  146.4960 C   0  0  0  0  0  1  0  0  0  0  0  0
  194.6200  176.2040  145.9720 C   0  0  0  0  0  2  0  0  0  0  0  0
  197.6640  170.4310  138.2670 O   0  0  0  0  0  0  0  0  0  0  0  0
  197.8710  171.1090  137.0320 C   0  0  0  0  0  2  0  0  0  0  0  0
  196.6770  171.1600  136.3110 O   0  0  0  0  0  1  0  0  0  0  0  0
  188.9080  173.1770  140.3370 C   0  0  0  0  0  2  0  0  0  0  0  0
  189.0630  174.5410  140.8250 N   0  0  0  0  0  2  0  0  0  0  0  0
  189.9890  174.5100  141.8790 N   0  0  0  0  0  2  0  0  0  0  0  0
  189.9020  175.7780  142.6010 C   0  0  2  0  0  3  0  0  0  0  0  0
  191.2400  176.1330  143.2440 C   0  0  0  0  0  2  0  0  0  0  0  0
  191.6040  177.4330  142.8960 O   0  0  0  0  0  1  0  0  0  0  0  0
  188.7660  175.7390  143.6350 C   0  0  1  0  0  3  0  0  0  0  0  0
  189.3700  175.3430  144.9800 C   0  0  0  0  0  1  0  0  0  0  0  0
  188.1540  177.6900  142.4220 C   0  0  0  0  0  2  0  0  0  0  0  0
  188.0650  177.0330  143.7180 N   0  0  0  0  0  0  0  0  0  0  0  0
  186.7340  176.8110  143.9300 O   0  0  0  0  0  0  0  0  0  0  0  0
  186.8950  178.4850  142.2950 C   0  0  0  0  0  2  0  0  0  0  0  0
  186.0710  177.9490  143.4330 C   0  0  2  0  0  3  0  0  0  0  0  0
  185.9620  179.0100  144.5220 C   0  0  0  0  0  2  0  0  0  0  0  0
  183.6910  179.0900  145.1250 O   0  0  0  0  0  0  0  0  0  0  0  0
  184.8120  178.7210  145.4440 C   0  0  0  0  0  0  0  0  0  0  0  0
  185.0040  178.0240  146.7640 C   0  0  1  0  0  3  0  0  0  0  0  0
  184.7920  176.6510  146.6070 O   0  0  0  0  0  1  0  0  0  0  0  0
  187.1720  177.1200  147.2030 O   0  0  0  0  0  1  0  0  0  0  0  0
  186.3850  178.2610  147.3630 C   0  0  0  0  0  2  0  0  0  0  0  0
  1 10  1  1  0  0  0
  1  9  1  0  0  0  0
  1  8  1  0  0  0  0
  2  6  2  0  0  0  0
  2 11  1  0  0  0  0
  3 40  1  6  0  0  0
  4  3  1  0  0  0  0
  5  9  1  0  0  0  0
  6 13  1  0  0  0  0
  7  5  1  0  0  0  0
  7  4  1  0  0  0  0
  8  3  1  0  0  0  0
  8 12  1  1  0  0  0
  9 14  1  6  0  0  0
 11  7  2  0  0  0  0
 13  5  2  0  0  0  0
 15 14  1  6  0  0  0
 15 16  1  0  0  0  0
 16 20  2  0  0  0  0
 17 15  1  0  0  0  0
 18 17  1  0  0  0  0
 18 19  2  0  0  0  0
 19 20  1  0  0  0  0
 20 23  1  0  0  0  0
 22 23  2  0  0  0  0
 23 21  2  0  0  0  0
 23 27  1  0  0  0  0
 24 34  1  0  0  0  0
 24 28  1  0  0  0  0
 25 31  2  0  0  0  0
 25 26  1  0  0  0  0
 27 30  1  0  0  0  0
 27 24  2  0  0  0  0
 28 31  1  0  0  0  0
 29 25  1  0  0  0  0
 30 29  1  0  0  0  0
 32 36  1  1  0  0  0
 33 34  1  0  0  0  0
 33 32  1  0  0  0  0
 34 32  1  0  0  0  0
 36 35  1  0  0  0  0
 37 18  1  0  0  0  0
 38 37  1  0  0  0  0
 39 38  1  0  0  0  0
 40 41  1  0  0  0  0
 41 42  1  0  0  0  0
 42 43  1  0  0  0  0
 43 44  1  1  0  0  0
 43 46  1  0  0  0  0
 45 44  1  0  0  0  0
 46 49  1  0  0  0  0
 46 47  1  1  0  0  0
 48 49  1  0  0  0  0
 49 50  1  0  0  0  0
 51 48  1  0  0  0  0
 51 52  1  0  0  0  0
 52 50  1  0  0  0  0
 52 53  1  1  0  0  0
 53 55  1  0  0  0  0
 54 55  2  0  0  0  0
 55 56  1  0  0  0  0
 56 57  1  6  0  0  0
 56 59  1  0  0  0  0
 58 59  1  0  0  0  0
M  END
>  <MODEL>
7

>  <REMARK>
 VINA RESULT:      -6.1      1.699      3.122
  Name = 
  19 active torsions:
  status: ('A' for Active; 'I' for Inactive)
    1  A    between atoms: C_2  and  O_26
    2  A    between atoms: C_3  and  N_45
    3  A    between atoms: C_4  and  C_21
    4  A    between atoms: C_6  and  O_38
    5  A    between atoms: C_7  and  N_27
    6  A    between atoms: C_7  and  C_29
    7  A    between atoms: C_7  and  C_43
    8  A    between atoms: C_16  and  C_37
    9  A    between atoms: N_17  and  N_27
   10  A    between atoms: N_17  and  C_37
   11  A    between atoms: C_18  and  C_47
   12  A    between atoms: C_18  and  C_56
   13  A    between atoms: C_22  and  S_25
   14  A    between atoms: N_23  and  C_29
   15  A    between atoms: S_25  and  C_59
   16  A    between atoms: O_26  and  C_46
   17  A    between atoms: C_28  and  O_38
   18  A    between atoms: C_36  and  C_53
   19  A    between atoms: C_36  and  C_56
                            x       y       z     vdW  Elec       q    Type
                         _______ _______ _______ _____ _____    ______ ____

>  <TORSDO>
F 19

$$$$
=
 OpenBabel11062422353D

 59 64  0  0  1  0  0  0  0  0999 V2000
  195.9970  175.6090  143.3490 C   0  0  1  0  0  3  0  0  0  0  0  0
  197.2300  171.1050  145.1860 N   0  0  0  0  0  0  0  0  0  0  0  0
  194.6720  175.2060  145.4920 C   0  0  2  0  0  3  0  0  0  0  0  0
  195.7580  174.3690  145.8800 O   0  0  0  0  0  0  0  0  0  0  0  0
  196.0780  173.1450  143.7380 C   0  0  0  0  0  0  0  0  0  0  0  0
  197.0870  170.9970  143.8410 C   0  0  0  0  0  3  0  0  0  0  0  0
  196.1950  173.2590  145.1460 C   0  0  0  0  0  0  0  0  0  0  0  0
  195.0630  176.2080  144.4000 C   0  0  2  0  0  3  0  0  0  0  0  0
  195.4930  174.2410  142.8790 C   0  0  2  0  0  3  0  0  0  0  0  0
  196.1490  176.4950  142.2930 F   0  0  0  0  0  0  0  0  0  0  0  0
  196.7990  172.2110  145.8420 C   0  0  0  0  0  3  0  0  0  0  0  0
  193.9070  176.7010  143.7900 O   0  0  0  0  0  1  0  0  0  0  0  0
  196.5200  172.0080  143.1320 N   0  0  0  0  0  0  0  0  0  0  0  0
  195.8250  174.0370  141.5330 O   0  0  0  0  0  0  0  0  0  0  0  0
  194.6820  174.3970  140.8110 C   0  0  2  0  0  3  0  0  0  0  0  0
  193.7020  173.2580  140.8220 C   0  0  0  0  0  3  0  0  0  0  0  0
  195.0780  174.7520  139.3720 C   0  0  0  0  0  2  0  0  0  0  0  0
  195.3800  173.5080  138.5780 C   0  0  0  0  0  0  0  0  0  0  0  0
  194.7420  172.4000  138.8310 N   0  0  0  0  0  0  0  0  0  0  0  0
  193.7850  172.2950  139.8970 C   0  0  0  0  0  0  0  0  0  0  0  0
  192.3990  170.5380  141.3420 O   0  0  0  0  0  0  0  0  0  0  0  0
  193.2960  169.7930  139.1830 O   0  0  0  0  0  0  0  0  0  0  0  0
  192.6660  170.9410  139.9210 S   0  0  0  0  0  0  0  0  0  0  0  0
  190.1210  171.9440  139.8300 C   0  0  0  0  0  0  0  0  0  0  0  0
  189.9070  173.4860  137.1780 C   0  0  0  0  0  0  0  0  0  0  0  0
  189.8540  174.6140  136.3710 O   0  0  0  0  0  1  0  0  0  0  0  0
  191.1490  171.4110  139.1470 C   0  0  0  0  0  0  0  0  0  0  0  0
  188.8380  172.2440  139.1190 C   0  0  0  0  0  2  0  0  0  0  0  0
  191.0340  172.5090  136.9160 C   0  0  0  0  0  2  0  0  0  0  0  0
  191.0010  171.1830  137.6730 C   0  0  0  0  0  2  0  0  0  0  0  0
  188.9890  173.3810  138.1520 C   0  0  0  0  0  3  0  0  0  0  0  0
  190.4410  173.1160  142.4080 C   0  0  1  0  0  3  0  0  0  0  0  0
  190.0610  171.8130  142.6490 C   0  0  0  0  0  2  0  0  0  0  0  0
  190.2030  172.2330  141.2260 N   0  0  0  0  0  0  0  0  0  0  0  0
  189.5340  175.3690  141.9290 C   0  0  0  0  0  1  0  0  0  0  0  0
  189.2490  174.0340  142.5860 C   0  0  0  0  0  2  0  0  0  0  0  0
  196.3080  173.5770  137.5360 O   0  0  0  0  0  0  0  0  0  0  0  0
  195.9270  173.6750  136.1680 C   0  0  0  0  0  2  0  0  0  0  0  0
  194.5350  173.6660  136.0600 O   0  0  0  0  0  1  0  0  0  0  0  0
  194.1220  175.9250  146.7180 C   0  0  0  0  0  2  0  0  0  0  0  0
  192.7050  175.6310  146.8910 N   0  0  0  0  0  2  0  0  0  0  0  0
  191.9850  176.7570  146.4620 N   0  0  0  0  0  2  0  0  0  0  0  0
  190.5590  176.4610  146.5870 C   0  0  2  0  0  3  0  0  0  0  0  0
  190.2260  175.1060  145.9690 C   0  0  0  0  0  2  0  0  0  0  0  0
  189.4640  174.3520  146.8600 O   0  0  0  0  0  1  0  0  0  0  0  0
  189.7140  177.5900  145.9740 C   0  0  1  0  0  3  0  0  0  0  0  0
  190.2820  177.9010  144.5920 C   0  0  0  0  0  1  0  0  0  0  0  0
  187.6820  177.4690  147.2020 C   0  0  0  0  0  2  0  0  0  0  0  0
  188.2890  177.2200  145.9030 N   0  0  0  0  0  0  0  0  0  0  0  0
  187.6510  178.0570  145.0300 O   0  0  0  0  0  0  0  0  0  0  0  0
  186.2650  177.8460  146.9100 C   0  0  0  0  0  2  0  0  0  0  0  0
  186.3000  178.0620  145.4230 C   0  0  2  0  0  3  0  0  0  0  0  0
  185.5460  176.9320  144.7300 C   0  0  0  0  0  2  0  0  0  0  0  0
  186.2800  176.0120  142.6960 O   0  0  0  0  0  0  0  0  0  0  0  0
  185.7600  176.9720  143.2440 C   0  0  0  0  0  0  0  0  0  0  0  0
  185.3880  178.1730  142.4170 C   0  0  1  0  0  3  0  0  0  0  0  0
  186.2930  178.3170  141.3610 O   0  0  0  0  0  1  0  0  0  0  0  0
  183.9530  178.5290  140.5400 O   0  0  0  0  0  1  0  0  0  0  0  0
  183.9690  178.0960  141.8660 C   0  0  0  0  0  2  0  0  0  0  0  0
  1 10  1  6  0  0  0
  1  8  1  0  0  0  0
  2 11  1  0  0  0  0
  3  4  1  0  0  0  0
  3 40  1  1  0  0  0
  5  7  1  0  0  0  0
  6  2  2  0  0  0  0
  7 11  2  0  0  0  0
  7  4  1  0  0  0  0
  8 12  1  6  0  0  0
  8  3  1  0  0  0  0
  9 14  1  6  0  0  0
  9  1  1  0  0  0  0
  9  5  1  0  0  0  0
 13  5  2  0  0  0  0
 13  6  1  0  0  0  0
 15 16  1  0  0  0  0
 15 14  1  1  0  0  0
 17 15  1  0  0  0  0
 18 19  2  0  0  0  0
 18 17  1  0  0  0  0
 19 20  1  0  0  0  0
 20 23  1  0  0  0  0
 20 16  2  0  0  0  0
 22 23  2  0  0  0  0
 23 21  2  0  0  0  0
 24 34  1  0  0  0  0
 25 31  2  0  0  0  0
 26 25  1  0  0  0  0
 27 24  2  0  0  0  0
 27 23  1  0  0  0  0
 28 24  1  0  0  0  0
 29 25  1  0  0  0  0
 29 30  1  0  0  0  0
 30 27  1  0  0  0  0
 31 28  1  0  0  0  0
 32 36  1  6  0  0  0
 32 33  1  0  0  0  0
 34 32  1  0  0  0  0
 34 33  1  0  0  0  0
 35 36  1  0  0  0  0
 37 18  1  0  0  0  0
 38 37  1  0  0  0  0
 39 38  1  0  0  0  0
 40 41  1  0  0  0  0
 42 43  1  0  0  0  0
 42 41  1  0  0  0  0
 43 44  1  6  0  0  0
 44 45  1  0  0  0  0
 46 47  1  6  0  0  0
 46 43  1  0  0  0  0
 49 46  1  0  0  0  0
 49 48  1  0  0  0  0
 50 52  1  0  0  0  0
 50 49  1  0  0  0  0
 51 48  1  0  0  0  0
 52 53  1  6  0  0  0
 52 51  1  0  0  0  0
 54 55  2  0  0  0  0
 55 53  1  0  0  0  0
 56 57  1  6  0  0  0
 56 55  1  0  0  0  0
 58 59  1  0  0  0  0
 59 56  1  0  0  0  0
M  END
>  <MODEL>
8

>  <REMARK>
 VINA RESULT:      -6.1      2.498      6.546
  Name = 
  19 active torsions:
  status: ('A' for Active; 'I' for Inactive)
    1  A    between atoms: C_2  and  O_26
    2  A    between atoms: C_3  and  N_45
    3  A    between atoms: C_4  and  C_21
    4  A    between atoms: C_6  and  O_38
    5  A    between atoms: C_7  and  N_27
    6  A    between atoms: C_7  and  C_29
    7  A    between atoms: C_7  and  C_43
    8  A    between atoms: C_16  and  C_37
    9  A    between atoms: N_17  and  N_27
   10  A    between atoms: N_17  and  C_37
   11  A    between atoms: C_18  and  C_47
   12  A    between atoms: C_18  and  C_56
   13  A    between atoms: C_22  and  S_25
   14  A    between atoms: N_23  and  C_29
   15  A    between atoms: S_25  and  C_59
   16  A    between atoms: O_26  and  C_46
   17  A    between atoms: C_28  and  O_38
   18  A    between atoms: C_36  and  C_53
   19  A    between atoms: C_36  and  C_56
                            x       y       z     vdW  Elec       q    Type
                         _______ _______ _______ _____ _____    ______ ____

>  <TORSDO>
F 19

$$$$
=
 OpenBabel11062422353D

 59 64  0  0  1  0  0  0  0  0999 V2000
  195.3550  175.8530  143.1330 C   0  0  1  0  0  3  0  0  0  0  0  0
  197.2000  171.7150  145.2900 N   0  0  0  0  0  0  0  0  0  0  0  0
  194.1750  175.4960  145.3670 C   0  0  2  0  0  3  0  0  0  0  0  0
  195.3690  174.8330  145.7710 O   0  0  0  0  0  0  0  0  0  0  0  0
  195.7520  173.4620  143.7300 C   0  0  0  0  0  0  0  0  0  0  0  0
  197.0190  171.4670  143.9680 C   0  0  0  0  0  3  0  0  0  0  0  0
  195.9090  173.7180  145.1140 C   0  0  0  0  0  0  0  0  0  0  0  0
  194.3970  176.4320  144.1730 C   0  0  2  0  0  3  0  0  0  0  0  0
  195.0040  174.3980  142.8090 C   0  0  2  0  0  3  0  0  0  0  0  0
  195.3560  176.6500  141.9980 F   0  0  0  0  0  0  0  0  0  0  0  0
  196.6640  172.8180  145.8680 C   0  0  0  0  0  3  0  0  0  0  0  0
  193.1660  176.7270  143.5820 O   0  0  0  0  0  1  0  0  0  0  0  0
  196.3060  172.3340  143.2030 N   0  0  0  0  0  0  0  0  0  0  0  0
  195.3050  174.1110  141.4710 O   0  0  0  0  0  0  0  0  0  0  0  0
  194.1220  174.3520  140.7660 C   0  0  2  0  0  3  0  0  0  0  0  0
  193.0500  173.4140  141.2470 C   0  0  0  0  0  3  0  0  0  0  0  0
  194.3740  174.1560  139.2650 C   0  0  0  0  0  2  0  0  0  0  0  0
  194.4640  172.6910  138.9240 C   0  0  0  0  0  0  0  0  0  0  0  0
  193.7630  171.8200  139.5940 N   0  0  0  0  0  0  0  0  0  0  0  0
  192.9350  172.1960  140.7050 C   0  0  0  0  0  0  0  0  0  0  0  0
  190.6210  171.8480  141.9790 O   0  0  0  0  0  0  0  0  0  0  0  0
  192.3530  170.1310  142.2550 O   0  0  0  0  0  0  0  0  0  0  0  0
  191.7080  171.0800  141.2830 S   0  0  0  0  0  0  0  0  0  0  0  0
  190.3070  170.7900  138.9510 C   0  0  0  0  0  0  0  0  0  0  0  0
  191.7960  168.6460  137.3240 C   0  0  0  0  0  0  0  0  0  0  0  0
  192.6210  168.1700  136.3140 O   0  0  0  0  0  1  0  0  0  0  0  0
  191.0220  170.1920  139.9190 C   0  0  0  0  0  0  0  0  0  0  0  0
  189.6910  169.9590  137.8680 C   0  0  0  0  0  2  0  0  0  0  0  0
  192.2160  168.3480  138.7480 C   0  0  0  0  0  2  0  0  0  0  0  0
  191.2300  168.7090  139.8580 C   0  0  0  0  0  2  0  0  0  0  0  0
  190.7270  169.3720  136.9570 C   0  0  0  0  0  3  0  0  0  0  0  0
  190.5000  173.6140  138.6270 C   0  0  1  0  0  3  0  0  0  0  0  0
  189.2410  173.3960  139.1430 C   0  0  0  0  0  2  0  0  0  0  0  0
  190.1040  172.2020  138.9160 N   0  0  0  0  0  0  0  0  0  0  0  0
  191.6830  174.5040  136.6430 C   0  0  0  0  0  1  0  0  0  0  0  0
  190.4040  173.8590  137.1360 C   0  0  0  0  0  2  0  0  0  0  0  0
  195.2640  172.2940  137.8490 O   0  0  0  0  0  0  0  0  0  0  0  0
  195.1510  172.8670  136.5510 C   0  0  0  0  0  2  0  0  0  0  0  0
  196.2180  173.7360  136.3200 O   0  0  0  0  0  1  0  0  0  0  0  0
  193.5900  176.2550  146.5520 C   0  0  0  0  0  2  0  0  0  0  0  0
  192.2970  175.6980  146.9290 N   0  0  0  0  0  2  0  0  0  0  0  0
  191.3240  176.6740  146.6680 N   0  0  0  0  0  2  0  0  0  0  0  0
  190.1170  175.9990  146.1920 C   0  0  2  0  0  3  0  0  0  0  0  0
  189.6620  174.9320  147.1830 C   0  0  0  0  0  2  0  0  0  0  0  0
  188.3210  175.1290  147.5100 O   0  0  0  0  0  1  0  0  0  0  0  0
  190.3380  175.4160  144.7870 C   0  0  1  0  0  3  0  0  0  0  0  0
  190.1630  173.9020  144.8770 C   0  0  0  0  0  1  0  0  0  0  0  0
  189.3980  175.1670  142.6170 C   0  0  0  0  0  2  0  0  0  0  0  0
  189.4130  176.0090  143.8040 N   0  0  0  0  0  0  0  0  0  0  0  0
  188.1410  175.9700  144.3030 O   0  0  0  0  0  0  0  0  0  0  0  0
  188.0170  175.2950  142.0610 C   0  0  0  0  0  2  0  0  0  0  0  0
  187.2900  175.9820  143.1820 C   0  0  2  0  0  3  0  0  0  0  0  0
  186.9760  177.4180  142.7770 C   0  0  0  0  0  2  0  0  0  0  0  0
  186.6900  179.2580  144.2110 O   0  0  0  0  0  0  0  0  0  0  0  0
  186.2820  178.1530  143.8870 C   0  0  0  0  0  0  0  0  0  0  0  0
  185.1220  177.5550  144.6360 C   0  0  1  0  0  3  0  0  0  0  0  0
  185.5850  176.9170  145.7910 O   0  0  0  0  0  1  0  0  0  0  0  0
  183.4290  179.0530  143.8610 O   0  0  0  0  0  1  0  0  0  0  0  0
  184.0640  178.5860  145.0120 C   0  0  0  0  0  2  0  0  0  0  0  0
  1 10  1  6  0  0  0
  1  8  1  0  0  0  0
  2 11  1  0  0  0  0
  3  4  1  0  0  0  0
  3 40  1  1  0  0  0
  5  7  1  0  0  0  0
  6  2  2  0  0  0  0
  7  4  1  0  0  0  0
  7 11  2  0  0  0  0
  8 12  1  6  0  0  0
  8  3  1  0  0  0  0
  9 14  1  6  0  0  0
  9  1  1  0  0  0  0
  9  5  1  0  0  0  0
 13  5  2  0  0  0  0
 13  6  1  0  0  0  0
 15 16  1  0  0  0  0
 15 14  1  1  0  0  0
 17 15  1  0  0  0  0
 18 17  1  0  0  0  0
 18 19  2  0  0  0  0
 19 20  1  0  0  0  0
 20 16  2  0  0  0  0
 20 23  1  0  0  0  0
 23 21  2  0  0  0  0
 23 22  2  0  0  0  0
 24 27  2  0  0  0  0
 25 29  1  0  0  0  0
 26 25  1  0  0  0  0
 27 23  1  0  0  0  0
 28 24  1  0  0  0  0
 29 30  1  0  0  0  0
 30 27  1  0  0  0  0
 31 25  2  0  0  0  0
 31 28  1  0  0  0  0
 32 36  1  6  0  0  0
 32 34  1  0  0  0  0
 32 33  1  0  0  0  0
 34 24  1  0  0  0  0
 34 33  1  0  0  0  0
 35 36  1  0  0  0  0
 37 18  1  0  0  0  0
 38 37  1  0  0  0  0
 39 38  1  0  0  0  0
 40 41  1  0  0  0  0
 42 41  1  0  0  0  0
 43 42  1  0  0  0  0
 43 44  1  1  0  0  0
 44 45  1  0  0  0  0
 46 47  1  1  0  0  0
 46 43  1  0  0  0  0
 48 49  1  0  0  0  0
 49 50  1  0  0  0  0
 49 46  1  0  0  0  0
 51 48  1  0  0  0  0
 51 52  1  0  0  0  0
 52 53  1  6  0  0  0
 52 50  1  0  0  0  0
 53 55  1  0  0  0  0
 55 54  2  0  0  0  0
 55 56  1  0  0  0  0
 56 59  1  0  0  0  0
 56 57  1  1  0  0  0
 58 59  1  0  0  0  0
M  END
>  <MODEL>
9

>  <REMARK>
 VINA RESULT:      -6.1      2.468      6.886
  Name = 
  19 active torsions:
  status: ('A' for Active; 'I' for Inactive)
    1  A    between atoms: C_2  and  O_26
    2  A    between atoms: C_3  and  N_45
    3  A    between atoms: C_4  and  C_21
    4  A    between atoms: C_6  and  O_38
    5  A    between atoms: C_7  and  N_27
    6  A    between atoms: C_7  and  C_29
    7  A    between atoms: C_7  and  C_43
    8  A    between atoms: C_16  and  C_37
    9  A    between atoms: N_17  and  N_27
   10  A    between atoms: N_17  and  C_37
   11  A    between atoms: C_18  and  C_47
   12  A    between atoms: C_18  and  C_56
   13  A    between atoms: C_22  and  S_25
   14  A    between atoms: N_23  and  C_29
   15  A    between atoms: S_25  and  C_59
   16  A    between atoms: O_26  and  C_46
   17  A    between atoms: C_28  and  O_38
   18  A    between atoms: C_36  and  C_53
   19  A    between atoms: C_36  and  C_56
                            x       y       z     vdW  Elec       q    Type
                         _______ _______ _______ _____ _____    ______ ____

>  <TORSDO>
F 19

$$$$
