=
 OpenBabel11062422183D

 41 44  0  0  1  0  0  0  0  0999 V2000
  193.5430  173.5210  146.2440 C   0  0  0  0  0  3  0  0  0  0  0  0
  190.4930  175.2430  145.0130 C   0  0  0  0  0  0  0  0  0  0  0  0
  191.5910  174.3580  145.0760 C   0  0  0  0  0  0  0  0  0  0  0  0
  191.1830  176.2140  147.1360 C   0  0  0  0  0  3  0  0  0  0  0  0
  190.3190  176.1940  146.0370 C   0  0  0  0  0  0  0  0  0  0  0  0
  193.1160  171.7080  142.9360 C   0  0  0  0  0  1  0  0  0  0  0  0
  189.2470  177.1290  145.9750 N   0  0  0  0  0  1  0  0  0  0  0  0
  193.7790  172.6310  145.1910 C   0  0  0  0  0  0  0  0  0  0  0  0
  192.4580  174.3940  146.1910 C   0  0  0  0  0  0  0  0  0  0  0  0
  191.8530  173.4920  144.0570 N   0  0  0  0  0  0  0  0  0  0  0  0
  192.2460  175.3140  147.2170 C   0  0  0  0  0  3  0  0  0  0  0  0
  192.9090  172.6350  144.0870 C   0  0  0  0  0  0  0  0  0  0  0  0
  196.6800  173.2860  145.8900 C   0  0  0  0  0  1  0  0  0  0  0  0
  196.2770  172.1170  144.9980 C   0  0  2  0  0  0  0  0  0  0  0  0
  194.7410  170.3730  145.7250 C   0  0  0  0  0  2  0  0  0  0  0  0
  196.1310  169.7690  145.7030 C   0  0  1  0  0  3  0  0  0  0  0  0
  194.8950  171.7340  145.2580 N   0  0  0  0  0  0  0  0  0  0  0  0
  197.1050  170.8940  145.3710 C   0  0  0  0  0  2  0  0  0  0  0  0
  196.7020  168.7730  148.0620 N   0  0  0  0  0  0  0  0  0  0  0  0
  196.4510  169.2120  147.0210 C   0  0  0  0  0  0  0  0  0  0  0  0
  196.4500  172.4600  143.5100 C   0  0  0  0  0  2  0  0  0  0  0  0
  195.6600  174.6030  142.7220 N   0  0  0  0  0  0  0  0  0  0  0  0
  196.6150  173.9260  143.2380 C   0  0  0  0  0  3  0  0  0  0  0  0
  195.8210  176.0090  142.4680 C   0  0  0  0  0  2  0  0  0  0  0  0
  196.1230  176.7440  143.7670 C   0  0  0  0  0  2  0  0  0  0  0  0
  195.0790  176.7080  145.9150 O   0  0  0  0  0  1  0  0  0  0  0  0
  193.6560  176.8430  144.1260 O   0  0  0  0  0  0  0  0  0  0  0  0
  194.9300  176.7420  144.6660 C   0  0  0  0  0  0  0  0  0  0  0  0
  190.8980  176.5110  142.4190 O   0  0  0  0  0  0  0  0  0  0  0  0
  189.7720  176.0210  142.7010 C   0  0  0  0  0  0  0  0  0  0  0  0
  189.5930  175.2500  143.8950 N   0  0  0  0  0  2  0  0  0  0  0  0
  188.6330  176.2230  141.7530 C   0  0  2  0  0  3  0  0  0  0  0  0
  185.4840  177.7200  143.6760 N   0  0  0  0  0  0  0  0  0  0  0  0
  186.1970  176.2900  143.2290 S   0  0  0  0  0  0  0  0  0  0  0  0
  187.4900  176.9450  142.3980 C   0  0  0  0  0  0  0  0  0  0  0  0
  187.3380  178.3270  142.4960 C   0  0  0  0  0  3  0  0  0  0  0  0
  186.2280  178.7150  143.1970 N   0  0  0  0  0  0  0  0  0  0  0  0
  188.1240  174.8900  139.8460 O   0  0  0  0  0  0  0  0  0  0  0  0
  188.2030  174.9450  141.1050 C   0  0  0  0  0  0  0  0  0  0  0  0
  188.5780  172.6550  141.7570 N   0  0  0  0  0  1  0  0  0  0  0  0
  187.8800  173.8330  141.8850 O   0  0  0  0  0  0  0  0  0  0  0  0
  2  3  2  0  0  0  0
  2  5  1  0  0  0  0
  3  9  1  0  0  0  0
  4 11  1  0  0  0  0
  5  4  2  0  0  0  0
  6 12  1  0  0  0  0
  7  5  1  0  0  0  0
  8 17  1  0  0  0  0
  8  1  2  0  0  0  0
  9  1  1  0  0  0  0
  9 11  2  0  0  0  0
 10 12  2  0  0  0  0
 10  3  1  0  0  0  0
 12  8  1  0  0  0  0
 14 17  1  0  0  0  0
 14 18  1  0  0  0  0
 14 13  1  1  0  0  0
 16 15  1  0  0  0  0
 16 20  1  1  0  0  0
 17 15  1  0  0  0  0
 18 16  1  0  0  0  0
 20 19  3  0  0  0  0
 21 14  1  0  0  0  0
 22 23  2  0  0  0  0
 23 21  1  0  0  0  0
 24 22  1  0  0  0  0
 24 25  1  0  0  0  0
 25 28  1  0  0  0  0
 27 28  2  0  0  0  0
 28 26  1  0  0  0  0
 29 30  2  0  0  0  0
 30 31  1  0  0  0  0
 31  2  1  0  0  0  0
 32 39  1  1  0  0  0
 32 35  1  0  0  0  0
 32 30  1  0  0  0  0
 34 33  1  0  0  0  0
 35 36  2  0  0  0  0
 35 34  1  0  0  0  0
 36 37  1  0  0  0  0
 37 33  2  0  0  0  0
 38 39  2  0  0  0  0
 39 41  1  0  0  0  0
 40 41  1  0  0  0  0
M  END
>  <MODEL>
1

>  <REMARK>
 VINA RESULT:      -6.2      0.000      0.000
  Name = 
  12 active torsions:
  status: ('A' for Active; 'I' for Inactive)
    1  A    between atoms: C_4  and  N_27
    2  A    between atoms: C_9  and  C_11
    3  A    between atoms: C_9  and  C_29
    4  A    between atoms: N_17  and  C_30
    5  A    between atoms: C_19  and  C_36
    6  A    between atoms: O_20  and  C_31
    7  A    between atoms: C_22  and  C_30
    8  A    between atoms: C_22  and  C_40
    9  A    between atoms: C_23  and  N_26
   10  A    between atoms: C_24  and  C_35
   11  A    between atoms: C_25  and  C_36
   12  A    between atoms: C_31  and  C_36
                            x       y       z     vdW  Elec       q    Type
                         _______ _______ _______ _____ _____    ______ ____

>  <TORSDO>
F 12

$$$$
=
 OpenBabel11062422183D

 41 44  0  0  1  0  0  0  0  0999 V2000
  194.8770  175.7700  144.3470 C   0  0  0  0  0  3  0  0  0  0  0  0
  191.3080  175.8810  145.3630 C   0  0  0  0  0  0  0  0  0  0  0  0
  192.4650  175.6980  144.5760 C   0  0  0  0  0  0  0  0  0  0  0  0
  192.7110  176.6100  147.2150 C   0  0  0  0  0  3  0  0  0  0  0  0
  191.4430  176.3720  146.6760 C   0  0  0  0  0  0  0  0  0  0  0  0
  193.2790  174.7200  141.0680 C   0  0  0  0  0  1  0  0  0  0  0  0
  190.2900  176.6100  147.4770 N   0  0  0  0  0  1  0  0  0  0  0  0
  194.7520  175.3680  143.0140 C   0  0  0  0  0  0  0  0  0  0  0  0
  193.7390  175.9470  145.1330 C   0  0  0  0  0  0  0  0  0  0  0  0
  192.3710  175.3230  143.2690 N   0  0  0  0  0  0  0  0  0  0  0  0
  193.8570  176.3930  146.4480 C   0  0  0  0  0  3  0  0  0  0  0  0
  193.4680  175.1480  142.4840 C   0  0  0  0  0  0  0  0  0  0  0  0
  195.9660  172.7440  142.0270 C   0  0  0  0  0  1  0  0  0  0  0  0
  196.7860  174.0070  142.2700 C   0  0  2  0  0  0  0  0  0  0  0  0
  196.2930  176.1280  141.1810 C   0  0  0  0  0  2  0  0  0  0  0  0
  197.5460  175.5700  140.5350 C   0  0  1  0  0  3  0  0  0  0  0  0
  195.9290  175.1840  142.2160 N   0  0  0  0  0  0  0  0  0  0  0  0
  197.7800  174.1850  141.1300 C   0  0  0  0  0  2  0  0  0  0  0  0
  197.1970  175.3700  137.9430 N   0  0  0  0  0  0  0  0  0  0  0  0
  197.3510  175.4590  139.0870 C   0  0  0  0  0  0  0  0  0  0  0  0
  197.5120  173.9530  143.6230 C   0  0  0  0  0  2  0  0  0  0  0  0
  196.8340  172.5290  145.4550 N   0  0  0  0  0  0  0  0  0  0  0  0
  197.4110  172.6260  144.3170 C   0  0  0  0  0  3  0  0  0  0  0  0
  196.7350  171.2540  146.1130 C   0  0  0  0  0  2  0  0  0  0  0  0
  196.0700  170.2410  145.1910 C   0  0  0  0  0  2  0  0  0  0  0  0
  193.7540  169.6700  145.0730 O   0  0  0  0  0  0  0  0  0  0  0  0
  194.7610  169.3080  147.0980 O   0  0  0  0  0  1  0  0  0  0  0  0
  194.7910  169.7460  145.7820 C   0  0  0  0  0  0  0  0  0  0  0  0
  189.6240  177.7700  143.9150 O   0  0  0  0  0  0  0  0  0  0  0  0
  189.1460  176.6600  144.2730 C   0  0  0  0  0  0  0  0  0  0  0  0
  189.9930  175.6520  144.8370 N   0  0  0  0  0  2  0  0  0  0  0  0
  187.6890  176.3960  144.0660 C   0  0  2  0  0  3  0  0  0  0  0  0
  186.3250  178.1410  140.7560 N   0  0  0  0  0  0  0  0  0  0  0  0
  186.3590  178.2930  142.4080 S   0  0  0  0  0  0  0  0  0  0  0  0
  187.2130  176.8950  142.7360 C   0  0  0  0  0  0  0  0  0  0  0  0
  187.4740  176.3150  141.4960 C   0  0  0  0  0  3  0  0  0  0  0  0
  186.9700  177.0200  140.4370 N   0  0  0  0  0  0  0  0  0  0  0  0
  185.6840  176.4620  145.3500 O   0  0  0  0  0  0  0  0  0  0  0  0
  186.8550  176.9100  145.1970 C   0  0  0  0  0  0  0  0  0  0  0  0
  186.9330  177.9570  147.3650 N   0  0  0  0  0  1  0  0  0  0  0  0
  187.3600  177.8830  146.0600 O   0  0  0  0  0  0  0  0  0  0  0  0
  1  9  1  0  0  0  0
  2  5  1  0  0  0  0
  3  9  1  0  0  0  0
  3  2  2  0  0  0  0
  5  4  2  0  0  0  0
  5  7  1  0  0  0  0
  6 12  1  0  0  0  0
  8  1  2  0  0  0  0
  9 11  2  0  0  0  0
 10  3  1  0  0  0  0
 11  4  1  0  0  0  0
 12  8  1  0  0  0  0
 12 10  2  0  0  0  0
 14 13  1  6  0  0  0
 14 21  1  0  0  0  0
 15 17  1  0  0  0  0
 16 20  1  6  0  0  0
 16 18  1  0  0  0  0
 16 15  1  0  0  0  0
 17 14  1  0  0  0  0
 17  8  1  0  0  0  0
 18 14  1  0  0  0  0
 19 20  3  0  0  0  0
 21 23  1  0  0  0  0
 22 24  1  0  0  0  0
 23 22  2  0  0  0  0
 25 28  1  0  0  0  0
 25 24  1  0  0  0  0
 26 28  2  0  0  0  0
 28 27  1  0  0  0  0
 29 30  2  0  0  0  0
 30 31  1  0  0  0  0
 31  2  1  0  0  0  0
 32 30  1  1  0  0  0
 32 39  1  0  0  0  0
 33 34  1  0  0  0  0
 34 35  1  0  0  0  0
 35 32  1  0  0  0  0
 36 35  2  0  0  0  0
 37 33  2  0  0  0  0
 37 36  1  0  0  0  0
 39 38  2  0  0  0  0
 39 41  1  0  0  0  0
 41 40  1  0  0  0  0
M  END
>  <MODEL>
2

>  <REMARK>
 VINA RESULT:      -6.2      2.792      4.917
  Name = 
  12 active torsions:
  status: ('A' for Active; 'I' for Inactive)
    1  A    between atoms: C_4  and  N_27
    2  A    between atoms: C_9  and  C_11
    3  A    between atoms: C_9  and  C_29
    4  A    between atoms: N_17  and  C_30
    5  A    between atoms: C_19  and  C_36
    6  A    between atoms: O_20  and  C_31
    7  A    between atoms: C_22  and  C_30
    8  A    between atoms: C_22  and  C_40
    9  A    between atoms: C_23  and  N_26
   10  A    between atoms: C_24  and  C_35
   11  A    between atoms: C_25  and  C_36
   12  A    between atoms: C_31  and  C_36
                            x       y       z     vdW  Elec       q    Type
                         _______ _______ _______ _____ _____    ______ ____

>  <TORSDO>
F 12

$$$$
=
 OpenBabel11062422183D

 41 44  0  0  1  0  0  0  0  0999 V2000
  192.1310  174.0520  145.4060 C   0  0  0  0  0  3  0  0  0  0  0  0
  189.6010  176.6450  146.2150 C   0  0  0  0  0  0  0  0  0  0  0  0
  190.2690  175.5970  145.5460 C   0  0  0  0  0  0  0  0  0  0  0  0
  191.3750  176.6820  147.8820 C   0  0  0  0  0  3  0  0  0  0  0  0
  190.1850  177.2050  147.3680 C   0  0  0  0  0  0  0  0  0  0  0  0
  189.8190  173.5940  142.4290 C   0  0  0  0  0  1  0  0  0  0  0  0
  189.5560  178.2930  148.0360 N   0  0  0  0  0  1  0  0  0  0  0  0
  191.6080  173.5470  144.2110 C   0  0  0  0  0  0  0  0  0  0  0  0
  191.4740  175.0820  146.0750 C   0  0  0  0  0  0  0  0  0  0  0  0
  189.7900  175.0980  144.3720 N   0  0  0  0  0  0  0  0  0  0  0  0
  192.0160  175.6200  147.2410 C   0  0  0  0  0  3  0  0  0  0  0  0
  190.4180  174.0950  143.7010 C   0  0  0  0  0  0  0  0  0  0  0  0
  194.6170  173.1830  143.8260 C   0  0  0  0  0  1  0  0  0  0  0  0
  193.5760  172.6230  142.8630 C   0  0  2  0  0  0  0  0  0  0  0  0
  191.7940  171.1240  143.5740 C   0  0  0  0  0  2  0  0  0  0  0  0
  192.7990  170.2940  142.7990 C   0  0  1  0  0  3  0  0  0  0  0  0
  192.2900  172.4830  143.5330 N   0  0  0  0  0  0  0  0  0  0  0  0
  193.9730  171.2070  142.4650 C   0  0  0  0  0  2  0  0  0  0  0  0
  193.6280  168.2930  144.2800 N   0  0  0  0  0  0  0  0  0  0  0  0
  193.2620  169.1760  143.6270 C   0  0  0  0  0  0  0  0  0  0  0  0
  193.4210  173.5150  141.6220 C   0  0  0  0  0  2  0  0  0  0  0  0
  195.0370  175.2790  141.2780 N   0  0  0  0  0  0  0  0  0  0  0  0
  194.7180  174.0540  141.0930 C   0  0  0  0  0  3  0  0  0  0  0  0
  196.2830  175.7900  140.7740 C   0  0  0  0  0  2  0  0  0  0  0  0
  197.4360  175.3010  141.6410 C   0  0  0  0  0  2  0  0  0  0  0  0
  197.1590  177.1200  143.1630 O   0  0  0  0  0  0  0  0  0  0  0  0
  197.4240  175.0580  144.1230 O   0  0  0  0  0  1  0  0  0  0  0  0
  197.3530  175.8860  143.0120 C   0  0  0  0  0  0  0  0  0  0  0  0
  186.8940  176.1640  147.1820 O   0  0  0  0  0  0  0  0  0  0  0  0
  187.0660  176.8160  146.1180 C   0  0  0  0  0  0  0  0  0  0  0  0
  188.3810  177.2070  145.7090 N   0  0  0  0  0  2  0  0  0  0  0  0
  185.8730  177.2090  145.3050 C   0  0  2  0  0  3  0  0  0  0  0  0
  186.7310  177.2040  141.4160 N   0  0  0  0  0  0  0  0  0  0  0  0
  186.5710  176.2060  142.7310 S   0  0  0  0  0  0  0  0  0  0  0  0
  186.2170  177.3880  143.8580 C   0  0  0  0  0  0  0  0  0  0  0  0
  186.2230  178.5910  143.1540 C   0  0  0  0  0  3  0  0  0  0  0  0
  186.5120  178.4530  141.8230 N   0  0  0  0  0  0  0  0  0  0  0  0
  183.9090  178.4550  145.8170 O   0  0  0  0  0  0  0  0  0  0  0  0
  185.1700  178.4010  145.8720 C   0  0  0  0  0  0  0  0  0  0  0  0
  186.0110  179.5660  147.8070 N   0  0  0  0  0  1  0  0  0  0  0  0
  185.9000  179.4460  146.4410 O   0  0  0  0  0  0  0  0  0  0  0  0
  1  9  1  0  0  0  0
  2  5  1  0  0  0  0
  3  9  1  0  0  0  0
  3  2  2  0  0  0  0
  5  4  2  0  0  0  0
  5  7  1  0  0  0  0
  6 12  1  0  0  0  0
  8  1  2  0  0  0  0
  9 11  2  0  0  0  0
 10  3  1  0  0  0  0
 11  4  1  0  0  0  0
 12  8  1  0  0  0  0
 12 10  2  0  0  0  0
 14 17  1  0  0  0  0
 14 13  1  1  0  0  0
 16 15  1  0  0  0  0
 16 20  1  1  0  0  0
 17 15  1  0  0  0  0
 17  8  1  0  0  0  0
 18 16  1  0  0  0  0
 18 14  1  0  0  0  0
 20 19  3  0  0  0  0
 21 14  1  0  0  0  0
 23 22  2  0  0  0  0
 23 21  1  0  0  0  0
 24 22  1  0  0  0  0
 24 25  1  0  0  0  0
 25 28  1  0  0  0  0
 28 26  2  0  0  0  0
 28 27  1  0  0  0  0
 30 29  2  0  0  0  0
 31 30  1  0  0  0  0
 31  2  1  0  0  0  0
 32 39  1  1  0  0  0
 32 30  1  0  0  0  0
 33 37  2  0  0  0  0
 33 34  1  0  0  0  0
 34 35  1  0  0  0  0
 35 32  1  0  0  0  0
 36 35  2  0  0  0  0
 37 36  1  0  0  0  0
 38 39  2  0  0  0  0
 39 41  1  0  0  0  0
 41 40  1  0  0  0  0
M  END
>  <MODEL>
3

>  <REMARK>
 VINA RESULT:      -6.2      2.913      3.897
  Name = 
  12 active torsions:
  status: ('A' for Active; 'I' for Inactive)
    1  A    between atoms: C_4  and  N_27
    2  A    between atoms: C_9  and  C_11
    3  A    between atoms: C_9  and  C_29
    4  A    between atoms: N_17  and  C_30
    5  A    between atoms: C_19  and  C_36
    6  A    between atoms: O_20  and  C_31
    7  A    between atoms: C_22  and  C_30
    8  A    between atoms: C_22  and  C_40
    9  A    between atoms: C_23  and  N_26
   10  A    between atoms: C_24  and  C_35
   11  A    between atoms: C_25  and  C_36
   12  A    between atoms: C_31  and  C_36
                            x       y       z     vdW  Elec       q    Type
                         _______ _______ _______ _____ _____    ______ ____

>  <TORSDO>
F 12

$$$$
=
 OpenBabel11062422183D

 41 44  0  0  1  0  0  0  0  0999 V2000
  191.9640  174.1610  145.4130 C   0  0  0  0  0  3  0  0  0  0  0  0
  189.5070  176.7970  146.3050 C   0  0  0  0  0  0  0  0  0  0  0  0
  190.1290  175.7300  145.6210 C   0  0  0  0  0  0  0  0  0  0  0  0
  191.3630  176.8400  147.8800 C   0  0  0  0  0  3  0  0  0  0  0  0
  190.1550  177.3680  147.4180 C   0  0  0  0  0  0  0  0  0  0  0  0
  189.5010  173.6830  142.5650 C   0  0  0  0  0  1  0  0  0  0  0  0
  189.5720  178.4750  148.0990 N   0  0  0  0  0  1  0  0  0  0  0  0
  191.3770  173.6430  144.2540 C   0  0  0  0  0  0  0  0  0  0  0  0
  191.3540  175.2100  146.0970 C   0  0  0  0  0  0  0  0  0  0  0  0
  189.5860  175.2180  144.4810 N   0  0  0  0  0  0  0  0  0  0  0  0
  191.9590  175.7600  147.2250 C   0  0  0  0  0  3  0  0  0  0  0  0
  190.1680  174.1970  143.7960 C   0  0  0  0  0  0  0  0  0  0  0  0
  194.3590  173.2300  143.7390 C   0  0  0  0  0  1  0  0  0  0  0  0
  193.2670  172.6720  142.8310 C   0  0  2  0  0  0  0  0  0  0  0  0
  191.4990  171.2100  143.6440 C   0  0  0  0  0  2  0  0  0  0  0  0
  192.4550  170.3550  142.8350 C   0  0  1  0  0  3  0  0  0  0  0  0
  192.0110  172.5600  143.5610 N   0  0  0  0  0  0  0  0  0  0  0  0
  193.6260  171.2460  142.4350 C   0  0  0  0  0  2  0  0  0  0  0  0
  193.3220  168.3610  144.3040 N   0  0  0  0  0  0  0  0  0  0  0  0
  192.9400  169.2410  143.6560 C   0  0  0  0  0  0  0  0  0  0  0  0
  193.0690  173.5510  141.5870 C   0  0  0  0  0  2  0  0  0  0  0  0
  191.3100  172.9510  140.0410 N   0  0  0  0  0  0  0  0  0  0  0  0
  192.5310  172.8110  140.3970 C   0  0  0  0  0  3  0  0  0  0  0  0
  190.8010  172.2440  138.8980 C   0  0  0  0  0  2  0  0  0  0  0  0
  189.8550  173.1390  138.1090 C   0  0  0  0  0  2  0  0  0  0  0  0
  187.9020  172.4230  139.2820 O   0  0  0  0  0  1  0  0  0  0  0  0
  188.2310  174.6880  139.1980 O   0  0  0  0  0  0  0  0  0  0  0  0
  188.5990  173.3890  138.8760 C   0  0  0  0  0  0  0  0  0  0  0  0
  186.8200  176.1670  147.2420 O   0  0  0  0  0  0  0  0  0  0  0  0
  186.9680  176.9070  146.2340 C   0  0  0  0  0  0  0  0  0  0  0  0
  188.2700  177.3650  145.8520 N   0  0  0  0  0  2  0  0  0  0  0  0
  185.7600  177.3330  145.4610 C   0  0  2  0  0  3  0  0  0  0  0  0
  186.4970  177.2470  141.5480 N   0  0  0  0  0  0  0  0  0  0  0  0
  186.3990  176.2790  142.8920 S   0  0  0  0  0  0  0  0  0  0  0  0
  186.0550  177.4820  143.9990 C   0  0  0  0  0  0  0  0  0  0  0  0
  186.0140  178.6660  143.2660 C   0  0  0  0  0  3  0  0  0  0  0  0
  186.2650  178.5020  141.9310 N   0  0  0  0  0  0  0  0  0  0  0  0
  183.8670  178.6870  145.9640 O   0  0  0  0  0  0  0  0  0  0  0  0
  185.1210  178.5560  146.0380 C   0  0  0  0  0  0  0  0  0  0  0  0
  186.0700  179.5800  148.0010 N   0  0  0  0  0  1  0  0  0  0  0  0
  185.9030  179.5440  146.6370 O   0  0  0  0  0  0  0  0  0  0  0  0
  1  9  1  0  0  0  0
  2  5  1  0  0  0  0
  3  9  1  0  0  0  0
  3  2  2  0  0  0  0
  5  4  2  0  0  0  0
  5  7  1  0  0  0  0
  6 12  1  0  0  0  0
  8  1  2  0  0  0  0
  9 11  2  0  0  0  0
 10  3  1  0  0  0  0
 11  4  1  0  0  0  0
 12  8  1  0  0  0  0
 12 10  2  0  0  0  0
 14 17  1  0  0  0  0
 14 13  1  1  0  0  0
 16 15  1  0  0  0  0
 16 20  1  1  0  0  0
 17 15  1  0  0  0  0
 17  8  1  0  0  0  0
 18 14  1  0  0  0  0
 18 16  1  0  0  0  0
 20 19  3  0  0  0  0
 21 14  1  0  0  0  0
 22 23  2  0  0  0  0
 23 21  1  0  0  0  0
 24 22  1  0  0  0  0
 25 28  1  0  0  0  0
 25 24  1  0  0  0  0
 28 27  2  0  0  0  0
 28 26  1  0  0  0  0
 30 29  2  0  0  0  0
 31 30  1  0  0  0  0
 31  2  1  0  0  0  0
 32 39  1  1  0  0  0
 32 30  1  0  0  0  0
 33 37  2  0  0  0  0
 33 34  1  0  0  0  0
 34 35  1  0  0  0  0
 35 32  1  0  0  0  0
 36 35  2  0  0  0  0
 37 36  1  0  0  0  0
 38 39  2  0  0  0  0
 39 41  1  0  0  0  0
 41 40  1  0  0  0  0
M  END
>  <MODEL>
4

>  <REMARK>
 VINA RESULT:      -6.1      3.122      5.075
  Name = 
  12 active torsions:
  status: ('A' for Active; 'I' for Inactive)
    1  A    between atoms: C_4  and  N_27
    2  A    between atoms: C_9  and  C_11
    3  A    between atoms: C_9  and  C_29
    4  A    between atoms: N_17  and  C_30
    5  A    between atoms: C_19  and  C_36
    6  A    between atoms: O_20  and  C_31
    7  A    between atoms: C_22  and  C_30
    8  A    between atoms: C_22  and  C_40
    9  A    between atoms: C_23  and  N_26
   10  A    between atoms: C_24  and  C_35
   11  A    between atoms: C_25  and  C_36
   12  A    between atoms: C_31  and  C_36
                            x       y       z     vdW  Elec       q    Type
                         _______ _______ _______ _____ _____    ______ ____

>  <TORSDO>
F 12

$$$$
=
 OpenBabel11062422183D

 41 44  0  0  1  0  0  0  0  0999 V2000
  193.4270  174.6830  145.7220 C   0  0  0  0  0  3  0  0  0  0  0  0
  190.4880  176.9510  145.7340 C   0  0  0  0  0  0  0  0  0  0  0  0
  191.5820  176.1890  145.2720 C   0  0  0  0  0  0  0  0  0  0  0  0
  190.9730  176.2250  148.0070 C   0  0  0  0  0  3  0  0  0  0  0  0
  190.2130  176.9880  147.1150 C   0  0  0  0  0  0  0  0  0  0  0  0
  193.3180  175.5550  142.0290 C   0  0  0  0  0  1  0  0  0  0  0  0
  189.1440  177.7840  147.6140 N   0  0  0  0  0  1  0  0  0  0  0  0
  193.7650  174.7080  144.3660 C   0  0  0  0  0  0  0  0  0  0  0  0
  192.3440  175.4280  146.1860 C   0  0  0  0  0  0  0  0  0  0  0  0
  191.9440  176.2080  143.9570 N   0  0  0  0  0  0  0  0  0  0  0  0
  192.0320  175.4430  147.5440 C   0  0  0  0  0  3  0  0  0  0  0  0
  192.9990  175.4920  143.4850 C   0  0  0  0  0  0  0  0  0  0  0  0
  196.4540  174.2570  145.7440 C   0  0  0  0  0  1  0  0  0  0  0  0
  196.2700  174.2090  144.2310 C   0  0  2  0  0  0  0  0  0  0  0  0
  194.6850  172.7150  143.1430 C   0  0  0  0  0  2  0  0  0  0  0  0
  196.0740  172.1650  142.8830 C   0  0  1  0  0  3  0  0  0  0  0  0
  194.8790  173.9340  143.8990 N   0  0  0  0  0  0  0  0  0  0  0  0
  197.0540  173.0290  143.6690 C   0  0  0  0  0  2  0  0  0  0  0  0
  196.2160  169.6820  143.7170 N   0  0  0  0  0  0  0  0  0  0  0  0
  196.1540  170.7780  143.3490 C   0  0  0  0  0  0  0  0  0  0  0  0
  196.7140  175.5230  143.5690 C   0  0  0  0  0  2  0  0  0  0  0  0
  197.0240  175.6690  141.1770 N   0  0  0  0  0  0  0  0  0  0  0  0
  197.5100  175.3340  142.3120 C   0  0  0  0  0  3  0  0  0  0  0  0
  197.7930  175.4900  139.9750 C   0  0  0  0  0  2  0  0  0  0  0  0
  197.2730  174.2900  139.1960 C   0  0  0  0  0  2  0  0  0  0  0  0
  195.3230  175.2540  138.2120 O   0  0  0  0  0  0  0  0  0  0  0  0
  194.9510  173.4830  139.6150 O   0  0  0  0  0  1  0  0  0  0  0  0
  195.7980  174.3890  138.9930 C   0  0  0  0  0  0  0  0  0  0  0  0
  187.7850  176.3970  144.7940 O   0  0  0  0  0  0  0  0  0  0  0  0
  188.4330  177.3520  144.2900 C   0  0  0  0  0  0  0  0  0  0  0  0
  189.6930  177.7480  144.8450 N   0  0  0  0  0  2  0  0  0  0  0  0
  187.8520  178.0920  143.1280 C   0  0  2  0  0  3  0  0  0  0  0  0
  183.9100  178.5300  143.4860 N   0  0  0  0  0  0  0  0  0  0  0  0
  185.0710  177.6280  142.7180 S   0  0  0  0  0  0  0  0  0  0  0  0
  186.4050  178.4180  143.3390 C   0  0  0  0  0  0  0  0  0  0  0  0
  185.8970  179.4090  144.1770 C   0  0  0  0  0  3  0  0  0  0  0  0
  184.5300  179.4450  144.2300 N   0  0  0  0  0  0  0  0  0  0  0  0
  187.7290  177.9380  140.7540 O   0  0  0  0  0  0  0  0  0  0  0  0
  188.0900  177.3850  141.8310 C   0  0  0  0  0  0  0  0  0  0  0  0
  188.1800  175.1130  141.0360 N   0  0  0  0  0  1  0  0  0  0  0  0
  188.6900  176.1250  141.8150 O   0  0  0  0  0  0  0  0  0  0  0  0
  1  9  1  0  0  0  0
  2  5  1  0  0  0  0
  3  2  2  0  0  0  0
  3  9  1  0  0  0  0
  5  7  1  0  0  0  0
  5  4  2  0  0  0  0
  6 12  1  0  0  0  0
  8  1  2  0  0  0  0
  9 11  2  0  0  0  0
 10  3  1  0  0  0  0
 11  4  1  0  0  0  0
 12 10  2  0  0  0  0
 12  8  1  0  0  0  0
 14 13  1  1  0  0  0
 15 17  1  0  0  0  0
 16 15  1  0  0  0  0
 16 20  1  1  0  0  0
 16 18  1  0  0  0  0
 17 14  1  0  0  0  0
 17  8  1  0  0  0  0
 18 14  1  0  0  0  0
 20 19  3  0  0  0  0
 21 14  1  0  0  0  0
 22 23  2  0  0  0  0
 23 21  1  0  0  0  0
 24 22  1  0  0  0  0
 25 24  1  0  0  0  0
 26 28  2  0  0  0  0
 28 25  1  0  0  0  0
 28 27  1  0  0  0  0
 30 29  2  0  0  0  0
 30 31  1  0  0  0  0
 31  2  1  0  0  0  0
 32 39  1  6  0  0  0
 32 35  1  0  0  0  0
 32 30  1  0  0  0  0
 33 37  2  0  0  0  0
 34 35  1  0  0  0  0
 34 33  1  0  0  0  0
 35 36  2  0  0  0  0
 36 37  1  0  0  0  0
 38 39  2  0  0  0  0
 40 41  1  0  0  0  0
 41 39  1  0  0  0  0
M  END
>  <MODEL>
5

>  <REMARK>
 VINA RESULT:      -6.1      2.460      3.161
  Name = 
  12 active torsions:
  status: ('A' for Active; 'I' for Inactive)
    1  A    between atoms: C_4  and  N_27
    2  A    between atoms: C_9  and  C_11
    3  A    between atoms: C_9  and  C_29
    4  A    between atoms: N_17  and  C_30
    5  A    between atoms: C_19  and  C_36
    6  A    between atoms: O_20  and  C_31
    7  A    between atoms: C_22  and  C_30
    8  A    between atoms: C_22  and  C_40
    9  A    between atoms: C_23  and  N_26
   10  A    between atoms: C_24  and  C_35
   11  A    between atoms: C_25  and  C_36
   12  A    between atoms: C_31  and  C_36
                            x       y       z     vdW  Elec       q    Type
                         _______ _______ _______ _____ _____    ______ ____

>  <TORSDO>
F 12

$$$$
=
 OpenBabel11062422183D

 41 44  0  0  1  0  0  0  0  0999 V2000
  194.3480  173.2180  145.7690 C   0  0  0  0  0  3  0  0  0  0  0  0
  191.1810  174.9220  144.8450 C   0  0  0  0  0  0  0  0  0  0  0  0
  192.1780  173.9290  144.9550 C   0  0  0  0  0  0  0  0  0  0  0  0
  192.5940  176.4480  146.1110 C   0  0  0  0  0  3  0  0  0  0  0  0
  191.4170  176.1940  145.4010 C   0  0  0  0  0  0  0  0  0  0  0  0
  192.7360  170.4440  143.7390 C   0  0  0  0  0  1  0  0  0  0  0  0
  190.4480  177.2290  145.2650 N   0  0  0  0  0  1  0  0  0  0  0  0
  194.1650  171.9800  145.1460 C   0  0  0  0  0  0  0  0  0  0  0  0
  193.3650  174.2020  145.6710 C   0  0  0  0  0  0  0  0  0  0  0  0
  192.0330  172.7190  144.3440 N   0  0  0  0  0  0  0  0  0  0  0  0
  193.5640  175.4530  146.2510 C   0  0  0  0  0  3  0  0  0  0  0  0
  192.9810  171.7470  144.4240 C   0  0  0  0  0  0  0  0  0  0  0  0
  197.1940  172.3630  145.2130 C   0  0  0  0  0  1  0  0  0  0  0  0
  196.5220  171.0920  144.7050 C   0  0  2  0  0  0  0  0  0  0  0  0
  194.9780  169.7860  146.0600 C   0  0  0  0  0  2  0  0  0  0  0  0
  196.2740  169.0040  145.9740 C   0  0  1  0  0  3  0  0  0  0  0  0
  195.1800  170.9730  145.2590 N   0  0  0  0  0  0  0  0  0  0  0  0
  197.2790  169.8800  145.2330 C   0  0  0  0  0  2  0  0  0  0  0  0
  197.1610  168.4890  148.3890 N   0  0  0  0  0  0  0  0  0  0  0  0
  196.7700  168.7160  147.3230 C   0  0  0  0  0  0  0  0  0  0  0  0
  196.4560  171.0670  143.1700 C   0  0  0  0  0  2  0  0  0  0  0  0
  195.4560  172.8850  141.9300 N   0  0  0  0  0  0  0  0  0  0  0  0
  196.4860  172.4270  142.5370 C   0  0  0  0  0  3  0  0  0  0  0  0
  195.4870  174.1910  141.3300 C   0  0  0  0  0  2  0  0  0  0  0  0
  196.3420  175.1310  142.1690 C   0  0  0  0  0  2  0  0  0  0  0  0
  196.0100  176.7780  143.8660 O   0  0  0  0  0  1  0  0  0  0  0  0
  194.1120  176.0380  142.8210 O   0  0  0  0  0  0  0  0  0  0  0  0
  195.4850  176.0130  143.0150 C   0  0  0  0  0  0  0  0  0  0  0  0
  190.8100  174.9680  141.9540 O   0  0  0  0  0  0  0  0  0  0  0  0
  189.8040  174.8840  142.7080 C   0  0  0  0  0  0  0  0  0  0  0  0
  189.9650  174.6940  144.1180 N   0  0  0  0  0  2  0  0  0  0  0  0
  188.4360  174.9480  142.1050 C   0  0  2  0  0  3  0  0  0  0  0  0
  188.2520  173.2180  138.5220 N   0  0  0  0  0  0  0  0  0  0  0  0
  188.1930  174.6940  139.2770 S   0  0  0  0  0  0  0  0  0  0  0  0
  188.3420  174.1400  140.8460 C   0  0  0  0  0  0  0  0  0  0  0  0
  188.4470  172.7540  140.7460 C   0  0  0  0  0  3  0  0  0  0  0  0
  188.3890  172.2840  139.4620 N   0  0  0  0  0  0  0  0  0  0  0  0
  188.8150  177.2520  141.6380 O   0  0  0  0  0  0  0  0  0  0  0  0
  187.9680  176.3550  141.9120 C   0  0  0  0  0  0  0  0  0  0  0  0
  185.9350  176.3710  143.2040 N   0  0  0  0  0  1  0  0  0  0  0  0
  186.6170  176.6740  142.0480 O   0  0  0  0  0  0  0  0  0  0  0  0
  2  3  2  0  0  0  0
  2  5  1  0  0  0  0
  3  9  1  0  0  0  0
  4 11  1  0  0  0  0
  5  4  2  0  0  0  0
  6 12  1  0  0  0  0
  7  5  1  0  0  0  0
  8 17  1  0  0  0  0
  8  1  2  0  0  0  0
  9  1  1  0  0  0  0
  9 11  2  0  0  0  0
 10 12  2  0  0  0  0
 10  3  1  0  0  0  0
 12  8  1  0  0  0  0
 14 13  1  1  0  0  0
 14 18  1  0  0  0  0
 14 17  1  0  0  0  0
 16 15  1  0  0  0  0
 16 20  1  1  0  0  0
 17 15  1  0  0  0  0
 18 16  1  0  0  0  0
 20 19  3  0  0  0  0
 21 14  1  0  0  0  0
 22 23  2  0  0  0  0
 23 21  1  0  0  0  0
 24 22  1  0  0  0  0
 24 25  1  0  0  0  0
 25 28  1  0  0  0  0
 27 28  2  0  0  0  0
 28 26  1  0  0  0  0
 29 30  2  0  0  0  0
 30 31  1  0  0  0  0
 31  2  1  0  0  0  0
 32 39  1  6  0  0  0
 32 30  1  0  0  0  0
 33 34  1  0  0  0  0
 33 37  2  0  0  0  0
 34 35  1  0  0  0  0
 35 32  1  0  0  0  0
 36 35  2  0  0  0  0
 37 36  1  0  0  0  0
 38 39  2  0  0  0  0
 39 41  1  0  0  0  0
 41 40  1  0  0  0  0
M  END
>  <MODEL>
6

>  <REMARK>
 VINA RESULT:      -6.0      1.635      2.645
  Name = 
  12 active torsions:
  status: ('A' for Active; 'I' for Inactive)
    1  A    between atoms: C_4  and  N_27
    2  A    between atoms: C_9  and  C_11
    3  A    between atoms: C_9  and  C_29
    4  A    between atoms: N_17  and  C_30
    5  A    between atoms: C_19  and  C_36
    6  A    between atoms: O_20  and  C_31
    7  A    between atoms: C_22  and  C_30
    8  A    between atoms: C_22  and  C_40
    9  A    between atoms: C_23  and  N_26
   10  A    between atoms: C_24  and  C_35
   11  A    between atoms: C_25  and  C_36
   12  A    between atoms: C_31  and  C_36
                            x       y       z     vdW  Elec       q    Type
                         _______ _______ _______ _____ _____    ______ ____

>  <TORSDO>
F 12

$$$$
=
 OpenBabel11062422183D

 41 44  0  0  1  0  0  0  0  0999 V2000
  191.4860  175.8890  142.7790 C   0  0  0  0  0  3  0  0  0  0  0  0
  194.3520  173.5300  142.7110 C   0  0  0  0  0  0  0  0  0  0  0  0
  193.0400  174.0310  142.8570 C   0  0  0  0  0  0  0  0  0  0  0  0
  195.1240  175.7740  142.1680 C   0  0  0  0  0  3  0  0  0  0  0  0
  195.3950  174.4220  142.3980 C   0  0  0  0  0  0  0  0  0  0  0  0
  189.6890  172.7200  143.8450 C   0  0  0  0  0  1  0  0  0  0  0  0
  196.7350  173.9520  142.2890 N   0  0  0  0  0  1  0  0  0  0  0  0
  190.4560  175.0310  143.1760 C   0  0  0  0  0  0  0  0  0  0  0  0
  192.7820  175.4010  142.6270 C   0  0  0  0  0  0  0  0  0  0  0  0
  192.0210  173.2200  143.2590 N   0  0  0  0  0  0  0  0  0  0  0  0
  193.8200  176.2620  142.2760 C   0  0  0  0  0  3  0  0  0  0  0  0
  190.7500  173.6770  143.4180 C   0  0  0  0  0  0  0  0  0  0  0  0
  189.5880  177.6800  144.4250 C   0  0  0  0  0  1  0  0  0  0  0  0
  188.7020  176.4390  144.3930 C   0  0  2  0  0  0  0  0  0  0  0  0
  188.1070  175.2980  142.3260 C   0  0  0  0  0  2  0  0  0  0  0  0
  186.8720  176.0340  142.8060 C   0  0  1  0  0  3  0  0  0  0  0  0
  189.1250  175.5430  143.3250 N   0  0  0  0  0  0  0  0  0  0  0  0
  187.2800  176.8490  144.0280 C   0  0  0  0  0  2  0  0  0  0  0  0
  186.0100  177.6420  140.9200 N   0  0  0  0  0  0  0  0  0  0  0  0
  186.3900  176.9320  141.7530 C   0  0  0  0  0  0  0  0  0  0  0  0
  188.7270  175.6960  145.7370 C   0  0  0  0  0  2  0  0  0  0  0  0
  190.9480  175.1140  146.4930 N   0  0  0  0  0  0  0  0  0  0  0  0
  189.9700  175.9370  146.5440 C   0  0  0  0  0  3  0  0  0  0  0  0
  192.1390  175.3520  147.2630 C   0  0  0  0  0  2  0  0  0  0  0  0
  193.3580  174.8320  146.5130 C   0  0  0  0  0  2  0  0  0  0  0  0
  195.3510  175.7360  145.5570 O   0  0  0  0  0  0  0  0  0  0  0  0
  194.1550  177.1660  146.8880 O   0  0  0  0  0  1  0  0  0  0  0  0
  194.3570  175.9230  146.3060 C   0  0  0  0  0  0  0  0  0  0  0  0
  195.0980  172.2870  145.2400 O   0  0  0  0  0  0  0  0  0  0  0  0
  195.1770  171.6200  144.1740 C   0  0  0  0  0  0  0  0  0  0  0  0
  194.6630  172.1490  142.9460 N   0  0  0  0  0  2  0  0  0  0  0  0
  195.7810  170.2520  144.2140 C   0  0  2  0  0  3  0  0  0  0  0  0
  195.2460  168.5400  147.7700 N   0  0  0  0  0  0  0  0  0  0  0  0
  196.3560  169.3750  146.8630 S   0  0  0  0  0  0  0  0  0  0  0  0
  195.4340  169.5260  145.4780 C   0  0  0  0  0  0  0  0  0  0  0  0
  194.2220  168.9010  145.7640 C   0  0  0  0  0  3  0  0  0  0  0  0
  194.1550  168.3700  147.0240 N   0  0  0  0  0  0  0  0  0  0  0  0
  197.9010  171.3360  144.1950 O   0  0  0  0  0  0  0  0  0  0  0  0
  197.2550  170.2770  143.9600 C   0  0  0  0  0  0  0  0  0  0  0  0
  197.4390  168.5190  142.3230 N   0  0  0  0  0  1  0  0  0  0  0  0
  197.9020  169.1490  143.4540 O   0  0  0  0  0  0  0  0  0  0  0  0
  1  8  1  0  0  0  0
  2  3  1  0  0  0  0
  2 31  1  0  0  0  0
  3 10  2  0  0  0  0
  4 11  2  0  0  0  0
  4  5  1  0  0  0  0
  5  2  2  0  0  0  0
  7  5  1  0  0  0  0
  8 17  1  0  0  0  0
  8 12  2  0  0  0  0
  9  1  2  0  0  0  0
  9  3  1  0  0  0  0
 10 12  1  0  0  0  0
 11  9  1  0  0  0  0
 12  6  1  0  0  0  0
 14 13  1  1  0  0  0
 14 21  1  0  0  0  0
 15 16  1  0  0  0  0
 15 17  1  0  0  0  0
 16 20  1  6  0  0  0
 16 18  1  0  0  0  0
 17 14  1  0  0  0  0
 18 14  1  0  0  0  0
 19 20  3  0  0  0  0
 21 23  1  0  0  0  0
 22 23  2  0  0  0  0
 22 24  1  0  0  0  0
 25 24  1  0  0  0  0
 26 28  2  0  0  0  0
 28 25  1  0  0  0  0
 28 27  1  0  0  0  0
 30 32  1  0  0  0  0
 30 29  2  0  0  0  0
 31 30  1  0  0  0  0
 32 39  1  1  0  0  0
 32 35  1  0  0  0  0
 34 33  1  0  0  0  0
 35 36  2  0  0  0  0
 35 34  1  0  0  0  0
 36 37  1  0  0  0  0
 37 33  2  0  0  0  0
 39 38  2  0  0  0  0
 40 41  1  0  0  0  0
 41 39  1  0  0  0  0
M  END
>  <MODEL>
7

>  <REMARK>
 VINA RESULT:      -6.0      3.355      8.581
  Name = 
  12 active torsions:
  status: ('A' for Active; 'I' for Inactive)
    1  A    between atoms: C_4  and  N_27
    2  A    between atoms: C_9  and  C_11
    3  A    between atoms: C_9  and  C_29
    4  A    between atoms: N_17  and  C_30
    5  A    between atoms: C_19  and  C_36
    6  A    between atoms: O_20  and  C_31
    7  A    between atoms: C_22  and  C_30
    8  A    between atoms: C_22  and  C_40
    9  A    between atoms: C_23  and  N_26
   10  A    between atoms: C_24  and  C_35
   11  A    between atoms: C_25  and  C_36
   12  A    between atoms: C_31  and  C_36
                            x       y       z     vdW  Elec       q    Type
                         _______ _______ _______ _____ _____    ______ ____

>  <TORSDO>
F 12

$$$$
=
 OpenBabel11062422183D

 41 44  0  0  1  0  0  0  0  0999 V2000
  192.9590  173.5640  145.7430 C   0  0  0  0  0  3  0  0  0  0  0  0
  190.1120  175.9450  145.6910 C   0  0  0  0  0  0  0  0  0  0  0  0
  190.9780  174.8940  145.3200 C   0  0  0  0  0  0  0  0  0  0  0  0
  191.5410  176.4190  147.6030 C   0  0  0  0  0  3  0  0  0  0  0  0
  190.4250  176.7250  146.8210 C   0  0  0  0  0  0  0  0  0  0  0  0
  191.2780  172.4290  142.5350 C   0  0  0  0  0  1  0  0  0  0  0  0
  189.5940  177.8210  147.1910 N   0  0  0  0  0  1  0  0  0  0  0  0
  192.7090  172.8380  144.5740 C   0  0  0  0  0  0  0  0  0  0  0  0
  192.1050  174.5990  146.1190 C   0  0  0  0  0  0  0  0  0  0  0  0
  190.7660  174.1810  144.1780 N   0  0  0  0  0  0  0  0  0  0  0  0
  192.3770  175.3550  147.2580 C   0  0  0  0  0  3  0  0  0  0  0  0
  191.5890  173.1700  143.7910 C   0  0  0  0  0  0  0  0  0  0  0  0
  195.7550  172.9030  144.3610 C   0  0  0  0  0  1  0  0  0  0  0  0
  194.8790  171.9590  143.5450 C   0  0  2  0  0  0  0  0  0  0  0  0
  193.3140  170.4000  144.5690 C   0  0  0  0  0  2  0  0  0  0  0  0
  194.4840  169.5880  144.0490 C   0  0  1  0  0  3  0  0  0  0  0  0
  193.5910  171.7710  144.2000 N   0  0  0  0  0  0  0  0  0  0  0  0
  195.5190  170.5760  143.5230 C   0  0  0  0  0  2  0  0  0  0  0  0
  195.5220  168.1760  146.0030 N   0  0  0  0  0  0  0  0  0  0  0  0
  195.0640  168.7990  145.1400 C   0  0  0  0  0  0  0  0  0  0  0  0
  194.6650  172.4840  142.1170 C   0  0  0  0  0  2  0  0  0  0  0  0
  195.3610  174.5700  141.1150 N   0  0  0  0  0  0  0  0  0  0  0  0
  195.7050  173.4680  141.6670 C   0  0  0  0  0  3  0  0  0  0  0  0
  196.3610  175.5120  140.6910 C   0  0  0  0  0  2  0  0  0  0  0  0
  196.2620  176.7860  141.5190 C   0  0  0  0  0  2  0  0  0  0  0  0
  196.0480  176.9140  143.8940 O   0  0  0  0  0  1  0  0  0  0  0  0
  197.9380  175.8740  143.1250 O   0  0  0  0  0  0  0  0  0  0  0  0
  196.7470  176.5520  142.9110 C   0  0  0  0  0  0  0  0  0  0  0  0
  189.8780  178.0940  143.7340 O   0  0  0  0  0  0  0  0  0  0  0  0
  188.8500  177.4500  144.0750 C   0  0  0  0  0  0  0  0  0  0  0  0
  188.9610  176.2880  144.9050 N   0  0  0  0  0  2  0  0  0  0  0  0
  187.5140  177.8940  143.5700 C   0  0  2  0  0  3  0  0  0  0  0  0
  184.7060  178.7120  146.2730 N   0  0  0  0  0  0  0  0  0  0  0  0
  185.4910  179.3450  144.9550 S   0  0  0  0  0  0  0  0  0  0  0  0
  186.5230  178.0600  144.6810 C   0  0  0  0  0  0  0  0  0  0  0  0
  186.2170  177.1170  145.6600 C   0  0  0  0  0  3  0  0  0  0  0  0
  185.2230  177.5090  146.5160 N   0  0  0  0  0  0  0  0  0  0  0  0
  185.7570  176.8060  142.3870 O   0  0  0  0  0  0  0  0  0  0  0  0
  187.0000  177.0100  142.4780 C   0  0  0  0  0  0  0  0  0  0  0  0
  188.1650  175.0630  141.6680 N   0  0  0  0  0  1  0  0  0  0  0  0
  187.8850  176.4070  141.5830 O   0  0  0  0  0  0  0  0  0  0  0  0
  1  9  1  0  0  0  0
  2  5  1  0  0  0  0
  3  2  2  0  0  0  0
  3  9  1  0  0  0  0
  5  7  1  0  0  0  0
  5  4  2  0  0  0  0
  6 12  1  0  0  0  0
  8  1  2  0  0  0  0
  9 11  2  0  0  0  0
 10  3  1  0  0  0  0
 11  4  1  0  0  0  0
 12 10  2  0  0  0  0
 12  8  1  0  0  0  0
 14 17  1  0  0  0  0
 14 13  1  1  0  0  0
 16 15  1  0  0  0  0
 16 20  1  1  0  0  0
 17 15  1  0  0  0  0
 17  8  1  0  0  0  0
 18 14  1  0  0  0  0
 18 16  1  0  0  0  0
 20 19  3  0  0  0  0
 21 14  1  0  0  0  0
 22 23  2  0  0  0  0
 23 21  1  0  0  0  0
 24 22  1  0  0  0  0
 24 25  1  0  0  0  0
 25 28  1  0  0  0  0
 28 27  2  0  0  0  0
 28 26  1  0  0  0  0
 29 30  2  0  0  0  0
 30 31  1  0  0  0  0
 31  2  1  0  0  0  0
 32 39  1  6  0  0  0
 32 30  1  0  0  0  0
 32 35  1  0  0  0  0
 33 37  2  0  0  0  0
 34 33  1  0  0  0  0
 35 34  1  0  0  0  0
 35 36  2  0  0  0  0
 36 37  1  0  0  0  0
 38 39  2  0  0  0  0
 41 40  1  0  0  0  0
 41 39  1  0  0  0  0
M  END
>  <MODEL>
8

>  <REMARK>
 VINA RESULT:      -5.9      1.996      2.288
  Name = 
  12 active torsions:
  status: ('A' for Active; 'I' for Inactive)
    1  A    between atoms: C_4  and  N_27
    2  A    between atoms: C_9  and  C_11
    3  A    between atoms: C_9  and  C_29
    4  A    between atoms: N_17  and  C_30
    5  A    between atoms: C_19  and  C_36
    6  A    between atoms: O_20  and  C_31
    7  A    between atoms: C_22  and  C_30
    8  A    between atoms: C_22  and  C_40
    9  A    between atoms: C_23  and  N_26
   10  A    between atoms: C_24  and  C_35
   11  A    between atoms: C_25  and  C_36
   12  A    between atoms: C_31  and  C_36
                            x       y       z     vdW  Elec       q    Type
                         _______ _______ _______ _____ _____    ______ ____

>  <TORSDO>
F 12

$$$$
=
 OpenBabel11062422183D

 41 44  0  0  1  0  0  0  0  0999 V2000
  191.9010  174.6560  145.7580 C   0  0  0  0  0  3  0  0  0  0  0  0
  188.7060  176.5290  145.5090 C   0  0  0  0  0  0  0  0  0  0  0  0
  190.0050  176.0640  145.2130 C   0  0  0  0  0  0  0  0  0  0  0  0
  188.6800  175.1240  147.4970 C   0  0  0  0  0  3  0  0  0  0  0  0
  188.0650  176.0760  146.6780 C   0  0  0  0  0  0  0  0  0  0  0  0
  192.6420  176.7080  142.6520 C   0  0  0  0  0  1  0  0  0  0  0  0
  186.7730  176.5640  147.0250 N   0  0  0  0  0  1  0  0  0  0  0  0
  192.5850  175.1640  144.6490 C   0  0  0  0  0  0  0  0  0  0  0  0
  190.6160  175.1060  146.0540 C   0  0  0  0  0  0  0  0  0  0  0  0
  190.7000  176.5550  144.1480 N   0  0  0  0  0  0  0  0  0  0  0  0
  189.9500  174.6360  147.1840 C   0  0  0  0  0  3  0  0  0  0  0  0
  191.9570  176.1320  143.8450 C   0  0  0  0  0  0  0  0  0  0  0  0
  193.5970  173.9200  142.0490 C   0  0  0  0  0  1  0  0  0  0  0  0
  194.2030  173.6150  143.4150 C   0  0  2  0  0  0  0  0  0  0  0  0
  195.0790  175.3470  144.8840 C   0  0  0  0  0  2  0  0  0  0  0  0
  196.2670  174.5990  144.3110 C   0  0  1  0  0  3  0  0  0  0  0  0
  193.9050  174.6900  144.3520 N   0  0  0  0  0  0  0  0  0  0  0  0
  195.7220  173.6000  143.2960 C   0  0  0  0  0  2  0  0  0  0  0  0
  197.8820  176.2830  143.1120 N   0  0  0  0  0  0  0  0  0  0  0  0
  197.1700  175.5400  143.6410 C   0  0  0  0  0  0  0  0  0  0  0  0
  193.6860  172.2800  143.9730 C   0  0  0  0  0  2  0  0  0  0  0  0
  191.3270  171.7770  143.8350 N   0  0  0  0  0  0  0  0  0  0  0  0
  192.4720  171.7520  143.2660 C   0  0  0  0  0  3  0  0  0  0  0  0
  190.1650  171.2750  143.1520 C   0  0  0  0  0  2  0  0  0  0  0  0
  189.0620  172.3250  143.1560 C   0  0  0  0  0  2  0  0  0  0  0  0
  189.7010  174.2480  141.8930 O   0  0  0  0  0  1  0  0  0  0  0  0
  188.5340  172.6500  140.7400 O   0  0  0  0  0  0  0  0  0  0  0  0
  189.1020  173.1410  141.9070 C   0  0  0  0  0  0  0  0  0  0  0  0
  186.5890  176.0800  143.5570 O   0  0  0  0  0  0  0  0  0  0  0  0
  187.1290  177.2150  143.6360 C   0  0  0  0  0  0  0  0  0  0  0  0
  188.0510  177.5100  144.6910 N   0  0  0  0  0  2  0  0  0  0  0  0
  186.7650  178.2650  142.6340 C   0  0  2  0  0  3  0  0  0  0  0  0
  182.8020  178.5940  142.4180 N   0  0  0  0  0  0  0  0  0  0  0  0
  184.0720  178.6450  143.4840 S   0  0  0  0  0  0  0  0  0  0  0  0
  185.2880  178.3140  142.3870 C   0  0  0  0  0  0  0  0  0  0  0  0
  184.6530  178.1720  141.1550 C   0  0  0  0  0  3  0  0  0  0  0  0
  183.2940  178.3260  141.2100 N   0  0  0  0  0  0  0  0  0  0  0  0
  188.6560  178.7320  141.2640 O   0  0  0  0  0  0  0  0  0  0  0  0
  187.5490  178.1330  141.3670 C   0  0  0  0  0  0  0  0  0  0  0  0
  187.4280  176.0580  140.1490 N   0  0  0  0  0  1  0  0  0  0  0  0
  187.0530  177.3710  140.3080 O   0  0  0  0  0  0  0  0  0  0  0  0
  1  9  1  0  0  0  0
  2  5  1  0  0  0  0
  3  2  2  0  0  0  0
  3  9  1  0  0  0  0
  5  7  1  0  0  0  0
  5  4  2  0  0  0  0
  6 12  1  0  0  0  0
  8  1  2  0  0  0  0
  9 11  2  0  0  0  0
 10  3  1  0  0  0  0
 11  4  1  0  0  0  0
 12 10  2  0  0  0  0
 12  8  1  0  0  0  0
 14 13  1  6  0  0  0
 14 21  1  0  0  0  0
 14 17  1  0  0  0  0
 16 20  1  6  0  0  0
 16 15  1  0  0  0  0
 17  8  1  0  0  0  0
 17 15  1  0  0  0  0
 18 14  1  0  0  0  0
 18 16  1  0  0  0  0
 19 20  3  0  0  0  0
 23 22  2  0  0  0  0
 23 21  1  0  0  0  0
 24 25  1  0  0  0  0
 24 22  1  0  0  0  0
 26 28  1  0  0  0  0
 27 28  2  0  0  0  0
 28 25  1  0  0  0  0
 29 30  2  0  0  0  0
 30 31  1  0  0  0  0
 31  2  1  0  0  0  0
 32 39  1  6  0  0  0
 32 30  1  0  0  0  0
 33 34  1  0  0  0  0
 35 32  1  0  0  0  0
 35 34  1  0  0  0  0
 36 37  1  0  0  0  0
 36 35  2  0  0  0  0
 37 33  2  0  0  0  0
 38 39  2  0  0  0  0
 40 41  1  0  0  0  0
 41 39  1  0  0  0  0
M  END
>  <MODEL>
9

>  <REMARK>
 VINA RESULT:      -5.9      2.838      4.531
  Name = 
  12 active torsions:
  status: ('A' for Active; 'I' for Inactive)
    1  A    between atoms: C_4  and  N_27
    2  A    between atoms: C_9  and  C_11
    3  A    between atoms: C_9  and  C_29
    4  A    between atoms: N_17  and  C_30
    5  A    between atoms: C_19  and  C_36
    6  A    between atoms: O_20  and  C_31
    7  A    between atoms: C_22  and  C_30
    8  A    between atoms: C_22  and  C_40
    9  A    between atoms: C_23  and  N_26
   10  A    between atoms: C_24  and  C_35
   11  A    between atoms: C_25  and  C_36
   12  A    between atoms: C_31  and  C_36
                            x       y       z     vdW  Elec       q    Type
                         _______ _______ _______ _____ _____    ______ ____

>  <TORSDO>
F 12

$$$$
