=
 OpenBabel11062420163D

 25 27  0  0  1  0  0  0  0  0999 V2000
  187.9020  177.4030  145.7680 C   0  0  0  0  0  0  0  0  0  0  0  0
  187.9400  177.6630  144.3820 C   0  0  0  0  0  0  0  0  0  0  0  0
  186.9530  178.3870  143.7770 C   0  0  0  0  0  0  0  0  0  0  0  0
  188.9290  177.2190  143.3490 C   0  0  2  0  0  3  0  0  0  0  0  0
  187.1690  178.5550  142.3910 N   0  0  0  0  0  0  0  0  0  0  0  0
  188.4300  177.9010  142.0580 C   0  0  0  0  0  3  0  0  0  0  0  0
  185.8640  178.8660  144.5050 C   0  0  0  0  0  0  0  0  0  0  0  0
  185.8040  178.5950  145.8380 N   0  0  0  0  0  0  0  0  0  0  0  0
  186.7850  177.8890  146.4750 C   0  0  0  0  0  3  0  0  0  0  0  0
  191.1280  176.5940  147.5870 C   0  0  0  0  0  3  0  0  0  0  0  0
  190.1510  177.3080  146.8890 C   0  0  0  0  0  3  0  0  0  0  0  0
  188.7910  175.3170  146.8260 C   0  0  0  0  0  3  0  0  0  0  0  0
  188.9700  176.6680  146.4910 C   0  0  0  0  0  0  0  0  0  0  0  0
  189.7900  174.6370  147.5260 C   0  0  0  0  0  3  0  0  0  0  0  0
  190.9300  175.2840  147.8880 N   0  0  0  0  0  0  0  0  0  0  0  0
  188.9140  175.7250  143.1710 C   0  0  0  0  0  0  0  0  0  0  0  0
  187.8840  175.1760  142.8160 O   0  0  0  0  0  0  0  0  0  0  0  0
  191.1750  175.7160  143.8770 O   0  0  0  0  0  1  0  0  0  0  0  0
  190.1350  174.8980  143.4330 C   0  0  0  0  0  2  0  0  0  0  0  0
  184.7580  179.6230  143.8460 C   0  0  0  0  0  2  0  0  0  0  0  0
  183.5690  178.7120  143.5630 C   0  0  0  0  0  2  0  0  0  0  0  0
  181.3420  178.6440  141.7660 O   0  0  0  0  0  1  0  0  0  0  0  0
  183.6030  178.2290  142.1890 N   0  0  0  0  0  2  0  0  0  0  0  0
  182.5490  177.7150  140.0560 O   0  0  0  0  0  0  0  0  0  0  0  0
  182.4480  178.2110  141.3480 C   0  0  0  0  0  0  0  0  0  0  0  0
  1  9  1  0  0  0  0
  1 13  1  0  0  0  0
  2  1  2  0  0  0  0
  3  2  1  0  0  0  0
  3  7  2  0  0  0  0
  4 16  1  6  0  0  0
  4  2  1  0  0  0  0
  5  3  1  0  0  0  0
  6  5  2  0  0  0  0
  6  4  1  0  0  0  0
  7  8  1  0  0  0  0
  8  9  2  0  0  0  0
 10 15  1  0  0  0  0
 11 10  2  0  0  0  0
 12 14  1  0  0  0  0
 13 12  2  0  0  0  0
 13 11  1  0  0  0  0
 14 15  2  0  0  0  0
 16 19  1  0  0  0  0
 17 16  2  0  0  0  0
 19 18  1  0  0  0  0
 20  7  1  0  0  0  0
 21 20  1  0  0  0  0
 23 21  1  0  0  0  0
 24 25  2  0  0  0  0
 25 22  1  0  0  0  0
 25 23  1  0  0  0  0
M  END
>  <MODEL>
1

>  <REMARK>
 VINA RESULT:      -6.6      0.000      0.000
  Name = 
  6 active torsions:
  status: ('A' for Active; 'I' for Inactive)
    1  A    between atoms: C_1  and  C_13
    2  A    between atoms: C_2  and  N_6
    3  A    between atoms: C_2  and  C_18
    4  A    between atoms: C_14  and  C_21
    5  A    between atoms: C_18  and  C_22
    6  A    between atoms: C_20  and  C_21
                            x       y       z     vdW  Elec       q    Type
                         _______ _______ _______ _____ _____    ______ ____

>  <TORSDO>
F 6

$$$$
=
 OpenBabel11062420163D

 25 27  0  0  1  0  0  0  0  0999 V2000
  188.1030  177.3360  144.5960 C   0  0  0  0  0  0  0  0  0  0  0  0
  188.2560  176.4790  143.4880 C   0  0  0  0  0  0  0  0  0  0  0  0
  189.4980  176.1410  143.0290 C   0  0  0  0  0  0  0  0  0  0  0  0
  187.2200  175.8430  142.6140 C   0  0  2  0  0  3  0  0  0  0  0  0
  189.4530  175.2640  141.9220 N   0  0  0  0  0  0  0  0  0  0  0  0
  188.0490  174.9790  141.6420 C   0  0  0  0  0  3  0  0  0  0  0  0
  190.6490  176.6570  143.6250 C   0  0  0  0  0  0  0  0  0  0  0  0
  190.5090  177.5090  144.6780 N   0  0  0  0  0  0  0  0  0  0  0  0
  189.2820  177.8500  145.1710 C   0  0  0  0  0  3  0  0  0  0  0  0
  184.9260  179.2310  145.4280 C   0  0  0  0  0  3  0  0  0  0  0  0
  186.1780  178.9290  144.8870 C   0  0  0  0  0  3  0  0  0  0  0  0
  186.0980  176.7850  145.9880 C   0  0  0  0  0  3  0  0  0  0  0  0
  186.7840  177.6980  145.1730 C   0  0  0  0  0  0  0  0  0  0  0  0
  184.8470  177.1220  146.5090 C   0  0  0  0  0  3  0  0  0  0  0  0
  184.2920  178.3290  146.2230 N   0  0  0  0  0  0  0  0  0  0  0  0
  186.4390  176.8710  141.8400 C   0  0  0  0  0  0  0  0  0  0  0  0
  185.2960  177.1320  142.1790 O   0  0  0  0  0  0  0  0  0  0  0  0
  186.1510  177.5040  139.5770 O   0  0  0  0  0  1  0  0  0  0  0  0
  187.0330  177.5690  140.6550 C   0  0  0  0  0  2  0  0  0  0  0  0
  192.0100  176.3270  143.1060 C   0  0  0  0  0  2  0  0  0  0  0  0
  192.7840  175.4810  144.1090 C   0  0  0  0  0  2  0  0  0  0  0  0
  192.6700  176.0940  146.9040 O   0  0  0  0  0  1  0  0  0  0  0  0
  193.7470  176.2950  144.8390 N   0  0  0  0  0  2  0  0  0  0  0  0
  194.5670  177.3760  146.8610 O   0  0  0  0  0  0  0  0  0  0  0  0
  193.6240  176.5730  146.2360 C   0  0  0  0  0  0  0  0  0  0  0  0
  1  9  1  0  0  0  0
  1 13  1  0  0  0  0
  2  1  2  0  0  0  0
  3  2  1  0  0  0  0
  3  7  2  0  0  0  0
  4 16  1  6  0  0  0
  4  2  1  0  0  0  0
  5  3  1  0  0  0  0
  6  5  2  0  0  0  0
  6  4  1  0  0  0  0
  7  8  1  0  0  0  0
  8  9  2  0  0  0  0
 10 15  1  0  0  0  0
 11 13  1  0  0  0  0
 11 10  2  0  0  0  0
 12 14  1  0  0  0  0
 13 12  2  0  0  0  0
 15 14  2  0  0  0  0
 16 17  2  0  0  0  0
 18 19  1  0  0  0  0
 19 16  1  0  0  0  0
 20  7  1  0  0  0  0
 20 21  1  0  0  0  0
 21 23  1  0  0  0  0
 23 25  1  0  0  0  0
 25 24  2  0  0  0  0
 25 22  1  0  0  0  0
M  END
>  <MODEL>
2

>  <REMARK>
 VINA RESULT:      -6.5      2.716      6.793
  Name = 
  6 active torsions:
  status: ('A' for Active; 'I' for Inactive)
    1  A    between atoms: C_1  and  C_13
    2  A    between atoms: C_2  and  N_6
    3  A    between atoms: C_2  and  C_18
    4  A    between atoms: C_14  and  C_21
    5  A    between atoms: C_18  and  C_22
    6  A    between atoms: C_20  and  C_21
                            x       y       z     vdW  Elec       q    Type
                         _______ _______ _______ _____ _____    ______ ____

>  <TORSDO>
F 6

$$$$
=
 OpenBabel11062420163D

 25 27  0  0  1  0  0  0  0  0999 V2000
  188.0070  177.0800  144.7920 C   0  0  0  0  0  0  0  0  0  0  0  0
  188.1530  176.2130  143.6900 C   0  0  0  0  0  0  0  0  0  0  0  0
  189.3850  175.7590  143.3130 C   0  0  0  0  0  0  0  0  0  0  0  0
  187.1210  175.6810  142.7440 C   0  0  2  0  0  3  0  0  0  0  0  0
  189.3310  174.8920  142.1980 N   0  0  0  0  0  0  0  0  0  0  0  0
  187.9280  174.7420  141.8230 C   0  0  0  0  0  3  0  0  0  0  0  0
  190.5370  176.1620  143.9880 C   0  0  0  0  0  0  0  0  0  0  0  0
  190.4080  177.0220  145.0360 N   0  0  0  0  0  0  0  0  0  0  0  0
  189.1890  177.4780  145.4480 C   0  0  0  0  0  3  0  0  0  0  0  0
  184.6660  177.2640  146.5720 C   0  0  0  0  0  3  0  0  0  0  0  0
  185.8870  176.7710  146.1100 C   0  0  0  0  0  3  0  0  0  0  0  0
  186.2520  178.8560  144.9540 C   0  0  0  0  0  3  0  0  0  0  0  0
  186.6930  177.5650  145.2820 C   0  0  0  0  0  0  0  0  0  0  0  0
  185.0250  179.3150  145.4370 C   0  0  0  0  0  3  0  0  0  0  0  0
  184.2610  178.5150  146.2280 N   0  0  0  0  0  0  0  0  0  0  0  0
  186.4960  176.7790  141.9270 C   0  0  0  0  0  0  0  0  0  0  0  0
  185.3670  177.1550  142.1980 O   0  0  0  0  0  0  0  0  0  0  0  0
  186.3290  177.7270  139.7640 O   0  0  0  0  0  1  0  0  0  0  0  0
  187.2270  177.4110  140.7830 C   0  0  0  0  0  2  0  0  0  0  0  0
  191.8930  175.7040  143.5580 C   0  0  0  0  0  2  0  0  0  0  0  0
  192.9800  176.5750  144.1750 C   0  0  0  0  0  2  0  0  0  0  0  0
  194.0020  176.1650  146.8170 O   0  0  0  0  0  1  0  0  0  0  0  0
  194.1500  175.7770  144.5170 N   0  0  0  0  0  2  0  0  0  0  0  0
  195.7510  174.8670  146.1090 O   0  0  0  0  0  0  0  0  0  0  0  0
  194.6150  175.6240  145.8600 C   0  0  0  0  0  0  0  0  0  0  0  0
  1 13  1  0  0  0  0
  1  9  1  0  0  0  0
  2  1  2  0  0  0  0
  3  2  1  0  0  0  0
  3  7  2  0  0  0  0
  4 16  1  6  0  0  0
  4  2  1  0  0  0  0
  5  3  1  0  0  0  0
  6  5  2  0  0  0  0
  6  4  1  0  0  0  0
  7  8  1  0  0  0  0
  8  9  2  0  0  0  0
 11 10  2  0  0  0  0
 12 13  2  0  0  0  0
 12 14  1  0  0  0  0
 13 11  1  0  0  0  0
 14 15  2  0  0  0  0
 15 10  1  0  0  0  0
 16 17  2  0  0  0  0
 18 19  1  0  0  0  0
 19 16  1  0  0  0  0
 20  7  1  0  0  0  0
 20 21  1  0  0  0  0
 21 23  1  0  0  0  0
 23 25  1  0  0  0  0
 25 24  2  0  0  0  0
 25 22  1  0  0  0  0
M  END
>  <MODEL>
3

>  <REMARK>
 VINA RESULT:      -6.4      2.726      7.113
  Name = 
  6 active torsions:
  status: ('A' for Active; 'I' for Inactive)
    1  A    between atoms: C_1  and  C_13
    2  A    between atoms: C_2  and  N_6
    3  A    between atoms: C_2  and  C_18
    4  A    between atoms: C_14  and  C_21
    5  A    between atoms: C_18  and  C_22
    6  A    between atoms: C_20  and  C_21
                            x       y       z     vdW  Elec       q    Type
                         _______ _______ _______ _____ _____    ______ ____

>  <TORSDO>
F 6

$$$$
=
 OpenBabel11062420163D

 25 27  0  0  1  0  0  0  0  0999 V2000
  187.2970  176.6100  143.8780 C   0  0  0  0  0  0  0  0  0  0  0  0
  188.6960  176.7290  144.0150 C   0  0  0  0  0  0  0  0  0  0  0  0
  189.5410  176.0180  143.2100 C   0  0  0  0  0  0  0  0  0  0  0  0
  189.5010  177.5290  144.9900 C   0  0  2  0  0  3  0  0  0  0  0  0
  190.9040  176.2770  143.4850 N   0  0  0  0  0  0  0  0  0  0  0  0
  190.9580  177.2700  144.5520 C   0  0  0  0  0  3  0  0  0  0  0  0
  189.0470  175.1340  142.2520 C   0  0  0  0  0  0  0  0  0  0  0  0
  187.6980  174.9910  142.1330 N   0  0  0  0  0  0  0  0  0  0  0  0
  186.8280  175.7020  142.9100 C   0  0  0  0  0  3  0  0  0  0  0  0
  185.0860  179.4250  145.1270 C   0  0  0  0  0  3  0  0  0  0  0  0
  186.0180  178.7210  144.3610 C   0  0  0  0  0  3  0  0  0  0  0  0
  185.6730  176.7960  145.7720 C   0  0  0  0  0  3  0  0  0  0  0  0
  186.3290  177.3940  144.6850 C   0  0  0  0  0  0  0  0  0  0  0  0
  184.7460  177.5310  146.5130 C   0  0  0  0  0  3  0  0  0  0  0  0
  184.4750  178.8210  146.1800 N   0  0  0  0  0  0  0  0  0  0  0  0
  189.3030  177.0480  146.4020 C   0  0  0  0  0  0  0  0  0  0  0  0
  188.7760  177.7890  147.2170 O   0  0  0  0  0  0  0  0  0  0  0  0
  188.6430  174.9150  147.1910 O   0  0  0  0  0  1  0  0  0  0  0  0
  189.7490  175.6840  146.8290 C   0  0  0  0  0  2  0  0  0  0  0  0
  189.9630  174.3210  141.3960 C   0  0  0  0  0  2  0  0  0  0  0  0
  190.0930  172.9020  141.9350 C   0  0  0  0  0  2  0  0  0  0  0  0
  190.1830  172.8010  144.7950 O   0  0  0  0  0  0  0  0  0  0  0  0
  191.2990  172.7620  142.7410 N   0  0  0  0  0  2  0  0  0  0  0  0
  192.4650  172.6190  144.8730 O   0  0  0  0  0  1  0  0  0  0  0  0
  191.2740  172.7310  144.1700 C   0  0  0  0  0  0  0  0  0  0  0  0
  1  2  1  0  0  0  0
  1 13  1  0  0  0  0
  2  4  1  0  0  0  0
  3  5  1  0  0  0  0
  3  2  2  0  0  0  0
  4 16  1  1  0  0  0
  5  6  2  0  0  0  0
  6  4  1  0  0  0  0
  7  3  1  0  0  0  0
  8  7  2  0  0  0  0
  8  9  1  0  0  0  0
  9  1  2  0  0  0  0
 10 15  1  0  0  0  0
 11 13  1  0  0  0  0
 11 10  2  0  0  0  0
 12 14  1  0  0  0  0
 13 12  2  0  0  0  0
 15 14  2  0  0  0  0
 16 19  1  0  0  0  0
 16 17  2  0  0  0  0
 19 18  1  0  0  0  0
 20 21  1  0  0  0  0
 20  7  1  0  0  0  0
 21 23  1  0  0  0  0
 23 25  1  0  0  0  0
 25 22  2  0  0  0  0
 25 24  1  0  0  0  0
M  END
>  <MODEL>
4

>  <REMARK>
 VINA RESULT:      -6.3      3.500      6.350
  Name = 
  6 active torsions:
  status: ('A' for Active; 'I' for Inactive)
    1  A    between atoms: C_1  and  C_13
    2  A    between atoms: C_2  and  N_6
    3  A    between atoms: C_2  and  C_18
    4  A    between atoms: C_14  and  C_21
    5  A    between atoms: C_18  and  C_22
    6  A    between atoms: C_20  and  C_21
                            x       y       z     vdW  Elec       q    Type
                         _______ _______ _______ _____ _____    ______ ____

>  <TORSDO>
F 6

$$$$
=
 OpenBabel11062420163D

 25 27  0  0  1  0  0  0  0  0999 V2000
  187.8860  177.1700  144.9190 C   0  0  0  0  0  0  0  0  0  0  0  0
  188.0590  176.2730  143.8440 C   0  0  0  0  0  0  0  0  0  0  0  0
  189.2940  175.7780  143.5370 C   0  0  0  0  0  0  0  0  0  0  0  0
  187.0590  175.7470  142.8620 C   0  0  2  0  0  3  0  0  0  0  0  0
  189.2690  174.8870  142.4400 N   0  0  0  0  0  0  0  0  0  0  0  0
  187.8820  174.7660  142.0010 C   0  0  0  0  0  3  0  0  0  0  0  0
  190.4240  176.1650  144.2570 C   0  0  0  0  0  0  0  0  0  0  0  0
  190.2700  177.0530  145.2780 N   0  0  0  0  0  0  0  0  0  0  0  0
  189.0460  177.5510  145.6210 C   0  0  0  0  0  3  0  0  0  0  0  0
  184.8560  179.4170  145.2890 C   0  0  0  0  0  3  0  0  0  0  0  0
  186.1140  178.9550  144.8990 C   0  0  0  0  0  3  0  0  0  0  0  0
  185.7190  176.9290  146.1460 C   0  0  0  0  0  3  0  0  0  0  0  0
  186.5640  177.7010  145.3350 C   0  0  0  0  0  0  0  0  0  0  0  0
  184.4670  177.4250  146.5150 C   0  0  0  0  0  3  0  0  0  0  0  0
  184.0650  178.6510  146.0850 N   0  0  0  0  0  0  0  0  0  0  0  0
  186.5040  176.8420  141.9920 C   0  0  0  0  0  0  0  0  0  0  0  0
  185.3350  177.1700  142.1190 O   0  0  0  0  0  0  0  0  0  0  0  0
  186.6950  177.5400  139.7380 O   0  0  0  0  0  1  0  0  0  0  0  0
  187.3540  177.5280  140.9680 C   0  0  0  0  0  2  0  0  0  0  0  0
  191.7850  175.6620  143.9030 C   0  0  0  0  0  2  0  0  0  0  0  0
  192.2250  174.5640  144.8630 C   0  0  0  0  0  2  0  0  0  0  0  0
  190.1350  172.6070  144.8930 O   0  0  0  0  0  1  0  0  0  0  0  0
  192.2620  173.2720  144.1900 N   0  0  0  0  0  2  0  0  0  0  0  0
  191.3010  171.1120  143.6090 O   0  0  0  0  0  0  0  0  0  0  0  0
  191.1860  172.3340  144.2560 C   0  0  0  0  0  0  0  0  0  0  0  0
  1 13  1  0  0  0  0
  1  9  1  0  0  0  0
  2  1  2  0  0  0  0
  3  2  1  0  0  0  0
  3  7  2  0  0  0  0
  4 16  1  6  0  0  0
  4  2  1  0  0  0  0
  5  3  1  0  0  0  0
  6  5  2  0  0  0  0
  6  4  1  0  0  0  0
  7  8  1  0  0  0  0
  8  9  2  0  0  0  0
 10 15  1  0  0  0  0
 11 10  2  0  0  0  0
 11 13  1  0  0  0  0
 12 14  1  0  0  0  0
 13 12  2  0  0  0  0
 15 14  2  0  0  0  0
 16 17  2  0  0  0  0
 18 19  1  0  0  0  0
 19 16  1  0  0  0  0
 20  7  1  0  0  0  0
 20 21  1  0  0  0  0
 23 25  1  0  0  0  0
 23 21  1  0  0  0  0
 24 25  2  0  0  0  0
 25 22  1  0  0  0  0
M  END
>  <MODEL>
5

>  <REMARK>
 VINA RESULT:      -6.2      2.610      6.387
  Name = 
  6 active torsions:
  status: ('A' for Active; 'I' for Inactive)
    1  A    between atoms: C_1  and  C_13
    2  A    between atoms: C_2  and  N_6
    3  A    between atoms: C_2  and  C_18
    4  A    between atoms: C_14  and  C_21
    5  A    between atoms: C_18  and  C_22
    6  A    between atoms: C_20  and  C_21
                            x       y       z     vdW  Elec       q    Type
                         _______ _______ _______ _____ _____    ______ ____

>  <TORSDO>
F 6

$$$$
=
 OpenBabel11062420163D

 25 27  0  0  1  0  0  0  0  0999 V2000
  187.2700  176.6150  143.8720 C   0  0  0  0  0  0  0  0  0  0  0  0
  188.6680  176.7370  144.0080 C   0  0  0  0  0  0  0  0  0  0  0  0
  189.5150  176.0310  143.2010 C   0  0  0  0  0  0  0  0  0  0  0  0
  189.4720  177.5370  144.9850 C   0  0  2  0  0  3  0  0  0  0  0  0
  190.8760  176.2920  143.4750 N   0  0  0  0  0  0  0  0  0  0  0  0
  190.9290  177.2820  144.5450 C   0  0  0  0  0  3  0  0  0  0  0  0
  189.0220  175.1470  142.2410 C   0  0  0  0  0  0  0  0  0  0  0  0
  187.6730  175.0020  142.1230 N   0  0  0  0  0  0  0  0  0  0  0  0
  186.8020  175.7080  142.9020 C   0  0  0  0  0  3  0  0  0  0  0  0
  185.0590  179.4240  145.1340 C   0  0  0  0  0  3  0  0  0  0  0  0
  185.9920  178.7250  144.3660 C   0  0  0  0  0  3  0  0  0  0  0  0
  185.6390  176.7900  145.7620 C   0  0  0  0  0  3  0  0  0  0  0  0
  186.3000  177.3940  144.6820 C   0  0  0  0  0  0  0  0  0  0  0  0
  184.7110  177.5220  146.5060 C   0  0  0  0  0  3  0  0  0  0  0  0
  184.4430  178.8140  146.1810 N   0  0  0  0  0  0  0  0  0  0  0  0
  189.2760  177.0510  146.3950 C   0  0  0  0  0  0  0  0  0  0  0  0
  188.7060  177.7710  147.2000 O   0  0  0  0  0  0  0  0  0  0  0  0
  188.7080  174.9210  147.2590 O   0  0  0  0  0  1  0  0  0  0  0  0
  189.7770  175.7100  146.8340 C   0  0  0  0  0  2  0  0  0  0  0  0
  189.9390  174.3380  141.3820 C   0  0  0  0  0  2  0  0  0  0  0  0
  189.1800  173.2160  140.6850 C   0  0  0  0  0  2  0  0  0  0  0  0
  187.8030  174.5620  138.5660 O   0  0  0  0  0  1  0  0  0  0  0  0
  189.5310  173.1550  139.2710 N   0  0  0  0  0  2  0  0  0  0  0  0
  189.1690  173.7200  136.9320 O   0  0  0  0  0  0  0  0  0  0  0  0
  188.7910  173.8430  138.2610 C   0  0  0  0  0  0  0  0  0  0  0  0
  1  2  1  0  0  0  0
  1 13  1  0  0  0  0
  2  4  1  0  0  0  0
  3  5  1  0  0  0  0
  3  2  2  0  0  0  0
  4 16  1  1  0  0  0
  5  6  2  0  0  0  0
  6  4  1  0  0  0  0
  7  3  1  0  0  0  0
  8  7  2  0  0  0  0
  8  9  1  0  0  0  0
  9  1  2  0  0  0  0
 10 15  1  0  0  0  0
 11 13  1  0  0  0  0
 11 10  2  0  0  0  0
 12 14  1  0  0  0  0
 13 12  2  0  0  0  0
 15 14  2  0  0  0  0
 16 19  1  0  0  0  0
 16 17  2  0  0  0  0
 19 18  1  0  0  0  0
 20  7  1  0  0  0  0
 21 20  1  0  0  0  0
 23 21  1  0  0  0  0
 24 25  2  0  0  0  0
 25 22  1  0  0  0  0
 25 23  1  0  0  0  0
M  END
>  <MODEL>
6

>  <REMARK>
 VINA RESULT:      -6.2      3.163      5.661
  Name = 
  6 active torsions:
  status: ('A' for Active; 'I' for Inactive)
    1  A    between atoms: C_1  and  C_13
    2  A    between atoms: C_2  and  N_6
    3  A    between atoms: C_2  and  C_18
    4  A    between atoms: C_14  and  C_21
    5  A    between atoms: C_18  and  C_22
    6  A    between atoms: C_20  and  C_21
                            x       y       z     vdW  Elec       q    Type
                         _______ _______ _______ _____ _____    ______ ____

>  <TORSDO>
F 6

$$$$
=
 OpenBabel11062420163D

 25 27  0  0  1  0  0  0  0  0999 V2000
  188.6850  176.8360  145.9850 C   0  0  0  0  0  0  0  0  0  0  0  0
  189.2950  175.8370  145.1980 C   0  0  0  0  0  0  0  0  0  0  0  0
  190.5440  175.3720  145.5000 C   0  0  0  0  0  0  0  0  0  0  0  0
  188.8030  175.1580  143.9590 C   0  0  2  0  0  3  0  0  0  0  0  0
  190.9830  174.3660  144.6100 N   0  0  0  0  0  0  0  0  0  0  0  0
  189.9110  174.1300  143.6480 C   0  0  0  0  0  3  0  0  0  0  0  0
  191.2630  175.8920  146.5750 C   0  0  0  0  0  0  0  0  0  0  0  0
  190.6940  176.8770  147.3230 N   0  0  0  0  0  0  0  0  0  0  0  0
  189.4400  177.3490  147.0580 C   0  0  0  0  0  3  0  0  0  0  0  0
  184.9280  177.3060  146.1620 C   0  0  0  0  0  3  0  0  0  0  0  0
  186.2040  176.7910  146.3970 C   0  0  0  0  0  3  0  0  0  0  0  0
  187.1060  178.4240  144.8680 C   0  0  0  0  0  3  0  0  0  0  0  0
  187.3120  177.3440  145.7400 C   0  0  0  0  0  0  0  0  0  0  0  0
  185.8150  178.9110  144.6590 C   0  0  0  0  0  3  0  0  0  0  0  0
  184.7600  178.3460  145.3030 N   0  0  0  0  0  0  0  0  0  0  0  0
  188.6690  176.1220  142.8110 C   0  0  0  0  0  0  0  0  0  0  0  0
  189.5760  176.9070  142.5830 O   0  0  0  0  0  0  0  0  0  0  0  0
  186.3160  175.8700  142.7290 O   0  0  0  0  0  1  0  0  0  0  0  0
  187.4420  176.1450  141.9530 C   0  0  0  0  0  2  0  0  0  0  0  0
  192.6460  175.4210  146.8890 C   0  0  0  0  0  2  0  0  0  0  0  0
  193.6810  176.4590  146.4730 C   0  0  0  0  0  2  0  0  0  0  0  0
  194.6690  176.0860  143.8120 O   0  0  0  0  0  0  0  0  0  0  0  0
  194.9420  175.8200  146.1180 N   0  0  0  0  0  2  0  0  0  0  0  0
  196.5730  175.0160  144.5000 O   0  0  0  0  0  1  0  0  0  0  0  0
  195.3700  175.6550  144.7650 C   0  0  0  0  0  0  0  0  0  0  0  0
  1  9  1  0  0  0  0
  2  3  1  0  0  0  0
  2  1  2  0  0  0  0
  3  7  2  0  0  0  0
  4 16  1  6  0  0  0
  4  2  1  0  0  0  0
  5  3  1  0  0  0  0
  6  4  1  0  0  0  0
  6  5  2  0  0  0  0
  7 20  1  0  0  0  0
  7  8  1  0  0  0  0
  9  8  2  0  0  0  0
 10 11  1  0  0  0  0
 12 13  1  0  0  0  0
 13  1  1  0  0  0  0
 13 11  2  0  0  0  0
 14 12  2  0  0  0  0
 14 15  1  0  0  0  0
 15 10  2  0  0  0  0
 17 16  2  0  0  0  0
 19 18  1  0  0  0  0
 19 16  1  0  0  0  0
 21 20  1  0  0  0  0
 22 25  2  0  0  0  0
 23 21  1  0  0  0  0
 24 25  1  0  0  0  0
 25 23  1  0  0  0  0
M  END
>  <MODEL>
7

>  <REMARK>
 VINA RESULT:      -6.2      2.437      7.319
  Name = 
  6 active torsions:
  status: ('A' for Active; 'I' for Inactive)
    1  A    between atoms: C_1  and  C_13
    2  A    between atoms: C_2  and  N_6
    3  A    between atoms: C_2  and  C_18
    4  A    between atoms: C_14  and  C_21
    5  A    between atoms: C_18  and  C_22
    6  A    between atoms: C_20  and  C_21
                            x       y       z     vdW  Elec       q    Type
                         _______ _______ _______ _____ _____    ______ ____

>  <TORSDO>
F 6

$$$$
=
 OpenBabel11062420163D

 25 27  0  0  1  0  0  0  0  0999 V2000
  190.0190  174.6860  145.4910 C   0  0  0  0  0  0  0  0  0  0  0  0
  189.6850  175.8220  144.7250 C   0  0  0  0  0  0  0  0  0  0  0  0
  188.7500  176.7150  145.1670 C   0  0  0  0  0  0  0  0  0  0  0  0
  190.1780  176.2520  143.3780 C   0  0  2  0  0  3  0  0  0  0  0  0
  188.5590  177.7940  144.2740 N   0  0  0  0  0  0  0  0  0  0  0  0
  189.4730  177.6060  143.1520 C   0  0  0  0  0  3  0  0  0  0  0  0
  188.0790  176.5150  146.3730 C   0  0  0  0  0  0  0  0  0  0  0  0
  188.3740  175.4050  147.1040 N   0  0  0  0  0  0  0  0  0  0  0  0
  189.3170  174.5040  146.6980 C   0  0  0  0  0  3  0  0  0  0  0  0
  193.3770  173.0090  144.9580 C   0  0  0  0  0  3  0  0  0  0  0  0
  192.4210  173.9580  145.3270 C   0  0  0  0  0  3  0  0  0  0  0  0
  190.6950  172.4910  144.4980 C   0  0  0  0  0  3  0  0  0  0  0  0
  191.0620  173.7090  145.0900 C   0  0  0  0  0  0  0  0  0  0  0  0
  191.6800  171.5670  144.1440 C   0  0  0  0  0  3  0  0  0  0  0  0
  192.9910  171.8430  144.3770 N   0  0  0  0  0  0  0  0  0  0  0  0
  189.7710  175.2820  142.3020 C   0  0  0  0  0  0  0  0  0  0  0  0
  190.6340  174.6680  141.6950 O   0  0  0  0  0  0  0  0  0  0  0  0
  188.1970  174.8860  140.5780 O   0  0  0  0  0  1  0  0  0  0  0  0
  188.3310  175.0640  141.9550 C   0  0  0  0  0  2  0  0  0  0  0  0
  187.0250  177.4620  146.8450 C   0  0  0  0  0  2  0  0  0  0  0  0
  185.6340  176.9380  146.5100 C   0  0  0  0  0  2  0  0  0  0  0  0
  185.4130  177.1370  143.6630 O   0  0  0  0  0  0  0  0  0  0  0  0
  184.8630  177.9420  145.7870 N   0  0  0  0  0  2  0  0  0  0  0  0
  184.0690  178.9900  143.7390 O   0  0  0  0  0  1  0  0  0  0  0  0
  184.8050  177.9920  144.3600 C   0  0  0  0  0  0  0  0  0  0  0  0
  1  9  1  0  0  0  0
  2  3  1  0  0  0  0
  2  1  2  0  0  0  0
  3  7  2  0  0  0  0
  4 16  1  6  0  0  0
  4  2  1  0  0  0  0
  5  3  1  0  0  0  0
  6  4  1  0  0  0  0
  6  5  2  0  0  0  0
  7 20  1  0  0  0  0
  7  8  1  0  0  0  0
  9  8  2  0  0  0  0
 10 11  1  0  0  0  0
 12 13  1  0  0  0  0
 13 11  2  0  0  0  0
 13  1  1  0  0  0  0
 14 15  1  0  0  0  0
 14 12  2  0  0  0  0
 15 10  2  0  0  0  0
 17 16  2  0  0  0  0
 18 19  1  0  0  0  0
 19 16  1  0  0  0  0
 21 20  1  0  0  0  0
 22 25  2  0  0  0  0
 23 21  1  0  0  0  0
 24 25  1  0  0  0  0
 25 23  1  0  0  0  0
M  END
>  <MODEL>
8

>  <REMARK>
 VINA RESULT:      -6.0      2.442      3.779
  Name = 
  6 active torsions:
  status: ('A' for Active; 'I' for Inactive)
    1  A    between atoms: C_1  and  C_13
    2  A    between atoms: C_2  and  N_6
    3  A    between atoms: C_2  and  C_18
    4  A    between atoms: C_14  and  C_21
    5  A    between atoms: C_18  and  C_22
    6  A    between atoms: C_20  and  C_21
                            x       y       z     vdW  Elec       q    Type
                         _______ _______ _______ _____ _____    ______ ____

>  <TORSDO>
F 6

$$$$
=
 OpenBabel11062420163D

 25 27  0  0  1  0  0  0  0  0999 V2000
  187.9640  176.9940  144.9140 C   0  0  0  0  0  0  0  0  0  0  0  0
  188.1160  176.1040  143.8310 C   0  0  0  0  0  0  0  0  0  0  0  0
  189.3310  175.5490  143.5430 C   0  0  0  0  0  0  0  0  0  0  0  0
  187.1120  175.6410  142.8210 C   0  0  2  0  0  3  0  0  0  0  0  0
  189.2850  174.6750  142.4340 N   0  0  0  0  0  0  0  0  0  0  0  0
  187.9040  174.6300  141.9640 C   0  0  0  0  0  3  0  0  0  0  0  0
  190.4620  175.8700  144.2930 C   0  0  0  0  0  0  0  0  0  0  0  0
  190.3310  176.7510  145.3230 N   0  0  0  0  0  0  0  0  0  0  0  0
  189.1260  177.3070  145.6460 C   0  0  0  0  0  3  0  0  0  0  0  0
  185.0170  179.3610  145.1990 C   0  0  0  0  0  3  0  0  0  0  0  0
  186.2580  178.8400  144.8270 C   0  0  0  0  0  3  0  0  0  0  0  0
  185.7890  176.8750  146.1440 C   0  0  0  0  0  3  0  0  0  0  0  0
  186.6620  177.5870  145.3080 C   0  0  0  0  0  0  0  0  0  0  0  0
  184.5560  177.4290  146.4940 C   0  0  0  0  0  3  0  0  0  0  0  0
  184.1980  178.6520  146.0200 N   0  0  0  0  0  0  0  0  0  0  0  0
  186.6330  176.7740  141.9540 C   0  0  0  0  0  0  0  0  0  0  0  0
  185.4870  177.1760  142.0770 O   0  0  0  0  0  0  0  0  0  0  0  0
  188.4210  178.2770  141.5660 O   0  0  0  0  0  1  0  0  0  0  0  0
  187.5300  177.4090  140.9360 C   0  0  0  0  0  2  0  0  0  0  0  0
  191.8040  175.3020  143.9620 C   0  0  0  0  0  2  0  0  0  0  0  0
  192.4860  176.1210  142.8730 C   0  0  0  0  0  2  0  0  0  0  0  0
  194.7950  176.6670  141.2710 O   0  0  0  0  0  1  0  0  0  0  0  0
  193.0180  175.2550  141.8300 N   0  0  0  0  0  2  0  0  0  0  0  0
  194.6080  174.7300  140.0630 O   0  0  0  0  0  0  0  0  0  0  0  0
  194.1710  175.5940  141.0560 C   0  0  0  0  0  0  0  0  0  0  0  0
  1 13  1  0  0  0  0
  1  9  1  0  0  0  0
  2  1  2  0  0  0  0
  3  2  1  0  0  0  0
  3  7  2  0  0  0  0
  4 16  1  6  0  0  0
  4  2  1  0  0  0  0
  5  3  1  0  0  0  0
  6  5  2  0  0  0  0
  6  4  1  0  0  0  0
  7  8  1  0  0  0  0
  8  9  2  0  0  0  0
 10 15  1  0  0  0  0
 11 10  2  0  0  0  0
 11 13  1  0  0  0  0
 12 14  1  0  0  0  0
 13 12  2  0  0  0  0
 15 14  2  0  0  0  0
 16 17  2  0  0  0  0
 19 18  1  0  0  0  0
 19 16  1  0  0  0  0
 20  7  1  0  0  0  0
 21 20  1  0  0  0  0
 23 21  1  0  0  0  0
 24 25  2  0  0  0  0
 25 22  1  0  0  0  0
 25 23  1  0  0  0  0
M  END
>  <MODEL>
9

>  <REMARK>
 VINA RESULT:      -6.0      2.862      6.623
  Name = 
  6 active torsions:
  status: ('A' for Active; 'I' for Inactive)
    1  A    between atoms: C_1  and  C_13
    2  A    between atoms: C_2  and  N_6
    3  A    between atoms: C_2  and  C_18
    4  A    between atoms: C_14  and  C_21
    5  A    between atoms: C_18  and  C_22
    6  A    between atoms: C_20  and  C_21
                            x       y       z     vdW  Elec       q    Type
                         _______ _______ _______ _____ _____    ______ ____

>  <TORSDO>
F 6

$$$$
