=
 OpenBabel11072409233D

 39 43  0  0  1  0  0  0  0  0999 V2000
  190.1180  177.7290  146.3280 C   0  0  0  0  0  2  0  0  0  0  0  0
  190.7150  176.9930  147.5190 C   0  0  0  0  0  2  0  0  0  0  0  0
  191.6140  174.9270  148.2910 O   0  0  0  0  0  1  0  0  0  0  0  0
  189.4150  175.4840  145.4060 C   0  0  0  0  0  2  0  0  0  0  0  0
  190.0230  174.8010  146.5580 N   0  0  0  0  0  0  0  0  0  0  0  0
  191.1560  175.5680  147.1330 C   0  0  1  0  0  0  0  0  0  0  0  0
  188.9830  174.5510  147.5560 C   0  0  0  0  0  1  0  0  0  0  0  0
  188.9770  176.9170  145.7320 C   0  0  2  0  0  3  0  0  0  0  0  0
  192.3150  175.6220  146.1120 C   0  0  2  0  0  3  0  0  0  0  0  0
  192.8400  174.2410  145.7480 C   0  0  0  0  0  2  0  0  0  0  0  0
  194.3530  174.3530  145.6730 C   0  0  0  0  0  2  0  0  0  0  0  0
  193.5150  176.4090  146.6090 C   0  0  0  0  0  2  0  0  0  0  0  0
  194.7070  175.8130  145.8960 C   0  0  2  0  0  3  0  0  0  0  0  0
  194.8750  176.4730  144.6080 N   0  0  0  0  0  2  0  0  0  0  0  0
  196.8440  175.3430  144.0490 O   0  0  0  0  0  0  0  0  0  0  0  0
  195.9230  176.1310  143.7000 C   0  0  0  0  0  0  0  0  0  0  0  0
  195.8900  176.6640  142.3070 C   0  0  0  0  0  2  0  0  0  0  0  0
  193.1470  174.2240  139.8680 O   0  0  0  0  0  0  0  0  0  0  0  0
  193.8840  175.1430  141.8940 N   0  0  0  0  0  2  0  0  0  0  0  0
  195.3730  175.7300  140.1840 O   0  0  0  0  0  0  0  0  0  0  0  0
  192.9710  174.3690  141.1080 C   0  0  0  0  0  0  0  0  0  0  0  0
  195.0500  175.8160  141.3980 C   0  0  0  0  0  0  0  0  0  0  0  0
  190.5840  174.5170  141.5850 C   0  0  2  0  0  3  0  0  0  0  0  0
  189.3610  173.6420  141.7590 C   0  0  0  0  0  1  0  0  0  0  0  0
  191.8080  173.7060  141.7690 C   0  0  2  0  0  3  0  0  0  0  0  0
  191.3070  174.5390  142.7890 O   0  0  0  0  0  0  0  0  0  0  0  0
  188.3000  177.6040  144.5330 C   0  0  0  0  0  2  0  0  0  0  0  0
  186.3620  178.8130  143.5180 C   0  0  0  0  0  2  0  0  0  0  0  0
  186.5480  176.9580  141.6890 C   0  0  1  0  0  0  0  0  0  0  0  0
  187.3650  176.5950  140.4580 C   0  0  0  0  0  1  0  0  0  0  0  0
  186.6080  178.4430  142.0480 C   0  0  1  0  0  3  0  0  0  0  0  0
  185.0990  178.3090  140.0750 C   0  0  0  0  0  1  0  0  0  0  0  0
  185.3130  177.8330  141.5050 C   0  0  1  0  0  3  0  0  0  0  0  0
  186.5100  175.9110  142.8090 C   0  0  0  0  0  2  0  0  0  0  0  0
  186.0500  176.4420  144.1640 C   0  0  0  0  0  2  0  0  0  0  0  0
  186.7570  177.7470  144.5420 C   0  0  1  0  0  0  0  0  0  0  0  0
  186.2820  178.2020  145.8970 C   0  0  0  0  0  3  0  0  0  0  0  0
  185.0150  178.0770  146.3000 C   0  0  0  0  0  3  0  0  0  0  0  0
  184.6170  178.5500  147.6540 C   0  0  0  0  0  1  0  0  0  0  0  0
  1  2  1  0  0  0  0
  4  8  1  0  0  0  0
  4  5  1  0  0  0  0
  5  6  1  0  0  0  0
  5  7  1  0  0  0  0
  6  2  1  0  0  0  0
  6  3  1  1  0  0  0
  8 27  1  6  0  0  0
  8  1  1  0  0  0  0
  9 10  1  1  0  0  0
  9 12  1  0  0  0  0
  9  6  1  0  0  0  0
 11 10  1  0  0  0  0
 11 13  1  0  0  0  0
 13 14  1  6  0  0  0
 13 12  1  0  0  0  0
 16 15  2  0  0  0  0
 16 14  1  0  0  0  0
 17 16  1  0  0  0  0
 18 21  2  0  0  0  0
 20 22  2  0  0  0  0
 21 19  1  0  0  0  0
 22 19  1  0  0  0  0
 22 17  1  0  0  0  0
 23 24  1  1  0  0  0
 23 25  1  0  0  0  0
 23 26  1  0  0  0  0
 25 21  1  6  0  0  0
 25 26  1  0  0  0  0
 28 36  1  0  0  0  0
 29 30  1  6  0  0  0
 29 31  1  0  0  0  0
 29 34  1  0  0  0  0
 31 28  1  1  0  0  0
 33 32  1  6  0  0  0
 33 29  1  0  0  0  0
 33 31  1  0  0  0  0
 34 35  1  0  0  0  0
 35 36  1  0  0  0  0
 36 27  1  1  0  0  0
 36 37  1  0  0  0  0
 37 38  2  0  0  0  0
 38 39  1  0  0  0  0
M  END
>  <MODEL>
1

>  <REMARK>
 VINA RESULT:      -8.4      0.000      0.000
  Name = 
  8 active torsions:
  status: ('A' for Active; 'I' for Inactive)
    1  A    between atoms: C_2  and  C_31
    2  A    between atoms: C_10  and  C_24
    3  A    between atoms: C_10  and  C_27
    4  A    between atoms: C_13  and  C_18
    5  A    between atoms: N_16  and  C_35
    6  A    between atoms: C_26  and  C_38
    7  A    between atoms: C_26  and  C_39
    8  A    between atoms: C_28  and  C_38
                            x       y       z     vdW  Elec       q    Type
                         _______ _______ _______ _____ _____    ______ ____

>  <TORSDO>
F 8

$$$$
=
 OpenBabel11072409233D

 39 43  0  0  1  0  0  0  0  0999 V2000
  190.1360  177.7080  145.8560 C   0  0  0  0  0  2  0  0  0  0  0  0
  190.6260  177.0690  147.1470 C   0  0  0  0  0  2  0  0  0  0  0  0
  191.4980  175.0870  148.1410 O   0  0  0  0  0  1  0  0  0  0  0  0
  189.5970  175.3870  145.0150 C   0  0  0  0  0  2  0  0  0  0  0  0
  190.1000  174.7990  146.2660 N   0  0  0  0  0  0  0  0  0  0  0  0
  191.1460  175.6390  146.9030 C   0  0  1  0  0  0  0  0  0  0  0  0
  188.9700  174.5740  147.1660 C   0  0  0  0  0  1  0  0  0  0  0  0
  189.0870  176.8210  145.2000 C   0  0  2  0  0  3  0  0  0  0  0  0
  192.4030  175.6700  146.0050 C   0  0  2  0  0  3  0  0  0  0  0  0
  192.8700  174.2790  145.6030 C   0  0  0  0  0  2  0  0  0  0  0  0
  194.3880  174.2860  145.6830 C   0  0  0  0  0  2  0  0  0  0  0  0
  193.5950  176.3390  146.6660 C   0  0  0  0  0  2  0  0  0  0  0  0
  194.8120  175.7020  146.0340 C   0  0  2  0  0  3  0  0  0  0  0  0
  195.1520  176.4230  144.8160 N   0  0  0  0  0  2  0  0  0  0  0  0
  197.0360  175.1290  144.3250 O   0  0  0  0  0  0  0  0  0  0  0  0
  196.2320  176.0310  143.9670 C   0  0  0  0  0  0  0  0  0  0  0  0
  196.3690  176.6540  142.6190 C   0  0  0  0  0  2  0  0  0  0  0  0
  193.6290  174.6950  139.7760 O   0  0  0  0  0  0  0  0  0  0  0  0
  194.2160  175.4880  141.9010 N   0  0  0  0  0  2  0  0  0  0  0  0
  196.0080  175.8090  140.4270 O   0  0  0  0  0  0  0  0  0  0  0  0
  193.3070  174.8740  140.9810 C   0  0  0  0  0  0  0  0  0  0  0  0
  195.5360  175.9540  141.5860 C   0  0  0  0  0  0  0  0  0  0  0  0
  192.0230  172.9930  141.8530 C   0  0  2  0  0  3  0  0  0  0  0  0
  190.8900  172.6810  142.8060 C   0  0  0  0  0  1  0  0  0  0  0  0
  191.9690  174.4190  141.4610 C   0  0  2  0  0  3  0  0  0  0  0  0
  191.4870  173.3970  140.6190 O   0  0  0  0  0  0  0  0  0  0  0  0
  188.5200  177.4080  143.8960 C   0  0  0  0  0  2  0  0  0  0  0  0
  186.3840  176.3630  144.6660 C   0  0  0  0  0  2  0  0  0  0  0  0
  185.8400  178.7870  145.4740 C   0  0  1  0  0  0  0  0  0  0  0  0
  186.1470  179.7440  146.6170 C   0  0  0  0  0  1  0  0  0  0  0  0
  186.0710  177.3170  145.8280 C   0  0  1  0  0  3  0  0  0  0  0  0
  183.9490  177.9370  146.9670 C   0  0  0  0  0  1  0  0  0  0  0  0
  184.6500  177.8460  145.6190 C   0  0  1  0  0  3  0  0  0  0  0  0
  186.1780  179.2860  144.0640 C   0  0  0  0  0  2  0  0  0  0  0  0
  186.2550  178.1930  143.0010 C   0  0  0  0  0  2  0  0  0  0  0  0
  187.0900  176.9960  143.4650 C   0  0  1  0  0  0  0  0  0  0  0  0
  187.1500  175.9690  142.3640 C   0  0  0  0  0  3  0  0  0  0  0  0
  188.2570  175.7290  141.6570 C   0  0  0  0  0  3  0  0  0  0  0  0
  188.2430  174.6990  140.5830 C   0  0  0  0  0  1  0  0  0  0  0  0
  1  2  1  0  0  0  0
  4  8  1  0  0  0  0
  4  5  1  0  0  0  0
  5  6  1  0  0  0  0
  5  7  1  0  0  0  0
  6  2  1  0  0  0  0
  6  3  1  1  0  0  0
  8 27  1  6  0  0  0
  8  1  1  0  0  0  0
  9 10  1  1  0  0  0
  9 12  1  0  0  0  0
  9  6  1  0  0  0  0
 10 11  1  0  0  0  0
 11 13  1  0  0  0  0
 13 14  1  6  0  0  0
 13 12  1  0  0  0  0
 16 15  2  0  0  0  0
 16 14  1  0  0  0  0
 17 16  1  0  0  0  0
 18 21  2  0  0  0  0
 20 22  2  0  0  0  0
 21 19  1  0  0  0  0
 22 19  1  0  0  0  0
 22 17  1  0  0  0  0
 23 24  1  1  0  0  0
 25 21  1  6  0  0  0
 25 23  1  0  0  0  0
 26 25  1  0  0  0  0
 26 23  1  0  0  0  0
 29 33  1  0  0  0  0
 29 31  1  0  0  0  0
 29 30  1  1  0  0  0
 31 28  1  6  0  0  0
 33 31  1  0  0  0  0
 33 32  1  1  0  0  0
 34 29  1  0  0  0  0
 35 36  1  0  0  0  0
 35 34  1  0  0  0  0
 36 37  1  6  0  0  0
 36 27  1  0  0  0  0
 36 28  1  0  0  0  0
 38 37  2  0  0  0  0
 39 38  1  0  0  0  0
M  END
>  <MODEL>
2

>  <REMARK>
 VINA RESULT:      -7.9      1.036      2.909
  Name = 
  8 active torsions:
  status: ('A' for Active; 'I' for Inactive)
    1  A    between atoms: C_2  and  C_31
    2  A    between atoms: C_10  and  C_24
    3  A    between atoms: C_10  and  C_27
    4  A    between atoms: C_13  and  C_18
    5  A    between atoms: N_16  and  C_35
    6  A    between atoms: C_26  and  C_38
    7  A    between atoms: C_26  and  C_39
    8  A    between atoms: C_28  and  C_38
                            x       y       z     vdW  Elec       q    Type
                         _______ _______ _______ _____ _____    ______ ____

>  <TORSDO>
F 8

$$$$
=
 OpenBabel11072409233D

 39 43  0  0  1  0  0  0  0  0999 V2000
  190.2590  177.7190  146.2150 C   0  0  0  0  0  2  0  0  0  0  0  0
  190.8560  176.9650  147.3950 C   0  0  0  0  0  2  0  0  0  0  0  0
  191.6800  174.8650  148.1590 O   0  0  0  0  0  1  0  0  0  0  0  0
  189.4250  175.5030  145.3340 C   0  0  0  0  0  2  0  0  0  0  0  0
  190.0330  174.8010  146.4750 N   0  0  0  0  0  0  0  0  0  0  0  0
  191.2180  175.5180  147.0090 C   0  0  1  0  0  0  0  0  0  0  0  0
  189.0130  174.6070  147.5040 C   0  0  0  0  0  1  0  0  0  0  0  0
  189.0640  176.9580  145.6600 C   0  0  2  0  0  3  0  0  0  0  0  0
  192.3480  175.5100  145.9550 C   0  0  2  0  0  3  0  0  0  0  0  0
  192.7420  174.1030  145.5300 C   0  0  0  0  0  2  0  0  0  0  0  0
  194.2570  174.0890  145.4110 C   0  0  0  0  0  2  0  0  0  0  0  0
  193.6240  176.1750  146.4390 C   0  0  0  0  0  2  0  0  0  0  0  0
  194.7400  175.5060  145.6700 C   0  0  2  0  0  3  0  0  0  0  0  0
  194.9270  176.1940  144.4000 N   0  0  0  0  0  2  0  0  0  0  0  0
  197.1020  175.4080  144.0540 O   0  0  0  0  0  0  0  0  0  0  0  0
  196.1040  176.0360  143.6060 C   0  0  0  0  0  0  0  0  0  0  0  0
  196.1250  176.5660  142.2120 C   0  0  0  0  0  2  0  0  0  0  0  0
  196.2330  173.5000  139.0480 O   0  0  0  0  0  0  0  0  0  0  0  0
  196.6440  175.6470  139.8890 N   0  0  0  0  0  2  0  0  0  0  0  0
  195.5170  174.3800  141.5040 O   0  0  0  0  0  0  0  0  0  0  0  0
  196.7090  174.6520  138.8620 C   0  0  0  0  0  0  0  0  0  0  0  0
  196.0630  175.4700  141.1900 C   0  0  0  0  0  0  0  0  0  0  0  0
  196.3240  175.6170  136.6560 C   0  0  2  0  0  3  0  0  0  0  0  0
  197.0260  176.4240  135.5850 C   0  0  0  0  0  1  0  0  0  0  0  0
  197.3270  174.9910  137.5460 C   0  0  2  0  0  3  0  0  0  0  0  0
  196.6850  174.2660  136.5230 O   0  0  0  0  0  0  0  0  0  0  0  0
  188.3850  177.6660  144.4750 C   0  0  0  0  0  2  0  0  0  0  0  0
  186.4650  178.9000  143.4560 C   0  0  0  0  0  2  0  0  0  0  0  0
  186.5190  176.9470  141.7220 C   0  0  1  0  0  0  0  0  0  0  0  0
  187.2820  176.4890  140.4880 C   0  0  0  0  0  1  0  0  0  0  0  0
  186.6490  178.4450  142.0010 C   0  0  1  0  0  3  0  0  0  0  0  0
  185.0740  178.2720  140.0840 C   0  0  0  0  0  1  0  0  0  0  0  0
  185.3140  177.8610  141.5290 C   0  0  1  0  0  3  0  0  0  0  0  0
  186.4770  175.9610  142.8960 C   0  0  0  0  0  2  0  0  0  0  0  0
  186.0810  176.5790  144.2340 C   0  0  0  0  0  2  0  0  0  0  0  0
  186.8500  177.8720  144.5220 C   0  0  1  0  0  0  0  0  0  0  0  0
  186.4360  178.4140  145.8650 C   0  0  0  0  0  3  0  0  0  0  0  0
  185.8380  177.6670  146.7960 C   0  0  0  0  0  3  0  0  0  0  0  0
  185.4570  178.2710  148.1010 C   0  0  0  0  0  1  0  0  0  0  0  0
  1  2  1  0  0  0  0
  4  8  1  0  0  0  0
  4  5  1  0  0  0  0
  5  6  1  0  0  0  0
  5  7  1  0  0  0  0
  6  2  1  0  0  0  0
  6  3  1  1  0  0  0
  8 27  1  6  0  0  0
  8  1  1  0  0  0  0
  9 10  1  1  0  0  0
  9 12  1  0  0  0  0
  9  6  1  0  0  0  0
 11 10  1  0  0  0  0
 11 13  1  0  0  0  0
 13 14  1  6  0  0  0
 13 12  1  0  0  0  0
 16 15  2  0  0  0  0
 16 14  1  0  0  0  0
 17 16  1  0  0  0  0
 19 22  1  0  0  0  0
 21 18  2  0  0  0  0
 21 19  1  0  0  0  0
 22 20  2  0  0  0  0
 22 17  1  0  0  0  0
 23 24  1  6  0  0  0
 23 25  1  0  0  0  0
 25 21  1  1  0  0  0
 26 23  1  0  0  0  0
 26 25  1  0  0  0  0
 28 36  1  0  0  0  0
 29 30  1  6  0  0  0
 29 31  1  0  0  0  0
 29 34  1  0  0  0  0
 31 28  1  1  0  0  0
 33 32  1  6  0  0  0
 33 29  1  0  0  0  0
 33 31  1  0  0  0  0
 34 35  1  0  0  0  0
 35 36  1  0  0  0  0
 36 27  1  6  0  0  0
 36 37  1  0  0  0  0
 37 38  2  0  0  0  0
 38 39  1  0  0  0  0
M  END
>  <MODEL>
3

>  <REMARK>
 VINA RESULT:      -7.9      1.879      2.913
  Name = 
  8 active torsions:
  status: ('A' for Active; 'I' for Inactive)
    1  A    between atoms: C_2  and  C_31
    2  A    between atoms: C_10  and  C_24
    3  A    between atoms: C_10  and  C_27
    4  A    between atoms: C_13  and  C_18
    5  A    between atoms: N_16  and  C_35
    6  A    between atoms: C_26  and  C_38
    7  A    between atoms: C_26  and  C_39
    8  A    between atoms: C_28  and  C_38
                            x       y       z     vdW  Elec       q    Type
                         _______ _______ _______ _____ _____    ______ ____

>  <TORSDO>
F 8

$$$$
=
 OpenBabel11072409233D

 39 43  0  0  1  0  0  0  0  0999 V2000
  190.7320  177.5780  145.3050 C   0  0  0  0  0  2  0  0  0  0  0  0
  191.5580  176.8000  146.3190 C   0  0  0  0  0  2  0  0  0  0  0  0
  192.3170  174.6410  146.9800 O   0  0  0  0  0  1  0  0  0  0  0  0
  189.4160  175.4620  144.8850 C   0  0  0  0  0  2  0  0  0  0  0  0
  190.2490  174.7320  145.8540 N   0  0  0  0  0  0  0  0  0  0  0  0
  191.6150  175.3010  145.9630 C   0  0  1  0  0  0  0  0  0  0  0  0
  189.5650  174.7240  147.1470 C   0  0  0  0  0  1  0  0  0  0  0  0
  189.3440  176.9650  145.1820 C   0  0  2  0  0  3  0  0  0  0  0  0
  192.3710  175.0940  144.6310 C   0  0  2  0  0  3  0  0  0  0  0  0
  192.4920  173.6260  144.2500 C   0  0  0  0  0  2  0  0  0  0  0  0
  193.8940  173.4310  143.6970 C   0  0  0  0  0  2  0  0  0  0  0  0
  193.7870  175.6400  144.6550 C   0  0  0  0  0  2  0  0  0  0  0  0
  194.5570  174.7980  143.6630 C   0  0  2  0  0  3  0  0  0  0  0  0
  194.4150  175.3730  142.3330 N   0  0  0  0  0  2  0  0  0  0  0  0
  196.2190  174.2090  141.4070 O   0  0  0  0  0  0  0  0  0  0  0  0
  195.2310  174.9730  141.2320 C   0  0  0  0  0  0  0  0  0  0  0  0
  194.8710  175.4150  139.8530 C   0  0  0  0  0  2  0  0  0  0  0  0
  191.3490  173.1620  138.4570 O   0  0  0  0  0  0  0  0  0  0  0  0
  192.6800  174.1350  140.1220 N   0  0  0  0  0  2  0  0  0  0  0  0
  193.7230  174.3920  138.0410 O   0  0  0  0  0  0  0  0  0  0  0  0
  191.5190  173.4250  139.6780 C   0  0  0  0  0  0  0  0  0  0  0  0
  193.7400  174.6130  139.2800 C   0  0  0  0  0  0  0  0  0  0  0  0
  189.3040  173.8290  140.6160 C   0  0  2  0  0  3  0  0  0  0  0  0
  188.1180  173.0890  141.1970 C   0  0  0  0  0  1  0  0  0  0  0  0
  190.5080  172.9700  140.6770 C   0  0  2  0  0  3  0  0  0  0  0  0
  190.2770  173.9940  141.6160 O   0  0  0  0  0  0  0  0  0  0  0  0
  188.4320  177.7090  144.1910 C   0  0  0  0  0  2  0  0  0  0  0  0
  186.2840  178.8560  143.6310 C   0  0  0  0  0  2  0  0  0  0  0  0
  186.2440  177.1620  141.6440 C   0  0  1  0  0  0  0  0  0  0  0  0
  186.8500  176.9500  140.2650 C   0  0  0  0  0  1  0  0  0  0  0  0
  186.2860  178.6160  142.1150 C   0  0  1  0  0  3  0  0  0  0  0  0
  184.4630  178.5300  140.4260 C   0  0  0  0  0  1  0  0  0  0  0  0
  184.9500  177.9620  141.7500 C   0  0  1  0  0  3  0  0  0  0  0  0
  186.4610  176.0330  142.6590 C   0  0  0  0  0  2  0  0  0  0  0  0
  186.2190  176.4270  144.1140 C   0  0  0  0  0  2  0  0  0  0  0  0
  186.9100  177.7450  144.4770 C   0  0  1  0  0  0  0  0  0  0  0  0
  186.6570  178.0620  145.9270 C   0  0  0  0  0  3  0  0  0  0  0  0
  185.8950  177.2990  146.7140 C   0  0  0  0  0  3  0  0  0  0  0  0
  185.6890  177.6750  148.1390 C   0  0  0  0  0  1  0  0  0  0  0  0
  1  2  1  0  0  0  0
  4  8  1  0  0  0  0
  4  5  1  0  0  0  0
  5  6  1  0  0  0  0
  5  7  1  0  0  0  0
  6  2  1  0  0  0  0
  6  3  1  1  0  0  0
  8 27  1  6  0  0  0
  8  1  1  0  0  0  0
  9 10  1  1  0  0  0
  9 12  1  0  0  0  0
  9  6  1  0  0  0  0
 11 10  1  0  0  0  0
 13 14  1  6  0  0  0
 13 11  1  0  0  0  0
 13 12  1  0  0  0  0
 16 15  2  0  0  0  0
 16 14  1  0  0  0  0
 17 16  1  0  0  0  0
 18 21  2  0  0  0  0
 20 22  2  0  0  0  0
 21 19  1  0  0  0  0
 22 17  1  0  0  0  0
 22 19  1  0  0  0  0
 23 25  1  0  0  0  0
 23 24  1  1  0  0  0
 23 26  1  0  0  0  0
 25 21  1  6  0  0  0
 25 26  1  0  0  0  0
 28 36  1  0  0  0  0
 29 30  1  6  0  0  0
 29 33  1  0  0  0  0
 29 31  1  0  0  0  0
 29 34  1  0  0  0  0
 31 28  1  1  0  0  0
 33 32  1  6  0  0  0
 33 31  1  0  0  0  0
 34 35  1  0  0  0  0
 35 36  1  0  0  0  0
 36 27  1  6  0  0  0
 36 37  1  0  0  0  0
 37 38  2  0  0  0  0
 38 39  1  0  0  0  0
M  END
>  <MODEL>
4

>  <REMARK>
 VINA RESULT:      -7.4      1.384      1.699
  Name = 
  8 active torsions:
  status: ('A' for Active; 'I' for Inactive)
    1  A    between atoms: C_2  and  C_31
    2  A    between atoms: C_10  and  C_24
    3  A    between atoms: C_10  and  C_27
    4  A    between atoms: C_13  and  C_18
    5  A    between atoms: N_16  and  C_35
    6  A    between atoms: C_26  and  C_38
    7  A    between atoms: C_26  and  C_39
    8  A    between atoms: C_28  and  C_38
                            x       y       z     vdW  Elec       q    Type
                         _______ _______ _______ _____ _____    ______ ____

>  <TORSDO>
F 8

$$$$
=
 OpenBabel11072409233D

 39 43  0  0  1  0  0  0  0  0999 V2000
  189.1700  173.0930  143.4210 C   0  0  0  0  0  2  0  0  0  0  0  0
  189.5750  172.0060  142.4350 C   0  0  0  0  0  2  0  0  0  0  0  0
  190.8970  171.4930  140.5210 O   0  0  0  0  0  1  0  0  0  0  0  0
  189.7490  174.7940  141.6440 C   0  0  0  0  0  2  0  0  0  0  0  0
  190.1550  173.7200  140.7240 N   0  0  0  0  0  0  0  0  0  0  0  0
  190.6380  172.5160  141.4430 C   0  0  1  0  0  0  0  0  0  0  0  0
  189.0290  173.4060  139.8450 C   0  0  0  0  0  1  0  0  0  0  0  0
  188.7050  174.3320  142.6680 C   0  0  2  0  0  3  0  0  0  0  0  0
  191.9510  172.8490  142.1870 C   0  0  2  0  0  3  0  0  0  0  0  0
  193.0660  173.2760  141.2450 C   0  0  0  0  0  2  0  0  0  0  0  0
  194.3420  172.6260  141.7520 C   0  0  0  0  0  2  0  0  0  0  0  0
  192.5010  171.6790  142.9850 C   0  0  0  0  0  2  0  0  0  0  0  0
  193.9950  171.9010  143.0410 C   0  0  2  0  0  3  0  0  0  0  0  0
  194.3110  172.7550  144.1780 N   0  0  0  0  0  2  0  0  0  0  0  0
  196.4960  171.9640  144.4330 O   0  0  0  0  0  0  0  0  0  0  0  0
  195.6080  172.7910  144.7740 C   0  0  0  0  0  0  0  0  0  0  0  0
  195.9300  173.8610  145.7630 C   0  0  0  0  0  2  0  0  0  0  0  0
  192.9190  177.0740  145.9270 O   0  0  0  0  0  0  0  0  0  0  0  0
  193.7220  174.9370  146.4520 N   0  0  0  0  0  2  0  0  0  0  0  0
  195.2370  176.0100  145.0240 O   0  0  0  0  0  0  0  0  0  0  0  0
  192.7490  175.9830  146.5350 C   0  0  0  0  0  0  0  0  0  0  0  0
  194.9500  174.9940  145.7100 C   0  0  0  0  0  0  0  0  0  0  0  0
  190.3950  175.3520  146.4460 C   0  0  2  0  0  3  0  0  0  0  0  0
  189.3360  174.6370  147.2580 C   0  0  0  0  0  1  0  0  0  0  0  0
  191.5050  175.7700  147.3320 C   0  0  2  0  0  3  0  0  0  0  0  0
  190.5110  176.6740  146.9070 O   0  0  0  0  0  0  0  0  0  0  0  0
  188.2540  175.4750  143.5930 C   0  0  0  0  0  2  0  0  0  0  0  0
  185.9380  176.4140  143.6030 C   0  0  0  0  0  2  0  0  0  0  0  0
  186.8020  177.7280  145.6890 C   0  0  1  0  0  0  0  0  0  0  0  0
  187.0650  177.5370  147.1750 C   0  0  0  0  0  1  0  0  0  0  0  0
  185.8200  176.7120  145.1050 C   0  0  1  0  0  3  0  0  0  0  0  0
  184.4160  178.3090  146.3960 C   0  0  0  0  0  1  0  0  0  0  0  0
  185.4130  178.1800  145.2530 C   0  0  1  0  0  3  0  0  0  0  0  0
  187.9940  178.1970  144.8460 C   0  0  0  0  0  2  0  0  0  0  0  0
  187.8340  177.9870  143.3420 C   0  0  0  0  0  2  0  0  0  0  0  0
  187.3370  176.5780  143.0060 C   0  0  1  0  0  0  0  0  0  0  0  0
  187.2280  176.4260  141.5110 C   0  0  0  0  0  3  0  0  0  0  0  0
  186.7520  177.3900  140.7190 C   0  0  0  0  0  3  0  0  0  0  0  0
  186.6720  177.1690  139.2480 C   0  0  0  0  0  1  0  0  0  0  0  0
  2  1  1  0  0  0  0
  4  8  1  0  0  0  0
  5  6  1  0  0  0  0
  5  4  1  0  0  0  0
  6  3  1  6  0  0  0
  6  9  1  0  0  0  0
  6  2  1  0  0  0  0
  7  5  1  0  0  0  0
  8  1  1  0  0  0  0
  8 27  1  1  0  0  0
  9 10  1  6  0  0  0
  9 12  1  0  0  0  0
 10 11  1  0  0  0  0
 11 13  1  0  0  0  0
 12 13  1  0  0  0  0
 13 14  1  1  0  0  0
 14 16  1  0  0  0  0
 15 16  2  0  0  0  0
 16 17  1  0  0  0  0
 18 21  2  0  0  0  0
 19 21  1  0  0  0  0
 20 22  2  0  0  0  0
 22 17  1  0  0  0  0
 22 19  1  0  0  0  0
 23 26  1  0  0  0  0
 23 24  1  1  0  0  0
 23 25  1  0  0  0  0
 25 21  1  6  0  0  0
 26 25  1  0  0  0  0
 29 30  1  1  0  0  0
 31 28  1  6  0  0  0
 31 33  1  0  0  0  0
 31 29  1  0  0  0  0
 33 29  1  0  0  0  0
 33 32  1  1  0  0  0
 34 29  1  0  0  0  0
 35 34  1  0  0  0  0
 36 37  1  6  0  0  0
 36 35  1  0  0  0  0
 36 27  1  0  0  0  0
 36 28  1  0  0  0  0
 38 37  2  0  0  0  0
 39 38  1  0  0  0  0
M  END
>  <MODEL>
5

>  <REMARK>
 VINA RESULT:      -7.4      2.089      5.208
  Name = 
  8 active torsions:
  status: ('A' for Active; 'I' for Inactive)
    1  A    between atoms: C_2  and  C_31
    2  A    between atoms: C_10  and  C_24
    3  A    between atoms: C_10  and  C_27
    4  A    between atoms: C_13  and  C_18
    5  A    between atoms: N_16  and  C_35
    6  A    between atoms: C_26  and  C_38
    7  A    between atoms: C_26  and  C_39
    8  A    between atoms: C_28  and  C_38
                            x       y       z     vdW  Elec       q    Type
                         _______ _______ _______ _____ _____    ______ ____

>  <TORSDO>
F 8

$$$$
=
 OpenBabel11072409233D

 39 43  0  0  1  0  0  0  0  0999 V2000
  191.1080  174.3440  144.2850 C   0  0  0  0  0  2  0  0  0  0  0  0
  191.0410  174.1900  145.7980 C   0  0  0  0  0  2  0  0  0  0  0  0
  191.0210  175.3430  147.8820 O   0  0  0  0  0  1  0  0  0  0  0  0
  192.2630  176.5610  144.6500 C   0  0  0  0  0  2  0  0  0  0  0  0
  192.1620  176.3930  146.1080 N   0  0  0  0  0  0  0  0  0  0  0  0
  190.9960  175.5620  146.4990 C   0  0  1  0  0  0  0  0  0  0  0  0
  193.4160  175.8270  146.6040 C   0  0  0  0  0  1  0  0  0  0  0  0
  192.2910  175.2230  143.9020 C   0  0  2  0  0  3  0  0  0  0  0  0
  189.6880  176.3040  146.1430 C   0  0  2  0  0  3  0  0  0  0  0  0
  189.5990  177.6770  146.7930 C   0  0  0  0  0  2  0  0  0  0  0  0
  188.1640  177.8470  147.2630 C   0  0  0  0  0  2  0  0  0  0  0  0
  188.4390  175.5550  146.5730 C   0  0  0  0  0  2  0  0  0  0  0  0
  187.3930  176.6210  146.8040 C   0  0  2  0  0  3  0  0  0  0  0  0
  186.7190  176.9140  145.5460 N   0  0  0  0  0  2  0  0  0  0  0  0
  184.6500  177.3940  146.5230 O   0  0  0  0  0  0  0  0  0  0  0  0
  185.3680  177.3730  145.4870 C   0  0  0  0  0  0  0  0  0  0  0  0
  184.8260  177.8890  144.1960 C   0  0  0  0  0  2  0  0  0  0  0  0
  187.8070  177.7730  140.9530 O   0  0  0  0  0  0  0  0  0  0  0  0
  186.3990  176.7660  142.5320 N   0  0  0  0  0  2  0  0  0  0  0  0
  186.2740  179.0950  142.7480 O   0  0  0  0  0  0  0  0  0  0  0  0
  187.3480  176.7150  141.4610 C   0  0  0  0  0  0  0  0  0  0  0  0
  185.8780  177.9620  143.1300 C   0  0  0  0  0  0  0  0  0  0  0  0
  188.1350  174.4930  142.0870 C   0  0  2  0  0  3  0  0  0  0  0  0
  188.0830  173.0520  141.6270 C   0  0  0  0  0  1  0  0  0  0  0  0
  187.8160  175.3910  140.9550 C   0  0  2  0  0  3  0  0  0  0  0  0
  189.1410  175.1670  141.3760 O   0  0  0  0  0  0  0  0  0  0  0  0
  192.4460  175.4110  142.3830 C   0  0  0  0  0  2  0  0  0  0  0  0
  193.9110  174.9340  140.4160 C   0  0  0  0  0  2  0  0  0  0  0  0
  195.8370  175.3990  142.1180 C   0  0  1  0  0  0  0  0  0  0  0  0
  196.5720  176.5580  142.7770 C   0  0  0  0  0  1  0  0  0  0  0  0
  195.1220  175.7860  140.8230 C   0  0  1  0  0  3  0  0  0  0  0  0
  197.5340  175.6700  140.2260 C   0  0  0  0  0  1  0  0  0  0  0  0
  196.3570  174.8810  140.7810 C   0  0  1  0  0  3  0  0  0  0  0  0
  195.1880  174.3830  143.0650 C   0  0  0  0  0  2  0  0  0  0  0  0
  194.1340  173.4890  142.4160 C   0  0  0  0  0  2  0  0  0  0  0  0
  193.1400  174.2900  141.5700 C   0  0  1  0  0  0  0  0  0  0  0  0
  192.1140  173.3560  140.9830 C   0  0  0  0  0  3  0  0  0  0  0  0
  191.7590  173.3870  139.6960 C   0  0  0  0  0  3  0  0  0  0  0  0
  190.7360  172.4330  139.1850 C   0  0  0  0  0  1  0  0  0  0  0  0
  1  2  1  0  0  0  0
  2  6  1  0  0  0  0
  4  5  1  0  0  0  0
  5  6  1  0  0  0  0
  5  7  1  0  0  0  0
  6  3  1  1  0  0  0
  8 27  1  6  0  0  0
  8  1  1  0  0  0  0
  8  4  1  0  0  0  0
  9  6  1  0  0  0  0
  9 12  1  1  0  0  0
  9 10  1  0  0  0  0
 10 11  1  0  0  0  0
 12 13  1  0  0  0  0
 13 14  1  6  0  0  0
 13 11  1  0  0  0  0
 16 14  1  0  0  0  0
 16 15  2  0  0  0  0
 17 16  1  0  0  0  0
 18 21  2  0  0  0  0
 19 22  1  0  0  0  0
 20 22  2  0  0  0  0
 21 19  1  0  0  0  0
 22 17  1  0  0  0  0
 23 24  1  6  0  0  0
 25 26  1  0  0  0  0
 25 21  1  1  0  0  0
 25 23  1  0  0  0  0
 26 23  1  0  0  0  0
 28 36  1  0  0  0  0
 29 30  1  1  0  0  0
 29 34  1  0  0  0  0
 31 28  1  1  0  0  0
 31 29  1  0  0  0  0
 33 32  1  6  0  0  0
 33 31  1  0  0  0  0
 33 29  1  0  0  0  0
 35 34  1  0  0  0  0
 36 37  1  6  0  0  0
 36 27  1  0  0  0  0
 36 35  1  0  0  0  0
 38 37  2  0  0  0  0
 39 38  1  0  0  0  0
M  END
>  <MODEL>
6

>  <REMARK>
 VINA RESULT:      -7.1      2.661      7.685
  Name = 
  8 active torsions:
  status: ('A' for Active; 'I' for Inactive)
    1  A    between atoms: C_2  and  C_31
    2  A    between atoms: C_10  and  C_24
    3  A    between atoms: C_10  and  C_27
    4  A    between atoms: C_13  and  C_18
    5  A    between atoms: N_16  and  C_35
    6  A    between atoms: C_26  and  C_38
    7  A    between atoms: C_26  and  C_39
    8  A    between atoms: C_28  and  C_38
                            x       y       z     vdW  Elec       q    Type
                         _______ _______ _______ _____ _____    ______ ____

>  <TORSDO>
F 8

$$$$
=
 OpenBabel11072409233D

 39 43  0  0  1  0  0  0  0  0999 V2000
  191.1060  174.3530  144.3110 C   0  0  0  0  0  2  0  0  0  0  0  0
  191.0570  174.2290  145.8280 C   0  0  0  0  0  2  0  0  0  0  0  0
  191.0520  175.4230  147.8890 O   0  0  0  0  0  1  0  0  0  0  0  0
  192.2510  176.5850  144.6190 C   0  0  0  0  0  2  0  0  0  0  0  0
  192.1660  176.4450  146.0820 N   0  0  0  0  0  0  0  0  0  0  0  0
  191.0110  175.6140  146.5020 C   0  0  1  0  0  0  0  0  0  0  0  0
  193.4300  175.8970  146.5740 C   0  0  0  0  0  1  0  0  0  0  0  0
  192.2780  175.2320  143.8980 C   0  0  2  0  0  3  0  0  0  0  0  0
  189.6940  176.3400  146.1470 C   0  0  2  0  0  3  0  0  0  0  0  0
  189.5880  177.7120  146.7970 C   0  0  0  0  0  2  0  0  0  0  0  0
  188.1520  177.8650  147.2670 C   0  0  0  0  0  2  0  0  0  0  0  0
  188.4540  175.5760  146.5760 C   0  0  0  0  0  2  0  0  0  0  0  0
  187.3950  176.6300  146.8080 C   0  0  2  0  0  3  0  0  0  0  0  0
  186.7180  176.9150  145.5500 N   0  0  0  0  0  2  0  0  0  0  0  0
  184.6650  177.4490  146.5330 O   0  0  0  0  0  0  0  0  0  0  0  0
  185.3750  177.3980  145.4920 C   0  0  0  0  0  0  0  0  0  0  0  0
  184.8330  177.9030  144.1980 C   0  0  0  0  0  2  0  0  0  0  0  0
  187.8150  177.7830  140.9550 O   0  0  0  0  0  0  0  0  0  0  0  0
  186.3920  176.7780  142.5210 N   0  0  0  0  0  2  0  0  0  0  0  0
  186.2990  179.1050  142.7650 O   0  0  0  0  0  0  0  0  0  0  0  0
  187.3400  176.7260  141.4500 C   0  0  0  0  0  0  0  0  0  0  0  0
  185.8870  177.9740  143.1330 C   0  0  0  0  0  0  0  0  0  0  0  0
  188.1900  174.5200  142.0480 C   0  0  2  0  0  3  0  0  0  0  0  0
  188.1250  173.0730  141.6060 C   0  0  0  0  0  1  0  0  0  0  0  0
  187.7900  175.4020  140.9280 C   0  0  2  0  0  3  0  0  0  0  0  0
  189.1420  175.1960  141.2660 O   0  0  0  0  0  0  0  0  0  0  0  0
  192.4150  175.3910  142.3740 C   0  0  0  0  0  2  0  0  0  0  0  0
  194.1680  173.6110  142.3010 C   0  0  0  0  0  2  0  0  0  0  0  0
  192.5210  172.4760  140.6220 C   0  0  1  0  0  0  0  0  0  0  0  0
  191.2410  171.6520  140.6020 C   0  0  0  0  0  1  0  0  0  0  0  0
  193.2660  172.4170  141.9560 C   0  0  1  0  0  3  0  0  0  0  0  0
  193.7190  170.2320  140.8590 C   0  0  0  0  0  1  0  0  0  0  0  0
  193.8530  171.7410  140.7140 C   0  0  1  0  0  3  0  0  0  0  0  0
  192.4920  173.7890  139.8300 C   0  0  0  0  0  2  0  0  0  0  0  0
  193.5990  174.7760  140.1900 C   0  0  0  0  0  2  0  0  0  0  0  0
  193.7430  174.9540  141.7040 C   0  0  1  0  0  0  0  0  0  0  0  0
  194.8280  175.9580  141.9920 C   0  0  0  0  0  3  0  0  0  0  0  0
  195.7790  175.7550  142.9070 C   0  0  0  0  0  3  0  0  0  0  0  0
  196.8210  176.7920  143.1390 C   0  0  0  0  0  1  0  0  0  0  0  0
  1  2  1  0  0  0  0
  2  6  1  0  0  0  0
  4  5  1  0  0  0  0
  5  6  1  0  0  0  0
  5  7  1  0  0  0  0
  6  3  1  1  0  0  0
  8 27  1  6  0  0  0
  8  1  1  0  0  0  0
  8  4  1  0  0  0  0
  9  6  1  0  0  0  0
  9 12  1  1  0  0  0
  9 10  1  0  0  0  0
 10 11  1  0  0  0  0
 12 13  1  0  0  0  0
 13 14  1  6  0  0  0
 13 11  1  0  0  0  0
 16 14  1  0  0  0  0
 16 15  2  0  0  0  0
 17 16  1  0  0  0  0
 18 21  2  0  0  0  0
 19 22  1  0  0  0  0
 20 22  2  0  0  0  0
 21 19  1  0  0  0  0
 22 17  1  0  0  0  0
 23 24  1  6  0  0  0
 25 26  1  0  0  0  0
 25 21  1  1  0  0  0
 25 23  1  0  0  0  0
 26 23  1  0  0  0  0
 29 30  1  6  0  0  0
 29 33  1  0  0  0  0
 29 31  1  0  0  0  0
 31 28  1  6  0  0  0
 33 32  1  1  0  0  0
 33 31  1  0  0  0  0
 34 35  1  0  0  0  0
 34 29  1  0  0  0  0
 35 36  1  0  0  0  0
 36 37  1  1  0  0  0
 36 28  1  0  0  0  0
 36 27  1  0  0  0  0
 37 38  2  0  0  0  0
 38 39  1  0  0  0  0
M  END
>  <MODEL>
7

>  <REMARK>
 VINA RESULT:      -7.1      2.716      7.542
  Name = 
  8 active torsions:
  status: ('A' for Active; 'I' for Inactive)
    1  A    between atoms: C_2  and  C_31
    2  A    between atoms: C_10  and  C_24
    3  A    between atoms: C_10  and  C_27
    4  A    between atoms: C_13  and  C_18
    5  A    between atoms: N_16  and  C_35
    6  A    between atoms: C_26  and  C_38
    7  A    between atoms: C_26  and  C_39
    8  A    between atoms: C_28  and  C_38
                            x       y       z     vdW  Elec       q    Type
                         _______ _______ _______ _____ _____    ______ ____

>  <TORSDO>
F 8

$$$$
=
 OpenBabel11072409233D

 39 43  0  0  1  0  0  0  0  0999 V2000
  193.0810  172.9330  142.3270 C   0  0  0  0  0  2  0  0  0  0  0  0
  192.3740  172.2270  141.1780 C   0  0  0  0  0  2  0  0  0  0  0  0
  190.4650  170.9520  140.5440 O   0  0  0  0  0  1  0  0  0  0  0  0
  191.8670  171.3810  143.9090 C   0  0  0  0  0  2  0  0  0  0  0  0
  191.1820  170.7360  142.7780 N   0  0  0  0  0  0  0  0  0  0  0  0
  191.0150  171.6540  141.6240 C   0  0  1  0  0  0  0  0  0  0  0  0
  191.9250  169.5330  142.4040 C   0  0  0  0  0  1  0  0  0  0  0  0
  193.2190  171.9880  143.5130 C   0  0  2  0  0  3  0  0  0  0  0  0
  190.0490  172.7980  142.0070 C   0  0  2  0  0  3  0  0  0  0  0  0
  188.6970  172.2870  142.4830 C   0  0  0  0  0  2  0  0  0  0  0  0
  187.6460  173.2060  141.8840 C   0  0  0  0  0  2  0  0  0  0  0  0
  189.7580  173.7470  140.8580 C   0  0  0  0  0  2  0  0  0  0  0  0
  188.3830  174.3070  141.1400 C   0  0  2  0  0  3  0  0  0  0  0  0
  188.5080  175.4740  142.0020 N   0  0  0  0  0  2  0  0  0  0  0  0
  187.1070  176.8350  140.7170 O   0  0  0  0  0  0  0  0  0  0  0  0
  187.7780  176.6800  141.7730 C   0  0  0  0  0  0  0  0  0  0  0  0
  187.7610  177.7380  142.8240 C   0  0  0  0  0  2  0  0  0  0  0  0
  187.9000  176.2200  146.9600 O   0  0  0  0  0  0  0  0  0  0  0  0
  188.8920  177.0450  145.0040 N   0  0  0  0  0  2  0  0  0  0  0  0
  186.5870  176.8040  144.6670 O   0  0  0  0  0  0  0  0  0  0  0  0
  188.9470  176.5790  146.3560 C   0  0  0  0  0  0  0  0  0  0  0  0
  187.7030  177.1600  144.2070 C   0  0  0  0  0  0  0  0  0  0  0  0
  191.0150  175.3070  146.5850 C   0  0  2  0  0  3  0  0  0  0  0  0
  192.4920  175.4990  146.8520 C   0  0  0  0  0  1  0  0  0  0  0  0
  190.2640  176.4930  147.0530 C   0  0  2  0  0  3  0  0  0  0  0  0
  190.3240  175.3060  147.8070 O   0  0  0  0  0  0  0  0  0  0  0  0
  193.9460  172.6170  144.7140 C   0  0  0  0  0  2  0  0  0  0  0  0
  196.1470  172.7280  143.5350 C   0  0  0  0  0  2  0  0  0  0  0  0
  196.0980  175.2210  144.3120 C   0  0  1  0  0  0  0  0  0  0  0  0
  195.4780  176.5590  143.9370 C   0  0  0  0  0  1  0  0  0  0  0  0
  196.1290  174.2160  143.1600 C   0  0  1  0  0  3  0  0  0  0  0  0
  197.9410  175.8430  142.6550 C   0  0  0  0  0  1  0  0  0  0  0  0
  197.4290  174.8380  143.6760 C   0  0  1  0  0  3  0  0  0  0  0  0
  195.8270  174.7270  145.7380 C   0  0  0  0  0  2  0  0  0  0  0  0
  196.0930  173.2390  145.9590 C   0  0  0  0  0  2  0  0  0  0  0  0
  195.4690  172.3730  144.8610 C   0  0  1  0  0  0  0  0  0  0  0  0
  195.7410  170.9200  145.1510 C   0  0  0  0  0  3  0  0  0  0  0  0
  196.5540  170.5180  146.1310 C   0  0  0  0  0  3  0  0  0  0  0  0
  196.7760  169.0630  146.3600 C   0  0  0  0  0  1  0  0  0  0  0  0
  1  8  1  0  0  0  0
  2  6  1  0  0  0  0
  2  1  1  0  0  0  0
  5  4  1  0  0  0  0
  6  3  1  6  0  0  0
  6  9  1  0  0  0  0
  6  5  1  0  0  0  0
  7  5  1  0  0  0  0
  8  4  1  0  0  0  0
  8 27  1  1  0  0  0
  9 12  1  6  0  0  0
  9 10  1  0  0  0  0
 11 10  1  0  0  0  0
 12 13  1  0  0  0  0
 13 11  1  0  0  0  0
 13 14  1  1  0  0  0
 15 16  2  0  0  0  0
 16 14  1  0  0  0  0
 16 17  1  0  0  0  0
 17 22  1  0  0  0  0
 19 21  1  0  0  0  0
 21 18  2  0  0  0  0
 22 20  2  0  0  0  0
 22 19  1  0  0  0  0
 23 24  1  1  0  0  0
 23 25  1  0  0  0  0
 23 26  1  0  0  0  0
 25 21  1  6  0  0  0
 25 26  1  0  0  0  0
 28 36  1  0  0  0  0
 29 30  1  6  0  0  0
 29 34  1  0  0  0  0
 31 28  1  1  0  0  0
 31 33  1  0  0  0  0
 31 29  1  0  0  0  0
 33 32  1  6  0  0  0
 33 29  1  0  0  0  0
 34 35  1  0  0  0  0
 36 27  1  6  0  0  0
 36 37  1  0  0  0  0
 36 35  1  0  0  0  0
 37 38  2  0  0  0  0
 38 39  1  0  0  0  0
M  END
>  <MODEL>
8

>  <REMARK>
 VINA RESULT:      -7.0      2.935      8.920
  Name = 
  8 active torsions:
  status: ('A' for Active; 'I' for Inactive)
    1  A    between atoms: C_2  and  C_31
    2  A    between atoms: C_10  and  C_24
    3  A    between atoms: C_10  and  C_27
    4  A    between atoms: C_13  and  C_18
    5  A    between atoms: N_16  and  C_35
    6  A    between atoms: C_26  and  C_38
    7  A    between atoms: C_26  and  C_39
    8  A    between atoms: C_28  and  C_38
                            x       y       z     vdW  Elec       q    Type
                         _______ _______ _______ _____ _____    ______ ____

>  <TORSDO>
F 8

$$$$
=
 OpenBabel11072409233D

 39 43  0  0  1  0  0  0  0  0999 V2000
  192.6450  176.0740  144.4140 C   0  0  0  0  0  2  0  0  0  0  0  0
  193.9970  176.0600  143.7130 C   0  0  0  0  0  2  0  0  0  0  0  0
  195.7550  174.6860  142.8800 O   0  0  0  0  0  1  0  0  0  0  0  0
  193.2460  173.8350  145.4210 C   0  0  0  0  0  2  0  0  0  0  0  0
  194.5340  173.8420  144.7100 N   0  0  0  0  0  0  0  0  0  0  0  0
  194.4760  174.6200  143.4470 C   0  0  1  0  0  0  0  0  0  0  0  0
  195.5640  174.3570  145.6120 C   0  0  0  0  0  1  0  0  0  0  0  0
  192.7130  175.2480  145.6910 C   0  0  2  0  0  3  0  0  0  0  0  0
  193.5320  173.9150  142.4480 C   0  0  2  0  0  3  0  0  0  0  0  0
  193.9880  172.5050  142.1070 C   0  0  0  0  0  2  0  0  0  0  0  0
  193.7620  172.3180  140.6160 C   0  0  0  0  0  2  0  0  0  0  0  0
  193.4070  174.6480  141.1230 C   0  0  0  0  0  2  0  0  0  0  0  0
  193.0850  173.5790  140.1040 C   0  0  2  0  0  3  0  0  0  0  0  0
  191.6430  173.3730  140.0640 N   0  0  0  0  0  2  0  0  0  0  0  0
  191.3820  174.1420  137.8720 O   0  0  0  0  0  0  0  0  0  0  0  0
  190.8670  173.6010  138.8870 C   0  0  0  0  0  0  0  0  0  0  0  0
  189.4500  173.1360  138.8430 C   0  0  0  0  0  2  0  0  0  0  0  0
  187.1540  174.6650  142.2800 O   0  0  0  0  0  0  0  0  0  0  0  0
  188.5650  174.9280  140.4280 N   0  0  0  0  0  2  0  0  0  0  0  0
  188.1180  172.6520  140.7500 O   0  0  0  0  0  0  0  0  0  0  0  0
  187.8010  175.4400  141.5260 C   0  0  0  0  0  0  0  0  0  0  0  0
  188.6820  173.5440  140.0650 C   0  0  0  0  0  0  0  0  0  0  0  0
  186.4000  177.3960  141.9220 C   0  0  2  0  0  3  0  0  0  0  0  0
  186.3830  178.6950  142.6990 C   0  0  0  0  0  1  0  0  0  0  0  0
  187.7910  176.9080  141.7950 C   0  0  2  0  0  3  0  0  0  0  0  0
  187.1390  177.5770  140.7410 O   0  0  0  0  0  0  0  0  0  0  0  0
  191.3900  175.2280  146.4770 C   0  0  0  0  0  2  0  0  0  0  0  0
  188.9880  174.6040  146.7710 C   0  0  0  0  0  2  0  0  0  0  0  0
  188.6120  177.1850  146.6370 C   0  0  1  0  0  0  0  0  0  0  0  0
  188.7150  178.4370  147.4970 C   0  0  0  0  0  1  0  0  0  0  0  0
  188.5000  175.8940  147.4470 C   0  0  1  0  0  3  0  0  0  0  0  0
  186.2590  176.9610  147.6060 C   0  0  0  0  0  1  0  0  0  0  0  0
  187.3010  176.4080  146.6450 C   0  0  1  0  0  3  0  0  0  0  0  0
  189.4210  177.1920  145.3340 C   0  0  0  0  0  2  0  0  0  0  0  0
  189.6360  175.8150  144.7090 C   0  0  0  0  0  2  0  0  0  0  0  0
  190.1030  174.7820  145.7380 C   0  0  1  0  0  0  0  0  0  0  0  0
  190.3240  173.4570  145.0560 C   0  0  0  0  0  3  0  0  0  0  0  0
  190.0790  173.2610  143.7580 C   0  0  0  0  0  3  0  0  0  0  0  0
  190.3200  171.9240  143.1510 C   0  0  0  0  0  1  0  0  0  0  0  0
  1  8  1  0  0  0  0
  2  1  1  0  0  0  0
  4  8  1  0  0  0  0
  5  4  1  0  0  0  0
  5  7  1  0  0  0  0
  6  3  1  6  0  0  0
  6  2  1  0  0  0  0
  6  5  1  0  0  0  0
  8 27  1  6  0  0  0
  9 12  1  6  0  0  0
  9  6  1  0  0  0  0
 10  9  1  0  0  0  0
 11 10  1  0  0  0  0
 13 14  1  1  0  0  0
 13 11  1  0  0  0  0
 13 12  1  0  0  0  0
 15 16  2  0  0  0  0
 16 14  1  0  0  0  0
 17 16  1  0  0  0  0
 17 22  1  0  0  0  0
 19 21  1  0  0  0  0
 21 18  2  0  0  0  0
 22 19  1  0  0  0  0
 22 20  2  0  0  0  0
 23 24  1  1  0  0  0
 25 21  1  6  0  0  0
 25 23  1  0  0  0  0
 26 25  1  0  0  0  0
 26 23  1  0  0  0  0
 29 33  1  0  0  0  0
 29 31  1  0  0  0  0
 29 30  1  1  0  0  0
 31 28  1  6  0  0  0
 33 31  1  0  0  0  0
 33 32  1  1  0  0  0
 34 29  1  0  0  0  0
 35 34  1  0  0  0  0
 35 36  1  0  0  0  0
 36 37  1  6  0  0  0
 36 27  1  0  0  0  0
 36 28  1  0  0  0  0
 38 37  2  0  0  0  0
 39 38  1  0  0  0  0
M  END
>  <MODEL>
9

>  <REMARK>
 VINA RESULT:      -6.9      2.339      6.053
  Name = 
  8 active torsions:
  status: ('A' for Active; 'I' for Inactive)
    1  A    between atoms: C_2  and  C_31
    2  A    between atoms: C_10  and  C_24
    3  A    between atoms: C_10  and  C_27
    4  A    between atoms: C_13  and  C_18
    5  A    between atoms: N_16  and  C_35
    6  A    between atoms: C_26  and  C_38
    7  A    between atoms: C_26  and  C_39
    8  A    between atoms: C_28  and  C_38
                            x       y       z     vdW  Elec       q    Type
                         _______ _______ _______ _____ _____    ______ ____

>  <TORSDO>
F 8

$$$$
