=
 OpenBabel11072408293D

 56 60  0  0  1  0  0  0  0  0999 V2000
  189.0120  173.5080  142.8840 N   0  0  0  0  0  0  0  0  0  0  0  0
  189.4080  173.0090  141.6110 C   0  0  0  0  0  0  0  0  0  0  0  0
  188.7680  173.2790  140.5610 O   0  0  0  0  0  0  0  0  0  0  0  0
  190.6090  172.1580  141.6850 C   0  0  0  0  0  0  0  0  0  0  0  0
  191.2580  171.5530  140.6610 C   0  0  0  0  0  0  0  0  0  0  0  0
  189.9810  173.3910  145.3580 S   0  0  0  0  0  0  0  0  0  0  0  0
  189.9640  172.9810  143.7980 C   0  0  0  0  0  0  0  0  0  0  0  0
  192.0740  171.6870  143.6710 C   0  0  0  0  0  2  0  0  0  0  0  0
  190.9500  172.1350  143.1200 C   0  0  0  0  0  0  0  0  0  0  0  0
  192.4630  170.6760  140.9280 C   0  0  1  0  0  3  0  0  0  0  0  0
  192.3450  169.3700  140.1630 C   0  0  0  0  0  1  0  0  0  0  0  0
  193.7910  171.3390  140.5900 C   0  0  0  0  0  2  0  0  0  0  0  0
  194.9390  170.6090  141.2660 C   0  0  0  0  0  2  0  0  0  0  0  0
  195.9850  171.6120  141.7210 C   0  0  1  0  0  3  0  0  0  0  0  0
  196.3200  171.3870  143.1200 N   0  0  0  0  0  2  0  0  0  0  0  0
  196.3810  172.4240  144.1080 C   0  0  0  0  0  0  0  0  0  0  0  0
  197.0080  172.1800  145.2140 N   0  0  0  0  0  2  0  0  0  0  0  0
  196.1380  174.8750  144.6120 C   0  0  0  0  0  3  0  0  0  0  0  0
  195.5010  176.1050  144.4190 C   0  0  0  0  0  3  0  0  0  0  0  0
  194.6150  173.8400  143.0460 C   0  0  0  0  0  3  0  0  0  0  0  0
  195.6960  173.7280  143.9350 C   0  0  0  0  0  0  0  0  0  0  0  0
  193.9760  175.0680  142.8540 C   0  0  0  0  0  0  0  0  0  0  0  0
  194.4180  176.2010  143.5430 C   0  0  0  0  0  3  0  0  0  0  0  0
  192.8330  175.1720  141.9090 C   0  0  0  0  0  1  0  0  0  0  0  0
  197.5040  170.2020  140.2670 C   0  0  0  0  0  1  0  0  0  0  0  0
  197.2410  171.5820  140.8490 C   0  0  0  0  0  2  0  0  0  0  0  0
  191.4790  174.3780  145.5180 C   0  0  0  0  0  2  0  0  0  0  0  0
  189.9150  177.4800  147.2280 C   0  0  0  0  0  2  0  0  0  0  0  0
  191.1340  175.8280  145.8090 C   0  0  2  0  0  3  0  0  0  0  0  0
  190.9610  176.0640  147.5960 S   0  0  0  0  0  0  0  0  0  0  0  0
  189.1630  177.1670  145.9440 C   0  0  1  0  0  3  0  0  0  0  0  0
  189.8780  176.1700  145.1470 N   0  0  0  0  0  0  0  0  0  0  0  0
  191.2280  177.9080  144.1090 C   0  0  0  0  0  1  0  0  0  0  0  0
  190.2190  176.8000  143.8800 C   0  0  0  0  0  2  0  0  0  0  0  0
  187.6610  175.8370  147.3060 O   0  0  0  0  0  1  0  0  0  0  0  0
  187.7330  176.6900  146.1990 C   0  0  1  0  0  3  0  0  0  0  0  0
  186.7540  177.8610  146.3230 C   0  0  2  0  0  3  0  0  0  0  0  0
  186.6280  178.2710  147.6520 O   0  0  0  0  0  1  0  0  0  0  0  0
  185.2650  176.1850  145.4480 F   0  0  0  0  0  0  0  0  0  0  0  0
  185.3790  177.5320  145.7470 C   0  0  2  0  0  3  0  0  0  0  0  0
  185.0220  178.5190  144.3010 S   0  0  0  0  0  0  0  0  0  0  0  0
  183.5560  178.8510  144.2650 O   0  0  0  0  0  0  0  0  0  0  0  0
  185.8210  179.7900  144.3680 O   0  0  0  0  0  0  0  0  0  0  0  0
  185.4610  177.6280  142.8820 N   0  0  0  0  0  2  0  0  0  0  0  0
  186.1350  178.5390  141.9690 C   0  0  2  0  0  3  0  0  0  0  0  0
  185.5960  178.3590  140.5640 C   0  0  0  0  0  2  0  0  0  0  0  0
  186.3870  176.9450  139.7240 S   0  0  0  0  0  0  0  0  0  0  0  0
  187.9140  178.2000  141.9440 S   0  0  0  0  0  0  0  0  0  0  0  0
  187.6290  176.6650  141.0250 C   0  0  0  0  0  2  0  0  0  0  0  0
  190.7290  171.8280  138.9520 S   0  0  0  0  0  0  0  0  0  0  0  0
  191.5410  173.4530  138.8160 C   0  0  0  0  0  2  0  0  0  0  0  0
  192.7320  173.3810  137.8750 C   0  0  0  0  0  2  0  0  0  0  0  0
  193.6960  174.5230  138.1440 C   0  0  0  0  0  2  0  0  0  0  0  0
  196.1190  174.9990  138.1380 C   0  0  0  0  0  2  0  0  0  0  0  0
  195.0650  173.9610  138.4670 C   0  0  0  0  0  3  0  0  0  0  0  0
  195.6910  174.7850  139.5750 C   0  0  0  0  0  2  0  0  0  0  0  0
  1  7  2  0  0  0  0
  2  4  1  0  0  0  0
  2  1  1  0  0  0  0
  3  2  2  0  0  0  0
  4  9  1  0  0  0  0
  5 10  1  0  0  0  0
  5  4  2  0  0  0  0
  6 27  1  0  0  0  0
  7  6  1  0  0  0  0
  9  8  2  0  0  0  0
  9  7  1  0  0  0  0
 10 11  1  6  0  0  0
 12 10  1  0  0  0  0
 12 13  1  0  0  0  0
 13 14  1  0  0  0  0
 14 26  1  6  0  0  0
 14 15  1  0  0  0  0
 15 16  1  0  0  0  0
 16 17  2  0  0  0  0
 19 18  1  0  0  0  0
 20 21  1  0  0  0  0
 21 16  1  0  0  0  0
 21 18  2  0  0  0  0
 22 20  2  0  0  0  0
 22 23  1  0  0  0  0
 23 19  2  0  0  0  0
 24 22  1  0  0  0  0
 25 26  1  0  0  0  0
 28 30  1  0  0  0  0
 29 27  1  1  0  0  0
 29 30  1  0  0  0  0
 31 36  1  1  0  0  0
 31 28  1  0  0  0  0
 32 29  1  0  0  0  0
 32 31  1  0  0  0  0
 34 33  1  0  0  0  0
 34 32  1  0  0  0  0
 36 37  1  0  0  0  0
 36 35  1  1  0  0  0
 37 38  1  1  0  0  0
 40 39  1  6  0  0  0
 40 37  1  0  0  0  0
 41 43  2  0  0  0  0
 41 40  1  0  0  0  0
 42 41  2  0  0  0  0
 44 41  1  0  0  0  0
 45 44  1  1  0  0  0
 46 45  1  0  0  0  0
 47 46  1  0  0  0  0
 47 49  1  0  0  0  0
 48 45  1  0  0  0  0
 49 48  1  0  0  0  0
 50  5  1  0  0  0  0
 51 50  1  0  0  0  0
 52 53  1  0  0  0  0
 52 51  1  0  0  0  0
 53 55  1  0  0  0  0
 54 55  1  0  0  0  0
 54 56  1  0  0  0  0
 55 56  1  0  0  0  0
M  END
>  <MODEL>
1

>  <REMARK>
 VINA RESULT:      -5.7      0.000      0.000
  Name = 
  21 active torsions:
  status: ('A' for Active; 'I' for Inactive)
    1  A    between atoms: C_1  and  C_12
    2  A    between atoms: C_1  and  C_45
    3  A    between atoms: N_6  and  C_39
    4  A    between atoms: C_9  and  C_18
    5  A    between atoms: C_9  and  C_37
    6  A    between atoms: C_11  and  N_28
    7  A    between atoms: C_12  and  C_27
    8  A    between atoms: C_14  and  C_20
    9  A    between atoms: C_15  and  C_40
   10  A    between atoms: C_15  and  C_54
   11  A    between atoms: C_18  and  C_52
   12  A    between atoms: C_20  and  S_46
   13  A    between atoms: C_22  and  C_39
   14  A    between atoms: C_22  and  C_54
   15  A    between atoms: C_25  and  C_48
   16  A    between atoms: N_28  and  S_31
   17  A    between atoms: C_29  and  N_42
   18  A    between atoms: S_31  and  C_52
   19  A    between atoms: C_39  and  C_56
   20  A    between atoms: C_40  and  S_55
   21  A    between atoms: C_45  and  S_55
                            x       y       z     vdW  Elec       q    Type
                         _______ _______ _______ _____ _____    ______ ____

>  <TORSDO>
F 21

$$$$
=
 OpenBabel11072408293D

 56 60  0  0  1  0  0  0  0  0999 V2000
  193.8010  175.7370  146.6800 N   0  0  0  0  0  0  0  0  0  0  0  0
  192.3940  175.6200  146.8620 C   0  0  0  0  0  0  0  0  0  0  0  0
  191.8000  176.1640  147.8290 O   0  0  0  0  0  0  0  0  0  0  0  0
  191.7540  174.8010  145.8170 C   0  0  0  0  0  0  0  0  0  0  0  0
  190.4360  174.5170  145.6800 C   0  0  0  0  0  0  0  0  0  0  0  0
  195.5530  174.9470  144.8410 S   0  0  0  0  0  0  0  0  0  0  0  0
  194.0830  174.9900  145.5040 C   0  0  0  0  0  0  0  0  0  0  0  0
  192.7860  173.8150  143.7490 C   0  0  0  0  0  2  0  0  0  0  0  0
  192.8710  174.3830  144.9480 C   0  0  0  0  0  0  0  0  0  0  0  0
  189.9570  173.6190  144.5590 C   0  0  1  0  0  3  0  0  0  0  0  0
  189.6840  172.2210  145.0840 C   0  0  0  0  0  1  0  0  0  0  0  0
  188.7180  174.1390  143.8440 C   0  0  0  0  0  2  0  0  0  0  0  0
  188.6760  173.6300  142.4130 C   0  0  0  0  0  2  0  0  0  0  0  0
  188.3540  174.7790  141.4720 C   0  0  1  0  0  3  0  0  0  0  0  0
  189.1000  175.9670  141.8580 N   0  0  0  0  0  2  0  0  0  0  0  0
  188.5220  177.2730  141.9900 C   0  0  0  0  0  0  0  0  0  0  0  0
  189.3130  178.2960  141.9980 N   0  0  0  0  0  2  0  0  0  0  0  0
  186.4690  177.3000  143.4410 C   0  0  0  0  0  3  0  0  0  0  0  0
  185.1010  177.5250  143.6190 C   0  0  0  0  0  3  0  0  0  0  0  0
  186.2690  177.9110  141.1110 C   0  0  0  0  0  3  0  0  0  0  0  0
  187.0650  177.4800  142.1850 C   0  0  0  0  0  0  0  0  0  0  0  0
  184.9000  178.1350  141.2870 C   0  0  0  0  0  0  0  0  0  0  0  0
  184.3150  177.9390  142.5420 C   0  0  0  0  0  3  0  0  0  0  0  0
  184.0690  178.5910  140.1420 C   0  0  0  0  0  1  0  0  0  0  0  0
  188.5130  172.9290  139.7520 C   0  0  0  0  0  1  0  0  0  0  0  0
  188.6140  174.4250  140.0070 C   0  0  0  0  0  2  0  0  0  0  0  0
  195.3510  175.8730  143.3080 C   0  0  0  0  0  2  0  0  0  0  0  0
  196.7260  175.1570  139.7610 C   0  0  0  0  0  2  0  0  0  0  0  0
  196.1440  175.2270  142.1870 C   0  0  2  0  0  3  0  0  0  0  0  0
  196.6080  176.4850  140.9680 S   0  0  0  0  0  0  0  0  0  0  0  0
  195.6800  174.1160  140.1260 C   0  0  1  0  0  3  0  0  0  0  0  0
  195.3290  174.2010  141.5430 N   0  0  0  0  0  0  0  0  0  0  0  0
  197.1320  172.5940  141.8370 C   0  0  0  0  0  1  0  0  0  0  0  0
  195.6860  172.9260  142.1490 C   0  0  0  0  0  2  0  0  0  0  0  0
  194.3620  175.4440  138.5830 O   0  0  0  0  0  1  0  0  0  0  0  0
  194.4140  174.2280  139.2750 C   0  0  1  0  0  3  0  0  0  0  0  0
  194.2510  173.0340  138.3320 C   0  0  2  0  0  3  0  0  0  0  0  0
  195.0830  173.1560  137.2170 O   0  0  0  0  0  1  0  0  0  0  0  0
  191.9310  173.5750  138.6670 F   0  0  0  0  0  0  0  0  0  0  0  0
  192.8050  172.8400  137.8840 C   0  0  2  0  0  3  0  0  0  0  0  0
  192.3420  171.1150  137.8910 S   0  0  0  0  0  0  0  0  0  0  0  0
  191.2400  170.8830  136.8940 O   0  0  0  0  0  0  0  0  0  0  0  0
  193.5390  170.2870  137.5160 O   0  0  0  0  0  0  0  0  0  0  0  0
  191.8040  170.6760  139.4780 N   0  0  0  0  0  2  0  0  0  0  0  0
  192.6060  169.5490  139.9300 C   0  0  2  0  0  3  0  0  0  0  0  0
  191.7400  168.3120  140.0510 C   0  0  0  0  0  2  0  0  0  0  0  0
  190.8310  168.2890  141.6330 S   0  0  0  0  0  0  0  0  0  0  0  0
  193.3250  169.9020  141.5550 S   0  0  0  0  0  0  0  0  0  0  0  0
  191.7000  169.7260  142.3350 C   0  0  0  0  0  2  0  0  0  0  0  0
  189.2210  175.2510  146.8030 S   0  0  0  0  0  0  0  0  0  0  0  0
  189.1540  176.8400  145.9130 C   0  0  0  0  0  2  0  0  0  0  0  0
  188.0750  177.7370  146.4970 C   0  0  0  0  0  2  0  0  0  0  0  0
  186.8990  176.9100  146.9860 C   0  0  0  0  0  2  0  0  0  0  0  0
  185.6390  179.0340  146.9840 C   0  0  0  0  0  2  0  0  0  0  0  0
  185.9630  177.7900  147.7870 C   0  0  0  0  0  3  0  0  0  0  0  0
  184.6390  177.9000  147.0590 C   0  0  0  0  0  2  0  0  0  0  0  0
  1  2  1  0  0  0  0
  2  3  2  0  0  0  0
  4  2  1  0  0  0  0
  5  4  2  0  0  0  0
  5 50  1  0  0  0  0
  6  7  1  0  0  0  0
  7  1  2  0  0  0  0
  8  9  2  0  0  0  0
  9  7  1  0  0  0  0
  9  4  1  0  0  0  0
 10 11  1  1  0  0  0
 10  5  1  0  0  0  0
 12 10  1  0  0  0  0
 13 12  1  0  0  0  0
 14 26  1  6  0  0  0
 14 15  1  0  0  0  0
 14 13  1  0  0  0  0
 15 16  1  0  0  0  0
 16 17  2  0  0  0  0
 16 21  1  0  0  0  0
 18 19  1  0  0  0  0
 20 22  2  0  0  0  0
 20 21  1  0  0  0  0
 21 18  2  0  0  0  0
 22 23  1  0  0  0  0
 23 19  2  0  0  0  0
 24 22  1  0  0  0  0
 25 26  1  0  0  0  0
 27  6  1  0  0  0  0
 28 31  1  0  0  0  0
 28 30  1  0  0  0  0
 29 27  1  1  0  0  0
 30 29  1  0  0  0  0
 31 36  1  6  0  0  0
 31 32  1  0  0  0  0
 32 34  1  0  0  0  0
 32 29  1  0  0  0  0
 33 34  1  0  0  0  0
 36 35  1  6  0  0  0
 37 38  1  6  0  0  0
 37 36  1  0  0  0  0
 40 41  1  0  0  0  0
 40 37  1  0  0  0  0
 40 39  1  1  0  0  0
 41 44  1  0  0  0  0
 42 41  2  0  0  0  0
 43 41  2  0  0  0  0
 45 44  1  1  0  0  0
 45 46  1  0  0  0  0
 45 48  1  0  0  0  0
 46 47  1  0  0  0  0
 47 49  1  0  0  0  0
 48 49  1  0  0  0  0
 51 52  1  0  0  0  0
 51 50  1  0  0  0  0
 52 53  1  0  0  0  0
 53 55  1  0  0  0  0
 54 56  1  0  0  0  0
 54 55  1  0  0  0  0
 56 55  1  0  0  0  0
M  END
>  <MODEL>
2

>  <REMARK>
 VINA RESULT:      -5.5      3.395      9.510
  Name = 
  21 active torsions:
  status: ('A' for Active; 'I' for Inactive)
    1  A    between atoms: C_1  and  C_12
    2  A    between atoms: C_1  and  C_45
    3  A    between atoms: N_6  and  C_39
    4  A    between atoms: C_9  and  C_18
    5  A    between atoms: C_9  and  C_37
    6  A    between atoms: C_11  and  N_28
    7  A    between atoms: C_12  and  C_27
    8  A    between atoms: C_14  and  C_20
    9  A    between atoms: C_15  and  C_40
   10  A    between atoms: C_15  and  C_54
   11  A    between atoms: C_18  and  C_52
   12  A    between atoms: C_20  and  S_46
   13  A    between atoms: C_22  and  C_39
   14  A    between atoms: C_22  and  C_54
   15  A    between atoms: C_25  and  C_48
   16  A    between atoms: N_28  and  S_31
   17  A    between atoms: C_29  and  N_42
   18  A    between atoms: S_31  and  C_52
   19  A    between atoms: C_39  and  C_56
   20  A    between atoms: C_40  and  S_55
   21  A    between atoms: C_45  and  S_55
                            x       y       z     vdW  Elec       q    Type
                         _______ _______ _______ _____ _____    ______ ____

>  <TORSDO>
F 21

$$$$
=
 OpenBabel11072408293D

 56 60  0  0  1  0  0  0  0  0999 V2000
  188.7200  173.4090  142.2380 N   0  0  0  0  0  0  0  0  0  0  0  0
  189.0470  172.7300  141.0300 C   0  0  0  0  0  0  0  0  0  0  0  0
  188.2680  172.7190  140.0410 O   0  0  0  0  0  0  0  0  0  0  0  0
  190.3580  172.0600  141.0930 C   0  0  0  0  0  0  0  0  0  0  0  0
  190.9750  171.3550  140.1140 C   0  0  0  0  0  0  0  0  0  0  0  0
  189.9520  173.8780  144.5480 S   0  0  0  0  0  0  0  0  0  0  0  0
  189.8290  173.1820  143.0980 C   0  0  0  0  0  0  0  0  0  0  0  0
  192.0760  172.1510  142.9240 C   0  0  0  0  0  2  0  0  0  0  0  0
  190.8480  172.3490  142.4550 C   0  0  0  0  0  0  0  0  0  0  0  0
  192.3130  170.6960  140.3700 C   0  0  1  0  0  3  0  0  0  0  0  0
  192.1150  169.3230  140.9870 C   0  0  0  0  0  1  0  0  0  0  0  0
  193.1820  170.5680  139.1270 C   0  0  0  0  0  2  0  0  0  0  0  0
  194.2590  171.6390  139.1150 C   0  0  0  0  0  2  0  0  0  0  0  0
  194.7170  171.9180  140.5370 C   0  0  1  0  0  3  0  0  0  0  0  0
  195.9780  171.2400  140.7990 N   0  0  0  0  0  2  0  0  0  0  0  0
  196.5980  171.1670  142.0890 C   0  0  0  0  0  0  0  0  0  0  0  0
  197.8520  170.8510  142.1500 N   0  0  0  0  0  2  0  0  0  0  0  0
  195.1420  170.3160  143.9540 C   0  0  0  0  0  3  0  0  0  0  0  0
  194.4540  170.5130  145.1550 C   0  0  0  0  0  3  0  0  0  0  0  0
  195.8530  172.6260  143.9790 C   0  0  0  0  0  3  0  0  0  0  0  0
  195.8400  171.3710  143.3480 C   0  0  0  0  0  0  0  0  0  0  0  0
  195.1640  172.8260  145.1790 C   0  0  0  0  0  0  0  0  0  0  0  0
  194.4620  171.7690  145.7660 C   0  0  0  0  0  3  0  0  0  0  0  0
  195.1860  174.1590  145.8350 C   0  0  0  0  0  1  0  0  0  0  0  0
  193.7030  174.2130  140.1970 C   0  0  0  0  0  1  0  0  0  0  0  0
  194.8320  173.4140  140.8310 C   0  0  0  0  0  2  0  0  0  0  0  0
  191.3040  175.0510  144.3400 C   0  0  0  0  0  2  0  0  0  0  0  0
  190.1180  177.4260  147.1580 C   0  0  0  0  0  2  0  0  0  0  0  0
  191.0210  176.3310  145.1050 C   0  0  2  0  0  3  0  0  0  0  0  0
  191.2230  176.0350  146.8800 S   0  0  0  0  0  0  0  0  0  0  0  0
  189.1160  177.4450  146.0140 C   0  0  1  0  0  3  0  0  0  0  0  0
  189.6530  176.7660  144.8350 N   0  0  0  0  0  0  0  0  0  0  0  0
  191.1290  178.3020  143.6590 C   0  0  0  0  0  1  0  0  0  0  0  0
  189.7200  177.7530  143.7670 C   0  0  0  0  0  2  0  0  0  0  0  0
  187.9290  175.7660  147.3000 O   0  0  0  0  0  1  0  0  0  0  0  0
  187.7720  176.8240  146.3960 C   0  0  1  0  0  3  0  0  0  0  0  0
  186.7860  177.8720  146.9190 C   0  0  2  0  0  3  0  0  0  0  0  0
  186.6900  177.8220  148.3110 O   0  0  0  0  0  1  0  0  0  0  0  0
  185.1560  176.4210  145.9050 F   0  0  0  0  0  0  0  0  0  0  0  0
  185.3990  177.7270  146.2960 C   0  0  2  0  0  3  0  0  0  0  0  0
  185.1820  178.8390  144.9150 S   0  0  0  0  0  0  0  0  0  0  0  0
  183.7480  178.8110  144.4640 O   0  0  0  0  0  0  0  0  0  0  0  0
  185.5440  180.2320  145.3490 O   0  0  0  0  0  0  0  0  0  0  0  0
  186.2180  178.3440  143.6180 N   0  0  0  0  0  2  0  0  0  0  0  0
  185.5190  177.3290  142.8450 C   0  0  2  0  0  3  0  0  0  0  0  0
  186.4330  176.1450  142.5990 C   0  0  0  0  0  2  0  0  0  0  0  0
  187.5440  176.4460  141.1830 S   0  0  0  0  0  0  0  0  0  0  0  0
  185.0110  177.9990  141.2410 S   0  0  0  0  0  0  0  0  0  0  0  0
  186.7310  177.9920  140.6710 C   0  0  0  0  0  2  0  0  0  0  0  0
  190.2350  171.2380  138.4660 S   0  0  0  0  0  0  0  0  0  0  0  0
  190.7480  172.9120  137.9650 C   0  0  0  0  0  2  0  0  0  0  0  0
  191.5410  172.8650  136.6690 C   0  0  0  0  0  2  0  0  0  0  0  0
  192.5750  173.9760  136.6340 C   0  0  0  0  0  2  0  0  0  0  0  0
  191.9710  176.0620  135.4600 C   0  0  0  0  0  2  0  0  0  0  0  0
  192.5300  174.6640  135.2870 C   0  0  0  0  0  3  0  0  0  0  0  0
  193.4640  175.8580  135.3060 C   0  0  0  0  0  2  0  0  0  0  0  0
  1  7  2  0  0  0  0
  2  4  1  0  0  0  0
  2  1  1  0  0  0  0
  3  2  2  0  0  0  0
  4  9  1  0  0  0  0
  5 10  1  0  0  0  0
  5  4  2  0  0  0  0
  7  6  1  0  0  0  0
  9  8  2  0  0  0  0
  9  7  1  0  0  0  0
 10 11  1  6  0  0  0
 12 10  1  0  0  0  0
 13 12  1  0  0  0  0
 14 13  1  6  0  0  0
 14 15  1  0  0  0  0
 14 26  1  0  0  0  0
 15 16  1  0  0  0  0
 16 17  2  0  0  0  0
 16 21  1  0  0  0  0
 18 19  1  0  0  0  0
 19 23  2  0  0  0  0
 20 22  2  0  0  0  0
 21 18  2  0  0  0  0
 21 20  1  0  0  0  0
 22 23  1  0  0  0  0
 22 24  1  0  0  0  0
 25 26  1  0  0  0  0
 27  6  1  0  0  0  0
 29 27  1  6  0  0  0
 29 30  1  0  0  0  0
 30 28  1  0  0  0  0
 31 36  1  1  0  0  0
 31 28  1  0  0  0  0
 32 29  1  0  0  0  0
 32 31  1  0  0  0  0
 33 34  1  0  0  0  0
 34 32  1  0  0  0  0
 36 37  1  0  0  0  0
 36 35  1  1  0  0  0
 37 38  1  1  0  0  0
 40 39  1  6  0  0  0
 40 37  1  0  0  0  0
 41 43  2  0  0  0  0
 41 40  1  0  0  0  0
 42 41  2  0  0  0  0
 44 41  1  0  0  0  0
 45 44  1  1  0  0  0
 46 45  1  0  0  0  0
 47 46  1  0  0  0  0
 48 45  1  0  0  0  0
 49 47  1  0  0  0  0
 49 48  1  0  0  0  0
 50  5  1  0  0  0  0
 51 50  1  0  0  0  0
 52 51  1  0  0  0  0
 53 52  1  0  0  0  0
 55 56  1  0  0  0  0
 55 54  1  0  0  0  0
 55 53  1  0  0  0  0
 56 54  1  0  0  0  0
M  END
>  <MODEL>
3

>  <REMARK>
 VINA RESULT:      -5.3      1.506      2.389
  Name = 
  21 active torsions:
  status: ('A' for Active; 'I' for Inactive)
    1  A    between atoms: C_1  and  C_12
    2  A    between atoms: C_1  and  C_45
    3  A    between atoms: N_6  and  C_39
    4  A    between atoms: C_9  and  C_18
    5  A    between atoms: C_9  and  C_37
    6  A    between atoms: C_11  and  N_28
    7  A    between atoms: C_12  and  C_27
    8  A    between atoms: C_14  and  C_20
    9  A    between atoms: C_15  and  C_40
   10  A    between atoms: C_15  and  C_54
   11  A    between atoms: C_18  and  C_52
   12  A    between atoms: C_20  and  S_46
   13  A    between atoms: C_22  and  C_39
   14  A    between atoms: C_22  and  C_54
   15  A    between atoms: C_25  and  C_48
   16  A    between atoms: N_28  and  S_31
   17  A    between atoms: C_29  and  N_42
   18  A    between atoms: S_31  and  C_52
   19  A    between atoms: C_39  and  C_56
   20  A    between atoms: C_40  and  S_55
   21  A    between atoms: C_45  and  S_55
                            x       y       z     vdW  Elec       q    Type
                         _______ _______ _______ _____ _____    ______ ____

>  <TORSDO>
F 21

$$$$
=
 OpenBabel11072408293D

 56 60  0  0  1  0  0  0  0  0999 V2000
  188.7460  173.3130  142.6210 N   0  0  0  0  0  0  0  0  0  0  0  0
  189.0650  172.6520  141.4010 C   0  0  0  0  0  0  0  0  0  0  0  0
  188.3120  172.7130  140.3940 O   0  0  0  0  0  0  0  0  0  0  0  0
  190.3340  171.9070  141.4760 C   0  0  0  0  0  0  0  0  0  0  0  0
  190.9360  171.1970  140.4900 C   0  0  0  0  0  0  0  0  0  0  0  0
  189.9420  173.6460  144.9730 S   0  0  0  0  0  0  0  0  0  0  0  0
  189.8180  173.0000  143.5000 C   0  0  0  0  0  0  0  0  0  0  0  0
  192.0080  171.8490  143.3490 C   0  0  0  0  0  2  0  0  0  0  0  0
  190.8050  172.1290  142.8570 C   0  0  0  0  0  0  0  0  0  0  0  0
  192.2290  170.4560  140.7590 C   0  0  1  0  0  3  0  0  0  0  0  0
  192.0270  168.9620  140.5780 C   0  0  0  0  0  1  0  0  0  0  0  0
  193.3910  170.9160  139.8900 C   0  0  0  0  0  2  0  0  0  0  0  0
  194.5430  171.4000  140.7530 C   0  0  0  0  0  2  0  0  0  0  0  0
  195.5660  172.1150  139.8860 C   0  0  1  0  0  3  0  0  0  0  0  0
  195.7630  173.4760  140.3630 N   0  0  0  0  0  2  0  0  0  0  0  0
  195.9460  174.6100  139.5040 C   0  0  0  0  0  0  0  0  0  0  0  0
  196.4450  175.6890  140.0130 N   0  0  0  0  0  2  0  0  0  0  0  0
  196.2280  173.8780  137.1150 C   0  0  0  0  0  3  0  0  0  0  0  0
  195.8020  173.8610  135.7840 C   0  0  0  0  0  3  0  0  0  0  0  0
  194.3640  175.3040  137.6960 C   0  0  0  0  0  3  0  0  0  0  0  0
  195.5200  174.6070  138.0830 C   0  0  0  0  0  0  0  0  0  0  0  0
  193.9380  175.2890  136.3640 C   0  0  0  0  0  0  0  0  0  0  0  0
  194.6590  174.5690  135.4070 C   0  0  0  0  0  3  0  0  0  0  0  0
  192.7120  176.0310  135.9680 C   0  0  0  0  0  1  0  0  0  0  0  0
  196.8530  170.0430  140.5630 C   0  0  0  0  0  1  0  0  0  0  0  0
  196.8970  171.3650  139.8140 C   0  0  0  0  0  2  0  0  0  0  0  0
  191.3620  174.7460  144.8320 C   0  0  0  0  0  2  0  0  0  0  0  0
  189.9370  177.5210  147.1240 C   0  0  0  0  0  2  0  0  0  0  0  0
  191.0210  176.1270  145.3600 C   0  0  2  0  0  3  0  0  0  0  0  0
  191.0500  176.1090  147.1710 S   0  0  0  0  0  0  0  0  0  0  0  0
  189.0490  177.3590  145.9010 C   0  0  1  0  0  3  0  0  0  0  0  0
  189.6890  176.5090  144.8980 N   0  0  0  0  0  0  0  0  0  0  0  0
  191.1250  178.1560  143.8270 C   0  0  0  0  0  1  0  0  0  0  0  0
  189.8670  177.3190  143.7010 C   0  0  0  0  0  2  0  0  0  0  0  0
  187.7440  175.7990  147.2230 O   0  0  0  0  0  1  0  0  0  0  0  0
  187.6680  176.7970  146.2440 C   0  0  1  0  0  3  0  0  0  0  0  0
  186.6840  177.9010  146.6380 C   0  0  2  0  0  3  0  0  0  0  0  0
  186.5370  177.9720  148.0250 O   0  0  0  0  0  1  0  0  0  0  0  0
  185.1030  176.4090  145.6060 F   0  0  0  0  0  0  0  0  0  0  0  0
  185.3180  177.7250  145.9780 C   0  0  2  0  0  3  0  0  0  0  0  0
  185.1280  178.8060  144.5690 S   0  0  0  0  0  0  0  0  0  0  0  0
  183.7190  178.7190  144.0520 O   0  0  0  0  0  0  0  0  0  0  0  0
  185.4200  180.2180  144.9930 O   0  0  0  0  0  0  0  0  0  0  0  0
  186.2410  178.3270  143.3300 N   0  0  0  0  0  2  0  0  0  0  0  0
  185.6080  177.2870  142.5330 C   0  0  2  0  0  3  0  0  0  0  0  0
  186.5320  176.0910  142.4150 C   0  0  0  0  0  2  0  0  0  0  0  0
  187.7710  176.3350  141.0980 S   0  0  0  0  0  0  0  0  0  0  0  0
  185.2570  177.9010  140.8650 S   0  0  0  0  0  0  0  0  0  0  0  0
  187.0210  177.8650  140.4580 C   0  0  0  0  0  2  0  0  0  0  0  0
  190.2330  171.1690  138.8230 S   0  0  0  0  0  0  0  0  0  0  0  0
  190.9680  172.7630  138.3360 C   0  0  0  0  0  2  0  0  0  0  0  0
  191.7370  172.6240  137.0330 C   0  0  0  0  0  2  0  0  0  0  0  0
  191.6200  171.2100  136.4910 C   0  0  0  0  0  2  0  0  0  0  0  0
  194.0500  170.7730  136.4970 C   0  0  0  0  0  2  0  0  0  0  0  0
  192.8200  170.9030  135.6210 C   0  0  0  0  0  3  0  0  0  0  0  0
  193.3550  169.5310  135.9790 C   0  0  0  0  0  2  0  0  0  0  0  0
  1  7  2  0  0  0  0
  2  4  1  0  0  0  0
  2  1  1  0  0  0  0
  3  2  2  0  0  0  0
  4  9  1  0  0  0  0
  5 10  1  0  0  0  0
  5  4  2  0  0  0  0
  7  6  1  0  0  0  0
  9  8  2  0  0  0  0
  9  7  1  0  0  0  0
 10 11  1  6  0  0  0
 12 13  1  0  0  0  0
 12 10  1  0  0  0  0
 14 26  1  1  0  0  0
 14 15  1  0  0  0  0
 14 13  1  0  0  0  0
 16 17  2  0  0  0  0
 16 15  1  0  0  0  0
 18 21  1  0  0  0  0
 19 18  2  0  0  0  0
 20 21  2  0  0  0  0
 21 16  1  0  0  0  0
 22 20  1  0  0  0  0
 23 19  1  0  0  0  0
 23 22  2  0  0  0  0
 24 22  1  0  0  0  0
 26 25  1  0  0  0  0
 27  6  1  0  0  0  0
 28 30  1  0  0  0  0
 29 27  1  6  0  0  0
 29 30  1  0  0  0  0
 31 36  1  1  0  0  0
 31 28  1  0  0  0  0
 32 29  1  0  0  0  0
 32 31  1  0  0  0  0
 34 33  1  0  0  0  0
 34 32  1  0  0  0  0
 36 37  1  0  0  0  0
 36 35  1  1  0  0  0
 37 38  1  1  0  0  0
 40 39  1  6  0  0  0
 40 37  1  0  0  0  0
 41 43  2  0  0  0  0
 41 40  1  0  0  0  0
 42 41  2  0  0  0  0
 44 41  1  0  0  0  0
 45 44  1  1  0  0  0
 46 45  1  0  0  0  0
 47 46  1  0  0  0  0
 48 45  1  0  0  0  0
 49 48  1  0  0  0  0
 49 47  1  0  0  0  0
 50  5  1  0  0  0  0
 51 50  1  0  0  0  0
 52 51  1  0  0  0  0
 53 52  1  0  0  0  0
 55 56  1  0  0  0  0
 55 53  1  0  0  0  0
 55 54  1  0  0  0  0
 56 54  1  0  0  0  0
M  END
>  <MODEL>
4

>  <REMARK>
 VINA RESULT:      -5.3      1.862      3.231
  Name = 
  21 active torsions:
  status: ('A' for Active; 'I' for Inactive)
    1  A    between atoms: C_1  and  C_12
    2  A    between atoms: C_1  and  C_45
    3  A    between atoms: N_6  and  C_39
    4  A    between atoms: C_9  and  C_18
    5  A    between atoms: C_9  and  C_37
    6  A    between atoms: C_11  and  N_28
    7  A    between atoms: C_12  and  C_27
    8  A    between atoms: C_14  and  C_20
    9  A    between atoms: C_15  and  C_40
   10  A    between atoms: C_15  and  C_54
   11  A    between atoms: C_18  and  C_52
   12  A    between atoms: C_20  and  S_46
   13  A    between atoms: C_22  and  C_39
   14  A    between atoms: C_22  and  C_54
   15  A    between atoms: C_25  and  C_48
   16  A    between atoms: N_28  and  S_31
   17  A    between atoms: C_29  and  N_42
   18  A    between atoms: S_31  and  C_52
   19  A    between atoms: C_39  and  C_56
   20  A    between atoms: C_40  and  S_55
   21  A    between atoms: C_45  and  S_55
                            x       y       z     vdW  Elec       q    Type
                         _______ _______ _______ _____ _____    ______ ____

>  <TORSDO>
F 21

$$$$
=
 OpenBabel11072408293D

 56 60  0  0  1  0  0  0  0  0999 V2000
  189.6080  173.0970  141.8710 N   0  0  0  0  0  0  0  0  0  0  0  0
  189.4950  172.7410  140.4980 C   0  0  0  0  0  0  0  0  0  0  0  0
  188.7210  173.3500  139.7130 O   0  0  0  0  0  0  0  0  0  0  0  0
  190.3600  171.6050  140.1340 C   0  0  0  0  0  0  0  0  0  0  0  0
  190.5120  171.0380  138.9120 C   0  0  0  0  0  0  0  0  0  0  0  0
  191.0950  172.2990  143.9270 S   0  0  0  0  0  0  0  0  0  0  0  0
  190.5570  172.1870  142.4110 C   0  0  0  0  0  0  0  0  0  0  0  0
  192.0710  170.4250  141.5460 C   0  0  0  0  0  2  0  0  0  0  0  0
  191.0330  171.2430  141.3970 C   0  0  0  0  0  0  0  0  0  0  0  0
  191.4220  169.8420  138.7290 C   0  0  1  0  0  3  0  0  0  0  0  0
  190.6670  168.7010  138.0710 C   0  0  0  0  0  1  0  0  0  0  0  0
  192.6780  170.1440  137.9260 C   0  0  0  0  0  2  0  0  0  0  0  0
  193.7700  169.1370  138.2420 C   0  0  0  0  0  2  0  0  0  0  0  0
  195.1000  169.8540  138.3910 C   0  0  1  0  0  3  0  0  0  0  0  0
  195.3570  170.1470  139.7940 N   0  0  0  0  0  2  0  0  0  0  0  0
  195.4790  171.4710  140.3300 C   0  0  0  0  0  0  0  0  0  0  0  0
  196.0360  171.6150  141.4890 N   0  0  0  0  0  2  0  0  0  0  0  0
  193.7580  173.2880  140.0860 C   0  0  0  0  0  3  0  0  0  0  0  0
  193.2660  174.4270  139.4410 C   0  0  0  0  0  3  0  0  0  0  0  0
  195.6130  173.2110  138.5370 C   0  0  0  0  0  3  0  0  0  0  0  0
  194.9300  172.6630  139.6360 C   0  0  0  0  0  0  0  0  0  0  0  0
  195.1200  174.3480  137.8910 C   0  0  0  0  0  0  0  0  0  0  0  0
  193.9440  174.9550  138.3420 C   0  0  0  0  0  3  0  0  0  0  0  0
  195.8530  174.9180  136.7290 C   0  0  0  0  0  1  0  0  0  0  0  0
  197.5010  169.9280  137.5910 C   0  0  0  0  0  1  0  0  0  0  0  0
  196.2600  169.0680  137.7780 C   0  0  0  0  0  2  0  0  0  0  0  0
  192.8110  172.8130  143.7280 C   0  0  0  0  0  2  0  0  0  0  0  0
  192.9220  175.8050  146.1820 C   0  0  0  0  0  2  0  0  0  0  0  0
  193.0090  174.2230  144.2540 C   0  0  2  0  0  3  0  0  0  0  0  0
  193.6040  174.1550  145.9630 S   0  0  0  0  0  0  0  0  0  0  0  0
  191.6820  175.9030  145.3080 C   0  0  1  0  0  3  0  0  0  0  0  0
  191.7390  174.9420  144.2070 N   0  0  0  0  0  0  0  0  0  0  0  0
  193.1340  176.1460  142.6180 C   0  0  0  0  0  1  0  0  0  0  0  0
  191.7260  175.7080  142.9690 C   0  0  0  0  0  2  0  0  0  0  0  0
  190.5930  175.8460  147.4740 O   0  0  0  0  0  1  0  0  0  0  0  0
  190.3870  175.7050  146.0960 C   0  0  1  0  0  3  0  0  0  0  0  0
  189.2660  176.6200  145.5960 C   0  0  2  0  0  3  0  0  0  0  0  0
  189.7120  177.9370  145.4700 O   0  0  0  0  0  1  0  0  0  0  0  0
  187.8240  175.2990  146.9980 F   0  0  0  0  0  0  0  0  0  0  0  0
  188.0320  176.5720  146.4930 C   0  0  2  0  0  3  0  0  0  0  0  0
  186.5740  177.1430  145.6340 S   0  0  0  0  0  0  0  0  0  0  0  0
  185.3650  176.4110  146.1460 O   0  0  0  0  0  0  0  0  0  0  0  0
  186.4090  178.6160  145.8790 O   0  0  0  0  0  0  0  0  0  0  0  0
  186.7640  176.8520  143.9360 N   0  0  0  0  0  2  0  0  0  0  0  0
  187.0830  178.1200  143.2950 C   0  0  2  0  0  3  0  0  0  0  0  0
  185.8500  178.6810  142.6160 C   0  0  0  0  0  2  0  0  0  0  0  0
  185.5930  177.9260  140.9750 S   0  0  0  0  0  0  0  0  0  0  0  0
  188.3670  177.8830  142.0400 S   0  0  0  0  0  0  0  0  0  0  0  0
  187.1840  177.0400  140.9590 C   0  0  0  0  0  2  0  0  0  0  0  0
  189.6720  171.7370  137.4690 S   0  0  0  0  0  0  0  0  0  0  0  0
  190.9420  173.0100  137.1750 C   0  0  0  0  0  2  0  0  0  0  0  0
  191.7030  172.7220  135.8910 C   0  0  0  0  0  2  0  0  0  0  0  0
  191.7230  173.9470  134.9950 C   0  0  0  0  0  2  0  0  0  0  0  0
  192.0080  176.3950  135.1550 C   0  0  0  0  0  2  0  0  0  0  0  0
  191.3930  175.1770  135.8150 C   0  0  0  0  0  3  0  0  0  0  0  0
  190.5300  176.1090  134.9880 C   0  0  0  0  0  2  0  0  0  0  0  0
  1  7  2  0  0  0  0
  2  1  1  0  0  0  0
  3  2  2  0  0  0  0
  4  2  1  0  0  0  0
  4  9  1  0  0  0  0
  5  4  2  0  0  0  0
  7  6  1  0  0  0  0
  9  8  2  0  0  0  0
  9  7  1  0  0  0  0
 10 11  1  6  0  0  0
 10  5  1  0  0  0  0
 12 13  1  0  0  0  0
 12 10  1  0  0  0  0
 13 14  1  0  0  0  0
 14 26  1  1  0  0  0
 14 15  1  0  0  0  0
 15 16  1  0  0  0  0
 16 17  2  0  0  0  0
 19 18  2  0  0  0  0
 20 21  2  0  0  0  0
 21 18  1  0  0  0  0
 21 16  1  0  0  0  0
 22 23  2  0  0  0  0
 22 20  1  0  0  0  0
 23 19  1  0  0  0  0
 24 22  1  0  0  0  0
 25 26  1  0  0  0  0
 27  6  1  0  0  0  0
 29 27  1  1  0  0  0
 29 30  1  0  0  0  0
 30 28  1  0  0  0  0
 31 36  1  1  0  0  0
 31 28  1  0  0  0  0
 32 29  1  0  0  0  0
 32 31  1  0  0  0  0
 33 34  1  0  0  0  0
 34 32  1  0  0  0  0
 36 35  1  1  0  0  0
 37 38  1  1  0  0  0
 37 36  1  0  0  0  0
 37 40  1  0  0  0  0
 40 39  1  6  0  0  0
 41 43  2  0  0  0  0
 41 42  2  0  0  0  0
 41 40  1  0  0  0  0
 44 41  1  0  0  0  0
 45 44  1  6  0  0  0
 46 45  1  0  0  0  0
 47 46  1  0  0  0  0
 48 45  1  0  0  0  0
 49 47  1  0  0  0  0
 49 48  1  0  0  0  0
 50  5  1  0  0  0  0
 51 50  1  0  0  0  0
 52 51  1  0  0  0  0
 53 55  1  0  0  0  0
 53 52  1  0  0  0  0
 54 55  1  0  0  0  0
 56 54  1  0  0  0  0
 56 55  1  0  0  0  0
M  END
>  <MODEL>
5

>  <REMARK>
 VINA RESULT:      -5.1      2.117      3.360
  Name = 
  21 active torsions:
  status: ('A' for Active; 'I' for Inactive)
    1  A    between atoms: C_1  and  C_12
    2  A    between atoms: C_1  and  C_45
    3  A    between atoms: N_6  and  C_39
    4  A    between atoms: C_9  and  C_18
    5  A    between atoms: C_9  and  C_37
    6  A    between atoms: C_11  and  N_28
    7  A    between atoms: C_12  and  C_27
    8  A    between atoms: C_14  and  C_20
    9  A    between atoms: C_15  and  C_40
   10  A    between atoms: C_15  and  C_54
   11  A    between atoms: C_18  and  C_52
   12  A    between atoms: C_20  and  S_46
   13  A    between atoms: C_22  and  C_39
   14  A    between atoms: C_22  and  C_54
   15  A    between atoms: C_25  and  C_48
   16  A    between atoms: N_28  and  S_31
   17  A    between atoms: C_29  and  N_42
   18  A    between atoms: S_31  and  C_52
   19  A    between atoms: C_39  and  C_56
   20  A    between atoms: C_40  and  S_55
   21  A    between atoms: C_45  and  S_55
                            x       y       z     vdW  Elec       q    Type
                         _______ _______ _______ _____ _____    ______ ____

>  <TORSDO>
F 21

$$$$
=
 OpenBabel11072408293D

 56 60  0  0  1  0  0  0  0  0999 V2000
  188.6440  174.3050  139.9080 N   0  0  0  0  0  0  0  0  0  0  0  0
  188.2560  175.3640  140.7760 C   0  0  0  0  0  0  0  0  0  0  0  0
  187.2000  176.0240  140.5900 O   0  0  0  0  0  0  0  0  0  0  0  0
  189.2220  175.5850  141.8670 C   0  0  0  0  0  0  0  0  0  0  0  0
  189.1400  176.4900  142.8730 C   0  0  0  0  0  0  0  0  0  0  0  0
  190.6250  172.5300  139.8410 S   0  0  0  0  0  0  0  0  0  0  0  0
  189.8730  173.8270  140.4390 C   0  0  0  0  0  0  0  0  0  0  0  0
  191.2590  174.2370  142.4530 C   0  0  0  0  0  2  0  0  0  0  0  0
  190.2800  174.5860  141.6230 C   0  0  0  0  0  0  0  0  0  0  0  0
  190.2530  176.6050  143.8930 C   0  0  1  0  0  3  0  0  0  0  0  0
  190.7790  178.0280  143.9410 C   0  0  0  0  0  1  0  0  0  0  0  0
  189.8480  176.1710  145.2950 C   0  0  0  0  0  2  0  0  0  0  0  0
  190.5920  174.9110  145.6990 C   0  0  0  0  0  2  0  0  0  0  0  0
  191.6600  175.2540  146.7240 C   0  0  1  0  0  3  0  0  0  0  0  0
  192.5380  176.2920  146.2040 N   0  0  0  0  0  2  0  0  0  0  0  0
  193.9370  176.1090  145.9520 C   0  0  0  0  0  0  0  0  0  0  0  0
  194.6800  177.1600  145.8240 N   0  0  0  0  0  2  0  0  0  0  0  0
  195.9020  174.5410  146.0250 C   0  0  0  0  0  3  0  0  0  0  0  0
  196.4550  173.2660  145.8730 C   0  0  0  0  0  3  0  0  0  0  0  0
  193.7390  173.6850  145.3670 C   0  0  0  0  0  3  0  0  0  0  0  0
  194.5420  174.7670  145.7650 C   0  0  0  0  0  0  0  0  0  0  0  0
  194.2910  172.4100  145.2130 C   0  0  0  0  0  0  0  0  0  0  0  0
  195.6500  172.2010  145.4630 C   0  0  0  0  0  3  0  0  0  0  0  0
  193.4290  171.2740  144.7920 C   0  0  0  0  0  1  0  0  0  0  0  0
  191.4970  177.0660  148.4840 C   0  0  0  0  0  1  0  0  0  0  0  0
  191.0650  175.6680  148.0710 C   0  0  0  0  0  2  0  0  0  0  0  0
  190.4410  171.2990  141.1440 C   0  0  0  0  0  2  0  0  0  0  0  0
  192.9470  168.5080  140.1840 C   0  0  0  0  0  2  0  0  0  0  0  0
  190.9750  169.9540  140.6860 C   0  0  2  0  0  3  0  0  0  0  0  0
  192.5170  169.5830  141.5610 S   0  0  0  0  0  0  0  0  0  0  0  0
  192.3570  169.1250  138.9250 C   0  0  1  0  0  3  0  0  0  0  0  0
  191.2270  169.9960  139.2480 N   0  0  0  0  0  0  0  0  0  0  0  0
  189.8690  170.0830  137.2320 C   0  0  0  0  0  1  0  0  0  0  0  0
  190.0550  169.4370  138.5910 C   0  0  0  0  0  2  0  0  0  0  0  0
  193.3080  169.6010  136.7460 O   0  0  0  0  0  1  0  0  0  0  0  0
  193.3900  169.9040  138.1100 C   0  0  1  0  0  3  0  0  0  0  0  0
  193.2980  171.4120  138.3600 C   0  0  2  0  0  3  0  0  0  0  0  0
  192.9580  172.0950  137.1910 O   0  0  0  0  0  1  0  0  0  0  0  0
  194.7060  171.6910  140.2910 F   0  0  0  0  0  0  0  0  0  0  0  0
  194.5870  171.9840  138.9430 C   0  0  2  0  0  3  0  0  0  0  0  0
  194.6990  173.7470  138.6810 S   0  0  0  0  0  0  0  0  0  0  0  0
  194.8420  174.0320  137.2120 O   0  0  0  0  0  0  0  0  0  0  0  0
  193.4460  174.3970  139.1970 O   0  0  0  0  0  0  0  0  0  0  0  0
  196.0720  174.3650  139.5390 N   0  0  0  0  0  2  0  0  0  0  0  0
  195.5850  175.1970  140.6290 C   0  0  2  0  0  3  0  0  0  0  0  0
  196.5840  176.2960  140.9270 C   0  0  0  0  0  2  0  0  0  0  0  0
  197.9340  175.6970  141.9980 S   0  0  0  0  0  0  0  0  0  0  0  0
  195.3680  174.2030  142.1280 S   0  0  0  0  0  0  0  0  0  0  0  0
  197.1630  174.0810  142.3320 C   0  0  0  0  0  2  0  0  0  0  0  0
  187.6740  177.5370  143.0450 S   0  0  0  0  0  0  0  0  0  0  0  0
  186.6110  176.1870  143.6510 C   0  0  0  0  0  2  0  0  0  0  0  0
  186.1710  176.4510  145.0810 C   0  0  0  0  0  2  0  0  0  0  0  0
  186.4340  177.8970  145.4640 C   0  0  0  0  0  2  0  0  0  0  0  0
  185.8790  177.9970  147.8680 C   0  0  0  0  0  2  0  0  0  0  0  0
  185.4000  178.3480  146.4730 C   0  0  0  0  0  3  0  0  0  0  0  0
  186.0040  179.4180  147.3600 C   0  0  0  0  0  2  0  0  0  0  0  0
  1  7  2  0  0  0  0
  1  2  1  0  0  0  0
  2  4  1  0  0  0  0
  3  2  2  0  0  0  0
  4  5  2  0  0  0  0
  5 50  1  0  0  0  0
  5 10  1  0  0  0  0
  6  7  1  0  0  0  0
  6 27  1  0  0  0  0
  7  9  1  0  0  0  0
  9  4  1  0  0  0  0
  9  8  2  0  0  0  0
 10 11  1  1  0  0  0
 10 12  1  0  0  0  0
 12 13  1  0  0  0  0
 14 13  1  6  0  0  0
 14 26  1  0  0  0  0
 15 14  1  0  0  0  0
 16 15  1  0  0  0  0
 17 16  2  0  0  0  0
 19 18  1  0  0  0  0
 20 21  1  0  0  0  0
 21 16  1  0  0  0  0
 21 18  2  0  0  0  0
 22 20  2  0  0  0  0
 22 23  1  0  0  0  0
 23 19  2  0  0  0  0
 24 22  1  0  0  0  0
 26 25  1  0  0  0  0
 28 30  1  0  0  0  0
 29 27  1  1  0  0  0
 29 30  1  0  0  0  0
 31 36  1  1  0  0  0
 31 32  1  0  0  0  0
 31 28  1  0  0  0  0
 32 29  1  0  0  0  0
 33 34  1  0  0  0  0
 34 32  1  0  0  0  0
 36 35  1  6  0  0  0
 36 37  1  0  0  0  0
 37 38  1  6  0  0  0
 37 40  1  0  0  0  0
 40 39  1  1  0  0  0
 41 40  1  0  0  0  0
 41 43  2  0  0  0  0
 41 44  1  0  0  0  0
 42 41  2  0  0  0  0
 45 44  1  6  0  0  0
 45 46  1  0  0  0  0
 45 48  1  0  0  0  0
 46 47  1  0  0  0  0
 47 49  1  0  0  0  0
 48 49  1  0  0  0  0
 50 51  1  0  0  0  0
 51 52  1  0  0  0  0
 52 53  1  0  0  0  0
 53 55  1  0  0  0  0
 55 56  1  0  0  0  0
 55 54  1  0  0  0  0
 56 54  1  0  0  0  0
M  END
>  <MODEL>
6

>  <REMARK>
 VINA RESULT:      -4.9      3.486      9.050
  Name = 
  21 active torsions:
  status: ('A' for Active; 'I' for Inactive)
    1  A    between atoms: C_1  and  C_12
    2  A    between atoms: C_1  and  C_45
    3  A    between atoms: N_6  and  C_39
    4  A    between atoms: C_9  and  C_18
    5  A    between atoms: C_9  and  C_37
    6  A    between atoms: C_11  and  N_28
    7  A    between atoms: C_12  and  C_27
    8  A    between atoms: C_14  and  C_20
    9  A    between atoms: C_15  and  C_40
   10  A    between atoms: C_15  and  C_54
   11  A    between atoms: C_18  and  C_52
   12  A    between atoms: C_20  and  S_46
   13  A    between atoms: C_22  and  C_39
   14  A    between atoms: C_22  and  C_54
   15  A    between atoms: C_25  and  C_48
   16  A    between atoms: N_28  and  S_31
   17  A    between atoms: C_29  and  N_42
   18  A    between atoms: S_31  and  C_52
   19  A    between atoms: C_39  and  C_56
   20  A    between atoms: C_40  and  S_55
   21  A    between atoms: C_45  and  S_55
                            x       y       z     vdW  Elec       q    Type
                         _______ _______ _______ _____ _____    ______ ____

>  <TORSDO>
F 21

$$$$
=
 OpenBabel11072408293D

 56 60  0  0  1  0  0  0  0  0999 V2000
  189.6300  173.3980  142.5110 N   0  0  0  0  0  0  0  0  0  0  0  0
  189.2070  173.1650  141.1730 C   0  0  0  0  0  0  0  0  0  0  0  0
  188.1240  173.6250  140.7260 O   0  0  0  0  0  0  0  0  0  0  0  0
  190.1610  172.3370  140.4130 C   0  0  0  0  0  0  0  0  0  0  0  0
  190.0750  171.9550  139.1160 C   0  0  0  0  0  0  0  0  0  0  0  0
  191.7880  172.8150  143.9530 S   0  0  0  0  0  0  0  0  0  0  0  0
  190.8730  172.7190  142.6280 C   0  0  0  0  0  0  0  0  0  0  0  0
  192.4260  171.5100  141.1210 C   0  0  0  0  0  2  0  0  0  0  0  0
  191.2340  172.0390  141.3820 C   0  0  0  0  0  0  0  0  0  0  0  0
  191.1360  171.0630  138.5070 C   0  0  1  0  0  3  0  0  0  0  0  0
  190.4900  169.9220  137.7420 C   0  0  0  0  0  1  0  0  0  0  0  0
  192.1040  171.7980  137.5910 C   0  0  0  0  0  2  0  0  0  0  0  0
  193.4510  171.0970  137.5630 C   0  0  0  0  0  2  0  0  0  0  0  0
  194.5650  172.1290  137.5830 C   0  0  1  0  0  3  0  0  0  0  0  0
  194.4080  173.0150  138.7270 N   0  0  0  0  0  2  0  0  0  0  0  0
  194.7180  174.4150  138.7090 C   0  0  0  0  0  0  0  0  0  0  0  0
  194.8700  175.0230  139.8410 N   0  0  0  0  0  2  0  0  0  0  0  0
  196.0290  175.3970  136.8020 C   0  0  0  0  0  3  0  0  0  0  0  0
  196.0920  176.1100  135.6010 C   0  0  0  0  0  3  0  0  0  0  0  0
  193.6320  175.7020  136.8600 C   0  0  0  0  0  3  0  0  0  0  0  0
  194.8020  175.1940  137.4490 C   0  0  0  0  0  0  0  0  0  0  0  0
  193.6930  176.4160  135.6600 C   0  0  0  0  0  0  0  0  0  0  0  0
  194.9250  176.6220  135.0310 C   0  0  0  0  0  3  0  0  0  0  0  0
  192.4470  176.9470  135.0470 C   0  0  0  0  0  1  0  0  0  0  0  0
  196.2680  170.7830  138.8850 C   0  0  0  0  0  1  0  0  0  0  0  0
  195.9540  171.4900  137.5750 C   0  0  0  0  0  2  0  0  0  0  0  0
  193.2120  173.7770  143.4130 C   0  0  0  0  0  2  0  0  0  0  0  0
  193.2830  176.1830  146.4450 C   0  0  0  0  0  2  0  0  0  0  0  0
  193.3250  175.0600  144.2170 C   0  0  2  0  0  3  0  0  0  0  0  0
  194.0960  174.7070  145.8170 S   0  0  0  0  0  0  0  0  0  0  0  0
  191.9560  176.3160  145.7150 C   0  0  1  0  0  3  0  0  0  0  0  0
  191.9930  175.6190  144.4300 N   0  0  0  0  0  0  0  0  0  0  0  0
  192.9420  176.6160  142.4230 C   0  0  0  0  0  1  0  0  0  0  0  0
  191.7780  176.6200  143.3940 C   0  0  0  0  0  2  0  0  0  0  0  0
  191.1900  175.2810  147.7700 O   0  0  0  0  0  1  0  0  0  0  0  0
  190.7740  175.8060  146.5410 C   0  0  1  0  0  3  0  0  0  0  0  0
  189.6980  176.8800  146.7220 C   0  0  2  0  0  3  0  0  0  0  0  0
  190.1450  177.9040  147.5590 O   0  0  0  0  0  1  0  0  0  0  0  0
  188.2300  174.9800  146.8850 F   0  0  0  0  0  0  0  0  0  0  0  0
  188.3870  176.3050  147.2550 C   0  0  2  0  0  3  0  0  0  0  0  0
  186.9830  177.2690  146.7190 S   0  0  0  0  0  0  0  0  0  0  0  0
  185.7520  176.4060  146.7090 O   0  0  0  0  0  0  0  0  0  0  0  0
  186.7840  178.4130  147.6730 O   0  0  0  0  0  0  0  0  0  0  0  0
  187.2870  177.8830  145.1280 N   0  0  0  0  0  2  0  0  0  0  0  0
  186.9100  176.8550  144.1690 C   0  0  2  0  0  3  0  0  0  0  0  0
  188.0720  176.5600  143.2420 C   0  0  0  0  0  2  0  0  0  0  0  0
  188.1670  177.7780  141.8870 S   0  0  0  0  0  0  0  0  0  0  0  0
  185.5100  177.4160  143.1660 S   0  0  0  0  0  0  0  0  0  0  0  0
  186.5810  178.5790  142.2840 C   0  0  0  0  0  2  0  0  0  0  0  0
  188.7200  172.5510  138.0750 S   0  0  0  0  0  0  0  0  0  0  0  0
  189.5050  174.1580  137.7330 C   0  0  0  0  0  2  0  0  0  0  0  0
  189.8700  174.2760  136.2620 C   0  0  0  0  0  2  0  0  0  0  0  0
  189.1790  175.4730  135.6340 C   0  0  0  0  0  2  0  0  0  0  0  0
  187.1520  176.7240  136.2850 C   0  0  0  0  0  2  0  0  0  0  0  0
  187.6860  175.3700  135.8620 C   0  0  0  0  0  3  0  0  0  0  0  0
  186.9670  176.2500  134.8580 C   0  0  0  0  0  2  0  0  0  0  0  0
  1  7  2  0  0  0  0
  2  1  1  0  0  0  0
  3  2  2  0  0  0  0
  4  2  1  0  0  0  0
  4  9  1  0  0  0  0
  5  4  2  0  0  0  0
  7  6  1  0  0  0  0
  8  9  2  0  0  0  0
  9  7  1  0  0  0  0
 10 11  1  6  0  0  0
 10  5  1  0  0  0  0
 12 10  1  0  0  0  0
 13 12  1  0  0  0  0
 14 13  1  1  0  0  0
 14 15  1  0  0  0  0
 16 15  1  0  0  0  0
 16 17  2  0  0  0  0
 18 21  1  0  0  0  0
 19 18  2  0  0  0  0
 20 21  2  0  0  0  0
 21 16  1  0  0  0  0
 22 20  1  0  0  0  0
 23 19  1  0  0  0  0
 23 22  2  0  0  0  0
 24 22  1  0  0  0  0
 26 14  1  0  0  0  0
 26 25  1  0  0  0  0
 27  6  1  0  0  0  0
 29 27  1  6  0  0  0
 29 32  1  0  0  0  0
 29 30  1  0  0  0  0
 30 28  1  0  0  0  0
 31 28  1  0  0  0  0
 31 36  1  1  0  0  0
 32 31  1  0  0  0  0
 33 34  1  0  0  0  0
 34 32  1  0  0  0  0
 36 37  1  0  0  0  0
 36 35  1  1  0  0  0
 37 40  1  0  0  0  0
 37 38  1  1  0  0  0
 40 39  1  6  0  0  0
 41 40  1  0  0  0  0
 41 43  2  0  0  0  0
 42 41  2  0  0  0  0
 44 41  1  0  0  0  0
 45 44  1  1  0  0  0
 46 45  1  0  0  0  0
 47 49  1  0  0  0  0
 47 46  1  0  0  0  0
 48 45  1  0  0  0  0
 49 48  1  0  0  0  0
 50  5  1  0  0  0  0
 51 50  1  0  0  0  0
 52 51  1  0  0  0  0
 53 55  1  0  0  0  0
 53 52  1  0  0  0  0
 55 54  1  0  0  0  0
 56 55  1  0  0  0  0
 56 54  1  0  0  0  0
M  END
>  <MODEL>
7

>  <REMARK>
 VINA RESULT:      -4.8      2.680      4.532
  Name = 
  21 active torsions:
  status: ('A' for Active; 'I' for Inactive)
    1  A    between atoms: C_1  and  C_12
    2  A    between atoms: C_1  and  C_45
    3  A    between atoms: N_6  and  C_39
    4  A    between atoms: C_9  and  C_18
    5  A    between atoms: C_9  and  C_37
    6  A    between atoms: C_11  and  N_28
    7  A    between atoms: C_12  and  C_27
    8  A    between atoms: C_14  and  C_20
    9  A    between atoms: C_15  and  C_40
   10  A    between atoms: C_15  and  C_54
   11  A    between atoms: C_18  and  C_52
   12  A    between atoms: C_20  and  S_46
   13  A    between atoms: C_22  and  C_39
   14  A    between atoms: C_22  and  C_54
   15  A    between atoms: C_25  and  C_48
   16  A    between atoms: N_28  and  S_31
   17  A    between atoms: C_29  and  N_42
   18  A    between atoms: S_31  and  C_52
   19  A    between atoms: C_39  and  C_56
   20  A    between atoms: C_40  and  S_55
   21  A    between atoms: C_45  and  S_55
                            x       y       z     vdW  Elec       q    Type
                         _______ _______ _______ _____ _____    ______ ____

>  <TORSDO>
F 21

$$$$
=
 OpenBabel11072408293D

 56 60  0  0  1  0  0  0  0  0999 V2000
  195.1290  176.3230  145.3620 N   0  0  0  0  0  0  0  0  0  0  0  0
  193.8800  176.3110  146.0450 C   0  0  0  0  0  0  0  0  0  0  0  0
  193.7330  176.8510  147.1730 O   0  0  0  0  0  0  0  0  0  0  0  0
  192.8300  175.5990  145.2950 C   0  0  0  0  0  0  0  0  0  0  0  0
  191.5330  175.4290  145.6470 C   0  0  0  0  0  0  0  0  0  0  0  0
  196.0090  175.4890  142.9940 S   0  0  0  0  0  0  0  0  0  0  0  0
  194.8920  175.6160  144.1520 C   0  0  0  0  0  0  0  0  0  0  0  0
  192.9410  174.6380  142.9760 C   0  0  0  0  0  2  0  0  0  0  0  0
  193.5100  175.1360  144.0700 C   0  0  0  0  0  0  0  0  0  0  0  0
  190.5970  174.6290  144.7660 C   0  0  1  0  0  3  0  0  0  0  0  0
  189.7500  173.6930  145.6090 C   0  0  0  0  0  1  0  0  0  0  0  0
  189.6880  175.4870  143.8980 C   0  0  0  0  0  2  0  0  0  0  0  0
  189.7290  175.0180  142.4540 C   0  0  0  0  0  2  0  0  0  0  0  0
  188.3150  174.7800  141.9530 C   0  0  1  0  0  3  0  0  0  0  0  0
  188.1640  175.3140  140.6070 N   0  0  0  0  0  2  0  0  0  0  0  0
  187.2460  176.3570  140.2540 C   0  0  0  0  0  0  0  0  0  0  0  0
  186.9490  176.5140  139.0050 N   0  0  0  0  0  2  0  0  0  0  0  0
  187.5150  178.1730  141.9710 C   0  0  0  0  0  3  0  0  0  0  0  0
  186.9730  179.0730  142.8940 C   0  0  0  0  0  3  0  0  0  0  0  0
  185.2980  177.3490  141.4690 C   0  0  0  0  0  3  0  0  0  0  0  0
  186.6860  177.2960  141.2570 C   0  0  0  0  0  0  0  0  0  0  0  0
  184.7550  178.2470  142.3930 C   0  0  0  0  0  0  0  0  0  0  0  0
  185.5930  179.1080  143.1080 C   0  0  0  0  0  3  0  0  0  0  0  0
  183.2840  178.2930  142.6070 C   0  0  0  0  0  1  0  0  0  0  0  0
  188.1750  172.5960  140.6820 C   0  0  0  0  0  1  0  0  0  0  0  0
  187.9170  173.3050  142.0020 C   0  0  0  0  0  2  0  0  0  0  0  0
  195.3490  176.5030  141.6590 C   0  0  0  0  0  2  0  0  0  0  0  0
  195.1630  173.9270  138.7750 C   0  0  0  0  0  2  0  0  0  0  0  0
  195.5970  175.8430  140.3150 C   0  0  2  0  0  3  0  0  0  0  0  0
  194.1010  174.9740  139.7800 S   0  0  0  0  0  0  0  0  0  0  0  0
  196.4830  173.7760  139.5150 C   0  0  1  0  0  3  0  0  0  0  0  0
  196.6970  174.8900  140.4370 N   0  0  0  0  0  0  0  0  0  0  0  0
  197.9410  175.6610  138.4930 C   0  0  0  0  0  1  0  0  0  0  0  0
  197.9070  175.5750  140.0070 C   0  0  0  0  0  2  0  0  0  0  0  0
  197.3500  172.5820  141.4400 O   0  0  0  0  0  1  0  0  0  0  0  0
  196.5840  172.4530  140.2750 C   0  0  1  0  0  3  0  0  0  0  0  0
  195.2060  171.8550  140.5700 C   0  0  2  0  0  3  0  0  0  0  0  0
  194.8830  171.9800  141.9230 O   0  0  0  0  0  1  0  0  0  0  0  0
  195.8600  170.1440  139.0100 F   0  0  0  0  0  0  0  0  0  0  0  0
  195.1020  170.3930  140.1430 C   0  0  2  0  0  3  0  0  0  0  0  0
  193.4050  169.9080  139.8720 S   0  0  0  0  0  0  0  0  0  0  0  0
  193.2310  168.4570  140.2260 O   0  0  0  0  0  0  0  0  0  0  0  0
  192.5130  170.7470  140.7440 O   0  0  0  0  0  0  0  0  0  0  0  0
  192.9990  170.1620  138.2070 N   0  0  0  0  0  2  0  0  0  0  0  0
  192.4360  168.9260  137.6870 C   0  0  2  0  0  3  0  0  0  0  0  0
  192.9540  168.6700  136.2860 C   0  0  0  0  0  2  0  0  0  0  0  0
  192.0070  169.6130  135.0440 S   0  0  0  0  0  0  0  0  0  0  0  0
  190.6290  169.0400  137.6140 S   0  0  0  0  0  0  0  0  0  0  0  0
  190.7380  170.1870  136.2160 C   0  0  0  0  0  2  0  0  0  0  0  0
  190.8840  176.2010  147.1500 S   0  0  0  0  0  0  0  0  0  0  0  0
  189.5860  177.1330  146.2760 C   0  0  0  0  0  2  0  0  0  0  0  0
  188.2080  176.7300  146.7750 C   0  0  0  0  0  2  0  0  0  0  0  0
  187.1230  177.3990  145.9500 C   0  0  0  0  0  2  0  0  0  0  0  0
  185.6100  178.0440  147.7910 C   0  0  0  0  0  2  0  0  0  0  0  0
  185.7740  177.1400  146.5860 C   0  0  0  0  0  3  0  0  0  0  0  0
  184.9280  178.3940  146.4850 C   0  0  0  0  0  2  0  0  0  0  0  0
  1  2  1  0  0  0  0
  2  3  2  0  0  0  0
  4  5  2  0  0  0  0
  4  2  1  0  0  0  0
  5 50  1  0  0  0  0
  6  7  1  0  0  0  0
  7  1  2  0  0  0  0
  8  9  2  0  0  0  0
  9  7  1  0  0  0  0
  9  4  1  0  0  0  0
 10 11  1  1  0  0  0
 10  5  1  0  0  0  0
 12 10  1  0  0  0  0
 13 12  1  0  0  0  0
 14 26  1  6  0  0  0
 14 13  1  0  0  0  0
 15 14  1  0  0  0  0
 16 15  1  0  0  0  0
 16 21  1  0  0  0  0
 17 16  2  0  0  0  0
 18 19  1  0  0  0  0
 19 23  2  0  0  0  0
 20 22  2  0  0  0  0
 21 20  1  0  0  0  0
 21 18  2  0  0  0  0
 22 24  1  0  0  0  0
 22 23  1  0  0  0  0
 25 26  1  0  0  0  0
 27  6  1  0  0  0  0
 28 31  1  0  0  0  0
 28 30  1  0  0  0  0
 29 32  1  0  0  0  0
 29 27  1  1  0  0  0
 30 29  1  0  0  0  0
 31 36  1  1  0  0  0
 31 32  1  0  0  0  0
 33 34  1  0  0  0  0
 34 32  1  0  0  0  0
 36 37  1  0  0  0  0
 36 35  1  1  0  0  0
 37 38  1  1  0  0  0
 40 39  1  6  0  0  0
 40 37  1  0  0  0  0
 41 40  1  0  0  0  0
 41 42  2  0  0  0  0
 41 43  2  0  0  0  0
 44 41  1  0  0  0  0
 45 44  1  6  0  0  0
 46 45  1  0  0  0  0
 47 49  1  0  0  0  0
 47 46  1  0  0  0  0
 48 45  1  0  0  0  0
 49 48  1  0  0  0  0
 51 52  1  0  0  0  0
 51 50  1  0  0  0  0
 53 55  1  0  0  0  0
 53 52  1  0  0  0  0
 55 54  1  0  0  0  0
 56 55  1  0  0  0  0
 56 54  1  0  0  0  0
M  END
>  <MODEL>
8

>  <REMARK>
 VINA RESULT:      -4.6      4.019      9.942
  Name = 
  21 active torsions:
  status: ('A' for Active; 'I' for Inactive)
    1  A    between atoms: C_1  and  C_12
    2  A    between atoms: C_1  and  C_45
    3  A    between atoms: N_6  and  C_39
    4  A    between atoms: C_9  and  C_18
    5  A    between atoms: C_9  and  C_37
    6  A    between atoms: C_11  and  N_28
    7  A    between atoms: C_12  and  C_27
    8  A    between atoms: C_14  and  C_20
    9  A    between atoms: C_15  and  C_40
   10  A    between atoms: C_15  and  C_54
   11  A    between atoms: C_18  and  C_52
   12  A    between atoms: C_20  and  S_46
   13  A    between atoms: C_22  and  C_39
   14  A    between atoms: C_22  and  C_54
   15  A    between atoms: C_25  and  C_48
   16  A    between atoms: N_28  and  S_31
   17  A    between atoms: C_29  and  N_42
   18  A    between atoms: S_31  and  C_52
   19  A    between atoms: C_39  and  C_56
   20  A    between atoms: C_40  and  S_55
   21  A    between atoms: C_45  and  S_55
                            x       y       z     vdW  Elec       q    Type
                         _______ _______ _______ _____ _____    ______ ____

>  <TORSDO>
F 21

$$$$
=
 OpenBabel11072408293D

 56 60  0  0  1  0  0  0  0  0999 V2000
  194.4680  176.1980  146.7310 N   0  0  0  0  0  0  0  0  0  0  0  0
  193.0690  176.3940  146.9040 C   0  0  0  0  0  0  0  0  0  0  0  0
  192.6070  177.1250  147.8200 O   0  0  0  0  0  0  0  0  0  0  0  0
  192.2660  175.6490  145.9180 C   0  0  0  0  0  0  0  0  0  0  0  0
  190.9170  175.6390  145.7890 C   0  0  0  0  0  0  0  0  0  0  0  0
  196.0060  174.9160  144.9790 S   0  0  0  0  0  0  0  0  0  0  0  0
  194.5810  175.3190  145.6200 C   0  0  0  0  0  0  0  0  0  0  0  0
  193.0570  174.3100  143.9450 C   0  0  0  0  0  2  0  0  0  0  0  0
  193.2660  174.9390  145.0980 C   0  0  0  0  0  0  0  0  0  0  0  0
  190.2540  174.7770  144.7350 C   0  0  1  0  0  3  0  0  0  0  0  0
  189.7940  173.4630  145.3420 C   0  0  0  0  0  1  0  0  0  0  0  0
  189.0780  175.4500  144.0420 C   0  0  0  0  0  2  0  0  0  0  0  0
  188.3930  174.4830  143.0930 C   0  0  0  0  0  2  0  0  0  0  0  0
  188.1150  175.1750  141.7700 C   0  0  1  0  0  3  0  0  0  0  0  0
  188.7890  176.4650  141.7280 N   0  0  0  0  0  2  0  0  0  0  0  0
  188.1100  177.7260  141.6820 C   0  0  0  0  0  0  0  0  0  0  0  0
  188.7780  178.7690  141.3070 N   0  0  0  0  0  2  0  0  0  0  0  0
  186.3620  177.9730  143.4730 C   0  0  0  0  0  3  0  0  0  0  0  0
  185.0320  178.1500  143.8670 C   0  0  0  0  0  3  0  0  0  0  0  0
  185.6800  177.9980  141.1530 C   0  0  0  0  0  3  0  0  0  0  0  0
  186.6990  177.8850  142.1140 C   0  0  0  0  0  0  0  0  0  0  0  0
  184.3500  178.1740  141.5460 C   0  0  0  0  0  0  0  0  0  0  0  0
  184.0260  178.2470  142.9040 C   0  0  0  0  0  3  0  0  0  0  0  0
  183.2820  178.2930  140.5190 C   0  0  0  0  0  1  0  0  0  0  0  0
  189.3760  173.1340  140.9640 C   0  0  0  0  0  1  0  0  0  0  0  0
  188.5060  174.3160  140.5670 C   0  0  0  0  0  2  0  0  0  0  0  0
  195.9960  175.7410  143.3770 C   0  0  0  0  0  2  0  0  0  0  0  0
  197.5120  174.5920  140.0050 C   0  0  0  0  0  2  0  0  0  0  0  0
  196.8520  174.9800  142.3810 C   0  0  2  0  0  3  0  0  0  0  0  0
  197.2970  176.0710  141.0050 S   0  0  0  0  0  0  0  0  0  0  0  0
  196.5020  173.5640  140.4920 C   0  0  1  0  0  3  0  0  0  0  0  0
  196.1030  173.8340  141.8720 N   0  0  0  0  0  0  0  0  0  0  0  0
  195.2820  171.8250  142.9730 C   0  0  0  0  0  1  0  0  0  0  0  0
  196.4970  172.6780  142.6650 C   0  0  0  0  0  2  0  0  0  0  0  0
  195.5050  174.0110  138.3260 O   0  0  0  0  0  1  0  0  0  0  0  0
  195.2590  173.4920  139.6030 C   0  0  1  0  0  3  0  0  0  0  0  0
  194.6870  172.0730  139.5340 C   0  0  2  0  0  3  0  0  0  0  0  0
  195.0840  171.4270  138.3620 O   0  0  0  0  0  1  0  0  0  0  0  0
  192.7440  172.5790  140.8610 F   0  0  0  0  0  0  0  0  0  0  0  0
  193.1640  172.0550  139.6500 C   0  0  2  0  0  3  0  0  0  0  0  0
  192.5100  170.4080  139.4270 S   0  0  0  0  0  0  0  0  0  0  0  0
  193.5490  169.3940  139.8160 O   0  0  0  0  0  0  0  0  0  0  0  0
  191.2970  170.2430  140.2980 O   0  0  0  0  0  0  0  0  0  0  0  0
  192.0680  170.1920  137.7660 N   0  0  0  0  0  2  0  0  0  0  0  0
  191.0680  171.1940  137.4310 C   0  0  2  0  0  3  0  0  0  0  0  0
  190.1330  170.6580  136.3650 C   0  0  0  0  0  2  0  0  0  0  0  0
  190.8540  170.8340  134.6990 S   0  0  0  0  0  0  0  0  0  0  0  0
  191.8660  172.6880  136.7890 S   0  0  0  0  0  0  0  0  0  0  0  0
  192.2760  171.8310  135.2470 C   0  0  0  0  0  2  0  0  0  0  0  0
  189.8890  176.6980  146.8370 S   0  0  0  0  0  0  0  0  0  0  0  0
  188.7140  175.3720  147.2620 C   0  0  0  0  0  2  0  0  0  0  0  0
  187.3530  175.9510  147.6080 C   0  0  0  0  0  2  0  0  0  0  0  0
  187.1760  177.3180  146.9710 C   0  0  0  0  0  2  0  0  0  0  0  0
  186.6780  179.3330  148.3090 C   0  0  0  0  0  2  0  0  0  0  0  0
  186.0870  178.0760  147.7010 C   0  0  0  0  0  3  0  0  0  0  0  0
  185.8780  179.4170  147.0260 C   0  0  0  0  0  2  0  0  0  0  0  0
  1  2  1  0  0  0  0
  2  3  2  0  0  0  0
  4  2  1  0  0  0  0
  5  4  2  0  0  0  0
  5 50  1  0  0  0  0
  6  7  1  0  0  0  0
  7  1  2  0  0  0  0
  8  9  2  0  0  0  0
  9  7  1  0  0  0  0
  9  4  1  0  0  0  0
 10 11  1  1  0  0  0
 10  5  1  0  0  0  0
 12 10  1  0  0  0  0
 13 12  1  0  0  0  0
 14 26  1  6  0  0  0
 14 13  1  0  0  0  0
 15 14  1  0  0  0  0
 16 15  1  0  0  0  0
 16 21  1  0  0  0  0
 17 16  2  0  0  0  0
 18 19  1  0  0  0  0
 20 22  2  0  0  0  0
 20 21  1  0  0  0  0
 21 18  2  0  0  0  0
 22 23  1  0  0  0  0
 23 19  2  0  0  0  0
 24 22  1  0  0  0  0
 26 25  1  0  0  0  0
 27  6  1  0  0  0  0
 28 31  1  0  0  0  0
 28 30  1  0  0  0  0
 29 27  1  1  0  0  0
 30 29  1  0  0  0  0
 31 36  1  6  0  0  0
 31 32  1  0  0  0  0
 32 29  1  0  0  0  0
 32 34  1  0  0  0  0
 34 33  1  0  0  0  0
 36 35  1  6  0  0  0
 37 38  1  6  0  0  0
 37 36  1  0  0  0  0
 37 40  1  0  0  0  0
 40 39  1  1  0  0  0
 41 40  1  0  0  0  0
 41 42  2  0  0  0  0
 41 43  2  0  0  0  0
 44 41  1  0  0  0  0
 45 44  1  6  0  0  0
 46 45  1  0  0  0  0
 47 49  1  0  0  0  0
 47 46  1  0  0  0  0
 48 45  1  0  0  0  0
 49 48  1  0  0  0  0
 50 51  1  0  0  0  0
 51 52  1  0  0  0  0
 53 52  1  0  0  0  0
 53 55  1  0  0  0  0
 55 54  1  0  0  0  0
 56 55  1  0  0  0  0
 56 54  1  0  0  0  0
M  END
>  <MODEL>
9

>  <REMARK>
 VINA RESULT:      -4.6      3.477      9.679
  Name = 
  21 active torsions:
  status: ('A' for Active; 'I' for Inactive)
    1  A    between atoms: C_1  and  C_12
    2  A    between atoms: C_1  and  C_45
    3  A    between atoms: N_6  and  C_39
    4  A    between atoms: C_9  and  C_18
    5  A    between atoms: C_9  and  C_37
    6  A    between atoms: C_11  and  N_28
    7  A    between atoms: C_12  and  C_27
    8  A    between atoms: C_14  and  C_20
    9  A    between atoms: C_15  and  C_40
   10  A    between atoms: C_15  and  C_54
   11  A    between atoms: C_18  and  C_52
   12  A    between atoms: C_20  and  S_46
   13  A    between atoms: C_22  and  C_39
   14  A    between atoms: C_22  and  C_54
   15  A    between atoms: C_25  and  C_48
   16  A    between atoms: N_28  and  S_31
   17  A    between atoms: C_29  and  N_42
   18  A    between atoms: S_31  and  C_52
   19  A    between atoms: C_39  and  C_56
   20  A    between atoms: C_40  and  S_55
   21  A    between atoms: C_45  and  S_55
                            x       y       z     vdW  Elec       q    Type
                         _______ _______ _______ _____ _____    ______ ____

>  <TORSDO>
F 21

$$$$
