=
 OpenBabel11072408433D

 36 41  0  0  1  0  0  0  0  0999 V2000
  189.1100  173.0350  143.8950 N   0  0  0  0  0  0  0  0  0  0  0  0
  191.0660  174.6170  142.2230 N   0  0  0  0  0  0  0  0  0  0  0  0
  193.6780  175.3760  143.2340 N   0  0  0  0  0  2  0  0  0  0  0  0
  188.0220  172.4400  141.8220 C   0  0  0  0  0  3  0  0  0  0  0  0
  194.9460  176.0820  143.3110 C   0  0  0  0  0  1  0  0  0  0  0  0
  189.0260  173.1670  142.4730 C   0  0  0  0  0  0  0  0  0  0  0  0
  190.1600  176.2300  145.5240 C   0  0  0  0  0  0  0  0  0  0  0  0
  190.0200  175.2720  144.3400 C   0  0  2  0  0  3  0  0  0  0  0  0
  191.1940  178.0380  144.1430 C   0  0  1  0  0  3  0  0  0  0  0  0
  189.5000  174.5520  147.1700 C   0  0  0  0  0  3  0  0  0  0  0  0
  192.4300  175.9960  143.5500 C   0  0  0  0  0  0  0  0  0  0  0  0
  189.4280  173.5670  146.1410 N   0  0  0  0  0  0  0  0  0  0  0  0
  189.5610  173.8940  144.7560 C   0  0  0  0  0  0  0  0  0  0  0  0
  190.5930  177.4840  145.3950 C   0  0  0  0  0  2  0  0  0  0  0  0
  192.3980  177.2710  143.8280 N   0  0  0  0  0  0  0  0  0  0  0  0
  189.8080  173.8910  140.2980 C   0  0  0  0  0  3  0  0  0  0  0  0
  189.9410  173.9070  141.6890 C   0  0  0  0  0  0  0  0  0  0  0  0
  188.7780  173.1680  139.7000 C   0  0  0  0  0  3  0  0  0  0  0  0
  189.8190  175.8080  146.8880 C   0  0  0  0  0  3  0  0  0  0  0  0
  191.1910  175.2030  143.3740 C   0  0  0  0  0  0  0  0  0  0  0  0
  187.9110  172.4620  140.4690 N   0  0  0  0  0  0  0  0  0  0  0  0
  190.2350  178.1030  142.9530 C   0  0  0  0  0  2  0  0  0  0  0  0
  188.8640  178.2900  143.4100 N   0  0  0  0  0  2  0  0  0  0  0  0
  185.3400  177.6150  142.3410 C   0  0  0  0  0  3  0  0  0  0  0  0
  187.8660  177.8990  141.1960 C   0  0  0  0  0  3  0  0  0  0  0  0
  187.7260  177.9950  142.5900 C   0  0  0  0  0  0  0  0  0  0  0  0
  186.4490  177.8410  143.1720 C   0  0  0  0  0  0  0  0  0  0  0  0
  186.7580  177.6590  140.3840 C   0  0  0  0  0  3  0  0  0  0  0  0
  185.4930  177.5210  140.9570 C   0  0  0  0  0  3  0  0  0  0  0  0
  185.8430  179.1310  145.2490 C   0  0  0  0  0  0  0  0  0  0  0  0
  185.6560  179.1780  146.6350 C   0  0  0  0  0  3  0  0  0  0  0  0
  186.2390  177.9270  144.6320 C   0  0  0  0  0  0  0  0  0  0  0  0
  185.6780  180.2660  144.5240 F   0  0  0  0  0  0  0  0  0  0  0  0
  186.4640  176.7930  145.4250 C   0  0  0  0  0  3  0  0  0  0  0  0
  186.2760  176.8450  146.8090 C   0  0  0  0  0  3  0  0  0  0  0  0
  185.8670  178.0370  147.4130 C   0  0  0  0  0  3  0  0  0  0  0  0
  1 13  2  0  0  0  0
  2 20  2  0  0  0  0
  3  5  1  0  0  0  0
  3 11  1  0  0  0  0
  4  6  1  0  0  0  0
  6  1  1  0  0  0  0
  7 19  2  0  0  0  0
  8 20  1  1  0  0  0
  8 13  1  0  0  0  0
  8  7  1  0  0  0  0
  9 22  1  6  0  0  0
  9 14  1  0  0  0  0
 11 15  2  0  0  0  0
 12 10  2  0  0  0  0
 13 12  1  0  0  0  0
 14  7  1  0  0  0  0
 15  9  1  0  0  0  0
 16 17  1  0  0  0  0
 17  2  1  0  0  0  0
 17  6  2  0  0  0  0
 18 16  2  0  0  0  0
 18 21  1  0  0  0  0
 19 10  1  0  0  0  0
 20 11  1  0  0  0  0
 21  4  2  0  0  0  0
 22 23  1  0  0  0  0
 24 27  1  0  0  0  0
 25 26  1  0  0  0  0
 26 27  2  0  0  0  0
 26 23  1  0  0  0  0
 27 32  1  0  0  0  0
 28 29  1  0  0  0  0
 28 25  2  0  0  0  0
 29 24  2  0  0  0  0
 30 31  1  0  0  0  0
 31 36  2  0  0  0  0
 32 30  2  0  0  0  0
 32 34  1  0  0  0  0
 33 30  1  0  0  0  0
 34 35  2  0  0  0  0
 35 36  1  0  0  0  0
M  END
>  <MODEL>
1

>  <REMARK>
 VINA RESULT:      -8.6      0.000      0.000
  Name = 
  4 active torsions:
  status: ('A' for Active; 'I' for Inactive)
    1  A    between atoms: C_5  and  N_14
    2  A    between atoms: C_5  and  C_19
    3  A    between atoms: C_10  and  C_26
    4  A    between atoms: N_14  and  C_16
                            x       y       z     vdW  Elec       q    Type
                         _______ _______ _______ _____ _____    ______ ____

>  <TORSDO>
F 4

$$$$
=
 OpenBabel11072408433D

 36 41  0  0  1  0  0  0  0  0999 V2000
  193.7610  173.7580  143.6750 N   0  0  0  0  0  0  0  0  0  0  0  0
  192.0750  175.5450  145.4320 N   0  0  0  0  0  0  0  0  0  0  0  0
  189.8730  174.5020  147.0090 N   0  0  0  0  0  2  0  0  0  0  0  0
  195.4410  175.4930  143.7500 C   0  0  0  0  0  3  0  0  0  0  0  0
  188.6630  174.5100  147.8140 C   0  0  0  0  0  1  0  0  0  0  0  0
  194.1550  175.0660  144.1030 C   0  0  0  0  0  0  0  0  0  0  0  0
  190.1260  173.6130  142.8260 C   0  0  0  0  0  0  0  0  0  0  0  0
  191.3570  174.2230  143.4970 C   0  0  2  0  0  3  0  0  0  0  0  0
  188.6030  175.4350  143.6020 C   0  0  1  0  0  3  0  0  0  0  0  0
  191.2780  171.5470  142.2210 C   0  0  0  0  0  3  0  0  0  0  0  0
  189.8650  174.7620  145.6030 C   0  0  0  0  0  0  0  0  0  0  0  0
  192.4480  171.9970  142.9000 N   0  0  0  0  0  2  0  0  0  0  0  0
  192.5670  173.3190  143.4290 C   0  0  0  0  0  0  0  0  0  0  0  0
  188.9380  174.2160  142.8040 C   0  0  0  0  0  3  0  0  0  0  0  0
  188.7510  175.1160  145.0210 N   0  0  0  0  0  0  0  0  0  0  0  0
  193.8940  177.1260  145.3500 C   0  0  0  0  0  3  0  0  0  0  0  0
  193.3660  175.9030  144.9240 C   0  0  0  0  0  0  0  0  0  0  0  0
  195.1720  177.5150  144.9530 C   0  0  0  0  0  3  0  0  0  0  0  0
  190.1920  172.3060  142.1600 C   0  0  0  0  0  3  0  0  0  0  0  0
  191.1630  174.7950  144.8910 C   0  0  0  0  0  0  0  0  0  0  0  0
  195.9150  176.6960  144.1660 N   0  0  0  0  0  0  0  0  0  0  0  0
  189.3960  176.6850  143.2160 C   0  0  0  0  0  2  0  0  0  0  0  0
  188.5060  177.8290  143.0650 N   0  0  0  0  0  2  0  0  0  0  0  0
  184.9610  177.9870  141.8740 C   0  0  0  0  0  3  0  0  0  0  0  0
  187.5240  177.7100  140.8130 C   0  0  0  0  0  3  0  0  0  0  0  0
  187.3610  177.8130  142.2040 C   0  0  0  0  0  0  0  0  0  0  0  0
  186.0620  177.9430  142.7430 C   0  0  0  0  0  0  0  0  0  0  0  0
  186.4200  177.7390  139.9620 C   0  0  0  0  0  3  0  0  0  0  0  0
  185.1370  177.8830  140.4930 C   0  0  0  0  0  3  0  0  0  0  0  0
  185.6930  179.3030  144.8310 C   0  0  0  0  0  0  0  0  0  0  0  0
  185.4730  179.3700  146.2110 C   0  0  0  0  0  3  0  0  0  0  0  0
  185.8260  178.0510  144.1970 C   0  0  0  0  0  0  0  0  0  0  0  0
  185.8160  180.4570  144.1280 F   0  0  0  0  0  0  0  0  0  0  0  0
  185.7590  176.8830  144.9700 C   0  0  0  0  0  3  0  0  0  0  0  0
  185.5400  176.9540  146.3480 C   0  0  0  0  0  3  0  0  0  0  0  0
  185.3910  178.1980  146.9670 C   0  0  0  0  0  3  0  0  0  0  0  0
  1  6  1  0  0  0  0
  3  5  1  0  0  0  0
  4  6  2  0  0  0  0
  4 21  1  0  0  0  0
  6 17  1  0  0  0  0
  8  7  1  1  0  0  0
  8 20  1  0  0  0  0
  9 22  1  6  0  0  0
  9 15  1  0  0  0  0
 10 12  1  0  0  0  0
 11  3  1  0  0  0  0
 12 13  1  0  0  0  0
 13  8  1  0  0  0  0
 13  1  2  0  0  0  0
 14  7  2  0  0  0  0
 14  9  1  0  0  0  0
 15 11  2  0  0  0  0
 17 16  2  0  0  0  0
 17  2  1  0  0  0  0
 18 16  1  0  0  0  0
 19 10  2  0  0  0  0
 19  7  1  0  0  0  0
 20  2  2  0  0  0  0
 20 11  1  0  0  0  0
 21 18  2  0  0  0  0
 23 22  1  0  0  0  0
 24 27  1  0  0  0  0
 25 26  1  0  0  0  0
 26 27  2  0  0  0  0
 26 23  1  0  0  0  0
 27 32  1  0  0  0  0
 28 29  1  0  0  0  0
 28 25  2  0  0  0  0
 29 24  2  0  0  0  0
 30 31  1  0  0  0  0
 31 36  2  0  0  0  0
 32 30  2  0  0  0  0
 32 34  1  0  0  0  0
 33 30  1  0  0  0  0
 34 35  2  0  0  0  0
 35 36  1  0  0  0  0
M  END
>  <MODEL>
2

>  <REMARK>
 VINA RESULT:      -8.1      1.745      4.370
  Name = 
  4 active torsions:
  status: ('A' for Active; 'I' for Inactive)
    1  A    between atoms: C_5  and  N_14
    2  A    between atoms: C_5  and  C_19
    3  A    between atoms: C_10  and  C_26
    4  A    between atoms: N_14  and  C_16
                            x       y       z     vdW  Elec       q    Type
                         _______ _______ _______ _____ _____    ______ ____

>  <TORSDO>
F 4

$$$$
=
 OpenBabel11072408433D

 36 41  0  0  1  0  0  0  0  0999 V2000
  187.9620  175.6710  140.7060 N   0  0  0  0  0  0  0  0  0  0  0  0
  190.4720  175.7490  142.3850 N   0  0  0  0  0  0  0  0  0  0  0  0
  193.0710  175.0750  141.2820 N   0  0  0  0  0  2  0  0  0  0  0  0
  186.9670  177.1200  142.3640 C   0  0  0  0  0  3  0  0  0  0  0  0
  194.4790  174.7150  141.2600 C   0  0  0  0  0  1  0  0  0  0  0  0
  188.0720  176.3650  141.9540 C   0  0  0  0  0  0  0  0  0  0  0  0
  189.7640  172.3990  140.7740 C   0  0  0  0  0  0  0  0  0  0  0  0
  189.4620  173.8120  141.2740 C   0  0  2  0  0  3  0  0  0  0  0  0
  191.4400  171.9500  142.5710 C   0  0  1  0  0  3  0  0  0  0  0  0
  188.4530  172.6660  138.7320 C   0  0  0  0  0  3  0  0  0  0  0  0
  192.0460  174.1560  141.6710 C   0  0  0  0  0  0  0  0  0  0  0  0
  188.1920  174.0250  139.0740 N   0  0  0  0  0  0  0  0  0  0  0  0
  188.5620  174.5830  140.3360 C   0  0  0  0  0  0  0  0  0  0  0  0
  190.5710  171.5580  141.4200 C   0  0  0  0  0  2  0  0  0  0  0  0
  192.3780  172.9750  142.1170 N   0  0  0  0  0  0  0  0  0  0  0  0
  189.2620  177.1840  143.8980 C   0  0  0  0  0  3  0  0  0  0  0  0
  189.2460  176.4010  142.7400 C   0  0  0  0  0  0  0  0  0  0  0  0
  188.1280  177.9010  144.2750 C   0  0  0  0  0  3  0  0  0  0  0  0
  189.1690  171.8890  139.5330 C   0  0  0  0  0  3  0  0  0  0  0  0
  190.6500  174.6470  141.7210 C   0  0  0  0  0  0  0  0  0  0  0  0
  187.0110  177.8550  143.5050 N   0  0  0  0  0  0  0  0  0  0  0  0
  190.6770  172.3910  143.8210 C   0  0  0  0  0  2  0  0  0  0  0  0
  191.5360  173.1830  144.6920 N   0  0  0  0  0  2  0  0  0  0  0  0
  191.2970  176.2170  146.8730 C   0  0  0  0  0  3  0  0  0  0  0  0
  189.6920  174.0940  146.0410 C   0  0  0  0  0  3  0  0  0  0  0  0
  191.0240  174.1650  145.6020 C   0  0  0  0  0  0  0  0  0  0  0  0
  191.8410  175.2340  146.0320 C   0  0  0  0  0  0  0  0  0  0  0  0
  189.1690  175.0690  146.8900 C   0  0  0  0  0  3  0  0  0  0  0  0
  189.9710  176.1340  147.3020 C   0  0  0  0  0  3  0  0  0  0  0  0
  193.6520  176.3260  144.6620 C   0  0  0  0  0  0  0  0  0  0  0  0
  194.9950  176.4160  144.2810 C   0  0  0  0  0  3  0  0  0  0  0  0
  193.2500  175.3600  145.6080 C   0  0  0  0  0  0  0  0  0  0  0  0
  192.7460  177.1500  144.0790 F   0  0  0  0  0  0  0  0  0  0  0  0
  194.2070  174.4820  146.1380 C   0  0  0  0  0  3  0  0  0  0  0  0
  195.5470  174.5760  145.7540 C   0  0  0  0  0  3  0  0  0  0  0  0
  195.9420  175.5470  144.8290 C   0  0  0  0  0  3  0  0  0  0  0  0
  1  6  1  0  0  0  0
  2 17  1  0  0  0  0
  3 11  1  0  0  0  0
  4 21  1  0  0  0  0
  5  3  1  0  0  0  0
  6  4  2  0  0  0  0
  6 17  1  0  0  0  0
  7  8  1  0  0  0  0
  7 14  1  0  0  0  0
  8 13  1  6  0  0  0
  8 20  1  0  0  0  0
  9 22  1  1  0  0  0
 10 12  2  0  0  0  0
 10 19  1  0  0  0  0
 11 20  1  0  0  0  0
 11 15  2  0  0  0  0
 12 13  1  0  0  0  0
 13  1  2  0  0  0  0
 14  9  1  0  0  0  0
 15  9  1  0  0  0  0
 16 18  1  0  0  0  0
 17 16  2  0  0  0  0
 19  7  2  0  0  0  0
 20  2  2  0  0  0  0
 21 18  2  0  0  0  0
 22 23  1  0  0  0  0
 23 26  1  0  0  0  0
 24 29  1  0  0  0  0
 25 28  1  0  0  0  0
 26 27  1  0  0  0  0
 26 25  2  0  0  0  0
 27 24  2  0  0  0  0
 28 29  2  0  0  0  0
 30 32  1  0  0  0  0
 31 30  2  0  0  0  0
 31 36  1  0  0  0  0
 32 27  1  0  0  0  0
 32 34  2  0  0  0  0
 33 30  1  0  0  0  0
 35 34  1  0  0  0  0
 36 35  2  0  0  0  0
M  END
>  <MODEL>
3

>  <REMARK>
 VINA RESULT:      -7.7      2.387      6.438
  Name = 
  4 active torsions:
  status: ('A' for Active; 'I' for Inactive)
    1  A    between atoms: C_5  and  N_14
    2  A    between atoms: C_5  and  C_19
    3  A    between atoms: C_10  and  C_26
    4  A    between atoms: N_14  and  C_16
                            x       y       z     vdW  Elec       q    Type
                         _______ _______ _______ _____ _____    ______ ____

>  <TORSDO>
F 4

$$$$
=
 OpenBabel11072408433D

 36 41  0  0  1  0  0  0  0  0999 V2000
  192.5120  173.5660  139.5480 N   0  0  0  0  0  0  0  0  0  0  0  0
  192.0190  174.3400  142.4260 N   0  0  0  0  0  0  0  0  0  0  0  0
  190.4620  172.6660  144.2140 N   0  0  0  0  0  2  0  0  0  0  0  0
  194.3780  175.1010  139.5940 C   0  0  0  0  0  3  0  0  0  0  0  0
  189.6910  172.2910  145.3880 C   0  0  0  0  0  1  0  0  0  0  0  0
  193.2800  174.5430  140.2600 C   0  0  0  0  0  0  0  0  0  0  0  0
  188.8790  173.7750  140.3920 C   0  0  0  0  0  0  0  0  0  0  0  0
  190.3650  174.0310  140.6440 C   0  0  2  0  0  3  0  0  0  0  0  0
  188.1540  175.0260  142.4290 C   0  0  1  0  0  3  0  0  0  0  0  0
  189.2910  172.2240  138.5520 C   0  0  0  0  0  3  0  0  0  0  0  0
  189.9510  173.5360  143.2010 C   0  0  0  0  0  0  0  0  0  0  0  0
  190.6960  172.3320  138.7720 N   0  0  0  0  0  0  0  0  0  0  0  0
  191.2580  173.2720  139.6900 C   0  0  0  0  0  0  0  0  0  0  0  0
  187.9130  174.3070  141.1410 C   0  0  0  0  0  2  0  0  0  0  0  0
  188.7860  174.1000  143.3670 N   0  0  0  0  0  0  0  0  0  0  0  0
  193.9200  175.8090  142.2230 C   0  0  0  0  0  3  0  0  0  0  0  0
  193.0490  174.9060  141.6060 C   0  0  0  0  0  0  0  0  0  0  0  0
  194.9870  176.3520  141.5100 C   0  0  0  0  0  3  0  0  0  0  0  0
  188.4320  172.9140  139.2900 C   0  0  0  0  0  3  0  0  0  0  0  0
  190.8450  173.9050  142.0800 C   0  0  0  0  0  0  0  0  0  0  0  0
  195.1930  175.9900  140.2180 N   0  0  0  0  0  0  0  0  0  0  0  0
  188.9490  176.3260  142.2920 C   0  0  0  0  0  2  0  0  0  0  0  0
  188.1020  177.4770  142.5760 N   0  0  0  0  0  2  0  0  0  0  0  0
  184.4740  178.2290  142.0400 C   0  0  0  0  0  3  0  0  0  0  0  0
  186.7510  177.6690  140.5300 C   0  0  0  0  0  3  0  0  0  0  0  0
  186.8400  177.6890  141.9320 C   0  0  0  0  0  0  0  0  0  0  0  0
  185.6860  177.9630  142.6970 C   0  0  0  0  0  0  0  0  0  0  0  0
  185.5370  177.9200  139.8900 C   0  0  0  0  0  3  0  0  0  0  0  0
  184.3990  178.2050  140.6460 C   0  0  0  0  0  3  0  0  0  0  0  0
  185.6370  179.2080  144.8870 C   0  0  0  0  0  0  0  0  0  0  0  0
  185.6720  179.2010  146.2860 C   0  0  0  0  0  3  0  0  0  0  0  0
  185.7160  177.9940  144.1740 C   0  0  0  0  0  0  0  0  0  0  0  0
  185.5690  180.3960  144.2360 F   0  0  0  0  0  0  0  0  0  0  0  0
  185.8530  176.7920  144.8830 C   0  0  0  0  0  3  0  0  0  0  0  0
  185.8880  176.7900  146.2800 C   0  0  0  0  0  3  0  0  0  0  0  0
  185.7920  177.9950  146.9810 C   0  0  0  0  0  3  0  0  0  0  0  0
  1 13  2  0  0  0  0
  1  6  1  0  0  0  0
  3  5  1  0  0  0  0
  4 21  2  0  0  0  0
  4  6  1  0  0  0  0
  6 17  2  0  0  0  0
  7  8  1  0  0  0  0
  7 14  1  0  0  0  0
  8 13  1  6  0  0  0
  8 20  1  0  0  0  0
  9 22  1  6  0  0  0
  9 15  1  0  0  0  0
 10 12  2  0  0  0  0
 10 19  1  0  0  0  0
 11 15  2  0  0  0  0
 11  3  1  0  0  0  0
 12 13  1  0  0  0  0
 14  9  1  0  0  0  0
 17 16  1  0  0  0  0
 17  2  1  0  0  0  0
 18 16  2  0  0  0  0
 19  7  2  0  0  0  0
 20  2  2  0  0  0  0
 20 11  1  0  0  0  0
 21 18  1  0  0  0  0
 22 23  1  0  0  0  0
 24 27  1  0  0  0  0
 25 26  1  0  0  0  0
 26 23  1  0  0  0  0
 26 27  2  0  0  0  0
 27 32  1  0  0  0  0
 28 25  2  0  0  0  0
 28 29  1  0  0  0  0
 29 24  2  0  0  0  0
 30 31  1  0  0  0  0
 31 36  2  0  0  0  0
 32 34  1  0  0  0  0
 32 30  2  0  0  0  0
 33 30  1  0  0  0  0
 34 35  2  0  0  0  0
 35 36  1  0  0  0  0
M  END
>  <MODEL>
4

>  <REMARK>
 VINA RESULT:      -7.7      1.921      4.484
  Name = 
  4 active torsions:
  status: ('A' for Active; 'I' for Inactive)
    1  A    between atoms: C_5  and  N_14
    2  A    between atoms: C_5  and  C_19
    3  A    between atoms: C_10  and  C_26
    4  A    between atoms: N_14  and  C_16
                            x       y       z     vdW  Elec       q    Type
                         _______ _______ _______ _____ _____    ______ ____

>  <TORSDO>
F 4

$$$$
=
 OpenBabel11072408433D

 36 41  0  0  1  0  0  0  0  0999 V2000
  194.9790  172.9150  145.7040 N   0  0  0  0  0  0  0  0  0  0  0  0
  193.9960  172.5320  142.8730 N   0  0  0  0  0  0  0  0  0  0  0  0
  194.6340  174.4200  140.7640 N   0  0  0  0  0  2  0  0  0  0  0  0
  194.5730  170.5550  146.0240 C   0  0  0  0  0  3  0  0  0  0  0  0
  194.5490  175.0910  139.4770 C   0  0  0  0  0  1  0  0  0  0  0  0
  194.4960  171.6720  145.1830 C   0  0  0  0  0  0  0  0  0  0  0  0
  192.9760  175.8130  144.4600 C   0  0  0  0  0  0  0  0  0  0  0  0
  193.4850  174.3720  144.4100 C   0  0  2  0  0  3  0  0  0  0  0  0
  191.4820  175.5210  142.4780 C   0  0  1  0  0  3  0  0  0  0  0  0
  194.5690  176.4900  146.1810 C   0  0  0  0  0  3  0  0  0  0  0  0
  193.6490  174.5870  141.7870 C   0  0  0  0  0  0  0  0  0  0  0  0
  195.1670  175.1960  146.1400 N   0  0  0  0  0  2  0  0  0  0  0  0
  194.6090  174.1160  145.3870 C   0  0  0  0  0  0  0  0  0  0  0  0
  192.0170  176.2720  143.6550 C   0  0  0  0  0  3  0  0  0  0  0  0
  192.5780  175.2900  141.5380 N   0  0  0  0  0  0  0  0  0  0  0  0
  193.6690  170.2110  143.4380 C   0  0  0  0  0  3  0  0  0  0  0  0
  194.0350  171.4920  143.8590 C   0  0  0  0  0  0  0  0  0  0  0  0
  193.7440  169.1350  144.3200 C   0  0  0  0  0  3  0  0  0  0  0  0
  193.5270  176.7820  145.4150 C   0  0  0  0  0  3  0  0  0  0  0  0
  193.7990  173.8050  143.0360 C   0  0  0  0  0  0  0  0  0  0  0  0
  194.1910  169.3270  145.5870 N   0  0  0  0  0  0  0  0  0  0  0  0
  190.7520  174.2240  142.8300 C   0  0  0  0  0  2  0  0  0  0  0  0
  189.4030  174.5070  143.3000 N   0  0  0  0  0  2  0  0  0  0  0  0
  187.9300  176.3900  146.1810 C   0  0  0  0  0  3  0  0  0  0  0  0
  189.6910  174.2760  145.7320 C   0  0  0  0  0  3  0  0  0  0  0  0
  189.1220  174.9440  144.6350 C   0  0  0  0  0  0  0  0  0  0  0  0
  188.2380  176.0220  144.8620 C   0  0  0  0  0  0  0  0  0  0  0  0
  189.3890  174.6640  147.0370 C   0  0  0  0  0  3  0  0  0  0  0  0
  188.5040  175.7190  147.2620 C   0  0  0  0  0  3  0  0  0  0  0  0
  188.3040  177.7770  143.0560 C   0  0  0  0  0  0  0  0  0  0  0  0
  187.6780  178.4640  142.0090 C   0  0  0  0  0  3  0  0  0  0  0  0
  187.6100  176.7650  143.7500 C   0  0  0  0  0  0  0  0  0  0  0  0
  189.5640  178.1300  143.4130 F   0  0  0  0  0  0  0  0  0  0  0  0
  186.2840  176.4770  143.3940 C   0  0  0  0  0  3  0  0  0  0  0  0
  185.6630  177.1650  142.3490 C   0  0  0  0  0  3  0  0  0  0  0  0
  186.3630  178.1550  141.6530 C   0  0  0  0  0  3  0  0  0  0  0  0
  2 20  2  0  0  0  0
  2 17  1  0  0  0  0
  3 11  1  0  0  0  0
  5  3  1  0  0  0  0
  6  1  1  0  0  0  0
  6  4  2  0  0  0  0
  7 19  1  0  0  0  0
  8 20  1  6  0  0  0
  8  7  1  0  0  0  0
  8 13  1  0  0  0  0
  9 22  1  1  0  0  0
  9 14  1  0  0  0  0
 11 20  1  0  0  0  0
 12 10  1  0  0  0  0
 13  1  2  0  0  0  0
 13 12  1  0  0  0  0
 14  7  2  0  0  0  0
 15 11  2  0  0  0  0
 15  9  1  0  0  0  0
 16 17  2  0  0  0  0
 16 18  1  0  0  0  0
 17  6  1  0  0  0  0
 18 21  2  0  0  0  0
 19 10  2  0  0  0  0
 21  4  1  0  0  0  0
 22 23  1  0  0  0  0
 23 26  1  0  0  0  0
 24 29  1  0  0  0  0
 25 28  1  0  0  0  0
 26 27  1  0  0  0  0
 26 25  2  0  0  0  0
 27 24  2  0  0  0  0
 28 29  2  0  0  0  0
 30 33  1  0  0  0  0
 30 32  1  0  0  0  0
 31 30  2  0  0  0  0
 32 27  1  0  0  0  0
 34 32  2  0  0  0  0
 35 34  1  0  0  0  0
 36 31  1  0  0  0  0
 36 35  2  0  0  0  0
M  END
>  <MODEL>
5

>  <REMARK>
 VINA RESULT:      -7.6      3.075      5.005
  Name = 
  4 active torsions:
  status: ('A' for Active; 'I' for Inactive)
    1  A    between atoms: C_5  and  N_14
    2  A    between atoms: C_5  and  C_19
    3  A    between atoms: C_10  and  C_26
    4  A    between atoms: N_14  and  C_16
                            x       y       z     vdW  Elec       q    Type
                         _______ _______ _______ _____ _____    ______ ____

>  <TORSDO>
F 4

$$$$
=
 OpenBabel11072408433D

 36 41  0  0  1  0  0  0  0  0999 V2000
  195.5130  175.8030  143.2950 N   0  0  0  0  0  0  0  0  0  0  0  0
  193.2640  174.0910  144.3620 N   0  0  0  0  0  0  0  0  0  0  0  0
  192.8960  171.3430  143.5060 N   0  0  0  0  0  2  0  0  0  0  0  0
  195.1930  177.2020  145.2380 C   0  0  0  0  0  3  0  0  0  0  0  0
  192.2330  170.0640  143.3090 C   0  0  0  0  0  1  0  0  0  0  0  0
  194.7760  176.0970  144.4860 C   0  0  0  0  0  0  0  0  0  0  0  0
  193.3070  174.4580  140.5950 C   0  0  0  0  0  0  0  0  0  0  0  0
  193.6550  174.7940  142.0470 C   0  0  2  0  0  3  0  0  0  0  0  0
  191.0280  173.6110  141.1710 C   0  0  1  0  0  3  0  0  0  0  0  0
  195.5670  174.8950  139.7810 C   0  0  0  0  0  3  0  0  0  0  0  0
  192.5390  172.5170  142.7730 C   0  0  0  0  0  0  0  0  0  0  0  0
  196.0040  175.1390  141.1160 N   0  0  0  0  0  2  0  0  0  0  0  0
  195.0970  175.2110  142.2190 C   0  0  0  0  0  0  0  0  0  0  0  0
  192.1040  174.0270  140.2190 C   0  0  0  0  0  3  0  0  0  0  0  0
  191.5180  172.4830  141.9610 N   0  0  0  0  0  0  0  0  0  0  0  0
  193.1340  175.6380  146.2070 C   0  0  0  0  0  3  0  0  0  0  0  0
  193.7230  175.2970  144.9850 C   0  0  0  0  0  0  0  0  0  0  0  0
  193.5720  176.7600  146.9070 C   0  0  0  0  0  3  0  0  0  0  0  0
  194.3000  174.5990  139.5240 C   0  0  0  0  0  3  0  0  0  0  0  0
  193.2350  173.7830  143.1010 C   0  0  0  0  0  0  0  0  0  0  0  0
  194.5860  177.5150  146.4120 N   0  0  0  0  0  0  0  0  0  0  0  0
  190.4950  174.7370  142.0590 C   0  0  0  0  0  2  0  0  0  0  0  0
  189.4180  174.2510  142.9100 N   0  0  0  0  0  2  0  0  0  0  0  0
  188.2630  176.1340  145.9330 C   0  0  0  0  0  3  0  0  0  0  0  0
  189.8640  173.9380  145.3090 C   0  0  0  0  0  3  0  0  0  0  0  0
  189.2580  174.6660  144.2720 C   0  0  0  0  0  0  0  0  0  0  0  0
  188.4550  175.7850  144.5870 C   0  0  0  0  0  0  0  0  0  0  0  0
  189.6780  174.3060  146.6410 C   0  0  0  0  0  3  0  0  0  0  0  0
  188.8730  175.4020  146.9540 C   0  0  0  0  0  3  0  0  0  0  0  0
  188.4670  177.6450  142.8880 C   0  0  0  0  0  0  0  0  0  0  0  0
  187.8100  178.3920  141.9040 C   0  0  0  0  0  3  0  0  0  0  0  0
  187.7950  176.5920  143.5420 C   0  0  0  0  0  0  0  0  0  0  0  0
  189.7380  177.9780  143.2270 F   0  0  0  0  0  0  0  0  0  0  0  0
  186.4590  176.3240  143.2090 C   0  0  0  0  0  3  0  0  0  0  0  0
  185.8060  177.0720  142.2260 C   0  0  0  0  0  3  0  0  0  0  0  0
  186.4850  178.1030  141.5700 C   0  0  0  0  0  3  0  0  0  0  0  0
  1  6  1  0  0  0  0
  2 17  1  0  0  0  0
  4 21  1  0  0  0  0
  5  3  1  0  0  0  0
  6 17  1  0  0  0  0
  6  4  2  0  0  0  0
  8  7  1  6  0  0  0
  8 13  1  0  0  0  0
  8 20  1  0  0  0  0
  9 15  1  0  0  0  0
  9 22  1  1  0  0  0
 10 12  1  0  0  0  0
 11 20  1  0  0  0  0
 11  3  1  0  0  0  0
 12 13  1  0  0  0  0
 13  1  2  0  0  0  0
 14  7  2  0  0  0  0
 14  9  1  0  0  0  0
 15 11  2  0  0  0  0
 16 18  1  0  0  0  0
 17 16  2  0  0  0  0
 19 10  2  0  0  0  0
 19  7  1  0  0  0  0
 20  2  2  0  0  0  0
 21 18  2  0  0  0  0
 22 23  1  0  0  0  0
 23 26  1  0  0  0  0
 24 29  1  0  0  0  0
 25 28  1  0  0  0  0
 26 27  1  0  0  0  0
 26 25  2  0  0  0  0
 27 24  2  0  0  0  0
 28 29  2  0  0  0  0
 30 33  1  0  0  0  0
 30 32  1  0  0  0  0
 31 30  2  0  0  0  0
 32 27  1  0  0  0  0
 34 32  2  0  0  0  0
 35 34  1  0  0  0  0
 36 31  1  0  0  0  0
 36 35  2  0  0  0  0
M  END
>  <MODEL>
6

>  <REMARK>
 VINA RESULT:      -7.5      2.450      6.072
  Name = 
  4 active torsions:
  status: ('A' for Active; 'I' for Inactive)
    1  A    between atoms: C_5  and  N_14
    2  A    between atoms: C_5  and  C_19
    3  A    between atoms: C_10  and  C_26
    4  A    between atoms: N_14  and  C_16
                            x       y       z     vdW  Elec       q    Type
                         _______ _______ _______ _____ _____    ______ ____

>  <TORSDO>
F 4

$$$$
=
 OpenBabel11072408433D

 36 41  0  0  1  0  0  0  0  0999 V2000
  195.3230  172.5050  144.5670 N   0  0  0  0  0  0  0  0  0  0  0  0
  192.7390  171.7200  143.2160 N   0  0  0  0  0  0  0  0  0  0  0  0
  191.8230  173.0250  140.7910 N   0  0  0  0  0  2  0  0  0  0  0  0
  195.2560  170.3490  145.6550 C   0  0  0  0  0  3  0  0  0  0  0  0
  190.9110  173.4290  139.7340 C   0  0  0  0  0  1  0  0  0  0  0  0
  194.6350  171.2730  144.8060 C   0  0  0  0  0  0  0  0  0  0  0  0
  192.9530  175.3690  144.1940 C   0  0  0  0  0  0  0  0  0  0  0  0
  193.3270  173.8860  144.1990 C   0  0  2  0  0  3  0  0  0  0  0  0
  190.5330  174.9200  143.7630 C   0  0  1  0  0  3  0  0  0  0  0  0
  195.2740  176.1230  144.2740 C   0  0  0  0  0  3  0  0  0  0  0  0
  191.7400  173.5440  142.1210 C   0  0  0  0  0  0  0  0  0  0  0  0
  195.7190  174.7700  144.1910 N   0  0  0  0  0  2  0  0  0  0  0  0
  194.8200  173.6610  144.2660 C   0  0  0  0  0  0  0  0  0  0  0  0
  191.6960  175.8000  144.0960 C   0  0  0  0  0  3  0  0  0  0  0  0
  190.7550  174.3390  142.4400 N   0  0  0  0  0  0  0  0  0  0  0  0
  192.8910  169.6370  144.4220 C   0  0  0  0  0  3  0  0  0  0  0  0
  193.4250  170.9050  144.1750 C   0  0  0  0  0  0  0  0  0  0  0  0
  193.5370  168.7610  145.2920 C   0  0  0  0  0  3  0  0  0  0  0  0
  193.9800  176.4130  144.2990 C   0  0  0  0  0  3  0  0  0  0  0  0
  192.6780  173.0140  143.1370 C   0  0  0  0  0  0  0  0  0  0  0  0
  194.6990  169.1330  145.8870 N   0  0  0  0  0  0  0  0  0  0  0  0
  190.2270  173.8490  144.8100 C   0  0  0  0  0  2  0  0  0  0  0  0
  189.4620  174.4140  145.9130 N   0  0  0  0  0  2  0  0  0  0  0  0
  189.7100  177.7290  147.6360 C   0  0  0  0  0  3  0  0  0  0  0  0
  191.1080  175.3200  147.5000 C   0  0  0  0  0  3  0  0  0  0  0  0
  189.9490  175.4900  146.7250 C   0  0  0  0  0  0  0  0  0  0  0  0
  189.2470  176.7130  146.7850 C   0  0  0  0  0  0  0  0  0  0  0  0
  191.5670  176.3440  148.3290 C   0  0  0  0  0  3  0  0  0  0  0  0
  190.8640  177.5480  148.4000 C   0  0  0  0  0  3  0  0  0  0  0  0
  188.0780  177.5560  144.7180 C   0  0  0  0  0  0  0  0  0  0  0  0
  186.9000  177.7700  143.9940 C   0  0  0  0  0  3  0  0  0  0  0  0
  188.0240  176.9520  145.9910 C   0  0  0  0  0  0  0  0  0  0  0  0
  189.2570  177.9730  144.1930 F   0  0  0  0  0  0  0  0  0  0  0  0
  186.7780  176.5960  146.5270 C   0  0  0  0  0  3  0  0  0  0  0  0
  185.6040  176.8130  145.8000 C   0  0  0  0  0  3  0  0  0  0  0  0
  185.6660  177.3950  144.5310 C   0  0  0  0  0  3  0  0  0  0  0  0
  1  6  1  0  0  0  0
  2 17  1  0  0  0  0
  3 11  1  0  0  0  0
  4 21  1  0  0  0  0
  5  3  1  0  0  0  0
  6  4  2  0  0  0  0
  7  8  1  0  0  0  0
  7 19  1  0  0  0  0
  8 20  1  6  0  0  0
  8 13  1  0  0  0  0
  9 14  1  0  0  0  0
  9 22  1  1  0  0  0
 10 19  2  0  0  0  0
 11 15  2  0  0  0  0
 11 20  1  0  0  0  0
 12 13  1  0  0  0  0
 12 10  1  0  0  0  0
 13  1  2  0  0  0  0
 14  7  2  0  0  0  0
 15  9  1  0  0  0  0
 16 18  1  0  0  0  0
 17 16  2  0  0  0  0
 17  6  1  0  0  0  0
 18 21  2  0  0  0  0
 20  2  2  0  0  0  0
 22 23  1  0  0  0  0
 23 26  1  0  0  0  0
 24 29  1  0  0  0  0
 25 28  1  0  0  0  0
 26 27  1  0  0  0  0
 26 25  2  0  0  0  0
 27 24  2  0  0  0  0
 28 29  2  0  0  0  0
 30 32  1  0  0  0  0
 31 36  1  0  0  0  0
 31 30  2  0  0  0  0
 32 34  2  0  0  0  0
 32 27  1  0  0  0  0
 33 30  1  0  0  0  0
 35 34  1  0  0  0  0
 36 35  2  0  0  0  0
M  END
>  <MODEL>
7

>  <REMARK>
 VINA RESULT:      -7.5      2.987      5.476
  Name = 
  4 active torsions:
  status: ('A' for Active; 'I' for Inactive)
    1  A    between atoms: C_5  and  N_14
    2  A    between atoms: C_5  and  C_19
    3  A    between atoms: C_10  and  C_26
    4  A    between atoms: N_14  and  C_16
                            x       y       z     vdW  Elec       q    Type
                         _______ _______ _______ _____ _____    ______ ____

>  <TORSDO>
F 4

$$$$
=
 OpenBabel11072408433D

 36 41  0  0  1  0  0  0  0  0999 V2000
  190.2590  172.9830  145.0850 N   0  0  0  0  0  0  0  0  0  0  0  0
  192.4780  174.6350  143.8730 N   0  0  0  0  0  0  0  0  0  0  0  0
  194.0560  176.4790  145.4650 N   0  0  0  0  0  2  0  0  0  0  0  0
  190.4760  171.5270  143.1690 C   0  0  0  0  0  3  0  0  0  0  0  0
  194.9700  177.5690  145.7620 C   0  0  0  0  0  1  0  0  0  0  0  0
  190.8760  172.6970  143.8260 C   0  0  0  0  0  0  0  0  0  0  0  0
  189.7780  176.6530  145.5920 C   0  0  0  0  0  0  0  0  0  0  0  0
  190.4180  175.4290  144.9370 C   0  0  2  0  0  3  0  0  0  0  0  0
  191.0290  178.2720  144.1580 C   0  0  1  0  0  3  0  0  0  0  0  0
  188.6870  175.3490  147.3440 C   0  0  0  0  0  3  0  0  0  0  0  0
  192.7300  176.6960  144.9750 C   0  0  0  0  0  0  0  0  0  0  0  0
  189.3130  174.1650  146.8560 N   0  0  0  0  0  2  0  0  0  0  0  0
  190.0610  174.1380  145.6380 C   0  0  0  0  0  0  0  0  0  0  0  0
  189.9900  177.8980  145.1660 C   0  0  0  0  0  3  0  0  0  0  0  0
  192.3420  177.9080  144.6880 N   0  0  0  0  0  0  0  0  0  0  0  0
  192.5010  173.0430  142.0620 C   0  0  0  0  0  3  0  0  0  0  0  0
  191.9150  173.4700  143.2570 C   0  0  0  0  0  0  0  0  0  0  0  0
  192.0520  171.8810  141.4370 C   0  0  0  0  0  3  0  0  0  0  0  0
  188.8800  176.5170  146.7450 C   0  0  0  0  0  3  0  0  0  0  0  0
  191.9060  175.5110  144.6410 C   0  0  0  0  0  0  0  0  0  0  0  0
  191.0550  171.1510  142.0000 N   0  0  0  0  0  0  0  0  0  0  0  0
  190.7990  177.6900  142.7620 C   0  0  0  0  0  2  0  0  0  0  0  0
  189.3740  177.6020  142.4720 N   0  0  0  0  0  2  0  0  0  0  0  0
  186.7120  174.9700  142.4240 C   0  0  0  0  0  3  0  0  0  0  0  0
  189.3460  175.3120  141.5740 C   0  0  0  0  0  3  0  0  0  0  0  0
  188.7010  176.3550  142.2600 C   0  0  0  0  0  0  0  0  0  0  0  0
  187.3710  176.1780  142.7000 C   0  0  0  0  0  0  0  0  0  0  0  0
  188.6840  174.1110  141.3210 C   0  0  0  0  0  3  0  0  0  0  0  0
  187.3650  173.9410  141.7420 C   0  0  0  0  0  3  0  0  0  0  0  0
  186.2470  178.4320  142.7940 C   0  0  0  0  0  0  0  0  0  0  0  0
  185.5600  179.4140  143.5150 C   0  0  0  0  0  3  0  0  0  0  0  0
  186.6410  177.2360  143.4290 C   0  0  0  0  0  0  0  0  0  0  0  0
  186.5600  178.6670  141.4950 F   0  0  0  0  0  0  0  0  0  0  0  0
  186.3570  177.0600  144.7910 C   0  0  0  0  0  3  0  0  0  0  0  0
  185.6720  178.0440  145.5070 C   0  0  0  0  0  3  0  0  0  0  0  0
  185.2680  179.2190  144.8670 C   0  0  0  0  0  3  0  0  0  0  0  0
  1 13  2  0  0  0  0
  2 20  2  0  0  0  0
  3  5  1  0  0  0  0
  4  6  1  0  0  0  0
  6  1  1  0  0  0  0
  7 19  1  0  0  0  0
  8 20  1  1  0  0  0
  8  7  1  0  0  0  0
  8 13  1  0  0  0  0
  9 22  1  6  0  0  0
  9 15  1  0  0  0  0
  9 14  1  0  0  0  0
 11  3  1  0  0  0  0
 12 10  1  0  0  0  0
 13 12  1  0  0  0  0
 14  7  2  0  0  0  0
 15 11  2  0  0  0  0
 16 17  1  0  0  0  0
 17  6  2  0  0  0  0
 17  2  1  0  0  0  0
 18 21  1  0  0  0  0
 18 16  2  0  0  0  0
 19 10  2  0  0  0  0
 20 11  1  0  0  0  0
 21  4  2  0  0  0  0
 23 22  1  0  0  0  0
 24 27  1  0  0  0  0
 25 26  1  0  0  0  0
 26 23  1  0  0  0  0
 26 27  2  0  0  0  0
 27 32  1  0  0  0  0
 28 25  2  0  0  0  0
 28 29  1  0  0  0  0
 29 24  2  0  0  0  0
 30 32  2  0  0  0  0
 30 31  1  0  0  0  0
 31 36  2  0  0  0  0
 32 34  1  0  0  0  0
 33 30  1  0  0  0  0
 34 35  2  0  0  0  0
 36 35  1  0  0  0  0
M  END
>  <MODEL>
8

>  <REMARK>
 VINA RESULT:      -7.5      1.777      2.359
  Name = 
  4 active torsions:
  status: ('A' for Active; 'I' for Inactive)
    1  A    between atoms: C_5  and  N_14
    2  A    between atoms: C_5  and  C_19
    3  A    between atoms: C_10  and  C_26
    4  A    between atoms: N_14  and  C_16
                            x       y       z     vdW  Elec       q    Type
                         _______ _______ _______ _____ _____    ______ ____

>  <TORSDO>
F 4

$$$$
=
 OpenBabel11072408433D

 36 41  0  0  1  0  0  0  0  0999 V2000
  192.1800  173.9190  138.4140 N   0  0  0  0  0  0  0  0  0  0  0  0
  192.7960  172.0090  140.6720 N   0  0  0  0  0  0  0  0  0  0  0  0
  191.3130  169.5400  141.0340 N   0  0  0  0  0  2  0  0  0  0  0  0
  194.3960  174.8200  138.7490 C   0  0  0  0  0  3  0  0  0  0  0  0
  190.8150  168.3460  141.6960 C   0  0  0  0  0  1  0  0  0  0  0  0
  193.4010  173.9250  139.1610 C   0  0  0  0  0  0  0  0  0  0  0  0
  189.2230  173.2530  140.5990 C   0  0  0  0  0  0  0  0  0  0  0  0
  190.7150  173.2360  140.2620 C   0  0  2  0  0  3  0  0  0  0  0  0
  189.5650  172.2990  142.8820 C   0  0  1  0  0  3  0  0  0  0  0  0
  188.5520  173.8650  138.3330 C   0  0  0  0  0  3  0  0  0  0  0  0
  190.8760  170.8550  141.3840 C   0  0  0  0  0  0  0  0  0  0  0  0
  189.9100  173.7870  137.9060 N   0  0  0  0  0  0  0  0  0  0  0  0
  190.9920  173.5980  138.8210 C   0  0  0  0  0  0  0  0  0  0  0  0
  188.7460  172.9250  141.7990 C   0  0  0  0  0  2  0  0  0  0  0  0
  190.0700  171.0150  142.3990 N   0  0  0  0  0  0  0  0  0  0  0  0
  194.9530  173.0770  140.8160 C   0  0  0  0  0  3  0  0  0  0  0  0
  193.6900  173.0320  140.2180 C   0  0  0  0  0  0  0  0  0  0  0  0
  195.9010  174.0010  140.3840 C   0  0  0  0  0  3  0  0  0  0  0  0
  188.2220  173.6400  139.5970 C   0  0  0  0  0  3  0  0  0  0  0  0
  191.4970  172.0070  140.6910 C   0  0  0  0  0  0  0  0  0  0  0  0
  195.6060  174.8490  139.3660 N   0  0  0  0  0  0  0  0  0  0  0  0
  190.6890  173.1850  143.4220 C   0  0  0  0  0  2  0  0  0  0  0  0
  190.2270  174.5570  143.5820 N   0  0  0  0  0  2  0  0  0  0  0  0
  187.8800  176.4020  145.8410 C   0  0  0  0  0  3  0  0  0  0  0  0
  189.8700  174.4570  146.0140 C   0  0  0  0  0  3  0  0  0  0  0  0
  189.5620  175.0190  144.7640 C   0  0  0  0  0  0  0  0  0  0  0  0
  188.5610  176.0120  144.6770 C   0  0  0  0  0  0  0  0  0  0  0  0
  189.1960  174.8650  147.1640 C   0  0  0  0  0  3  0  0  0  0  0  0
  188.1970  175.8350  147.0770 C   0  0  0  0  0  3  0  0  0  0  0  0
  188.9410  177.7150  142.8590 C   0  0  0  0  0  0  0  0  0  0  0  0
  188.5650  178.2910  141.6410 C   0  0  0  0  0  3  0  0  0  0  0  0
  188.1960  176.6440  143.3930 C   0  0  0  0  0  0  0  0  0  0  0  0
  190.0030  178.2280  143.5300 F   0  0  0  0  0  0  0  0  0  0  0  0
  187.0650  176.1850  142.7010 C   0  0  0  0  0  3  0  0  0  0  0  0
  186.6930  176.7650  141.4850 C   0  0  0  0  0  3  0  0  0  0  0  0
  187.4470  177.8150  140.9530 C   0  0  0  0  0  3  0  0  0  0  0  0
  1 13  2  0  0  0  0
  1  6  1  0  0  0  0
  2 20  2  0  0  0  0
  3 11  1  0  0  0  0
  3  5  1  0  0  0  0
  4  6  2  0  0  0  0
  4 21  1  0  0  0  0
  6 17  1  0  0  0  0
  7 14  1  0  0  0  0
  8 13  1  6  0  0  0
  8  7  1  0  0  0  0
  8 20  1  0  0  0  0
  9 22  1  6  0  0  0
 10 19  1  0  0  0  0
 11 15  2  0  0  0  0
 12 10  2  0  0  0  0
 12 13  1  0  0  0  0
 14  9  1  0  0  0  0
 15  9  1  0  0  0  0
 17  2  1  0  0  0  0
 17 16  2  0  0  0  0
 18 16  1  0  0  0  0
 19  7  2  0  0  0  0
 20 11  1  0  0  0  0
 21 18  2  0  0  0  0
 22 23  1  0  0  0  0
 23 26  1  0  0  0  0
 24 29  1  0  0  0  0
 25 28  1  0  0  0  0
 26 25  2  0  0  0  0
 27 26  1  0  0  0  0
 27 24  2  0  0  0  0
 29 28  2  0  0  0  0
 30 32  1  0  0  0  0
 30 33  1  0  0  0  0
 31 30  2  0  0  0  0
 32 27  1  0  0  0  0
 34 32  2  0  0  0  0
 35 34  1  0  0  0  0
 36 35  2  0  0  0  0
 36 31  1  0  0  0  0
M  END
>  <MODEL>
9

>  <REMARK>
 VINA RESULT:      -7.5      2.746      5.998
  Name = 
  4 active torsions:
  status: ('A' for Active; 'I' for Inactive)
    1  A    between atoms: C_5  and  N_14
    2  A    between atoms: C_5  and  C_19
    3  A    between atoms: C_10  and  C_26
    4  A    between atoms: N_14  and  C_16
                            x       y       z     vdW  Elec       q    Type
                         _______ _______ _______ _____ _____    ______ ____

>  <TORSDO>
F 4

$$$$
