=
 OpenBabel11062418303D

 48 53  0  0  1  0  0  0  0  0999 V2000
  193.0690  173.6470  140.3120 C   0  0  0  0  0  3  0  0  0  0  0  0
  191.9480  172.9660  140.5500 C   0  0  0  0  0  0  0  0  0  0  0  0
  194.1690  173.6150  141.2190 N   0  0  0  0  0  2  0  0  0  0  0  0
  195.0480  174.7310  141.3640 C   0  0  0  0  0  0  0  0  0  0  0  0
  194.9440  175.7250  140.5980 O   0  0  0  0  0  0  0  0  0  0  0  0
  196.3360  173.4070  142.8780 O   0  0  0  0  0  1  0  0  0  0  0  0
  196.1020  174.7100  142.4310 C   0  0  2  0  0  3  0  0  0  0  0  0
  195.7940  175.6420  143.6070 C   0  0  0  0  0  2  0  0  0  0  0  0
  191.9170  176.2090  146.1280 C   0  0  2  0  0  0  0  0  0  0  0  0
  192.7980  174.8960  143.9310 C   0  0  2  0  0  3  0  0  0  0  0  0
  191.0500  176.5960  147.3390 C   0  0  2  0  0  3  0  0  0  0  0  0
  194.3850  175.6960  145.7050 C   0  0  1  0  0  3  0  0  0  0  0  0
  190.3210  175.3060  147.6380 C   0  0  0  0  0  2  0  0  0  0  0  0
  192.1800  177.2210  144.9750 C   0  0  2  0  0  3  0  0  0  0  0  0
  191.0410  175.1320  145.4860 C   0  0  2  0  0  3  0  0  0  0  0  0
  195.4080  174.9050  144.8880 C   0  0  1  0  0  3  0  0  0  0  0  0
  191.0380  177.9620  144.6510 O   0  0  0  0  0  1  0  0  0  0  0  0
  190.1170  177.5910  147.0400 O   0  0  0  0  0  1  0  0  0  0  0  0
  190.3400  174.4590  146.6050 C   0  0  0  0  0  2  0  0  0  0  0  0
  193.9880  174.4750  144.8410 C   0  0  2  0  0  0  0  0  0  0  0  0
  193.2570  175.6570  146.7370 C   0  0  0  0  0  2  0  0  0  0  0  0
  192.6370  176.4460  143.6950 C   0  0  0  0  0  2  0  0  0  0  0  0
  191.6150  174.3100  144.4770 O   0  0  0  0  0  0  0  0  0  0  0  0
  193.8590  173.1270  145.5540 C   0  0  0  0  0  1  0  0  0  0  0  0
  191.8460  172.1730  141.6930 O   0  0  0  0  0  0  0  0  0  0  0  0
  192.1850  170.8760  141.6680 O   0  0  0  0  0  1  0  0  0  0  0  0
  190.7890  173.0700  139.5990 C   0  0  1  0  0  3  0  0  0  0  0  0
  190.8180  171.9310  138.5750 C   0  0  0  0  0  3  0  0  0  0  0  0
  189.7210  171.0790  138.7350 O   0  0  0  0  0  1  0  0  0  0  0  0
  190.8230  172.4520  137.2800 O   0  0  0  0  0  1  0  0  0  0  0  0
  189.5740  173.1010  140.2960 O   0  0  0  0  0  0  0  0  0  0  0  0
  186.8420  176.6220  142.8690 C   0  0  0  0  0  0  0  0  0  0  0  0
  189.5630  174.7060  142.0710 C   0  0  0  0  0  2  0  0  0  0  0  0
  189.2540  176.1670  142.4060 C   0  0  0  0  0  2  0  0  0  0  0  0
  189.3390  174.4490  140.5800 C   0  0  2  0  0  3  0  0  0  0  0  0
  185.9310  175.7490  142.8920 O   0  0  0  0  0  0  0  0  0  0  0  0
  187.9020  174.8010  140.1950 C   0  0  0  0  0  2  0  0  0  0  0  0
  187.9160  176.5010  141.9320 N   0  0  0  0  0  0  0  0  0  0  0  0
  187.6170  176.2600  140.5260 C   0  0  0  0  0  2  0  0  0  0  0  0
  186.7820  177.4620  145.2110 C   0  0  0  0  0  0  0  0  0  0  0  0
  185.4800  178.5580  143.4430 N   0  0  0  0  0  2  0  0  0  0  0  0
  187.5190  176.5080  145.5920 O   0  0  0  0  0  0  0  0  0  0  0  0
  186.0930  178.2740  146.1790 N   0  0  0  0  0  0  0  0  0  0  0  0
  186.7130  177.8320  143.7470 C   0  0  2  0  0  3  0  0  0  0  0  0
  185.1080  179.2680  145.7480 C   0  0  0  0  0  2  0  0  0  0  0  0
  185.3880  179.7240  144.3180 C   0  0  0  0  0  2  0  0  0  0  0  0
  187.0230  179.0480  148.3030 C   0  0  0  0  0  1  0  0  0  0  0  0
  186.1900  177.9830  147.6040 C   0  0  0  0  0  2  0  0  0  0  0  0
  1  2  2  0  0  0  0
  1  3  1  0  0  0  0
  2 25  1  0  0  0  0
  3  4  1  0  0  0  0
  4  7  1  0  0  0  0
  5  4  2  0  0  0  0
  7  6  1  1  0  0  0
  7  8  1  0  0  0  0
  9 21  1  1  0  0  0
  9 11  1  0  0  0  0
 10 22  1  1  0  0  0
 10 23  1  0  0  0  0
 10 20  1  0  0  0  0
 11 18  1  6  0  0  0
 11 13  1  0  0  0  0
 12 21  1  1  0  0  0
 14 17  1  6  0  0  0
 14  9  1  0  0  0  0
 15  9  1  0  0  0  0
 15 19  1  1  0  0  0
 16  8  1  6  0  0  0
 16 12  1  0  0  0  0
 19 13  1  0  0  0  0
 20 16  1  0  0  0  0
 20 24  1  1  0  0  0
 20 12  1  0  0  0  0
 22 14  1  0  0  0  0
 23 15  1  0  0  0  0
 26 25  1  0  0  0  0
 27 28  1  6  0  0  0
 27 31  1  0  0  0  0
 27  2  1  0  0  0  0
 28 29  1  0  0  0  0
 30 28  1  0  0  0  0
 32 36  2  0  0  0  0
 33 34  1  0  0  0  0
 35 31  1  1  0  0  0
 35 33  1  0  0  0  0
 37 39  1  0  0  0  0
 37 35  1  0  0  0  0
 38 34  1  0  0  0  0
 38 32  1  0  0  0  0
 39 38  1  0  0  0  0
 40 42  2  0  0  0  0
 40 43  1  0  0  0  0
 41 44  1  0  0  0  0
 41 46  1  0  0  0  0
 43 48  1  0  0  0  0
 44 32  1  6  0  0  0
 44 40  1  0  0  0  0
 45 43  1  0  0  0  0
 46 45  1  0  0  0  0
 48 47  1  0  0  0  0
M  END
>  <MODEL>
1

>  <REMARK>
 VINA RESULT:      -7.2      0.000      0.000
  Name = 
  11 active torsions:
  status: ('A' for Active; 'I' for Inactive)
    1  A    between atoms: C_4  and  C_8
    2  A    between atoms: C_4  and  O_27
    3  A    between atoms: C_4  and  C_33
    4  A    between atoms: C_6  and  C_32
    5  A    between atoms: C_7  and  N_19
    6  A    between atoms: O_11  and  C_33
    7  A    between atoms: C_21  and  O_27
    8  A    between atoms: C_22  and  C_37
    9  A    between atoms: C_23  and  N_25
   10  A    between atoms: C_37  and  C_46
   11  A    between atoms: C_40  and  C_46
                            x       y       z     vdW  Elec       q    Type
                         _______ _______ _______ _____ _____    ______ ____

>  <TORSDO>
F 11

$$$$
=
 OpenBabel11062418303D

 48 53  0  0  1  0  0  0  0  0999 V2000
  193.4630  173.7020  140.3670 C   0  0  0  0  0  3  0  0  0  0  0  0
  192.6610  172.6380  140.3060 C   0  0  0  0  0  0  0  0  0  0  0  0
  194.4840  173.8100  141.3570 N   0  0  0  0  0  2  0  0  0  0  0  0
  194.9600  175.0820  141.7990 C   0  0  0  0  0  0  0  0  0  0  0  0
  194.5760  176.1380  141.2300 O   0  0  0  0  0  0  0  0  0  0  0  0
  196.3600  173.8780  143.3140 O   0  0  0  0  0  1  0  0  0  0  0  0
  195.9290  175.1540  142.9430 C   0  0  2  0  0  3  0  0  0  0  0  0
  195.3820  175.9180  144.1540 C   0  0  0  0  0  2  0  0  0  0  0  0
  191.1910  175.9890  146.1870 C   0  0  2  0  0  0  0  0  0  0  0  0
  192.4210  175.0010  143.9870 C   0  0  2  0  0  3  0  0  0  0  0  0
  190.1560  176.1820  147.3090 C   0  0  2  0  0  3  0  0  0  0  0  0
  193.7200  175.6460  146.0370 C   0  0  1  0  0  3  0  0  0  0  0  0
  189.4760  174.8320  147.3560 C   0  0  0  0  0  2  0  0  0  0  0  0
  191.5340  177.1470  145.2050 C   0  0  2  0  0  3  0  0  0  0  0  0
  190.4710  174.9600  145.3120 C   0  0  2  0  0  3  0  0  0  0  0  0
  194.8840  175.0110  145.2770 C   0  0  1  0  0  3  0  0  0  0  0  0
  190.3980  177.8690  144.8220 O   0  0  0  0  0  1  0  0  0  0  0  0
  189.2090  177.1620  147.0080 O   0  0  0  0  0  1  0  0  0  0  0  0
  189.6780  174.1220  146.2420 C   0  0  0  0  0  2  0  0  0  0  0  0
  193.5110  174.5250  144.9910 C   0  0  2  0  0  0  0  0  0  0  0  0
  192.4750  175.4270  146.8990 C   0  0  0  0  0  2  0  0  0  0  0  0
  192.1960  176.5590  143.9160 C   0  0  0  0  0  2  0  0  0  0  0  0
  191.2170  174.2980  144.3000 O   0  0  0  0  0  0  0  0  0  0  0  0
  193.3770  173.0940  145.5190 C   0  0  0  0  0  1  0  0  0  0  0  0
  192.8340  171.5850  141.2040 O   0  0  0  0  0  0  0  0  0  0  0  0
  192.4470  171.6980  142.4840 O   0  0  0  0  0  1  0  0  0  0  0  0
  191.5610  172.5850  139.2850 C   0  0  1  0  0  3  0  0  0  0  0  0
  192.1260  172.3200  137.8860 C   0  0  0  0  0  3  0  0  0  0  0  0
  191.3900  171.3330  137.2220 O   0  0  0  0  0  1  0  0  0  0  0  0
  192.1160  173.4970  137.1350 O   0  0  0  0  0  1  0  0  0  0  0  0
  190.5990  171.6290  139.6380 O   0  0  0  0  0  0  0  0  0  0  0  0
  188.4650  175.9190  141.5160 C   0  0  0  0  0  0  0  0  0  0  0  0
  189.4460  173.6650  139.1350 C   0  0  0  0  0  2  0  0  0  0  0  0
  188.2070  174.4950  139.4800 C   0  0  0  0  0  2  0  0  0  0  0  0
  189.4380  172.3540  139.9230 C   0  0  2  0  0  3  0  0  0  0  0  0
  189.5210  176.0230  142.2000 O   0  0  0  0  0  0  0  0  0  0  0  0
  189.3800  172.6400  141.4220 C   0  0  0  0  0  2  0  0  0  0  0  0
  188.1230  174.6610  140.9260 N   0  0  0  0  0  0  0  0  0  0  0  0
  188.1360  173.4580  141.7480 C   0  0  0  0  0  2  0  0  0  0  0  0
  186.7620  177.2710  142.7270 C   0  0  0  0  0  0  0  0  0  0  0  0
  186.6250  176.9500  140.2980 N   0  0  0  0  0  2  0  0  0  0  0  0
  187.3040  176.9970  143.8350 O   0  0  0  0  0  0  0  0  0  0  0  0
  185.4500  177.8630  142.6910 N   0  0  0  0  0  0  0  0  0  0  0  0
  187.5310  177.0900  141.4380 C   0  0  2  0  0  3  0  0  0  0  0  0
  184.7440  178.0260  141.4190 C   0  0  0  0  0  2  0  0  0  0  0  0
  185.7320  178.1050  140.2570 C   0  0  0  0  0  2  0  0  0  0  0  0
  184.8620  179.5620  144.3470 C   0  0  0  0  0  1  0  0  0  0  0  0
  184.7070  178.1090  143.9200 C   0  0  0  0  0  2  0  0  0  0  0  0
  1  3  1  0  0  0  0
  2  1  2  0  0  0  0
  2 25  1  0  0  0  0
  3  4  1  0  0  0  0
  4  7  1  0  0  0  0
  5  4  2  0  0  0  0
  7  6  1  1  0  0  0
  7  8  1  0  0  0  0
  9 21  1  1  0  0  0
  9 11  1  0  0  0  0
 10 22  1  1  0  0  0
 10 23  1  0  0  0  0
 10 20  1  0  0  0  0
 11 18  1  6  0  0  0
 11 13  1  0  0  0  0
 12 21  1  1  0  0  0
 14 17  1  6  0  0  0
 14  9  1  0  0  0  0
 15  9  1  0  0  0  0
 15 19  1  1  0  0  0
 16  8  1  6  0  0  0
 16 12  1  0  0  0  0
 19 13  1  0  0  0  0
 20 16  1  0  0  0  0
 20 24  1  1  0  0  0
 20 12  1  0  0  0  0
 22 14  1  0  0  0  0
 23 15  1  0  0  0  0
 25 26  1  0  0  0  0
 27 28  1  6  0  0  0
 27 31  1  0  0  0  0
 27  2  1  0  0  0  0
 29 28  1  0  0  0  0
 30 28  1  0  0  0  0
 32 36  2  0  0  0  0
 33 34  1  0  0  0  0
 33 35  1  0  0  0  0
 34 38  1  0  0  0  0
 35 31  1  1  0  0  0
 35 37  1  0  0  0  0
 37 39  1  0  0  0  0
 38 32  1  0  0  0  0
 38 39  1  0  0  0  0
 40 42  2  0  0  0  0
 41 44  1  0  0  0  0
 43 40  1  0  0  0  0
 43 48  1  0  0  0  0
 44 32  1  1  0  0  0
 44 40  1  0  0  0  0
 45 43  1  0  0  0  0
 46 41  1  0  0  0  0
 46 45  1  0  0  0  0
 48 47  1  0  0  0  0
M  END
>  <MODEL>
2

>  <REMARK>
 VINA RESULT:      -7.1      1.465      2.122
  Name = 
  11 active torsions:
  status: ('A' for Active; 'I' for Inactive)
    1  A    between atoms: C_4  and  C_8
    2  A    between atoms: C_4  and  O_27
    3  A    between atoms: C_4  and  C_33
    4  A    between atoms: C_6  and  C_32
    5  A    between atoms: C_7  and  N_19
    6  A    between atoms: O_11  and  C_33
    7  A    between atoms: C_21  and  O_27
    8  A    between atoms: C_22  and  C_37
    9  A    between atoms: C_23  and  N_25
   10  A    between atoms: C_37  and  C_46
   11  A    between atoms: C_40  and  C_46
                            x       y       z     vdW  Elec       q    Type
                         _______ _______ _______ _____ _____    ______ ____

>  <TORSDO>
F 11

$$$$
=
 OpenBabel11062418303D

 48 53  0  0  1  0  0  0  0  0999 V2000
  192.5610  173.6730  139.3250 C   0  0  0  0  0  3  0  0  0  0  0  0
  192.0380  172.5880  139.8960 C   0  0  0  0  0  0  0  0  0  0  0  0
  193.9410  174.0030  139.4750 N   0  0  0  0  0  2  0  0  0  0  0  0
  194.6070  174.8610  138.5470 C   0  0  0  0  0  0  0  0  0  0  0  0
  194.0190  175.2450  137.5010 O   0  0  0  0  0  0  0  0  0  0  0  0
  196.9070  174.6980  137.9260 O   0  0  0  0  0  1  0  0  0  0  0  0
  196.0160  175.2970  138.8200 C   0  0  2  0  0  3  0  0  0  0  0  0
  196.4540  175.0570  140.2690 C   0  0  0  0  0  2  0  0  0  0  0  0
  193.9950  174.9740  144.2260 C   0  0  2  0  0  0  0  0  0  0  0  0
  196.4910  174.4560  143.3150 C   0  0  2  0  0  3  0  0  0  0  0  0
  192.8350  175.2840  145.1880 C   0  0  2  0  0  3  0  0  0  0  0  0
  194.9260  175.9690  142.0640 C   0  0  1  0  0  3  0  0  0  0  0  0
  193.5520  175.9040  146.3660 C   0  0  0  0  0  2  0  0  0  0  0  0
  193.9830  173.6900  143.3440 C   0  0  2  0  0  3  0  0  0  0  0  0
  195.1320  174.7310  145.2220 C   0  0  2  0  0  3  0  0  0  0  0  0
  196.1610  176.2320  141.2010 C   0  0  1  0  0  3  0  0  0  0  0  0
  193.4980  172.5770  144.0380 O   0  0  0  0  0  1  0  0  0  0  0  0
  192.1630  174.1360  145.6120 O   0  0  0  0  0  1  0  0  0  0  0  0
  194.8580  175.6220  146.3730 C   0  0  0  0  0  2  0  0  0  0  0  0
  196.3650  175.8430  142.6190 C   0  0  2  0  0  0  0  0  0  0  0  0
  194.1770  176.2740  143.3620 C   0  0  0  0  0  2  0  0  0  0  0  0
  195.4390  173.3720  142.8670 C   0  0  0  0  0  2  0  0  0  0  0  0
  196.4630  174.6830  144.7250 O   0  0  0  0  0  0  0  0  0  0  0  0
  196.9280  177.0440  143.3810 C   0  0  0  0  0  1  0  0  0  0  0  0
  192.8520  171.7300  140.6340 O   0  0  0  0  0  0  0  0  0  0  0  0
  193.3620  170.6170  140.0840 O   0  0  0  0  0  1  0  0  0  0  0  0
  190.5680  172.3050  139.7630 C   0  0  1  0  0  3  0  0  0  0  0  0
  190.2560  171.6610  138.4090 C   0  0  0  0  0  3  0  0  0  0  0  0
  189.4480  170.5290  138.5610 O   0  0  0  0  0  1  0  0  0  0  0  0
  189.6210  172.5820  137.5750 O   0  0  0  0  0  1  0  0  0  0  0  0
  190.1160  171.5100  140.8240 O   0  0  0  0  0  0  0  0  0  0  0  0
  189.3860  176.2140  142.7780 C   0  0  0  0  0  0  0  0  0  0  0  0
  188.7910  173.5020  140.7780 C   0  0  0  0  0  2  0  0  0  0  0  0
  187.9940  174.4700  141.6550 C   0  0  0  0  0  2  0  0  0  0  0  0
  189.3480  172.3580  141.6270 C   0  0  2  0  0  3  0  0  0  0  0  0
  190.6300  176.3610  142.6220 O   0  0  0  0  0  0  0  0  0  0  0  0
  190.2220  172.9140  142.7510 C   0  0  0  0  0  2  0  0  0  0  0  0
  188.8210  174.9000  142.7770 N   0  0  0  0  0  0  0  0  0  0  0  0
  189.4100  173.8670  143.6190 C   0  0  0  0  0  2  0  0  0  0  0  0
  188.0980  177.4330  144.5240 C   0  0  0  0  0  0  0  0  0  0  0  0
  187.3980  177.4850  142.1730 N   0  0  0  0  0  2  0  0  0  0  0  0
  188.8540  176.9760  145.4280 O   0  0  0  0  0  0  0  0  0  0  0  0
  186.8570  178.0740  144.8750 N   0  0  0  0  0  0  0  0  0  0  0  0
  188.5440  177.4190  143.0800 C   0  0  2  0  0  3  0  0  0  0  0  0
  185.8980  178.4520  143.8360 C   0  0  0  0  0  2  0  0  0  0  0  0
  186.6030  178.6660  142.4990 C   0  0  0  0  0  2  0  0  0  0  0  0
  185.4540  177.0360  146.5860 C   0  0  0  0  0  1  0  0  0  0  0  0
  186.4280  178.1610  146.2650 C   0  0  0  0  0  2  0  0  0  0  0  0
  1  3  1  0  0  0  0
  1  2  2  0  0  0  0
  2 25  1  0  0  0  0
  4  7  1  0  0  0  0
  4  3  1  0  0  0  0
  5  4  2  0  0  0  0
  7  6  1  6  0  0  0
  7  8  1  0  0  0  0
  9 21  1  6  0  0  0
  9 11  1  0  0  0  0
  9 15  1  0  0  0  0
 10 22  1  6  0  0  0
 10 23  1  0  0  0  0
 11 18  1  1  0  0  0
 11 13  1  0  0  0  0
 12 20  1  0  0  0  0
 12 21  1  1  0  0  0
 13 19  1  0  0  0  0
 14 17  1  1  0  0  0
 14  9  1  0  0  0  0
 15 19  1  1  0  0  0
 16  8  1  6  0  0  0
 16 12  1  0  0  0  0
 16 20  1  0  0  0  0
 20 10  1  0  0  0  0
 20 24  1  1  0  0  0
 22 14  1  0  0  0  0
 23 15  1  0  0  0  0
 26 25  1  0  0  0  0
 27 28  1  6  0  0  0
 27  2  1  0  0  0  0
 27 31  1  0  0  0  0
 28 29  1  0  0  0  0
 30 28  1  0  0  0  0
 33 35  1  0  0  0  0
 33 34  1  0  0  0  0
 34 38  1  0  0  0  0
 35 31  1  6  0  0  0
 35 37  1  0  0  0  0
 36 32  2  0  0  0  0
 37 39  1  0  0  0  0
 38 32  1  0  0  0  0
 38 39  1  0  0  0  0
 40 43  1  0  0  0  0
 40 42  2  0  0  0  0
 41 46  1  0  0  0  0
 41 44  1  0  0  0  0
 43 48  1  0  0  0  0
 44 32  1  6  0  0  0
 44 40  1  0  0  0  0
 45 43  1  0  0  0  0
 46 45  1  0  0  0  0
 48 47  1  0  0  0  0
M  END
>  <MODEL>
3

>  <REMARK>
 VINA RESULT:      -6.8      1.790      3.198
  Name = 
  11 active torsions:
  status: ('A' for Active; 'I' for Inactive)
    1  A    between atoms: C_4  and  C_8
    2  A    between atoms: C_4  and  O_27
    3  A    between atoms: C_4  and  C_33
    4  A    between atoms: C_6  and  C_32
    5  A    between atoms: C_7  and  N_19
    6  A    between atoms: O_11  and  C_33
    7  A    between atoms: C_21  and  O_27
    8  A    between atoms: C_22  and  C_37
    9  A    between atoms: C_23  and  N_25
   10  A    between atoms: C_37  and  C_46
   11  A    between atoms: C_40  and  C_46
                            x       y       z     vdW  Elec       q    Type
                         _______ _______ _______ _____ _____    ______ ____

>  <TORSDO>
F 11

$$$$
=
 OpenBabel11062418303D

 48 53  0  0  1  0  0  0  0  0999 V2000
  193.6880  171.7630  144.4570 C   0  0  0  0  0  3  0  0  0  0  0  0
  194.2690  172.9530  144.3080 C   0  0  0  0  0  0  0  0  0  0  0  0
  193.4540  170.9020  143.3440 N   0  0  0  0  0  2  0  0  0  0  0  0
  192.9500  169.5770  143.5210 C   0  0  0  0  0  0  0  0  0  0  0  0
  192.8190  169.0950  144.6770 O   0  0  0  0  0  0  0  0  0  0  0  0
  193.6630  168.6510  141.4380 O   0  0  0  0  0  1  0  0  0  0  0  0
  192.5830  168.7580  142.3190 C   0  0  2  0  0  3  0  0  0  0  0  0
  191.3360  169.2730  141.5910 C   0  0  0  0  0  2  0  0  0  0  0  0
  189.6610  172.5670  138.7530 C   0  0  2  0  0  0  0  0  0  0  0  0
  191.7600  172.1080  140.4000 C   0  0  2  0  0  3  0  0  0  0  0  0
  188.7970  173.1790  137.6380 C   0  0  2  0  0  3  0  0  0  0  0  0
  190.4110  170.2210  139.4390 C   0  0  1  0  0  3  0  0  0  0  0  0
  189.8360  173.7820  136.7200 C   0  0  0  0  0  2  0  0  0  0  0  0
  189.1870  172.5850  140.2360 C   0  0  2  0  0  3  0  0  0  0  0  0
  190.8620  173.5150  138.7350 C   0  0  2  0  0  3  0  0  0  0  0  0
  191.5020  169.3590  140.0750 C   0  0  1  0  0  3  0  0  0  0  0  0
  188.5770  173.7960  140.5810 O   0  0  0  0  0  1  0  0  0  0  0  0
  187.9530  174.1900  138.1010 O   0  0  0  0  0  1  0  0  0  0  0  0
  191.0160  173.9450  137.3250 C   0  0  0  0  0  2  0  0  0  0  0  0
  191.8520  170.7410  139.6620 C   0  0  2  0  0  0  0  0  0  0  0  0
  189.9970  171.1110  138.2660 C   0  0  0  0  0  2  0  0  0  0  0  0
  190.4160  172.3720  141.1800 C   0  0  0  0  0  2  0  0  0  0  0  0
  192.0340  173.1300  139.4410 O   0  0  0  0  0  0  0  0  0  0  0  0
  192.8120  170.6700  138.4720 C   0  0  0  0  0  1  0  0  0  0  0  0
  194.6920  173.3660  143.0450 O   0  0  0  0  0  0  0  0  0  0  0  0
  193.9090  174.1300  142.2680 O   0  0  0  0  0  1  0  0  0  0  0  0
  194.4470  173.8560  145.4950 C   0  0  1  0  0  3  0  0  0  0  0  0
  195.9320  174.0790  145.7950 C   0  0  0  0  0  3  0  0  0  0  0  0
  196.6470  172.8780  145.7300 O   0  0  0  0  0  1  0  0  0  0  0  0
  196.4710  174.9960  144.8910 O   0  0  0  0  0  1  0  0  0  0  0  0
  193.7760  175.0710  145.3020 O   0  0  0  0  0  0  0  0  0  0  0  0
  189.0640  176.8610  146.3430 C   0  0  0  0  0  0  0  0  0  0  0  0
  191.5640  175.4600  144.4720 C   0  0  0  0  0  2  0  0  0  0  0  0
  190.0820  175.2150  144.7620 C   0  0  0  0  0  2  0  0  0  0  0  0
  192.4270  174.7980  145.5490 C   0  0  2  0  0  3  0  0  0  0  0  0
  189.6630  177.8540  146.8400 O   0  0  0  0  0  0  0  0  0  0  0  0
  192.0500  175.3340  146.9290 C   0  0  0  0  0  2  0  0  0  0  0  0
  189.7770  175.6400  146.1240 N   0  0  0  0  0  0  0  0  0  0  0  0
  190.5750  175.0730  147.2040 C   0  0  0  0  0  2  0  0  0  0  0  0
  187.2700  177.8260  144.9140 C   0  0  0  0  0  0  0  0  0  0  0  0
  186.8970  177.4170  147.3050 N   0  0  0  0  0  2  0  0  0  0  0  0
  188.0510  177.8590  143.9220 O   0  0  0  0  0  0  0  0  0  0  0  0
  186.0180  178.5370  144.8730 N   0  0  0  0  0  0  0  0  0  0  0  0
  187.5850  176.9470  146.1030 C   0  0  2  0  0  3  0  0  0  0  0  0
  185.1870  178.6470  146.0730 C   0  0  0  0  0  2  0  0  0  0  0  0
  185.4640  177.4910  147.0320 C   0  0  0  0  0  2  0  0  0  0  0  0
  184.7790  178.5360  142.7660 C   0  0  0  0  0  1  0  0  0  0  0  0
  185.6550  179.3430  143.7150 C   0  0  0  0  0  2  0  0  0  0  0  0
  2  1  2  0  0  0  0
  3  4  1  0  0  0  0
  3  1  1  0  0  0  0
  4  5  2  0  0  0  0
  7  6  1  6  0  0  0
  7  4  1  0  0  0  0
  8  7  1  0  0  0  0
  9 21  1  6  0  0  0
  9 14  1  0  0  0  0
 10 22  1  6  0  0  0
 11 18  1  1  0  0  0
 11  9  1  0  0  0  0
 12 21  1  6  0  0  0
 12 20  1  0  0  0  0
 12 16  1  0  0  0  0
 13 19  1  0  0  0  0
 13 11  1  0  0  0  0
 14 17  1  1  0  0  0
 14 22  1  0  0  0  0
 15 19  1  6  0  0  0
 15  9  1  0  0  0  0
 15 23  1  0  0  0  0
 16  8  1  1  0  0  0
 20 24  1  6  0  0  0
 20 16  1  0  0  0  0
 20 10  1  0  0  0  0
 23 10  1  0  0  0  0
 25  2  1  0  0  0  0
 26 25  1  0  0  0  0
 27  2  1  6  0  0  0
 27 28  1  0  0  0  0
 29 28  1  0  0  0  0
 30 28  1  0  0  0  0
 31 27  1  0  0  0  0
 32 36  2  0  0  0  0
 33 34  1  0  0  0  0
 33 35  1  0  0  0  0
 34 38  1  0  0  0  0
 35 31  1  6  0  0  0
 35 37  1  0  0  0  0
 37 39  1  0  0  0  0
 38 32  1  0  0  0  0
 38 39  1  0  0  0  0
 40 44  1  0  0  0  0
 42 40  2  0  0  0  0
 43 40  1  0  0  0  0
 43 45  1  0  0  0  0
 44 32  1  1  0  0  0
 44 41  1  0  0  0  0
 45 46  1  0  0  0  0
 46 41  1  0  0  0  0
 47 48  1  0  0  0  0
 48 43  1  0  0  0  0
M  END
>  <MODEL>
4

>  <REMARK>
 VINA RESULT:      -6.4      2.255      6.621
  Name = 
  11 active torsions:
  status: ('A' for Active; 'I' for Inactive)
    1  A    between atoms: C_4  and  C_8
    2  A    between atoms: C_4  and  O_27
    3  A    between atoms: C_4  and  C_33
    4  A    between atoms: C_6  and  C_32
    5  A    between atoms: C_7  and  N_19
    6  A    between atoms: O_11  and  C_33
    7  A    between atoms: C_21  and  O_27
    8  A    between atoms: C_22  and  C_37
    9  A    between atoms: C_23  and  N_25
   10  A    between atoms: C_37  and  C_46
   11  A    between atoms: C_40  and  C_46
                            x       y       z     vdW  Elec       q    Type
                         _______ _______ _______ _____ _____    ______ ____

>  <TORSDO>
F 11

$$$$
=
 OpenBabel11062418303D

 48 53  0  0  1  0  0  0  0  0999 V2000
  191.8030  175.6190  143.5040 C   0  0  0  0  0  3  0  0  0  0  0  0
  191.9370  174.9540  144.6520 C   0  0  0  0  0  0  0  0  0  0  0  0
  190.5320  175.7710  142.8750 N   0  0  0  0  0  2  0  0  0  0  0  0
  190.1160  174.9050  141.8170 C   0  0  0  0  0  0  0  0  0  0  0  0
  190.9180  174.0650  141.3310 O   0  0  0  0  0  0  0  0  0  0  0  0
  188.6420  174.5020  139.9820 O   0  0  0  0  0  1  0  0  0  0  0  0
  188.7180  175.0080  141.2820 C   0  0  2  0  0  3  0  0  0  0  0  0
  188.1470  176.4290  141.3480 C   0  0  0  0  0  2  0  0  0  0  0  0
  186.1590  177.2810  145.4740 C   0  0  2  0  0  0  0  0  0  0  0  0
  187.2190  178.6010  143.3620 C   0  0  2  0  0  3  0  0  0  0  0  0
  185.3480  176.9940  146.7500 C   0  0  2  0  0  3  0  0  0  0  0  0
  186.3850  176.2420  143.1490 C   0  0  1  0  0  3  0  0  0  0  0  0
  184.2910  178.0740  146.7080 C   0  0  0  0  0  2  0  0  0  0  0  0
  187.7040  177.0850  145.4460 C   0  0  2  0  0  3  0  0  0  0  0  0
  185.9740  178.7950  145.3550 C   0  0  2  0  0  3  0  0  0  0  0  0
  186.6530  176.4750  141.6620 C   0  0  1  0  0  3  0  0  0  0  0  0
  188.3140  177.5230  146.6260 O   0  0  0  0  0  1  0  0  0  0  0  0
  186.1040  177.1360  147.9150 O   0  0  0  0  0  1  0  0  0  0  0  0
  184.6240  179.0810  145.8950 C   0  0  0  0  0  2  0  0  0  0  0  0
  186.3300  177.6500  142.5100 C   0  0  2  0  0  0  0  0  0  0  0  0
  185.4470  176.4630  144.3370 C   0  0  0  0  0  2  0  0  0  0  0  0
  188.3100  177.8950  144.2530 C   0  0  0  0  0  2  0  0  0  0  0  0
  186.3440  179.4240  144.1350 O   0  0  0  0  0  0  0  0  0  0  0  0
  184.9520  178.1800  142.1080 C   0  0  0  0  0  1  0  0  0  0  0  0
  190.8140  174.4160  145.2790 O   0  0  0  0  0  0  0  0  0  0  0  0
  190.3690  173.1890  144.9700 O   0  0  0  0  0  1  0  0  0  0  0  0
  193.3000  174.7650  145.2550 C   0  0  1  0  0  3  0  0  0  0  0  0
  193.5480  175.7820  146.3740 C   0  0  0  0  0  3  0  0  0  0  0  0
  193.7260  177.0700  145.8570 O   0  0  0  0  0  1  0  0  0  0  0  0
  192.4770  175.7790  147.2690 O   0  0  0  0  0  1  0  0  0  0  0  0
  193.4650  173.4510  145.7120 O   0  0  0  0  0  0  0  0  0  0  0  0
  195.5750  173.2060  141.0250 C   0  0  0  0  0  0  0  0  0  0  0  0
  195.3710  173.9600  144.3570 C   0  0  0  0  0  2  0  0  0  0  0  0
  196.3850  173.3540  143.3840 C   0  0  0  0  0  2  0  0  0  0  0  0
  194.4180  172.8760  144.8650 C   0  0  2  0  0  3  0  0  0  0  0  0
  194.4610  173.6310  140.6130 O   0  0  0  0  0  0  0  0  0  0  0  0
  193.7060  172.2080  143.6900 C   0  0  0  0  0  2  0  0  0  0  0  0
  195.6770  172.6330  142.3320 N   0  0  0  0  0  0  0  0  0  0  0  0
  194.7290  171.6030  142.7370 C   0  0  0  0  0  2  0  0  0  0  0  0
  196.7140  174.4010  139.1620 C   0  0  0  0  0  0  0  0  0  0  0  0
  196.7940  171.9540  139.3280 N   0  0  0  0  0  2  0  0  0  0  0  0
  196.2620  175.5080  139.5710 O   0  0  0  0  0  0  0  0  0  0  0  0
  197.3060  174.3000  137.8540 N   0  0  0  0  0  0  0  0  0  0  0  0
  196.7450  173.2040  140.0860 C   0  0  2  0  0  3  0  0  0  0  0  0
  197.6750  172.9940  137.3050 C   0  0  0  0  0  2  0  0  0  0  0  0
  197.9410  171.9910  138.4250 C   0  0  0  0  0  2  0  0  0  0  0  0
  196.6420  175.1300  135.6530 C   0  0  0  0  0  1  0  0  0  0  0  0
  197.3490  175.4520  136.9620 C   0  0  0  0  0  2  0  0  0  0  0  0
  1  2  2  0  0  0  0
  2 25  1  0  0  0  0
  3  1  1  0  0  0  0
  4  3  1  0  0  0  0
  5  4  2  0  0  0  0
  7  6  1  6  0  0  0
  7  8  1  0  0  0  0
  7  4  1  0  0  0  0
  9 21  1  6  0  0  0
  9 11  1  0  0  0  0
 10 23  1  0  0  0  0
 10 22  1  1  0  0  0
 11 18  1  1  0  0  0
 12 21  1  6  0  0  0
 13 11  1  0  0  0  0
 14  9  1  0  0  0  0
 14 17  1  1  0  0  0
 15  9  1  0  0  0  0
 15 19  1  6  0  0  0
 16  8  1  1  0  0  0
 16 20  1  0  0  0  0
 16 12  1  0  0  0  0
 19 13  1  0  0  0  0
 20 24  1  6  0  0  0
 20 12  1  0  0  0  0
 20 10  1  0  0  0  0
 22 14  1  0  0  0  0
 23 15  1  0  0  0  0
 26 25  1  0  0  0  0
 27  2  1  1  0  0  0
 27 31  1  0  0  0  0
 27 28  1  0  0  0  0
 28 30  1  0  0  0  0
 29 28  1  0  0  0  0
 32 38  1  0  0  0  0
 33 35  1  0  0  0  0
 34 33  1  0  0  0  0
 35 31  1  1  0  0  0
 36 32  2  0  0  0  0
 37 35  1  0  0  0  0
 38 39  1  0  0  0  0
 38 34  1  0  0  0  0
 39 37  1  0  0  0  0
 40 42  2  0  0  0  0
 40 44  1  0  0  0  0
 41 44  1  0  0  0  0
 43 40  1  0  0  0  0
 44 32  1  6  0  0  0
 45 43  1  0  0  0  0
 45 46  1  0  0  0  0
 46 41  1  0  0  0  0
 47 48  1  0  0  0  0
 48 43  1  0  0  0  0
M  END
>  <MODEL>
5

>  <REMARK>
 VINA RESULT:      -6.4      2.483      8.966
  Name = 
  11 active torsions:
  status: ('A' for Active; 'I' for Inactive)
    1  A    between atoms: C_4  and  C_8
    2  A    between atoms: C_4  and  O_27
    3  A    between atoms: C_4  and  C_33
    4  A    between atoms: C_6  and  C_32
    5  A    between atoms: C_7  and  N_19
    6  A    between atoms: O_11  and  C_33
    7  A    between atoms: C_21  and  O_27
    8  A    between atoms: C_22  and  C_37
    9  A    between atoms: C_23  and  N_25
   10  A    between atoms: C_37  and  C_46
   11  A    between atoms: C_40  and  C_46
                            x       y       z     vdW  Elec       q    Type
                         _______ _______ _______ _____ _____    ______ ____

>  <TORSDO>
F 11

$$$$
=
 OpenBabel11062418303D

 48 53  0  0  1  0  0  0  0  0999 V2000
  187.1300  175.9370  142.7450 C   0  0  0  0  0  3  0  0  0  0  0  0
  187.0840  177.2650  142.8540 C   0  0  0  0  0  0  0  0  0  0  0  0
  187.4140  175.3000  141.5010 N   0  0  0  0  0  2  0  0  0  0  0  0
  188.6730  174.6700  141.2580 C   0  0  0  0  0  0  0  0  0  0  0  0
  189.6080  174.7740  142.0940 O   0  0  0  0  0  0  0  0  0  0  0  0
  188.0870  172.7370  139.9830 O   0  0  0  0  0  1  0  0  0  0  0  0
  188.8780  173.8890  139.9930 C   0  0  2  0  0  3  0  0  0  0  0  0
  190.3470  173.5430  139.7260 C   0  0  0  0  0  2  0  0  0  0  0  0
  194.6720  172.0340  140.5740 C   0  0  2  0  0  0  0  0  0  0  0  0
  192.7080  173.4870  141.7400 C   0  0  2  0  0  3  0  0  0  0  0  0
  195.9420  171.1840  140.4010 C   0  0  2  0  0  3  0  0  0  0  0  0
  192.2120  171.8480  139.9030 C   0  0  1  0  0  3  0  0  0  0  0  0
  196.1240  170.5930  141.7810 C   0  0  0  0  0  2  0  0  0  0  0  0
  194.5170  173.4000  139.8430 C   0  0  2  0  0  3  0  0  0  0  0  0
  194.7840  172.4130  142.0520 C   0  0  2  0  0  3  0  0  0  0  0  0
  190.7600  172.1710  140.2550 C   0  0  1  0  0  3  0  0  0  0  0  0
  195.7060  174.1370  139.8420 O   0  0  0  0  0  1  0  0  0  0  0  0
  197.0650  171.9480  140.0780 O   0  0  0  0  0  1  0  0  0  0  0  0
  195.4450  171.2650  142.7150 C   0  0  0  0  0  2  0  0  0  0  0  0
  191.7870  172.3050  141.3190 C   0  0  2  0  0  0  0  0  0  0  0  0
  193.4770  171.0640  140.2570 C   0  0  0  0  0  2  0  0  0  0  0  0
  193.4160  174.2520  140.5580 C   0  0  0  0  0  2  0  0  0  0  0  0
  193.6460  172.9780  142.6900 O   0  0  0  0  0  0  0  0  0  0  0  0
  191.5540  171.2130  142.3650 C   0  0  0  0  0  1  0  0  0  0  0  0
  187.3500  178.0630  141.7420 O   0  0  0  0  0  0  0  0  0  0  0  0
  188.5800  178.5490  141.5170 O   0  0  0  0  0  1  0  0  0  0  0  0
  186.7260  177.8990  144.1680 C   0  0  1  0  0  3  0  0  0  0  0  0
  185.3850  178.6340  144.0740 C   0  0  0  0  0  3  0  0  0  0  0  0
  184.5180  178.2390  145.0990 O   0  0  0  0  0  1  0  0  0  0  0  0
  185.5900  180.0130  144.1370 O   0  0  0  0  0  1  0  0  0  0  0  0
  186.7150  176.9450  145.1950 O   0  0  0  0  0  0  0  0  0  0  0  0
  191.6390  175.4720  145.4640 C   0  0  0  0  0  0  0  0  0  0  0  0
  188.9990  177.5520  144.8190 C   0  0  0  0  0  2  0  0  0  0  0  0
  190.3770  177.6280  145.4810 C   0  0  0  0  0  2  0  0  0  0  0  0
  187.9580  177.0580  145.8250 C   0  0  2  0  0  3  0  0  0  0  0  0
  191.2420  174.4040  144.9210 O   0  0  0  0  0  0  0  0  0  0  0  0
  188.3670  175.6940  146.3800 C   0  0  0  0  0  2  0  0  0  0  0  0
  190.6920  176.3420  146.0920 N   0  0  0  0  0  0  0  0  0  0  0  0
  189.7350  175.7910  147.0430 C   0  0  0  0  0  2  0  0  0  0  0  0
  193.6710  176.1420  144.1950 C   0  0  0  0  0  0  0  0  0  0  0  0
  193.8210  174.5880  146.0880 N   0  0  0  0  0  2  0  0  0  0  0  0
  192.9690  176.8140  143.3870 O   0  0  0  0  0  0  0  0  0  0  0  0
  195.0470  175.8490  143.8860 N   0  0  0  0  0  0  0  0  0  0  0  0
  193.1120  175.7450  145.5420 C   0  0  2  0  0  3  0  0  0  0  0  0
  195.8170  174.9330  144.7280 C   0  0  0  0  0  2  0  0  0  0  0  0
  195.2490  174.8900  146.1450 C   0  0  0  0  0  2  0  0  0  0  0  0
  197.0530  176.7820  142.8470 C   0  0  0  0  0  1  0  0  0  0  0  0
  195.6360  176.2730  142.6220 C   0  0  0  0  0  2  0  0  0  0  0  0
  1  2  2  0  0  0  0
  3  1  1  0  0  0  0
  4  3  1  0  0  0  0
  4  5  2  0  0  0  0
  7  6  1  1  0  0  0
  7  4  1  0  0  0  0
  8  7  1  0  0  0  0
  9 21  1  6  0  0  0
  9 15  1  0  0  0  0
 10 22  1  6  0  0  0
 10 23  1  0  0  0  0
 11 18  1  1  0  0  0
 11  9  1  0  0  0  0
 11 13  1  0  0  0  0
 12 16  1  0  0  0  0
 12 21  1  1  0  0  0
 12 20  1  0  0  0  0
 13 19  1  0  0  0  0
 14 17  1  1  0  0  0
 14 22  1  0  0  0  0
 14  9  1  0  0  0  0
 15 23  1  0  0  0  0
 15 19  1  1  0  0  0
 16  8  1  6  0  0  0
 16 20  1  0  0  0  0
 20 10  1  0  0  0  0
 20 24  1  1  0  0  0
 25  2  1  0  0  0  0
 26 25  1  0  0  0  0
 27  2  1  6  0  0  0
 27 31  1  0  0  0  0
 28 30  1  0  0  0  0
 28 27  1  0  0  0  0
 28 29  1  0  0  0  0
 32 38  1  0  0  0  0
 33 34  1  0  0  0  0
 33 35  1  0  0  0  0
 34 38  1  0  0  0  0
 35 31  1  6  0  0  0
 35 37  1  0  0  0  0
 36 32  2  0  0  0  0
 37 39  1  0  0  0  0
 38 39  1  0  0  0  0
 40 44  1  0  0  0  0
 41 46  1  0  0  0  0
 42 40  2  0  0  0  0
 43 40  1  0  0  0  0
 43 45  1  0  0  0  0
 44 32  1  6  0  0  0
 44 41  1  0  0  0  0
 45 46  1  0  0  0  0
 48 47  1  0  0  0  0
 48 43  1  0  0  0  0
M  END
>  <MODEL>
6

>  <REMARK>
 VINA RESULT:      -6.3      2.345      7.725
  Name = 
  11 active torsions:
  status: ('A' for Active; 'I' for Inactive)
    1  A    between atoms: C_4  and  C_8
    2  A    between atoms: C_4  and  O_27
    3  A    between atoms: C_4  and  C_33
    4  A    between atoms: C_6  and  C_32
    5  A    between atoms: C_7  and  N_19
    6  A    between atoms: O_11  and  C_33
    7  A    between atoms: C_21  and  O_27
    8  A    between atoms: C_22  and  C_37
    9  A    between atoms: C_23  and  N_25
   10  A    between atoms: C_37  and  C_46
   11  A    between atoms: C_40  and  C_46
                            x       y       z     vdW  Elec       q    Type
                         _______ _______ _______ _____ _____    ______ ____

>  <TORSDO>
F 11

$$$$
=
 OpenBabel11062418303D

 48 53  0  0  1  0  0  0  0  0999 V2000
  193.4470  171.8960  144.6430 C   0  0  0  0  0  3  0  0  0  0  0  0
  194.1040  173.0350  144.4150 C   0  0  0  0  0  0  0  0  0  0  0  0
  193.1040  171.0090  143.5800 N   0  0  0  0  0  2  0  0  0  0  0  0
  191.7690  170.9300  143.0780 C   0  0  0  0  0  0  0  0  0  0  0  0
  190.8370  171.5540  143.6490 O   0  0  0  0  0  0  0  0  0  0  0  0
  191.8740  168.7660  142.0730 O   0  0  0  0  0  1  0  0  0  0  0  0
  191.4820  170.0920  141.8670 C   0  0  2  0  0  3  0  0  0  0  0  0
  192.1020  170.6500  140.5820 C   0  0  0  0  0  2  0  0  0  0  0  0
  189.9680  172.9650  137.1470 C   0  0  2  0  0  0  0  0  0  0  0  0
  189.3970  171.6840  139.4630 C   0  0  2  0  0  3  0  0  0  0  0  0
  189.8290  173.8930  135.9280 C   0  0  2  0  0  3  0  0  0  0  0  0
  191.6980  172.5680  138.9860 C   0  0  1  0  0  3  0  0  0  0  0  0
  188.8180  174.9090  136.4110 C   0  0  0  0  0  2  0  0  0  0  0  0
  190.1640  171.4310  136.9680 C   0  0  2  0  0  3  0  0  0  0  0  0
  188.5720  173.0930  137.7610 C   0  0  2  0  0  3  0  0  0  0  0  0
  191.9560  172.1640  140.4390 C   0  0  1  0  0  3  0  0  0  0  0  0
  189.3700  170.9140  135.9380 O   0  0  0  0  0  1  0  0  0  0  0  0
  189.3200  173.2390  134.8050 O   0  0  0  0  0  1  0  0  0  0  0  0
  188.1260  174.4750  137.4690 C   0  0  0  0  0  2  0  0  0  0  0  0
  190.5700  172.5240  140.0450 C   0  0  2  0  0  0  0  0  0  0  0  0
  191.1070  173.6000  138.0250 C   0  0  0  0  0  2  0  0  0  0  0  0
  189.7810  170.6970  138.2950 C   0  0  0  0  0  2  0  0  0  0  0  0
  188.3680  172.5980  139.0780 O   0  0  0  0  0  0  0  0  0  0  0  0
  190.1960  173.8450  140.7220 C   0  0  0  0  0  1  0  0  0  0  0  0
  194.4980  173.3620  143.1190 O   0  0  0  0  0  0  0  0  0  0  0  0
  193.9270  174.3800  142.4580 O   0  0  0  0  0  1  0  0  0  0  0  0
  194.3980  173.9710  145.5520 C   0  0  1  0  0  3  0  0  0  0  0  0
  195.9060  174.1940  145.7010 C   0  0  0  0  0  3  0  0  0  0  0  0
  196.5960  172.9780  145.7360 O   0  0  0  0  0  1  0  0  0  0  0  0
  196.3820  174.9740  144.6450 O   0  0  0  0  0  1  0  0  0  0  0  0
  193.7150  175.1840  145.3880 O   0  0  0  0  0  0  0  0  0  0  0  0
  188.9770  176.9100  146.4170 C   0  0  0  0  0  0  0  0  0  0  0  0
  191.5010  175.5420  144.5540 C   0  0  0  0  0  2  0  0  0  0  0  0
  190.0210  175.2780  144.8400 C   0  0  0  0  0  2  0  0  0  0  0  0
  192.3700  174.8920  145.6320 C   0  0  2  0  0  3  0  0  0  0  0  0
  189.5610  177.9120  146.9150 O   0  0  0  0  0  0  0  0  0  0  0  0
  191.9830  175.4240  147.0120 C   0  0  0  0  0  2  0  0  0  0  0  0
  189.7080  175.6990  146.2010 N   0  0  0  0  0  0  0  0  0  0  0  0
  190.5100  175.1430  147.2830 C   0  0  0  0  0  2  0  0  0  0  0  0
  187.1720  177.8660  144.9960 C   0  0  0  0  0  0  0  0  0  0  0  0
  186.7990  177.4190  147.3800 N   0  0  0  0  0  2  0  0  0  0  0  0
  187.9560  177.9240  144.0060 O   0  0  0  0  0  0  0  0  0  0  0  0
  185.9100  178.5570  144.9600 N   0  0  0  0  0  0  0  0  0  0  0  0
  187.4980  176.9760  146.1740 C   0  0  2  0  0  3  0  0  0  0  0  0
  185.0740  178.6380  146.1590 C   0  0  0  0  0  2  0  0  0  0  0  0
  185.3660  177.4750  147.1040 C   0  0  0  0  0  2  0  0  0  0  0  0
  185.0560  178.4850  142.6710 C   0  0  0  0  0  1  0  0  0  0  0  0
  185.5370  179.3720  143.8110 C   0  0  0  0  0  2  0  0  0  0  0  0
  2  1  2  0  0  0  0
  3  1  1  0  0  0  0
  4  3  1  0  0  0  0
  4  5  2  0  0  0  0
  7  6  1  1  0  0  0
  7  4  1  0  0  0  0
  8  7  1  0  0  0  0
  9 15  1  0  0  0  0
  9 21  1  1  0  0  0
 10 22  1  6  0  0  0
 10 20  1  0  0  0  0
 11 18  1  6  0  0  0
 11 13  1  0  0  0  0
 11  9  1  0  0  0  0
 12 21  1  1  0  0  0
 12 20  1  0  0  0  0
 12 16  1  0  0  0  0
 13 19  1  0  0  0  0
 14 17  1  6  0  0  0
 14  9  1  0  0  0  0
 14 22  1  0  0  0  0
 15 19  1  1  0  0  0
 15 23  1  0  0  0  0
 16  8  1  6  0  0  0
 20 16  1  0  0  0  0
 20 24  1  1  0  0  0
 23 10  1  0  0  0  0
 25  2  1  0  0  0  0
 26 25  1  0  0  0  0
 27  2  1  6  0  0  0
 27 28  1  0  0  0  0
 28 29  1  0  0  0  0
 30 28  1  0  0  0  0
 31 27  1  0  0  0  0
 32 36  2  0  0  0  0
 33 34  1  0  0  0  0
 33 35  1  0  0  0  0
 34 38  1  0  0  0  0
 35 31  1  6  0  0  0
 35 37  1  0  0  0  0
 37 39  1  0  0  0  0
 38 32  1  0  0  0  0
 38 39  1  0  0  0  0
 40 44  1  0  0  0  0
 42 40  2  0  0  0  0
 43 40  1  0  0  0  0
 43 45  1  0  0  0  0
 44 32  1  1  0  0  0
 44 41  1  0  0  0  0
 45 46  1  0  0  0  0
 46 41  1  0  0  0  0
 47 48  1  0  0  0  0
 48 43  1  0  0  0  0
M  END
>  <MODEL>
7

>  <REMARK>
 VINA RESULT:      -6.3      2.111      6.976
  Name = 
  11 active torsions:
  status: ('A' for Active; 'I' for Inactive)
    1  A    between atoms: C_4  and  C_8
    2  A    between atoms: C_4  and  O_27
    3  A    between atoms: C_4  and  C_33
    4  A    between atoms: C_6  and  C_32
    5  A    between atoms: C_7  and  N_19
    6  A    between atoms: O_11  and  C_33
    7  A    between atoms: C_21  and  O_27
    8  A    between atoms: C_22  and  C_37
    9  A    between atoms: C_23  and  N_25
   10  A    between atoms: C_37  and  C_46
   11  A    between atoms: C_40  and  C_46
                            x       y       z     vdW  Elec       q    Type
                         _______ _______ _______ _____ _____    ______ ____

>  <TORSDO>
F 11

$$$$
=
 OpenBabel11062418303D

 48 53  0  0  1  0  0  0  0  0999 V2000
  192.8440  173.9920  138.6470 C   0  0  0  0  0  3  0  0  0  0  0  0
  192.4130  172.8040  138.2220 C   0  0  0  0  0  0  0  0  0  0  0  0
  194.2200  174.2260  138.9390 N   0  0  0  0  0  2  0  0  0  0  0  0
  195.0680  174.9220  138.0240 C   0  0  0  0  0  0  0  0  0  0  0  0
  194.6460  175.2340  136.8790 O   0  0  0  0  0  0  0  0  0  0  0  0
  197.3960  174.7650  137.5190 O   0  0  0  0  0  1  0  0  0  0  0  0
  196.4680  175.2730  138.4320 C   0  0  2  0  0  3  0  0  0  0  0  0
  196.8110  174.8350  139.8600 C   0  0  0  0  0  2  0  0  0  0  0  0
  194.2310  175.0240  143.7340 C   0  0  2  0  0  0  0  0  0  0  0  0
  196.5790  174.0120  142.8440 C   0  0  2  0  0  3  0  0  0  0  0  0
  193.1330  175.5210  144.6900 C   0  0  2  0  0  3  0  0  0  0  0  0
  195.4580  175.9380  141.6860 C   0  0  1  0  0  3  0  0  0  0  0  0
  193.9210  175.8660  145.9340 C   0  0  0  0  0  2  0  0  0  0  0  0
  193.9630  173.8490  142.7480 C   0  0  2  0  0  3  0  0  0  0  0  0
  195.2370  174.4490  144.7340 C   0  0  2  0  0  3  0  0  0  0  0  0
  196.7560  175.9720  140.8790 C   0  0  1  0  0  3  0  0  0  0  0  0
  193.2060  172.8290  143.3340 O   0  0  0  0  0  1  0  0  0  0  0  0
  192.1970  174.5320  145.0000 O   0  0  0  0  0  1  0  0  0  0  0  0
  195.1260  175.2890  145.9490 C   0  0  0  0  0  2  0  0  0  0  0  0
  196.8040  175.4390  142.2640 C   0  0  2  0  0  0  0  0  0  0  0  0
  194.7430  176.3080  142.9870 C   0  0  0  0  0  2  0  0  0  0  0  0
  195.3260  173.2390  142.2810 C   0  0  0  0  0  2  0  0  0  0  0  0
  196.5420  174.1320  144.2670 O   0  0  0  0  0  0  0  0  0  0  0  0
  197.5940  176.4160  143.1380 C   0  0  0  0  0  1  0  0  0  0  0  0
  193.3230  171.7660  138.0230 O   0  0  0  0  0  0  0  0  0  0  0  0
  193.9800  171.6350  136.8610 O   0  0  0  0  0  1  0  0  0  0  0  0
  190.9480  172.5790  137.9790 C   0  0  1  0  0  3  0  0  0  0  0  0
  190.6050  172.7650  136.4980 C   0  0  0  0  0  3  0  0  0  0  0  0
  189.6670  171.8170  136.0730 O   0  0  0  0  0  1  0  0  0  0  0  0
  190.1040  174.0500  136.2800 O   0  0  0  0  0  1  0  0  0  0  0  0
  190.5540  171.3160  138.4410 O   0  0  0  0  0  0  0  0  0  0  0  0
  189.3910  174.5080  142.3060 C   0  0  0  0  0  0  0  0  0  0  0  0
  188.9110  172.7700  139.3980 C   0  0  0  0  0  2  0  0  0  0  0  0
  188.1410  173.0780  140.6840 C   0  0  0  0  0  2  0  0  0  0  0  0
  189.8190  171.5560  139.6050 C   0  0  2  0  0  3  0  0  0  0  0  0
  190.5350  175.0040  142.1050 O   0  0  0  0  0  0  0  0  0  0  0  0
  190.7820  171.8100  140.7640 C   0  0  0  0  0  2  0  0  0  0  0  0
  189.0810  173.2100  141.7910 N   0  0  0  0  0  0  0  0  0  0  0  0
  189.9980  172.1040  142.0370 C   0  0  0  0  0  2  0  0  0  0  0  0
  187.7910  176.4080  142.4540 C   0  0  0  0  0  0  0  0  0  0  0  0
  189.0790  175.6880  144.4140 N   0  0  0  0  0  2  0  0  0  0  0  0
  187.5510  176.3270  141.2160 O   0  0  0  0  0  0  0  0  0  0  0  0
  187.3600  177.5620  143.2000 N   0  0  0  0  0  0  0  0  0  0  0  0
  188.4230  175.2450  143.1840 C   0  0  2  0  0  3  0  0  0  0  0  0
  187.7790  177.7450  144.5900 C   0  0  0  0  0  2  0  0  0  0  0  0
  188.1090  176.4030  145.2390 C   0  0  0  0  0  2  0  0  0  0  0  0
  185.7960  179.4120  143.5220 C   0  0  0  0  0  1  0  0  0  0  0  0
  186.6900  178.6730  142.5360 C   0  0  0  0  0  2  0  0  0  0  0  0
  1  3  1  0  0  0  0
  2  1  2  0  0  0  0
  4  7  1  0  0  0  0
  4  3  1  0  0  0  0
  5  4  2  0  0  0  0
  7  6  1  6  0  0  0
  7  8  1  0  0  0  0
  9 21  1  6  0  0  0
  9 11  1  0  0  0  0
  9 15  1  0  0  0  0
 10 22  1  6  0  0  0
 10 23  1  0  0  0  0
 11 18  1  1  0  0  0
 11 13  1  0  0  0  0
 12 20  1  0  0  0  0
 12 21  1  1  0  0  0
 13 19  1  0  0  0  0
 14 17  1  1  0  0  0
 14  9  1  0  0  0  0
 15 19  1  1  0  0  0
 16  8  1  6  0  0  0
 16 12  1  0  0  0  0
 16 20  1  0  0  0  0
 20 10  1  0  0  0  0
 20 24  1  1  0  0  0
 22 14  1  0  0  0  0
 23 15  1  0  0  0  0
 25  2  1  0  0  0  0
 26 25  1  0  0  0  0
 27 28  1  6  0  0  0
 27  2  1  0  0  0  0
 27 31  1  0  0  0  0
 29 28  1  0  0  0  0
 30 28  1  0  0  0  0
 33 35  1  0  0  0  0
 33 34  1  0  0  0  0
 34 38  1  0  0  0  0
 35 31  1  6  0  0  0
 35 37  1  0  0  0  0
 36 32  2  0  0  0  0
 37 39  1  0  0  0  0
 38 39  1  0  0  0  0
 38 32  1  0  0  0  0
 40 44  1  0  0  0  0
 40 43  1  0  0  0  0
 41 46  1  0  0  0  0
 42 40  2  0  0  0  0
 43 45  1  0  0  0  0
 44 32  1  6  0  0  0
 44 41  1  0  0  0  0
 45 46  1  0  0  0  0
 48 43  1  0  0  0  0
 48 47  1  0  0  0  0
M  END
>  <MODEL>
8

>  <REMARK>
 VINA RESULT:      -6.2      2.250      3.987
  Name = 
  11 active torsions:
  status: ('A' for Active; 'I' for Inactive)
    1  A    between atoms: C_4  and  C_8
    2  A    between atoms: C_4  and  O_27
    3  A    between atoms: C_4  and  C_33
    4  A    between atoms: C_6  and  C_32
    5  A    between atoms: C_7  and  N_19
    6  A    between atoms: O_11  and  C_33
    7  A    between atoms: C_21  and  O_27
    8  A    between atoms: C_22  and  C_37
    9  A    between atoms: C_23  and  N_25
   10  A    between atoms: C_37  and  C_46
   11  A    between atoms: C_40  and  C_46
                            x       y       z     vdW  Elec       q    Type
                         _______ _______ _______ _____ _____    ______ ____

>  <TORSDO>
F 11

$$$$
=
 OpenBabel11062418303D

 48 53  0  0  1  0  0  0  0  0999 V2000
  193.2430  170.7660  141.0770 C   0  0  0  0  0  3  0  0  0  0  0  0
  192.4750  171.7720  140.6580 C   0  0  0  0  0  0  0  0  0  0  0  0
  194.6050  170.9710  141.4480 N   0  0  0  0  0  2  0  0  0  0  0  0
  195.2330  170.1700  142.4500 C   0  0  0  0  0  0  0  0  0  0  0  0
  194.5570  169.3460  143.1210 O   0  0  0  0  0  0  0  0  0  0  0  0
  197.2030  169.2290  143.4170 O   0  0  0  0  0  1  0  0  0  0  0  0
  196.7030  170.3230  142.7070 C   0  0  2  0  0  3  0  0  0  0  0  0
  197.0630  171.6380  143.4070 C   0  0  0  0  0  2  0  0  0  0  0  0
  195.0980  175.4520  145.2240 C   0  0  2  0  0  0  0  0  0  0  0  0
  194.4970  173.3750  143.5950 C   0  0  2  0  0  3  0  0  0  0  0  0
  194.9270  176.6500  146.1730 C   0  0  2  0  0  3  0  0  0  0  0  0
  196.3930  173.2480  145.2360 C   0  0  1  0  0  3  0  0  0  0  0  0
  193.5450  176.4150  146.7410 C   0  0  0  0  0  2  0  0  0  0  0  0
  195.8490  175.6050  143.8680 C   0  0  2  0  0  3  0  0  0  0  0  0
  193.6440  175.2020  144.8170 C   0  0  2  0  0  3  0  0  0  0  0  0
  196.4380  171.7850  144.7930 C   0  0  1  0  0  3  0  0  0  0  0  0
  195.5400  176.8090  143.2260 O   0  0  0  0  0  1  0  0  0  0  0  0
  194.9460  177.8760  145.5060 O   0  0  0  0  0  1  0  0  0  0  0  0
  192.8260  175.5710  145.9960 C   0  0  0  0  0  2  0  0  0  0  0  0
  195.1410  172.5040  144.7120 C   0  0  2  0  0  0  0  0  0  0  0  0
  195.7150  174.3080  146.1060 C   0  0  0  0  0  2  0  0  0  0  0  0
  195.4530  174.4280  142.9170 C   0  0  0  0  0  2  0  0  0  0  0  0
  193.3310  173.9870  144.1500 O   0  0  0  0  0  0  0  0  0  0  0  0
  194.1890  171.9180  145.7570 C   0  0  0  0  0  1  0  0  0  0  0  0
  192.9930  173.0660  140.6060 O   0  0  0  0  0  0  0  0  0  0  0  0
  192.3630  174.0360  139.9250 O   0  0  0  0  0  1  0  0  0  0  0  0
  191.0620  171.5070  140.2230 C   0  0  1  0  0  3  0  0  0  0  0  0
  191.0330  170.7730  138.8780 C   0  0  0  0  0  3  0  0  0  0  0  0
  189.7450  170.3160  138.5790 O   0  0  0  0  0  1  0  0  0  0  0  0
  191.4780  171.6190  137.8610 O   0  0  0  0  0  1  0  0  0  0  0  0
  190.3610  170.7980  141.2080 O   0  0  0  0  0  0  0  0  0  0  0  0
  189.8180  175.7000  142.6770 C   0  0  0  0  0  0  0  0  0  0  0  0
  189.1420  172.8380  140.9260 C   0  0  0  0  0  2  0  0  0  0  0  0
  188.3710  173.9240  141.6800 C   0  0  0  0  0  2  0  0  0  0  0  0
  189.6150  171.7570  141.8990 C   0  0  2  0  0  3  0  0  0  0  0  0
  191.0710  175.7700  142.5510 O   0  0  0  0  0  0  0  0  0  0  0  0
  190.4830  172.3760  142.9940 C   0  0  0  0  0  2  0  0  0  0  0  0
  189.1860  174.4210  142.7830 N   0  0  0  0  0  0  0  0  0  0  0  0
  189.6970  173.4470  143.7390 C   0  0  0  0  0  2  0  0  0  0  0  0
  188.4570  177.0930  144.2270 C   0  0  0  0  0  0  0  0  0  0  0  0
  187.9780  177.0470  141.8210 N   0  0  0  0  0  2  0  0  0  0  0  0
  189.0970  176.6470  145.2210 O   0  0  0  0  0  0  0  0  0  0  0  0
  187.2320  177.8240  144.4250 N   0  0  0  0  0  0  0  0  0  0  0  0
  189.0300  176.9680  142.8340 C   0  0  2  0  0  3  0  0  0  0  0  0
  186.3980  178.1960  143.2820 C   0  0  0  0  0  2  0  0  0  0  0  0
  187.2330  178.2890  142.0070 C   0  0  0  0  0  2  0  0  0  0  0  0
  185.5660  179.0500  145.7280 C   0  0  0  0  0  1  0  0  0  0  0  0
  186.6860  178.0180  145.7620 C   0  0  0  0  0  2  0  0  0  0  0  0
  1  3  1  0  0  0  0
  2  1  2  0  0  0  0
  3  4  1  0  0  0  0
  4  7  1  0  0  0  0
  4  5  2  0  0  0  0
  7  8  1  0  0  0  0
  7  6  1  1  0  0  0
  9 21  1  1  0  0  0
  9 11  1  0  0  0  0
 10 22  1  1  0  0  0
 10 23  1  0  0  0  0
 10 20  1  0  0  0  0
 11 18  1  6  0  0  0
 11 13  1  0  0  0  0
 12 21  1  1  0  0  0
 14 17  1  6  0  0  0
 14  9  1  0  0  0  0
 15  9  1  0  0  0  0
 15 19  1  1  0  0  0
 16  8  1  6  0  0  0
 16 12  1  0  0  0  0
 19 13  1  0  0  0  0
 20 16  1  0  0  0  0
 20 12  1  0  0  0  0
 20 24  1  1  0  0  0
 22 14  1  0  0  0  0
 23 15  1  0  0  0  0
 25  2  1  0  0  0  0
 26 25  1  0  0  0  0
 27 28  1  6  0  0  0
 27  2  1  0  0  0  0
 27 31  1  0  0  0  0
 29 28  1  0  0  0  0
 30 28  1  0  0  0  0
 32 38  1  0  0  0  0
 33 34  1  0  0  0  0
 33 35  1  0  0  0  0
 34 38  1  0  0  0  0
 35 31  1  6  0  0  0
 35 37  1  0  0  0  0
 36 32  2  0  0  0  0
 37 39  1  0  0  0  0
 38 39  1  0  0  0  0
 40 43  1  0  0  0  0
 40 42  2  0  0  0  0
 41 46  1  0  0  0  0
 41 44  1  0  0  0  0
 43 48  1  0  0  0  0
 44 32  1  1  0  0  0
 44 40  1  0  0  0  0
 45 43  1  0  0  0  0
 46 45  1  0  0  0  0
 47 48  1  0  0  0  0
M  END
>  <MODEL>
9

>  <REMARK>
 VINA RESULT:      -6.2      2.168      3.289
  Name = 
  11 active torsions:
  status: ('A' for Active; 'I' for Inactive)
    1  A    between atoms: C_4  and  C_8
    2  A    between atoms: C_4  and  O_27
    3  A    between atoms: C_4  and  C_33
    4  A    between atoms: C_6  and  C_32
    5  A    between atoms: C_7  and  N_19
    6  A    between atoms: O_11  and  C_33
    7  A    between atoms: C_21  and  O_27
    8  A    between atoms: C_22  and  C_37
    9  A    between atoms: C_23  and  N_25
   10  A    between atoms: C_37  and  C_46
   11  A    between atoms: C_40  and  C_46
                            x       y       z     vdW  Elec       q    Type
                         _______ _______ _______ _____ _____    ______ ____

>  <TORSDO>
F 11

$$$$
