=
 OpenBabel11062420103D

 35 39  0  0  1  0  0  0  0  0999 V2000
  185.2890  178.6700  145.5800 N   0  0  0  0  0  0  0  0  0  0  0  0
  183.7840  179.0460  143.7300 C   0  0  0  0  0  3  0  0  0  0  0  0
  185.9740  178.0880  143.3960 C   0  0  0  0  0  0  0  0  0  0  0  0
  188.5490  176.9200  144.8120 C   0  0  0  0  0  0  0  0  0  0  0  0
  188.8600  174.6790  140.9700 C   0  0  0  0  0  2  0  0  0  0  0  0
  187.3800  176.3130  139.8700 C   0  0  0  0  0  3  0  0  0  0  0  0
  187.5200  177.7690  145.3440 N   0  0  0  0  0  2  0  0  0  0  0  0
  190.6190  175.3150  143.8050 C   0  0  0  0  0  3  0  0  0  0  0  0
  189.8680  177.1150  145.2360 C   0  0  0  0  0  3  0  0  0  0  0  0
  189.0080  174.0530  142.3550 C   0  0  0  0  0  2  0  0  0  0  0  0
  188.2670  175.8790  143.9160 C   0  0  0  0  0  3  0  0  0  0  0  0
  186.7440  177.6410  142.3920 N   0  0  0  0  0  0  0  0  0  0  0  0
  186.0380  177.7580  141.2710 N   0  0  0  0  0  0  0  0  0  0  0  0
  184.7730  178.5260  142.9060 C   0  0  0  0  0  0  0  0  0  0  0  0
  189.3010  175.0890  143.3960 C   0  0  0  0  0  0  0  0  0  0  0  0
  186.4920  177.3030  139.9880 C   0  0  0  0  0  3  0  0  0  0  0  0
  186.2530  178.1390  144.7680 C   0  0  0  0  0  0  0  0  0  0  0  0
  184.0800  179.1090  145.1040 C   0  0  0  0  0  3  0  0  0  0  0  0
  187.8200  175.6380  141.0030 O   0  0  0  0  0  0  0  0  0  0  0  0
  190.9100  176.3150  144.7390 C   0  0  0  0  0  0  0  0  0  0  0  0
  184.8330  178.3130  141.5450 C   0  0  0  0  0  0  0  0  0  0  0  0
  192.2720  176.5030  145.1480 N   0  0  0  0  0  2  0  0  0  0  0  0
  192.9290  175.8760  146.2560 C   0  0  0  0  0  0  0  0  0  0  0  0
  192.3220  175.0630  147.0010 O   0  0  0  0  0  0  0  0  0  0  0  0
  194.3530  176.1920  146.5310 C   0  0  0  0  0  1  0  0  0  0  0  0
  183.7700  178.6200  140.5440 C   0  0  0  0  0  2  0  0  0  0  0  0
  182.4950  177.8820  140.9050 C   0  0  0  0  0  2  0  0  0  0  0  0
  180.1480  178.2080  141.5860 C   0  0  1  0  0  3  0  0  0  0  0  0
  180.1920  178.2090  140.0720 C   0  0  0  0  0  2  0  0  0  0  0  0
  181.3210  178.8370  140.8590 C   0  0  2  0  0  3  0  0  0  0  0  0
  179.2480  179.2530  142.0460 N   0  0  0  0  0  2  0  0  0  0  0  0
  177.9560  178.6290  142.2750 C   0  0  0  0  0  2  0  0  0  0  0  0
  178.0120  176.2540  143.0260 O   0  0  0  0  0  0  0  0  0  0  0  0
  178.2350  177.9620  144.5390 O   0  0  0  0  0  1  0  0  0  0  0  0
  178.0730  177.6050  143.3450 C   0  0  0  0  0  0  0  0  0  0  0  0
  2 18  2  0  0  0  0
  3 17  1  0  0  0  0
  4  9  1  0  0  0  0
  4  7  1  0  0  0  0
  5 19  1  0  0  0  0
  5 10  1  0  0  0  0
  6 16  2  0  0  0  0
  6 19  1  0  0  0  0
  8 20  1  0  0  0  0
 10 15  1  0  0  0  0
 11  4  2  0  0  0  0
 12  3  2  0  0  0  0
 13 21  1  0  0  0  0
 13 12  1  0  0  0  0
 14  3  1  0  0  0  0
 14  2  1  0  0  0  0
 15  8  2  0  0  0  0
 15 11  1  0  0  0  0
 16 13  1  0  0  0  0
 17  7  1  0  0  0  0
 17  1  2  0  0  0  0
 18  1  1  0  0  0  0
 20 22  1  0  0  0  0
 20  9  2  0  0  0  0
 21 14  2  0  0  0  0
 22 23  1  0  0  0  0
 23 25  1  0  0  0  0
 23 24  2  0  0  0  0
 26 27  1  0  0  0  0
 26 21  1  0  0  0  0
 28 31  1  6  0  0  0
 29 30  1  0  0  0  0
 29 28  1  0  0  0  0
 30 27  1  1  0  0  0
 30 28  1  0  0  0  0
 31 32  1  0  0  0  0
 32 35  1  0  0  0  0
 33 35  2  0  0  0  0
 35 34  1  0  0  0  0
M  END
>  <MODEL>
1

>  <REMARK>
 VINA RESULT:      -8.3      0.000      0.000
  Name = 
  7 active torsions:
  status: ('A' for Active; 'I' for Inactive)
    1  A    between atoms: C_4  and  N_5
    2  A    between atoms: N_5  and  C_7
    3  A    between atoms: C_7  and  C_20
    4  A    between atoms: N_8  and  C_34
    5  A    between atoms: C_21  and  C_23
    6  A    between atoms: C_21  and  C_30
    7  A    between atoms: C_23  and  C_35
                            x       y       z     vdW  Elec       q    Type
                         _______ _______ _______ _____ _____    ______ ____

>  <TORSDO>
F 7

$$$$
=
 OpenBabel11062420103D

 35 39  0  0  1  0  0  0  0  0999 V2000
  185.1850  179.0620  146.6490 N   0  0  0  0  0  0  0  0  0  0  0  0
  187.1600  177.8800  147.3820 C   0  0  0  0  0  3  0  0  0  0  0  0
  186.2270  177.5300  145.1840 C   0  0  0  0  0  0  0  0  0  0  0  0
  184.0900  178.5200  143.0730 C   0  0  0  0  0  0  0  0  0  0  0  0
  187.0510  176.7890  140.2230 C   0  0  0  0  0  2  0  0  0  0  0  0
  188.0460  175.4480  142.0350 C   0  0  0  0  0  3  0  0  0  0  0  0
  184.1430  178.7400  144.4910 N   0  0  0  0  0  2  0  0  0  0  0  0
  183.9040  178.0630  140.3100 C   0  0  0  0  0  3  0  0  0  0  0  0
  182.8420  178.3400  142.4670 C   0  0  0  0  0  3  0  0  0  0  0  0
  186.3980  178.1620  140.0710 C   0  0  0  0  0  2  0  0  0  0  0  0
  185.2420  178.5200  142.2750 C   0  0  0  0  0  3  0  0  0  0  0  0
  186.4630  176.7940  144.0860 N   0  0  0  0  0  0  0  0  0  0  0  0
  187.5610  176.0810  144.3190 N   0  0  0  0  0  0  0  0  0  0  0  0
  187.1680  177.2590  146.1400 C   0  0  0  0  0  0  0  0  0  0  0  0
  185.1540  178.2710  140.8980 C   0  0  0  0  0  0  0  0  0  0  0  0
  188.1830  175.2300  143.3440 C   0  0  0  0  0  3  0  0  0  0  0  0
  185.2090  178.4630  145.4190 C   0  0  0  0  0  0  0  0  0  0  0  0
  186.1240  178.8030  147.6150 C   0  0  0  0  0  3  0  0  0  0  0  0
  187.3570  176.5700  141.5870 O   0  0  0  0  0  0  0  0  0  0  0  0
  182.7390  178.1130  141.0850 C   0  0  0  0  0  0  0  0  0  0  0  0
  188.0100  176.3270  145.5730 C   0  0  0  0  0  0  0  0  0  0  0  0
  181.4730  177.9140  140.4410 N   0  0  0  0  0  2  0  0  0  0  0  0
  180.3510  178.8040  140.4620 C   0  0  0  0  0  0  0  0  0  0  0  0
  180.3930  179.8960  141.0860 O   0  0  0  0  0  0  0  0  0  0  0  0
  179.1120  178.4300  139.7320 C   0  0  0  0  0  1  0  0  0  0  0  0
  189.2090  175.7010  146.2050 C   0  0  0  0  0  2  0  0  0  0  0  0
  190.4060  176.6190  146.0540 C   0  0  0  0  0  2  0  0  0  0  0  0
  192.7390  176.6780  145.2570 C   0  0  1  0  0  3  0  0  0  0  0  0
  191.8490  177.0950  144.1050 C   0  0  0  0  0  2  0  0  0  0  0  0
  191.3860  176.0220  145.0650 C   0  0  2  0  0  3  0  0  0  0  0  0
  193.7810  175.7900  144.7690 N   0  0  0  0  0  2  0  0  0  0  0  0
  195.0330  176.5230  144.8470 C   0  0  0  0  0  2  0  0  0  0  0  0
  195.2540  175.6250  142.5340 O   0  0  0  0  0  0  0  0  0  0  0  0
  196.8520  177.0220  143.4010 O   0  0  0  0  0  1  0  0  0  0  0  0
  195.7680  176.4070  143.5610 C   0  0  0  0  0  0  0  0  0  0  0  0
  1 18  1  0  0  0  0
  2 18  2  0  0  0  0
  3 17  1  0  0  0  0
  3 14  1  0  0  0  0
  4  7  1  0  0  0  0
  5 19  1  0  0  0  0
  6 16  2  0  0  0  0
  7 17  1  0  0  0  0
  8 15  2  0  0  0  0
  8 20  1  0  0  0  0
  9  4  1  0  0  0  0
 10  5  1  0  0  0  0
 10 15  1  0  0  0  0
 11  4  2  0  0  0  0
 12 13  1  0  0  0  0
 12  3  2  0  0  0  0
 13 21  1  0  0  0  0
 14  2  1  0  0  0  0
 15 11  1  0  0  0  0
 16 13  1  0  0  0  0
 17  1  2  0  0  0  0
 19  6  1  0  0  0  0
 20  9  2  0  0  0  0
 21 14  2  0  0  0  0
 21 26  1  0  0  0  0
 22 23  1  0  0  0  0
 22 20  1  0  0  0  0
 23 24  2  0  0  0  0
 25 23  1  0  0  0  0
 27 26  1  0  0  0  0
 28 31  1  6  0  0  0
 29 30  1  0  0  0  0
 29 28  1  0  0  0  0
 30 28  1  0  0  0  0
 30 27  1  1  0  0  0
 31 32  1  0  0  0  0
 33 35  2  0  0  0  0
 34 35  1  0  0  0  0
 35 32  1  0  0  0  0
M  END
>  <MODEL>
2

>  <REMARK>
 VINA RESULT:      -8.1      2.195      9.864
  Name = 
  7 active torsions:
  status: ('A' for Active; 'I' for Inactive)
    1  A    between atoms: C_4  and  N_5
    2  A    between atoms: N_5  and  C_7
    3  A    between atoms: C_7  and  C_20
    4  A    between atoms: N_8  and  C_34
    5  A    between atoms: C_21  and  C_23
    6  A    between atoms: C_21  and  C_30
    7  A    between atoms: C_23  and  C_35
                            x       y       z     vdW  Elec       q    Type
                         _______ _______ _______ _____ _____    ______ ____

>  <TORSDO>
F 7

$$$$
=
 OpenBabel11062420103D

 35 39  0  0  1  0  0  0  0  0999 V2000
  187.1230  177.8820  147.5450 N   0  0  0  0  0  0  0  0  0  0  0  0
  185.6290  178.9070  145.9490 C   0  0  0  0  0  3  0  0  0  0  0  0
  187.4830  177.5360  145.2370 C   0  0  0  0  0  0  0  0  0  0  0  0
  189.7840  175.5770  146.1710 C   0  0  0  0  0  0  0  0  0  0  0  0
  189.2520  174.0110  142.0300 C   0  0  0  0  0  2  0  0  0  0  0  0
  188.1480  176.1080  141.3540 C   0  0  0  0  0  3  0  0  0  0  0  0
  189.0380  176.5400  146.9330 N   0  0  0  0  0  2  0  0  0  0  0  0
  191.3130  173.7290  144.7150 C   0  0  0  0  0  3  0  0  0  0  0  0
  191.1370  175.3850  146.4700 C   0  0  0  0  0  3  0  0  0  0  0  0
  189.3400  173.1420  143.2830 C   0  0  0  0  0  2  0  0  0  0  0  0
  189.1890  174.7980  145.1690 C   0  0  0  0  0  3  0  0  0  0  0  0
  188.0450  177.0990  144.0990 N   0  0  0  0  0  0  0  0  0  0  0  0
  187.3100  177.5660  143.0930 N   0  0  0  0  0  0  0  0  0  0  0  0
  186.3960  178.3180  144.9530 C   0  0  0  0  0  0  0  0  0  0  0  0
  189.9550  173.8890  144.4260 C   0  0  0  0  0  0  0  0  0  0  0  0
  187.5450  177.2420  141.7140 C   0  0  0  0  0  3  0  0  0  0  0  0
  187.8650  177.2870  146.5630 C   0  0  0  0  0  0  0  0  0  0  0  0
  186.0300  178.6650  147.2760 C   0  0  0  0  0  3  0  0  0  0  0  0
  188.4880  175.1660  142.3190 O   0  0  0  0  0  0  0  0  0  0  0  0
  191.9090  174.4610  145.7480 C   0  0  0  0  0  0  0  0  0  0  0  0
  186.3040  178.3320  143.5780 C   0  0  0  0  0  0  0  0  0  0  0  0
  193.3010  174.2540  146.0260 N   0  0  0  0  0  2  0  0  0  0  0  0
  194.4030  174.9890  145.4810 C   0  0  0  0  0  0  0  0  0  0  0  0
  194.2220  175.9300  144.6650 O   0  0  0  0  0  0  0  0  0  0  0  0
  195.7870  174.6330  145.8860 C   0  0  0  0  0  1  0  0  0  0  0  0
  185.2800  179.0430  142.7570 C   0  0  0  0  0  2  0  0  0  0  0  0
  184.1810  178.0790  142.3580 C   0  0  0  0  0  2  0  0  0  0  0  0
  181.9190  178.0100  141.3780 C   0  0  1  0  0  3  0  0  0  0  0  0
  182.9130  177.7890  140.2570 C   0  0  0  0  0  2  0  0  0  0  0  0
  183.2430  178.7500  141.3770 C   0  0  2  0  0  3  0  0  0  0  0  0
  180.8660  178.9030  140.9240 N   0  0  0  0  0  2  0  0  0  0  0  0
  179.6510  178.1110  140.8280 C   0  0  0  0  0  2  0  0  0  0  0  0
  178.5150  176.7770  142.5980 O   0  0  0  0  0  0  0  0  0  0  0  0
  178.9380  179.0090  142.9100 O   0  0  0  0  0  1  0  0  0  0  0  0
  179.0160  177.9980  142.1660 C   0  0  0  0  0  0  0  0  0  0  0  0
  2 18  2  0  0  0  0
  3 17  1  0  0  0  0
  4  9  1  0  0  0  0
  4  7  1  0  0  0  0
  5 19  1  0  0  0  0
  5 10  1  0  0  0  0
  6 16  2  0  0  0  0
  6 19  1  0  0  0  0
  8 20  1  0  0  0  0
 10 15  1  0  0  0  0
 11  4  2  0  0  0  0
 12  3  2  0  0  0  0
 13 21  1  0  0  0  0
 13 12  1  0  0  0  0
 14  3  1  0  0  0  0
 14  2  1  0  0  0  0
 15  8  2  0  0  0  0
 15 11  1  0  0  0  0
 16 13  1  0  0  0  0
 17  7  1  0  0  0  0
 17  1  2  0  0  0  0
 18  1  1  0  0  0  0
 20 22  1  0  0  0  0
 20  9  2  0  0  0  0
 21 14  2  0  0  0  0
 23 25  1  0  0  0  0
 23 22  1  0  0  0  0
 24 23  2  0  0  0  0
 26 21  1  0  0  0  0
 27 26  1  0  0  0  0
 28 31  1  6  0  0  0
 29 30  1  0  0  0  0
 29 28  1  0  0  0  0
 30 28  1  0  0  0  0
 30 27  1  1  0  0  0
 32 31  1  0  0  0  0
 32 35  1  0  0  0  0
 35 33  2  0  0  0  0
 35 34  1  0  0  0  0
M  END
>  <MODEL>
3

>  <REMARK>
 VINA RESULT:      -8.0      1.684      2.241
  Name = 
  7 active torsions:
  status: ('A' for Active; 'I' for Inactive)
    1  A    between atoms: C_4  and  N_5
    2  A    between atoms: N_5  and  C_7
    3  A    between atoms: C_7  and  C_20
    4  A    between atoms: N_8  and  C_34
    5  A    between atoms: C_21  and  C_23
    6  A    between atoms: C_21  and  C_30
    7  A    between atoms: C_23  and  C_35
                            x       y       z     vdW  Elec       q    Type
                         _______ _______ _______ _____ _____    ______ ____

>  <TORSDO>
F 7

$$$$
=
 OpenBabel11062420103D

 35 39  0  0  1  0  0  0  0  0999 V2000
  185.2860  178.6260  145.9670 N   0  0  0  0  0  0  0  0  0  0  0  0
  183.7350  178.9590  144.1470 C   0  0  0  0  0  3  0  0  0  0  0  0
  185.9470  178.0710  143.7690 C   0  0  0  0  0  0  0  0  0  0  0  0
  188.5840  176.9810  145.1330 C   0  0  0  0  0  0  0  0  0  0  0  0
  188.8920  174.7600  141.2780 C   0  0  0  0  0  2  0  0  0  0  0  0
  187.3410  176.3500  140.2110 C   0  0  0  0  0  3  0  0  0  0  0  0
  187.5400  177.7960  145.6870 N   0  0  0  0  0  2  0  0  0  0  0  0
  190.6840  175.4440  144.0810 C   0  0  0  0  0  3  0  0  0  0  0  0
  189.9040  177.2170  145.5320 C   0  0  0  0  0  3  0  0  0  0  0  0
  189.0860  174.1360  142.6590 C   0  0  0  0  0  2  0  0  0  0  0  0
  188.3190  175.9340  144.2390 C   0  0  0  0  0  3  0  0  0  0  0  0
  186.7120  177.6510  142.7490 N   0  0  0  0  0  0  0  0  0  0  0  0
  185.9810  177.7490  141.6430 N   0  0  0  0  0  0  0  0  0  0  0  0
  184.7240  178.4720  143.3030 C   0  0  0  0  0  0  0  0  0  0  0  0
  189.3670  175.1790  143.6970 C   0  0  0  0  0  0  0  0  0  0  0  0
  186.4250  177.3110  140.3500 C   0  0  0  0  0  3  0  0  0  0  0  0
  186.2510  178.1270  145.1360 C   0  0  0  0  0  0  0  0  0  0  0  0
  184.0550  179.0280  145.5150 C   0  0  0  0  0  3  0  0  0  0  0  0
  187.8240  175.6860  141.3340 O   0  0  0  0  0  0  0  0  0  0  0  0
  190.9610  176.4510  145.0130 C   0  0  0  0  0  0  0  0  0  0  0  0
  184.7650  178.2650  141.9410 C   0  0  0  0  0  0  0  0  0  0  0  0
  192.3240  176.6810  145.3960 N   0  0  0  0  0  2  0  0  0  0  0  0
  193.1220  175.8610  146.2580 C   0  0  0  0  0  0  0  0  0  0  0  0
  192.6580  174.8130  146.7780 O   0  0  0  0  0  0  0  0  0  0  0  0
  194.5240  176.2570  146.5460 C   0  0  0  0  0  1  0  0  0  0  0  0
  183.6730  178.5400  140.9610 C   0  0  0  0  0  2  0  0  0  0  0  0
  182.3270  178.2480  141.5950 C   0  0  0  0  0  2  0  0  0  0  0  0
  180.2750  179.4990  141.0410 C   0  0  1  0  0  3  0  0  0  0  0  0
  179.9010  178.0370  141.1800 C   0  0  0  0  0  2  0  0  0  0  0  0
  181.2300  178.4200  140.5670 C   0  0  2  0  0  3  0  0  0  0  0  0
  179.5850  180.0700  139.8980 N   0  0  0  0  0  2  0  0  0  0  0  0
  178.4330  180.7890  140.4150 C   0  0  0  0  0  2  0  0  0  0  0  0
  177.7650  183.1650  140.7570 O   0  0  0  0  0  1  0  0  0  0  0  0
  179.3690  182.6140  139.2140 O   0  0  0  0  0  0  0  0  0  0  0  0
  178.5510  182.2340  140.0900 C   0  0  0  0  0  0  0  0  0  0  0  0
  2 18  2  0  0  0  0
  3 17  1  0  0  0  0
  4  9  1  0  0  0  0
  4  7  1  0  0  0  0
  5 19  1  0  0  0  0
  5 10  1  0  0  0  0
  6 16  2  0  0  0  0
  6 19  1  0  0  0  0
  8 20  1  0  0  0  0
 10 15  1  0  0  0  0
 11  4  2  0  0  0  0
 12  3  2  0  0  0  0
 13 21  1  0  0  0  0
 13 12  1  0  0  0  0
 14  3  1  0  0  0  0
 14  2  1  0  0  0  0
 15  8  2  0  0  0  0
 15 11  1  0  0  0  0
 16 13  1  0  0  0  0
 17  7  1  0  0  0  0
 17  1  2  0  0  0  0
 18  1  1  0  0  0  0
 20 22  1  0  0  0  0
 20  9  2  0  0  0  0
 21 14  2  0  0  0  0
 22 23  1  0  0  0  0
 23 25  1  0  0  0  0
 23 24  2  0  0  0  0
 26 27  1  0  0  0  0
 26 21  1  0  0  0  0
 28 31  1  6  0  0  0
 28 29  1  0  0  0  0
 30 28  1  0  0  0  0
 30 29  1  0  0  0  0
 30 27  1  1  0  0  0
 31 32  1  0  0  0  0
 34 35  2  0  0  0  0
 35 32  1  0  0  0  0
 35 33  1  0  0  0  0
M  END
>  <MODEL>
4

>  <REMARK>
 VINA RESULT:      -8.0      1.933      2.123
  Name = 
  7 active torsions:
  status: ('A' for Active; 'I' for Inactive)
    1  A    between atoms: C_4  and  N_5
    2  A    between atoms: N_5  and  C_7
    3  A    between atoms: C_7  and  C_20
    4  A    between atoms: N_8  and  C_34
    5  A    between atoms: C_21  and  C_23
    6  A    between atoms: C_21  and  C_30
    7  A    between atoms: C_23  and  C_35
                            x       y       z     vdW  Elec       q    Type
                         _______ _______ _______ _____ _____    ______ ____

>  <TORSDO>
F 7

$$$$
=
 OpenBabel11062420103D

 35 39  0  0  1  0  0  0  0  0999 V2000
  189.0500  175.5360  141.8110 N   0  0  0  0  0  0  0  0  0  0  0  0
  187.5460  175.8990  143.6650 C   0  0  0  0  0  3  0  0  0  0  0  0
  189.8970  175.4850  144.0150 C   0  0  0  0  0  0  0  0  0  0  0  0
  192.7220  175.1710  142.6260 C   0  0  0  0  0  0  0  0  0  0  0  0
  194.1240  176.5850  146.6160 C   0  0  0  0  0  2  0  0  0  0  0  0
  191.9720  175.9380  147.6280 C   0  0  0  0  0  3  0  0  0  0  0  0
  191.4070  175.0600  142.0580 N   0  0  0  0  0  2  0  0  0  0  0  0
  195.3110  175.3130  143.6990 C   0  0  0  0  0  3  0  0  0  0  0  0
  193.7310  174.3230  142.1570 C   0  0  0  0  0  3  0  0  0  0  0  0
  194.6160  177.1330  145.2770 C   0  0  0  0  0  2  0  0  0  0  0  0
  193.0330  176.1260  143.6040 C   0  0  0  0  0  3  0  0  0  0  0  0
  190.7670  175.3640  145.0300 N   0  0  0  0  0  0  0  0  0  0  0  0
  190.0880  175.5650  146.1560 N   0  0  0  0  0  0  0  0  0  0  0  0
  188.6420  175.7340  144.5010 C   0  0  0  0  0  0  0  0  0  0  0  0
  194.3200  176.1860  144.1560 C   0  0  0  0  0  0  0  0  0  0  0  0
  190.6920  175.6010  147.4580 C   0  0  0  0  0  3  0  0  0  0  0  0
  190.1320  175.3950  142.6360 C   0  0  0  0  0  0  0  0  0  0  0  0
  187.7870  175.7890  142.2830 C   0  0  0  0  0  3  0  0  0  0  0  0
  192.7310  176.3500  146.5370 O   0  0  0  0  0  0  0  0  0  0  0  0
  195.0300  174.3890  142.6860 C   0  0  0  0  0  0  0  0  0  0  0  0
  188.7810  175.7760  145.8710 C   0  0  0  0  0  0  0  0  0  0  0  0
  196.0790  173.5230  142.2310 N   0  0  0  0  0  2  0  0  0  0  0  0
  196.8950  173.7030  141.0670 C   0  0  0  0  0  0  0  0  0  0  0  0
  196.7420  174.6950  140.3080 O   0  0  0  0  0  0  0  0  0  0  0  0
  197.9410  172.6980  140.7490 C   0  0  0  0  0  1  0  0  0  0  0  0
  187.7020  176.0210  146.8730 C   0  0  0  0  0  2  0  0  0  0  0  0
  187.3050  177.4840  146.8530 C   0  0  0  0  0  2  0  0  0  0  0  0
  185.5320  179.0570  146.1720 C   0  0  1  0  0  3  0  0  0  0  0  0
  185.1540  178.4970  147.5270 C   0  0  0  0  0  2  0  0  0  0  0  0
  185.8360  177.6100  146.5090 C   0  0  2  0  0  3  0  0  0  0  0  0
  184.3510  179.1180  145.3260 N   0  0  0  0  0  2  0  0  0  0  0  0
  184.7450  179.7880  144.0980 C   0  0  0  0  0  2  0  0  0  0  0  0
  186.3540  178.9730  142.3800 O   0  0  0  0  0  0  0  0  0  0  0  0
  184.4760  177.7590  142.8890 O   0  0  0  0  0  1  0  0  0  0  0  0
  185.1760  178.7840  143.0910 C   0  0  0  0  0  0  0  0  0  0  0  0
  1 18  1  0  0  0  0
  1 17  2  0  0  0  0
  2 14  1  0  0  0  0
  3 14  1  0  0  0  0
  3 12  2  0  0  0  0
  4 11  1  0  0  0  0
  7  4  1  0  0  0  0
  7 17  1  0  0  0  0
  8 15  1  0  0  0  0
  9  4  2  0  0  0  0
  9 20  1  0  0  0  0
 10  5  1  0  0  0  0
 11 15  2  0  0  0  0
 12 13  1  0  0  0  0
 13 16  1  0  0  0  0
 14 21  2  0  0  0  0
 15 10  1  0  0  0  0
 16  6  2  0  0  0  0
 17  3  1  0  0  0  0
 18  2  2  0  0  0  0
 19  5  1  0  0  0  0
 19  6  1  0  0  0  0
 20  8  2  0  0  0  0
 21 13  1  0  0  0  0
 21 26  1  0  0  0  0
 22 20  1  0  0  0  0
 23 22  1  0  0  0  0
 24 23  2  0  0  0  0
 25 23  1  0  0  0  0
 27 26  1  0  0  0  0
 28 31  1  6  0  0  0
 28 30  1  0  0  0  0
 28 29  1  0  0  0  0
 30 27  1  1  0  0  0
 30 29  1  0  0  0  0
 32 31  1  0  0  0  0
 33 35  2  0  0  0  0
 34 35  1  0  0  0  0
 35 32  1  0  0  0  0
M  END
>  <MODEL>
5

>  <REMARK>
 VINA RESULT:      -7.9      3.505      6.684
  Name = 
  7 active torsions:
  status: ('A' for Active; 'I' for Inactive)
    1  A    between atoms: C_4  and  N_5
    2  A    between atoms: N_5  and  C_7
    3  A    between atoms: C_7  and  C_20
    4  A    between atoms: N_8  and  C_34
    5  A    between atoms: C_21  and  C_23
    6  A    between atoms: C_21  and  C_30
    7  A    between atoms: C_23  and  C_35
                            x       y       z     vdW  Elec       q    Type
                         _______ _______ _______ _____ _____    ______ ____

>  <TORSDO>
F 7

$$$$
=
 OpenBabel11062420103D

 35 39  0  0  1  0  0  0  0  0999 V2000
  193.4450  176.8110  145.9110 N   0  0  0  0  0  0  0  0  0  0  0  0
  194.5330  174.6580  145.8070 C   0  0  0  0  0  3  0  0  0  0  0  0
  192.2150  174.9270  145.1940 C   0  0  0  0  0  0  0  0  0  0  0  0
  189.8880  176.9990  144.6490 C   0  0  0  0  0  0  0  0  0  0  0  0
  188.4190  173.6890  142.0460 C   0  0  0  0  0  2  0  0  0  0  0  0
  189.8240  172.0750  143.2680 C   0  0  0  0  0  3  0  0  0  0  0  0
  191.1160  177.1740  145.3730 N   0  0  0  0  0  2  0  0  0  0  0  0
  187.4460  176.6920  143.3010 C   0  0  0  0  0  3  0  0  0  0  0  0
  188.7380  177.6470  145.1100 C   0  0  0  0  0  3  0  0  0  0  0  0
  188.5020  175.1560  141.6250 C   0  0  0  0  0  2  0  0  0  0  0  0
  189.8170  176.2350  143.4760 C   0  0  0  0  0  3  0  0  0  0  0  0
  191.1840  174.1810  144.7640 N   0  0  0  0  0  0  0  0  0  0  0  0
  191.6310  172.9360  144.6270 N   0  0  0  0  0  0  0  0  0  0  0  0
  193.3220  174.1420  145.3630 C   0  0  0  0  0  0  0  0  0  0  0  0
  188.5940  176.0630  142.8130 C   0  0  0  0  0  0  0  0  0  0  0  0
  190.8410  171.8570  144.1030 C   0  0  0  0  0  3  0  0  0  0  0  0
  192.2600  176.3030  145.4550 C   0  0  0  0  0  0  0  0  0  0  0  0
  194.5640  176.0370  146.0830 C   0  0  0  0  0  3  0  0  0  0  0  0
  189.5610  173.3630  142.8160 O   0  0  0  0  0  0  0  0  0  0  0  0
  187.5120  177.5010  144.4410 C   0  0  0  0  0  0  0  0  0  0  0  0
  192.9300  172.8710  145.0030 C   0  0  0  0  0  0  0  0  0  0  0  0
  186.3150  178.1450  144.9010 N   0  0  0  0  0  2  0  0  0  0  0  0
  185.3210  177.5880  145.7690 C   0  0  0  0  0  0  0  0  0  0  0  0
  185.4290  176.4180  146.2220 O   0  0  0  0  0  0  0  0  0  0  0  0
  184.1390  178.4060  146.1420 C   0  0  0  0  0  1  0  0  0  0  0  0
  193.7730  171.6390  145.0060 C   0  0  0  0  0  2  0  0  0  0  0  0
  194.4960  171.5080  143.6800 C   0  0  0  0  0  2  0  0  0  0  0  0
  196.0810  173.1380  142.7230 C   0  0  1  0  0  3  0  0  0  0  0  0
  196.6800  171.7570  142.5500 C   0  0  0  0  0  2  0  0  0  0  0  0
  195.8910  172.0850  143.7980 C   0  0  2  0  0  3  0  0  0  0  0  0
  197.1180  174.0680  143.1360 N   0  0  0  0  0  2  0  0  0  0  0  0
  197.0790  175.1840  142.2060 C   0  0  0  0  0  2  0  0  0  0  0  0
  194.9410  176.4090  142.5710 O   0  0  0  0  0  0  0  0  0  0  0  0
  196.8930  177.1640  143.5090 O   0  0  0  0  0  1  0  0  0  0  0  0
  196.3080  176.3080  142.7970 C   0  0  0  0  0  0  0  0  0  0  0  0
  1 18  1  0  0  0  0
  2 18  2  0  0  0  0
  3 14  1  0  0  0  0
  3 17  1  0  0  0  0
  4  9  1  0  0  0  0
  4  7  1  0  0  0  0
  5 19  1  0  0  0  0
  6 16  2  0  0  0  0
  7 17  1  0  0  0  0
  8 20  1  0  0  0  0
 10  5  1  0  0  0  0
 10 15  1  0  0  0  0
 11  4  2  0  0  0  0
 12  3  2  0  0  0  0
 13 12  1  0  0  0  0
 13 21  1  0  0  0  0
 14  2  1  0  0  0  0
 15  8  2  0  0  0  0
 15 11  1  0  0  0  0
 16 13  1  0  0  0  0
 17  1  2  0  0  0  0
 19  6  1  0  0  0  0
 20 22  1  0  0  0  0
 20  9  2  0  0  0  0
 21 26  1  0  0  0  0
 21 14  2  0  0  0  0
 22 23  1  0  0  0  0
 23 25  1  0  0  0  0
 23 24  2  0  0  0  0
 27 26  1  0  0  0  0
 28 31  1  1  0  0  0
 28 30  1  0  0  0  0
 29 28  1  0  0  0  0
 29 30  1  0  0  0  0
 30 27  1  6  0  0  0
 32 35  1  0  0  0  0
 32 31  1  0  0  0  0
 33 35  2  0  0  0  0
 35 34  1  0  0  0  0
M  END
>  <MODEL>
6

>  <REMARK>
 VINA RESULT:      -7.6      4.100     10.792
  Name = 
  7 active torsions:
  status: ('A' for Active; 'I' for Inactive)
    1  A    between atoms: C_4  and  N_5
    2  A    between atoms: N_5  and  C_7
    3  A    between atoms: C_7  and  C_20
    4  A    between atoms: N_8  and  C_34
    5  A    between atoms: C_21  and  C_23
    6  A    between atoms: C_21  and  C_30
    7  A    between atoms: C_23  and  C_35
                            x       y       z     vdW  Elec       q    Type
                         _______ _______ _______ _____ _____    ______ ____

>  <TORSDO>
F 7

$$$$
=
 OpenBabel11062420103D

 35 39  0  0  1  0  0  0  0  0999 V2000
  190.5880  173.9810  140.8230 N   0  0  0  0  0  0  0  0  0  0  0  0
  192.9840  173.7220  140.9780 C   0  0  0  0  0  3  0  0  0  0  0  0
  191.7230  174.8340  142.7100 C   0  0  0  0  0  0  0  0  0  0  0  0
  188.8330  175.5280  143.7910 C   0  0  0  0  0  0  0  0  0  0  0  0
  191.0130  175.6400  147.6790 C   0  0  0  0  0  2  0  0  0  0  0  0
  193.1560  175.9200  146.4950 C   0  0  0  0  0  3  0  0  0  0  0  0
  189.2430  175.1260  142.4740 N   0  0  0  0  0  2  0  0  0  0  0  0
  187.9860  176.3780  146.3270 C   0  0  0  0  0  3  0  0  0  0  0  0
  187.8010  176.4640  143.9160 C   0  0  0  0  0  3  0  0  0  0  0  0
  189.6890  174.9160  147.4450 C   0  0  0  0  0  2  0  0  0  0  0  0
  189.4040  174.9820  144.9490 C   0  0  0  0  0  3  0  0  0  0  0  0
  191.9340  175.4470  143.8860 N   0  0  0  0  0  0  0  0  0  0  0  0
  193.2370  175.3710  144.1400 N   0  0  0  0  0  0  0  0  0  0  0  0
  192.9100  174.3900  142.1940 C   0  0  0  0  0  0  0  0  0  0  0  0
  188.9970  175.4200  146.2170 C   0  0  0  0  0  0  0  0  0  0  0  0
  193.8430  175.8410  145.3540 C   0  0  0  0  0  3  0  0  0  0  0  0
  190.5170  174.6210  142.0300 C   0  0  0  0  0  0  0  0  0  0  0  0
  191.7700  173.5280  140.2940 C   0  0  0  0  0  3  0  0  0  0  0  0
  191.8450  175.4600  146.5480 O   0  0  0  0  0  0  0  0  0  0  0  0
  187.3690  176.8930  145.1820 C   0  0  0  0  0  0  0  0  0  0  0  0
  193.8690  174.7470  143.1180 C   0  0  0  0  0  0  0  0  0  0  0  0
  186.3210  177.8610  145.3380 N   0  0  0  0  0  2  0  0  0  0  0  0
  185.0630  177.6640  145.9940 C   0  0  0  0  0  0  0  0  0  0  0  0
  184.7630  176.5580  146.5140 O   0  0  0  0  0  0  0  0  0  0  0  0
  184.0940  178.7870  146.0600 C   0  0  0  0  0  1  0  0  0  0  0  0
  195.3360  174.4900  143.0300 C   0  0  0  0  0  2  0  0  0  0  0  0
  195.6120  173.0140  143.2420 C   0  0  0  0  0  2  0  0  0  0  0  0
  195.9620  171.2730  144.9530 C   0  0  1  0  0  3  0  0  0  0  0  0
  194.8110  172.1440  145.4110 C   0  0  0  0  0  2  0  0  0  0  0  0
  195.9850  172.7660  144.6880 C   0  0  2  0  0  3  0  0  0  0  0  0
  196.8210  170.9690  146.0840 N   0  0  0  0  0  2  0  0  0  0  0  0
  196.9960  169.5260  146.1080 C   0  0  0  0  0  2  0  0  0  0  0  0
  197.1910  168.5390  148.3870 O   0  0  0  0  0  1  0  0  0  0  0  0
  195.1330  168.8800  147.4360 O   0  0  0  0  0  0  0  0  0  0  0  0
  196.3840  168.9640  147.3400 C   0  0  0  0  0  0  0  0  0  0  0  0
  1 17  2  0  0  0  0
  2 14  1  0  0  0  0
  3 12  2  0  0  0  0
  4  9  2  0  0  0  0
  4 11  1  0  0  0  0
  6 19  1  0  0  0  0
  7  4  1  0  0  0  0
  9 20  1  0  0  0  0
 10  5  1  0  0  0  0
 11 15  2  0  0  0  0
 12 13  1  0  0  0  0
 13 16  1  0  0  0  0
 14  3  1  0  0  0  0
 14 21  2  0  0  0  0
 15  8  1  0  0  0  0
 15 10  1  0  0  0  0
 16  6  2  0  0  0  0
 17  7  1  0  0  0  0
 17  3  1  0  0  0  0
 18  1  1  0  0  0  0
 18  2  2  0  0  0  0
 19  5  1  0  0  0  0
 20 22  1  0  0  0  0
 20  8  2  0  0  0  0
 21 13  1  0  0  0  0
 22 23  1  0  0  0  0
 23 25  1  0  0  0  0
 23 24  2  0  0  0  0
 26 21  1  0  0  0  0
 26 27  1  0  0  0  0
 28 29  1  0  0  0  0
 28 31  1  1  0  0  0
 30 27  1  6  0  0  0
 30 28  1  0  0  0  0
 30 29  1  0  0  0  0
 31 32  1  0  0  0  0
 32 35  1  0  0  0  0
 35 34  2  0  0  0  0
 35 33  1  0  0  0  0
M  END
>  <MODEL>
7

>  <REMARK>
 VINA RESULT:      -7.5      4.216     11.492
  Name = 
  7 active torsions:
  status: ('A' for Active; 'I' for Inactive)
    1  A    between atoms: C_4  and  N_5
    2  A    between atoms: N_5  and  C_7
    3  A    between atoms: C_7  and  C_20
    4  A    between atoms: N_8  and  C_34
    5  A    between atoms: C_21  and  C_23
    6  A    between atoms: C_21  and  C_30
    7  A    between atoms: C_23  and  C_35
                            x       y       z     vdW  Elec       q    Type
                         _______ _______ _______ _____ _____    ______ ____

>  <TORSDO>
F 7

$$$$
=
 OpenBabel11062420103D

 35 39  0  0  1  0  0  0  0  0999 V2000
  191.6770  174.5170  141.1400 N   0  0  0  0  0  0  0  0  0  0  0  0
  194.0850  174.5620  141.3190 C   0  0  0  0  0  3  0  0  0  0  0  0
  192.6790  175.5950  142.9870 C   0  0  0  0  0  0  0  0  0  0  0  0
  189.7150  175.9820  144.0190 C   0  0  0  0  0  0  0  0  0  0  0  0
  191.8250  176.5550  147.9050 C   0  0  0  0  0  2  0  0  0  0  0  0
  193.9290  177.0370  146.7180 C   0  0  0  0  0  3  0  0  0  0  0  0
  190.1850  175.5680  142.7260 N   0  0  0  0  0  2  0  0  0  0  0  0
  188.7440  176.8470  146.5050 C   0  0  0  0  0  3  0  0  0  0  0  0
  188.5750  176.7890  144.0920 C   0  0  0  0  0  3  0  0  0  0  0  0
  190.6010  175.6630  147.7030 C   0  0  0  0  0  2  0  0  0  0  0  0
  190.3360  175.5690  145.2060 C   0  0  0  0  0  3  0  0  0  0  0  0
  192.8020  176.2870  144.1310 N   0  0  0  0  0  0  0  0  0  0  0  0
  194.1010  176.3850  144.3940 N   0  0  0  0  0  0  0  0  0  0  0  0
  193.9170  175.2750  142.4980 C   0  0  0  0  0  0  0  0  0  0  0  0
  189.8660  176.0160  146.4470 C   0  0  0  0  0  0  0  0  0  0  0  0
  194.6330  176.9860  145.5850 C   0  0  0  0  0  3  0  0  0  0  0  0
  191.5150  175.2020  142.3130 C   0  0  0  0  0  0  0  0  0  0  0  0
  192.9110  174.1860  140.6410 C   0  0  0  0  0  3  0  0  0  0  0  0
  192.6840  176.4220  146.7890 O   0  0  0  0  0  0  0  0  0  0  0  0
  188.0800  177.2250  145.3330 C   0  0  0  0  0  0  0  0  0  0  0  0
  194.8150  175.7930  143.4070 C   0  0  0  0  0  0  0  0  0  0  0  0
  186.9210  178.0630  145.4350 N   0  0  0  0  0  2  0  0  0  0  0  0
  185.6040  177.6610  145.8320 C   0  0  0  0  0  0  0  0  0  0  0  0
  185.3500  176.4670  146.1390 O   0  0  0  0  0  0  0  0  0  0  0  0
  184.5180  178.6720  145.8810 C   0  0  0  0  0  1  0  0  0  0  0  0
  196.3040  175.7140  143.3390 C   0  0  0  0  0  2  0  0  0  0  0  0
  196.8250  174.8470  144.4690 C   0  0  0  0  0  2  0  0  0  0  0  0
  195.4690  173.1150  145.5840 C   0  0  1  0  0  3  0  0  0  0  0  0
  196.8670  172.5620  145.4080 C   0  0  0  0  0  2  0  0  0  0  0  0
  196.2670  173.4460  144.3370 C   0  0  2  0  0  3  0  0  0  0  0  0
  194.4950  172.0810  145.2740 N   0  0  0  0  0  2  0  0  0  0  0  0
  193.1880  172.7160  145.2770 C   0  0  0  0  0  2  0  0  0  0  0  0
  190.9670  172.1250  144.3160 O   0  0  0  0  0  1  0  0  0  0  0  0
  192.8940  171.7070  143.1450 O   0  0  0  0  0  0  0  0  0  0  0  0
  192.3500  172.1520  144.1870 C   0  0  0  0  0  0  0  0  0  0  0  0
  1 17  2  0  0  0  0
  2 14  1  0  0  0  0
  3 12  2  0  0  0  0
  4  9  2  0  0  0  0
  4 11  1  0  0  0  0
  6 19  1  0  0  0  0
  7  4  1  0  0  0  0
  9 20  1  0  0  0  0
 10  5  1  0  0  0  0
 11 15  2  0  0  0  0
 12 13  1  0  0  0  0
 13 16  1  0  0  0  0
 14  3  1  0  0  0  0
 14 21  2  0  0  0  0
 15  8  1  0  0  0  0
 15 10  1  0  0  0  0
 16  6  2  0  0  0  0
 17  7  1  0  0  0  0
 17  3  1  0  0  0  0
 18  1  1  0  0  0  0
 18  2  2  0  0  0  0
 19  5  1  0  0  0  0
 20 22  1  0  0  0  0
 20  8  2  0  0  0  0
 21 13  1  0  0  0  0
 22 23  1  0  0  0  0
 23 25  1  0  0  0  0
 23 24  2  0  0  0  0
 26 21  1  0  0  0  0
 26 27  1  0  0  0  0
 28 31  1  6  0  0  0
 29 28  1  0  0  0  0
 30 27  1  1  0  0  0
 30 29  1  0  0  0  0
 30 28  1  0  0  0  0
 31 32  1  0  0  0  0
 34 35  2  0  0  0  0
 35 33  1  0  0  0  0
 35 32  1  0  0  0  0
M  END
>  <MODEL>
8

>  <REMARK>
 VINA RESULT:      -7.4      4.339     10.585
  Name = 
  7 active torsions:
  status: ('A' for Active; 'I' for Inactive)
    1  A    between atoms: C_4  and  N_5
    2  A    between atoms: N_5  and  C_7
    3  A    between atoms: C_7  and  C_20
    4  A    between atoms: N_8  and  C_34
    5  A    between atoms: C_21  and  C_23
    6  A    between atoms: C_21  and  C_30
    7  A    between atoms: C_23  and  C_35
                            x       y       z     vdW  Elec       q    Type
                         _______ _______ _______ _____ _____    ______ ____

>  <TORSDO>
F 7

$$$$
=
 OpenBabel11062420103D

 35 39  0  0  1  0  0  0  0  0999 V2000
  190.0100  176.5670  146.3140 N   0  0  0  0  0  0  0  0  0  0  0  0
  188.4520  177.5960  144.7830 C   0  0  0  0  0  3  0  0  0  0  0  0
  189.8630  175.7610  144.1000 C   0  0  0  0  0  0  0  0  0  0  0  0
  191.9070  173.5480  145.0620 C   0  0  0  0  0  0  0  0  0  0  0  0
  190.3350  171.4420  141.4590 C   0  0  0  0  0  2  0  0  0  0  0  0
  189.5190  173.5780  140.5390 C   0  0  0  0  0  3  0  0  0  0  0  0
  191.5030  174.7630  145.7130 N   0  0  0  0  0  2  0  0  0  0  0  0
  192.7770  171.1940  143.8060 C   0  0  0  0  0  3  0  0  0  0  0  0
  193.2340  173.1260  145.1890 C   0  0  0  0  0  3  0  0  0  0  0  0
  190.4980  170.8040  142.8370 C   0  0  0  0  0  2  0  0  0  0  0  0
  191.0040  172.7520  144.3420 C   0  0  0  0  0  3  0  0  0  0  0  0
  190.1130  175.0250  143.0050 N   0  0  0  0  0  0  0  0  0  0  0  0
  189.2990  175.4580  142.0460 N   0  0  0  0  0  0  0  0  0  0  0  0
  188.9010  176.6950  143.8260 C   0  0  0  0  0  0  0  0  0  0  0  0
  191.4410  171.5880  143.6970 C   0  0  0  0  0  0  0  0  0  0  0  0
  189.2090  174.8600  140.7440 C   0  0  0  0  0  3  0  0  0  0  0  0
  190.4350  175.6680  145.3760 C   0  0  0  0  0  0  0  0  0  0  0  0
  189.0450  177.5070  146.0560 C   0  0  0  0  0  3  0  0  0  0  0  0
  189.8590  172.7660  141.6150 O   0  0  0  0  0  0  0  0  0  0  0  0
  193.6790  171.9490  144.5660 C   0  0  0  0  0  0  0  0  0  0  0  0
  188.5560  176.4920  142.5070 C   0  0  0  0  0  0  0  0  0  0  0  0
  195.0370  171.5010  144.6690 N   0  0  0  0  0  2  0  0  0  0  0  0
  195.5580  170.5500  145.6050 C   0  0  0  0  0  0  0  0  0  0  0  0
  194.8160  170.0000  146.4600 O   0  0  0  0  0  0  0  0  0  0  0  0
  197.0020  170.2040  145.5650 C   0  0  0  0  0  1  0  0  0  0  0  0
  187.5420  177.2530  141.7190 C   0  0  0  0  0  2  0  0  0  0  0  0
  186.1540  176.9690  142.2580 C   0  0  0  0  0  2  0  0  0  0  0  0
  184.6240  177.9270  143.9390 C   0  0  1  0  0  3  0  0  0  0  0  0
  184.0310  178.1940  142.5710 C   0  0  0  0  0  2  0  0  0  0  0  0
  185.5300  178.2510  142.7660 C   0  0  2  0  0  3  0  0  0  0  0  0
  184.4720  179.1080  144.7720 N   0  0  0  0  0  2  0  0  0  0  0  0
  184.0570  178.6470  146.0870 C   0  0  0  0  0  2  0  0  0  0  0  0
  185.6870  177.1710  147.2560 O   0  0  0  0  0  0  0  0  0  0  0  0
  185.8640  179.4520  147.4060 O   0  0  0  0  0  1  0  0  0  0  0  0
  185.2490  178.4530  146.9530 C   0  0  0  0  0  0  0  0  0  0  0  0
  2 18  2  0  0  0  0
  3 17  1  0  0  0  0
  4  9  1  0  0  0  0
  4  7  1  0  0  0  0
  5 19  1  0  0  0  0
  5 10  1  0  0  0  0
  6 16  2  0  0  0  0
  6 19  1  0  0  0  0
  8 20  1  0  0  0  0
 10 15  1  0  0  0  0
 11  4  2  0  0  0  0
 12  3  2  0  0  0  0
 13 21  1  0  0  0  0
 13 12  1  0  0  0  0
 14  3  1  0  0  0  0
 14  2  1  0  0  0  0
 15  8  2  0  0  0  0
 15 11  1  0  0  0  0
 16 13  1  0  0  0  0
 17  7  1  0  0  0  0
 17  1  2  0  0  0  0
 18  1  1  0  0  0  0
 20 22  1  0  0  0  0
 20  9  2  0  0  0  0
 21 14  2  0  0  0  0
 22 23  1  0  0  0  0
 23 24  2  0  0  0  0
 25 23  1  0  0  0  0
 26 27  1  0  0  0  0
 26 21  1  0  0  0  0
 28 31  1  1  0  0  0
 29 30  1  0  0  0  0
 29 28  1  0  0  0  0
 30 27  1  6  0  0  0
 30 28  1  0  0  0  0
 31 32  1  0  0  0  0
 32 35  1  0  0  0  0
 35 33  2  0  0  0  0
 35 34  1  0  0  0  0
M  END
>  <MODEL>
9

>  <REMARK>
 VINA RESULT:      -7.3      3.549      5.257
  Name = 
  7 active torsions:
  status: ('A' for Active; 'I' for Inactive)
    1  A    between atoms: C_4  and  N_5
    2  A    between atoms: N_5  and  C_7
    3  A    between atoms: C_7  and  C_20
    4  A    between atoms: N_8  and  C_34
    5  A    between atoms: C_21  and  C_23
    6  A    between atoms: C_21  and  C_30
    7  A    between atoms: C_23  and  C_35
                            x       y       z     vdW  Elec       q    Type
                         _______ _______ _______ _____ _____    ______ ____

>  <TORSDO>
F 7

$$$$
