=
 OpenBabel11062420233D

 53 60  0  0  1  0  0  0  0  0999 V2000
  189.6650  174.1360  139.8120 O   0  0  0  0  0  0  0  0  0  0  0  0
  191.0140  172.4380  141.2390 C   0  0  1  0  0  3  0  0  0  0  0  0
  189.2430  173.1770  138.8700 C   0  0  0  0  0  2  0  0  0  0  0  0
  190.6780  171.3930  140.1430 C   0  0  2  0  0  3  0  0  0  0  0  0
  189.4130  171.7120  139.3260 C   0  0  0  0  0  2  0  0  0  0  0  0
  188.9730  173.9080  141.0150 C   0  0  2  0  0  3  0  0  0  0  0  0
  189.7970  174.4530  142.1720 C   0  0  2  0  0  3  0  0  0  0  0  0
  189.7550  172.9600  141.9480 C   0  0  2  0  0  3  0  0  0  0  0  0
  193.5520  172.1350  141.8590 C   0  0  1  0  0  3  0  0  0  0  0  0
  192.8430  173.0930  142.8080 C   0  0  0  0  0  2  0  0  0  0  0  0
  192.0650  171.9270  142.2180 C   0  0  1  0  0  3  0  0  0  0  0  0
  193.8600  172.0860  138.9010 S   0  0  0  0  0  0  0  0  0  0  0  0
  194.0500  172.8310  140.5550 C   0  0  0  0  0  0  0  0  0  0  0  0
  193.6790  174.6190  140.5090 S   0  0  0  0  0  0  0  0  0  0  0  0
  196.3970  174.2550  140.7700 C   0  0  2  0  0  3  0  0  0  0  0  0
  197.0080  175.4110  138.1680 C   0  0  2  0  0  3  0  0  0  0  0  0
  195.5810  174.9830  138.5300 C   0  0  0  0  0  2  0  0  0  0  0  0
  197.6740  174.1570  140.1400 O   0  0  0  0  0  0  0  0  0  0  0  0
  197.4890  174.5890  137.1480 O   0  0  0  0  0  1  0  0  0  0  0  0
  197.9410  175.3230  139.3870 C   0  0  0  0  0  2  0  0  0  0  0  0
  195.3610  175.1190  140.0280 C   0  0  1  0  0  3  0  0  0  0  0  0
  196.5330  174.6800  142.2280 C   0  0  0  0  0  2  0  0  0  0  0  0
  196.3810  176.1230  142.3470 N   0  0  0  0  0  2  0  0  0  0  0  0
  196.0420  176.4250  143.7330 C   0  0  0  0  0  2  0  0  0  0  0  0
  194.8970  174.8570  145.1610 O   0  0  0  0  0  0  0  0  0  0  0  0
  193.7400  176.8380  144.5560 C   0  0  1  0  0  3  0  0  0  0  0  0
  193.0560  175.4270  146.5670 C   0  0  0  0  0  2  0  0  0  0  0  0
  193.6890  176.7220  146.0640 C   0  0  1  0  0  3  0  0  0  0  0  0
  194.7130  175.7700  144.1090 C   0  0  1  0  0  3  0  0  0  0  0  0
  194.5550  175.5150  146.3590 C   0  0  2  0  0  3  0  0  0  0  0  0
  192.3720  176.6280  143.9270 C   0  0  0  0  0  2  0  0  0  0  0  0
  191.7470  177.8540  143.7030 O   0  0  0  0  0  1  0  0  0  0  0  0
  190.6660  169.2750  139.7370 O   0  0  0  0  0  1  0  0  0  0  0  0
  190.5130  170.1290  140.7240 O   0  0  0  0  0  0  0  0  0  0  0  0
  188.8710  174.7690  143.3410 C   0  0  0  0  0  2  0  0  0  0  0  0
  187.7850  178.1080  145.0210 C   0  0  0  0  0  2  0  0  0  0  0  0
  185.3910  178.5090  142.4430 C   0  0  2  0  0  3  0  0  0  0  0  0
  185.6290  175.8870  145.1090 F   0  0  0  0  0  0  0  0  0  0  0  0
  188.2400  176.6510  144.9270 C   0  0  1  0  0  3  0  0  0  0  0  0
  188.6600  176.2770  143.5040 C   0  0  2  0  0  3  0  0  0  0  0  0
  185.3880  177.1230  144.5340 C   0  0  2  0  0  3  0  0  0  0  0  0
  185.8460  179.4380  144.3790 O   0  0  0  0  0  0  0  0  0  0  0  0
  189.3420  176.3620  145.9350 C   0  0  0  0  0  1  0  0  0  0  0  0
  187.8310  176.8730  142.5160 O   0  0  0  0  0  0  0  0  0  0  0  0
  186.3060  179.3170  143.1350 O   0  0  0  0  0  0  0  0  0  0  0  0
  185.4340  177.0720  143.0060 C   0  0  2  0  0  3  0  0  0  0  0  0
  186.2440  178.2940  145.1160 C   0  0  2  0  0  0  0  0  0  0  0  0
  186.5880  176.2070  142.4870 C   0  0  0  0  0  2  0  0  0  0  0  0
  185.8820  178.5210  146.5750 C   0  0  0  0  0  0  0  0  0  0  0  0
  184.4630  178.3850  147.0340 C   0  0  0  0  0  1  0  0  0  0  0  0
  186.8270  178.4370  147.5190 C   0  0  0  0  0  2  0  0  0  0  0  0
  184.5160  178.2680  140.3760 O   0  0  0  0  0  1  0  0  0  0  0  0
  185.6820  178.5250  141.0180 N   0  0  0  0  0  2  0  0  0  0  0  0
  2  8  1  0  0  0  0
  2 11  1  1  0  0  0
  3  5  1  0  0  0  0
  3  1  1  0  0  0  0
  4 34  1  1  0  0  0
  4  2  1  0  0  0  0
  5  4  1  0  0  0  0
  6  1  1  6  0  0  0
  6  8  1  0  0  0  0
  6  7  1  0  0  0  0
  7 35  1  1  0  0  0
  8  7  1  0  0  0  0
  9 11  1  0  0  0  0
  9 10  1  0  0  0  0
 11 10  1  0  0  0  0
 12 13  2  0  0  0  0
 13  9  1  0  0  0  0
 14 13  1  0  0  0  0
 15 22  1  0  0  0  0
 16 17  1  0  0  0  0
 16 20  1  0  0  0  0
 17 21  1  0  0  0  0
 18 15  1  0  0  0  0
 19 16  1  0  0  0  0
 20 18  1  0  0  0  0
 21 14  1  0  0  0  0
 21 15  1  0  0  0  0
 22 23  1  0  0  0  0
 23 24  1  0  0  0  0
 24 29  1  0  0  0  0
 25 30  1  0  0  0  0
 26 28  1  0  0  0  0
 28 30  1  0  0  0  0
 28 27  1  0  0  0  0
 29 26  1  0  0  0  0
 29 25  1  0  0  0  0
 30 27  1  0  0  0  0
 31 26  1  0  0  0  0
 32 31  1  0  0  0  0
 33 34  1  0  0  0  0
 35 40  1  0  0  0  0
 36 47  1  0  0  0  0
 37 46  1  0  0  0  0
 37 45  1  0  0  0  0
 39 36  1  0  0  0  0
 39 43  1  0  0  0  0
 40 39  1  0  0  0  0
 41 38  1  0  0  0  0
 41 47  1  0  0  0  0
 42 47  1  0  0  0  0
 44 40  1  0  0  0  0
 45 42  1  0  0  0  0
 46 41  1  0  0  0  0
 47 49  1  0  0  0  0
 48 44  1  0  0  0  0
 48 46  1  0  0  0  0
 49 50  1  0  0  0  0
 49 51  2  0  0  0  0
 52 53  1  0  0  0  0
 53 37  1  0  0  0  0
M  END
>  <MODEL>
1

>  <REMARK>
 VINA RESULT:      -7.7      0.000      0.000
  Name = 
  14 active torsions:
  status: ('A' for Active; 'I' for Inactive)
    1  A    between atoms: C_2  and  C_49
    2  A    between atoms: C_5  and  C_21
    3  A    between atoms: C_5  and  S_40
    4  A    between atoms: C_6  and  C_8
    5  A    between atoms: C_7  and  C_45
    6  A    between atoms: C_11  and  N_37
    7  A    between atoms: C_13  and  C_48
    8  A    between atoms: O_14  and  C_22
    9  A    between atoms: N_19  and  C_28
   10  A    between atoms: N_19  and  C_49
   11  A    between atoms: C_23  and  C_31
   12  A    between atoms: C_28  and  C_41
   13  A    between atoms: C_31  and  C_42
   14  A    between atoms: S_40  and  C_47
                            x       y       z     vdW  Elec       q    Type
                         _______ _______ _______ _____ _____    ______ ____

>  <TORSDO>
F 14

$$$$
=
 OpenBabel11062420233D

 53 60  0  0  1  0  0  0  0  0999 V2000
  192.2760  172.0970  143.8230 O   0  0  0  0  0  0  0  0  0  0  0  0
  193.2890  174.4770  144.0480 C   0  0  1  0  0  3  0  0  0  0  0  0
  193.2110  171.4970  144.6880 C   0  0  0  0  0  2  0  0  0  0  0  0
  194.4100  173.8170  144.8930 C   0  0  2  0  0  3  0  0  0  0  0  0
  194.0070  172.4910  145.5620 C   0  0  0  0  0  2  0  0  0  0  0  0
  191.4040  172.8880  144.5940 C   0  0  2  0  0  3  0  0  0  0  0  0
  190.8260  173.9890  143.7180 C   0  0  2  0  0  3  0  0  0  0  0  0
  191.9090  174.3410  144.7100 C   0  0  2  0  0  3  0  0  0  0  0  0
  194.4990  176.1650  142.4350 C   0  0  1  0  0  3  0  0  0  0  0  0
  192.9820  176.2790  142.3470 C   0  0  0  0  0  2  0  0  0  0  0  0
  193.6200  175.9190  143.6800 C   0  0  1  0  0  3  0  0  0  0  0  0
  196.2450  173.7750  142.1460 S   0  0  0  0  0  0  0  0  0  0  0  0
  195.0760  175.0320  141.5310 C   0  0  0  0  0  0  0  0  0  0  0  0
  193.8220  174.2760  140.4400 S   0  0  0  0  0  0  0  0  0  0  0  0
  194.2230  173.3250  137.8860 C   0  0  2  0  0  3  0  0  0  0  0  0
  196.7120  174.7880  137.5120 C   0  0  2  0  0  3  0  0  0  0  0  0
  195.7480  175.1430  138.6490 C   0  0  0  0  0  2  0  0  0  0  0  0
  194.8720  173.4750  136.6230 O   0  0  0  0  0  0  0  0  0  0  0  0
  196.7570  175.8450  136.6010 O   0  0  0  0  0  1  0  0  0  0  0  0
  196.2740  173.5020  136.7920 C   0  0  0  0  0  2  0  0  0  0  0  0
  194.9860  173.9040  139.0920 C   0  0  1  0  0  3  0  0  0  0  0  0
  193.8190  171.8750  138.1300 C   0  0  0  0  0  2  0  0  0  0  0  0
  192.5680  171.5810  137.4470 N   0  0  0  0  0  2  0  0  0  0  0  0
  191.7040  172.7490  137.5730 C   0  0  0  0  0  2  0  0  0  0  0  0
  190.5750  171.5220  139.3130 O   0  0  0  0  0  0  0  0  0  0  0  0
  189.6440  173.6030  138.6570 C   0  0  1  0  0  3  0  0  0  0  0  0
  189.0800  172.5080  140.8890 C   0  0  0  0  0  2  0  0  0  0  0  0
  189.8110  173.6320  140.1610 C   0  0  1  0  0  3  0  0  0  0  0  0
  190.3670  172.3560  138.2010 C   0  0  1  0  0  3  0  0  0  0  0  0
  190.5240  172.3310  140.4660 C   0  0  2  0  0  3  0  0  0  0  0  0
  188.1790  173.5650  138.2520 C   0  0  0  0  0  2  0  0  0  0  0  0
  187.7560  174.8260  137.8360 O   0  0  0  0  0  1  0  0  0  0  0  0
  196.0880  174.3820  146.1250 O   0  0  0  0  0  1  0  0  0  0  0  0
  194.8330  174.6980  145.8950 O   0  0  0  0  0  0  0  0  0  0  0  0
  189.4970  174.4500  144.3040 C   0  0  0  0  0  2  0  0  0  0  0  0
  188.0030  178.0060  144.8310 C   0  0  0  0  0  2  0  0  0  0  0  0
  186.4510  177.7120  141.6610 C   0  0  2  0  0  3  0  0  0  0  0  0
  185.8940  175.7390  144.7970 F   0  0  0  0  0  0  0  0  0  0  0  0
  188.4540  176.5900  145.1920 C   0  0  1  0  0  3  0  0  0  0  0  0
  189.2610  175.9440  144.0630 C   0  0  2  0  0  3  0  0  0  0  0  0
  185.8380  176.8070  143.9200 C   0  0  2  0  0  3  0  0  0  0  0  0
  186.3400  179.0570  143.3920 O   0  0  0  0  0  0  0  0  0  0  0  0
  189.2190  176.5850  146.5070 C   0  0  0  0  0  1  0  0  0  0  0  0
  188.7540  176.2680  142.7770 O   0  0  0  0  0  0  0  0  0  0  0  0
  187.1360  178.6990  142.3860 O   0  0  0  0  0  0  0  0  0  0  0  0
  186.3190  176.4340  142.5170 C   0  0  2  0  0  3  0  0  0  0  0  0
  186.5000  178.1210  144.4450 C   0  0  2  0  0  0  0  0  0  0  0  0
  187.5660  175.5430  142.5470 C   0  0  0  0  0  2  0  0  0  0  0  0
  185.7380  178.6350  145.6550 C   0  0  0  0  0  0  0  0  0  0  0  0
  184.2600  178.8580  145.5820 C   0  0  0  0  0  1  0  0  0  0  0  0
  186.2630  178.5070  146.8800 C   0  0  0  0  0  2  0  0  0  0  0  0
  186.1810  177.3010  139.4590 O   0  0  0  0  0  1  0  0  0  0  0  0
  187.1370  177.4380  140.4090 N   0  0  0  0  0  2  0  0  0  0  0  0
  1  3  1  0  0  0  0
  2 11  1  1  0  0  0
  2  8  1  0  0  0  0
  2  4  1  0  0  0  0
  3  5  1  0  0  0  0
  4  5  1  0  0  0  0
  4 34  1  1  0  0  0
  6  1  1  6  0  0  0
  6  8  1  0  0  0  0
  7 35  1  1  0  0  0
  7  6  1  0  0  0  0
  7  8  1  0  0  0  0
  9 11  1  0  0  0  0
 10  9  1  0  0  0  0
 10 11  1  0  0  0  0
 13 12  2  0  0  0  0
 13  9  1  0  0  0  0
 14 13  1  0  0  0  0
 15 22  1  0  0  0  0
 15 21  1  0  0  0  0
 16 17  1  0  0  0  0
 17 21  1  0  0  0  0
 18 20  1  0  0  0  0
 18 15  1  0  0  0  0
 19 16  1  0  0  0  0
 20 16  1  0  0  0  0
 21 14  1  0  0  0  0
 23 24  1  0  0  0  0
 23 22  1  0  0  0  0
 24 29  1  0  0  0  0
 25 30  1  0  0  0  0
 26 28  1  0  0  0  0
 28 30  1  0  0  0  0
 28 27  1  0  0  0  0
 29 26  1  0  0  0  0
 29 25  1  0  0  0  0
 30 27  1  0  0  0  0
 31 26  1  0  0  0  0
 32 31  1  0  0  0  0
 34 33  1  0  0  0  0
 36 39  1  0  0  0  0
 37 45  1  0  0  0  0
 37 46  1  0  0  0  0
 39 43  1  0  0  0  0
 40 35  1  0  0  0  0
 40 39  1  0  0  0  0
 41 47  1  0  0  0  0
 41 38  1  0  0  0  0
 42 47  1  0  0  0  0
 44 40  1  0  0  0  0
 45 42  1  0  0  0  0
 46 48  1  0  0  0  0
 46 41  1  0  0  0  0
 47 36  1  0  0  0  0
 47 49  1  0  0  0  0
 48 44  1  0  0  0  0
 49 51  2  0  0  0  0
 50 49  1  0  0  0  0
 52 53  1  0  0  0  0
 53 37  1  0  0  0  0
M  END
>  <MODEL>
2

>  <REMARK>
 VINA RESULT:      -7.5      2.034      4.763
  Name = 
  14 active torsions:
  status: ('A' for Active; 'I' for Inactive)
    1  A    between atoms: C_2  and  C_49
    2  A    between atoms: C_5  and  C_21
    3  A    between atoms: C_5  and  S_40
    4  A    between atoms: C_6  and  C_8
    5  A    between atoms: C_7  and  C_45
    6  A    between atoms: C_11  and  N_37
    7  A    between atoms: C_13  and  C_48
    8  A    between atoms: O_14  and  C_22
    9  A    between atoms: N_19  and  C_28
   10  A    between atoms: N_19  and  C_49
   11  A    between atoms: C_23  and  C_31
   12  A    between atoms: C_28  and  C_41
   13  A    between atoms: C_31  and  C_42
   14  A    between atoms: S_40  and  C_47
                            x       y       z     vdW  Elec       q    Type
                         _______ _______ _______ _____ _____    ______ ____

>  <TORSDO>
F 14

$$$$
=
 OpenBabel11062420233D

 53 60  0  0  1  0  0  0  0  0999 V2000
  191.7580  174.0680  140.7950 O   0  0  0  0  0  0  0  0  0  0  0  0
  191.1430  171.5840  141.2250 C   0  0  1  0  0  3  0  0  0  0  0  0
  191.7240  173.9480  139.3910 C   0  0  0  0  0  2  0  0  0  0  0  0
  191.2340  171.3930  139.6880 C   0  0  2  0  0  3  0  0  0  0  0  0
  191.0150  172.6790  138.8730 C   0  0  0  0  0  2  0  0  0  0  0  0
  190.4370  174.0070  141.2750 C   0  0  2  0  0  3  0  0  0  0  0  0
  190.4540  173.5120  142.7140 C   0  0  2  0  0  3  0  0  0  0  0  0
  190.0260  172.5610  141.6220 C   0  0  2  0  0  3  0  0  0  0  0  0
  192.3520  169.6000  142.4570 C   0  0  1  0  0  3  0  0  0  0  0  0
  191.4900  170.4220  143.4080 C   0  0  0  0  0  2  0  0  0  0  0  0
  191.0440  170.2530  141.9640 C   0  0  1  0  0  3  0  0  0  0  0  0
  194.5080  170.4510  140.5940 S   0  0  0  0  0  0  0  0  0  0  0  0
  193.7720  170.2100  142.2450 C   0  0  0  0  0  0  0  0  0  0  0  0
  194.1040  171.6480  143.3200 S   0  0  0  0  0  0  0  0  0  0  0  0
  196.1400  171.8520  145.1650 C   0  0  2  0  0  3  0  0  0  0  0  0
  195.9150  169.0800  146.0250 C   0  0  2  0  0  3  0  0  0  0  0  0
  194.8010  169.7500  145.2130 C   0  0  0  0  0  2  0  0  0  0  0  0
  196.7790  171.3310  146.3290 O   0  0  0  0  0  0  0  0  0  0  0  0
  195.4400  168.7960  147.3070 O   0  0  0  0  0  1  0  0  0  0  0  0
  197.1550  169.9840  146.1210 C   0  0  0  0  0  2  0  0  0  0  0  0
  195.3890  170.8190  144.3050 C   0  0  1  0  0  3  0  0  0  0  0  0
  197.1110  172.6740  144.3230 C   0  0  0  0  0  2  0  0  0  0  0  0
  197.0080  174.0830  144.6700 N   0  0  0  0  0  2  0  0  0  0  0  0
  195.9680  174.2200  145.6830 C   0  0  0  0  0  2  0  0  0  0  0  0
  195.1840  175.8550  144.0940 O   0  0  0  0  0  0  0  0  0  0  0  0
  193.7380  175.2870  145.8880 C   0  0  1  0  0  3  0  0  0  0  0  0
  192.8860  176.3950  143.7560 C   0  0  0  0  0  2  0  0  0  0  0  0
  192.9560  175.1270  144.6020 C   0  0  1  0  0  3  0  0  0  0  0  0
  195.1710  175.5050  145.4560 C   0  0  1  0  0  3  0  0  0  0  0  0
  193.9880  175.3810  143.5220 C   0  0  2  0  0  3  0  0  0  0  0  0
  193.2330  176.4580  146.7150 C   0  0  0  0  0  2  0  0  0  0  0  0
  194.2630  177.3670  146.9510 O   0  0  0  0  0  1  0  0  0  0  0  0
  190.8200  169.8850  138.2020 O   0  0  0  0  0  1  0  0  0  0  0  0
  190.2920  170.4460  139.2680 O   0  0  0  0  0  0  0  0  0  0  0  0
  189.1950  173.9940  143.4250 C   0  0  0  0  0  2  0  0  0  0  0  0
  188.3140  177.5190  144.8220 C   0  0  0  0  0  2  0  0  0  0  0  0
  186.2520  178.0150  141.9870 C   0  0  2  0  0  3  0  0  0  0  0  0
  185.9320  175.5410  144.7830 F   0  0  0  0  0  0  0  0  0  0  0  0
  188.6160  176.0200  144.8450 C   0  0  1  0  0  3  0  0  0  0  0  0
  189.1340  175.5230  143.4930 C   0  0  2  0  0  3  0  0  0  0  0  0
  185.8860  176.7600  144.1290 C   0  0  2  0  0  3  0  0  0  0  0  0
  186.6060  179.0020  143.9150 O   0  0  0  0  0  0  0  0  0  0  0  0
  189.5730  175.6770  145.9770 C   0  0  0  0  0  1  0  0  0  0  0  0
  188.4790  176.1430  142.3960 O   0  0  0  0  0  0  0  0  0  0  0  0
  187.1740  178.7630  142.7340 O   0  0  0  0  0  0  0  0  0  0  0  0
  186.0810  176.6170  142.6190 C   0  0  2  0  0  3  0  0  0  0  0  0
  186.8010  177.8680  144.7430 C   0  0  2  0  0  0  0  0  0  0  0  0
  187.1800  175.6090  142.2660 C   0  0  0  0  0  2  0  0  0  0  0  0
  186.3200  178.2150  146.1430 C   0  0  0  0  0  0  0  0  0  0  0  0
  184.8560  178.2820  146.4470 C   0  0  0  0  0  1  0  0  0  0  0  0
  187.1420  178.0630  147.1880 C   0  0  0  0  0  2  0  0  0  0  0  0
  185.5950  177.5790  139.8730 O   0  0  0  0  0  1  0  0  0  0  0  0
  186.6850  177.9190  140.6020 N   0  0  0  0  0  2  0  0  0  0  0  0
  2  8  1  0  0  0  0
  2 11  1  1  0  0  0
  3  1  1  0  0  0  0
  4 34  1  6  0  0  0
  4  2  1  0  0  0  0
  5  3  1  0  0  0  0
  5  4  1  0  0  0  0
  6  1  1  6  0  0  0
  6  8  1  0  0  0  0
  6  7  1  0  0  0  0
  7 35  1  1  0  0  0
  8  7  1  0  0  0  0
  9 10  1  0  0  0  0
 11  9  1  0  0  0  0
 11 10  1  0  0  0  0
 12 13  2  0  0  0  0
 13  9  1  0  0  0  0
 13 14  1  0  0  0  0
 14 21  1  0  0  0  0
 15 18  1  0  0  0  0
 16 20  1  0  0  0  0
 16 19  1  0  0  0  0
 17 16  1  0  0  0  0
 20 18  1  0  0  0  0
 21 15  1  0  0  0  0
 21 17  1  0  0  0  0
 22 23  1  0  0  0  0
 22 15  1  0  0  0  0
 23 24  1  0  0  0  0
 25 29  1  0  0  0  0
 26 31  1  0  0  0  0
 27 28  1  0  0  0  0
 28 26  1  0  0  0  0
 29 24  1  0  0  0  0
 29 26  1  0  0  0  0
 30 27  1  0  0  0  0
 30 25  1  0  0  0  0
 30 28  1  0  0  0  0
 31 32  1  0  0  0  0
 33 34  1  0  0  0  0
 35 40  1  0  0  0  0
 36 39  1  0  0  0  0
 37 46  1  0  0  0  0
 37 45  1  0  0  0  0
 39 43  1  0  0  0  0
 40 39  1  0  0  0  0
 41 47  1  0  0  0  0
 41 38  1  0  0  0  0
 42 47  1  0  0  0  0
 44 40  1  0  0  0  0
 45 42  1  0  0  0  0
 46 41  1  0  0  0  0
 47 36  1  0  0  0  0
 47 49  1  0  0  0  0
 48 44  1  0  0  0  0
 48 46  1  0  0  0  0
 49 50  1  0  0  0  0
 49 51  2  0  0  0  0
 52 53  1  0  0  0  0
 53 37  1  0  0  0  0
M  END
>  <MODEL>
3

>  <REMARK>
 VINA RESULT:      -7.3      2.400      3.582
  Name = 
  14 active torsions:
  status: ('A' for Active; 'I' for Inactive)
    1  A    between atoms: C_2  and  C_49
    2  A    between atoms: C_5  and  C_21
    3  A    between atoms: C_5  and  S_40
    4  A    between atoms: C_6  and  C_8
    5  A    between atoms: C_7  and  C_45
    6  A    between atoms: C_11  and  N_37
    7  A    between atoms: C_13  and  C_48
    8  A    between atoms: O_14  and  C_22
    9  A    between atoms: N_19  and  C_28
   10  A    between atoms: N_19  and  C_49
   11  A    between atoms: C_23  and  C_31
   12  A    between atoms: C_28  and  C_41
   13  A    between atoms: C_31  and  C_42
   14  A    between atoms: S_40  and  C_47
                            x       y       z     vdW  Elec       q    Type
                         _______ _______ _______ _____ _____    ______ ____

>  <TORSDO>
F 14

$$$$
=
 OpenBabel11062420233D

 53 60  0  0  1  0  0  0  0  0999 V2000
  193.8330  173.1420  139.8480 O   0  0  0  0  0  0  0  0  0  0  0  0
  191.8980  171.6200  140.6720 C   0  0  1  0  0  3  0  0  0  0  0  0
  193.7450  172.7170  138.5080 C   0  0  0  0  0  2  0  0  0  0  0  0
  191.8720  171.0350  139.2350 C   0  0  2  0  0  3  0  0  0  0  0  0
  192.4380  171.9750  138.1550 C   0  0  0  0  0  2  0  0  0  0  0  0
  192.7140  173.9470  140.1310 C   0  0  2  0  0  3  0  0  0  0  0  0
  192.4360  173.9030  141.6260 C   0  0  2  0  0  3  0  0  0  0  0  0
  191.5440  173.1150  140.6960 C   0  0  2  0  0  3  0  0  0  0  0  0
  191.7710  169.8300  142.5950 C   0  0  1  0  0  3  0  0  0  0  0  0
  191.3470  171.2140  143.0730 C   0  0  0  0  0  2  0  0  0  0  0  0
  191.0480  170.8040  141.6400 C   0  0  1  0  0  3  0  0  0  0  0  0
  194.2550  168.9260  141.2320 S   0  0  0  0  0  0  0  0  0  0  0  0
  193.3170  169.6240  142.6310 C   0  0  0  0  0  0  0  0  0  0  0  0
  194.2120  171.0300  143.3770 S   0  0  0  0  0  0  0  0  0  0  0  0
  196.0780  170.9100  145.3990 C   0  0  2  0  0  3  0  0  0  0  0  0
  195.0100  168.4430  146.5170 C   0  0  2  0  0  3  0  0  0  0  0  0
  194.1970  169.2800  145.5230 C   0  0  0  0  0  2  0  0  0  0  0  0
  196.4550  170.3910  146.6740 O   0  0  0  0  0  0  0  0  0  0  0  0
  194.3810  168.4700  147.7630 O   0  0  0  0  0  1  0  0  0  0  0  0
  196.4460  168.9780  146.6510 C   0  0  0  0  0  2  0  0  0  0  0  0
  195.1310  170.0170  144.5770 C   0  0  1  0  0  3  0  0  0  0  0  0
  197.3030  171.3160  144.5860 C   0  0  0  0  0  2  0  0  0  0  0  0
  197.6570  172.7000  144.8680 N   0  0  0  0  0  2  0  0  0  0  0  0
  196.4230  173.4320  145.1320 C   0  0  0  0  0  2  0  0  0  0  0  0
  197.4430  175.0620  143.6780 O   0  0  0  0  0  0  0  0  0  0  0  0
  195.2540  175.5170  144.4720 C   0  0  1  0  0  3  0  0  0  0  0  0
  196.2230  176.6800  142.4210 C   0  0  0  0  0  2  0  0  0  0  0  0
  195.2310  175.6550  142.9660 C   0  0  1  0  0  3  0  0  0  0  0  0
  196.6020  174.9120  144.7940 C   0  0  1  0  0  3  0  0  0  0  0  0
  196.6210  175.2230  142.5460 C   0  0  2  0  0  3  0  0  0  0  0  0
  195.0770  176.8580  145.1660 C   0  0  0  0  0  2  0  0  0  0  0  0
  194.4150  176.6930  146.3810 O   0  0  0  0  0  1  0  0  0  0  0  0
  190.6530  169.5460  138.2620 O   0  0  0  0  0  1  0  0  0  0  0  0
  190.5600  170.7030  138.8780 O   0  0  0  0  0  0  0  0  0  0  0  0
  191.6780  175.1620  142.0320 C   0  0  0  0  0  2  0  0  0  0  0  0
  188.2200  175.4530  143.7940 C   0  0  0  0  0  2  0  0  0  0  0  0
  189.9110  176.5330  146.7120 C   0  0  2  0  0  3  0  0  0  0  0  0
  189.6450  178.1640  143.3490 F   0  0  0  0  0  0  0  0  0  0  0  0
  189.2500  175.5540  142.6690 C   0  0  1  0  0  3  0  0  0  0  0  0
  190.5610  174.8510  143.0320 C   0  0  2  0  0  3  0  0  0  0  0  0
  189.2610  177.7350  144.6070 C   0  0  2  0  0  3  0  0  0  0  0  0
  187.8410  176.4440  145.9880 O   0  0  0  0  0  0  0  0  0  0  0  0
  188.6750  175.0350  141.3600 C   0  0  0  0  0  1  0  0  0  0  0  0
  190.9150  175.0280  144.3960 O   0  0  0  0  0  0  0  0  0  0  0  0
  188.8480  175.6730  146.3950 O   0  0  0  0  0  0  0  0  0  0  0  0
  190.4390  177.2050  145.4250 C   0  0  2  0  0  3  0  0  0  0  0  0
  188.0410  176.7580  144.6210 C   0  0  2  0  0  0  0  0  0  0  0  0
  191.3900  176.3420  144.5880 C   0  0  0  0  0  2  0  0  0  0  0  0
  186.8010  177.4750  144.1130 C   0  0  0  0  0  0  0  0  0  0  0  0
  185.8310  176.7710  143.2160 C   0  0  0  0  0  1  0  0  0  0  0  0
  186.3440  178.5570  144.7560 C   0  0  0  0  0  2  0  0  0  0  0  0
  191.3430  176.5540  148.4560 O   0  0  0  0  0  1  0  0  0  0  0  0
  190.9660  175.8010  147.3940 N   0  0  0  0  0  2  0  0  0  0  0  0
  2  8  1  0  0  0  0
  2 11  1  1  0  0  0
  3  1  1  0  0  0  0
  4 34  1  6  0  0  0
  4  2  1  0  0  0  0
  5  3  1  0  0  0  0
  5  4  1  0  0  0  0
  6  1  1  1  0  0  0
  6  8  1  0  0  0  0
  6  7  1  0  0  0  0
  7 35  1  6  0  0  0
  8  7  1  0  0  0  0
  9 13  1  0  0  0  0
  9 10  1  0  0  0  0
 11  9  1  0  0  0  0
 11 10  1  0  0  0  0
 12 13  2  0  0  0  0
 13 14  1  0  0  0  0
 14 21  1  0  0  0  0
 15 18  1  0  0  0  0
 16 20  1  0  0  0  0
 16 19  1  0  0  0  0
 17 16  1  0  0  0  0
 20 18  1  0  0  0  0
 21 15  1  0  0  0  0
 21 17  1  0  0  0  0
 22 23  1  0  0  0  0
 22 15  1  0  0  0  0
 23 24  1  0  0  0  0
 25 29  1  0  0  0  0
 26 29  1  0  0  0  0
 26 31  1  0  0  0  0
 27 30  1  0  0  0  0
 27 28  1  0  0  0  0
 28 26  1  0  0  0  0
 29 24  1  0  0  0  0
 30 28  1  0  0  0  0
 30 25  1  0  0  0  0
 31 32  1  0  0  0  0
 33 34  1  0  0  0  0
 35 40  1  0  0  0  0
 36 47  1  0  0  0  0
 37 53  1  0  0  0  0
 38 41  1  0  0  0  0
 39 40  1  0  0  0  0
 39 36  1  0  0  0  0
 40 44  1  0  0  0  0
 41 47  1  0  0  0  0
 41 46  1  0  0  0  0
 42 45  1  0  0  0  0
 43 39  1  0  0  0  0
 44 48  1  0  0  0  0
 45 37  1  0  0  0  0
 46 37  1  0  0  0  0
 47 42  1  0  0  0  0
 48 46  1  0  0  0  0
 49 47  1  0  0  0  0
 49 51  2  0  0  0  0
 50 49  1  0  0  0  0
 53 52  1  0  0  0  0
M  END
>  <MODEL>
4

>  <REMARK>
 VINA RESULT:      -7.3      3.180      5.131
  Name = 
  14 active torsions:
  status: ('A' for Active; 'I' for Inactive)
    1  A    between atoms: C_2  and  C_49
    2  A    between atoms: C_5  and  C_21
    3  A    between atoms: C_5  and  S_40
    4  A    between atoms: C_6  and  C_8
    5  A    between atoms: C_7  and  C_45
    6  A    between atoms: C_11  and  N_37
    7  A    between atoms: C_13  and  C_48
    8  A    between atoms: O_14  and  C_22
    9  A    between atoms: N_19  and  C_28
   10  A    between atoms: N_19  and  C_49
   11  A    between atoms: C_23  and  C_31
   12  A    between atoms: C_28  and  C_41
   13  A    between atoms: C_31  and  C_42
   14  A    between atoms: S_40  and  C_47
                            x       y       z     vdW  Elec       q    Type
                         _______ _______ _______ _____ _____    ______ ____

>  <TORSDO>
F 14

$$$$
=
 OpenBabel11062420233D

 53 60  0  0  1  0  0  0  0  0999 V2000
  194.2020  173.6940  140.8950 O   0  0  0  0  0  0  0  0  0  0  0  0
  192.1670  172.2250  140.2330 C   0  0  1  0  0  3  0  0  0  0  0  0
  194.8460  173.5570  139.6490 C   0  0  0  0  0  2  0  0  0  0  0  0
  192.9190  171.9460  138.9050 C   0  0  2  0  0  3  0  0  0  0  0  0
  193.9430  173.0270  138.5150 C   0  0  0  0  0  2  0  0  0  0  0  0
  193.0810  174.5260  140.7240 C   0  0  2  0  0  3  0  0  0  0  0  0
  192.0570  174.2090  141.8030 C   0  0  2  0  0  3  0  0  0  0  0  0
  191.8130  173.7100  140.3980 C   0  0  2  0  0  3  0  0  0  0  0  0
  190.6830  170.7380  141.8160 C   0  0  1  0  0  3  0  0  0  0  0  0
  189.9350  171.9710  141.3240 C   0  0  0  0  0  2  0  0  0  0  0  0
  190.9570  171.3140  140.4100 C   0  0  1  0  0  3  0  0  0  0  0  0
  190.9270  171.8440  144.5650 S   0  0  0  0  0  0  0  0  0  0  0  0
  191.5680  171.0240  143.0680 C   0  0  0  0  0  0  0  0  0  0  0  0
  192.6620  169.6290  143.5080 S   0  0  0  0  0  0  0  0  0  0  0  0
  195.1310  170.3780  144.4720 C   0  0  2  0  0  3  0  0  0  0  0  0
  196.2390  170.8830  141.8280 C   0  0  2  0  0  3  0  0  0  0  0  0
  194.9430  170.0850  142.0050 C   0  0  0  0  0  2  0  0  0  0  0  0
  196.5220  170.5790  144.2220 O   0  0  0  0  0  0  0  0  0  0  0  0
  197.2320  170.0390  141.3280 O   0  0  0  0  0  1  0  0  0  0  0  0
  196.7020  171.4940  143.1610 C   0  0  0  0  0  2  0  0  0  0  0  0
  194.2090  170.5510  143.2520 C   0  0  1  0  0  3  0  0  0  0  0  0
  194.6550  171.2200  145.6510 C   0  0  0  0  0  2  0  0  0  0  0  0
  195.3970  172.4710  145.7070 N   0  0  0  0  0  2  0  0  0  0  0  0
  194.4720  173.5540  145.3940 C   0  0  0  0  0  2  0  0  0  0  0  0
  196.4840  174.7830  144.8920 O   0  0  0  0  0  0  0  0  0  0  0  0
  194.4140  175.9140  144.6360 C   0  0  1  0  0  3  0  0  0  0  0  0
  196.5530  176.7280  143.5130 C   0  0  0  0  0  2  0  0  0  0  0  0
  195.1840  176.0740  143.3440 C   0  0  1  0  0  3  0  0  0  0  0  0
  195.1950  174.9000  145.4410 C   0  0  1  0  0  3  0  0  0  0  0  0
  196.4170  175.2190  143.5540 C   0  0  2  0  0  3  0  0  0  0  0  0
  194.2920  177.2310  145.3880 C   0  0  0  0  0  2  0  0  0  0  0  0
  194.5630  177.0440  146.7420 O   0  0  0  0  0  1  0  0  0  0  0  0
  192.6650  171.2190  136.8900 O   0  0  0  0  0  1  0  0  0  0  0  0
  192.0020  171.8170  137.8550 O   0  0  0  0  0  0  0  0  0  0  0  0
  191.1650  175.4250  142.0210 C   0  0  0  0  0  2  0  0  0  0  0  0
  187.6090  175.7470  143.5720 C   0  0  0  0  0  2  0  0  0  0  0  0
  189.1410  176.5440  146.6640 C   0  0  2  0  0  3  0  0  0  0  0  0
  189.1700  178.4170  143.4190 F   0  0  0  0  0  0  0  0  0  0  0  0
  188.7170  175.8810  142.5260 C   0  0  1  0  0  3  0  0  0  0  0  0
  189.9710  175.0960  142.9210 C   0  0  2  0  0  3  0  0  0  0  0  0
  188.6840  177.9180  144.6140 C   0  0  2  0  0  3  0  0  0  0  0  0
  187.1230  176.5980  145.8030 O   0  0  0  0  0  0  0  0  0  0  0  0
  188.2120  175.4800  141.1480 C   0  0  0  0  0  1  0  0  0  0  0  0
  190.2380  175.1610  144.3140 O   0  0  0  0  0  0  0  0  0  0  0  0
  188.0680  175.7570  146.2180 O   0  0  0  0  0  0  0  0  0  0  0  0
  189.7810  177.2800  145.4670 C   0  0  2  0  0  3  0  0  0  0  0  0
  187.4280  176.9980  144.4780 C   0  0  2  0  0  0  0  0  0  0  0  0
  190.7510  176.4360  144.6320 C   0  0  0  0  0  2  0  0  0  0  0  0
  186.2550  177.8040  143.9440 C   0  0  0  0  0  0  0  0  0  0  0  0
  185.3170  177.2060  142.9420 C   0  0  0  0  0  1  0  0  0  0  0  0
  185.8030  178.8610  144.6300 C   0  0  0  0  0  2  0  0  0  0  0  0
  189.5090  174.5400  147.6340 O   0  0  0  0  0  1  0  0  0  0  0  0
  190.1170  175.7190  147.3580 N   0  0  0  0  0  2  0  0  0  0  0  0
  2  8  1  0  0  0  0
  2 11  1  6  0  0  0
  3  1  1  0  0  0  0
  4 34  1  6  0  0  0
  4  2  1  0  0  0  0
  5  4  1  0  0  0  0
  5  3  1  0  0  0  0
  6  1  1  1  0  0  0
  6  7  1  0  0  0  0
  7 35  1  6  0  0  0
  8  6  1  0  0  0  0
  8  7  1  0  0  0  0
  9 13  1  0  0  0  0
 10  9  1  0  0  0  0
 11 10  1  0  0  0  0
 11  9  1  0  0  0  0
 13 14  1  0  0  0  0
 13 12  2  0  0  0  0
 15 22  1  0  0  0  0
 16 17  1  0  0  0  0
 16 20  1  0  0  0  0
 17 21  1  0  0  0  0
 18 15  1  0  0  0  0
 19 16  1  0  0  0  0
 20 18  1  0  0  0  0
 21 14  1  0  0  0  0
 21 15  1  0  0  0  0
 22 23  1  0  0  0  0
 24 29  1  0  0  0  0
 24 23  1  0  0  0  0
 25 29  1  0  0  0  0
 26 31  1  0  0  0  0
 26 29  1  0  0  0  0
 27 30  1  0  0  0  0
 28 27  1  0  0  0  0
 28 30  1  0  0  0  0
 28 26  1  0  0  0  0
 30 25  1  0  0  0  0
 31 32  1  0  0  0  0
 33 34  1  0  0  0  0
 35 40  1  0  0  0  0
 36 47  1  0  0  0  0
 37 53  1  0  0  0  0
 38 41  1  0  0  0  0
 39 40  1  0  0  0  0
 39 36  1  0  0  0  0
 40 44  1  0  0  0  0
 41 46  1  0  0  0  0
 42 45  1  0  0  0  0
 43 39  1  0  0  0  0
 44 48  1  0  0  0  0
 45 37  1  0  0  0  0
 46 37  1  0  0  0  0
 47 41  1  0  0  0  0
 47 42  1  0  0  0  0
 48 46  1  0  0  0  0
 49 47  1  0  0  0  0
 49 51  2  0  0  0  0
 50 49  1  0  0  0  0
 53 52  1  0  0  0  0
M  END
>  <MODEL>
5

>  <REMARK>
 VINA RESULT:      -7.1      2.934      4.456
  Name = 
  14 active torsions:
  status: ('A' for Active; 'I' for Inactive)
    1  A    between atoms: C_2  and  C_49
    2  A    between atoms: C_5  and  C_21
    3  A    between atoms: C_5  and  S_40
    4  A    between atoms: C_6  and  C_8
    5  A    between atoms: C_7  and  C_45
    6  A    between atoms: C_11  and  N_37
    7  A    between atoms: C_13  and  C_48
    8  A    between atoms: O_14  and  C_22
    9  A    between atoms: N_19  and  C_28
   10  A    between atoms: N_19  and  C_49
   11  A    between atoms: C_23  and  C_31
   12  A    between atoms: C_28  and  C_41
   13  A    between atoms: C_31  and  C_42
   14  A    between atoms: S_40  and  C_47
                            x       y       z     vdW  Elec       q    Type
                         _______ _______ _______ _____ _____    ______ ____

>  <TORSDO>
F 14

$$$$
=
 OpenBabel11062420233D

 53 60  0  0  1  0  0  0  0  0999 V2000
  190.9000  172.5070  141.9360 O   0  0  0  0  0  0  0  0  0  0  0  0
  192.4960  172.9640  143.9320 C   0  0  1  0  0  3  0  0  0  0  0  0
  191.2270  171.1390  141.8460 C   0  0  0  0  0  2  0  0  0  0  0  0
  192.9740  171.4980  143.7640 C   0  0  2  0  0  3  0  0  0  0  0  0
  191.9530  170.5700  143.0840 C   0  0  0  0  0  2  0  0  0  0  0  0
  190.1280  172.7010  143.0970 C   0  0  2  0  0  3  0  0  0  0  0  0
  190.2840  174.1400  143.5620 C   0  0  2  0  0  3  0  0  0  0  0  0
  191.0100  173.0500  144.3130 C   0  0  2  0  0  3  0  0  0  0  0  0
  193.7940  175.1870  144.4740 C   0  0  1  0  0  3  0  0  0  0  0  0
  192.6340  174.9540  145.4340 C   0  0  0  0  0  2  0  0  0  0  0  0
  193.3890  173.7550  144.8830 C   0  0  1  0  0  3  0  0  0  0  0  0
  192.1730  177.2660  143.0990 S   0  0  0  0  0  0  0  0  0  0  0  0
  193.3540  175.8780  143.1470 C   0  0  0  0  0  0  0  0  0  0  0  0
  194.7380  176.1610  141.9910 S   0  0  0  0  0  0  0  0  0  0  0  0
  194.5620  174.1740  140.0920 C   0  0  2  0  0  3  0  0  0  0  0  0
  196.5250  172.4670  141.4000 C   0  0  2  0  0  3  0  0  0  0  0  0
  196.3870  173.9460  141.7740 C   0  0  0  0  0  2  0  0  0  0  0  0
  195.1490  173.0270  139.4770 O   0  0  0  0  0  0  0  0  0  0  0  0
  197.7660  172.2600  140.7950 O   0  0  0  0  0  1  0  0  0  0  0  0
  195.4040  172.0280  140.4430 C   0  0  0  0  0  2  0  0  0  0  0  0
  194.9530  174.4060  141.5630 C   0  0  1  0  0  3  0  0  0  0  0  0
  193.0480  174.1810  139.9130 C   0  0  0  0  0  2  0  0  0  0  0  0
  192.6700  173.3260  138.7970 N   0  0  0  0  0  2  0  0  0  0  0  0
  192.0210  174.1620  137.7930 C   0  0  0  0  0  2  0  0  0  0  0  0
  190.3700  173.7170  136.0940 O   0  0  0  0  0  0  0  0  0  0  0  0
  190.5470  172.1700  137.8840 C   0  0  1  0  0  3  0  0  0  0  0  0
  189.4330  171.5650  135.6720 C   0  0  0  0  0  2  0  0  0  0  0  0
  190.6370  171.3870  136.5930 C   0  0  1  0  0  3  0  0  0  0  0  0
  190.6270  173.6230  137.4730 C   0  0  1  0  0  3  0  0  0  0  0  0
  190.6480  172.4590  135.5230 C   0  0  2  0  0  3  0  0  0  0  0  0
  189.2530  171.8840  138.6290 C   0  0  0  0  0  2  0  0  0  0  0  0
  188.5550  173.0670  138.8630 O   0  0  0  0  0  1  0  0  0  0  0  0
  194.5050  170.4690  144.8820 O   0  0  0  0  0  1  0  0  0  0  0  0
  193.2910  170.9530  145.0150 O   0  0  0  0  0  0  0  0  0  0  0  0
  189.0650  174.5350  144.3870 C   0  0  0  0  0  2  0  0  0  0  0  0
  187.6450  177.9880  145.4880 C   0  0  0  0  0  2  0  0  0  0  0  0
  185.9750  178.1800  142.3720 C   0  0  2  0  0  3  0  0  0  0  0  0
  185.5030  175.7710  145.2020 F   0  0  0  0  0  0  0  0  0  0  0  0
  188.0880  176.5310  145.6200 C   0  0  1  0  0  3  0  0  0  0  0  0
  188.8430  176.0500  144.3780 C   0  0  2  0  0  3  0  0  0  0  0  0
  185.4310  176.9580  144.4940 C   0  0  2  0  0  3  0  0  0  0  0  0
  185.9470  179.2560  144.2840 O   0  0  0  0  0  0  0  0  0  0  0  0
  188.9000  176.3240  146.8900 C   0  0  0  0  0  1  0  0  0  0  0  0
  188.2950  176.5650  143.1740 O   0  0  0  0  0  0  0  0  0  0  0  0
  186.7000  179.0430  143.2070 O   0  0  0  0  0  0  0  0  0  0  0  0
  185.8550  176.7910  143.0350 C   0  0  2  0  0  3  0  0  0  0  0  0
  186.1320  178.1740  145.1810 C   0  0  2  0  0  0  0  0  0  0  0  0
  187.0890  175.8940  142.8850 C   0  0  0  0  0  2  0  0  0  0  0  0
  185.4220  178.5100  146.4820 C   0  0  0  0  0  0  0  0  0  0  0  0
  186.1660  179.1590  147.6070 C   0  0  0  0  0  1  0  0  0  0  0  0
  184.0880  178.6190  146.5070 C   0  0  0  0  0  2  0  0  0  0  0  0
  185.6260  178.1860  140.1420 O   0  0  0  0  0  1  0  0  0  0  0  0
  186.6110  178.0880  141.0670 N   0  0  0  0  0  2  0  0  0  0  0  0
  2  8  1  0  0  0  0
  2 11  1  1  0  0  0
  3  1  1  0  0  0  0
  3  5  1  0  0  0  0
  4  2  1  0  0  0  0
  4 34  1  1  0  0  0
  5  4  1  0  0  0  0
  6  1  1  6  0  0  0
  6  7  1  0  0  0  0
  6  8  1  0  0  0  0
  7  8  1  0  0  0  0
  7 35  1  1  0  0  0
  9 11  1  0  0  0  0
  9 10  1  0  0  0  0
 11 10  1  0  0  0  0
 12 13  2  0  0  0  0
 13  9  1  0  0  0  0
 14 13  1  0  0  0  0
 15 21  1  0  0  0  0
 16 17  1  0  0  0  0
 18 15  1  0  0  0  0
 18 20  1  0  0  0  0
 19 16  1  0  0  0  0
 20 16  1  0  0  0  0
 21 17  1  0  0  0  0
 21 14  1  0  0  0  0
 22 15  1  0  0  0  0
 23 22  1  0  0  0  0
 24 23  1  0  0  0  0
 25 29  1  0  0  0  0
 26 31  1  0  0  0  0
 27 28  1  0  0  0  0
 28 26  1  0  0  0  0
 29 24  1  0  0  0  0
 29 26  1  0  0  0  0
 30 27  1  0  0  0  0
 30 25  1  0  0  0  0
 30 28  1  0  0  0  0
 31 32  1  0  0  0  0
 33 34  1  0  0  0  0
 36 39  1  0  0  0  0
 37 46  1  0  0  0  0
 37 45  1  0  0  0  0
 39 43  1  0  0  0  0
 40 35  1  0  0  0  0
 40 39  1  0  0  0  0
 41 47  1  0  0  0  0
 41 38  1  0  0  0  0
 42 47  1  0  0  0  0
 44 40  1  0  0  0  0
 45 42  1  0  0  0  0
 46 41  1  0  0  0  0
 47 36  1  0  0  0  0
 47 49  1  0  0  0  0
 48 46  1  0  0  0  0
 48 44  1  0  0  0  0
 49 51  2  0  0  0  0
 49 50  1  0  0  0  0
 52 53  1  0  0  0  0
 53 37  1  0  0  0  0
M  END
>  <MODEL>
6

>  <REMARK>
 VINA RESULT:      -7.0      2.115      4.880
  Name = 
  14 active torsions:
  status: ('A' for Active; 'I' for Inactive)
    1  A    between atoms: C_2  and  C_49
    2  A    between atoms: C_5  and  C_21
    3  A    between atoms: C_5  and  S_40
    4  A    between atoms: C_6  and  C_8
    5  A    between atoms: C_7  and  C_45
    6  A    between atoms: C_11  and  N_37
    7  A    between atoms: C_13  and  C_48
    8  A    between atoms: O_14  and  C_22
    9  A    between atoms: N_19  and  C_28
   10  A    between atoms: N_19  and  C_49
   11  A    between atoms: C_23  and  C_31
   12  A    between atoms: C_28  and  C_41
   13  A    between atoms: C_31  and  C_42
   14  A    between atoms: S_40  and  C_47
                            x       y       z     vdW  Elec       q    Type
                         _______ _______ _______ _____ _____    ______ ____

>  <TORSDO>
F 14

$$$$
=
 OpenBabel11062420233D

 53 60  0  0  1  0  0  0  0  0999 V2000
  192.5990  174.7970  145.9550 O   0  0  0  0  0  0  0  0  0  0  0  0
  192.7290  174.5450  143.3750 C   0  0  1  0  0  3  0  0  0  0  0  0
  193.5620  175.8230  146.0140 C   0  0  0  0  0  2  0  0  0  0  0  0
  193.8880  175.5750  143.4270 C   0  0  2  0  0  3  0  0  0  0  0  0
  193.8650  176.4970  144.6590 C   0  0  0  0  0  2  0  0  0  0  0  0
  191.4240  175.3250  145.3910 C   0  0  2  0  0  3  0  0  0  0  0  0
  190.6310  174.1970  144.7490 C   0  0  2  0  0  3  0  0  0  0  0  0
  191.3990  175.1440  143.8590 C   0  0  2  0  0  3  0  0  0  0  0  0
  193.0620  172.4170  141.8660 C   0  0  1  0  0  3  0  0  0  0  0  0
  191.5880  172.7580  142.0560 C   0  0  0  0  0  2  0  0  0  0  0  0
  192.6070  173.8860  142.0050 C   0  0  1  0  0  3  0  0  0  0  0  0
  192.5900  170.6330  144.1980 S   0  0  0  0  0  0  0  0  0  0  0  0
  193.6420  171.5640  143.0350 C   0  0  0  0  0  0  0  0  0  0  0  0
  195.1030  170.5820  142.5510 S   0  0  0  0  0  0  0  0  0  0  0  0
  196.4840  172.9620  142.4230 C   0  0  2  0  0  3  0  0  0  0  0  0
  196.9330  173.0930  145.2960 C   0  0  2  0  0  3  0  0  0  0  0  0
  195.8890  172.1420  144.7000 C   0  0  0  0  0  2  0  0  0  0  0  0
  196.9620  174.1260  143.0970 O   0  0  0  0  0  0  0  0  0  0  0  0
  196.2830  174.0730  146.0480 O   0  0  0  0  0  1  0  0  0  0  0  0
  197.7730  173.7590  144.1940 C   0  0  0  0  0  2  0  0  0  0  0  0
  196.3140  171.7110  143.3050 C   0  0  1  0  0  3  0  0  0  0  0  0
  197.3220  172.6580  141.1860 C   0  0  0  0  0  2  0  0  0  0  0  0
  196.4690  172.5690  140.0100 N   0  0  0  0  0  2  0  0  0  0  0  0
  196.3120  173.9140  139.4690 C   0  0  0  0  0  2  0  0  0  0  0  0
  194.5510  173.0420  138.0730 O   0  0  0  0  0  0  0  0  0  0  0  0
  195.3030  175.2500  137.6390 C   0  0  1  0  0  3  0  0  0  0  0  0
  193.0440  174.3990  136.8170 C   0  0  0  0  0  2  0  0  0  0  0  0
  193.7980  175.3010  137.7900 C   0  0  1  0  0  3  0  0  0  0  0  0
  195.6970  173.8550  138.0700 C   0  0  1  0  0  3  0  0  0  0  0  0
  193.4300  173.8870  138.1910 C   0  0  2  0  0  3  0  0  0  0  0  0
  195.7360  175.5220  136.2070 C   0  0  0  0  0  2  0  0  0  0  0  0
  197.1270  175.5660  136.1210 O   0  0  0  0  0  1  0  0  0  0  0  0
  195.1220  176.6700  142.0380 O   0  0  0  0  0  1  0  0  0  0  0  0
  193.8630  176.3790  142.2810 O   0  0  0  0  0  0  0  0  0  0  0  0
  189.1600  174.5930  144.6820 C   0  0  0  0  0  2  0  0  0  0  0  0
  187.7200  178.1950  145.0000 C   0  0  0  0  0  2  0  0  0  0  0  0
  186.4780  177.8810  141.6990 C   0  0  2  0  0  3  0  0  0  0  0  0
  185.5630  175.9830  144.7970 F   0  0  0  0  0  0  0  0  0  0  0  0
  188.0940  176.7760  145.4280 C   0  0  1  0  0  3  0  0  0  0  0  0
  188.9900  176.0880  144.3950 C   0  0  2  0  0  3  0  0  0  0  0  0
  185.6220  177.0360  143.9010 C   0  0  2  0  0  3  0  0  0  0  0  0
  186.2350  179.2610  143.3880 O   0  0  0  0  0  0  0  0  0  0  0  0
  188.7270  176.7760  146.8120 C   0  0  0  0  0  1  0  0  0  0  0  0
  188.6210  176.4000  143.0590 O   0  0  0  0  0  0  0  0  0  0  0  0
  187.1150  178.8640  142.4710 O   0  0  0  0  0  0  0  0  0  0  0  0
  186.2280  176.6230  142.5590 C   0  0  2  0  0  3  0  0  0  0  0  0
  186.2660  178.3420  144.4670 C   0  0  2  0  0  0  0  0  0  0  0  0
  187.4410  175.7020  142.7260 C   0  0  0  0  0  2  0  0  0  0  0  0
  185.4030  178.8980  145.5880 C   0  0  0  0  0  0  0  0  0  0  0  0
  183.9250  178.6640  145.5950 C   0  0  0  0  0  1  0  0  0  0  0  0
  185.9610  179.2310  146.7580 C   0  0  0  0  0  2  0  0  0  0  0  0
  186.4130  177.1650  139.5600 O   0  0  0  0  0  1  0  0  0  0  0  0
  187.2760  177.5660  140.5250 N   0  0  0  0  0  2  0  0  0  0  0  0
  1  3  1  0  0  0  0
  2 11  1  6  0  0  0
  2  4  1  0  0  0  0
  2  8  1  0  0  0  0
  4 34  1  6  0  0  0
  4  5  1  0  0  0  0
  5  3  1  0  0  0  0
  6  1  1  1  0  0  0
  7 35  1  6  0  0  0
  7  6  1  0  0  0  0
  8  7  1  0  0  0  0
  8  6  1  0  0  0  0
  9 11  1  0  0  0  0
  9 10  1  0  0  0  0
  9 13  1  0  0  0  0
 11 10  1  0  0  0  0
 13 12  2  0  0  0  0
 14 13  1  0  0  0  0
 14 21  1  0  0  0  0
 15 18  1  0  0  0  0
 15 21  1  0  0  0  0
 16 19  1  0  0  0  0
 17 16  1  0  0  0  0
 18 20  1  0  0  0  0
 20 16  1  0  0  0  0
 21 17  1  0  0  0  0
 22 15  1  0  0  0  0
 23 22  1  0  0  0  0
 24 23  1  0  0  0  0
 25 30  1  0  0  0  0
 26 28  1  0  0  0  0
 26 29  1  0  0  0  0
 27 28  1  0  0  0  0
 27 30  1  0  0  0  0
 28 30  1  0  0  0  0
 29 25  1  0  0  0  0
 29 24  1  0  0  0  0
 31 26  1  0  0  0  0
 32 31  1  0  0  0  0
 33 34  1  0  0  0  0
 36 39  1  0  0  0  0
 37 45  1  0  0  0  0
 37 46  1  0  0  0  0
 39 43  1  0  0  0  0
 40 35  1  0  0  0  0
 40 39  1  0  0  0  0
 41 47  1  0  0  0  0
 41 38  1  0  0  0  0
 42 47  1  0  0  0  0
 44 40  1  0  0  0  0
 45 42  1  0  0  0  0
 46 48  1  0  0  0  0
 46 41  1  0  0  0  0
 47 36  1  0  0  0  0
 47 49  1  0  0  0  0
 48 44  1  0  0  0  0
 49 50  1  0  0  0  0
 49 51  2  0  0  0  0
 52 53  1  0  0  0  0
 53 37  1  0  0  0  0
M  END
>  <MODEL>
7

>  <REMARK>
 VINA RESULT:      -7.0      2.279      5.072
  Name = 
  14 active torsions:
  status: ('A' for Active; 'I' for Inactive)
    1  A    between atoms: C_2  and  C_49
    2  A    between atoms: C_5  and  C_21
    3  A    between atoms: C_5  and  S_40
    4  A    between atoms: C_6  and  C_8
    5  A    between atoms: C_7  and  C_45
    6  A    between atoms: C_11  and  N_37
    7  A    between atoms: C_13  and  C_48
    8  A    between atoms: O_14  and  C_22
    9  A    between atoms: N_19  and  C_28
   10  A    between atoms: N_19  and  C_49
   11  A    between atoms: C_23  and  C_31
   12  A    between atoms: C_28  and  C_41
   13  A    between atoms: C_31  and  C_42
   14  A    between atoms: S_40  and  C_47
                            x       y       z     vdW  Elec       q    Type
                         _______ _______ _______ _____ _____    ______ ____

>  <TORSDO>
F 14

$$$$
=
 OpenBabel11062420233D

 53 60  0  0  1  0  0  0  0  0999 V2000
  192.6810  175.4600  146.5470 O   0  0  0  0  0  0  0  0  0  0  0  0
  192.7180  174.5680  144.1090 C   0  0  1  0  0  3  0  0  0  0  0  0
  193.6090  176.4910  146.3010 C   0  0  0  0  0  2  0  0  0  0  0  0
  193.8410  175.6060  143.8470 C   0  0  2  0  0  3  0  0  0  0  0  0
  193.8340  176.8080  144.8070 C   0  0  0  0  0  2  0  0  0  0  0  0
  191.4670  175.7990  145.9230 C   0  0  2  0  0  3  0  0  0  0  0  0
  190.6890  174.5270  145.6230 C   0  0  2  0  0  3  0  0  0  0  0  0
  191.3890  175.2370  144.4890 C   0  0  2  0  0  3  0  0  0  0  0  0
  193.6950  172.5520  142.7310 C   0  0  1  0  0  3  0  0  0  0  0  0
  192.4340  172.1650  143.4940 C   0  0  0  0  0  2  0  0  0  0  0  0
  192.5670  173.5810  142.9560 C   0  0  1  0  0  3  0  0  0  0  0  0
  194.9560  171.9680  145.3600 S   0  0  0  0  0  0  0  0  0  0  0  0
  194.9840  172.4590  143.6040 C   0  0  0  0  0  0  0  0  0  0  0  0
  196.3860  171.6790  142.7330 S   0  0  0  0  0  0  0  0  0  0  0  0
  196.2000  173.7790  140.9610 C   0  0  2  0  0  3  0  0  0  0  0  0
  197.7480  175.5930  142.6310 C   0  0  2  0  0  3  0  0  0  0  0  0
  197.1660  174.2950  143.2000 C   0  0  0  0  0  2  0  0  0  0  0  0
  196.2880  175.1850  140.7320 O   0  0  0  0  0  0  0  0  0  0  0  0
  197.1140  176.6820  143.2320 O   0  0  0  0  0  1  0  0  0  0  0  0
  197.5640  175.6640  141.1060 C   0  0  0  0  0  2  0  0  0  0  0  0
  197.0760  173.2410  142.1070 C   0  0  1  0  0  3  0  0  0  0  0  0
  196.4290  172.9950  139.6730 C   0  0  0  0  0  2  0  0  0  0  0  0
  195.2610  172.1820  139.3660 N   0  0  0  0  0  2  0  0  0  0  0  0
  194.1260  173.0790  139.1880 C   0  0  0  0  0  2  0  0  0  0  0  0
  193.0390  170.9660  138.7820 O   0  0  0  0  0  0  0  0  0  0  0  0
  191.6580  172.8770  139.0440 C   0  0  1  0  0  3  0  0  0  0  0  0
  190.7630  170.5070  139.3270 C   0  0  0  0  0  2  0  0  0  0  0  0
  191.1580  171.8180  140.0010 C   0  0  1  0  0  3  0  0  0  0  0  0
  192.9680  172.3430  138.5110 C   0  0  1  0  0  3  0  0  0  0  0  0
  192.1690  170.7000  139.8580 C   0  0  2  0  0  3  0  0  0  0  0  0
  190.6720  173.1290  137.9140 C   0  0  0  0  0  2  0  0  0  0  0  0
  189.5440  173.7920  138.3940 O   0  0  0  0  0  1  0  0  0  0  0  0
  192.9530  177.1410  142.6190 O   0  0  0  0  0  1  0  0  0  0  0  0
  193.7440  176.0940  142.5380 O   0  0  0  0  0  0  0  0  0  0  0  0
  189.2040  174.8570  145.5280 C   0  0  0  0  0  2  0  0  0  0  0  0
  187.5690  178.3760  145.2180 C   0  0  0  0  0  2  0  0  0  0  0  0
  186.5170  177.4870  141.9550 C   0  0  2  0  0  3  0  0  0  0  0  0
  185.5410  176.0370  145.2700 F   0  0  0  0  0  0  0  0  0  0  0  0
  187.9920  177.0630  145.8770 C   0  0  1  0  0  3  0  0  0  0  0  0
  188.9740  176.2770  145.0040 C   0  0  2  0  0  3  0  0  0  0  0  0
  185.5920  176.9410  144.2240 C   0  0  2  0  0  3  0  0  0  0  0  0
  186.1170  179.0940  143.3960 O   0  0  0  0  0  0  0  0  0  0  0  0
  188.5520  177.3120  147.2700 C   0  0  0  0  0  1  0  0  0  0  0  0
  188.6590  176.3590  143.6210 O   0  0  0  0  0  0  0  0  0  0  0  0
  187.0630  178.6120  142.5910 O   0  0  0  0  0  0  0  0  0  0  0  0
  186.2870  176.3640  142.9900 C   0  0  2  0  0  3  0  0  0  0  0  0
  186.1390  178.3540  144.6060 C   0  0  2  0  0  0  0  0  0  0  0  0
  187.5350  175.5510  143.3500 C   0  0  0  0  0  2  0  0  0  0  0  0
  185.1930  179.0250  145.5880 C   0  0  0  0  0  0  0  0  0  0  0  0
  183.7180  179.0410  145.3300 C   0  0  0  0  0  1  0  0  0  0  0  0
  185.5810  179.2370  146.8510 C   0  0  0  0  0  2  0  0  0  0  0  0
  186.8150  177.4400  139.7190 O   0  0  0  0  0  1  0  0  0  0  0  0
  187.3890  177.0420  140.8800 N   0  0  0  0  0  2  0  0  0  0  0  0
  2 11  1  6  0  0  0
  2  8  1  0  0  0  0
  3  1  1  0  0  0  0
  4 34  1  6  0  0  0
  4  2  1  0  0  0  0
  4  5  1  0  0  0  0
  5  3  1  0  0  0  0
  6  1  1  1  0  0  0
  7 35  1  6  0  0  0
  7  6  1  0  0  0  0
  8  7  1  0  0  0  0
  8  6  1  0  0  0  0
  9 11  1  0  0  0  0
  9 10  1  0  0  0  0
  9 13  1  0  0  0  0
 11 10  1  0  0  0  0
 13 12  2  0  0  0  0
 14 13  1  0  0  0  0
 15 21  1  0  0  0  0
 16 17  1  0  0  0  0
 16 19  1  0  0  0  0
 18 15  1  0  0  0  0
 18 20  1  0  0  0  0
 20 16  1  0  0  0  0
 21 14  1  0  0  0  0
 21 17  1  0  0  0  0
 22 15  1  0  0  0  0
 23 22  1  0  0  0  0
 24 23  1  0  0  0  0
 25 30  1  0  0  0  0
 26 28  1  0  0  0  0
 27 30  1  0  0  0  0
 27 28  1  0  0  0  0
 29 25  1  0  0  0  0
 29 26  1  0  0  0  0
 29 24  1  0  0  0  0
 30 28  1  0  0  0  0
 31 32  1  0  0  0  0
 31 26  1  0  0  0  0
 34 33  1  0  0  0  0
 36 39  1  0  0  0  0
 37 45  1  0  0  0  0
 37 46  1  0  0  0  0
 39 43  1  0  0  0  0
 40 35  1  0  0  0  0
 40 39  1  0  0  0  0
 41 47  1  0  0  0  0
 41 38  1  0  0  0  0
 42 47  1  0  0  0  0
 44 40  1  0  0  0  0
 45 42  1  0  0  0  0
 46 48  1  0  0  0  0
 46 41  1  0  0  0  0
 47 36  1  0  0  0  0
 47 49  1  0  0  0  0
 48 44  1  0  0  0  0
 49 51  2  0  0  0  0
 50 49  1  0  0  0  0
 52 53  1  0  0  0  0
 53 37  1  0  0  0  0
M  END
>  <MODEL>
8

>  <REMARK>
 VINA RESULT:      -6.9      2.052      4.826
  Name = 
  14 active torsions:
  status: ('A' for Active; 'I' for Inactive)
    1  A    between atoms: C_2  and  C_49
    2  A    between atoms: C_5  and  C_21
    3  A    between atoms: C_5  and  S_40
    4  A    between atoms: C_6  and  C_8
    5  A    between atoms: C_7  and  C_45
    6  A    between atoms: C_11  and  N_37
    7  A    between atoms: C_13  and  C_48
    8  A    between atoms: O_14  and  C_22
    9  A    between atoms: N_19  and  C_28
   10  A    between atoms: N_19  and  C_49
   11  A    between atoms: C_23  and  C_31
   12  A    between atoms: C_28  and  C_41
   13  A    between atoms: C_31  and  C_42
   14  A    between atoms: S_40  and  C_47
                            x       y       z     vdW  Elec       q    Type
                         _______ _______ _______ _____ _____    ______ ____

>  <TORSDO>
F 14

$$$$
=
 OpenBabel11062420233D

 53 60  0  0  1  0  0  0  0  0999 V2000
  191.3100  175.2640  146.6080 O   0  0  0  0  0  0  0  0  0  0  0  0
  192.6930  174.9210  144.4380 C   0  0  1  0  0  3  0  0  0  0  0  0
  192.4110  175.7020  147.3710 C   0  0  0  0  0  2  0  0  0  0  0  0
  193.9410  175.2670  145.2910 C   0  0  2  0  0  3  0  0  0  0  0  0
  193.6440  176.1160  146.5400 C   0  0  0  0  0  2  0  0  0  0  0  0
  190.9740  176.2790  145.6930 C   0  0  2  0  0  3  0  0  0  0  0  0
  190.2710  175.6560  144.4970 C   0  0  2  0  0  3  0  0  0  0  0  0
  191.7080  176.0960  144.3490 C   0  0  2  0  0  3  0  0  0  0  0  0
  192.6660  172.9160  142.7360 C   0  0  1  0  0  3  0  0  0  0  0  0
  191.8140  174.0850  142.2550 C   0  0  0  0  0  2  0  0  0  0  0  0
  193.0680  174.3690  143.0670 C   0  0  1  0  0  3  0  0  0  0  0  0
  190.1360  172.1810  144.1150 S   0  0  0  0  0  0  0  0  0  0  0  0
  191.9030  171.9730  143.7160 C   0  0  0  0  0  0  0  0  0  0  0  0
  192.3120  170.2090  143.4800 S   0  0  0  0  0  0  0  0  0  0  0  0
  193.2310  169.0980  141.1330 C   0  0  2  0  0  3  0  0  0  0  0  0
  191.2780  170.4790  139.4740 C   0  0  2  0  0  3  0  0  0  0  0  0
  191.1050  170.3900  140.9940 C   0  0  0  0  0  2  0  0  0  0  0  0
  192.9840  168.7730  139.7650 O   0  0  0  0  0  0  0  0  0  0  0  0
  190.2650  169.7470  138.8530 O   0  0  0  0  0  1  0  0  0  0  0  0
  192.6500  169.9380  139.0380 C   0  0  0  0  0  2  0  0  0  0  0  0
  192.4650  170.3200  141.6710 C   0  0  1  0  0  3  0  0  0  0  0  0
  194.7260  169.2140  141.4110 C   0  0  0  0  0  2  0  0  0  0  0  0
  195.1010  170.6120  141.5630 N   0  0  0  0  0  2  0  0  0  0  0  0
  196.0660  170.7000  142.6540 C   0  0  0  0  0  2  0  0  0  0  0  0
  195.5780  172.1330  144.5300 O   0  0  0  0  0  0  0  0  0  0  0  0
  197.5250  172.6100  143.2610 C   0  0  1  0  0  3  0  0  0  0  0  0
  197.2010  173.4910  145.6310 C   0  0  0  0  0  2  0  0  0  0  0  0
  197.9380  172.5190  144.7140 C   0  0  1  0  0  3  0  0  0  0  0  0
  196.0960  172.1190  143.2230 C   0  0  1  0  0  3  0  0  0  0  0  0
  196.6690  172.0870  145.4190 C   0  0  2  0  0  3  0  0  0  0  0  0
  197.6280  174.0320  142.7320 C   0  0  0  0  0  2  0  0  0  0  0  0
  196.4640  174.3830  142.0510 O   0  0  0  0  0  1  0  0  0  0  0  0
  194.9700  177.1490  145.0560 O   0  0  0  0  0  1  0  0  0  0  0  0
  194.8760  175.9580  144.5090 O   0  0  0  0  0  0  0  0  0  0  0  0
  189.3950  176.7090  143.8270 C   0  0  0  0  0  2  0  0  0  0  0  0
  185.5830  176.6690  143.0390 C   0  0  0  0  0  2  0  0  0  0  0  0
  185.0780  178.7250  145.8770 C   0  0  2  0  0  3  0  0  0  0  0  0
  186.9190  179.4410  142.6930 F   0  0  0  0  0  0  0  0  0  0  0  0
  187.0870  176.7210  142.7650 C   0  0  1  0  0  3  0  0  0  0  0  0
  187.9060  176.4110  144.0210 C   0  0  2  0  0  3  0  0  0  0  0  0
  185.8470  179.2430  143.5450 C   0  0  2  0  0  3  0  0  0  0  0  0
  183.9050  178.0390  144.1540 O   0  0  0  0  0  0  0  0  0  0  0  0
  187.4590  175.8040  141.6090 C   0  0  0  0  0  1  0  0  0  0  0  0
  187.3340  176.9690  145.1950 O   0  0  0  0  0  0  0  0  0  0  0  0
  184.4590  177.6130  145.2870 O   0  0  0  0  0  0  0  0  0  0  0  0
  186.2750  179.1760  145.0120 C   0  0  2  0  0  3  0  0  0  0  0  0
  184.9030  178.0630  143.1470 C   0  0  2  0  0  0  0  0  0  0  0  0
  187.5590  178.3610  145.2080 C   0  0  0  0  0  2  0  0  0  0  0  0
  184.2300  178.3680  141.8190 C   0  0  0  0  0  0  0  0  0  0  0  0
  185.0040  178.2880  140.5400 C   0  0  0  0  0  1  0  0  0  0  0  0
  182.8960  178.3050  141.7160 C   0  0  0  0  0  2  0  0  0  0  0  0
  185.9600  179.5590  147.7800 O   0  0  0  0  0  1  0  0  0  0  0  0
  185.4980  178.4080  147.2330 N   0  0  0  0  0  2  0  0  0  0  0  0
  1  3  1  0  0  0  0
  2 11  1  6  0  0  0
  2  4  1  0  0  0  0
  4 34  1  6  0  0  0
  4  5  1  0  0  0  0
  5  3  1  0  0  0  0
  6  1  1  1  0  0  0
  7 35  1  6  0  0  0
  7  6  1  0  0  0  0
  8  2  1  0  0  0  0
  8  7  1  0  0  0  0
  8  6  1  0  0  0  0
  9 11  1  0  0  0  0
  9 13  1  0  0  0  0
 10  9  1  0  0  0  0
 10 11  1  0  0  0  0
 13 12  2  0  0  0  0
 14 13  1  0  0  0  0
 15 22  1  0  0  0  0
 15 21  1  0  0  0  0
 16 17  1  0  0  0  0
 17 21  1  0  0  0  0
 18 15  1  0  0  0  0
 19 16  1  0  0  0  0
 20 16  1  0  0  0  0
 20 18  1  0  0  0  0
 21 14  1  0  0  0  0
 22 23  1  0  0  0  0
 23 24  1  0  0  0  0
 24 29  1  0  0  0  0
 25 30  1  0  0  0  0
 26 28  1  0  0  0  0
 28 30  1  0  0  0  0
 28 27  1  0  0  0  0
 29 26  1  0  0  0  0
 29 25  1  0  0  0  0
 30 27  1  0  0  0  0
 31 26  1  0  0  0  0
 32 31  1  0  0  0  0
 34 33  1  0  0  0  0
 35 40  1  0  0  0  0
 36 47  1  0  0  0  0
 37 53  1  0  0  0  0
 38 41  1  0  0  0  0
 39 36  1  0  0  0  0
 39 40  1  0  0  0  0
 40 44  1  0  0  0  0
 41 46  1  0  0  0  0
 42 45  1  0  0  0  0
 43 39  1  0  0  0  0
 44 48  1  0  0  0  0
 45 37  1  0  0  0  0
 46 48  1  0  0  0  0
 46 37  1  0  0  0  0
 47 41  1  0  0  0  0
 47 42  1  0  0  0  0
 49 47  1  0  0  0  0
 50 49  1  0  0  0  0
 51 49  2  0  0  0  0
 53 52  1  0  0  0  0
M  END
>  <MODEL>
9

>  <REMARK>
 VINA RESULT:      -6.8      2.827      5.584
  Name = 
  14 active torsions:
  status: ('A' for Active; 'I' for Inactive)
    1  A    between atoms: C_2  and  C_49
    2  A    between atoms: C_5  and  C_21
    3  A    between atoms: C_5  and  S_40
    4  A    between atoms: C_6  and  C_8
    5  A    between atoms: C_7  and  C_45
    6  A    between atoms: C_11  and  N_37
    7  A    between atoms: C_13  and  C_48
    8  A    between atoms: O_14  and  C_22
    9  A    between atoms: N_19  and  C_28
   10  A    between atoms: N_19  and  C_49
   11  A    between atoms: C_23  and  C_31
   12  A    between atoms: C_28  and  C_41
   13  A    between atoms: C_31  and  C_42
   14  A    between atoms: S_40  and  C_47
                            x       y       z     vdW  Elec       q    Type
                         _______ _______ _______ _____ _____    ______ ____

>  <TORSDO>
F 14

$$$$
