=
 OpenBabel11062419053D

 32 35  0  0  1  0  0  0  0  0999 V2000
  184.9020  177.9320  144.9530 C   0  0  2  0  0  3  0  0  0  0  0  0
  188.1120  176.0290  142.5220 C   0  0  0  0  0  2  0  0  0  0  0  0
  185.8600  178.1720  146.0630 C   0  0  0  0  0  0  0  0  0  0  0  0
  189.1150  175.4180  144.6970 C   0  0  0  0  0  0  0  0  0  0  0  0
  188.6960  174.7310  141.9460 C   0  0  2  0  0  0  0  0  0  0  0  0
  190.1960  174.7180  143.9330 C   0  0  0  0  0  0  0  0  0  0  0  0
  187.7340  173.5700  142.1750 C   0  0  0  0  0  1  0  0  0  0  0  0
  185.6750  176.9860  144.0260 C   0  0  0  0  0  2  0  0  0  0  0  0
  189.0720  175.2790  146.1910 C   0  0  0  0  0  2  0  0  0  0  0  0
  189.9920  174.4250  142.6380 C   0  0  0  0  0  3  0  0  0  0  0  0
  189.1830  176.6040  146.8700 C   0  0  0  0  0  3  0  0  0  0  0  0
  187.0820  177.4330  145.8550 C   0  0  0  0  0  0  0  0  0  0  0  0
  187.0000  176.7620  144.7030 C   0  0  0  0  0  0  0  0  0  0  0  0
  185.6300  178.9150  147.0550 O   0  0  0  0  0  0  0  0  0  0  0  0
  188.2590  177.5510  146.7360 C   0  0  0  0  0  3  0  0  0  0  0  0
  188.1060  176.0310  144.0310 C   0  0  0  0  0  0  0  0  0  0  0  0
  191.9950  173.0590  144.4970 C   0  0  0  0  0  3  0  0  0  0  0  0
  192.2970  175.3640  145.1520 C   0  0  0  0  0  3  0  0  0  0  0  0
  191.5060  174.3760  144.5460 C   0  0  0  0  0  0  0  0  0  0  0  0
  194.0060  173.7320  145.6630 C   0  0  0  0  0  3  0  0  0  0  0  0
  193.5430  175.0500  145.7160 C   0  0  0  0  0  0  0  0  0  0  0  0
  193.2350  172.7390  145.0550 C   0  0  0  0  0  3  0  0  0  0  0  0
  194.3330  176.0230  146.3330 O   0  0  0  0  0  0  0  0  0  0  0  0
  194.6550  177.2580  145.7090 C   0  0  0  0  0  1  0  0  0  0  0  0
  185.6560  179.7730  143.7910 O   0  0  0  0  0  1  0  0  0  0  0  0
  184.5360  179.1760  144.2710 N   0  0  0  0  0  2  0  0  0  0  0  0
  188.9570  174.8830  140.5490 O   0  0  0  0  0  0  0  0  0  0  0  0
  188.0530  173.6410  138.8130 O   0  0  0  0  0  0  0  0  0  0  0  0
  188.9970  173.8250  139.6280 C   0  0  0  0  0  0  0  0  0  0  0  0
  191.2610  173.3260  139.1510 O   0  0  0  0  0  0  0  0  0  0  0  0
  190.1580  172.9320  139.6160 C   0  0  0  0  0  0  0  0  0  0  0  0
  190.0510  171.6740  140.1090 F   0  0  0  0  0  0  0  0  0  0  0  0
  1 26  1  6  0  0  0
  1  3  1  0  0  0  0
  2 16  1  0  0  0  0
  3 14  2  0  0  0  0
  4  9  1  0  0  0  0
  5  7  1  1  0  0  0
  5  2  1  0  0  0  0
  5 10  1  0  0  0  0
  6 19  1  0  0  0  0
  6  4  1  0  0  0  0
  8 13  1  0  0  0  0
  8  1  1  0  0  0  0
  9 11  1  0  0  0  0
 10  6  2  0  0  0  0
 12  3  1  0  0  0  0
 12 15  1  0  0  0  0
 13 12  2  0  0  0  0
 15 11  2  0  0  0  0
 16  4  2  0  0  0  0
 16 13  1  0  0  0  0
 17 19  2  0  0  0  0
 17 22  1  0  0  0  0
 18 21  2  0  0  0  0
 19 18  1  0  0  0  0
 20 21  1  0  0  0  0
 21 23  1  0  0  0  0
 22 20  2  0  0  0  0
 24 23  1  0  0  0  0
 25 26  1  0  0  0  0
 27  5  1  0  0  0  0
 28 29  2  0  0  0  0
 29 27  1  0  0  0  0
 30 31  2  0  0  0  0
 31 29  1  0  0  0  0
 31 32  1  0  0  0  0
M  END
>  <MODEL>
1

>  <REMARK>
 VINA RESULT:      -7.5      0.000      0.000
  Name = 
  6 active torsions:
  status: ('A' for Active; 'I' for Inactive)
    1  A    between atoms: O_1  and  C_21
    2  A    between atoms: C_3  and  N_27
    3  A    between atoms: C_10  and  C_29
    4  A    between atoms: C_11  and  O_32
    5  A    between atoms: C_12  and  C_15
    6  A    between atoms: C_29  and  O_32
                            x       y       z     vdW  Elec       q    Type
                         _______ _______ _______ _____ _____    ______ ____

>  <TORSDO>
F 6

$$$$
=
 OpenBabel11062419053D

 32 35  0  0  1  0  0  0  0  0999 V2000
  185.2550  177.6330  143.6600 C   0  0  2  0  0  3  0  0  0  0  0  0
  188.5610  175.3250  141.7670 C   0  0  0  0  0  2  0  0  0  0  0  0
  186.1730  178.1100  144.7260 C   0  0  0  0  0  0  0  0  0  0  0  0
  189.4980  175.1860  144.0510 C   0  0  0  0  0  0  0  0  0  0  0  0
  189.1760  173.9470  141.4870 C   0  0  2  0  0  0  0  0  0  0  0  0
  190.6100  174.3630  143.4790 C   0  0  0  0  0  0  0  0  0  0  0  0
  188.2180  172.8410  141.9190 C   0  0  0  0  0  1  0  0  0  0  0  0
  186.0670  176.5300  142.9700 C   0  0  0  0  0  2  0  0  0  0  0  0
  189.4070  175.3550  145.5400 C   0  0  0  0  0  2  0  0  0  0  0  0
  190.4510  173.8090  142.2660 C   0  0  0  0  0  3  0  0  0  0  0  0
  189.4830  176.7920  145.9370 C   0  0  0  0  0  3  0  0  0  0  0  0
  187.4090  177.3620  144.7110 C   0  0  0  0  0  0  0  0  0  0  0  0
  187.3710  176.4690  143.7180 C   0  0  0  0  0  0  0  0  0  0  0  0
  185.9040  179.0350  145.5380 O   0  0  0  0  0  0  0  0  0  0  0  0
  188.5550  177.6770  145.5840 C   0  0  0  0  0  3  0  0  0  0  0  0
  188.5060  175.6350  143.2440 C   0  0  0  0  0  0  0  0  0  0  0  0
  192.2700  172.9080  144.6770 C   0  0  0  0  0  3  0  0  0  0  0  0
  192.7960  175.2430  144.3530 C   0  0  0  0  0  3  0  0  0  0  0  0
  191.9020  174.1740  144.1890 C   0  0  0  0  0  0  0  0  0  0  0  0
  194.3670  173.8000  145.4900 C   0  0  0  0  0  3  0  0  0  0  0  0
  194.0250  175.0660  145.0060 C   0  0  0  0  0  0  0  0  0  0  0  0
  193.4930  172.7230  145.3260 C   0  0  0  0  0  3  0  0  0  0  0  0
  194.9170  176.1250  145.1870 O   0  0  0  0  0  0  0  0  0  0  0  0
  194.6050  177.2660  145.9750 C   0  0  0  0  0  1  0  0  0  0  0  0
  185.3420  178.3860  141.4850 O   0  0  0  0  0  1  0  0  0  0  0  0
  184.9000  178.7050  142.7280 N   0  0  0  0  0  2  0  0  0  0  0  0
  189.4810  173.8140  140.0970 O   0  0  0  0  0  0  0  0  0  0  0  0
  188.0890  172.3450  138.9680 O   0  0  0  0  0  0  0  0  0  0  0  0
  188.5400  173.5150  139.1010 C   0  0  0  0  0  0  0  0  0  0  0  0
  188.3830  174.5770  136.9920 O   0  0  0  0  0  0  0  0  0  0  0  0
  188.0740  174.5820  138.2130 C   0  0  0  0  0  0  0  0  0  0  0  0
  187.3010  175.5830  138.7030 F   0  0  0  0  0  0  0  0  0  0  0  0
  1 26  1  6  0  0  0
  1  3  1  0  0  0  0
  2 16  1  0  0  0  0
  3 14  2  0  0  0  0
  4  9  1  0  0  0  0
  5  2  1  0  0  0  0
  5  7  1  1  0  0  0
  5 10  1  0  0  0  0
  6  4  1  0  0  0  0
  6 19  1  0  0  0  0
  8  1  1  0  0  0  0
  8 13  1  0  0  0  0
  9 11  1  0  0  0  0
 10  6  2  0  0  0  0
 12  3  1  0  0  0  0
 12 15  1  0  0  0  0
 13 12  2  0  0  0  0
 15 11  2  0  0  0  0
 16 13  1  0  0  0  0
 16  4  2  0  0  0  0
 17 22  1  0  0  0  0
 18 21  2  0  0  0  0
 19 18  1  0  0  0  0
 19 17  2  0  0  0  0
 21 23  1  0  0  0  0
 21 20  1  0  0  0  0
 22 20  2  0  0  0  0
 23 24  1  0  0  0  0
 25 26  1  0  0  0  0
 27  5  1  0  0  0  0
 28 29  2  0  0  0  0
 29 27  1  0  0  0  0
 30 31  2  0  0  0  0
 31 32  1  0  0  0  0
 31 29  1  0  0  0  0
M  END
>  <MODEL>
2

>  <REMARK>
 VINA RESULT:      -7.5      1.439      1.636
  Name = 
  6 active torsions:
  status: ('A' for Active; 'I' for Inactive)
    1  A    between atoms: O_1  and  C_21
    2  A    between atoms: C_3  and  N_27
    3  A    between atoms: C_10  and  C_29
    4  A    between atoms: C_11  and  O_32
    5  A    between atoms: C_12  and  C_15
    6  A    between atoms: C_29  and  O_32
                            x       y       z     vdW  Elec       q    Type
                         _______ _______ _______ _____ _____    ______ ____

>  <TORSDO>
F 6

$$$$
=
 OpenBabel11062419053D

 32 35  0  0  1  0  0  0  0  0999 V2000
  193.8890  175.1410  144.7370 C   0  0  2  0  0  3  0  0  0  0  0  0
  189.7370  174.2500  143.3920 C   0  0  0  0  0  2  0  0  0  0  0  0
  193.3670  175.8820  145.9140 C   0  0  0  0  0  0  0  0  0  0  0  0
  189.1310  176.3530  144.5420 C   0  0  0  0  0  0  0  0  0  0  0  0
  188.6190  174.5410  142.3810 C   0  0  2  0  0  0  0  0  0  0  0  0
  187.7260  176.1320  144.0750 C   0  0  0  0  0  0  0  0  0  0  0  0
  189.1400  175.4240  141.2520 C   0  0  0  0  0  1  0  0  0  0  0  0
  192.6380  174.9380  143.8730 C   0  0  0  0  0  2  0  0  0  0  0  0
  189.4770  177.6420  145.2290 C   0  0  0  0  0  2  0  0  0  0  0  0
  187.5010  175.2610  143.0780 C   0  0  0  0  0  3  0  0  0  0  0  0
  189.9990  177.4090  146.6080 C   0  0  0  0  0  3  0  0  0  0  0  0
  191.9510  176.1320  145.7780 C   0  0  0  0  0  0  0  0  0  0  0  0
  191.5190  175.5980  144.6330 C   0  0  0  0  0  0  0  0  0  0  0  0
  194.0700  176.2490  146.8940 O   0  0  0  0  0  0  0  0  0  0  0  0
  191.1350  176.7560  146.8360 C   0  0  0  0  0  3  0  0  0  0  0  0
  190.1010  175.4690  144.2050 C   0  0  0  0  0  0  0  0  0  0  0  0
  186.3890  176.7720  146.1030 C   0  0  0  0  0  3  0  0  0  0  0  0
  185.6410  177.5290  143.9350 C   0  0  0  0  0  3  0  0  0  0  0  0
  186.5640  176.8090  144.7090 C   0  0  0  0  0  0  0  0  0  0  0  0
  184.3940  178.1290  145.9170 C   0  0  0  0  0  3  0  0  0  0  0  0
  184.5530  178.1860  144.5290 C   0  0  0  0  0  0  0  0  0  0  0  0
  185.3090  177.4250  146.7020 C   0  0  0  0  0  3  0  0  0  0  0  0
  183.6220  178.8960  143.7680 O   0  0  0  0  0  0  0  0  0  0  0  0
  183.2800  178.5300  142.4380 C   0  0  0  0  0  1  0  0  0  0  0  0
  193.5120  172.9800  145.4410 O   0  0  0  0  0  1  0  0  0  0  0  0
  194.4920  173.8630  145.1220 N   0  0  0  0  0  2  0  0  0  0  0  0
  188.1030  173.3190  141.8480 O   0  0  0  0  0  0  0  0  0  0  0  0
  187.9810  172.6630  139.6280 O   0  0  0  0  0  0  0  0  0  0  0  0
  188.6160  172.6660  140.7180 C   0  0  0  0  0  0  0  0  0  0  0  0
  190.9000  172.4080  140.1550 O   0  0  0  0  0  0  0  0  0  0  0  0
  189.9100  171.9860  140.8100 C   0  0  0  0  0  0  0  0  0  0  0  0
  190.0500  170.8990  141.6090 F   0  0  0  0  0  0  0  0  0  0  0  0
  1 26  1  1  0  0  0
  1  3  1  0  0  0  0
  2 16  1  0  0  0  0
  3 14  2  0  0  0  0
  4  9  1  0  0  0  0
  5  7  1  6  0  0  0
  5 10  1  0  0  0  0
  5  2  1  0  0  0  0
  6  4  1  0  0  0  0
  6 19  1  0  0  0  0
  8 13  1  0  0  0  0
  8  1  1  0  0  0  0
  9 11  1  0  0  0  0
 10  6  2  0  0  0  0
 11 15  2  0  0  0  0
 12  3  1  0  0  0  0
 12 15  1  0  0  0  0
 13 12  2  0  0  0  0
 16  4  2  0  0  0  0
 16 13  1  0  0  0  0
 17 22  1  0  0  0  0
 18 21  2  0  0  0  0
 18 19  1  0  0  0  0
 19 17  2  0  0  0  0
 20 22  2  0  0  0  0
 21 20  1  0  0  0  0
 23 21  1  0  0  0  0
 24 23  1  0  0  0  0
 26 25  1  0  0  0  0
 27  5  1  0  0  0  0
 28 29  2  0  0  0  0
 29 31  1  0  0  0  0
 29 27  1  0  0  0  0
 30 31  2  0  0  0  0
 31 32  1  0  0  0  0
M  END
>  <MODEL>
3

>  <REMARK>
 VINA RESULT:      -7.3      2.512      6.435
  Name = 
  6 active torsions:
  status: ('A' for Active; 'I' for Inactive)
    1  A    between atoms: O_1  and  C_21
    2  A    between atoms: C_3  and  N_27
    3  A    between atoms: C_10  and  C_29
    4  A    between atoms: C_11  and  O_32
    5  A    between atoms: C_12  and  C_15
    6  A    between atoms: C_29  and  O_32
                            x       y       z     vdW  Elec       q    Type
                         _______ _______ _______ _____ _____    ______ ____

>  <TORSDO>
F 6

$$$$
=
 OpenBabel11062419053D

 32 35  0  0  1  0  0  0  0  0999 V2000
  184.9060  177.8250  144.8330 C   0  0  2  0  0  3  0  0  0  0  0  0
  188.1910  175.9960  142.4450 C   0  0  0  0  0  2  0  0  0  0  0  0
  185.8440  178.0910  145.9530 C   0  0  0  0  0  0  0  0  0  0  0  0
  189.1840  175.4150  144.6340 C   0  0  0  0  0  0  0  0  0  0  0  0
  188.8150  174.7120  141.8800 C   0  0  2  0  0  0  0  0  0  0  0  0
  190.2910  174.7410  143.8850 C   0  0  0  0  0  0  0  0  0  0  0  0
  187.8800  173.5270  142.1000 C   0  0  0  0  0  1  0  0  0  0  0  0
  185.7130  176.8960  143.9180 C   0  0  0  0  0  2  0  0  0  0  0  0
  189.1260  175.2800  146.1280 C   0  0  0  0  0  2  0  0  0  0  0  0
  190.1100  174.4400  142.5880 C   0  0  0  0  0  3  0  0  0  0  0  0
  189.1960  176.6080  146.8050 C   0  0  0  0  0  3  0  0  0  0  0  0
  187.0870  177.3820  145.7620 C   0  0  0  0  0  0  0  0  0  0  0  0
  187.0350  176.7060  144.6110 C   0  0  0  0  0  0  0  0  0  0  0  0
  185.5840  178.8310  146.9400 O   0  0  0  0  0  0  0  0  0  0  0  0
  188.2500  177.5320  146.6560 C   0  0  0  0  0  3  0  0  0  0  0  0
  188.1680  176.0010  143.9550 C   0  0  0  0  0  0  0  0  0  0  0  0
  192.3950  175.4620  145.0510 C   0  0  0  0  0  3  0  0  0  0  0  0
  192.0560  173.1100  144.6190 C   0  0  0  0  0  3  0  0  0  0  0  0
  191.6010  174.4330  144.5140 C   0  0  0  0  0  0  0  0  0  0  0  0
  194.0610  173.8510  145.7490 C   0  0  0  0  0  3  0  0  0  0  0  0
  193.2840  172.8120  145.2290 C   0  0  0  0  0  0  0  0  0  0  0  0
  193.6180  175.1730  145.6610 C   0  0  0  0  0  3  0  0  0  0  0  0
  193.7520  171.4990  145.3290 O   0  0  0  0  0  0  0  0  0  0  0  0
  195.1330  171.1840  145.4480 C   0  0  0  0  0  1  0  0  0  0  0  0
  185.6240  179.8010  143.8920 O   0  0  0  0  0  1  0  0  0  0  0  0
  184.5170  179.0570  144.1430 N   0  0  0  0  0  2  0  0  0  0  0  0
  189.0890  174.8660  140.4860 O   0  0  0  0  0  0  0  0  0  0  0  0
  189.8760  172.7990  139.7930 O   0  0  0  0  0  0  0  0  0  0  0  0
  189.1550  173.8090  139.5670 C   0  0  0  0  0  0  0  0  0  0  0  0
  188.5440  173.0400  137.4140 O   0  0  0  0  0  0  0  0  0  0  0  0
  188.3680  173.8820  138.3340 C   0  0  0  0  0  0  0  0  0  0  0  0
  187.4390  174.8580  138.1790 F   0  0  0  0  0  0  0  0  0  0  0  0
  1 26  1  6  0  0  0
  1  3  1  0  0  0  0
  2 16  1  0  0  0  0
  3 14  2  0  0  0  0
  4  9  1  0  0  0  0
  5  7  1  1  0  0  0
  5  2  1  0  0  0  0
  5 10  1  0  0  0  0
  6 19  1  0  0  0  0
  6  4  1  0  0  0  0
  8 13  1  0  0  0  0
  8  1  1  0  0  0  0
  9 11  1  0  0  0  0
 10  6  2  0  0  0  0
 12  3  1  0  0  0  0
 12 15  1  0  0  0  0
 13 12  2  0  0  0  0
 15 11  2  0  0  0  0
 16 13  1  0  0  0  0
 16  4  2  0  0  0  0
 17 22  1  0  0  0  0
 18 21  2  0  0  0  0
 19 18  1  0  0  0  0
 19 17  2  0  0  0  0
 21 23  1  0  0  0  0
 21 20  1  0  0  0  0
 22 20  2  0  0  0  0
 23 24  1  0  0  0  0
 25 26  1  0  0  0  0
 27  5  1  0  0  0  0
 29 28  2  0  0  0  0
 29 27  1  0  0  0  0
 30 31  2  0  0  0  0
 31 29  1  0  0  0  0
 32 31  1  0  0  0  0
M  END
>  <MODEL>
4

>  <REMARK>
 VINA RESULT:      -7.2      1.327      1.974
  Name = 
  6 active torsions:
  status: ('A' for Active; 'I' for Inactive)
    1  A    between atoms: O_1  and  C_21
    2  A    between atoms: C_3  and  N_27
    3  A    between atoms: C_10  and  C_29
    4  A    between atoms: C_11  and  O_32
    5  A    between atoms: C_12  and  C_15
    6  A    between atoms: C_29  and  O_32
                            x       y       z     vdW  Elec       q    Type
                         _______ _______ _______ _____ _____    ______ ____

>  <TORSDO>
F 6

$$$$
=
 OpenBabel11062419053D

 32 35  0  0  1  0  0  0  0  0999 V2000
  186.0670  178.2190  140.8020 C   0  0  2  0  0  3  0  0  0  0  0  0
  187.4820  176.5100  144.6640 C   0  0  0  0  0  2  0  0  0  0  0  0
  186.6630  177.0800  140.0580 C   0  0  0  0  0  0  0  0  0  0  0  0
  189.2960  175.5030  143.3190 C   0  0  0  0  0  0  0  0  0  0  0  0
  188.4730  176.6090  145.8310 C   0  0  2  0  0  0  0  0  0  0  0  0
  189.8470  174.9430  144.5930 C   0  0  0  0  0  0  0  0  0  0  0  0
  189.2650  177.9090  145.7470 C   0  0  0  0  0  1  0  0  0  0  0  0
  186.6580  178.0630  142.2080 C   0  0  0  0  0  2  0  0  0  0  0  0
  190.0910  175.3550  142.0540 C   0  0  0  0  0  2  0  0  0  0  0  0
  189.4330  175.4570  145.7630 C   0  0  0  0  0  3  0  0  0  0  0  0
  189.3310  174.6030  141.0110 C   0  0  0  0  0  3  0  0  0  0  0  0
  187.5470  176.3180  140.9090 C   0  0  0  0  0  0  0  0  0  0  0  0
  187.5500  176.8540  142.1320 C   0  0  0  0  0  0  0  0  0  0  0  0
  186.4330  176.8220  138.8460 O   0  0  0  0  0  0  0  0  0  0  0  0
  188.2040  175.0680  140.4800 C   0  0  0  0  0  3  0  0  0  0  0  0
  188.1780  176.2680  143.3450 C   0  0  0  0  0  0  0  0  0  0  0  0
  190.4230  172.5430  144.1250 C   0  0  0  0  0  3  0  0  0  0  0  0
  192.1170  173.9770  145.0770 C   0  0  0  0  0  3  0  0  0  0  0  0
  190.8050  173.8060  144.6100 C   0  0  0  0  0  0  0  0  0  0  0  0
  192.6270  171.6630  144.5980 C   0  0  0  0  0  3  0  0  0  0  0  0
  193.0310  172.9120  145.0780 C   0  0  0  0  0  0  0  0  0  0  0  0
  191.3270  171.4790  144.1220 C   0  0  0  0  0  3  0  0  0  0  0  0
  194.3360  173.0680  145.5510 O   0  0  0  0  0  0  0  0  0  0  0  0
  195.0130  174.3170  145.5370 C   0  0  0  0  0  1  0  0  0  0  0  0
  184.1800  177.9060  142.0860 O   0  0  0  0  0  1  0  0  0  0  0  0
  184.6040  178.1520  140.8200 N   0  0  0  0  0  2  0  0  0  0  0  0
  187.7780  176.5400  147.0780 O   0  0  0  0  0  0  0  0  0  0  0  0
  185.4680  176.5010  147.2720 O   0  0  0  0  0  0  0  0  0  0  0  0
  186.5440  177.1560  147.3350 C   0  0  0  0  0  0  0  0  0  0  0  0
  185.6880  179.3540  147.1390 O   0  0  0  0  0  0  0  0  0  0  0  0
  186.5140  178.5770  147.6890 C   0  0  0  0  0  0  0  0  0  0  0  0
  187.3740  179.0640  148.6160 F   0  0  0  0  0  0  0  0  0  0  0  0
  1 26  1  1  0  0  0
  1  8  1  0  0  0  0
  2  5  1  0  0  0  0
  3  1  1  0  0  0  0
  3 12  1  0  0  0  0
  4 16  2  0  0  0  0
  4  6  1  0  0  0  0
  5  7  1  6  0  0  0
  5 27  1  0  0  0  0
  6 19  1  0  0  0  0
  6 10  2  0  0  0  0
  9  4  1  0  0  0  0
 10  5  1  0  0  0  0
 11  9  1  0  0  0  0
 12 13  2  0  0  0  0
 13  8  1  0  0  0  0
 13 16  1  0  0  0  0
 14  3  2  0  0  0  0
 15 12  1  0  0  0  0
 15 11  2  0  0  0  0
 16  2  1  0  0  0  0
 17 19  1  0  0  0  0
 18 21  1  0  0  0  0
 19 18  2  0  0  0  0
 20 21  2  0  0  0  0
 21 23  1  0  0  0  0
 22 17  2  0  0  0  0
 22 20  1  0  0  0  0
 24 23  1  0  0  0  0
 26 25  1  0  0  0  0
 27 29  1  0  0  0  0
 28 29  2  0  0  0  0
 29 31  1  0  0  0  0
 30 31  2  0  0  0  0
 31 32  1  0  0  0  0
M  END
>  <MODEL>
5

>  <REMARK>
 VINA RESULT:      -7.2      2.979      5.563
  Name = 
  6 active torsions:
  status: ('A' for Active; 'I' for Inactive)
    1  A    between atoms: O_1  and  C_21
    2  A    between atoms: C_3  and  N_27
    3  A    between atoms: C_10  and  C_29
    4  A    between atoms: C_11  and  O_32
    5  A    between atoms: C_12  and  C_15
    6  A    between atoms: C_29  and  O_32
                            x       y       z     vdW  Elec       q    Type
                         _______ _______ _______ _____ _____    ______ ____

>  <TORSDO>
F 6

$$$$
=
 OpenBabel11062419053D

 32 35  0  0  1  0  0  0  0  0999 V2000
  191.2400  171.8600  141.1200 C   0  0  2  0  0  3  0  0  0  0  0  0
  190.9490  175.2100  144.0410 C   0  0  0  0  0  2  0  0  0  0  0  0
  190.2340  172.5120  140.2440 C   0  0  0  0  0  0  0  0  0  0  0  0
  188.6360  175.4680  143.2050 C   0  0  0  0  0  0  0  0  0  0  0  0
  190.4500  175.6850  145.4130 C   0  0  2  0  0  0  0  0  0  0  0  0
  188.4630  176.5700  144.2020 C   0  0  0  0  0  0  0  0  0  0  0  0
  189.9210  174.5060  146.2230 C   0  0  0  0  0  1  0  0  0  0  0  0
  191.1480  172.6710  142.4190 C   0  0  0  0  0  2  0  0  0  0  0  0
  187.4450  175.0020  142.4190 C   0  0  0  0  0  2  0  0  0  0  0  0
  189.3360  176.6720  145.2180 C   0  0  0  0  0  3  0  0  0  0  0  0
  187.6570  175.1620  140.9500 C   0  0  0  0  0  3  0  0  0  0  0  0
  189.5730  173.5930  140.9370 C   0  0  0  0  0  0  0  0  0  0  0  0
  190.0830  173.7030  142.1670 C   0  0  0  0  0  0  0  0  0  0  0  0
  189.9870  172.1610  139.0590 O   0  0  0  0  0  0  0  0  0  0  0  0
  188.5990  174.4930  140.2910 C   0  0  0  0  0  3  0  0  0  0  0  0
  189.8140  174.8000  143.1330 C   0  0  0  0  0  0  0  0  0  0  0  0
  187.2020  178.2970  142.8850 C   0  0  0  0  0  3  0  0  0  0  0  0
  186.5020  177.8270  145.1480 C   0  0  0  0  0  3  0  0  0  0  0  0
  187.3840  177.5850  144.0830 C   0  0  0  0  0  0  0  0  0  0  0  0
  185.3130  179.4720  143.8360 C   0  0  0  0  0  3  0  0  0  0  0  0
  185.4700  178.7700  145.0340 C   0  0  0  0  0  0  0  0  0  0  0  0
  186.1750  179.2370  142.7640 C   0  0  0  0  0  3  0  0  0  0  0  0
  184.5940  179.0280  146.0920 O   0  0  0  0  0  0  0  0  0  0  0  0
  184.8590  178.6150  147.4260 C   0  0  0  0  0  1  0  0  0  0  0  0
  193.1570  173.1100  140.8530 O   0  0  0  0  0  1  0  0  0  0  0  0
  192.5850  171.9190  140.5430 N   0  0  0  0  0  2  0  0  0  0  0  0
  191.5050  176.3340  146.1260 O   0  0  0  0  0  0  0  0  0  0  0  0
  193.3010  177.2890  145.0140 O   0  0  0  0  0  0  0  0  0  0  0  0
  192.8480  176.3470  145.7200 C   0  0  0  0  0  0  0  0  0  0  0  0
  194.9450  175.4770  146.3880 O   0  0  0  0  0  0  0  0  0  0  0  0
  193.7310  175.2540  146.1320 C   0  0  0  0  0  0  0  0  0  0  0  0
  193.2440  173.9940  146.2450 F   0  0  0  0  0  0  0  0  0  0  0  0
  1 26  1  6  0  0  0
  1  8  1  0  0  0  0
  2  5  1  0  0  0  0
  3 12  1  0  0  0  0
  3  1  1  0  0  0  0
  4  6  1  0  0  0  0
  5 27  1  0  0  0  0
  5  7  1  1  0  0  0
  6 10  2  0  0  0  0
  9  4  1  0  0  0  0
 10  5  1  0  0  0  0
 11  9  1  0  0  0  0
 12 13  2  0  0  0  0
 13  8  1  0  0  0  0
 13 16  1  0  0  0  0
 14  3  2  0  0  0  0
 15 12  1  0  0  0  0
 15 11  2  0  0  0  0
 16  4  2  0  0  0  0
 16  2  1  0  0  0  0
 17 19  1  0  0  0  0
 19  6  1  0  0  0  0
 19 18  2  0  0  0  0
 20 21  2  0  0  0  0
 21 18  1  0  0  0  0
 21 23  1  0  0  0  0
 22 17  2  0  0  0  0
 22 20  1  0  0  0  0
 23 24  1  0  0  0  0
 26 25  1  0  0  0  0
 28 29  2  0  0  0  0
 29 27  1  0  0  0  0
 29 31  1  0  0  0  0
 31 32  1  0  0  0  0
 31 30  2  0  0  0  0
M  END
>  <MODEL>
6

>  <REMARK>
 VINA RESULT:      -7.2      2.864      7.553
  Name = 
  6 active torsions:
  status: ('A' for Active; 'I' for Inactive)
    1  A    between atoms: O_1  and  C_21
    2  A    between atoms: C_3  and  N_27
    3  A    between atoms: C_10  and  C_29
    4  A    between atoms: C_11  and  O_32
    5  A    between atoms: C_12  and  C_15
    6  A    between atoms: C_29  and  O_32
                            x       y       z     vdW  Elec       q    Type
                         _______ _______ _______ _____ _____    ______ ____

>  <TORSDO>
F 6

$$$$
=
 OpenBabel11062419053D

 32 35  0  0  1  0  0  0  0  0999 V2000
  191.7620  170.5860  142.8440 C   0  0  2  0  0  3  0  0  0  0  0  0
  190.8000  174.7520  144.0900 C   0  0  0  0  0  2  0  0  0  0  0  0
  190.9690  170.7550  141.6000 C   0  0  0  0  0  0  0  0  0  0  0  0
  188.7290  174.4510  142.7750 C   0  0  0  0  0  0  0  0  0  0  0  0
  190.0060  175.6650  145.0350 C   0  0  2  0  0  0  0  0  0  0  0  0
  188.3290  175.8290  143.2020 C   0  0  0  0  0  0  0  0  0  0  0  0
  189.3210  174.8400  146.1190 C   0  0  0  0  0  1  0  0  0  0  0  0
  191.3760  171.8180  143.6720 C   0  0  0  0  0  2  0  0  0  0  0  0
  187.7450  173.6090  142.0140 C   0  0  0  0  0  2  0  0  0  0  0  0
  188.9550  176.3930  144.2490 C   0  0  0  0  0  3  0  0  0  0  0  0
  188.2760  173.2160  140.6750 C   0  0  0  0  0  3  0  0  0  0  0  0
  190.1610  171.9510  141.6650 C   0  0  0  0  0  0  0  0  0  0  0  0
  190.3850  172.5700  142.8270 C   0  0  0  0  0  0  0  0  0  0  0  0
  190.9930  169.9570  140.6250 O   0  0  0  0  0  0  0  0  0  0  0  0
  189.3470  172.4390  140.5360 C   0  0  0  0  0  3  0  0  0  0  0  0
  189.8980  173.9220  143.2090 C   0  0  0  0  0  0  0  0  0  0  0  0
  187.4240  176.8710  141.1040 C   0  0  0  0  0  3  0  0  0  0  0  0
  186.1510  177.0810  143.1460 C   0  0  0  0  0  3  0  0  0  0  0  0
  187.2940  176.6140  142.4800 C   0  0  0  0  0  0  0  0  0  0  0  0
  185.3150  178.0580  141.0980 C   0  0  0  0  0  3  0  0  0  0  0  0
  185.1620  177.8070  142.4650 C   0  0  0  0  0  0  0  0  0  0  0  0
  186.4420  177.5910  140.4190 C   0  0  0  0  0  3  0  0  0  0  0  0
  184.0250  178.2880  143.1200 O   0  0  0  0  0  0  0  0  0  0  0  0
  184.0720  178.8490  144.4250 C   0  0  0  0  0  1  0  0  0  0  0  0
  193.8540  171.2940  143.4990 O   0  0  0  0  0  1  0  0  0  0  0  0
  193.2000  170.5470  142.5730 N   0  0  0  0  0  2  0  0  0  0  0  0
  190.8710  176.6340  145.6310 O   0  0  0  0  0  0  0  0  0  0  0  0
  191.1740  176.7430  147.9270 O   0  0  0  0  0  0  0  0  0  0  0  0
  191.6240  176.4180  146.7950 C   0  0  0  0  0  0  0  0  0  0  0  0
  193.9890  176.5050  146.7570 O   0  0  0  0  0  0  0  0  0  0  0  0
  192.9470  175.7990  146.6860 C   0  0  0  0  0  0  0  0  0  0  0  0
  193.0580  174.4590  146.5120 F   0  0  0  0  0  0  0  0  0  0  0  0
  1 26  1  6  0  0  0
  1  8  1  0  0  0  0
  2  5  1  0  0  0  0
  3 12  1  0  0  0  0
  3  1  1  0  0  0  0
  4  6  1  0  0  0  0
  4 16  2  0  0  0  0
  5 27  1  0  0  0  0
  5  7  1  1  0  0  0
  6 10  2  0  0  0  0
  9  4  1  0  0  0  0
 10  5  1  0  0  0  0
 11  9  1  0  0  0  0
 12 13  2  0  0  0  0
 13 16  1  0  0  0  0
 13  8  1  0  0  0  0
 14  3  2  0  0  0  0
 15 11  2  0  0  0  0
 15 12  1  0  0  0  0
 16  2  1  0  0  0  0
 17 19  1  0  0  0  0
 19 18  2  0  0  0  0
 19  6  1  0  0  0  0
 20 21  2  0  0  0  0
 21 23  1  0  0  0  0
 21 18  1  0  0  0  0
 22 20  1  0  0  0  0
 22 17  2  0  0  0  0
 23 24  1  0  0  0  0
 26 25  1  0  0  0  0
 27 29  1  0  0  0  0
 29 28  2  0  0  0  0
 31 30  2  0  0  0  0
 31 29  1  0  0  0  0
 32 31  1  0  0  0  0
M  END
>  <MODEL>
7

>  <REMARK>
 VINA RESULT:      -7.1      3.392      8.014
  Name = 
  6 active torsions:
  status: ('A' for Active; 'I' for Inactive)
    1  A    between atoms: O_1  and  C_21
    2  A    between atoms: C_3  and  N_27
    3  A    between atoms: C_10  and  C_29
    4  A    between atoms: C_11  and  O_32
    5  A    between atoms: C_12  and  C_15
    6  A    between atoms: C_29  and  O_32
                            x       y       z     vdW  Elec       q    Type
                         _______ _______ _______ _____ _____    ______ ____

>  <TORSDO>
F 6

$$$$
=
 OpenBabel11062419053D

 32 35  0  0  1  0  0  0  0  0999 V2000
  192.1280  172.7640  139.9940 C   0  0  2  0  0  3  0  0  0  0  0  0
  192.1420  175.8470  143.2090 C   0  0  0  0  0  2  0  0  0  0  0  0
  190.6810  172.9970  139.7520 C   0  0  0  0  0  0  0  0  0  0  0  0
  189.7630  175.2460  143.5140 C   0  0  0  0  0  0  0  0  0  0  0  0
  192.2070  176.1400  144.7150 C   0  0  2  0  0  0  0  0  0  0  0  0
  189.7200  176.2330  144.6380 C   0  0  0  0  0  0  0  0  0  0  0  0
  192.5270  174.8660  145.4900 C   0  0  0  0  0  1  0  0  0  0  0  0
  192.3850  173.5140  141.3070 C   0  0  0  0  0  2  0  0  0  0  0  0
  188.5690  174.3690  143.2680 C   0  0  0  0  0  2  0  0  0  0  0  0
  190.8760  176.6600  145.1740 C   0  0  0  0  0  3  0  0  0  0  0  0
  188.0150  174.5650  141.8960 C   0  0  0  0  0  3  0  0  0  0  0  0
  190.1030  173.7840  140.8160 C   0  0  0  0  0  0  0  0  0  0  0  0
  191.0540  174.0940  141.7010 C   0  0  0  0  0  0  0  0  0  0  0  0
  190.0450  172.5570  138.7570 O   0  0  0  0  0  0  0  0  0  0  0  0
  188.7080  174.2640  140.8010 C   0  0  0  0  0  3  0  0  0  0  0  0
  190.9200  175.0410  142.8380 C   0  0  0  0  0  0  0  0  0  0  0  0
  187.9150  176.3540  146.3800 C   0  0  0  0  0  3  0  0  0  0  0  0
  187.7610  177.7960  144.4490 C   0  0  0  0  0  3  0  0  0  0  0  0
  188.4440  176.7930  145.1540 C   0  0  0  0  0  0  0  0  0  0  0  0
  186.0530  177.8830  146.1570 C   0  0  0  0  0  3  0  0  0  0  0  0
  186.5650  178.3410  144.9400 C   0  0  0  0  0  0  0  0  0  0  0  0
  186.7250  176.8930  146.8760 C   0  0  0  0  0  3  0  0  0  0  0  0
  185.8700  179.3300  144.2400 O   0  0  0  0  0  0  0  0  0  0  0  0
  184.4510  179.4130  144.2340 C   0  0  0  0  0  1  0  0  0  0  0  0
  193.2180  174.6000  139.1280 O   0  0  0  0  0  1  0  0  0  0  0  0
  192.9530  173.2880  138.9030 N   0  0  0  0  0  2  0  0  0  0  0  0
  193.1960  177.1370  144.9820 O   0  0  0  0  0  0  0  0  0  0  0  0
  194.5620  177.2190  146.8530 O   0  0  0  0  0  0  0  0  0  0  0  0
  194.4090  176.8960  145.6440 C   0  0  0  0  0  0  0  0  0  0  0  0
  195.9920  176.7950  143.8880 O   0  0  0  0  0  0  0  0  0  0  0  0
  195.5050  176.2530  144.9160 C   0  0  0  0  0  0  0  0  0  0  0  0
  196.0060  175.0700  145.3490 F   0  0  0  0  0  0  0  0  0  0  0  0
  1 26  1  6  0  0  0
  1  8  1  0  0  0  0
  2  5  1  0  0  0  0
  3  1  1  0  0  0  0
  3 12  1  0  0  0  0
  4  6  1  0  0  0  0
  5 27  1  0  0  0  0
  5 10  1  0  0  0  0
  5  7  1  1  0  0  0
  6 19  1  0  0  0  0
  6 10  2  0  0  0  0
  8 13  1  0  0  0  0
  9  4  1  0  0  0  0
 11  9  1  0  0  0  0
 12 13  2  0  0  0  0
 13 16  1  0  0  0  0
 14  3  2  0  0  0  0
 15 12  1  0  0  0  0
 15 11  2  0  0  0  0
 16  2  1  0  0  0  0
 16  4  2  0  0  0  0
 17 22  1  0  0  0  0
 18 21  2  0  0  0  0
 18 19  1  0  0  0  0
 19 17  2  0  0  0  0
 20 22  2  0  0  0  0
 21 20  1  0  0  0  0
 23 21  1  0  0  0  0
 24 23  1  0  0  0  0
 26 25  1  0  0  0  0
 27 29  1  0  0  0  0
 29 28  2  0  0  0  0
 30 31  2  0  0  0  0
 31 32  1  0  0  0  0
 31 29  1  0  0  0  0
M  END
>  <MODEL>
8

>  <REMARK>
 VINA RESULT:      -7.1      2.958      7.514
  Name = 
  6 active torsions:
  status: ('A' for Active; 'I' for Inactive)
    1  A    between atoms: O_1  and  C_21
    2  A    between atoms: C_3  and  N_27
    3  A    between atoms: C_10  and  C_29
    4  A    between atoms: C_11  and  O_32
    5  A    between atoms: C_12  and  C_15
    6  A    between atoms: C_29  and  O_32
                            x       y       z     vdW  Elec       q    Type
                         _______ _______ _______ _____ _____    ______ ____

>  <TORSDO>
F 6

$$$$
=
 OpenBabel11062419053D

 32 35  0  0  1  0  0  0  0  0999 V2000
  185.0480  179.2830  145.1560 C   0  0  2  0  0  3  0  0  0  0  0  0
  188.4220  176.3910  145.4550 C   0  0  0  0  0  2  0  0  0  0  0  0
  184.6930  178.7580  143.8130 C   0  0  0  0  0  0  0  0  0  0  0  0
  188.4820  176.5180  142.9870 C   0  0  0  0  0  0  0  0  0  0  0  0
  189.9410  176.1750  145.4290 C   0  0  2  0  0  0  0  0  0  0  0  0
  189.6520  175.5860  143.0280 C   0  0  0  0  0  0  0  0  0  0  0  0
  190.6680  177.5160  145.4180 C   0  0  0  0  0  1  0  0  0  0  0  0
  186.4190  178.6500  145.4250 C   0  0  0  0  0  2  0  0  0  0  0  0
  188.0820  177.1290  141.6750 C   0  0  0  0  0  2  0  0  0  0  0  0
  190.3100  175.4180  144.1870 C   0  0  0  0  0  3  0  0  0  0  0  0
  186.6800  176.7740  141.3070 C   0  0  0  0  0  3  0  0  0  0  0  0
  185.7450  177.9130  143.2980 C   0  0  0  0  0  0  0  0  0  0  0  0
  186.7260  177.8330  144.2000 C   0  0  0  0  0  0  0  0  0  0  0  0
  183.6220  179.0240  143.2040 O   0  0  0  0  0  0  0  0  0  0  0  0
  185.6340  177.1650  142.0310 C   0  0  0  0  0  3  0  0  0  0  0  0
  187.9000  176.9220  144.1420 C   0  0  0  0  0  0  0  0  0  0  0  0
  191.4470  174.5430  141.6140 C   0  0  0  0  0  3  0  0  0  0  0  0
  189.1420  174.2780  140.9430 C   0  0  0  0  0  3  0  0  0  0  0  0
  190.0840  174.8030  141.8400 C   0  0  0  0  0  0  0  0  0  0  0  0
  190.9040  173.2830  139.6200 C   0  0  0  0  0  3  0  0  0  0  0  0
  189.5440  173.5230  139.8300 C   0  0  0  0  0  0  0  0  0  0  0  0
  191.8540  173.7910  140.5100 C   0  0  0  0  0  3  0  0  0  0  0  0
  188.6150  173.0060  138.9230 O   0  0  0  0  0  0  0  0  0  0  0  0
  188.1990  173.7140  137.7640 C   0  0  0  0  0  1  0  0  0  0  0  0
  184.2620  177.5930  146.5120 O   0  0  0  0  0  1  0  0  0  0  0  0
  184.0650  178.8930  146.1700 N   0  0  0  0  0  2  0  0  0  0  0  0
  190.3520  175.4060  146.5620 O   0  0  0  0  0  0  0  0  0  0  0  0
  191.4550  176.1850  148.4460 O   0  0  0  0  0  0  0  0  0  0  0  0
  191.5150  175.6460  147.3080 C   0  0  0  0  0  0  0  0  0  0  0  0
  192.9410  174.1660  146.1350 O   0  0  0  0  0  0  0  0  0  0  0  0
  192.8140  175.2560  146.7520 C   0  0  0  0  0  0  0  0  0  0  0  0
  193.8860  176.0730  146.8980 F   0  0  0  0  0  0  0  0  0  0  0  0
  1  8  1  0  0  0  0
  1 26  1  1  0  0  0
  3  1  1  0  0  0  0
  4  6  1  0  0  0  0
  4 16  2  0  0  0  0
  5  7  1  1  0  0  0
  5  2  1  0  0  0  0
  5 27  1  0  0  0  0
  6 10  2  0  0  0  0
  9  4  1  0  0  0  0
 10  5  1  0  0  0  0
 11  9  1  0  0  0  0
 11 15  2  0  0  0  0
 12  3  1  0  0  0  0
 12 13  2  0  0  0  0
 13  8  1  0  0  0  0
 14  3  2  0  0  0  0
 15 12  1  0  0  0  0
 16 13  1  0  0  0  0
 16  2  1  0  0  0  0
 17 19  1  0  0  0  0
 18 19  2  0  0  0  0
 19  6  1  0  0  0  0
 20 21  2  0  0  0  0
 20 22  1  0  0  0  0
 21 18  1  0  0  0  0
 22 17  2  0  0  0  0
 23 21  1  0  0  0  0
 24 23  1  0  0  0  0
 26 25  1  0  0  0  0
 27 29  1  0  0  0  0
 29 28  2  0  0  0  0
 30 31  2  0  0  0  0
 31 32  1  0  0  0  0
 31 29  1  0  0  0  0
M  END
>  <MODEL>
9

>  <REMARK>
 VINA RESULT:      -7.0      2.375      5.651
  Name = 
  6 active torsions:
  status: ('A' for Active; 'I' for Inactive)
    1  A    between atoms: O_1  and  C_21
    2  A    between atoms: C_3  and  N_27
    3  A    between atoms: C_10  and  C_29
    4  A    between atoms: C_11  and  O_32
    5  A    between atoms: C_12  and  C_15
    6  A    between atoms: C_29  and  O_32
                            x       y       z     vdW  Elec       q    Type
                         _______ _______ _______ _____ _____    ______ ____

>  <TORSDO>
F 6

$$$$
