=
 OpenBabel11062422503D

 46 54  0  0  1  0  0  0  0  0999 V2000
  189.7130  172.2710  139.7930 C   0  0  0  0  0  0  0  0  0  0  0  0
  193.4210  173.5770  141.4480 C   0  0  0  0  0  1  0  0  0  0  0  0
  192.5630  169.0630  143.0370 C   0  0  0  0  0  2  0  0  0  0  0  0
  193.4340  170.7270  145.0690 C   0  0  0  0  0  2  0  0  0  0  0  0
  190.1670  175.4830  144.7780 C   0  0  0  0  0  0  0  0  0  0  0  0
  189.8170  171.2770  141.9900 O   0  0  0  0  0  0  0  0  0  0  0  0
  190.2820  174.0990  142.7650 C   0  0  0  0  0  0  0  0  0  0  0  0
  191.9750  176.7180  148.3050 C   0  0  0  0  0  3  0  0  0  0  0  0
  191.3730  176.3150  147.1830 C   0  0  0  0  0  0  0  0  0  0  0  0
  189.8390  173.4990  139.2560 N   0  0  0  0  0  0  0  0  0  0  0  0
  189.6690  173.6710  141.4990 C   0  0  0  0  0  0  0  0  0  0  0  0
  189.6110  172.3520  141.1420 C   0  0  1  0  0  3  0  0  0  0  0  0
  191.4420  174.9820  145.1650 C   0  0  0  0  0  0  0  0  0  0  0  0
  193.7460  171.6660  143.8910 C   0  0  2  0  0  3  0  0  0  0  0  0
  193.4930  168.9550  144.6080 S   0  0  0  0  0  0  0  0  0  0  0  0
  190.4400  178.6650  148.4370 C   0  0  0  0  0  2  0  0  0  0  0  0
  191.4420  170.3840  140.2960 C   0  0  0  0  0  2  0  0  0  0  0  0
  189.8190  174.3630  140.3030 C   0  0  0  0  0  3  0  0  0  0  0  0
  189.4300  177.8710  147.6090 C   0  0  0  0  0  2  0  0  0  0  0  0
  192.0380  175.3620  146.2980 C   0  0  0  0  0  3  0  0  0  0  0  0
  191.5530  173.6110  143.1550 C   0  0  0  0  0  0  0  0  0  0  0  0
  192.1180  174.0770  144.3470 C   0  0  0  0  0  3  0  0  0  0  0  0
  190.1670  170.7280  139.0070 S   0  0  0  0  0  0  0  0  0  0  0  0
  192.3770  172.7620  142.1920 C   0  0  2  0  0  3  0  0  0  0  0  0
  190.8380  170.3130  141.7280 C   0  0  1  0  0  3  0  0  0  0  0  0
  190.1050  176.8630  146.7780 N   0  0  0  0  0  0  0  0  0  0  0  0
  191.8880  170.4140  142.8510 C   0  0  2  0  0  3  0  0  0  0  0  0
  189.6090  175.0170  143.5720 C   0  0  0  0  0  3  0  0  0  0  0  0
  189.5010  176.3870  145.5500 C   0  0  0  0  0  0  0  0  0  0  0  0
  192.9160  171.4700  142.6800 N   0  0  2  0  0  0  0  0  0  0  0  0
  191.3060  177.6920  149.2290 C   0  0  0  0  0  2  0  0  0  0  0  0
  186.7710  178.2990  143.7620 C   0  0  0  0  0  3  0  0  0  0  0  0
  187.0090  176.4160  145.8120 C   0  0  0  0  0  3  0  0  0  0  0  0
  185.7480  176.8870  145.4420 C   0  0  0  0  0  3  0  0  0  0  0  0
  185.6210  177.8330  144.4150 C   0  0  0  0  0  0  0  0  0  0  0  0
  188.0330  177.8240  144.1310 C   0  0  0  0  0  3  0  0  0  0  0  0
  188.1590  176.8840  145.1590 C   0  0  0  0  0  0  0  0  0  0  0  0
  183.6210  179.0410  144.8250 O   0  0  0  0  0  1  0  0  0  0  0  0
  183.7820  178.0520  142.7680 O   0  0  0  0  0  0  0  0  0  0  0  0
  184.2960  178.3390  144.0270 C   0  0  0  0  0  0  0  0  0  0  0  0
  197.1530  171.1260  142.2560 C   0  0  0  0  0  3  0  0  0  0  0  0
  195.9980  172.6670  144.2830 C   0  0  0  0  0  3  0  0  0  0  0  0
  195.7890  171.0000  142.5390 C   0  0  0  0  0  3  0  0  0  0  0  0
  197.9410  172.0230  142.9860 C   0  0  0  0  0  3  0  0  0  0  0  0
  197.3630  172.7980  143.9930 C   0  0  0  0  0  3  0  0  0  0  0  0
  195.2080  171.7610  143.5670 C   0  0  0  0  0  0  0  0  0  0  0  0
  3 15  1  0  0  0  0
  5 13  1  0  0  0  0
  5 29  2  0  0  0  0
  7 21  1  0  0  0  0
  7 28  2  0  0  0  0
  8 31  1  0  0  0  0
  9  8  2  0  0  0  0
 10  1  2  0  0  0  0
 10 18  1  0  0  0  0
 11  7  1  0  0  0  0
 12  1  1  6  0  0  0
 12 11  1  0  0  0  0
 12  6  1  0  0  0  0
 13 20  2  0  0  0  0
 14 46  1  6  0  0  0
 14  4  1  0  0  0  0
 15  4  1  0  0  0  0
 16 31  1  0  0  0  0
 18 11  2  0  0  0  0
 19 16  1  0  0  0  0
 20  9  1  0  0  0  0
 21 22  2  0  0  0  0
 22 13  1  0  0  0  0
 23  1  1  0  0  0  0
 23 17  1  0  0  0  0
 24  2  1  1  0  0  0
 24 30  1  0  0  0  0
 24 21  1  0  0  0  0
 25 17  1  6  0  0  0
 25  6  1  0  0  0  0
 25 27  1  0  0  0  0
 26  9  1  0  0  0  0
 26 19  1  0  0  0  0
 27  3  1  6  0  0  0
 28  5  1  0  0  0  0
 29 26  1  0  0  0  0
 30 27  1  0  0  0  0
 30 14  1  0  0  0  0
 32 36  2  0  0  0  0
 32 35  1  0  0  0  0
 34 33  1  0  0  0  0
 35 34  2  0  0  0  0
 36 37  1  0  0  0  0
 37 29  1  0  0  0  0
 37 33  2  0  0  0  0
 39 40  2  0  0  0  0
 40 35  1  0  0  0  0
 40 38  1  0  0  0  0
 41 43  2  0  0  0  0
 41 44  1  0  0  0  0
 43 46  1  0  0  0  0
 44 45  2  0  0  0  0
 45 42  1  0  0  0  0
 46 42  2  0  0  0  0
M  END
>  <MODEL>
1

>  <REMARK>
 VINA RESULT:      -8.5      0.000      0.000
  Name = 
  3 active torsions:
  status: ('A' for Active; 'I' for Inactive)
    1  A    between atoms: C_13  and  C_22
    2  A    between atoms: C_23  and  C_46
    3  A    between atoms: C_35  and  C_43
                            x       y       z     vdW  Elec       q    Type
                         _______ _______ _______ _____ _____    ______ ____

>  <TORSDO>
F 3

$$$$
=
 OpenBabel11062422503D

 46 54  0  0  1  0  0  0  0  0999 V2000
  190.3700  171.8500  138.5440 C   0  0  0  0  0  0  0  0  0  0  0  0
  193.8510  172.8320  140.8050 C   0  0  0  0  0  1  0  0  0  0  0  0
  192.4130  168.3730  142.1040 C   0  0  0  0  0  2  0  0  0  0  0  0
  193.0680  169.9290  144.2960 C   0  0  0  0  0  2  0  0  0  0  0  0
  190.2560  174.9300  143.6300 C   0  0  0  0  0  0  0  0  0  0  0  0
  190.0450  170.8130  140.6990 O   0  0  0  0  0  0  0  0  0  0  0  0
  190.5890  173.5770  141.6220 C   0  0  0  0  0  0  0  0  0  0  0  0
  191.5600  175.9590  147.4350 C   0  0  0  0  0  3  0  0  0  0  0  0
  191.1180  175.6230  146.2210 C   0  0  0  0  0  0  0  0  0  0  0  0
  190.6720  173.0740  138.0710 N   0  0  0  0  0  0  0  0  0  0  0  0
  190.1570  173.2200  140.2620 C   0  0  0  0  0  0  0  0  0  0  0  0
  190.0590  171.9160  139.8610 C   0  0  1  0  0  3  0  0  0  0  0  0
  191.4100  174.3250  144.2000 C   0  0  0  0  0  0  0  0  0  0  0  0
  193.6350  170.8600  143.2110 C   0  0  2  0  0  3  0  0  0  0  0  0
  193.0690  168.1660  143.7980 S   0  0  0  0  0  0  0  0  0  0  0  0
  190.1730  178.0180  147.3790 C   0  0  0  0  0  2  0  0  0  0  0  0
  191.8500  169.8260  139.2600 C   0  0  0  0  0  2  0  0  0  0  0  0
  190.5480  173.9190  139.1260 C   0  0  0  0  0  3  0  0  0  0  0  0
  189.2540  177.3200  146.3780 C   0  0  0  0  0  2  0  0  0  0  0  0
  191.8430  174.6370  145.4250 C   0  0  0  0  0  3  0  0  0  0  0  0
  191.7410  172.9840  142.1940 C   0  0  0  0  0  0  0  0  0  0  0  0
  192.1400  173.3830  143.4740 C   0  0  0  0  0  3  0  0  0  0  0  0
  190.8280  170.2900  137.7950 S   0  0  0  0  0  0  0  0  0  0  0  0
  192.6430  172.0900  141.3490 C   0  0  2  0  0  3  0  0  0  0  0  0
  191.0200  169.7770  140.5740 C   0  0  1  0  0  3  0  0  0  0  0  0
  189.9760  176.2770  145.6350 N   0  0  0  0  0  0  0  0  0  0  0  0
  191.8800  169.7760  141.8530 C   0  0  2  0  0  3  0  0  0  0  0  0
  189.8660  174.5310  142.3380 C   0  0  0  0  0  3  0  0  0  0  0  0
  189.5430  175.8700  144.3130 C   0  0  0  0  0  0  0  0  0  0  0  0
  192.9990  170.7510  141.8780 N   0  0  2  0  0  0  0  0  0  0  0  0
  190.8260  176.9660  148.2690 C   0  0  0  0  0  2  0  0  0  0  0  0
  187.2520  178.2890  142.5230 C   0  0  0  0  0  3  0  0  0  0  0  0
  187.0860  175.8230  143.8270 C   0  0  0  0  0  3  0  0  0  0  0  0
  185.9390  176.4000  143.2770 C   0  0  0  0  0  3  0  0  0  0  0  0
  186.0150  177.6370  142.6220 C   0  0  0  0  0  0  0  0  0  0  0  0
  188.4000  177.7100  143.0720 C   0  0  0  0  0  3  0  0  0  0  0  0
  188.3220  176.4780  143.7290 C   0  0  0  0  0  0  0  0  0  0  0  0
  183.8700  178.6370  142.7940 O   0  0  0  0  0  1  0  0  0  0  0  0
  184.6990  178.4200  140.6730 O   0  0  0  0  0  0  0  0  0  0  0  0
  184.8080  178.2510  142.0470 C   0  0  0  0  0  0  0  0  0  0  0  0
  197.2120  170.0690  142.1350 C   0  0  0  0  0  3  0  0  0  0  0  0
  195.8620  171.6880  143.9730 C   0  0  0  0  0  3  0  0  0  0  0  0
  195.8140  170.0450  142.1950 C   0  0  0  0  0  3  0  0  0  0  0  0
  197.9360  170.9030  142.9940 C   0  0  0  0  0  3  0  0  0  0  0  0
  197.2620  171.7180  143.9060 C   0  0  0  0  0  3  0  0  0  0  0  0
  195.1330  170.8460  143.1260 C   0  0  0  0  0  0  0  0  0  0  0  0
  3 15  1  0  0  0  0
  5 13  1  0  0  0  0
  5 29  2  0  0  0  0
  7 21  1  0  0  0  0
  7 28  2  0  0  0  0
  8 31  1  0  0  0  0
  9  8  2  0  0  0  0
 10  1  2  0  0  0  0
 10 18  1  0  0  0  0
 11  7  1  0  0  0  0
 12  1  1  6  0  0  0
 12 11  1  0  0  0  0
 12  6  1  0  0  0  0
 13 20  2  0  0  0  0
 14 46  1  6  0  0  0
 14  4  1  0  0  0  0
 15  4  1  0  0  0  0
 16 31  1  0  0  0  0
 18 11  2  0  0  0  0
 19 16  1  0  0  0  0
 20  9  1  0  0  0  0
 21 22  2  0  0  0  0
 22 13  1  0  0  0  0
 23  1  1  0  0  0  0
 23 17  1  0  0  0  0
 24  2  1  1  0  0  0
 24 30  1  0  0  0  0
 24 21  1  0  0  0  0
 25 17  1  6  0  0  0
 25  6  1  0  0  0  0
 25 27  1  0  0  0  0
 26  9  1  0  0  0  0
 26 19  1  0  0  0  0
 27 30  1  0  0  0  0
 27  3  1  6  0  0  0
 28  5  1  0  0  0  0
 29 26  1  0  0  0  0
 30 14  1  0  0  0  0
 32 35  2  0  0  0  0
 32 36  1  0  0  0  0
 34 33  2  0  0  0  0
 35 34  1  0  0  0  0
 36 37  2  0  0  0  0
 37 33  1  0  0  0  0
 37 29  1  0  0  0  0
 39 40  2  0  0  0  0
 40 35  1  0  0  0  0
 40 38  1  0  0  0  0
 41 43  2  0  0  0  0
 41 44  1  0  0  0  0
 43 46  1  0  0  0  0
 44 45  2  0  0  0  0
 45 42  1  0  0  0  0
 46 42  2  0  0  0  0
M  END
>  <MODEL>
2

>  <REMARK>
 VINA RESULT:      -7.7      1.215      1.388
  Name = 
  3 active torsions:
  status: ('A' for Active; 'I' for Inactive)
    1  A    between atoms: C_13  and  C_22
    2  A    between atoms: C_23  and  C_46
    3  A    between atoms: C_35  and  C_43
                            x       y       z     vdW  Elec       q    Type
                         _______ _______ _______ _____ _____    ______ ____

>  <TORSDO>
F 3

$$$$
=
 OpenBabel11062422503D

 46 54  0  0  1  0  0  0  0  0999 V2000
  190.6470  175.9610  144.1990 C   0  0  0  0  0  0  0  0  0  0  0  0
  191.5470  171.7920  144.2720 C   0  0  0  0  0  1  0  0  0  0  0  0
  195.7290  174.2480  144.6100 C   0  0  0  0  0  2  0  0  0  0  0  0
  195.9030  172.1520  142.8130 C   0  0  0  0  0  2  0  0  0  0  0  0
  191.3300  172.6350  139.3170 C   0  0  0  0  0  0  0  0  0  0  0  0
  192.7550  175.7430  143.0440 O   0  0  0  0  0  0  0  0  0  0  0  0
  191.1910  173.7730  141.4760 C   0  0  0  0  0  0  0  0  0  0  0  0
  192.9590  169.5530  137.0620 C   0  0  0  0  0  3  0  0  0  0  0  0
  192.4420  170.5600  137.7700 C   0  0  0  0  0  0  0  0  0  0  0  0
  189.4190  175.4110  144.1300 N   0  0  0  0  0  2  0  0  0  0  0  0
  190.6040  174.8420  142.2970 C   0  0  0  0  0  0  0  0  0  0  0  0
  191.3760  175.6290  143.1070 C   0  0  0  0  0  0  0  0  0  0  0  0
  192.2500  171.7130  139.8880 C   0  0  0  0  0  0  0  0  0  0  0  0
  194.5530  171.7670  143.4420 C   0  0  2  0  0  3  0  0  0  0  0  0
  196.9840  173.0910  143.9550 S   0  0  0  0  0  0  0  0  0  0  0  0
  191.1910  169.8450  135.3430 C   0  0  0  0  0  2  0  0  0  0  0  0
  192.7990  175.3010  145.5160 C   0  0  0  0  0  2  0  0  0  0  0  0
  189.3910  174.7170  142.9650 C   0  0  0  0  0  3  0  0  0  0  0  0
  191.0500  171.2970  135.7960 C   0  0  0  0  0  2  0  0  0  0  0  0
  192.7900  170.7190  139.1790 C   0  0  0  0  0  3  0  0  0  0  0  0
  192.1040  172.8470  142.0390 C   0  0  0  0  0  0  0  0  0  0  0  0
  192.6060  171.8200  141.2330 C   0  0  0  0  0  3  0  0  0  0  0  0
  191.4530  176.5520  145.6850 S   0  0  0  0  0  0  0  0  0  0  0  0
  192.3640  172.8450  143.5420 C   0  0  2  0  0  3  0  0  0  0  0  0
  193.5730  175.4370  144.1740 C   0  0  1  0  0  3  0  0  0  0  0  0
  191.4750  171.4590  137.1940 N   0  0  0  0  0  0  0  0  0  0  0  0
  194.4280  174.2040  143.8220 C   0  0  2  0  0  3  0  0  0  0  0  0
  190.8200  173.6600  140.1360 C   0  0  0  0  0  3  0  0  0  0  0  0
  190.9500  172.5340  138.0110 C   0  0  0  0  0  0  0  0  0  0  0  0
  193.7700  172.8880  144.0110 N   0  0  2  0  0  0  0  0  0  0  0  0
  192.6160  169.3770  135.6120 C   0  0  0  0  0  2  0  0  0  0  0  0
  189.5640  175.2720  135.8010 C   0  0  0  0  0  3  0  0  0  0  0  0
  188.6940  173.6150  137.8760 C   0  0  0  0  0  3  0  0  0  0  0  0
  187.8160  174.5390  137.3070 C   0  0  0  0  0  3  0  0  0  0  0  0
  188.2460  175.3750  136.2670 C   0  0  0  0  0  0  0  0  0  0  0  0
  190.4410  174.3440  136.3680 C   0  0  0  0  0  3  0  0  0  0  0  0
  190.0130  173.5140  137.4090 C   0  0  0  0  0  0  0  0  0  0  0  0
  186.0940  176.1100  135.5870 O   0  0  0  0  0  1  0  0  0  0  0  0
  187.8110  177.5700  135.2010 O   0  0  0  0  0  0  0  0  0  0  0  0
  187.3270  176.3560  135.6700 C   0  0  0  0  0  0  0  0  0  0  0  0
  194.9080  169.6600  146.6050 C   0  0  0  0  0  3  0  0  0  0  0  0
  194.4520  169.3110  143.8690 C   0  0  0  0  0  3  0  0  0  0  0  0
  194.8500  170.7720  145.7590 C   0  0  0  0  0  3  0  0  0  0  0  0
  194.7370  168.3720  146.0860 C   0  0  0  0  0  3  0  0  0  0  0  0
  194.5010  168.1980  144.7200 C   0  0  0  0  0  3  0  0  0  0  0  0
  194.6360  170.6000  144.3810 C   0  0  0  0  0  0  0  0  0  0  0  0
  1 23  1  0  0  0  0
  4 14  1  0  0  0  0
  4 15  1  0  0  0  0
  5 13  1  0  0  0  0
  5 28  1  0  0  0  0
  6 12  1  0  0  0  0
  6 25  1  0  0  0  0
  7 21  1  0  0  0  0
  7 11  1  0  0  0  0
  8  9  2  0  0  0  0
  9 20  1  0  0  0  0
 10  1  1  0  0  0  0
 11 18  2  0  0  0  0
 11 12  1  0  0  0  0
 12  1  2  0  0  0  0
 13 22  1  0  0  0  0
 14 30  1  0  0  0  0
 14 46  1  1  0  0  0
 15  3  1  0  0  0  0
 16 31  1  0  0  0  0
 16 19  1  0  0  0  0
 17 23  1  0  0  0  0
 18 10  1  0  0  0  0
 19 26  1  0  0  0  0
 20 13  2  0  0  0  0
 21 24  1  0  0  0  0
 22 21  2  0  0  0  0
 24 30  1  0  0  0  0
 24  2  1  6  0  0  0
 25 17  1  1  0  0  0
 26  9  1  0  0  0  0
 26 29  1  0  0  0  0
 27 30  1  0  0  0  0
 27 25  1  0  0  0  0
 27  3  1  1  0  0  0
 28  7  2  0  0  0  0
 29  5  2  0  0  0  0
 31  8  1  0  0  0  0
 32 35  2  0  0  0  0
 32 36  1  0  0  0  0
 34 33  2  0  0  0  0
 35 34  1  0  0  0  0
 36 37  2  0  0  0  0
 37 33  1  0  0  0  0
 37 29  1  0  0  0  0
 38 40  1  0  0  0  0
 39 40  2  0  0  0  0
 40 35  1  0  0  0  0
 42 46  2  0  0  0  0
 42 45  1  0  0  0  0
 43 41  2  0  0  0  0
 44 41  1  0  0  0  0
 45 44  2  0  0  0  0
 46 43  1  0  0  0  0
M  END
>  <MODEL>
3

>  <REMARK>
 VINA RESULT:      -6.9      3.627      7.561
  Name = 
  3 active torsions:
  status: ('A' for Active; 'I' for Inactive)
    1  A    between atoms: C_13  and  C_22
    2  A    between atoms: C_23  and  C_46
    3  A    between atoms: C_35  and  C_43
                            x       y       z     vdW  Elec       q    Type
                         _______ _______ _______ _____ _____    ______ ____

>  <TORSDO>
F 3

$$$$
=
 OpenBabel11062422503D

 46 54  0  0  1  0  0  0  0  0999 V2000
  189.8880  172.4840  136.7800 C   0  0  0  0  0  0  0  0  0  0  0  0
  193.5700  173.2500  138.7930 C   0  0  0  0  0  1  0  0  0  0  0  0
  192.3760  168.5970  139.5430 C   0  0  0  0  0  2  0  0  0  0  0  0
  193.2290  169.8340  141.8660 C   0  0  0  0  0  2  0  0  0  0  0  0
  190.2530  174.7700  142.2580 C   0  0  0  0  0  0  0  0  0  0  0  0
  189.8190  171.1280  138.7750 O   0  0  0  0  0  0  0  0  0  0  0  0
  190.3980  173.7430  140.0440 C   0  0  0  0  0  0  0  0  0  0  0  0
  191.9360  175.2710  146.0200 C   0  0  0  0  0  3  0  0  0  0  0  0
  191.3730  175.1030  144.8210 C   0  0  0  0  0  0  0  0  0  0  0  0
  190.1100  173.7750  136.4680 N   0  0  0  0  0  0  0  0  0  0  0  0
  189.8310  173.5750  138.6980 C   0  0  0  0  0  0  0  0  0  0  0  0
  189.7190  172.3420  138.1160 C   0  0  1  0  0  3  0  0  0  0  0  0
  191.4750  174.1300  142.6080 C   0  0  0  0  0  0  0  0  0  0  0  0
  193.6560  170.9370  140.8820 C   0  0  2  0  0  3  0  0  0  0  0  0
  193.2140  168.1660  141.1100 S   0  0  0  0  0  0  0  0  0  0  0  0
  190.5070  177.2620  146.4190 C   0  0  0  0  0  2  0  0  0  0  0  0
  191.4800  170.4330  137.0240 C   0  0  0  0  0  2  0  0  0  0  0  0
  190.0830  174.4490  137.6460 C   0  0  0  0  0  3  0  0  0  0  0  0
  189.5000  176.6870  145.4240 C   0  0  0  0  0  2  0  0  0  0  0  0
  192.0300  174.2740  143.8140 C   0  0  0  0  0  3  0  0  0  0  0  0
  191.6170  173.1150  140.3990 C   0  0  0  0  0  0  0  0  0  0  0  0
  192.1430  173.3350  141.6760 C   0  0  0  0  0  3  0  0  0  0  0  0
  190.2960  171.0710  135.7600 S   0  0  0  0  0  0  0  0  0  0  0  0
  192.4430  172.3900  139.3400 C   0  0  2  0  0  3  0  0  0  0  0  0
  190.7960  170.1590  138.3950 C   0  0  1  0  0  3  0  0  0  0  0  0
  190.1610  175.7930  144.4610 N   0  0  0  0  0  0  0  0  0  0  0  0
  191.7890  170.0010  139.5630 C   0  0  2  0  0  3  0  0  0  0  0  0
  189.7360  174.5520  140.9670 C   0  0  0  0  0  3  0  0  0  0  0  0
  189.5980  175.5710  143.1450 C   0  0  0  0  0  0  0  0  0  0  0  0
  192.8820  171.0030  139.6210 N   0  0  2  0  0  0  0  0  0  0  0  0
  191.2740  176.1160  147.0680 C   0  0  0  0  0  2  0  0  0  0  0  0
  185.8920  176.3020  142.9580 C   0  0  0  0  0  3  0  0  0  0  0  0
  188.2820  177.3330  141.9440 C   0  0  0  0  0  3  0  0  0  0  0  0
  187.0670  177.9330  141.6090 C   0  0  0  0  0  3  0  0  0  0  0  0
  185.8630  177.4200  142.1130 C   0  0  0  0  0  0  0  0  0  0  0  0
  187.1090  175.7030  143.2950 C   0  0  0  0  0  3  0  0  0  0  0  0
  188.3080  176.2130  142.7880 C   0  0  0  0  0  0  0  0  0  0  0  0
  184.3290  178.3540  140.5630 O   0  0  0  0  0  0  0  0  0  0  0  0
  183.6270  178.2870  142.7390 O   0  0  0  0  0  1  0  0  0  0  0  0
  184.5800  178.0440  141.7580 C   0  0  0  0  0  0  0  0  0  0  0  0
  197.1490  170.2280  139.5170 C   0  0  0  0  0  3  0  0  0  0  0  0
  195.8920  171.9500  141.3250 C   0  0  0  0  0  3  0  0  0  0  0  0
  195.7690  170.1380  139.7240 C   0  0  0  0  0  3  0  0  0  0  0  0
  197.9030  171.1790  140.2130 C   0  0  0  0  0  3  0  0  0  0  0  0
  197.2740  172.0450  141.1100 C   0  0  0  0  0  3  0  0  0  0  0  0
  195.1360  170.9910  140.6430 C   0  0  0  0  0  0  0  0  0  0  0  0
  3 15  1  0  0  0  0
  5 13  1  0  0  0  0
  5 29  2  0  0  0  0
  7 21  1  0  0  0  0
  7 28  2  0  0  0  0
  8 31  1  0  0  0  0
  9  8  2  0  0  0  0
 10  1  2  0  0  0  0
 10 18  1  0  0  0  0
 11  7  1  0  0  0  0
 12  1  1  6  0  0  0
 12 11  1  0  0  0  0
 12  6  1  0  0  0  0
 13 20  2  0  0  0  0
 14 46  1  6  0  0  0
 14  4  1  0  0  0  0
 15  4  1  0  0  0  0
 16 31  1  0  0  0  0
 18 11  2  0  0  0  0
 19 16  1  0  0  0  0
 20  9  1  0  0  0  0
 21 22  2  0  0  0  0
 22 13  1  0  0  0  0
 23  1  1  0  0  0  0
 23 17  1  0  0  0  0
 24  2  1  1  0  0  0
 24 30  1  0  0  0  0
 24 21  1  0  0  0  0
 25 17  1  6  0  0  0
 25  6  1  0  0  0  0
 25 27  1  0  0  0  0
 26  9  1  0  0  0  0
 26 19  1  0  0  0  0
 27  3  1  6  0  0  0
 27 30  1  0  0  0  0
 28  5  1  0  0  0  0
 29 26  1  0  0  0  0
 30 14  1  0  0  0  0
 32 36  1  0  0  0  0
 33 37  1  0  0  0  0
 34 33  2  0  0  0  0
 34 35  1  0  0  0  0
 35 32  2  0  0  0  0
 37 29  1  0  0  0  0
 37 36  2  0  0  0  0
 38 40  2  0  0  0  0
 40 35  1  0  0  0  0
 40 39  1  0  0  0  0
 41 43  2  0  0  0  0
 41 44  1  0  0  0  0
 43 46  1  0  0  0  0
 44 45  2  0  0  0  0
 45 42  1  0  0  0  0
 46 42  2  0  0  0  0
M  END
>  <MODEL>
4

>  <REMARK>
 VINA RESULT:      -6.7      2.092      2.948
  Name = 
  3 active torsions:
  status: ('A' for Active; 'I' for Inactive)
    1  A    between atoms: C_13  and  C_22
    2  A    between atoms: C_23  and  C_46
    3  A    between atoms: C_35  and  C_43
                            x       y       z     vdW  Elec       q    Type
                         _______ _______ _______ _____ _____    ______ ____

>  <TORSDO>
F 3

$$$$
=
 OpenBabel11062422503D

 46 54  0  0  1  0  0  0  0  0999 V2000
  189.1610  172.1820  137.9410 C   0  0  0  0  0  0  0  0  0  0  0  0
  193.2930  173.2370  138.0230 C   0  0  0  0  0  1  0  0  0  0  0  0
  192.9150  168.5180  139.1280 C   0  0  0  0  0  2  0  0  0  0  0  0
  194.6660  169.8390  140.8150 C   0  0  0  0  0  2  0  0  0  0  0  0
  191.8820  174.5480  142.6700 C   0  0  0  0  0  0  0  0  0  0  0  0
  190.1260  170.8460  139.7040 O   0  0  0  0  0  0  0  0  0  0  0  0
  191.0470  173.5110  140.6200 C   0  0  0  0  0  0  0  0  0  0  0  0
  195.0870  175.2120  145.2250 C   0  0  0  0  0  3  0  0  0  0  0  0
  194.0420  174.9900  144.4220 C   0  0  0  0  0  0  0  0  0  0  0  0
  189.1220  173.4830  137.5930 N   0  0  0  0  0  0  0  0  0  0  0  0
  189.9300  173.2870  139.6900 C   0  0  0  0  0  0  0  0  0  0  0  0
  189.6460  172.0430  139.1980 C   0  0  1  0  0  3  0  0  0  0  0  0
  193.1670  174.0040  142.3940 C   0  0  0  0  0  0  0  0  0  0  0  0
  194.5060  170.9590  139.7730 C   0  0  2  0  0  3  0  0  0  0  0  0
  194.4150  168.1660  140.1120 S   0  0  0  0  0  0  0  0  0  0  0  0
  193.8740  177.0970  146.2930 C   0  0  0  0  0  2  0  0  0  0  0  0
  190.8220  170.2560  137.3640 C   0  0  0  0  0  2  0  0  0  0  0  0
  189.6010  174.1650  138.6640 C   0  0  0  0  0  3  0  0  0  0  0  0
  192.5620  176.4390  145.8680 C   0  0  0  0  0  2  0  0  0  0  0  0
  194.2090  174.2000  143.2060 C   0  0  0  0  0  3  0  0  0  0  0  0
  192.3310  172.9770  140.3490 C   0  0  0  0  0  0  0  0  0  0  0  0
  193.3760  173.2490  141.2390 C   0  0  0  0  0  3  0  0  0  0  0  0
  189.1440  170.7920  136.8130 S   0  0  0  0  0  0  0  0  0  0  0  0
  192.6150  172.3030  139.0100 C   0  0  2  0  0  3  0  0  0  0  0  0
  190.8780  169.9480  138.8880 C   0  0  1  0  0  3  0  0  0  0  0  0
  192.7580  175.5860  144.6870 N   0  0  0  0  0  0  0  0  0  0  0  0
  192.3090  169.8750  139.4540 C   0  0  2  0  0  3  0  0  0  0  0  0
  190.8380  174.2790  141.7650 C   0  0  0  0  0  3  0  0  0  0  0  0
  191.6620  175.3090  143.7800 C   0  0  0  0  0  0  0  0  0  0  0  0
  193.2300  170.9550  139.0200 N   0  0  2  0  0  0  0  0  0  0  0  0
  194.9330  176.0170  146.4810 C   0  0  0  0  0  2  0  0  0  0  0  0
  188.6080  177.5400  143.7420 C   0  0  0  0  0  3  0  0  0  0  0  0
  189.4700  175.1920  144.9870 C   0  0  0  0  0  3  0  0  0  0  0  0
  188.2030  175.7060  145.2690 C   0  0  0  0  0  3  0  0  0  0  0  0
  187.7640  176.8840  144.6490 C   0  0  0  0  0  0  0  0  0  0  0  0
  189.8760  177.0240  143.4580 C   0  0  0  0  0  3  0  0  0  0  0  0
  190.3140  175.8510  144.0810 C   0  0  0  0  0  0  0  0  0  0  0  0
  186.0480  178.5040  144.4080 O   0  0  0  0  0  0  0  0  0  0  0  0
  185.5850  176.7680  145.8240 O   0  0  0  0  0  1  0  0  0  0  0  0
  186.4330  177.4330  144.9480 C   0  0  0  0  0  0  0  0  0  0  0  0
  196.8660  170.7060  136.7840 C   0  0  0  0  0  3  0  0  0  0  0  0
  196.7590  171.9210  139.3000 C   0  0  0  0  0  3  0  0  0  0  0  0
  195.7470  170.5230  137.6010 C   0  0  0  0  0  3  0  0  0  0  0  0
  197.9340  171.4980  137.2220 C   0  0  0  0  0  3  0  0  0  0  0  0
  197.8770  172.1110  138.4760 C   0  0  0  0  0  3  0  0  0  0  0  0
  195.6950  171.1190  138.8720 C   0  0  0  0  0  0  0  0  0  0  0  0
  3 15  1  0  0  0  0
  5 29  2  0  0  0  0
  7 28  2  0  0  0  0
  8 31  1  0  0  0  0
  9 26  1  0  0  0  0
  9  8  2  0  0  0  0
 10  1  2  0  0  0  0
 10 18  1  0  0  0  0
 11  7  1  0  0  0  0
 12  1  1  6  0  0  0
 12 11  1  0  0  0  0
 12  6  1  0  0  0  0
 13  5  1  0  0  0  0
 13 20  2  0  0  0  0
 14 46  1  6  0  0  0
 14  4  1  0  0  0  0
 15  4  1  0  0  0  0
 16 31  1  0  0  0  0
 18 11  2  0  0  0  0
 19 16  1  0  0  0  0
 20  9  1  0  0  0  0
 21  7  1  0  0  0  0
 21 22  2  0  0  0  0
 22 13  1  0  0  0  0
 23 17  1  0  0  0  0
 23  1  1  0  0  0  0
 24  2  1  6  0  0  0
 24 30  1  0  0  0  0
 24 21  1  0  0  0  0
 25 17  1  6  0  0  0
 25 27  1  0  0  0  0
 25  6  1  0  0  0  0
 26 19  1  0  0  0  0
 27  3  1  6  0  0  0
 28  5  1  0  0  0  0
 29 37  1  0  0  0  0
 29 26  1  0  0  0  0
 30 27  1  0  0  0  0
 30 14  1  0  0  0  0
 32 35  1  0  0  0  0
 33 34  1  0  0  0  0
 35 40  1  0  0  0  0
 35 34  2  0  0  0  0
 36 32  2  0  0  0  0
 36 37  1  0  0  0  0
 37 33  2  0  0  0  0
 38 40  2  0  0  0  0
 40 39  1  0  0  0  0
 41 44  2  0  0  0  0
 41 43  1  0  0  0  0
 43 46  2  0  0  0  0
 44 45  1  0  0  0  0
 45 42  2  0  0  0  0
 46 42  1  0  0  0  0
M  END
>  <MODEL>
5

>  <REMARK>
 VINA RESULT:      -6.3      2.612      3.567
  Name = 
  3 active torsions:
  status: ('A' for Active; 'I' for Inactive)
    1  A    between atoms: C_13  and  C_22
    2  A    between atoms: C_23  and  C_46
    3  A    between atoms: C_35  and  C_43
                            x       y       z     vdW  Elec       q    Type
                         _______ _______ _______ _____ _____    ______ ____

>  <TORSDO>
F 3

$$$$
=
 OpenBabel11062422503D

 46 54  0  0  1  0  0  0  0  0999 V2000
  192.6890  172.0790  144.2130 C   0  0  0  0  0  0  0  0  0  0  0  0
  190.4370  171.1430  140.7130 C   0  0  0  0  0  1  0  0  0  0  0  0
  194.4920  173.4420  139.3310 C   0  0  0  0  0  2  0  0  0  0  0  0
  192.2580  174.3980  138.0080 C   0  0  0  0  0  2  0  0  0  0  0  0
  188.3100  175.4920  142.0800 C   0  0  0  0  0  0  0  0  0  0  0  0
  193.0760  173.9150  142.6940 O   0  0  0  0  0  0  0  0  0  0  0  0
  190.1120  173.9530  142.6780 C   0  0  0  0  0  0  0  0  0  0  0  0
  185.9650  177.1730  139.0950 C   0  0  0  0  0  3  0  0  0  0  0  0
  186.7250  176.6550  140.0630 C   0  0  0  0  0  0  0  0  0  0  0  0
  191.6280  171.4310  144.7310 N   0  0  0  0  0  2  0  0  0  0  0  0
  190.9340  173.3270  143.7250 C   0  0  0  0  0  0  0  0  0  0  0  0
  192.2920  173.2220  143.6020 C   0  0  0  0  0  0  0  0  0  0  0  0
  188.4880  175.1320  140.7150 C   0  0  0  0  0  0  0  0  0  0  0  0
  191.6040  173.1570  138.6370 C   0  0  2  0  0  3  0  0  0  0  0  0
  194.0560  174.1940  137.7230 S   0  0  0  0  0  0  0  0  0  0  0  0
  184.3180  177.9390  140.7890 C   0  0  0  0  0  2  0  0  0  0  0  0
  194.0890  171.7110  142.0430 C   0  0  0  0  0  2  0  0  0  0  0  0
  190.5460  172.1920  144.4270 C   0  0  0  0  0  3  0  0  0  0  0  0
  185.4430  177.9370  141.8220 C   0  0  0  0  0  2  0  0  0  0  0  0
  187.7480  175.6660  139.7400 C   0  0  0  0  0  3  0  0  0  0  0  0
  190.2790  173.5960  141.3180 C   0  0  0  0  0  0  0  0  0  0  0  0
  189.4480  174.1840  140.3590 C   0  0  0  0  0  3  0  0  0  0  0  0
  194.2850  171.3580  143.8440 S   0  0  0  0  0  0  0  0  0  0  0  0
  191.1980  172.4390  140.9360 C   0  0  2  0  0  3  0  0  0  0  0  0
  193.8990  173.2270  141.7510 C   0  0  1  0  0  3  0  0  0  0  0  0
  186.5040  176.9920  141.4460 N   0  0  0  0  0  0  0  0  0  0  0  0
  193.3550  173.5240  140.3400 C   0  0  2  0  0  3  0  0  0  0  0  0
  189.1430  174.8880  143.0410 C   0  0  0  0  0  3  0  0  0  0  0  0
  187.3610  176.3970  142.4530 C   0  0  0  0  0  0  0  0  0  0  0  0
  192.2240  172.6730  139.8920 N   0  0  2  0  0  0  0  0  0  0  0  0
  184.9120  178.1950  139.4080 C   0  0  0  0  0  2  0  0  0  0  0  0
  185.8890  176.7910  145.9140 C   0  0  0  0  0  3  0  0  0  0  0  0
  188.1900  177.5440  144.5200 C   0  0  0  0  0  3  0  0  0  0  0  0
  188.0320  177.9160  145.8560 C   0  0  0  0  0  3  0  0  0  0  0  0
  186.8790  177.5430  146.5620 C   0  0  0  0  0  0  0  0  0  0  0  0
  186.0500  176.4160  144.5770 C   0  0  0  0  0  3  0  0  0  0  0  0
  187.1970  176.7930  143.8730 C   0  0  0  0  0  0  0  0  0  0  0  0
  185.9410  177.2830  148.7260 O   0  0  0  0  0  1  0  0  0  0  0  0
  187.3900  179.0350  148.4740 O   0  0  0  0  0  0  0  0  0  0  0  0
  186.7050  177.9380  147.9680 C   0  0  0  0  0  0  0  0  0  0  0  0
  191.9970  169.9550  136.5960 C   0  0  0  0  0  3  0  0  0  0  0  0
  190.1730  172.0490  136.9190 C   0  0  0  0  0  3  0  0  0  0  0  0
  192.2660  170.9820  137.5060 C   0  0  0  0  0  3  0  0  0  0  0  0
  190.8160  169.9720  135.8460 C   0  0  0  0  0  3  0  0  0  0  0  0
  189.9010  171.0140  136.0140 C   0  0  0  0  0  3  0  0  0  0  0  0
  191.3600  172.0440  137.6610 C   0  0  0  0  0  0  0  0  0  0  0  0
  1 10  1  0  0  0  0
  4 14  1  0  0  0  0
  5 29  2  0  0  0  0
  5 28  1  0  0  0  0
  6 12  1  0  0  0  0
  7 28  2  0  0  0  0
  7 11  1  0  0  0  0
  8 31  1  0  0  0  0
  8  9  2  0  0  0  0
  9 26  1  0  0  0  0
 11 18  2  0  0  0  0
 12 11  1  0  0  0  0
 12  1  2  0  0  0  0
 13  5  1  0  0  0  0
 14 46  1  6  0  0  0
 14 30  1  0  0  0  0
 15  4  1  0  0  0  0
 15  3  1  0  0  0  0
 16 19  1  0  0  0  0
 17 23  1  0  0  0  0
 18 10  1  0  0  0  0
 20  9  1  0  0  0  0
 20 13  2  0  0  0  0
 21  7  1  0  0  0  0
 22 13  1  0  0  0  0
 22 21  2  0  0  0  0
 23  1  1  0  0  0  0
 24  2  1  6  0  0  0
 24 21  1  0  0  0  0
 25 17  1  1  0  0  0
 25  6  1  0  0  0  0
 26 19  1  0  0  0  0
 26 29  1  0  0  0  0
 27  3  1  6  0  0  0
 27 25  1  0  0  0  0
 29 37  1  0  0  0  0
 30 27  1  0  0  0  0
 30 24  1  0  0  0  0
 31 16  1  0  0  0  0
 32 35  1  0  0  0  0
 33 34  1  0  0  0  0
 34 35  2  0  0  0  0
 35 40  1  0  0  0  0
 36 32  2  0  0  0  0
 37 33  2  0  0  0  0
 37 36  1  0  0  0  0
 40 39  2  0  0  0  0
 40 38  1  0  0  0  0
 41 43  1  0  0  0  0
 42 46  1  0  0  0  0
 43 46  2  0  0  0  0
 44 45  1  0  0  0  0
 44 41  2  0  0  0  0
 45 42  2  0  0  0  0
M  END
>  <MODEL>
6

>  <REMARK>
 VINA RESULT:      -6.1      2.864      6.090
  Name = 
  3 active torsions:
  status: ('A' for Active; 'I' for Inactive)
    1  A    between atoms: C_13  and  C_22
    2  A    between atoms: C_23  and  C_46
    3  A    between atoms: C_35  and  C_43
                            x       y       z     vdW  Elec       q    Type
                         _______ _______ _______ _____ _____    ______ ____

>  <TORSDO>
F 3

$$$$
=
 OpenBabel11062422503D

 46 54  0  0  1  0  0  0  0  0999 V2000
  195.7950  172.0350  143.7500 C   0  0  0  0  0  0  0  0  0  0  0  0
  192.3250  170.5540  141.7600 C   0  0  0  0  0  1  0  0  0  0  0  0
  194.9220  173.1290  138.5570 C   0  0  0  0  0  2  0  0  0  0  0  0
  192.2240  173.7220  138.4160 C   0  0  0  0  0  2  0  0  0  0  0  0
  190.5120  174.7630  143.8340 C   0  0  0  0  0  0  0  0  0  0  0  0
  195.1810  173.7550  142.1730 O   0  0  0  0  0  0  0  0  0  0  0  0
  192.5750  173.4820  143.5570 C   0  0  0  0  0  0  0  0  0  0  0  0
  186.8460  175.9120  142.2600 C   0  0  0  0  0  3  0  0  0  0  0  0
  188.0310  175.5660  142.7700 C   0  0  0  0  0  0  0  0  0  0  0  0
  195.1950  171.3290  144.7280 N   0  0  0  0  0  2  0  0  0  0  0  0
  193.8650  173.0430  144.1110 C   0  0  0  0  0  0  0  0  0  0  0  0
  195.0100  173.0690  143.3640 C   0  0  0  0  0  0  0  0  0  0  0  0
  190.0820  174.3010  142.5590 C   0  0  0  0  0  0  0  0  0  0  0  0
  192.1110  172.4810  139.3180 C   0  0  2  0  0  3  0  0  0  0  0  0
  193.6920  173.6810  137.3220 S   0  0  0  0  0  0  0  0  0  0  0  0
  186.0870  176.6520  144.5060 C   0  0  0  0  0  2  0  0  0  0  0  0
  196.0630  171.6180  141.1900 C   0  0  0  0  0  2  0  0  0  0  0  0
  194.0040  171.9420  144.9480 C   0  0  0  0  0  3  0  0  0  0  0  0
  187.5520  176.8620  144.8850 C   0  0  0  0  0  2  0  0  0  0  0  0
  188.9100  174.6640  142.0320 C   0  0  0  0  0  3  0  0  0  0  0  0
  192.1370  173.0210  142.2910 C   0  0  0  0  0  0  0  0  0  0  0  0
  190.8850  173.4300  141.8210 C   0  0  0  0  0  3  0  0  0  0  0  0
  197.1190  171.4530  142.6950 S   0  0  0  0  0  0  0  0  0  0  0  0
  192.9200  171.9370  141.5570 C   0  0  2  0  0  3  0  0  0  0  0  0
  195.5560  173.0730  140.9750 C   0  0  1  0  0  3  0  0  0  0  0  0
  188.4350  176.0020  144.0820 N   0  0  0  0  0  0  0  0  0  0  0  0
  194.3850  173.1820  139.9790 C   0  0  2  0  0  3  0  0  0  0  0  0
  191.7690  174.3390  144.3060 C   0  0  0  0  0  3  0  0  0  0  0  0
  189.7320  175.5950  144.5820 C   0  0  0  0  0  0  0  0  0  0  0  0
  193.3020  172.1810  140.1460 N   0  0  2  0  0  0  0  0  0  0  0  0
  185.9320  176.8420  143.0010 C   0  0  0  0  0  2  0  0  0  0  0  0
  190.5120  177.9370  147.4470 C   0  0  0  0  0  3  0  0  0  0  0  0
  190.7560  175.2210  146.8380 C   0  0  0  0  0  3  0  0  0  0  0  0
  191.1910  175.7000  148.0750 C   0  0  0  0  0  3  0  0  0  0  0  0
  191.0740  177.0620  148.3870 C   0  0  0  0  0  0  0  0  0  0  0  0
  190.0720  177.4570  146.2100 C   0  0  0  0  0  3  0  0  0  0  0  0
  190.1950  176.0990  145.8980 C   0  0  0  0  0  0  0  0  0  0  0  0
  191.5660  178.8110  149.9120 O   0  0  0  0  0  0  0  0  0  0  0  0
  191.9410  176.6890  150.6790 O   0  0  0  0  0  1  0  0  0  0  0  0
  191.5380  177.5720  149.6850 C   0  0  0  0  0  0  0  0  0  0  0  0
  191.9400  169.1720  137.4220 C   0  0  0  0  0  3  0  0  0  0  0  0
  190.2100  171.0710  138.5270 C   0  0  0  0  0  3  0  0  0  0  0  0
  192.4590  170.3010  138.0640 C   0  0  0  0  0  3  0  0  0  0  0  0
  190.5550  168.9910  137.3310 C   0  0  0  0  0  3  0  0  0  0  0  0
  189.6910  169.9350  137.8910 C   0  0  0  0  0  3  0  0  0  0  0  0
  191.5940  171.2650  138.6080 C   0  0  0  0  0  0  0  0  0  0  0  0
  1 10  1  0  0  0  0
  4 14  1  0  0  0  0
  5 28  1  0  0  0  0
  5 29  2  0  0  0  0
  6 12  1  0  0  0  0
  7 11  1  0  0  0  0
  7 28  2  0  0  0  0
  8  9  2  0  0  0  0
  8 31  1  0  0  0  0
  9 26  1  0  0  0  0
 10 18  1  0  0  0  0
 11 18  2  0  0  0  0
 12  1  2  0  0  0  0
 12 11  1  0  0  0  0
 13  5  1  0  0  0  0
 14 46  1  6  0  0  0
 14 30  1  0  0  0  0
 15  4  1  0  0  0  0
 15  3  1  0  0  0  0
 16 19  1  0  0  0  0
 17 23  1  0  0  0  0
 20 13  2  0  0  0  0
 20  9  1  0  0  0  0
 21  7  1  0  0  0  0
 22 21  2  0  0  0  0
 22 13  1  0  0  0  0
 23  1  1  0  0  0  0
 24  2  1  6  0  0  0
 24 21  1  0  0  0  0
 25 17  1  1  0  0  0
 25  6  1  0  0  0  0
 26 29  1  0  0  0  0
 26 19  1  0  0  0  0
 27  3  1  6  0  0  0
 27 30  1  0  0  0  0
 27 25  1  0  0  0  0
 29 37  1  0  0  0  0
 30 24  1  0  0  0  0
 31 16  1  0  0  0  0
 32 35  1  0  0  0  0
 33 34  1  0  0  0  0
 34 35  2  0  0  0  0
 35 40  1  0  0  0  0
 36 32  2  0  0  0  0
 37 36  1  0  0  0  0
 37 33  2  0  0  0  0
 40 38  2  0  0  0  0
 40 39  1  0  0  0  0
 41 43  1  0  0  0  0
 42 46  1  0  0  0  0
 43 46  2  0  0  0  0
 44 41  2  0  0  0  0
 44 45  1  0  0  0  0
 45 42  2  0  0  0  0
M  END
>  <MODEL>
7

>  <REMARK>
 VINA RESULT:      -6.0      3.044      6.144
  Name = 
  3 active torsions:
  status: ('A' for Active; 'I' for Inactive)
    1  A    between atoms: C_13  and  C_22
    2  A    between atoms: C_23  and  C_46
    3  A    between atoms: C_35  and  C_43
                            x       y       z     vdW  Elec       q    Type
                         _______ _______ _______ _____ _____    ______ ____

>  <TORSDO>
F 3

$$$$
=
 OpenBabel11062422503D

 46 54  0  0  1  0  0  0  0  0999 V2000
  191.8550  176.7480  147.0200 C   0  0  0  0  0  0  0  0  0  0  0  0
  192.9480  172.9740  145.3590 C   0  0  0  0  0  1  0  0  0  0  0  0
  196.4530  176.1680  144.2910 C   0  0  0  0  0  2  0  0  0  0  0  0
  195.7740  174.6090  142.1080 C   0  0  0  0  0  2  0  0  0  0  0  0
  190.0150  174.8090  141.7070 C   0  0  0  0  0  0  0  0  0  0  0  0
  193.0070  177.2650  144.9630 O   0  0  0  0  0  0  0  0  0  0  0  0
  190.9890  175.3870  143.8740 C   0  0  0  0  0  0  0  0  0  0  0  0
  190.3760  172.7400  138.1260 C   0  0  0  0  0  3  0  0  0  0  0  0
  190.2550  173.4260  139.2660 C   0  0  0  0  0  0  0  0  0  0  0  0
  190.8300  175.9660  147.4110 N   0  0  0  0  0  2  0  0  0  0  0  0
  190.8660  176.0920  145.1590 C   0  0  0  0  0  0  0  0  0  0  0  0
  191.8950  176.8350  145.6690 C   0  0  0  0  0  0  0  0  0  0  0  0
  191.1620  174.0150  141.4300 C   0  0  0  0  0  0  0  0  0  0  0  0
  195.0140  173.8040  143.1760 C   0  0  2  0  0  3  0  0  0  0  0  0
  197.2310  175.4930  142.7800 S   0  0  0  0  0  0  0  0  0  0  0  0
  187.9420  172.9970  137.7060 C   0  0  0  0  0  2  0  0  0  0  0  0
  194.4180  176.3150  146.8110 C   0  0  0  0  0  2  0  0  0  0  0  0
  190.2240  175.5550  146.2680 C   0  0  0  0  0  3  0  0  0  0  0  0
  187.9650  174.2470  138.5850 C   0  0  0  0  0  2  0  0  0  0  0  0
  191.3000  173.3460  140.2820 C   0  0  0  0  0  3  0  0  0  0  0  0
  192.1250  174.5880  143.5920 C   0  0  0  0  0  0  0  0  0  0  0  0
  192.1820  173.9020  142.3750 C   0  0  0  0  0  3  0  0  0  0  0  0
  193.2930  177.1640  148.0020 S   0  0  0  0  0  0  0  0  0  0  0  0
  193.1590  174.3160  144.6800 C   0  0  2  0  0  3  0  0  0  0  0  0
  194.3270  176.9110  145.3770 C   0  0  1  0  0  3  0  0  0  0  0  0
  189.0680  174.1890  139.5560 N   0  0  0  0  0  0  0  0  0  0  0  0
  194.9400  176.0080  144.2890 C   0  0  2  0  0  3  0  0  0  0  0  0
  189.9590  175.4900  142.9390 C   0  0  0  0  0  3  0  0  0  0  0  0
  188.9950  174.9140  140.8080 C   0  0  0  0  0  0  0  0  0  0  0  0
  194.5870  174.5690  144.3710 N   0  0  2  0  0  0  0  0  0  0  0  0
  189.3140  172.8140  137.0690 C   0  0  0  0  0  2  0  0  0  0  0  0
  185.9880  176.4090  142.5470 C   0  0  0  0  0  3  0  0  0  0  0  0
  187.4020  176.7360  140.1600 C   0  0  0  0  0  3  0  0  0  0  0  0
  186.2890  177.5350  140.4260 C   0  0  0  0  0  3  0  0  0  0  0  0
  185.5740  177.3760  141.6210 C   0  0  0  0  0  0  0  0  0  0  0  0
  187.1040  175.6100  142.2820 C   0  0  0  0  0  3  0  0  0  0  0  0
  187.8140  175.7670  141.0870 C   0  0  0  0  0  0  0  0  0  0  0  0
  184.1060  178.5290  143.0860 O   0  0  0  0  0  1  0  0  0  0  0  0
  183.5980  178.6650  140.8600 O   0  0  0  0  0  0  0  0  0  0  0  0
  184.3960  178.2110  141.9020 C   0  0  0  0  0  0  0  0  0  0  0  0
  197.0810  171.1600  144.9950 C   0  0  0  0  0  3  0  0  0  0  0  0
  195.4410  171.3850  142.7420 C   0  0  0  0  0  3  0  0  0  0  0  0
  196.4900  172.3880  144.6800 C   0  0  0  0  0  3  0  0  0  0  0  0
  196.8520  170.0430  144.1850 C   0  0  0  0  0  3  0  0  0  0  0  0
  196.0270  170.1520  143.0640 C   0  0  0  0  0  3  0  0  0  0  0  0
  195.6780  172.5090  143.5400 C   0  0  0  0  0  0  0  0  0  0  0  0
  1 10  1  0  0  0  0
  1 23  1  0  0  0  0
  4 15  1  0  0  0  0
  4 14  1  0  0  0  0
  5 28  1  0  0  0  0
  6 25  1  0  0  0  0
  6 12  1  0  0  0  0
  7 11  1  0  0  0  0
  8  9  2  0  0  0  0
  9 26  1  0  0  0  0
  9 20  1  0  0  0  0
 11 12  1  0  0  0  0
 11 18  2  0  0  0  0
 12  1  2  0  0  0  0
 13  5  1  0  0  0  0
 13 22  1  0  0  0  0
 14 46  1  1  0  0  0
 14 30  1  0  0  0  0
 15  3  1  0  0  0  0
 16 19  1  0  0  0  0
 17 23  1  0  0  0  0
 18 10  1  0  0  0  0
 19 26  1  0  0  0  0
 20 13  2  0  0  0  0
 21  7  1  0  0  0  0
 21 24  1  0  0  0  0
 22 21  2  0  0  0  0
 24  2  1  6  0  0  0
 25 17  1  1  0  0  0
 26 29  1  0  0  0  0
 27  3  1  1  0  0  0
 27 30  1  0  0  0  0
 27 25  1  0  0  0  0
 28  7  2  0  0  0  0
 29 37  1  0  0  0  0
 29  5  2  0  0  0  0
 30 24  1  0  0  0  0
 31 16  1  0  0  0  0
 31  8  1  0  0  0  0
 33 34  2  0  0  0  0
 33 37  1  0  0  0  0
 34 35  1  0  0  0  0
 35 40  1  0  0  0  0
 35 32  2  0  0  0  0
 36 32  1  0  0  0  0
 37 36  2  0  0  0  0
 39 40  2  0  0  0  0
 40 38  1  0  0  0  0
 42 45  2  0  0  0  0
 42 46  1  0  0  0  0
 43 41  1  0  0  0  0
 44 41  2  0  0  0  0
 45 44  1  0  0  0  0
 46 43  2  0  0  0  0
M  END
>  <MODEL>
8

>  <REMARK>
 VINA RESULT:      -5.6      2.911      6.204
  Name = 
  3 active torsions:
  status: ('A' for Active; 'I' for Inactive)
    1  A    between atoms: C_13  and  C_22
    2  A    between atoms: C_23  and  C_46
    3  A    between atoms: C_35  and  C_43
                            x       y       z     vdW  Elec       q    Type
                         _______ _______ _______ _____ _____    ______ ____

>  <TORSDO>
F 3

$$$$
=
 OpenBabel11062422503D

 46 54  0  0  1  0  0  0  0  0999 V2000
  195.5900  171.8150  142.1560 C   0  0  0  0  0  0  0  0  0  0  0  0
  192.1230  170.8930  139.8470 C   0  0  0  0  0  1  0  0  0  0  0  0
  194.9400  173.8660  137.2260 C   0  0  0  0  0  2  0  0  0  0  0  0
  192.2770  174.6110  137.1300 C   0  0  0  0  0  2  0  0  0  0  0  0
  190.4360  174.7490  142.6040 C   0  0  0  0  0  0  0  0  0  0  0  0
  195.1080  173.8190  140.9010 O   0  0  0  0  0  0  0  0  0  0  0  0
  192.4470  173.4350  142.1500 C   0  0  0  0  0  0  0  0  0  0  0  0
  186.8810  176.3470  141.1740 C   0  0  0  0  0  3  0  0  0  0  0  0
  188.0310  175.8560  141.6420 C   0  0  0  0  0  0  0  0  0  0  0  0
  194.9260  170.9770  142.9750 N   0  0  0  0  0  2  0  0  0  0  0  0
  193.6970  172.8390  142.6460 C   0  0  0  0  0  0  0  0  0  0  0  0
  194.8660  172.9400  141.9440 C   0  0  0  0  0  0  0  0  0  0  0  0
  190.0290  174.5460  141.2560 C   0  0  0  0  0  0  0  0  0  0  0  0
  192.0780  173.2360  137.7890 C   0  0  2  0  0  3  0  0  0  0  0  0
  193.7780  174.6930  136.0820 S   0  0  0  0  0  0  0  0  0  0  0  0
  186.0830  176.7090  143.4980 C   0  0  0  0  0  2  0  0  0  0  0  0
  195.9230  171.8520  139.5700 C   0  0  0  0  0  2  0  0  0  0  0  0
  193.7580  171.6000  143.2730 C   0  0  0  0  0  3  0  0  0  0  0  0
  187.5430  176.7730  143.9440 C   0  0  0  0  0  2  0  0  0  0  0  0
  188.8920  175.0560  140.7750 C   0  0  0  0  0  3  0  0  0  0  0  0
  192.0300  173.2320  140.8110 C   0  0  0  0  0  0  0  0  0  0  0  0
  190.8150  173.7820  140.3930 C   0  0  0  0  0  3  0  0  0  0  0  0
  196.9200  171.3660  141.0450 S   0  0  0  0  0  0  0  0  0  0  0  0
  192.7870  172.2590  139.9120 C   0  0  2  0  0  3  0  0  0  0  0  0
  195.4900  173.3460  139.6090 C   0  0  1  0  0  3  0  0  0  0  0  0
  188.4110  176.0280  143.0210 N   0  0  0  0  0  0  0  0  0  0  0  0
  194.3590  173.6910  138.6210 C   0  0  2  0  0  3  0  0  0  0  0  0
  191.6570  174.1840  143.0210 C   0  0  0  0  0  3  0  0  0  0  0  0
  189.6710  175.4720  143.4700 C   0  0  0  0  0  0  0  0  0  0  0  0
  193.2260  172.7320  138.5780 N   0  0  2  0  0  0  0  0  0  0  0  0
  185.9860  177.1740  142.0500 C   0  0  0  0  0  2  0  0  0  0  0  0
  190.0190  175.1380  147.2220 C   0  0  0  0  0  3  0  0  0  0  0  0
  191.0400  176.7200  145.1570 C   0  0  0  0  0  3  0  0  0  0  0  0
  191.4530  176.9390  146.4730 C   0  0  0  0  0  3  0  0  0  0  0  0
  190.9430  176.1510  147.5140 C   0  0  0  0  0  0  0  0  0  0  0  0
  189.6080  174.9170  145.9040 C   0  0  0  0  0  3  0  0  0  0  0  0
  190.1130  175.7080  144.8670 C   0  0  0  0  0  0  0  0  0  0  0  0
  191.5670  175.4130  149.6810 O   0  0  0  0  0  1  0  0  0  0  0  0
  191.5660  177.6780  149.3640 O   0  0  0  0  0  0  0  0  0  0  0  0
  191.3690  176.3830  148.9020 C   0  0  0  0  0  0  0  0  0  0  0  0
  189.6930  171.1660  135.6450 C   0  0  0  0  0  3  0  0  0  0  0  0
  192.4140  171.2810  136.2760 C   0  0  0  0  0  3  0  0  0  0  0  0
  190.1650  172.1420  136.5280 C   0  0  0  0  0  3  0  0  0  0  0  0
  190.5800  170.2460  135.0760 C   0  0  0  0  0  3  0  0  0  0  0  0
  191.9410  170.3080  135.3850 C   0  0  0  0  0  3  0  0  0  0  0  0
  191.5300  172.1950  136.8590 C   0  0  0  0  0  0  0  0  0  0  0  0
  1 10  1  0  0  0  0
  4 14  1  0  0  0  0
  5 28  1  0  0  0  0
  5 29  2  0  0  0  0
  6 12  1  0  0  0  0
  7 11  1  0  0  0  0
  7 28  2  0  0  0  0
  8  9  2  0  0  0  0
  8 31  1  0  0  0  0
  9 26  1  0  0  0  0
 10 18  1  0  0  0  0
 11 18  2  0  0  0  0
 12  1  2  0  0  0  0
 12 11  1  0  0  0  0
 13  5  1  0  0  0  0
 14 46  1  6  0  0  0
 14 30  1  0  0  0  0
 15  4  1  0  0  0  0
 15  3  1  0  0  0  0
 16 19  1  0  0  0  0
 17 23  1  0  0  0  0
 20 13  2  0  0  0  0
 20  9  1  0  0  0  0
 21  7  1  0  0  0  0
 22 21  2  0  0  0  0
 22 13  1  0  0  0  0
 23  1  1  0  0  0  0
 24  2  1  6  0  0  0
 24 21  1  0  0  0  0
 25 17  1  1  0  0  0
 25  6  1  0  0  0  0
 26 29  1  0  0  0  0
 26 19  1  0  0  0  0
 27  3  1  6  0  0  0
 27 25  1  0  0  0  0
 29 37  1  0  0  0  0
 30 27  1  0  0  0  0
 30 24  1  0  0  0  0
 31 16  1  0  0  0  0
 32 35  1  0  0  0  0
 33 34  1  0  0  0  0
 34 35  2  0  0  0  0
 35 40  1  0  0  0  0
 36 32  2  0  0  0  0
 37 33  2  0  0  0  0
 37 36  1  0  0  0  0
 40 39  2  0  0  0  0
 40 38  1  0  0  0  0
 41 43  1  0  0  0  0
 42 46  1  0  0  0  0
 43 46  2  0  0  0  0
 44 45  1  0  0  0  0
 44 41  2  0  0  0  0
 45 42  2  0  0  0  0
M  END
>  <MODEL>
9

>  <REMARK>
 VINA RESULT:      -5.6      3.428      6.618
  Name = 
  3 active torsions:
  status: ('A' for Active; 'I' for Inactive)
    1  A    between atoms: C_13  and  C_22
    2  A    between atoms: C_23  and  C_46
    3  A    between atoms: C_35  and  C_43
                            x       y       z     vdW  Elec       q    Type
                         _______ _______ _______ _____ _____    ______ ____

>  <TORSDO>
F 3

$$$$
