=
 OpenBabel11062419083D

 32 35  0  0  1  0  0  0  0  0999 V2000
  188.5630  176.4430  141.3470 O   0  0  0  0  0  1  0  0  0  0  0  0
  186.8100  177.3600  143.7850 O   0  0  0  0  0  0  0  0  0  0  0  0
  189.1250  176.7310  143.6140 C   0  0  1  0  0  3  0  0  0  0  0  0
  187.7620  176.4230  144.2340 C   0  0  1  0  0  3  0  0  0  0  0  0
  187.4010  178.0580  142.7150 C   0  0  1  0  0  3  0  0  0  0  0  0
  188.7300  177.4110  142.3430 C   0  0  2  0  0  3  0  0  0  0  0  0
  186.4370  178.1840  141.5430 C   0  0  0  0  0  2  0  0  0  0  0  0
  185.2430  177.4710  141.8240 O   0  0  0  0  0  0  0  0  0  0  0  0
  184.0250  178.1230  142.0120 C   0  0  0  0  0  0  0  0  0  0  0  0
  183.1570  178.2750  140.9400 O   0  0  0  0  0  0  0  0  0  0  0  0
  183.7010  178.5710  143.1450 O   0  0  0  0  0  1  0  0  0  0  0  0
  187.7600  176.3110  145.7570 C   0  0  0  0  0  2  0  0  0  0  0  0
  186.6810  177.1450  146.3580 C   0  0  0  0  0  0  0  0  0  0  0  0
  185.3420  176.8080  146.1500 C   0  0  0  0  0  3  0  0  0  0  0  0
  184.6770  178.6780  147.4790 N   0  0  0  0  0  0  0  0  0  0  0  0
  187.0040  178.2570  147.1390 C   0  0  0  0  0  3  0  0  0  0  0  0
  184.3420  177.5960  146.7250 C   0  0  0  0  0  3  0  0  0  0  0  0
  185.9750  179.0210  147.6970 C   0  0  0  0  0  3  0  0  0  0  0  0
  189.9690  177.7010  144.4390 C   0  0  0  0  0  2  0  0  0  0  0  0
  191.4300  177.6020  144.0320 C   0  0  0  0  0  2  0  0  0  0  0  0
  192.2450  176.8750  145.0950 C   0  0  2  0  0  3  0  0  0  0  0  0
  193.2690  176.0820  142.9190 C   0  0  0  0  0  1  0  0  0  0  0  0
  193.3380  176.0200  144.4400 C   0  0  1  0  0  3  0  0  0  0  0  0
  194.7610  176.2420  144.9860 C   0  0  1  0  0  3  0  0  0  0  0  0
  194.8320  177.5110  145.5660 O   0  0  0  0  0  1  0  0  0  0  0  0
  196.3600  174.2120  145.5950 C   0  0  1  0  0  0  0  0  0  0  0  0
  196.9960  174.9030  144.5220 O   0  0  0  0  0  0  0  0  0  0  0  0
  196.6910  173.5850  144.2730 C   0  0  0  0  0  2  0  0  0  0  0  0
  195.1990  175.1790  146.0100 C   0  0  2  0  0  3  0  0  0  0  0  0
  194.8770  173.8410  145.4950 C   0  0  0  0  0  2  0  0  0  0  0  0
  191.4130  176.0970  145.9090 O   0  0  0  0  0  0  0  0  0  0  0  0
  191.8450  176.3480  147.2150 C   0  0  0  0  0  1  0  0  0  0  0  0
  2  4  1  0  0  0  0
  3  4  1  0  0  0  0
  3 19  1  1  0  0  0
  4 12  1  1  0  0  0
  5  7  1  6  0  0  0
  5  2  1  0  0  0  0
  6  1  1  6  0  0  0
  6  5  1  0  0  0  0
  6  3  1  0  0  0  0
  7  8  1  0  0  0  0
  8  9  1  0  0  0  0
  9 11  1  0  0  0  0
 10  9  2  0  0  0  0
 12 13  1  0  0  0  0
 13 16  1  0  0  0  0
 14 13  2  0  0  0  0
 14 17  1  0  0  0  0
 15 18  1  0  0  0  0
 16 18  2  0  0  0  0
 17 15  2  0  0  0  0
 20 19  1  0  0  0  0
 21 20  1  6  0  0  0
 21 31  1  0  0  0  0
 23 22  1  6  0  0  0
 23 24  1  0  0  0  0
 23 21  1  0  0  0  0
 24 25  1  1  0  0  0
 26 28  1  1  0  0  0
 26 29  1  0  0  0  0
 27 26  1  0  0  0  0
 28 27  1  0  0  0  0
 29 24  1  6  0  0  0
 30 26  1  0  0  0  0
 30 29  1  0  0  0  0
 31 32  1  0  0  0  0
M  END
>  <MODEL>
1

>  <REMARK>
 VINA RESULT:      -6.7      0.000      0.000
  Name = 
  12 active torsions:
  status: ('A' for Active; 'I' for Inactive)
    1  A    between atoms: C_1  and  O_10
    2  A    between atoms: C_1  and  C_25
    3  A    between atoms: C_2  and  C_12
    4  A    between atoms: C_2  and  C_21
    5  A    between atoms: C_6  and  O_10
    6  A    between atoms: C_11  and  C_15
    7  A    between atoms: C_11  and  C_18
    8  A    between atoms: C_15  and  O_16
    9  A    between atoms: C_15  and  C_20
   10  A    between atoms: C_18  and  C_19
   11  A    between atoms: C_20  and  C_23
   12  A    between atoms: C_23  and  C_24
                            x       y       z     vdW  Elec       q    Type
                         _______ _______ _______ _____ _____    ______ ____

>  <TORSDO>
F 12

$$$$
=
 OpenBabel11062419083D

 32 35  0  0  1  0  0  0  0  0999 V2000
  190.1810  175.6600  142.4880 O   0  0  0  0  0  1  0  0  0  0  0  0
  188.4270  177.4360  144.3920 O   0  0  0  0  0  0  0  0  0  0  0  0
  190.1650  175.8340  144.8350 C   0  0  1  0  0  3  0  0  0  0  0  0
  188.6960  176.2100  145.0320 C   0  0  1  0  0  3  0  0  0  0  0  0
  189.5360  177.7190  143.5720 C   0  0  1  0  0  3  0  0  0  0  0  0
  190.4810  176.5230  143.5470 C   0  0  2  0  0  3  0  0  0  0  0  0
  189.0930  178.1740  142.1890 C   0  0  0  0  0  2  0  0  0  0  0  0
  187.6760  178.2090  142.1240 O   0  0  0  0  0  0  0  0  0  0  0  0
  186.9660  177.4680  141.1810 C   0  0  0  0  0  0  0  0  0  0  0  0
  185.6800  177.8580  140.8310 O   0  0  0  0  0  1  0  0  0  0  0  0
  187.4780  176.4520  140.6370 O   0  0  0  0  0  0  0  0  0  0  0  0
  188.2260  176.2230  146.4840 C   0  0  0  0  0  2  0  0  0  0  0  0
  187.0060  177.0610  146.6500 C   0  0  0  0  0  0  0  0  0  0  0  0
  185.8070  176.6730  146.0500 C   0  0  0  0  0  3  0  0  0  0  0  0
  184.7370  178.6040  146.9630 N   0  0  0  0  0  0  0  0  0  0  0  0
  187.0530  178.2310  147.4130 C   0  0  0  0  0  3  0  0  0  0  0  0
  184.6700  177.4670  146.2190 C   0  0  0  0  0  3  0  0  0  0  0  0
  185.8950  178.9980  147.5580 C   0  0  0  0  0  3  0  0  0  0  0  0
  191.0900  176.3860  145.9190 C   0  0  0  0  0  2  0  0  0  0  0  0
  192.0480  175.3050  146.3900 C   0  0  0  0  0  2  0  0  0  0  0  0
  193.4520  175.5440  145.8460 C   0  0  2  0  0  3  0  0  0  0  0  0
  193.1050  173.0870  145.3380 C   0  0  0  0  0  1  0  0  0  0  0  0
  194.1240  174.2090  145.4950 C   0  0  1  0  0  3  0  0  0  0  0  0
  195.1360  174.2690  144.3370 C   0  0  1  0  0  3  0  0  0  0  0  0
  194.7710  175.2990  143.4670 O   0  0  0  0  0  1  0  0  0  0  0  0
  197.5290  173.2190  144.8070 C   0  0  1  0  0  0  0  0  0  0  0  0
  196.8660  172.3080  143.9340 O   0  0  0  0  0  0  0  0  0  0  0  0
  197.2500  171.7850  145.1470 C   0  0  0  0  0  2  0  0  0  0  0  0
  196.5900  174.4740  144.8000 C   0  0  2  0  0  3  0  0  0  0  0  0
  196.8110  173.7420  146.0560 C   0  0  0  0  0  2  0  0  0  0  0  0
  194.2200  176.2720  146.7640 O   0  0  0  0  0  0  0  0  0  0  0  0
  194.5850  177.4380  146.0860 C   0  0  0  0  0  1  0  0  0  0  0  0
  2  4  1  0  0  0  0
  3  4  1  0  0  0  0
  3 19  1  1  0  0  0
  4 12  1  1  0  0  0
  5  7  1  6  0  0  0
  5  2  1  0  0  0  0
  6  1  1  6  0  0  0
  6  5  1  0  0  0  0
  6  3  1  0  0  0  0
  8  7  1  0  0  0  0
  9  8  1  0  0  0  0
 10  9  1  0  0  0  0
 11  9  2  0  0  0  0
 12 13  1  0  0  0  0
 13 16  1  0  0  0  0
 14 17  1  0  0  0  0
 14 13  2  0  0  0  0
 15 18  1  0  0  0  0
 16 18  2  0  0  0  0
 17 15  2  0  0  0  0
 19 20  1  0  0  0  0
 21 20  1  1  0  0  0
 21 31  1  0  0  0  0
 23 22  1  6  0  0  0
 23 21  1  0  0  0  0
 24 25  1  6  0  0  0
 24 23  1  0  0  0  0
 26 28  1  6  0  0  0
 26 30  1  0  0  0  0
 27 26  1  0  0  0  0
 27 28  1  0  0  0  0
 29 24  1  6  0  0  0
 29 26  1  0  0  0  0
 29 30  1  0  0  0  0
 32 31  1  0  0  0  0
M  END
>  <MODEL>
2

>  <REMARK>
 VINA RESULT:      -6.6      1.628      2.340
  Name = 
  12 active torsions:
  status: ('A' for Active; 'I' for Inactive)
    1  A    between atoms: C_1  and  O_10
    2  A    between atoms: C_1  and  C_25
    3  A    between atoms: C_2  and  C_12
    4  A    between atoms: C_2  and  C_21
    5  A    between atoms: C_6  and  O_10
    6  A    between atoms: C_11  and  C_15
    7  A    between atoms: C_11  and  C_18
    8  A    between atoms: C_15  and  O_16
    9  A    between atoms: C_15  and  C_20
   10  A    between atoms: C_18  and  C_19
   11  A    between atoms: C_20  and  C_23
   12  A    between atoms: C_23  and  C_24
                            x       y       z     vdW  Elec       q    Type
                         _______ _______ _______ _____ _____    ______ ____

>  <TORSDO>
F 12

$$$$
=
 OpenBabel11062419083D

 32 35  0  0  1  0  0  0  0  0999 V2000
  189.4970  174.5770  146.8700 O   0  0  0  0  0  1  0  0  0  0  0  0
  191.4170  175.8100  144.7120 O   0  0  0  0  0  0  0  0  0  0  0  0
  189.0210  175.6410  144.8260 C   0  0  1  0  0  3  0  0  0  0  0  0
  190.2910  175.2640  144.0640 C   0  0  1  0  0  3  0  0  0  0  0  0
  190.9810  176.2580  145.9740 C   0  0  1  0  0  3  0  0  0  0  0  0
  189.5440  175.8130  146.2160 C   0  0  2  0  0  3  0  0  0  0  0  0
  191.9440  175.8280  147.0720 C   0  0  0  0  0  2  0  0  0  0  0  0
  192.9970  176.7730  147.1850 O   0  0  0  0  0  0  0  0  0  0  0  0
  194.1900  176.6320  146.4780 C   0  0  0  0  0  0  0  0  0  0  0  0
  194.7400  177.7330  145.8360 O   0  0  0  0  0  0  0  0  0  0  0  0
  194.7780  175.5180  146.4190 O   0  0  0  0  0  1  0  0  0  0  0  0
  190.2770  175.6180  142.5790 C   0  0  0  0  0  2  0  0  0  0  0  0
  189.9680  174.4250  141.7420 C   0  0  0  0  0  0  0  0  0  0  0  0
  188.8320  174.4180  140.9300 C   0  0  0  0  0  3  0  0  0  0  0  0
  189.3950  172.2220  140.1790 N   0  0  0  0  0  0  0  0  0  0  0  0
  190.8160  173.3150  141.7580 C   0  0  0  0  0  3  0  0  0  0  0  0
  188.5590  173.2930  140.1470 C   0  0  0  0  0  3  0  0  0  0  0  0
  190.5090  172.2100  140.9610 C   0  0  0  0  0  3  0  0  0  0  0  0
  188.4040  176.9650  144.3750 C   0  0  0  0  0  2  0  0  0  0  0  0
  186.9860  176.7390  143.8780 C   0  0  0  0  0  2  0  0  0  0  0  0
  186.6610  177.6680  142.7140 C   0  0  2  0  0  3  0  0  0  0  0  0
  184.1450  177.9580  142.7400 C   0  0  0  0  0  1  0  0  0  0  0  0
  185.4900  178.5910  143.0760 C   0  0  1  0  0  3  0  0  0  0  0  0
  185.5370  179.1840  144.4960 C   0  0  1  0  0  3  0  0  0  0  0  0
  185.4980  180.5770  144.4080 O   0  0  0  0  0  1  0  0  0  0  0  0
  184.6800  178.6290  146.9470 C   0  0  1  0  0  0  0  0  0  0  0  0
  185.8010  179.4950  147.1110 O   0  0  0  0  0  0  0  0  0  0  0  0
  185.9210  178.2600  147.7040 C   0  0  0  0  0  2  0  0  0  0  0  0
  184.3970  178.6910  145.4070 C   0  0  2  0  0  3  0  0  0  0  0  0
  184.7810  177.4120  146.0220 C   0  0  0  0  0  2  0  0  0  0  0  0
  186.3850  176.9300  141.5560 O   0  0  0  0  0  0  0  0  0  0  0  0
  186.9890  177.6430  140.5170 C   0  0  0  0  0  1  0  0  0  0  0  0
  2  5  1  0  0  0  0
  3 19  1  6  0  0  0
  3  6  1  0  0  0  0
  4 12  1  6  0  0  0
  4  2  1  0  0  0  0
  4  3  1  0  0  0  0
  5  6  1  0  0  0  0
  5  7  1  1  0  0  0
  6  1  1  1  0  0  0
  7  8  1  0  0  0  0
  9  8  1  0  0  0  0
 10  9  2  0  0  0  0
 11  9  1  0  0  0  0
 13 16  1  0  0  0  0
 13 12  1  0  0  0  0
 14 13  2  0  0  0  0
 15 18  1  0  0  0  0
 17 15  2  0  0  0  0
 17 14  1  0  0  0  0
 18 16  2  0  0  0  0
 20 19  1  0  0  0  0
 21 23  1  0  0  0  0
 21 20  1  1  0  0  0
 23 22  1  1  0  0  0
 23 24  1  0  0  0  0
 24 25  1  6  0  0  0
 26 30  1  6  0  0  0
 26 27  1  0  0  0  0
 26 28  1  0  0  0  0
 27 28  1  0  0  0  0
 29 24  1  6  0  0  0
 29 30  1  0  0  0  0
 29 26  1  0  0  0  0
 31 21  1  0  0  0  0
 32 31  1  0  0  0  0
M  END
>  <MODEL>
3

>  <REMARK>
 VINA RESULT:      -6.5      2.990      8.670
  Name = 
  12 active torsions:
  status: ('A' for Active; 'I' for Inactive)
    1  A    between atoms: C_1  and  O_10
    2  A    between atoms: C_1  and  C_25
    3  A    between atoms: C_2  and  C_12
    4  A    between atoms: C_2  and  C_21
    5  A    between atoms: C_6  and  O_10
    6  A    between atoms: C_11  and  C_15
    7  A    between atoms: C_11  and  C_18
    8  A    between atoms: C_15  and  O_16
    9  A    between atoms: C_15  and  C_20
   10  A    between atoms: C_18  and  C_19
   11  A    between atoms: C_20  and  C_23
   12  A    between atoms: C_23  and  C_24
                            x       y       z     vdW  Elec       q    Type
                         _______ _______ _______ _____ _____    ______ ____

>  <TORSDO>
F 12

$$$$
=
 OpenBabel11062419083D

 32 35  0  0  1  0  0  0  0  0999 V2000
  188.5980  175.4340  141.6220 O   0  0  0  0  0  1  0  0  0  0  0  0
  188.0810  177.5070  143.9230 O   0  0  0  0  0  0  0  0  0  0  0  0
  189.1820  175.3700  143.9010 C   0  0  1  0  0  3  0  0  0  0  0  0
  188.0320  176.2060  144.4610 C   0  0  1  0  0  3  0  0  0  0  0  0
  188.9990  177.4710  142.8560 C   0  0  1  0  0  3  0  0  0  0  0  0
  189.4210  176.0320  142.5830 C   0  0  2  0  0  3  0  0  0  0  0  0
  188.4440  178.1850  141.6310 C   0  0  0  0  0  2  0  0  0  0  0  0
  187.0370  178.3270  141.7520 O   0  0  0  0  0  0  0  0  0  0  0  0
  186.1740  178.0000  140.7080 C   0  0  0  0  0  0  0  0  0  0  0  0
  184.8510  178.4180  140.7570 O   0  0  0  0  0  1  0  0  0  0  0  0
  186.5800  177.3350  139.7170 O   0  0  0  0  0  0  0  0  0  0  0  0
  187.9440  176.2360  145.9850 C   0  0  0  0  0  2  0  0  0  0  0  0
  186.7950  177.0670  146.4440 C   0  0  0  0  0  0  0  0  0  0  0  0
  185.5020  176.7670  146.0120 C   0  0  0  0  0  3  0  0  0  0  0  0
  184.6610  178.5950  147.2990 N   0  0  0  0  0  0  0  0  0  0  0  0
  187.0060  178.1400  147.3130 C   0  0  0  0  0  3  0  0  0  0  0  0
  184.4350  177.5530  146.4550 C   0  0  0  0  0  3  0  0  0  0  0  0
  185.9130  178.9020  147.7340 C   0  0  0  0  0  3  0  0  0  0  0  0
  190.4650  175.4590  144.7260 C   0  0  0  0  0  2  0  0  0  0  0  0
  191.5750  174.6650  144.0580 C   0  0  0  0  0  2  0  0  0  0  0  0
  192.9070  174.8840  144.7650 C   0  0  2  0  0  3  0  0  0  0  0  0
  193.3900  176.0830  142.5880 C   0  0  0  0  0  1  0  0  0  0  0  0
  193.9840  175.3100  143.7580 C   0  0  1  0  0  3  0  0  0  0  0  0
  195.2180  175.9980  144.3690 C   0  0  1  0  0  3  0  0  0  0  0  0
  194.8740  176.5250  145.6160 O   0  0  0  0  0  1  0  0  0  0  0  0
  197.6100  175.2410  143.5000 C   0  0  1  0  0  0  0  0  0  0  0  0
  197.4040  176.5550  142.9850 O   0  0  0  0  0  0  0  0  0  0  0  0
  197.6030  175.5760  142.0390 C   0  0  0  0  0  2  0  0  0  0  0  0
  196.4330  175.0640  144.5200 C   0  0  2  0  0  3  0  0  0  0  0  0
  196.5170  174.1790  143.3490 C   0  0  0  0  0  2  0  0  0  0  0  0
  193.2920  173.7320  145.4620 O   0  0  0  0  0  0  0  0  0  0  0  0
  193.1620  172.6900  144.5400 C   0  0  0  0  0  1  0  0  0  0  0  0
  2  4  1  0  0  0  0
  3  4  1  0  0  0  0
  3 19  1  1  0  0  0
  4 12  1  1  0  0  0
  5  7  1  6  0  0  0
  5  2  1  0  0  0  0
  6  1  1  6  0  0  0
  6  5  1  0  0  0  0
  6  3  1  0  0  0  0
  7  8  1  0  0  0  0
  9 10  1  0  0  0  0
  9  8  1  0  0  0  0
 11  9  2  0  0  0  0
 12 13  1  0  0  0  0
 13 16  1  0  0  0  0
 14 13  2  0  0  0  0
 14 17  1  0  0  0  0
 15 18  1  0  0  0  0
 16 18  2  0  0  0  0
 17 15  2  0  0  0  0
 20 19  1  0  0  0  0
 21 20  1  6  0  0  0
 21 31  1  0  0  0  0
 23 22  1  6  0  0  0
 23 24  1  0  0  0  0
 23 21  1  0  0  0  0
 24 25  1  1  0  0  0
 26 28  1  1  0  0  0
 26 29  1  0  0  0  0
 27 26  1  0  0  0  0
 28 27  1  0  0  0  0
 29 24  1  6  0  0  0
 30 26  1  0  0  0  0
 30 29  1  0  0  0  0
 32 31  1  0  0  0  0
M  END
>  <MODEL>
4

>  <REMARK>
 VINA RESULT:      -6.5      1.564      2.060
  Name = 
  12 active torsions:
  status: ('A' for Active; 'I' for Inactive)
    1  A    between atoms: C_1  and  O_10
    2  A    between atoms: C_1  and  C_25
    3  A    between atoms: C_2  and  C_12
    4  A    between atoms: C_2  and  C_21
    5  A    between atoms: C_6  and  O_10
    6  A    between atoms: C_11  and  C_15
    7  A    between atoms: C_11  and  C_18
    8  A    between atoms: C_15  and  O_16
    9  A    between atoms: C_15  and  C_20
   10  A    between atoms: C_18  and  C_19
   11  A    between atoms: C_20  and  C_23
   12  A    between atoms: C_23  and  C_24
                            x       y       z     vdW  Elec       q    Type
                         _______ _______ _______ _____ _____    ______ ____

>  <TORSDO>
F 12

$$$$
=
 OpenBabel11062419083D

 32 35  0  0  1  0  0  0  0  0999 V2000
  189.0470  178.3070  142.6990 O   0  0  0  0  0  1  0  0  0  0  0  0
  186.6900  176.2780  142.2720 O   0  0  0  0  0  0  0  0  0  0  0  0
  188.7580  176.1090  143.4880 C   0  0  1  0  0  3  0  0  0  0  0  0
  187.9010  175.5620  142.3460 C   0  0  1  0  0  3  0  0  0  0  0  0
  186.8390  177.4130  143.0910 C   0  0  1  0  0  3  0  0  0  0  0  0
  188.2820  177.5230  143.5690 C   0  0  2  0  0  3  0  0  0  0  0  0
  186.3330  178.6660  142.3900 C   0  0  0  0  0  2  0  0  0  0  0  0
  185.9550  179.6380  143.3530 O   0  0  0  0  0  0  0  0  0  0  0  0
  185.0510  179.3470  144.3730 C   0  0  0  0  0  0  0  0  0  0  0  0
  185.4750  179.3860  145.6940 O   0  0  0  0  0  1  0  0  0  0  0  0
  183.8530  179.0560  144.1110 O   0  0  0  0  0  0  0  0  0  0  0  0
  187.6560  174.0550  142.3930 C   0  0  0  0  0  2  0  0  0  0  0  0
  188.8280  173.3010  141.8670 C   0  0  0  0  0  0  0  0  0  0  0  0
  189.5290  173.7850  140.7600 C   0  0  0  0  0  3  0  0  0  0  0  0
  191.0080  171.9140  140.8920 N   0  0  0  0  0  0  0  0  0  0  0  0
  189.2360  172.1140  142.4810 C   0  0  0  0  0  3  0  0  0  0  0  0
  190.6290  173.0680  140.2810 C   0  0  0  0  0  3  0  0  0  0  0  0
  190.3400  171.4270  141.9730 C   0  0  0  0  0  3  0  0  0  0  0  0
  188.4940  175.4320  144.8320 C   0  0  0  0  0  2  0  0  0  0  0  0
  189.7080  174.6230  145.2570 C   0  0  0  0  0  2  0  0  0  0  0  0
  190.8220  175.5330  145.7610 C   0  0  2  0  0  3  0  0  0  0  0  0
  191.9380  174.1880  143.9280 C   0  0  0  0  0  1  0  0  0  0  0  0
  192.1190  175.2720  144.9840 C   0  0  1  0  0  3  0  0  0  0  0  0
  192.8230  176.5290  144.4400 C   0  0  1  0  0  3  0  0  0  0  0  0
  191.8720  177.5330  144.2450 O   0  0  0  0  0  1  0  0  0  0  0  0
  195.4210  176.6830  144.9660 C   0  0  1  0  0  0  0  0  0  0  0  0
  195.3200  176.3340  143.5870 O   0  0  0  0  0  0  0  0  0  0  0  0
  195.9990  175.4330  144.3730 C   0  0  0  0  0  2  0  0  0  0  0  0
  193.9470  177.0490  145.3540 C   0  0  2  0  0  3  0  0  0  0  0  0
  194.6080  175.9130  146.0120 C   0  0  0  0  0  2  0  0  0  0  0  0
  191.0140  175.3620  147.1380 O   0  0  0  0  0  0  0  0  0  0  0  0
  190.9420  176.6500  147.6770 C   0  0  0  0  0  1  0  0  0  0  0  0
  2  4  1  0  0  0  0
  2  5  1  0  0  0  0
  3  6  1  0  0  0  0
  3 19  1  1  0  0  0
  4 12  1  1  0  0  0
  4  3  1  0  0  0  0
  5  7  1  6  0  0  0
  5  6  1  0  0  0  0
  6  1  1  6  0  0  0
  7  8  1  0  0  0  0
  8  9  1  0  0  0  0
  9 10  1  0  0  0  0
 11  9  2  0  0  0  0
 13 12  1  0  0  0  0
 13 16  1  0  0  0  0
 14 13  2  0  0  0  0
 15 18  1  0  0  0  0
 17 14  1  0  0  0  0
 17 15  2  0  0  0  0
 18 16  2  0  0  0  0
 19 20  1  0  0  0  0
 21 20  1  6  0  0  0
 21 31  1  0  0  0  0
 23 22  1  6  0  0  0
 23 21  1  0  0  0  0
 24 25  1  1  0  0  0
 24 23  1  0  0  0  0
 26 28  1  1  0  0  0
 26 29  1  0  0  0  0
 26 30  1  0  0  0  0
 27 28  1  0  0  0  0
 27 26  1  0  0  0  0
 29 24  1  6  0  0  0
 29 30  1  0  0  0  0
 31 32  1  0  0  0  0
M  END
>  <MODEL>
5

>  <REMARK>
 VINA RESULT:      -6.4      3.204      4.537
  Name = 
  12 active torsions:
  status: ('A' for Active; 'I' for Inactive)
    1  A    between atoms: C_1  and  O_10
    2  A    between atoms: C_1  and  C_25
    3  A    between atoms: C_2  and  C_12
    4  A    between atoms: C_2  and  C_21
    5  A    between atoms: C_6  and  O_10
    6  A    between atoms: C_11  and  C_15
    7  A    between atoms: C_11  and  C_18
    8  A    between atoms: C_15  and  O_16
    9  A    between atoms: C_15  and  C_20
   10  A    between atoms: C_18  and  C_19
   11  A    between atoms: C_20  and  C_23
   12  A    between atoms: C_23  and  C_24
                            x       y       z     vdW  Elec       q    Type
                         _______ _______ _______ _____ _____    ______ ____

>  <TORSDO>
F 12

$$$$
=
 OpenBabel11062419083D

 32 35  0  0  1  0  0  0  0  0999 V2000
  188.0390  172.9940  142.1920 O   0  0  0  0  0  1  0  0  0  0  0  0
  187.9100  175.3930  140.1700 O   0  0  0  0  0  0  0  0  0  0  0  0
  188.4550  175.2880  142.5100 C   0  0  1  0  0  3  0  0  0  0  0  0
  187.5130  175.8470  141.4440 C   0  0  1  0  0  3  0  0  0  0  0  0
  188.8520  174.3680  140.3800 C   0  0  1  0  0  3  0  0  0  0  0  0
  188.9250  174.0260  141.8640 C   0  0  2  0  0  3  0  0  0  0  0  0
  188.5610  173.1660  139.4920 C   0  0  0  0  0  2  0  0  0  0  0  0
  188.2330  173.6040  138.1820 O   0  0  0  0  0  0  0  0  0  0  0  0
  189.2080  173.7810  137.2020 C   0  0  0  0  0  0  0  0  0  0  0  0
  188.8930  174.4750  136.0420 O   0  0  0  0  0  0  0  0  0  0  0  0
  190.3720  173.3230  137.3570 O   0  0  0  0  0  1  0  0  0  0  0  0
  187.3460  177.3650  141.4670 C   0  0  0  0  0  2  0  0  0  0  0  0
  185.9100  177.7490  141.5700 C   0  0  0  0  0  0  0  0  0  0  0  0
  185.1550  177.9380  140.4110 C   0  0  0  0  0  3  0  0  0  0  0  0
  183.2450  178.4500  141.7520 N   0  0  0  0  0  0  0  0  0  0  0  0
  185.3120  177.9120  142.8220 C   0  0  0  0  0  3  0  0  0  0  0  0
  183.8080  178.2930  140.5240 C   0  0  0  0  0  3  0  0  0  0  0  0
  183.9630  178.2670  142.8930 C   0  0  0  0  0  3  0  0  0  0  0  0
  189.6710  176.1740  142.7810 C   0  0  0  0  0  2  0  0  0  0  0  0
  190.2860  175.8220  144.1250 C   0  0  0  0  0  2  0  0  0  0  0  0
  189.2090  175.4620  145.1410 C   0  0  2  0  0  3  0  0  0  0  0  0
  190.3740  177.3030  146.4310 C   0  0  0  0  0  1  0  0  0  0  0  0
  189.0560  176.5820  146.1790 C   0  0  1  0  0  3  0  0  0  0  0  0
  187.8800  177.5450  145.9370 C   0  0  1  0  0  3  0  0  0  0  0  0
  188.0780  178.2060  144.7230 O   0  0  0  0  0  1  0  0  0  0  0  0
  185.2860  177.6570  146.4930 C   0  0  1  0  0  0  0  0  0  0  0  0
  185.7340  179.0100  146.4380 O   0  0  0  0  0  0  0  0  0  0  0  0
  185.1890  178.6190  147.6390 C   0  0  0  0  0  2  0  0  0  0  0  0
  186.5060  176.8500  145.9310 C   0  0  2  0  0  3  0  0  0  0  0  0
  186.0650  176.6250  147.3140 C   0  0  0  0  0  2  0  0  0  0  0  0
  189.5010  174.2380  145.7560 O   0  0  0  0  0  0  0  0  0  0  0  0
  190.7130  173.8280  145.1930 C   0  0  0  0  0  1  0  0  0  0  0  0
  2  5  1  0  0  0  0
  2  4  1  0  0  0  0
  3 19  1  6  0  0  0
  4 12  1  6  0  0  0
  4  3  1  0  0  0  0
  5  7  1  6  0  0  0
  5  6  1  0  0  0  0
  6  1  1  6  0  0  0
  6  3  1  0  0  0  0
  8  7  1  0  0  0  0
  9 11  1  0  0  0  0
  9  8  1  0  0  0  0
 10  9  2  0  0  0  0
 12 13  1  0  0  0  0
 13 16  1  0  0  0  0
 14 17  1  0  0  0  0
 14 13  2  0  0  0  0
 15 18  1  0  0  0  0
 16 18  2  0  0  0  0
 17 15  2  0  0  0  0
 19 20  1  0  0  0  0
 21 20  1  6  0  0  0
 21 31  1  0  0  0  0
 21 23  1  0  0  0  0
 23 22  1  6  0  0  0
 24 25  1  6  0  0  0
 24 23  1  0  0  0  0
 26 30  1  1  0  0  0
 26 28  1  0  0  0  0
 27 26  1  0  0  0  0
 27 28  1  0  0  0  0
 29 24  1  1  0  0  0
 29 26  1  0  0  0  0
 29 30  1  0  0  0  0
 32 31  1  0  0  0  0
M  END
>  <MODEL>
6

>  <REMARK>
 VINA RESULT:      -6.4      3.498      6.598
  Name = 
  12 active torsions:
  status: ('A' for Active; 'I' for Inactive)
    1  A    between atoms: C_1  and  O_10
    2  A    between atoms: C_1  and  C_25
    3  A    between atoms: C_2  and  C_12
    4  A    between atoms: C_2  and  C_21
    5  A    between atoms: C_6  and  O_10
    6  A    between atoms: C_11  and  C_15
    7  A    between atoms: C_11  and  C_18
    8  A    between atoms: C_15  and  O_16
    9  A    between atoms: C_15  and  C_20
   10  A    between atoms: C_18  and  C_19
   11  A    between atoms: C_20  and  C_23
   12  A    between atoms: C_23  and  C_24
                            x       y       z     vdW  Elec       q    Type
                         _______ _______ _______ _____ _____    ______ ____

>  <TORSDO>
F 12

$$$$
=
 OpenBabel11062419083D

 32 35  0  0  1  0  0  0  0  0999 V2000
  187.8990  178.5760  141.9220 O   0  0  0  0  0  1  0  0  0  0  0  0
  186.6720  175.7030  142.2380 O   0  0  0  0  0  0  0  0  0  0  0  0
  188.8380  176.5960  142.7810 C   0  0  1  0  0  3  0  0  0  0  0  0
  188.0470  175.5840  141.9530 C   0  0  1  0  0  3  0  0  0  0  0  0
  186.5110  176.8980  142.9650 C   0  0  1  0  0  3  0  0  0  0  0  0
  187.8230  177.6730  142.9890 C   0  0  2  0  0  3  0  0  0  0  0  0
  185.3350  177.7070  142.4350 C   0  0  0  0  0  2  0  0  0  0  0  0
  184.4170  177.9660  143.4860 O   0  0  0  0  0  0  0  0  0  0  0  0
  184.5960  179.0270  144.3720 C   0  0  0  0  0  0  0  0  0  0  0  0
  185.4180  180.0870  144.0140 O   0  0  0  0  0  0  0  0  0  0  0  0
  184.0180  179.0380  145.4920 O   0  0  0  0  0  1  0  0  0  0  0  0
  188.5210  174.1380  142.0850 C   0  0  0  0  0  2  0  0  0  0  0  0
  188.8790  173.5630  140.7570 C   0  0  0  0  0  0  0  0  0  0  0  0
  189.6370  172.3930  140.6850 C   0  0  0  0  0  3  0  0  0  0  0  0
  189.5350  172.4870  138.3010 N   0  0  0  0  0  0  0  0  0  0  0  0
  188.4500  174.1850  139.5820 C   0  0  0  0  0  3  0  0  0  0  0  0
  189.9600  171.8650  139.4330 C   0  0  0  0  0  3  0  0  0  0  0  0
  188.7930  173.6260  138.3490 C   0  0  0  0  0  3  0  0  0  0  0  0
  189.2680  176.0680  144.1490 C   0  0  0  0  0  2  0  0  0  0  0  0
  189.4790  177.2220  145.1140 C   0  0  0  0  0  2  0  0  0  0  0  0
  188.8190  176.9380  146.4590 C   0  0  2  0  0  3  0  0  0  0  0  0
  189.5190  174.6070  147.1560 C   0  0  0  0  0  1  0  0  0  0  0  0
  189.7500  176.1010  147.3460 C   0  0  1  0  0  3  0  0  0  0  0  0
  191.2390  176.4910  147.2870 C   0  0  1  0  0  3  0  0  0  0  0  0
  191.5820  177.1490  148.4700 O   0  0  0  0  0  1  0  0  0  0  0  0
  193.6160  175.5940  146.5150 C   0  0  1  0  0  0  0  0  0  0  0  0
  193.7940  176.9800  146.8010 O   0  0  0  0  0  0  0  0  0  0  0  0
  194.0900  176.6030  145.5110 C   0  0  0  0  0  2  0  0  0  0  0  0
  192.1810  175.2920  147.0680 C   0  0  2  0  0  3  0  0  0  0  0  0
  192.4500  175.1380  145.6320 C   0  0  0  0  0  2  0  0  0  0  0  0
  187.5850  176.3020  146.2780 O   0  0  0  0  0  0  0  0  0  0  0  0
  186.6480  177.1550  146.8690 C   0  0  0  0  0  1  0  0  0  0  0  0
  2  5  1  0  0  0  0
  3  6  1  0  0  0  0
  3 19  1  1  0  0  0
  4 12  1  1  0  0  0
  4  2  1  0  0  0  0
  4  3  1  0  0  0  0
  5  7  1  6  0  0  0
  5  6  1  0  0  0  0
  6  1  1  6  0  0  0
  7  8  1  0  0  0  0
  8  9  1  0  0  0  0
  9 11  1  0  0  0  0
 10  9  2  0  0  0  0
 13 12  1  0  0  0  0
 14 13  1  0  0  0  0
 15 18  2  0  0  0  0
 15 17  1  0  0  0  0
 16 13  2  0  0  0  0
 17 14  2  0  0  0  0
 18 16  1  0  0  0  0
 19 20  1  0  0  0  0
 21 20  1  6  0  0  0
 21 23  1  0  0  0  0
 23 22  1  6  0  0  0
 24 23  1  0  0  0  0
 24 25  1  1  0  0  0
 26 28  1  1  0  0  0
 26 27  1  0  0  0  0
 26 29  1  0  0  0  0
 28 27  1  0  0  0  0
 29 24  1  6  0  0  0
 30 26  1  0  0  0  0
 30 29  1  0  0  0  0
 31 21  1  0  0  0  0
 31 32  1  0  0  0  0
M  END
>  <MODEL>
7

>  <REMARK>
 VINA RESULT:      -6.3      3.411      5.241
  Name = 
  12 active torsions:
  status: ('A' for Active; 'I' for Inactive)
    1  A    between atoms: C_1  and  O_10
    2  A    between atoms: C_1  and  C_25
    3  A    between atoms: C_2  and  C_12
    4  A    between atoms: C_2  and  C_21
    5  A    between atoms: C_6  and  O_10
    6  A    between atoms: C_11  and  C_15
    7  A    between atoms: C_11  and  C_18
    8  A    between atoms: C_15  and  O_16
    9  A    between atoms: C_15  and  C_20
   10  A    between atoms: C_18  and  C_19
   11  A    between atoms: C_20  and  C_23
   12  A    between atoms: C_23  and  C_24
                            x       y       z     vdW  Elec       q    Type
                         _______ _______ _______ _____ _____    ______ ____

>  <TORSDO>
F 12

$$$$
=
 OpenBabel11062419083D

 32 35  0  0  1  0  0  0  0  0999 V2000
  188.6280  175.0690  147.2340 O   0  0  0  0  0  1  0  0  0  0  0  0
  191.1110  175.6170  145.3920 O   0  0  0  0  0  0  0  0  0  0  0  0
  188.7470  175.8350  145.0120 C   0  0  1  0  0  3  0  0  0  0  0  0
  190.0470  175.1470  144.5960 C   0  0  1  0  0  3  0  0  0  0  0  0
  190.5350  176.3310  146.4590 C   0  0  1  0  0  3  0  0  0  0  0  0
  189.0210  176.1560  146.4460 C   0  0  2  0  0  3  0  0  0  0  0  0
  191.1800  175.9510  147.7850 C   0  0  0  0  0  2  0  0  0  0  0  0
  191.8350  177.0790  148.3430 O   0  0  0  0  0  0  0  0  0  0  0  0
  191.1790  177.9590  149.2030 C   0  0  0  0  0  0  0  0  0  0  0  0
  190.0780  178.6700  148.7450 O   0  0  0  0  0  0  0  0  0  0  0  0
  191.5700  178.1120  150.3910 O   0  0  0  0  0  1  0  0  0  0  0  0
  190.3770  175.2450  143.1090 C   0  0  0  0  0  2  0  0  0  0  0  0
  190.2730  173.9160  142.4440 C   0  0  0  0  0  0  0  0  0  0  0  0
  189.9780  172.7800  143.1990 C   0  0  0  0  0  3  0  0  0  0  0  0
  190.0690  171.4510  141.2160 N   0  0  0  0  0  0  0  0  0  0  0  0
  190.4610  173.8030  141.0640 C   0  0  0  0  0  3  0  0  0  0  0  0
  189.8800  171.5410  142.5590 C   0  0  0  0  0  3  0  0  0  0  0  0
  190.3540  172.5470  140.4610 C   0  0  0  0  0  3  0  0  0  0  0  0
  188.4770  177.1420  144.2670 C   0  0  0  0  0  2  0  0  0  0  0  0
  187.2630  176.9910  143.3670 C   0  0  0  0  0  2  0  0  0  0  0  0
  186.9540  178.2960  142.6420 C   0  0  2  0  0  3  0  0  0  0  0  0
  184.4520  177.9130  142.7240 C   0  0  0  0  0  1  0  0  0  0  0  0
  185.5960  178.8500  143.0930 C   0  0  1  0  0  3  0  0  0  0  0  0
  185.5350  179.3270  144.5550 C   0  0  1  0  0  3  0  0  0  0  0  0
  185.2310  180.6900  144.5760 O   0  0  0  0  0  1  0  0  0  0  0  0
  184.8320  178.3870  146.9370 C   0  0  1  0  0  0  0  0  0  0  0  0
  185.7920  179.4110  147.1880 O   0  0  0  0  0  0  0  0  0  0  0  0
  186.1320  178.1610  147.6500 C   0  0  0  0  0  2  0  0  0  0  0  0
  184.5140  178.5560  145.4120 C   0  0  2  0  0  3  0  0  0  0  0  0
  185.1220  177.3060  145.8900 C   0  0  0  0  0  2  0  0  0  0  0  0
  186.9910  178.1110  141.2540 O   0  0  0  0  0  0  0  0  0  0  0  0
  187.4390  176.7990  141.0750 C   0  0  0  0  0  1  0  0  0  0  0  0
  2  5  1  0  0  0  0
  3 19  1  6  0  0  0
  3  6  1  0  0  0  0
  4 12  1  6  0  0  0
  4  3  1  0  0  0  0
  4  2  1  0  0  0  0
  5  7  1  1  0  0  0
  6  5  1  0  0  0  0
  6  1  1  1  0  0  0
  7  8  1  0  0  0  0
  8  9  1  0  0  0  0
  9 11  1  0  0  0  0
 10  9  2  0  0  0  0
 13 12  1  0  0  0  0
 13 14  1  0  0  0  0
 15 17  1  0  0  0  0
 16 13  2  0  0  0  0
 17 14  2  0  0  0  0
 18 16  1  0  0  0  0
 18 15  2  0  0  0  0
 20 19  1  0  0  0  0
 21 23  1  0  0  0  0
 21 20  1  1  0  0  0
 23 22  1  1  0  0  0
 23 24  1  0  0  0  0
 24 25  1  6  0  0  0
 26 30  1  6  0  0  0
 26 27  1  0  0  0  0
 26 28  1  0  0  0  0
 27 28  1  0  0  0  0
 29 24  1  6  0  0  0
 29 30  1  0  0  0  0
 29 26  1  0  0  0  0
 31 21  1  0  0  0  0
 32 31  1  0  0  0  0
M  END
>  <MODEL>
8

>  <REMARK>
 VINA RESULT:      -6.3      3.568      8.428
  Name = 
  12 active torsions:
  status: ('A' for Active; 'I' for Inactive)
    1  A    between atoms: C_1  and  O_10
    2  A    between atoms: C_1  and  C_25
    3  A    between atoms: C_2  and  C_12
    4  A    between atoms: C_2  and  C_21
    5  A    between atoms: C_6  and  O_10
    6  A    between atoms: C_11  and  C_15
    7  A    between atoms: C_11  and  C_18
    8  A    between atoms: C_15  and  O_16
    9  A    between atoms: C_15  and  C_20
   10  A    between atoms: C_18  and  C_19
   11  A    between atoms: C_20  and  C_23
   12  A    between atoms: C_23  and  C_24
                            x       y       z     vdW  Elec       q    Type
                         _______ _______ _______ _____ _____    ______ ____

>  <TORSDO>
F 12

$$$$
=
 OpenBabel11062419083D

 32 35  0  0  1  0  0  0  0  0999 V2000
  191.2830  174.0590  140.4250 O   0  0  0  0  0  1  0  0  0  0  0  0
  189.5290  172.5670  142.5610 O   0  0  0  0  0  0  0  0  0  0  0  0
  189.7630  174.8970  142.0140 C   0  0  1  0  0  3  0  0  0  0  0  0
  189.9220  173.8160  143.0830 C   0  0  1  0  0  3  0  0  0  0  0  0
  189.4080  172.7300  141.1680 C   0  0  1  0  0  3  0  0  0  0  0  0
  189.9240  174.1050  140.7580 C   0  0  2  0  0  3  0  0  0  0  0  0
  190.0730  171.5830  140.4210 C   0  0  0  0  0  2  0  0  0  0  0  0
  189.7210  171.6330  139.0470 O   0  0  0  0  0  0  0  0  0  0  0  0
  190.3110  170.7920  138.1060 C   0  0  0  0  0  0  0  0  0  0  0  0
  191.6160  170.3600  138.2970 O   0  0  0  0  0  1  0  0  0  0  0  0
  189.6730  170.4140  137.0860 O   0  0  0  0  0  0  0  0  0  0  0  0
  189.2180  174.1130  144.4050 C   0  0  0  0  0  2  0  0  0  0  0  0
  190.1900  174.5480  145.4480 C   0  0  0  0  0  0  0  0  0  0  0  0
  189.7310  174.9440  146.7060 C   0  0  0  0  0  3  0  0  0  0  0  0
  191.9850  175.3440  147.3890 N   0  0  0  0  0  0  0  0  0  0  0  0
  191.5600  174.5520  145.1760 C   0  0  0  0  0  3  0  0  0  0  0  0
  190.6550  175.3450  147.6750 C   0  0  0  0  0  3  0  0  0  0  0  0
  192.4520  174.9590  146.1710 C   0  0  0  0  0  3  0  0  0  0  0  0
  188.3810  175.5500  142.0010 C   0  0  0  0  0  2  0  0  0  0  0  0
  188.5170  177.0630  141.9690 C   0  0  0  0  0  2  0  0  0  0  0  0
  187.2770  177.7350  142.5460 C   0  0  2  0  0  3  0  0  0  0  0  0
  188.7640  177.9090  144.5890 C   0  0  0  0  0  1  0  0  0  0  0  0
  187.3370  177.7430  144.0800 C   0  0  1  0  0  3  0  0  0  0  0  0
  186.3390  178.6890  144.7710 C   0  0  1  0  0  3  0  0  0  0  0  0
  185.9340  179.6670  143.8600 O   0  0  0  0  0  1  0  0  0  0  0  0
  184.9210  177.9700  146.8980 C   0  0  1  0  0  0  0  0  0  0  0  0
  185.7450  179.0520  147.3240 O   0  0  0  0  0  0  0  0  0  0  0  0
  185.9270  177.8700  148.0050 C   0  0  0  0  0  2  0  0  0  0  0  0
  185.1030  177.9690  145.3410 C   0  0  2  0  0  3  0  0  0  0  0  0
  185.5340  176.8000  146.1210 C   0  0  0  0  0  2  0  0  0  0  0  0
  186.1140  177.1020  142.0890 O   0  0  0  0  0  0  0  0  0  0  0  0
  185.6940  177.8620  140.9930 C   0  0  0  0  0  1  0  0  0  0  0  0
  2  4  1  0  0  0  0
  3 19  1  6  0  0  0
  3  4  1  0  0  0  0
  4 12  1  1  0  0  0
  5  7  1  6  0  0  0
  5  2  1  0  0  0  0
  6  1  1  1  0  0  0
  6  5  1  0  0  0  0
  6  3  1  0  0  0  0
  8  7  1  0  0  0  0
  9 10  1  0  0  0  0
  9  8  1  0  0  0  0
 11  9  2  0  0  0  0
 12 13  1  0  0  0  0
 13 14  1  0  0  0  0
 14 17  2  0  0  0  0
 15 17  1  0  0  0  0
 16 13  2  0  0  0  0
 16 18  1  0  0  0  0
 18 15  2  0  0  0  0
 20 19  1  0  0  0  0
 21 20  1  6  0  0  0
 21 23  1  0  0  0  0
 23 22  1  6  0  0  0
 23 24  1  0  0  0  0
 24 25  1  6  0  0  0
 26 30  1  6  0  0  0
 26 27  1  0  0  0  0
 26 28  1  0  0  0  0
 27 28  1  0  0  0  0
 29 24  1  1  0  0  0
 29 30  1  0  0  0  0
 29 26  1  0  0  0  0
 31 21  1  0  0  0  0
 32 31  1  0  0  0  0
M  END
>  <MODEL>
9

>  <REMARK>
 VINA RESULT:      -6.3      3.802      7.801
  Name = 
  12 active torsions:
  status: ('A' for Active; 'I' for Inactive)
    1  A    between atoms: C_1  and  O_10
    2  A    between atoms: C_1  and  C_25
    3  A    between atoms: C_2  and  C_12
    4  A    between atoms: C_2  and  C_21
    5  A    between atoms: C_6  and  O_10
    6  A    between atoms: C_11  and  C_15
    7  A    between atoms: C_11  and  C_18
    8  A    between atoms: C_15  and  O_16
    9  A    between atoms: C_15  and  C_20
   10  A    between atoms: C_18  and  C_19
   11  A    between atoms: C_20  and  C_23
   12  A    between atoms: C_23  and  C_24
                            x       y       z     vdW  Elec       q    Type
                         _______ _______ _______ _____ _____    ______ ____

>  <TORSDO>
F 12

$$$$
