=
 OpenBabel11062421303D

 66 73  0  0  1  0  0  0  0  0999 V2000
  188.9660  173.3360  139.0080 C   0  0  0  0  0  0  0  0  0  0  0  0
  188.2350  173.0110  138.0290 O   0  0  0  0  0  0  0  0  0  0  0  0
  192.0270  170.1670  140.6860 C   0  0  0  0  0  2  0  0  0  0  0  0
  188.7320  174.5620  139.7080 N   0  0  0  0  0  2  0  0  0  0  0  0
  190.5340  170.4790  140.7670 C   0  0  0  0  0  2  0  0  0  0  0  0
  191.3880  173.2790  137.6250 O   0  0  0  0  0  0  0  0  0  0  0  0
  190.0660  172.4860  139.3770 N   0  0  0  0  0  0  0  0  0  0  0  0
  190.2540  171.9770  140.7540 C   0  0  1  0  0  3  0  0  0  0  0  0
  191.8900  171.0370  138.3050 C   0  0  2  0  0  3  0  0  0  0  0  0
  191.1110  172.3220  138.3990 C   0  0  0  0  0  0  0  0  0  0  0  0
  192.7830  170.8780  139.5530 C   0  0  2  0  0  3  0  0  0  0  0  0
  187.7140  175.5160  139.2860 C   0  0  0  0  0  2  0  0  0  0  0  0
  187.0450  176.1570  140.4920 C   0  0  0  0  0  2  0  0  0  0  0  0
  188.0650  176.4840  141.5670 C   0  0  0  0  0  2  0  0  0  0  0  0
  187.2720  178.0880  143.4150 C   0  0  1  0  0  3  0  0  0  0  0  0
  187.8850  177.9290  142.0150 C   0  0  2  0  0  3  0  0  0  0  0  0
  186.4070  178.2370  142.1790 C   0  0  0  0  0  2  0  0  0  0  0  0
  186.9120  176.7830  144.1200 C   0  0  0  0  0  2  0  0  0  0  0  0
  185.3910  176.5800  145.9580 O   0  0  0  0  0  1  0  0  0  0  0  0
  186.6630  177.0310  145.6010 C   0  0  1  0  0  3  0  0  0  0  0  0
  188.9330  177.0200  146.3840 O   0  0  0  0  0  1  0  0  0  0  0  0
  187.7200  176.3340  146.4450 C   0  0  0  0  0  2  0  0  0  0  0  0
  192.6170  170.9210  136.9620 C   0  0  0  0  0  2  0  0  0  0  0  0
  191.5410  170.7090  134.6870 N   0  0  0  0  0  1  0  0  0  0  0  0
  191.7810  170.1680  135.9810 C   0  0  0  0  0  0  0  0  0  0  0  0
  191.2700  169.0640  136.3020 O   0  0  0  0  0  0  0  0  0  0  0  0
  194.1080  170.1610  139.2720 C   0  0  0  0  0  2  0  0  0  0  0  0
  195.3110  170.9580  139.7500 C   0  0  2  0  0  3  0  0  0  0  0  0
  196.4420  170.5360  139.0530 O   0  0  0  0  0  1  0  0  0  0  0  0
  195.5080  170.7090  141.2380 C   0  0  0  0  0  2  0  0  0  0  0  0
  195.0020  171.8770  142.0620 C   0  0  2  0  0  3  0  0  0  0  0  0
  195.1820  173.1630  141.2700 C   0  0  0  0  0  2  0  0  0  0  0  0
  193.8480  173.8580  141.0540 C   0  0  0  0  0  2  0  0  0  0  0  0
  193.9240  174.7370  139.8220 C   0  0  0  0  0  2  0  0  0  0  0  0
  194.8440  174.1510  138.8500 N   0  0  0  0  0  2  0  0  0  0  0  0
  196.3260  175.7790  136.1220 C   0  0  0  0  0  2  0  0  0  0  0  0
  195.5690  175.2010  138.1320 C   0  0  2  0  0  3  0  0  0  0  0  0
  195.2110  175.2340  136.7750 O   0  0  0  0  0  0  0  0  0  0  0  0
  197.5720  175.3710  136.8790 C   0  0  0  0  0  2  0  0  0  0  0  0
  197.0720  175.0310  138.2510 C   0  0  0  0  0  2  0  0  0  0  0  0
  195.8120  171.9350  143.3470 C   0  0  0  0  0  2  0  0  0  0  0  0
  195.0630  171.3170  144.5260 C   0  0  1  0  0  3  0  0  0  0  0  0
  197.3570  170.2300  145.0970 C   0  0  0  0  0  2  0  0  0  0  0  0
  195.3050  168.8980  145.2320 O   0  0  0  0  0  1  0  0  0  0  0  0
  196.6510  170.5520  146.4100 C   0  0  0  0  0  2  0  0  0  0  0  0
  195.8500  170.1820  145.1860 C   0  0  0  0  0  0  0  0  0  0  0  0
  194.6100  172.3900  145.5210 C   0  0  0  0  0  2  0  0  0  0  0  0
  196.3130  173.9890  146.0380 O   0  0  0  0  0  0  0  0  0  0  0  0
  195.2900  173.7240  145.3570 C   0  0  0  0  0  0  0  0  0  0  0  0
  194.8420  174.6630  144.4270 O   0  0  0  0  0  0  0  0  0  0  0  0
  195.6600  176.5240  142.3100 O   0  0  0  0  0  0  0  0  0  0  0  0
  195.4230  177.1610  145.1280 O   0  0  0  0  0  1  0  0  0  0  0  0
  196.9070  176.8310  142.8600 C   0  0  1  0  0  3  0  0  0  0  0  0
  195.7840  176.0170  143.9350 P   0  0  0  0  0  0  0  0  0  0  0  0
  197.4330  175.7560  143.5810 O   0  0  0  0  0  0  0  0  0  0  0  0
  189.1280  172.3290  141.7480 C   0  0  0  0  0  2  0  0  0  0  0  0
  190.5360  173.9870  145.5130 C   0  0  0  0  0  3  0  0  0  0  0  0
  190.7130  174.9270  142.0570 N   0  0  0  0  0  0  0  0  0  0  0  0
  190.7570  174.5980  144.2820 C   0  0  0  0  0  0  0  0  0  0  0  0
  190.3030  174.0800  143.1210 C   0  0  0  0  0  0  0  0  0  0  0  0
  191.4490  176.0200  142.5810 N   0  0  0  0  0  0  0  0  0  0  0  0
  189.3350  172.2340  144.2970 C   0  0  0  0  0  3  0  0  0  0  0  0
  189.8080  172.7810  145.5110 C   0  0  0  0  0  3  0  0  0  0  0  0
  191.4680  175.7800  143.9720 N   0  0  0  0  0  0  0  0  0  0  0  0
  192.0960  176.6690  144.9330 C   0  0  0  0  0  1  0  0  0  0  0  0
  189.5680  172.8950  143.0710 C   0  0  0  0  0  0  0  0  0  0  0  0
  1  7  1  0  0  0  0
  1  4  1  0  0  0  0
  2  1  2  0  0  0  0
  3  5  1  0  0  0  0
  6 10  2  0  0  0  0
  7  8  1  0  0  0  0
  8  5  1  0  0  0  0
  8 56  1  1  0  0  0
  9 23  1  6  0  0  0
  9 10  1  0  0  0  0
  9 11  1  0  0  0  0
 10  7  1  0  0  0  0
 11 27  1  6  0  0  0
 11  3  1  0  0  0  0
 12  4  1  0  0  0  0
 12 13  1  0  0  0  0
 13 14  1  0  0  0  0
 15 18  1  1  0  0  0
 16 14  1  1  0  0  0
 16 17  1  0  0  0  0
 16 15  1  0  0  0  0
 17 15  1  0  0  0  0
 18 20  1  0  0  0  0
 20 19  1  1  0  0  0
 20 22  1  0  0  0  0
 21 22  1  0  0  0  0
 24 25  1  0  0  0  0
 25 26  2  0  0  0  0
 25 23  1  0  0  0  0
 27 28  1  0  0  0  0
 28 29  1  6  0  0  0
 28 30  1  0  0  0  0
 31 30  1  6  0  0  0
 31 41  1  0  0  0  0
 32 31  1  0  0  0  0
 33 32  1  0  0  0  0
 34 33  1  0  0  0  0
 35 34  1  0  0  0  0
 36 38  1  0  0  0  0
 36 39  1  0  0  0  0
 37 40  1  0  0  0  0
 37 35  1  1  0  0  0
 38 37  1  0  0  0  0
 39 40  1  0  0  0  0
 42 41  1  6  0  0  0
 42 46  1  0  0  0  0
 42 47  1  0  0  0  0
 43 46  1  0  0  0  0
 43 45  1  0  0  0  0
 46 44  1  0  0  0  0
 46 45  1  0  0  0  0
 49 47  1  0  0  0  0
 49 48  2  0  0  0  0
 50 49  1  0  0  0  0
 51 54  1  0  0  0  0
 53 51  1  6  0  0  0
 53 55  1  0  0  0  0
 53 54  1  0  0  0  0
 54 50  1  0  0  0  0
 54 52  1  0  0  0  0
 55 54  1  0  0  0  0
 56 66  1  0  0  0  0
 58 61  2  0  0  0  0
 58 60  1  0  0  0  0
 59 57  2  0  0  0  0
 60 59  1  0  0  0  0
 61 64  1  0  0  0  0
 62 63  2  0  0  0  0
 63 57  1  0  0  0  0
 64 59  1  0  0  0  0
 64 65  1  0  0  0  0
 66 60  2  0  0  0  0
 66 62  1  0  0  0  0
M  END
>  <MODEL>
1

>  <REMARK>
 VINA RESULT:      -5.2      0.000      0.000
  Name = 
  27 active torsions:
  status: ('A' for Active; 'I' for Inactive)
    1  A    between atoms: C_2  and  C_19
    2  A    between atoms: C_2  and  C_60
    3  A    between atoms: C_10  and  C_45
    4  A    between atoms: C_10  and  C_51
    5  A    between atoms: C_12  and  C_30
    6  A    between atoms: C_14  and  C_17
    7  A    between atoms: C_14  and  C_46
    8  A    between atoms: C_15  and  C_21
    9  A    between atoms: C_15  and  C_60
   10  A    between atoms: C_17  and  N_64
   11  A    between atoms: C_19  and  O_55
   12  A    between atoms: C_21  and  C_46
   13  A    between atoms: C_21  and  C_65
   14  A    between atoms: N_22  and  C_51
   15  A    between atoms: C_27  and  N_64
   16  A    between atoms: C_29  and  C_53
   17  A    between atoms: C_30  and  C_63
   18  A    between atoms: C_32  and  C_47
   19  A    between atoms: C_32  and  C_62
   20  A    between atoms: C_34  and  C_40
   21  A    between atoms: C_34  and  C_65
   22  A    between atoms: P_38  and  O_55
   23  A    between atoms: C_40  and  C_66
   24  A    between atoms: C_42  and  C_45
   25  A    between atoms: C_49  and  C_53
   26  A    between atoms: C_52  and  C_60
   27  A    between atoms: C_56  and  C_63
                            x       y       z     vdW  Elec       q    Type
                         _______ _______ _______ _____ _____    ______ ____

>  <TORSDO>
F 27

$$$$
=
 OpenBabel11062421303D

 66 73  0  0  1  0  0  0  0  0999 V2000
  194.3560  171.5110  143.8060 C   0  0  0  0  0  0  0  0  0  0  0  0
  193.4880  170.6500  144.1270 O   0  0  0  0  0  0  0  0  0  0  0  0
  192.9300  175.9010  142.8450 C   0  0  0  0  0  2  0  0  0  0  0  0
  195.7060  171.1140  143.5520 N   0  0  0  0  0  2  0  0  0  0  0  0
  192.9840  174.5350  142.1650 C   0  0  0  0  0  2  0  0  0  0  0  0
  194.0640  173.1130  146.0710 O   0  0  0  0  0  0  0  0  0  0  0  0
  193.9820  172.8990  143.7480 N   0  0  0  0  0  0  0  0  0  0  0  0
  194.2260  173.7420  142.5570 C   0  0  1  0  0  3  0  0  0  0  0  0
  192.5320  174.6090  144.9940 C   0  0  2  0  0  3  0  0  0  0  0  0
  193.5550  173.5040  144.9840 C   0  0  0  0  0  0  0  0  0  0  0  0
  193.1370  175.8820  144.3680 C   0  0  2  0  0  3  0  0  0  0  0  0
  196.1590  169.7390  143.7270 C   0  0  0  0  0  2  0  0  0  0  0  0
  197.0340  169.3080  142.5600 C   0  0  0  0  0  2  0  0  0  0  0  0
  196.2380  169.2770  141.2690 C   0  0  0  0  0  2  0  0  0  0  0  0
  196.1100  170.4700  138.9930 C   0  0  1  0  0  3  0  0  0  0  0  0
  196.9750  170.0740  140.2000 C   0  0  2  0  0  3  0  0  0  0  0  0
  197.0370  169.2730  138.9120 C   0  0  0  0  0  2  0  0  0  0  0  0
  194.6660  169.9780  139.0380 C   0  0  0  0  0  2  0  0  0  0  0  0
  194.7170  171.0450  136.8960 O   0  0  0  0  0  1  0  0  0  0  0  0
  193.8620  170.5850  137.8990 C   0  0  1  0  0  3  0  0  0  0  0  0
  192.3380  168.7830  138.3440 O   0  0  0  0  0  1  0  0  0  0  0  0
  192.8880  169.5650  137.3280 C   0  0  0  0  0  2  0  0  0  0  0  0
  191.9210  174.7910  146.3860 C   0  0  0  0  0  2  0  0  0  0  0  0
  189.5330  175.0930  147.1500 N   0  0  0  0  0  1  0  0  0  0  0  0
  190.4890  174.3690  146.3850 C   0  0  0  0  0  0  0  0  0  0  0  0
  190.1280  173.3600  145.7250 O   0  0  0  0  0  0  0  0  0  0  0  0
  192.6100  177.1810  144.9880 C   0  0  0  0  0  2  0  0  0  0  0  0
  191.5190  177.8230  144.1480 C   0  0  2  0  0  3  0  0  0  0  0  0
  191.8800  179.1400  143.8660 O   0  0  0  0  0  1  0  0  0  0  0  0
  190.2170  177.8100  144.9370 C   0  0  0  0  0  2  0  0  0  0  0  0
  189.1210  177.0920  144.1730 C   0  0  2  0  0  3  0  0  0  0  0  0
  189.4700  177.0780  142.6930 C   0  0  0  0  0  2  0  0  0  0  0  0
  188.9770  175.8000  142.0330 C   0  0  0  0  0  2  0  0  0  0  0  0
  189.5530  174.5970  142.7530 C   0  0  0  0  0  2  0  0  0  0  0  0
  188.9960  173.3700  142.1910 N   0  0  0  0  0  2  0  0  0  0  0  0
  189.0770  172.0200  138.9570 C   0  0  0  0  0  2  0  0  0  0  0  0
  189.4640  173.1750  140.8170 C   0  0  2  0  0  3  0  0  0  0  0  0
  188.4300  172.7240  139.9820 O   0  0  0  0  0  0  0  0  0  0  0  0
  190.3310  171.3910  139.5230 C   0  0  0  0  0  2  0  0  0  0  0  0
  190.6250  172.2010  140.7500 C   0  0  0  0  0  2  0  0  0  0  0  0
  187.8190  177.8440  144.3970 C   0  0  0  0  0  2  0  0  0  0  0  0
  186.9380  177.1660  145.4440 C   0  0  1  0  0  3  0  0  0  0  0  0
  185.9420  179.2420  146.6570 C   0  0  0  0  0  2  0  0  0  0  0  0
  187.8650  178.0680  147.6200 O   0  0  0  0  0  1  0  0  0  0  0  0
  185.4420  177.9940  147.3760 C   0  0  0  0  0  2  0  0  0  0  0  0
  186.8000  178.0010  146.7190 C   0  0  0  0  0  0  0  0  0  0  0  0
  185.5870  176.7530  144.8500 C   0  0  0  0  0  2  0  0  0  0  0  0
  186.1780  175.5150  142.8900 O   0  0  0  0  0  0  0  0  0  0  0  0
  185.6000  176.5280  143.3610 C   0  0  0  0  0  0  0  0  0  0  0  0
  184.9410  177.3910  142.4840 O   0  0  0  0  0  0  0  0  0  0  0  0
  186.0560  176.5800  139.8940 O   0  0  0  0  0  0  0  0  0  0  0  0
  184.4180  178.9220  140.3750 O   0  0  0  0  0  1  0  0  0  0  0  0
  186.7840  177.7530  139.6750 C   0  0  1  0  0  3  0  0  0  0  0  0
  185.5790  177.8340  140.9490 P   0  0  0  0  0  0  0  0  0  0  0  0
  187.2120  178.3270  140.8750 O   0  0  0  0  0  0  0  0  0  0  0  0
  194.8080  173.0050  141.3340 C   0  0  0  0  0  2  0  0  0  0  0  0
  197.4840  175.2160  138.7140 C   0  0  0  0  0  3  0  0  0  0  0  0
  194.1060  174.0240  138.5370 N   0  0  0  0  0  0  0  0  0  0  0  0
  196.1750  174.8900  138.3670 C   0  0  0  0  0  0  0  0  0  0  0  0
  195.3500  174.2140  139.1950 C   0  0  0  0  0  0  0  0  0  0  0  0
  194.1590  174.6120  137.2470 N   0  0  0  0  0  0  0  0  0  0  0  0
  197.0720  174.0980  140.8530 C   0  0  0  0  0  3  0  0  0  0  0  0
  197.9320  174.8090  139.9850 C   0  0  0  0  0  3  0  0  0  0  0  0
  195.4690  175.1350  137.1670 N   0  0  0  0  0  0  0  0  0  0  0  0
  195.9750  175.8620  136.0170 C   0  0  0  0  0  1  0  0  0  0  0  0
  195.7460  173.8010  140.4670 C   0  0  0  0  0  0  0  0  0  0  0  0
  1  2  2  0  0  0  0
  3 11  1  0  0  0  0
  4 12  1  0  0  0  0
  4  1  1  0  0  0  0
  5  8  1  0  0  0  0
  5  3  1  0  0  0  0
  7  1  1  0  0  0  0
  7 10  1  0  0  0  0
  8 56  1  6  0  0  0
  8  7  1  0  0  0  0
  9 23  1  1  0  0  0
 10  9  1  0  0  0  0
 10  6  2  0  0  0  0
 11 27  1  1  0  0  0
 11  9  1  0  0  0  0
 13 12  1  0  0  0  0
 14 13  1  0  0  0  0
 15 18  1  1  0  0  0
 15 16  1  0  0  0  0
 16 14  1  1  0  0  0
 17 15  1  0  0  0  0
 17 16  1  0  0  0  0
 20 19  1  6  0  0  0
 20 18  1  0  0  0  0
 22 20  1  0  0  0  0
 22 21  1  0  0  0  0
 25 23  1  0  0  0  0
 25 24  1  0  0  0  0
 26 25  2  0  0  0  0
 28 29  1  1  0  0  0
 28 30  1  0  0  0  0
 28 27  1  0  0  0  0
 31 32  1  6  0  0  0
 31 41  1  0  0  0  0
 31 30  1  0  0  0  0
 33 32  1  0  0  0  0
 33 34  1  0  0  0  0
 35 34  1  0  0  0  0
 36 39  1  0  0  0  0
 36 38  1  0  0  0  0
 37 35  1  1  0  0  0
 38 37  1  0  0  0  0
 39 40  1  0  0  0  0
 40 37  1  0  0  0  0
 42 41  1  6  0  0  0
 42 46  1  0  0  0  0
 43 46  1  0  0  0  0
 43 45  1  0  0  0  0
 46 45  1  0  0  0  0
 46 44  1  0  0  0  0
 47 42  1  0  0  0  0
 48 49  2  0  0  0  0
 49 47  1  0  0  0  0
 50 49  1  0  0  0  0
 51 54  1  0  0  0  0
 52 54  1  0  0  0  0
 53 51  1  1  0  0  0
 53 55  1  0  0  0  0
 53 54  1  0  0  0  0
 54 50  1  0  0  0  0
 55 54  1  0  0  0  0
 57 63  1  0  0  0  0
 58 60  1  0  0  0  0
 59 57  2  0  0  0  0
 59 60  1  0  0  0  0
 60 66  2  0  0  0  0
 61 58  2  0  0  0  0
 63 62  2  0  0  0  0
 64 61  1  0  0  0  0
 64 59  1  0  0  0  0
 65 64  1  0  0  0  0
 66 62  1  0  0  0  0
 66 56  1  0  0  0  0
M  END
>  <MODEL>
2

>  <REMARK>
 VINA RESULT:      -5.2      2.712      9.738
  Name = 
  27 active torsions:
  status: ('A' for Active; 'I' for Inactive)
    1  A    between atoms: C_2  and  C_19
    2  A    between atoms: C_2  and  C_60
    3  A    between atoms: C_10  and  C_45
    4  A    between atoms: C_10  and  C_51
    5  A    between atoms: C_12  and  C_30
    6  A    between atoms: C_14  and  C_17
    7  A    between atoms: C_14  and  C_46
    8  A    between atoms: C_15  and  C_21
    9  A    between atoms: C_15  and  C_60
   10  A    between atoms: C_17  and  N_64
   11  A    between atoms: C_19  and  O_55
   12  A    between atoms: C_21  and  C_46
   13  A    between atoms: C_21  and  C_65
   14  A    between atoms: N_22  and  C_51
   15  A    between atoms: C_27  and  N_64
   16  A    between atoms: C_29  and  C_53
   17  A    between atoms: C_30  and  C_63
   18  A    between atoms: C_32  and  C_47
   19  A    between atoms: C_32  and  C_62
   20  A    between atoms: C_34  and  C_40
   21  A    between atoms: C_34  and  C_65
   22  A    between atoms: P_38  and  O_55
   23  A    between atoms: C_40  and  C_66
   24  A    between atoms: C_42  and  C_45
   25  A    between atoms: C_49  and  C_53
   26  A    between atoms: C_52  and  C_60
   27  A    between atoms: C_56  and  C_63
                            x       y       z     vdW  Elec       q    Type
                         _______ _______ _______ _____ _____    ______ ____

>  <TORSDO>
F 27

$$$$
=
 OpenBabel11062421303D

 66 73  0  0  1  0  0  0  0  0999 V2000
  188.6980  176.7570  146.2310 C   0  0  0  0  0  0  0  0  0  0  0  0
  189.0150  177.6330  147.0840 O   0  0  0  0  0  0  0  0  0  0  0  0
  191.7810  175.7080  142.8210 C   0  0  0  0  0  2  0  0  0  0  0  0
  187.3640  176.2410  146.1880 N   0  0  0  0  0  2  0  0  0  0  0  0
  190.7590  176.7930  143.1530 C   0  0  0  0  0  2  0  0  0  0  0  0
  190.6080  174.8700  146.9900 O   0  0  0  0  0  0  0  0  0  0  0  0
  189.7040  176.2480  145.3370 N   0  0  0  0  0  0  0  0  0  0  0  0
  189.5330  176.2350  143.8670 C   0  0  1  0  0  3  0  0  0  0  0  0
  192.1790  175.5760  145.3250 C   0  0  2  0  0  3  0  0  0  0  0  0
  190.8060  175.5420  145.9410 C   0  0  0  0  0  0  0  0  0  0  0  0
  192.1700  174.7960  143.9940 C   0  0  2  0  0  3  0  0  0  0  0  0
  186.3490  176.6300  147.1590 C   0  0  0  0  0  2  0  0  0  0  0  0
  185.0160  176.8830  146.4700 C   0  0  0  0  0  2  0  0  0  0  0  0
  185.2240  177.4150  145.0650 C   0  0  0  0  0  2  0  0  0  0  0  0
  184.0400  179.2100  143.6530 C   0  0  1  0  0  3  0  0  0  0  0  0
  184.7160  178.8490  144.9850 C   0  0  2  0  0  3  0  0  0  0  0  0
  185.4790  179.6070  143.9130 C   0  0  0  0  0  2  0  0  0  0  0  0
  184.0120  178.0930  142.6140 C   0  0  0  0  0  2  0  0  0  0  0  0
  183.7310  177.9150  140.2430 O   0  0  0  0  0  1  0  0  0  0  0  0
  183.2210  178.5270  141.3890 C   0  0  1  0  0  3  0  0  0  0  0  0
  180.9570  179.3270  141.4560 O   0  0  0  0  0  1  0  0  0  0  0  0
  181.7480  178.1820  141.5530 C   0  0  0  0  0  2  0  0  0  0  0  0
  193.2520  175.1460  146.3290 C   0  0  0  0  0  2  0  0  0  0  0  0
  194.3750  177.3800  146.6850 N   0  0  0  0  0  1  0  0  0  0  0  0
  194.4470  176.0350  146.2270 C   0  0  0  0  0  0  0  0  0  0  0  0
  195.5130  175.6040  145.7160 O   0  0  0  0  0  0  0  0  0  0  0  0
  193.4940  174.0840  143.6920 C   0  0  0  0  0  2  0  0  0  0  0  0
  193.3810  173.1210  142.5220 C   0  0  2  0  0  3  0  0  0  0  0  0
  193.0210  171.8630  143.0040 O   0  0  0  0  0  1  0  0  0  0  0  0
  194.7300  173.0320  141.8230 C   0  0  0  0  0  2  0  0  0  0  0  0
  195.3450  171.6560  141.9940 C   0  0  2  0  0  3  0  0  0  0  0  0
  196.6160  171.7760  142.8210 C   0  0  0  0  0  2  0  0  0  0  0  0
  196.4610  172.8310  143.9040 C   0  0  0  0  0  2  0  0  0  0  0  0
  196.5600  172.1800  145.2690 C   0  0  0  0  0  2  0  0  0  0  0  0
  195.3140  171.4820  145.5770 N   0  0  0  0  0  2  0  0  0  0  0  0
  197.2410  168.7340  146.5870 C   0  0  0  0  0  2  0  0  0  0  0  0
  195.5910  170.1360  146.0830 C   0  0  2  0  0  3  0  0  0  0  0  0
  196.8450  170.0730  146.7110 O   0  0  0  0  0  0  0  0  0  0  0  0
  196.6740  168.1830  145.2960 C   0  0  0  0  0  2  0  0  0  0  0  0
  195.5270  169.0950  144.9820 C   0  0  0  0  0  2  0  0  0  0  0  0
  195.6680  171.1090  140.6130 C   0  0  0  0  0  2  0  0  0  0  0  0
  195.1290  172.0050  139.5000 C   0  0  1  0  0  3  0  0  0  0  0  0
  197.6200  172.7450  139.3410 C   0  0  0  0  0  2  0  0  0  0  0  0
  195.9450  173.7600  137.8690 O   0  0  0  0  0  1  0  0  0  0  0  0
  197.3400  171.7890  138.1870 C   0  0  0  0  0  2  0  0  0  0  0  0
  196.2480  172.6890  138.7110 C   0  0  0  0  0  0  0  0  0  0  0  0
  194.1410  171.2480  138.6060 C   0  0  0  0  0  2  0  0  0  0  0  0
  195.2290  169.1170  138.6290 O   0  0  0  0  0  0  0  0  0  0  0  0
  194.1540  169.7530  138.7830 C   0  0  0  0  0  0  0  0  0  0  0  0
  193.0100  169.0510  139.1660 O   0  0  0  0  0  0  0  0  0  0  0  0
  190.1530  168.5820  138.6900 O   0  0  0  0  0  0  0  0  0  0  0  0
  191.2720  170.6730  140.3560 O   0  0  0  0  0  1  0  0  0  0  0  0
  189.8850  169.8450  138.1550 C   0  0  1  0  0  3  0  0  0  0  0  0
  191.4200  169.6850  138.9910 P   0  0  0  0  0  0  0  0  0  0  0  0
  190.9940  170.3680  137.4860 O   0  0  0  0  0  0  0  0  0  0  0  0
  188.2470  176.9080  143.3460 C   0  0  0  0  0  2  0  0  0  0  0  0
  187.3500  176.0370  139.1810 C   0  0  0  0  0  3  0  0  0  0  0  0
  188.7710  174.2420  141.9410 N   0  0  0  0  0  0  0  0  0  0  0  0
  187.9170  175.1070  140.0490 C   0  0  0  0  0  0  0  0  0  0  0  0
  188.1780  175.3860  141.3430 C   0  0  0  0  0  0  0  0  0  0  0  0
  188.8780  173.2070  140.9770 N   0  0  0  0  0  0  0  0  0  0  0  0
  187.3270  177.6050  141.0610 C   0  0  0  0  0  3  0  0  0  0  0  0
  187.0510  177.3090  139.7070 C   0  0  0  0  0  3  0  0  0  0  0  0
  188.3450  173.7830  139.8020 N   0  0  0  0  0  0  0  0  0  0  0  0
  188.2230  173.0710  138.5430 C   0  0  0  0  0  1  0  0  0  0  0  0
  187.8890  176.6270  141.9120 C   0  0  0  0  0  0  0  0  0  0  0  0
  1  2  2  0  0  0  0
  3  5  1  0  0  0  0
  3 11  1  0  0  0  0
  4  1  1  0  0  0  0
  4 12  1  0  0  0  0
  5  8  1  0  0  0  0
  7 10  1  0  0  0  0
  7  1  1  0  0  0  0
  8 56  1  1  0  0  0
  8  7  1  0  0  0  0
  9 10  1  0  0  0  0
  9 23  1  1  0  0  0
 10  6  2  0  0  0  0
 11 27  1  6  0  0  0
 11  9  1  0  0  0  0
 13 12  1  0  0  0  0
 14 13  1  0  0  0  0
 15 18  1  6  0  0  0
 15 17  1  0  0  0  0
 15 16  1  0  0  0  0
 16 14  1  6  0  0  0
 17 16  1  0  0  0  0
 20 19  1  6  0  0  0
 20 22  1  0  0  0  0
 20 18  1  0  0  0  0
 21 22  1  0  0  0  0
 25 23  1  0  0  0  0
 25 24  1  0  0  0  0
 26 25  2  0  0  0  0
 28 29  1  1  0  0  0
 28 27  1  0  0  0  0
 30 31  1  0  0  0  0
 30 28  1  0  0  0  0
 31 41  1  6  0  0  0
 31 32  1  0  0  0  0
 32 33  1  0  0  0  0
 33 34  1  0  0  0  0
 34 35  1  0  0  0  0
 36 38  1  0  0  0  0
 37 35  1  6  0  0  0
 37 38  1  0  0  0  0
 39 36  1  0  0  0  0
 40 39  1  0  0  0  0
 40 37  1  0  0  0  0
 42 47  1  6  0  0  0
 42 41  1  0  0  0  0
 44 46  1  0  0  0  0
 45 46  1  0  0  0  0
 45 43  1  0  0  0  0
 46 43  1  0  0  0  0
 46 42  1  0  0  0  0
 47 49  1  0  0  0  0
 48 49  2  0  0  0  0
 49 50  1  0  0  0  0
 51 54  1  0  0  0  0
 53 55  1  6  0  0  0
 53 51  1  0  0  0  0
 53 54  1  0  0  0  0
 54 50  1  0  0  0  0
 54 52  1  0  0  0  0
 55 54  1  0  0  0  0
 57 63  2  0  0  0  0
 57 59  1  0  0  0  0
 59 60  2  0  0  0  0
 60 66  1  0  0  0  0
 60 58  1  0  0  0  0
 61 58  2  0  0  0  0
 62 66  2  0  0  0  0
 63 62  1  0  0  0  0
 64 59  1  0  0  0  0
 64 61  1  0  0  0  0
 65 64  1  0  0  0  0
 66 56  1  0  0  0  0
M  END
>  <MODEL>
3

>  <REMARK>
 VINA RESULT:      -5.1      2.751      7.594
  Name = 
  27 active torsions:
  status: ('A' for Active; 'I' for Inactive)
    1  A    between atoms: C_2  and  C_19
    2  A    between atoms: C_2  and  C_60
    3  A    between atoms: C_10  and  C_45
    4  A    between atoms: C_10  and  C_51
    5  A    between atoms: C_12  and  C_30
    6  A    between atoms: C_14  and  C_17
    7  A    between atoms: C_14  and  C_46
    8  A    between atoms: C_15  and  C_21
    9  A    between atoms: C_15  and  C_60
   10  A    between atoms: C_17  and  N_64
   11  A    between atoms: C_19  and  O_55
   12  A    between atoms: C_21  and  C_46
   13  A    between atoms: C_21  and  C_65
   14  A    between atoms: N_22  and  C_51
   15  A    between atoms: C_27  and  N_64
   16  A    between atoms: C_29  and  C_53
   17  A    between atoms: C_30  and  C_63
   18  A    between atoms: C_32  and  C_47
   19  A    between atoms: C_32  and  C_62
   20  A    between atoms: C_34  and  C_40
   21  A    between atoms: C_34  and  C_65
   22  A    between atoms: P_38  and  O_55
   23  A    between atoms: C_40  and  C_66
   24  A    between atoms: C_42  and  C_45
   25  A    between atoms: C_49  and  C_53
   26  A    between atoms: C_52  and  C_60
   27  A    between atoms: C_56  and  C_63
                            x       y       z     vdW  Elec       q    Type
                         _______ _______ _______ _____ _____    ______ ____

>  <TORSDO>
F 27

$$$$
=
 OpenBabel11062421303D

 66 73  0  0  1  0  0  0  0  0999 V2000
  188.7010  176.9280  146.0380 C   0  0  0  0  0  0  0  0  0  0  0  0
  189.0320  177.8520  146.8350 O   0  0  0  0  0  0  0  0  0  0  0  0
  191.5860  175.8990  142.4530 C   0  0  0  0  0  2  0  0  0  0  0  0
  187.3950  176.3480  146.1090 N   0  0  0  0  0  2  0  0  0  0  0  0
  190.5360  176.9460  142.8200 C   0  0  0  0  0  2  0  0  0  0  0  0
  190.7520  175.1670  146.7230 O   0  0  0  0  0  0  0  0  0  0  0  0
  189.6660  176.4340  145.0920 N   0  0  0  0  0  0  0  0  0  0  0  0
  189.3930  176.3570  143.6400 C   0  0  1  0  0  3  0  0  0  0  0  0
  192.1650  175.8820  144.9250 C   0  0  2  0  0  3  0  0  0  0  0  0
  190.8420  175.8060  145.6400 C   0  0  0  0  0  0  0  0  0  0  0  0
  192.1020  175.0520  143.6270 C   0  0  2  0  0  3  0  0  0  0  0  0
  186.4320  176.7250  147.1360 C   0  0  0  0  0  2  0  0  0  0  0  0
  185.0950  177.0910  146.5100 C   0  0  0  0  0  2  0  0  0  0  0  0
  185.2790  177.5810  145.0870 C   0  0  0  0  0  2  0  0  0  0  0  0
  184.0490  179.3770  143.7150 C   0  0  1  0  0  3  0  0  0  0  0  0
  184.8370  179.0360  144.9890 C   0  0  2  0  0  3  0  0  0  0  0  0
  185.5250  179.7060  143.8140 C   0  0  0  0  0  2  0  0  0  0  0  0
  183.8620  178.2210  142.7360 C   0  0  0  0  0  2  0  0  0  0  0  0
  183.6690  178.3330  140.3530 O   0  0  0  0  0  1  0  0  0  0  0  0
  183.0240  178.6630  141.5460 C   0  0  1  0  0  3  0  0  0  0  0  0
  180.7230  178.7680  140.8660 O   0  0  0  0  0  1  0  0  0  0  0  0
  181.6480  178.0160  141.5910 C   0  0  0  0  0  2  0  0  0  0  0  0
  193.3260  175.5430  145.8640 C   0  0  0  0  0  2  0  0  0  0  0  0
  194.5490  177.4450  146.9890 N   0  0  0  0  0  1  0  0  0  0  0  0
  194.3490  176.6300  145.8400 C   0  0  0  0  0  0  0  0  0  0  0  0
  195.0230  176.8410  144.7980 O   0  0  0  0  0  0  0  0  0  0  0  0
  193.4360  174.3940  143.2550 C   0  0  0  0  0  2  0  0  0  0  0  0
  193.3140  173.4780  142.0480 C   0  0  2  0  0  3  0  0  0  0  0  0
  193.1450  172.1660  142.4890 O   0  0  0  0  0  1  0  0  0  0  0  0
  194.5890  173.5770  141.2230 C   0  0  0  0  0  2  0  0  0  0  0  0
  195.2600  172.2230  141.0870 C   0  0  2  0  0  3  0  0  0  0  0  0
  196.6950  172.3230  141.5800 C   0  0  0  0  0  2  0  0  0  0  0  0
  196.9190  173.6240  142.3330 C   0  0  0  0  0  2  0  0  0  0  0  0
  197.9090  173.3990  143.4590 C   0  0  0  0  0  2  0  0  0  0  0  0
  197.9410  171.9830  143.8140 N   0  0  0  0  0  2  0  0  0  0  0  0
  194.8610  171.6240  145.4500 C   0  0  0  0  0  2  0  0  0  0  0  0
  197.0190  171.7100  144.9180 C   0  0  2  0  0  3  0  0  0  0  0  0
  195.7740  171.2640  144.4480 O   0  0  0  0  0  0  0  0  0  0  0  0
  195.3500  172.8950  146.1100 C   0  0  0  0  0  2  0  0  0  0  0  0
  196.8160  172.9280  145.7990 C   0  0  0  0  0  2  0  0  0  0  0  0
  195.2360  171.8310  139.6180 C   0  0  0  0  0  2  0  0  0  0  0  0
  195.0610  173.0410  138.7030 C   0  0  1  0  0  3  0  0  0  0  0  0
  197.0570  172.7080  137.0660 C   0  0  0  0  0  2  0  0  0  0  0  0
  197.2710  174.2490  138.9580 O   0  0  0  0  0  1  0  0  0  0  0  0
  196.3690  174.0210  136.7070 C   0  0  0  0  0  2  0  0  0  0  0  0
  196.3930  173.5400  138.1370 C   0  0  0  0  0  0  0  0  0  0  0  0
  194.0130  172.7710  137.6190 C   0  0  0  0  0  2  0  0  0  0  0  0
  192.8610  174.7690  138.2570 O   0  0  0  0  0  0  0  0  0  0  0  0
  192.7870  173.6420  137.7030 C   0  0  0  0  0  0  0  0  0  0  0  0
  191.5730  173.2540  137.1340 O   0  0  0  0  0  0  0  0  0  0  0  0
  189.8340  171.0830  136.2010 O   0  0  0  0  0  0  0  0  0  0  0  0
  192.0770  172.2010  134.7460 O   0  0  0  0  0  1  0  0  0  0  0  0
  190.8520  170.1370  136.0460 C   0  0  1  0  0  3  0  0  0  0  0  0
  191.3820  171.7990  136.2350 P   0  0  0  0  0  0  0  0  0  0  0  0
  191.8880  170.3390  136.9610 O   0  0  0  0  0  0  0  0  0  0  0  0
  188.0410  176.9470  143.1890 C   0  0  0  0  0  2  0  0  0  0  0  0
  187.0670  176.1710  139.0230 C   0  0  0  0  0  3  0  0  0  0  0  0
  188.6560  174.3590  141.6780 N   0  0  0  0  0  0  0  0  0  0  0  0
  187.7050  175.2430  139.8420 C   0  0  0  0  0  0  0  0  0  0  0  0
  187.9890  175.4910  141.1380 C   0  0  0  0  0  0  0  0  0  0  0  0
  188.7850  173.3640  140.6770 N   0  0  0  0  0  0  0  0  0  0  0  0
  187.0210  177.6720  140.9570 C   0  0  0  0  0  3  0  0  0  0  0  0
  186.7200  177.4080  139.6010 C   0  0  0  0  0  3  0  0  0  0  0  0
  188.1900  173.9510  139.5380 N   0  0  0  0  0  0  0  0  0  0  0  0
  188.0660  173.2770  138.2580 C   0  0  0  0  0  1  0  0  0  0  0  0
  187.6560  176.6960  141.7570 C   0  0  0  0  0  0  0  0  0  0  0  0
  1  4  1  0  0  0  0
  1  2  2  0  0  0  0
  3  5  1  0  0  0  0
  3 11  1  0  0  0  0
  4 12  1  0  0  0  0
  5  8  1  0  0  0  0
  7 10  1  0  0  0  0
  7  1  1  0  0  0  0
  8 56  1  1  0  0  0
  8  7  1  0  0  0  0
  9 10  1  0  0  0  0
  9 23  1  1  0  0  0
 10  6  2  0  0  0  0
 11 27  1  6  0  0  0
 11  9  1  0  0  0  0
 13 12  1  0  0  0  0
 14 13  1  0  0  0  0
 15 18  1  6  0  0  0
 15 17  1  0  0  0  0
 15 16  1  0  0  0  0
 16 14  1  6  0  0  0
 17 16  1  0  0  0  0
 20 19  1  6  0  0  0
 20 22  1  0  0  0  0
 20 18  1  0  0  0  0
 21 22  1  0  0  0  0
 25 23  1  0  0  0  0
 25 24  1  0  0  0  0
 26 25  2  0  0  0  0
 28 29  1  1  0  0  0
 28 27  1  0  0  0  0
 30 28  1  0  0  0  0
 31 41  1  6  0  0  0
 31 30  1  0  0  0  0
 31 32  1  0  0  0  0
 32 33  1  0  0  0  0
 33 34  1  0  0  0  0
 34 35  1  0  0  0  0
 36 39  1  0  0  0  0
 37 35  1  6  0  0  0
 37 40  1  0  0  0  0
 38 37  1  0  0  0  0
 38 36  1  0  0  0  0
 40 39  1  0  0  0  0
 42 47  1  6  0  0  0
 42 41  1  0  0  0  0
 43 46  1  0  0  0  0
 45 43  1  0  0  0  0
 45 46  1  0  0  0  0
 46 42  1  0  0  0  0
 46 44  1  0  0  0  0
 47 49  1  0  0  0  0
 49 48  2  0  0  0  0
 50 49  1  0  0  0  0
 51 54  1  0  0  0  0
 52 54  1  0  0  0  0
 53 51  1  1  0  0  0
 53 54  1  0  0  0  0
 53 55  1  0  0  0  0
 54 55  1  0  0  0  0
 54 50  1  0  0  0  0
 57 63  2  0  0  0  0
 57 59  1  0  0  0  0
 59 60  2  0  0  0  0
 60 58  1  0  0  0  0
 60 66  1  0  0  0  0
 61 58  2  0  0  0  0
 62 66  2  0  0  0  0
 63 62  1  0  0  0  0
 64 59  1  0  0  0  0
 64 61  1  0  0  0  0
 65 64  1  0  0  0  0
 66 56  1  0  0  0  0
M  END
>  <MODEL>
4

>  <REMARK>
 VINA RESULT:      -5.0      2.803      7.575
  Name = 
  27 active torsions:
  status: ('A' for Active; 'I' for Inactive)
    1  A    between atoms: C_2  and  C_19
    2  A    between atoms: C_2  and  C_60
    3  A    between atoms: C_10  and  C_45
    4  A    between atoms: C_10  and  C_51
    5  A    between atoms: C_12  and  C_30
    6  A    between atoms: C_14  and  C_17
    7  A    between atoms: C_14  and  C_46
    8  A    between atoms: C_15  and  C_21
    9  A    between atoms: C_15  and  C_60
   10  A    between atoms: C_17  and  N_64
   11  A    between atoms: C_19  and  O_55
   12  A    between atoms: C_21  and  C_46
   13  A    between atoms: C_21  and  C_65
   14  A    between atoms: N_22  and  C_51
   15  A    between atoms: C_27  and  N_64
   16  A    between atoms: C_29  and  C_53
   17  A    between atoms: C_30  and  C_63
   18  A    between atoms: C_32  and  C_47
   19  A    between atoms: C_32  and  C_62
   20  A    between atoms: C_34  and  C_40
   21  A    between atoms: C_34  and  C_65
   22  A    between atoms: P_38  and  O_55
   23  A    between atoms: C_40  and  C_66
   24  A    between atoms: C_42  and  C_45
   25  A    between atoms: C_49  and  C_53
   26  A    between atoms: C_52  and  C_60
   27  A    between atoms: C_56  and  C_63
                            x       y       z     vdW  Elec       q    Type
                         _______ _______ _______ _____ _____    ______ ____

>  <TORSDO>
F 27

$$$$
=
 OpenBabel11062421303D

 66 73  0  0  1  0  0  0  0  0999 V2000
  190.8720  172.5780  138.7980 C   0  0  0  0  0  0  0  0  0  0  0  0
  190.5790  173.3600  137.8490 O   0  0  0  0  0  0  0  0  0  0  0  0
  191.3890  174.3790  143.1250 C   0  0  0  0  0  2  0  0  0  0  0  0
  191.2280  171.2190  138.5290 N   0  0  0  0  0  2  0  0  0  0  0  0
  192.1820  174.2630  141.8250 C   0  0  0  0  0  2  0  0  0  0  0  0
  188.4690  172.8550  140.1890 O   0  0  0  0  0  0  0  0  0  0  0  0
  190.7950  173.0560  140.1530 N   0  0  0  0  0  0  0  0  0  0  0  0
  191.9230  172.9450  141.1040 C   0  0  1  0  0  3  0  0  0  0  0  0
  189.3370  174.5530  141.6400 C   0  0  2  0  0  3  0  0  0  0  0  0
  189.4920  173.4530  140.6230 C   0  0  0  0  0  0  0  0  0  0  0  0
  189.8860  174.0810  143.0020 C   0  0  2  0  0  3  0  0  0  0  0  0
  191.1910  170.6570  137.1850 C   0  0  0  0  0  2  0  0  0  0  0  0
  192.3010  171.2430  136.3270 C   0  0  0  0  0  2  0  0  0  0  0  0
  193.4380  170.2530  136.1590 C   0  0  0  0  0  2  0  0  0  0  0  0
  195.4240  170.7240  137.7250 C   0  0  1  0  0  3  0  0  0  0  0  0
  194.0890  169.9940  137.5120 C   0  0  2  0  0  3  0  0  0  0  0  0
  195.4070  169.2640  137.3180 C   0  0  0  0  0  2  0  0  0  0  0  0
  195.9020  171.5640  136.5440 C   0  0  0  0  0  2  0  0  0  0  0  0
  197.8730  171.3010  135.2110 O   0  0  0  0  0  1  0  0  0  0  0  0
  197.4230  171.5990  136.4980 C   0  0  1  0  0  3  0  0  0  0  0  0
  197.1270  173.5090  137.9240 O   0  0  0  0  0  1  0  0  0  0  0  0
  197.9400  172.9630  136.9300 C   0  0  0  0  0  2  0  0  0  0  0  0
  187.9050  175.0940  141.6640 C   0  0  0  0  0  2  0  0  0  0  0  0
  188.8320  177.4430  141.6560 N   0  0  0  0  0  1  0  0  0  0  0  0
  187.8730  176.5060  141.1800 C   0  0  0  0  0  0  0  0  0  0  0  0
  186.9880  176.8750  140.3660 O   0  0  0  0  0  0  0  0  0  0  0  0
  189.1330  174.6660  144.2030 C   0  0  0  0  0  2  0  0  0  0  0  0
  189.6680  174.1520  145.5290 C   0  0  2  0  0  3  0  0  0  0  0  0
  189.4770  172.7720  145.5910 O   0  0  0  0  0  1  0  0  0  0  0  0
  188.9060  174.8230  146.6620 C   0  0  0  0  0  2  0  0  0  0  0  0
  188.4210  176.2010  146.2550 C   0  0  2  0  0  3  0  0  0  0  0  0
  189.3640  177.2510  146.8230 C   0  0  0  0  0  2  0  0  0  0  0  0
  190.8140  176.8740  146.5660 C   0  0  0  0  0  2  0  0  0  0  0  0
  191.5970  176.9430  147.8620 C   0  0  0  0  0  2  0  0  0  0  0  0
  193.0180  176.7330  147.5930 N   0  0  0  0  0  2  0  0  0  0  0  0
  194.1990  174.7320  144.9690 C   0  0  0  0  0  2  0  0  0  0  0  0
  193.2200  176.2950  146.2100 C   0  0  2  0  0  3  0  0  0  0  0  0
  193.4490  174.9120  146.1400 O   0  0  0  0  0  0  0  0  0  0  0  0
  195.0570  175.9600  144.7550 C   0  0  0  0  0  2  0  0  0  0  0  0
  194.3690  177.0300  145.5480 C   0  0  0  0  0  2  0  0  0  0  0  0
  187.0210  176.3950  146.8160 C   0  0  0  0  0  2  0  0  0  0  0  0
  186.1250  177.1810  145.8630 C   0  0  1  0  0  3  0  0  0  0  0  0
  185.0900  178.2660  147.9900 C   0  0  0  0  0  2  0  0  0  0  0  0
  184.6760  179.2550  145.7870 O   0  0  0  0  0  1  0  0  0  0  0  0
  186.3090  179.0900  147.5880 C   0  0  0  0  0  2  0  0  0  0  0  0
  185.4790  178.3950  146.5370 C   0  0  0  0  0  0  0  0  0  0  0  0
  186.8660  177.5370  144.5700 C   0  0  0  0  0  2  0  0  0  0  0  0
  186.3270  179.2230  142.9600 O   0  0  0  0  0  0  0  0  0  0  0  0
  185.9970  178.1320  143.4930 C   0  0  0  0  0  0  0  0  0  0  0  0
  184.8540  177.4790  143.0300 O   0  0  0  0  0  0  0  0  0  0  0  0
  182.5770  177.2760  141.1910 O   0  0  0  0  0  0  0  0  0  0  0  0
  182.9610  179.3380  143.1910 O   0  0  0  0  0  1  0  0  0  0  0  0
  182.7610  178.5250  140.5930 C   0  0  1  0  0  3  0  0  0  0  0  0
  183.6480  178.2600  142.0840 P   0  0  0  0  0  0  0  0  0  0  0  0
  184.1080  178.8920  140.5660 O   0  0  0  0  0  0  0  0  0  0  0  0
  193.2320  172.3820  140.5130 C   0  0  0  0  0  2  0  0  0  0  0  0
  196.7100  172.8610  143.0780 C   0  0  0  0  0  3  0  0  0  0  0  0
  193.9610  170.5690  142.8660 N   0  0  0  0  0  0  0  0  0  0  0  0
  195.7820  171.8340  143.2360 C   0  0  0  0  0  0  0  0  0  0  0  0
  194.7140  171.6890  142.4250 C   0  0  0  0  0  0  0  0  0  0  0  0
  194.5920  169.9910  143.9970 N   0  0  0  0  0  0  0  0  0  0  0  0
  195.3740  173.6190  141.1720 C   0  0  0  0  0  3  0  0  0  0  0  0
  196.4940  173.7660  142.0210 C   0  0  0  0  0  3  0  0  0  0  0  0
  195.7220  170.8110  144.2100 N   0  0  0  0  0  0  0  0  0  0  0  0
  196.6950  170.5810  145.2620 C   0  0  0  0  0  1  0  0  0  0  0  0
  194.4650  172.5530  141.3580 C   0  0  0  0  0  0  0  0  0  0  0  0
  1  7  1  0  0  0  0
  2  1  2  0  0  0  0
  4  1  1  0  0  0  0
  5  3  1  0  0  0  0
  6 10  2  0  0  0  0
  7 10  1  0  0  0  0
  7  8  1  0  0  0  0
  8 56  1  6  0  0  0
  8  5  1  0  0  0  0
  9 23  1  1  0  0  0
  9 11  1  0  0  0  0
 10  9  1  0  0  0  0
 11  3  1  0  0  0  0
 11 27  1  1  0  0  0
 12  4  1  0  0  0  0
 13 12  1  0  0  0  0
 14 13  1  0  0  0  0
 15 18  1  6  0  0  0
 16 14  1  6  0  0  0
 16 15  1  0  0  0  0
 17 16  1  0  0  0  0
 17 15  1  0  0  0  0
 20 19  1  6  0  0  0
 20 18  1  0  0  0  0
 20 22  1  0  0  0  0
 22 21  1  0  0  0  0
 25 24  1  0  0  0  0
 25 23  1  0  0  0  0
 26 25  2  0  0  0  0
 27 28  1  0  0  0  0
 28 29  1  6  0  0  0
 28 30  1  0  0  0  0
 31 30  1  1  0  0  0
 31 41  1  0  0  0  0
 31 32  1  0  0  0  0
 33 32  1  0  0  0  0
 33 34  1  0  0  0  0
 35 34  1  0  0  0  0
 36 38  1  0  0  0  0
 37 35  1  1  0  0  0
 38 37  1  0  0  0  0
 39 36  1  0  0  0  0
 39 40  1  0  0  0  0
 40 37  1  0  0  0  0
 42 47  1  6  0  0  0
 42 46  1  0  0  0  0
 42 41  1  0  0  0  0
 44 46  1  0  0  0  0
 45 43  1  0  0  0  0
 46 45  1  0  0  0  0
 46 43  1  0  0  0  0
 48 49  2  0  0  0  0
 49 47  1  0  0  0  0
 50 49  1  0  0  0  0
 51 54  1  0  0  0  0
 53 55  1  6  0  0  0
 53 51  1  0  0  0  0
 53 54  1  0  0  0  0
 54 50  1  0  0  0  0
 54 52  1  0  0  0  0
 55 54  1  0  0  0  0
 56 66  1  0  0  0  0
 57 59  1  0  0  0  0
 58 61  2  0  0  0  0
 59 64  1  0  0  0  0
 60 58  1  0  0  0  0
 60 59  2  0  0  0  0
 61 64  1  0  0  0  0
 62 66  2  0  0  0  0
 62 63  1  0  0  0  0
 63 57  2  0  0  0  0
 64 65  1  0  0  0  0
 66 60  1  0  0  0  0
M  END
>  <MODEL>
5

>  <REMARK>
 VINA RESULT:      -4.8      3.158      9.617
  Name = 
  27 active torsions:
  status: ('A' for Active; 'I' for Inactive)
    1  A    between atoms: C_2  and  C_19
    2  A    between atoms: C_2  and  C_60
    3  A    between atoms: C_10  and  C_45
    4  A    between atoms: C_10  and  C_51
    5  A    between atoms: C_12  and  C_30
    6  A    between atoms: C_14  and  C_17
    7  A    between atoms: C_14  and  C_46
    8  A    between atoms: C_15  and  C_21
    9  A    between atoms: C_15  and  C_60
   10  A    between atoms: C_17  and  N_64
   11  A    between atoms: C_19  and  O_55
   12  A    between atoms: C_21  and  C_46
   13  A    between atoms: C_21  and  C_65
   14  A    between atoms: N_22  and  C_51
   15  A    between atoms: C_27  and  N_64
   16  A    between atoms: C_29  and  C_53
   17  A    between atoms: C_30  and  C_63
   18  A    between atoms: C_32  and  C_47
   19  A    between atoms: C_32  and  C_62
   20  A    between atoms: C_34  and  C_40
   21  A    between atoms: C_34  and  C_65
   22  A    between atoms: P_38  and  O_55
   23  A    between atoms: C_40  and  C_66
   24  A    between atoms: C_42  and  C_45
   25  A    between atoms: C_49  and  C_53
   26  A    between atoms: C_52  and  C_60
   27  A    between atoms: C_56  and  C_63
                            x       y       z     vdW  Elec       q    Type
                         _______ _______ _______ _____ _____    ______ ____

>  <TORSDO>
F 27

$$$$
=
 OpenBabel11062421303D

 66 73  0  0  1  0  0  0  0  0999 V2000
  194.3990  174.6640  144.9470 C   0  0  0  0  0  0  0  0  0  0  0  0
  194.2490  174.2500  146.1320 O   0  0  0  0  0  0  0  0  0  0  0  0
  190.5740  175.2010  142.2430 C   0  0  0  0  0  2  0  0  0  0  0  0
  195.7090  174.7790  144.3840 N   0  0  0  0  0  2  0  0  0  0  0  0
  191.4860  174.0790  142.7360 C   0  0  0  0  0  2  0  0  0  0  0  0
  193.1120  177.1140  145.3030 O   0  0  0  0  0  0  0  0  0  0  0  0
  193.2440  175.0660  144.1900 N   0  0  0  0  0  0  0  0  0  0  0  0
  192.9410  174.5230  142.8480 C   0  0  1  0  0  3  0  0  0  0  0  0
  191.0120  176.2930  144.4930 C   0  0  2  0  0  3  0  0  0  0  0  0
  192.5000  176.1920  144.6980 C   0  0  0  0  0  0  0  0  0  0  0  0
  190.7080  176.5320  143.0000 C   0  0  2  0  0  3  0  0  0  0  0  0
  196.9150  174.5090  145.1580 C   0  0  0  0  0  2  0  0  0  0  0  0
  197.5080  173.1620  144.7760 C   0  0  0  0  0  2  0  0  0  0  0  0
  196.5080  172.0440  145.0040 C   0  0  0  0  0  2  0  0  0  0  0  0
  196.3120  169.4800  145.0340 C   0  0  1  0  0  3  0  0  0  0  0  0
  197.2370  170.7070  145.0230 C   0  0  2  0  0  3  0  0  0  0  0  0
  196.9390  169.9770  146.3210 C   0  0  0  0  0  2  0  0  0  0  0  0
  194.8180  169.7900  145.0560 C   0  0  0  0  0  2  0  0  0  0  0  0
  194.8220  168.4300  143.0860 O   0  0  0  0  0  1  0  0  0  0  0  0
  194.1990  169.5220  143.6930 C   0  0  1  0  0  3  0  0  0  0  0  0
  192.1610  168.8670  142.6030 O   0  0  0  0  0  1  0  0  0  0  0  0
  192.7050  169.2630  143.8250 C   0  0  0  0  0  2  0  0  0  0  0  0
  190.3830  177.3020  145.4590 C   0  0  0  0  0  2  0  0  0  0  0  0
  189.8570  175.4190  147.0590 N   0  0  0  0  0  1  0  0  0  0  0  0
  189.4500  176.6120  146.3970 C   0  0  0  0  0  0  0  0  0  0  0  0
  188.2940  177.0710  146.5910 O   0  0  0  0  0  0  0  0  0  0  0  0
  189.4700  177.4030  142.7580 C   0  0  0  0  0  2  0  0  0  0  0  0
  188.2000  176.5790  142.6170 C   0  0  2  0  0  3  0  0  0  0  0  0
  188.3490  175.3900  143.3300 O   0  0  0  0  0  1  0  0  0  0  0  0
  187.9770  176.2650  141.1450 C   0  0  0  0  0  2  0  0  0  0  0  0
  186.6770  176.8690  140.6470 C   0  0  2  0  0  3  0  0  0  0  0  0
  186.8730  177.3750  139.2270 C   0  0  0  0  0  2  0  0  0  0  0  0
  186.3400  176.3720  138.2160 C   0  0  0  0  0  2  0  0  0  0  0  0
  187.4340  175.3910  137.8450 C   0  0  0  0  0  2  0  0  0  0  0  0
  187.7050  175.4710  136.4120 N   0  0  0  0  0  2  0  0  0  0  0  0
  189.8130  173.2450  134.7110 C   0  0  0  0  0  2  0  0  0  0  0  0
  188.9450  174.7630  136.0840 C   0  0  2  0  0  3  0  0  0  0  0  0
  188.9660  174.3620  134.7400 O   0  0  0  0  0  0  0  0  0  0  0  0
  189.6900  172.5160  136.0320 C   0  0  0  0  0  2  0  0  0  0  0  0
  189.1560  173.5530  136.9740 C   0  0  0  0  0  2  0  0  0  0  0  0
  186.3080  178.0210  141.5690 C   0  0  0  0  0  2  0  0  0  0  0  0
  184.8420  177.9710  141.9900 C   0  0  1  0  0  3  0  0  0  0  0  0
  185.2880  177.6710  144.5370 C   0  0  0  0  0  2  0  0  0  0  0  0
  183.4330  179.0810  143.7770 O   0  0  0  0  0  1  0  0  0  0  0  0
  185.8450  179.0280  144.1200 C   0  0  0  0  0  2  0  0  0  0  0  0
  184.6320  178.4570  143.4270 C   0  0  0  0  0  0  0  0  0  0  0  0
  183.9470  178.6930  140.9770 C   0  0  0  0  0  2  0  0  0  0  0  0
  182.6830  177.2380  139.5590 O   0  0  0  0  0  0  0  0  0  0  0  0
  182.6960  177.9440  140.6000 C   0  0  0  0  0  0  0  0  0  0  0  0
  181.5570  177.9710  141.4050 O   0  0  0  0  0  0  0  0  0  0  0  0
  178.6370  178.0250  141.6940 O   0  0  0  0  0  0  0  0  0  0  0  0
  180.2840  180.2020  140.7220 O   0  0  0  0  0  1  0  0  0  0  0  0
  178.3630  178.2990  140.3510 C   0  0  1  0  0  3  0  0  0  0  0  0
  180.0290  178.5350  140.8490 P   0  0  0  0  0  0  0  0  0  0  0  0
  179.3300  177.7500  139.5040 O   0  0  0  0  0  0  0  0  0  0  0  0
  193.8880  173.4090  142.3570 C   0  0  0  0  0  2  0  0  0  0  0  0
  196.2270  174.2270  138.7840 C   0  0  0  0  0  3  0  0  0  0  0  0
  192.8070  173.4170  139.4950 N   0  0  0  0  0  0  0  0  0  0  0  0
  194.8650  173.9380  138.7530 C   0  0  0  0  0  0  0  0  0  0  0  0
  194.1470  173.6990  139.8710 C   0  0  0  0  0  0  0  0  0  0  0  0
  192.6870  173.4890  138.0840 N   0  0  0  0  0  0  0  0  0  0  0  0
  196.1010  174.0090  141.2190 C   0  0  0  0  0  3  0  0  0  0  0  0
  196.8490  174.2630  140.0470 C   0  0  0  0  0  3  0  0  0  0  0  0
  193.9930  173.8060  137.6490 N   0  0  0  0  0  0  0  0  0  0  0  0
  194.3490  174.0110  136.2560 C   0  0  0  0  0  1  0  0  0  0  0  0
  194.7170  173.7340  141.1440 C   0  0  0  0  0  0  0  0  0  0  0  0
  1  2  2  0  0  0  0
  3  5  1  0  0  0  0
  3 11  1  0  0  0  0
  4  1  1  0  0  0  0
  4 12  1  0  0  0  0
  5  8  1  0  0  0  0
  7 10  1  0  0  0  0
  7  1  1  0  0  0  0
  8 56  1  1  0  0  0
  8  7  1  0  0  0  0
  9 10  1  0  0  0  0
  9 23  1  1  0  0  0
 10  6  2  0  0  0  0
 11 27  1  1  0  0  0
 11  9  1  0  0  0  0
 13 14  1  0  0  0  0
 13 12  1  0  0  0  0
 15 18  1  1  0  0  0
 15 17  1  0  0  0  0
 16 14  1  1  0  0  0
 16 15  1  0  0  0  0
 16 17  1  0  0  0  0
 20 19  1  1  0  0  0
 20 22  1  0  0  0  0
 20 18  1  0  0  0  0
 21 22  1  0  0  0  0
 23 25  1  0  0  0  0
 25 26  2  0  0  0  0
 25 24  1  0  0  0  0
 28 27  1  0  0  0  0
 28 29  1  1  0  0  0
 30 28  1  0  0  0  0
 31 32  1  6  0  0  0
 31 30  1  0  0  0  0
 31 41  1  0  0  0  0
 33 32  1  0  0  0  0
 34 33  1  0  0  0  0
 35 34  1  0  0  0  0
 36 38  1  0  0  0  0
 36 39  1  0  0  0  0
 37 35  1  1  0  0  0
 37 40  1  0  0  0  0
 38 37  1  0  0  0  0
 39 40  1  0  0  0  0
 41 42  1  0  0  0  0
 42 47  1  6  0  0  0
 42 46  1  0  0  0  0
 45 43  1  0  0  0  0
 46 44  1  0  0  0  0
 46 45  1  0  0  0  0
 46 43  1  0  0  0  0
 48 49  2  0  0  0  0
 49 47  1  0  0  0  0
 49 50  1  0  0  0  0
 52 54  1  0  0  0  0
 53 55  1  6  0  0  0
 53 54  1  0  0  0  0
 53 51  1  0  0  0  0
 54 50  1  0  0  0  0
 54 51  1  0  0  0  0
 55 54  1  0  0  0  0
 57 63  1  0  0  0  0
 58 60  1  0  0  0  0
 59 57  2  0  0  0  0
 59 60  1  0  0  0  0
 60 66  2  0  0  0  0
 61 58  2  0  0  0  0
 63 62  2  0  0  0  0
 64 61  1  0  0  0  0
 64 59  1  0  0  0  0
 65 64  1  0  0  0  0
 66 62  1  0  0  0  0
 66 56  1  0  0  0  0
M  END
>  <MODEL>
6

>  <REMARK>
 VINA RESULT:      -4.6      3.746     10.760
  Name = 
  27 active torsions:
  status: ('A' for Active; 'I' for Inactive)
    1  A    between atoms: C_2  and  C_19
    2  A    between atoms: C_2  and  C_60
    3  A    between atoms: C_10  and  C_45
    4  A    between atoms: C_10  and  C_51
    5  A    between atoms: C_12  and  C_30
    6  A    between atoms: C_14  and  C_17
    7  A    between atoms: C_14  and  C_46
    8  A    between atoms: C_15  and  C_21
    9  A    between atoms: C_15  and  C_60
   10  A    between atoms: C_17  and  N_64
   11  A    between atoms: C_19  and  O_55
   12  A    between atoms: C_21  and  C_46
   13  A    between atoms: C_21  and  C_65
   14  A    between atoms: N_22  and  C_51
   15  A    between atoms: C_27  and  N_64
   16  A    between atoms: C_29  and  C_53
   17  A    between atoms: C_30  and  C_63
   18  A    between atoms: C_32  and  C_47
   19  A    between atoms: C_32  and  C_62
   20  A    between atoms: C_34  and  C_40
   21  A    between atoms: C_34  and  C_65
   22  A    between atoms: P_38  and  O_55
   23  A    between atoms: C_40  and  C_66
   24  A    between atoms: C_42  and  C_45
   25  A    between atoms: C_49  and  C_53
   26  A    between atoms: C_52  and  C_60
   27  A    between atoms: C_56  and  C_63
                            x       y       z     vdW  Elec       q    Type
                         _______ _______ _______ _____ _____    ______ ____

>  <TORSDO>
F 27

$$$$
=
 OpenBabel11062421303D

 66 73  0  0  1  0  0  0  0  0999 V2000
  191.9430  175.2450  142.8730 C   0  0  0  0  0  0  0  0  0  0  0  0
  191.6660  176.3770  142.3840 O   0  0  0  0  0  0  0  0  0  0  0  0
  189.5200  171.4860  141.3790 C   0  0  0  0  0  2  0  0  0  0  0  0
  192.8310  175.1400  143.9900 N   0  0  0  0  0  2  0  0  0  0  0  0
  189.3420  172.6620  142.3370 C   0  0  0  0  0  2  0  0  0  0  0  0
  192.9520  174.1240  140.5270 O   0  0  0  0  0  0  0  0  0  0  0  0
  191.3960  174.0610  142.2650 N   0  0  0  0  0  0  0  0  0  0  0  0
  190.6440  173.0440  143.0330 C   0  0  1  0  0  3  0  0  0  0  0  0
  190.8670  173.0940  139.9490 C   0  0  2  0  0  3  0  0  0  0  0  0
  191.7970  173.7900  140.9080 C   0  0  0  0  0  0  0  0  0  0  0  0
  190.6800  171.6250  140.3810 C   0  0  2  0  0  3  0  0  0  0  0  0
  193.5110  176.2990  144.5540 C   0  0  0  0  0  2  0  0  0  0  0  0
  194.5120  175.8710  145.6160 C   0  0  0  0  0  2  0  0  0  0  0  0
  194.9780  174.4460  145.3780 C   0  0  0  0  0  2  0  0  0  0  0  0
  197.4200  174.5060  144.5730 C   0  0  1  0  0  3  0  0  0  0  0  0
  196.4500  174.3250  145.7500 C   0  0  2  0  0  3  0  0  0  0  0  0
  197.0580  173.1170  145.0600 C   0  0  0  0  0  2  0  0  0  0  0  0
  196.7610  174.7450  143.2170 C   0  0  0  0  0  2  0  0  0  0  0  0
  197.9390  176.8150  142.9790 O   0  0  0  0  0  1  0  0  0  0  0  0
  196.6710  176.2350  142.9250 C   0  0  1  0  0  3  0  0  0  0  0  0
  195.2560  175.3890  141.1790 O   0  0  0  0  0  1  0  0  0  0  0  0
  196.0440  176.4750  141.5600 C   0  0  0  0  0  2  0  0  0  0  0  0
  191.3070  173.2990  138.4970 C   0  0  0  0  0  2  0  0  0  0  0  0
  190.4200  174.2890  136.3490 N   0  0  0  0  0  1  0  0  0  0  0  0
  190.1890  173.8690  137.6890 C   0  0  0  0  0  0  0  0  0  0  0  0
  189.0450  173.9980  138.1960 O   0  0  0  0  0  0  0  0  0  0  0  0
  190.4830  170.6610  139.2060 C   0  0  0  0  0  2  0  0  0  0  0  0
  191.2500  169.3610  139.3880 C   0  0  2  0  0  3  0  0  0  0  0  0
  190.3880  168.3950  139.9040 O   0  0  0  0  0  1  0  0  0  0  0  0
  192.3940  169.5960  140.3630 C   0  0  0  0  0  2  0  0  0  0  0  0
  193.0380  168.2870  140.7770 C   0  0  2  0  0  3  0  0  0  0  0  0
  193.1370  168.2350  142.2930 C   0  0  0  0  0  2  0  0  0  0  0  0
  192.5610  169.4950  142.9180 C   0  0  0  0  0  2  0  0  0  0  0  0
  193.1750  169.7140  144.2860 C   0  0  0  0  0  2  0  0  0  0  0  0
  193.1170  168.4760  145.0590 N   0  0  0  0  0  2  0  0  0  0  0  0
  195.4200  168.8750  147.6710 C   0  0  0  0  0  2  0  0  0  0  0  0
  194.3590  168.2810  145.8100 C   0  0  2  0  0  3  0  0  0  0  0  0
  194.1640  168.4850  147.1840 O   0  0  0  0  0  0  0  0  0  0  0  0
  196.1430  169.6340  146.5810 C   0  0  0  0  0  2  0  0  0  0  0  0
  195.4650  169.1950  145.3180 C   0  0  0  0  0  2  0  0  0  0  0  0
  194.4270  168.2290  140.1590 C   0  0  0  0  0  2  0  0  0  0  0  0
  195.0570  169.6140  140.0320 C   0  0  1  0  0  3  0  0  0  0  0  0
  196.7230  168.6580  141.7890 C   0  0  0  0  0  2  0  0  0  0  0  0
  196.0980  171.0260  141.8560 O   0  0  0  0  0  1  0  0  0  0  0  0
  197.5310  169.4070  140.7340 C   0  0  0  0  0  2  0  0  0  0  0  0
  196.1370  169.8610  141.0890 C   0  0  0  0  0  0  0  0  0  0  0  0
  195.5460  169.8730  138.6040 C   0  0  0  0  0  2  0  0  0  0  0  0
  194.0510  171.6580  138.0570 O   0  0  0  0  0  0  0  0  0  0  0  0
  195.2400  171.2490  138.0760 C   0  0  0  0  0  0  0  0  0  0  0  0
  196.2510  172.1120  137.6500 O   0  0  0  0  0  0  0  0  0  0  0  0
  195.0480  174.7690  137.9670 O   0  0  0  0  0  0  0  0  0  0  0  0
  197.4750  174.1720  136.5000 O   0  0  0  0  0  1  0  0  0  0  0  0
  194.8810  175.0170  136.6020 C   0  0  1  0  0  3  0  0  0  0  0  0
  195.9390  173.6760  137.0060 P   0  0  0  0  0  0  0  0  0  0  0  0
  194.6610  173.8380  135.8860 O   0  0  0  0  0  0  0  0  0  0  0  0
  190.3890  173.3890  144.5140 C   0  0  0  0  0  2  0  0  0  0  0  0
  188.2170  177.0480  145.4100 C   0  0  0  0  0  3  0  0  0  0  0  0
  190.9780  175.2720  146.8510 N   0  0  0  0  0  0  0  0  0  0  0  0
  189.2910  176.5940  146.1710 C   0  0  0  0  0  0  0  0  0  0  0  0
  189.9660  175.4630  145.8750 C   0  0  0  0  0  0  0  0  0  0  0  0
  190.9340  176.3330  147.7910 N   0  0  0  0  0  0  0  0  0  0  0  0
  188.5480  175.0860  143.9830 C   0  0  0  0  0  3  0  0  0  0  0  0
  187.8460  176.2730  144.2940 C   0  0  0  0  0  3  0  0  0  0  0  0
  189.8620  177.1360  147.3450 N   0  0  0  0  0  0  0  0  0  0  0  0
  189.4570  178.3700  147.9940 C   0  0  0  0  0  1  0  0  0  0  0  0
  189.6420  174.6690  144.7740 C   0  0  0  0  0  0  0  0  0  0  0  0
  1  4  1  0  0  0  0
  2  1  2  0  0  0  0
  3  5  1  0  0  0  0
  4 12  1  0  0  0  0
  5  8  1  0  0  0  0
  6 10  2  0  0  0  0
  7  1  1  0  0  0  0
  7  8  1  0  0  0  0
  8 56  1  1  0  0  0
  9 23  1  6  0  0  0
  9 11  1  0  0  0  0
  9 10  1  0  0  0  0
 10  7  1  0  0  0  0
 11 27  1  6  0  0  0
 11  3  1  0  0  0  0
 12 13  1  0  0  0  0
 14 13  1  0  0  0  0
 15 18  1  6  0  0  0
 15 17  1  0  0  0  0
 15 16  1  0  0  0  0
 16 14  1  6  0  0  0
 17 16  1  0  0  0  0
 20 19  1  6  0  0  0
 20 18  1  0  0  0  0
 21 22  1  0  0  0  0
 22 20  1  0  0  0  0
 24 25  1  0  0  0  0
 25 26  2  0  0  0  0
 25 23  1  0  0  0  0
 27 28  1  0  0  0  0
 28 29  1  1  0  0  0
 28 30  1  0  0  0  0
 30 31  1  0  0  0  0
 31 41  1  6  0  0  0
 31 32  1  0  0  0  0
 32 33  1  0  0  0  0
 33 34  1  0  0  0  0
 34 35  1  0  0  0  0
 37 35  1  6  0  0  0
 37 38  1  0  0  0  0
 38 36  1  0  0  0  0
 39 36  1  0  0  0  0
 40 37  1  0  0  0  0
 40 39  1  0  0  0  0
 42 47  1  6  0  0  0
 42 41  1  0  0  0  0
 42 46  1  0  0  0  0
 45 46  1  0  0  0  0
 45 43  1  0  0  0  0
 46 43  1  0  0  0  0
 46 44  1  0  0  0  0
 48 49  2  0  0  0  0
 49 47  1  0  0  0  0
 50 49  1  0  0  0  0
 52 54  1  0  0  0  0
 53 55  1  6  0  0  0
 53 54  1  0  0  0  0
 53 51  1  0  0  0  0
 54 50  1  0  0  0  0
 54 51  1  0  0  0  0
 55 54  1  0  0  0  0
 56 66  1  0  0  0  0
 57 59  1  0  0  0  0
 58 61  2  0  0  0  0
 59 64  1  0  0  0  0
 60 59  2  0  0  0  0
 60 58  1  0  0  0  0
 62 63  1  0  0  0  0
 62 66  2  0  0  0  0
 63 57  2  0  0  0  0
 64 61  1  0  0  0  0
 64 65  1  0  0  0  0
 66 60  1  0  0  0  0
M  END
>  <MODEL>
7

>  <REMARK>
 VINA RESULT:      -4.3      2.656      6.880
  Name = 
  27 active torsions:
  status: ('A' for Active; 'I' for Inactive)
    1  A    between atoms: C_2  and  C_19
    2  A    between atoms: C_2  and  C_60
    3  A    between atoms: C_10  and  C_45
    4  A    between atoms: C_10  and  C_51
    5  A    between atoms: C_12  and  C_30
    6  A    between atoms: C_14  and  C_17
    7  A    between atoms: C_14  and  C_46
    8  A    between atoms: C_15  and  C_21
    9  A    between atoms: C_15  and  C_60
   10  A    between atoms: C_17  and  N_64
   11  A    between atoms: C_19  and  O_55
   12  A    between atoms: C_21  and  C_46
   13  A    between atoms: C_21  and  C_65
   14  A    between atoms: N_22  and  C_51
   15  A    between atoms: C_27  and  N_64
   16  A    between atoms: C_29  and  C_53
   17  A    between atoms: C_30  and  C_63
   18  A    between atoms: C_32  and  C_47
   19  A    between atoms: C_32  and  C_62
   20  A    between atoms: C_34  and  C_40
   21  A    between atoms: C_34  and  C_65
   22  A    between atoms: P_38  and  O_55
   23  A    between atoms: C_40  and  C_66
   24  A    between atoms: C_42  and  C_45
   25  A    between atoms: C_49  and  C_53
   26  A    between atoms: C_52  and  C_60
   27  A    between atoms: C_56  and  C_63
                            x       y       z     vdW  Elec       q    Type
                         _______ _______ _______ _____ _____    ______ ____

>  <TORSDO>
F 27

$$$$
=
 OpenBabel11062421303D

 66 73  0  0  1  0  0  0  0  0999 V2000
  193.6260  174.7360  145.3080 C   0  0  0  0  0  0  0  0  0  0  0  0
  193.3460  174.0710  146.3450 O   0  0  0  0  0  0  0  0  0  0  0  0
  190.1390  175.8600  142.3400 C   0  0  0  0  0  2  0  0  0  0  0  0
  194.9910  174.9720  144.9480 N   0  0  0  0  0  2  0  0  0  0  0  0
  191.0150  174.6570  142.6820 C   0  0  0  0  0  2  0  0  0  0  0  0
  192.2410  177.0470  146.0320 O   0  0  0  0  0  0  0  0  0  0  0  0
  192.5590  175.2960  144.5220 N   0  0  0  0  0  0  0  0  0  0  0  0
  192.4340  175.0630  143.0660 C   0  0  1  0  0  3  0  0  0  0  0  0
  190.2760  176.4270  144.8100 C   0  0  2  0  0  3  0  0  0  0  0  0
  191.7310  176.2820  145.1690 C   0  0  0  0  0  0  0  0  0  0  0  0
  190.1460  176.9900  143.3800 C   0  0  2  0  0  3  0  0  0  0  0  0
  196.1020  174.5370  145.7860 C   0  0  0  0  0  2  0  0  0  0  0  0
  197.3260  174.2290  144.9370 C   0  0  0  0  0  2  0  0  0  0  0  0
  197.3310  172.7760  144.5010 C   0  0  0  0  0  2  0  0  0  0  0  0
  196.0630  171.2720  142.8440 C   0  0  1  0  0  3  0  0  0  0  0  0
  196.6690  172.6540  143.1350 C   0  0  2  0  0  3  0  0  0  0  0  0
  197.4220  171.6460  142.2850 C   0  0  0  0  0  2  0  0  0  0  0  0
  196.2480  170.2350  143.9480 C   0  0  0  0  0  2  0  0  0  0  0  0
  195.0540  168.1660  144.1050 O   0  0  0  0  0  1  0  0  0  0  0  0
  194.9260  169.5470  144.2570 C   0  0  1  0  0  3  0  0  0  0  0  0
  194.8590  171.1690  146.0280 O   0  0  0  0  0  1  0  0  0  0  0  0
  194.4700  169.8770  145.6710 C   0  0  0  0  0  2  0  0  0  0  0  0
  189.5090  177.1970  145.8890 C   0  0  0  0  0  2  0  0  0  0  0  0
  187.2660  176.7050  146.9410 N   0  0  0  0  0  1  0  0  0  0  0  0
  188.5890  176.2830  146.6280 C   0  0  0  0  0  0  0  0  0  0  0  0
  188.9870  175.1470  146.9930 O   0  0  0  0  0  0  0  0  0  0  0  0
  188.9230  177.8940  143.1850 C   0  0  0  0  0  2  0  0  0  0  0  0
  187.6690  177.1060  142.8420 C   0  0  2  0  0  3  0  0  0  0  0  0
  187.6970  175.8900  143.5230 O   0  0  0  0  0  1  0  0  0  0  0  0
  187.6430  176.8500  141.3430 C   0  0  0  0  0  2  0  0  0  0  0  0
  186.2860  177.1820  140.7540 C   0  0  2  0  0  3  0  0  0  0  0  0
  186.4420  177.4760  139.2700 C   0  0  0  0  0  2  0  0  0  0  0  0
  186.0780  176.2590  138.4350 C   0  0  0  0  0  2  0  0  0  0  0  0
  187.3370  175.6240  137.8800 C   0  0  0  0  0  2  0  0  0  0  0  0
  188.1720  175.1400  138.9770 N   0  0  0  0  0  2  0  0  0  0  0  0
  189.2030  172.3260  137.1600 C   0  0  0  0  0  2  0  0  0  0  0  0
  189.0780  174.0900  138.5080 C   0  0  2  0  0  3  0  0  0  0  0  0
  188.7220  173.6410  137.2260 O   0  0  0  0  0  0  0  0  0  0  0  0
  189.1460  171.7230  138.5460 C   0  0  0  0  0  2  0  0  0  0  0  0
  189.1150  172.9100  139.4610 C   0  0  0  0  0  2  0  0  0  0  0  0
  185.7440  178.4050  141.4760 C   0  0  0  0  0  2  0  0  0  0  0  0
  184.4950  178.0820  142.2940 C   0  0  1  0  0  3  0  0  0  0  0  0
  185.3990  179.5620  144.2350 C   0  0  0  0  0  2  0  0  0  0  0  0
  184.9310  177.1880  144.6220 O   0  0  0  0  0  1  0  0  0  0  0  0
  183.8980  179.3870  144.4380 C   0  0  0  0  0  2  0  0  0  0  0  0
  184.7120  178.2910  143.7950 C   0  0  0  0  0  0  0  0  0  0  0  0
  183.2700  178.8280  141.7560 C   0  0  0  0  0  2  0  0  0  0  0  0
  182.8660  177.5230  139.7920 O   0  0  0  0  0  0  0  0  0  0  0  0
  182.3880  178.0120  140.8480 C   0  0  0  0  0  0  0  0  0  0  0  0
  181.0590  177.7390  141.1700 O   0  0  0  0  0  0  0  0  0  0  0  0
  180.1190  180.3750  140.2890 O   0  0  0  0  0  0  0  0  0  0  0  0
  178.9490  177.8280  139.5550 O   0  0  0  0  0  1  0  0  0  0  0  0
  178.8270  180.2500  140.8080 C   0  0  1  0  0  3  0  0  0  0  0  0
  179.7540  178.7630  140.7120 P   0  0  0  0  0  0  0  0  0  0  0  0
  178.8050  179.4510  141.9530 O   0  0  0  0  0  0  0  0  0  0  0  0
  193.4620  174.0850  142.4620 C   0  0  0  0  0  2  0  0  0  0  0  0
  191.8470  170.2770  141.1210 C   0  0  0  0  0  3  0  0  0  0  0  0
  193.5090  173.0570  139.5820 N   0  0  0  0  0  0  0  0  0  0  0  0
  192.4650  171.1860  140.2660 C   0  0  0  0  0  0  0  0  0  0  0  0
  192.9750  172.3590  140.6970 C   0  0  0  0  0  0  0  0  0  0  0  0
  193.3280  172.2810  138.4090 N   0  0  0  0  0  0  0  0  0  0  0  0
  192.2950  171.8580  142.9370 C   0  0  0  0  0  3  0  0  0  0  0  0
  191.7660  170.6280  142.4830 C   0  0  0  0  0  3  0  0  0  0  0  0
  192.6630  171.1230  138.8680 N   0  0  0  0  0  0  0  0  0  0  0  0
  192.2910  170.0140  138.0070 C   0  0  0  0  0  1  0  0  0  0  0  0
  192.9280  172.7440  142.0380 C   0  0  0  0  0  0  0  0  0  0  0  0
  1  2  2  0  0  0  0
  3  5  1  0  0  0  0
  3 11  1  0  0  0  0
  4  1  1  0  0  0  0
  4 12  1  0  0  0  0
  5  8  1  0  0  0  0
  7 10  1  0  0  0  0
  7  1  1  0  0  0  0
  8 56  1  1  0  0  0
  8  7  1  0  0  0  0
  9 10  1  0  0  0  0
  9 23  1  1  0  0  0
 10  6  2  0  0  0  0
 11 27  1  1  0  0  0
 11  9  1  0  0  0  0
 13 12  1  0  0  0  0
 14 13  1  0  0  0  0
 15 16  1  0  0  0  0
 15 18  1  1  0  0  0
 16 14  1  1  0  0  0
 17 15  1  0  0  0  0
 17 16  1  0  0  0  0
 18 20  1  0  0  0  0
 20 19  1  1  0  0  0
 20 22  1  0  0  0  0
 22 21  1  0  0  0  0
 23 25  1  0  0  0  0
 25 24  1  0  0  0  0
 25 26  2  0  0  0  0
 28 27  1  0  0  0  0
 28 29  1  1  0  0  0
 30 28  1  0  0  0  0
 31 32  1  6  0  0  0
 31 30  1  0  0  0  0
 31 41  1  0  0  0  0
 33 32  1  0  0  0  0
 34 33  1  0  0  0  0
 34 35  1  0  0  0  0
 36 38  1  0  0  0  0
 36 39  1  0  0  0  0
 37 35  1  1  0  0  0
 37 40  1  0  0  0  0
 38 37  1  0  0  0  0
 39 40  1  0  0  0  0
 42 41  1  6  0  0  0
 42 46  1  0  0  0  0
 43 45  1  0  0  0  0
 46 43  1  0  0  0  0
 46 45  1  0  0  0  0
 46 44  1  0  0  0  0
 47 42  1  0  0  0  0
 48 49  2  0  0  0  0
 49 50  1  0  0  0  0
 49 47  1  0  0  0  0
 51 54  1  0  0  0  0
 52 54  1  0  0  0  0
 53 51  1  1  0  0  0
 53 55  1  0  0  0  0
 54 53  1  0  0  0  0
 54 50  1  0  0  0  0
 54 55  1  0  0  0  0
 57 63  1  0  0  0  0
 58 60  1  0  0  0  0
 59 60  1  0  0  0  0
 59 57  2  0  0  0  0
 60 66  2  0  0  0  0
 61 64  1  0  0  0  0
 61 58  2  0  0  0  0
 63 62  2  0  0  0  0
 64 59  1  0  0  0  0
 65 64  1  0  0  0  0
 66 56  1  0  0  0  0
 66 62  1  0  0  0  0
M  END
>  <MODEL>
8

>  <REMARK>
 VINA RESULT:      -4.2      3.720     10.720
  Name = 
  27 active torsions:
  status: ('A' for Active; 'I' for Inactive)
    1  A    between atoms: C_2  and  C_19
    2  A    between atoms: C_2  and  C_60
    3  A    between atoms: C_10  and  C_45
    4  A    between atoms: C_10  and  C_51
    5  A    between atoms: C_12  and  C_30
    6  A    between atoms: C_14  and  C_17
    7  A    between atoms: C_14  and  C_46
    8  A    between atoms: C_15  and  C_21
    9  A    between atoms: C_15  and  C_60
   10  A    between atoms: C_17  and  N_64
   11  A    between atoms: C_19  and  O_55
   12  A    between atoms: C_21  and  C_46
   13  A    between atoms: C_21  and  C_65
   14  A    between atoms: N_22  and  C_51
   15  A    between atoms: C_27  and  N_64
   16  A    between atoms: C_29  and  C_53
   17  A    between atoms: C_30  and  C_63
   18  A    between atoms: C_32  and  C_47
   19  A    between atoms: C_32  and  C_62
   20  A    between atoms: C_34  and  C_40
   21  A    between atoms: C_34  and  C_65
   22  A    between atoms: P_38  and  O_55
   23  A    between atoms: C_40  and  C_66
   24  A    between atoms: C_42  and  C_45
   25  A    between atoms: C_49  and  C_53
   26  A    between atoms: C_52  and  C_60
   27  A    between atoms: C_56  and  C_63
                            x       y       z     vdW  Elec       q    Type
                         _______ _______ _______ _____ _____    ______ ____

>  <TORSDO>
F 27

$$$$
=
 OpenBabel11062421303D

 66 73  0  0  1  0  0  0  0  0999 V2000
  188.8030  176.1400  141.7100 C   0  0  0  0  0  0  0  0  0  0  0  0
  189.3410  177.2840  141.6830 O   0  0  0  0  0  0  0  0  0  0  0  0
  191.5750  172.3510  142.1420 C   0  0  0  0  0  2  0  0  0  0  0  0
  187.4090  175.9920  141.4210 N   0  0  0  0  0  2  0  0  0  0  0  0
  191.1290  173.3330  141.0600 C   0  0  0  0  0  2  0  0  0  0  0  0
  189.4700  175.5380  144.3510 O   0  0  0  0  0  0  0  0  0  0  0  0
  189.5940  174.9980  142.0830 N   0  0  0  0  0  0  0  0  0  0  0  0
  189.6840  173.7820  141.2450 C   0  0  1  0  0  3  0  0  0  0  0  0
  191.4430  174.3290  143.7290 C   0  0  2  0  0  3  0  0  0  0  0  0
  190.1280  174.9940  143.4220 C   0  0  0  0  0  0  0  0  0  0  0  0
  191.2980  172.8000  143.5850 C   0  0  2  0  0  3  0  0  0  0  0  0
  186.5420  177.1360  141.1670 C   0  0  0  0  0  2  0  0  0  0  0  0
  186.9300  178.3110  142.0510 C   0  0  0  0  0  2  0  0  0  0  0  0
  185.7190  178.8660  142.7770 C   0  0  0  0  0  2  0  0  0  0  0  0
  184.6620  177.9060  144.9170 C   0  0  1  0  0  3  0  0  0  0  0  0
  184.9430  177.7230  143.4180 C   0  0  2  0  0  3  0  0  0  0  0  0
  185.8080  177.0290  144.4540 C   0  0  0  0  0  2  0  0  0  0  0  0
  185.2300  179.1810  145.5340 C   0  0  0  0  0  2  0  0  0  0  0  0
  184.5270  178.4070  147.6880 O   0  0  0  0  0  1  0  0  0  0  0  0
  185.6090  178.9440  146.9890 C   0  0  1  0  0  3  0  0  0  0  0  0
  186.4660  176.8310  147.7440 O   0  0  0  0  0  1  0  0  0  0  0  0
  186.8080  178.0120  147.0840 C   0  0  0  0  0  2  0  0  0  0  0  0
  192.0130  174.8090  145.0670 C   0  0  0  0  0  2  0  0  0  0  0  0
  193.2850  176.3780  143.5510 N   0  0  0  0  0  1  0  0  0  0  0  0
  192.8800  176.0070  144.8640 C   0  0  0  0  0  0  0  0  0  0  0  0
  193.2710  176.6790  145.8530 O   0  0  0  0  0  0  0  0  0  0  0  0
  192.1740  172.0060  144.5620 C   0  0  0  0  0  2  0  0  0  0  0  0
  192.7340  170.7380  143.9380 C   0  0  2  0  0  3  0  0  0  0  0  0
  192.6080  169.6910  144.8500 O   0  0  0  0  0  1  0  0  0  0  0  0
  194.2050  170.9560  143.6140 C   0  0  0  0  0  2  0  0  0  0  0  0
  194.7340  169.8630  142.7060 C   0  0  2  0  0  3  0  0  0  0  0  0
  196.0910  169.4030  143.2150 C   0  0  0  0  0  2  0  0  0  0  0  0
  195.9450  168.5930  144.4930 C   0  0  0  0  0  2  0  0  0  0  0  0
  196.4510  169.4010  145.6710 C   0  0  0  0  0  2  0  0  0  0  0  0
  197.6170  170.1840  145.2700 N   0  0  0  0  0  2  0  0  0  0  0  0
  195.8740  173.1830  145.7760 C   0  0  0  0  0  2  0  0  0  0  0  0
  197.4230  171.5980  145.5970 C   0  0  2  0  0  3  0  0  0  0  0  0
  196.1290  171.8390  146.0840 O   0  0  0  0  0  0  0  0  0  0  0  0
  196.6060  173.5300  144.4980 C   0  0  0  0  0  2  0  0  0  0  0  0
  197.6860  172.4950  144.4020 C   0  0  0  0  0  2  0  0  0  0  0  0
  194.8660  170.4360  141.3040 C   0  0  0  0  0  2  0  0  0  0  0  0
  195.9730  169.7500  140.5060 C   0  0  1  0  0  3  0  0  0  0  0  0
  194.2490  168.2690  139.2370 C   0  0  0  0  0  2  0  0  0  0  0  0
  196.3680  168.8740  138.1650 O   0  0  0  0  0  1  0  0  0  0  0  0
  194.1350  169.6910  138.6960 C   0  0  0  0  0  2  0  0  0  0  0  0
  195.4630  169.1670  139.1860 C   0  0  0  0  0  0  0  0  0  0  0  0
  197.1820  170.6740  140.3260 C   0  0  0  0  0  2  0  0  0  0  0  0
  196.8520  172.0980  138.4330 O   0  0  0  0  0  0  0  0  0  0  0  0
  196.8670  172.0000  139.6870 C   0  0  0  0  0  0  0  0  0  0  0  0
  196.5410  173.1220  140.4500 O   0  0  0  0  0  0  0  0  0  0  0  0
  193.9840  173.4630  139.0530 O   0  0  0  0  0  0  0  0  0  0  0  0
  194.5330  174.2300  141.7930 O   0  0  0  0  0  1  0  0  0  0  0  0
  193.9180  174.8500  139.2070 C   0  0  1  0  0  3  0  0  0  0  0  0
  195.1000  174.0310  140.2120 P   0  0  0  0  0  0  0  0  0  0  0  0
  195.1900  175.4280  139.2350 O   0  0  0  0  0  0  0  0  0  0  0  0
  188.9610  173.8610  139.8860 C   0  0  0  0  0  2  0  0  0  0  0  0
  190.0820  170.9920  136.8170 C   0  0  0  0  0  3  0  0  0  0  0  0
  190.5200  174.5130  137.3370 N   0  0  0  0  0  0  0  0  0  0  0  0
  190.4070  172.3450  136.7500 C   0  0  0  0  0  0  0  0  0  0  0  0
  190.0650  173.2230  137.7170 C   0  0  0  0  0  0  0  0  0  0  0  0
  191.1790  174.4310  136.0840 N   0  0  0  0  0  0  0  0  0  0  0  0
  189.0040  171.4750  138.9610 C   0  0  0  0  0  3  0  0  0  0  0  0
  189.3680  170.5570  137.9500 C   0  0  0  0  0  3  0  0  0  0  0  0
  191.0820  173.0650  135.7390 N   0  0  0  0  0  0  0  0  0  0  0  0
  191.6490  172.4990  134.5280 C   0  0  0  0  0  1  0  0  0  0  0  0
  189.3670  172.8370  138.8610 C   0  0  0  0  0  0  0  0  0  0  0  0
  1  7  1  0  0  0  0
  2  1  2  0  0  0  0
  3 11  1  0  0  0  0
  4  1  1  0  0  0  0
  5  8  1  0  0  0  0
  5  3  1  0  0  0  0
  7 10  1  0  0  0  0
  8 56  1  6  0  0  0
  8  7  1  0  0  0  0
  9 23  1  1  0  0  0
 10  9  1  0  0  0  0
 10  6  2  0  0  0  0
 11  9  1  0  0  0  0
 11 27  1  1  0  0  0
 12  4  1  0  0  0  0
 12 13  1  0  0  0  0
 13 14  1  0  0  0  0
 15 18  1  1  0  0  0
 16 14  1  1  0  0  0
 16 17  1  0  0  0  0
 16 15  1  0  0  0  0
 17 15  1  0  0  0  0
 18 20  1  0  0  0  0
 20 22  1  0  0  0  0
 20 19  1  1  0  0  0
 22 21  1  0  0  0  0
 24 25  1  0  0  0  0
 25 23  1  0  0  0  0
 25 26  2  0  0  0  0
 28 27  1  0  0  0  0
 28 29  1  1  0  0  0
 30 28  1  0  0  0  0
 31 41  1  6  0  0  0
 31 32  1  0  0  0  0
 31 30  1  0  0  0  0
 32 33  1  0  0  0  0
 33 34  1  0  0  0  0
 35 34  1  0  0  0  0
 36 38  1  0  0  0  0
 37 35  1  6  0  0  0
 37 38  1  0  0  0  0
 39 36  1  0  0  0  0
 40 39  1  0  0  0  0
 40 37  1  0  0  0  0
 42 47  1  6  0  0  0
 42 41  1  0  0  0  0
 44 46  1  0  0  0  0
 45 46  1  0  0  0  0
 45 43  1  0  0  0  0
 46 43  1  0  0  0  0
 46 42  1  0  0  0  0
 48 49  2  0  0  0  0
 49 47  1  0  0  0  0
 49 50  1  0  0  0  0
 51 54  1  0  0  0  0
 53 51  1  6  0  0  0
 53 55  1  0  0  0  0
 53 54  1  0  0  0  0
 54 50  1  0  0  0  0
 54 52  1  0  0  0  0
 55 54  1  0  0  0  0
 57 63  1  0  0  0  0
 58 60  1  0  0  0  0
 59 57  2  0  0  0  0
 59 60  1  0  0  0  0
 60 66  2  0  0  0  0
 61 58  2  0  0  0  0
 63 62  2  0  0  0  0
 64 61  1  0  0  0  0
 64 59  1  0  0  0  0
 65 64  1  0  0  0  0
 66 62  1  0  0  0  0
 66 56  1  0  0  0  0
M  END
>  <MODEL>
9

>  <REMARK>
 VINA RESULT:      -4.0      2.408      6.209
  Name = 
  27 active torsions:
  status: ('A' for Active; 'I' for Inactive)
    1  A    between atoms: C_2  and  C_19
    2  A    between atoms: C_2  and  C_60
    3  A    between atoms: C_10  and  C_45
    4  A    between atoms: C_10  and  C_51
    5  A    between atoms: C_12  and  C_30
    6  A    between atoms: C_14  and  C_17
    7  A    between atoms: C_14  and  C_46
    8  A    between atoms: C_15  and  C_21
    9  A    between atoms: C_15  and  C_60
   10  A    between atoms: C_17  and  N_64
   11  A    between atoms: C_19  and  O_55
   12  A    between atoms: C_21  and  C_46
   13  A    between atoms: C_21  and  C_65
   14  A    between atoms: N_22  and  C_51
   15  A    between atoms: C_27  and  N_64
   16  A    between atoms: C_29  and  C_53
   17  A    between atoms: C_30  and  C_63
   18  A    between atoms: C_32  and  C_47
   19  A    between atoms: C_32  and  C_62
   20  A    between atoms: C_34  and  C_40
   21  A    between atoms: C_34  and  C_65
   22  A    between atoms: P_38  and  O_55
   23  A    between atoms: C_40  and  C_66
   24  A    between atoms: C_42  and  C_45
   25  A    between atoms: C_49  and  C_53
   26  A    between atoms: C_52  and  C_60
   27  A    between atoms: C_56  and  C_63
                            x       y       z     vdW  Elec       q    Type
                         _______ _______ _______ _____ _____    ______ ____

>  <TORSDO>
F 27

$$$$
