=
 OpenBabel11062422093D

 27 32  0  0  1  0  0  0  0  0999 V2000
  190.8700  173.9490  144.2920 C   0  0  0  0  0  3  0  0  0  0  0  0
  189.5860  174.2290  142.2620 C   0  0  0  0  0  0  0  0  0  0  0  0
  190.3450  175.1470  144.7750 C   0  0  0  0  0  0  0  0  0  0  0  0
  188.9100  177.0780  144.4670 C   0  0  0  0  0  0  0  0  0  0  0  0
  189.4330  175.8710  143.9780 C   0  0  0  0  0  0  0  0  0  0  0  0
  189.3060  177.5360  145.7270 C   0  0  0  0  0  3  0  0  0  0  0  0
  190.4920  173.4860  143.0300 C   0  0  0  0  0  3  0  0  0  0  0  0
  190.7060  175.6160  145.9980 N   0  0  0  0  0  0  0  0  0  0  0  0
  189.0810  175.3940  142.7530 N   0  0  0  0  0  0  0  0  0  0  0  0
  190.2100  176.7860  146.4840 C   0  0  0  0  0  3  0  0  0  0  0  0
  188.8350  172.3400  139.1370 C   0  0  0  0  0  3  0  0  0  0  0  0
  189.1780  173.7700  140.9260 C   0  0  0  0  0  0  0  0  0  0  0  0
  188.6360  174.5510  140.0510 N   0  0  0  0  0  0  0  0  0  0  0  0
  189.3500  172.4190  140.4940 N   0  0  0  0  0  0  0  0  0  0  0  0
  188.3940  173.7360  138.9180 C   0  0  0  0  0  0  0  0  0  0  0  0
  187.8670  174.1650  137.8580 O   0  0  0  0  0  0  0  0  0  0  0  0
  187.9580  177.8980  143.6560 C   0  0  0  0  0  2  0  0  0  0  0  0
  186.0820  179.0360  144.8160 C   0  0  1  0  0  3  0  0  0  0  0  0
  185.9530  176.9580  147.4750 C   0  0  0  0  0  2  0  0  0  0  0  0
  186.4990  178.2410  147.8930 N   0  0  0  0  0  2  0  0  0  0  0  0
  184.7020  178.7470  142.5370 O   0  0  0  0  0  0  0  0  0  0  0  0
  185.1490  178.6570  145.9590 C   0  0  2  0  0  3  0  0  0  0  0  0
  186.5460  177.8260  144.2200 C   0  0  1  0  0  0  0  0  0  0  0  0
  185.6690  179.2470  147.2500 C   0  0  0  0  0  2  0  0  0  0  0  0
  185.4740  178.6010  143.4700 C   0  0  0  0  0  0  0  0  0  0  0  0
  185.2350  177.1580  146.1540 C   0  0  1  0  0  3  0  0  0  0  0  0
  186.0840  176.6230  145.0190 C   0  0  0  0  0  2  0  0  0  0  0  0
  1  3  1  0  0  0  0
  2  9  2  0  0  0  0
  2  7  1  0  0  0  0
  3  8  1  0  0  0  0
  4  6  2  0  0  0  0
  5  4  1  0  0  0  0
  5  3  2  0  0  0  0
  6 10  1  0  0  0  0
  7  1  2  0  0  0  0
  8 10  2  0  0  0  0
  9  5  1  0  0  0  0
 11 14  2  0  0  0  0
 12  2  1  0  0  0  0
 13 12  2  0  0  0  0
 14 12  1  0  0  0  0
 15 11  1  0  0  0  0
 15 13  1  0  0  0  0
 16 15  2  0  0  0  0
 17  4  1  0  0  0  0
 18 25  1  6  0  0  0
 18 22  1  0  0  0  0
 19 20  1  0  0  0  0
 21 25  2  0  0  0  0
 22 26  1  0  0  0  0
 22 24  1  1  0  0  0
 23 17  1  6  0  0  0
 23 18  1  0  0  0  0
 23 27  1  0  0  0  0
 24 20  1  0  0  0  0
 25 23  1  0  0  0  0
 26 27  1  6  0  0  0
 26 19  1  0  0  0  0
M  END
>  <MODEL>
1

>  <REMARK>
 VINA RESULT:      -7.9      0.000      0.000
  Name = 
  3 active torsions:
  status: ('A' for Active; 'I' for Inactive)
    1  A    between atoms: C_6  and  C_7
    2  A    between atoms: C_11  and  C_19
    3  A    between atoms: C_18  and  C_19
                            x       y       z     vdW  Elec       q    Type
                         _______ _______ _______ _____ _____    ______ ____

>  <TORSDO>
F 3

$$$$
=
 OpenBabel11062422093D

 27 32  0  0  1  0  0  0  0  0999 V2000
  189.5650  174.8510  141.7650 C   0  0  0  0  0  3  0  0  0  0  0  0
  190.0110  175.7980  143.9450 C   0  0  0  0  0  0  0  0  0  0  0  0
  188.5390  175.7790  141.5860 C   0  0  0  0  0  0  0  0  0  0  0  0
  187.2330  177.6420  142.4230 C   0  0  0  0  0  0  0  0  0  0  0  0
  188.2690  176.7130  142.6070 C   0  0  0  0  0  0  0  0  0  0  0  0
  186.4920  177.6170  141.2380 C   0  0  0  0  0  3  0  0  0  0  0  0
  190.3050  174.8570  142.9490 C   0  0  0  0  0  3  0  0  0  0  0  0
  187.8040  175.7830  140.4430 N   0  0  0  0  0  0  0  0  0  0  0  0
  189.0080  176.6980  143.7500 N   0  0  0  0  0  0  0  0  0  0  0  0
  186.7950  176.6760  140.2520 C   0  0  0  0  0  3  0  0  0  0  0  0
  192.4180  175.3210  146.7520 C   0  0  0  0  0  3  0  0  0  0  0  0
  190.7680  175.8200  145.2060 C   0  0  0  0  0  0  0  0  0  0  0  0
  190.4220  176.5440  146.2190 N   0  0  0  0  0  0  0  0  0  0  0  0
  191.9500  175.0430  145.4040 N   0  0  0  0  0  0  0  0  0  0  0  0
  191.3960  176.2880  147.2140 C   0  0  0  0  0  0  0  0  0  0  0  0
  191.3800  176.8270  148.3520 O   0  0  0  0  0  0  0  0  0  0  0  0
  186.8880  178.6410  143.4820 C   0  0  0  0  0  2  0  0  0  0  0  0
  185.1330  179.1820  145.1500 C   0  0  1  0  0  3  0  0  0  0  0  0
  186.1020  176.9350  147.4770 C   0  0  0  0  0  2  0  0  0  0  0  0
  186.4290  178.2760  147.9380 N   0  0  0  0  0  2  0  0  0  0  0  0
  183.3560  178.7410  143.1930 O   0  0  0  0  0  0  0  0  0  0  0  0
  184.6040  178.4950  146.4030 C   0  0  2  0  0  3  0  0  0  0  0  0
  185.7030  178.1770  144.3150 C   0  0  1  0  0  0  0  0  0  0  0  0
  185.2680  179.0920  147.6230 C   0  0  0  0  0  2  0  0  0  0  0  0
  184.3380  178.7170  143.9170 C   0  0  0  0  0  0  0  0  0  0  0  0
  185.0670  177.0540  146.3750 C   0  0  1  0  0  3  0  0  0  0  0  0
  185.7230  176.8380  145.0260 C   0  0  0  0  0  2  0  0  0  0  0  0
  1  7  1  0  0  0  0
  2 12  1  0  0  0  0
  3  1  2  0  0  0  0
  3  5  1  0  0  0  0
  4  5  1  0  0  0  0
  4 17  1  0  0  0  0
  5  9  2  0  0  0  0
  6  4  2  0  0  0  0
  7  2  2  0  0  0  0
  8  3  1  0  0  0  0
  9  2  1  0  0  0  0
 10  8  2  0  0  0  0
 10  6  1  0  0  0  0
 11 15  1  0  0  0  0
 12 14  1  0  0  0  0
 12 13  2  0  0  0  0
 13 15  1  0  0  0  0
 14 11  2  0  0  0  0
 15 16  2  0  0  0  0
 18 25  1  6  0  0  0
 18 22  1  0  0  0  0
 19 20  1  0  0  0  0
 21 25  2  0  0  0  0
 22 24  1  1  0  0  0
 23 17  1  6  0  0  0
 23 27  1  0  0  0  0
 23 18  1  0  0  0  0
 24 20  1  0  0  0  0
 25 23  1  0  0  0  0
 26 27  1  6  0  0  0
 26 22  1  0  0  0  0
 26 19  1  0  0  0  0
M  END
>  <MODEL>
2

>  <REMARK>
 VINA RESULT:      -7.8      2.287      4.603
  Name = 
  3 active torsions:
  status: ('A' for Active; 'I' for Inactive)
    1  A    between atoms: C_6  and  C_7
    2  A    between atoms: C_11  and  C_19
    3  A    between atoms: C_18  and  C_19
                            x       y       z     vdW  Elec       q    Type
                         _______ _______ _______ _____ _____    ______ ____

>  <TORSDO>
F 3

$$$$
=
 OpenBabel11062422093D

 27 32  0  0  1  0  0  0  0  0999 V2000
  184.4920  179.0160  146.0600 C   0  0  0  0  0  3  0  0  0  0  0  0
  184.5870  178.2660  143.7630 C   0  0  0  0  0  0  0  0  0  0  0  0
  185.6900  178.3500  146.3140 C   0  0  0  0  0  0  0  0  0  0  0  0
  187.5280  176.9750  145.5280 C   0  0  0  0  0  0  0  0  0  0  0  0
  186.3230  177.6470  145.2670 C   0  0  0  0  0  0  0  0  0  0  0  0
  188.0690  177.0140  146.8170 C   0  0  0  0  0  3  0  0  0  0  0  0
  183.9340  178.9750  144.7810 C   0  0  0  0  0  3  0  0  0  0  0  0
  186.2440  178.3730  147.5540 N   0  0  0  0  0  0  0  0  0  0  0  0
  185.7580  177.6260  144.0290 N   0  0  0  0  0  0  0  0  0  0  0  0
  187.4100  177.7240  147.8230 C   0  0  0  0  0  3  0  0  0  0  0  0
  183.9270  178.0350  140.1010 C   0  0  0  0  0  3  0  0  0  0  0  0
  184.0160  178.1980  142.4090 C   0  0  0  0  0  0  0  0  0  0  0  0
  182.7450  178.2430  142.1800 N   0  0  0  0  0  0  0  0  0  0  0  0
  184.8280  178.0740  141.2400 N   0  0  0  0  0  0  0  0  0  0  0  0
  182.6130  178.1470  140.7730 C   0  0  0  0  0  0  0  0  0  0  0  0
  181.5020  178.1580  140.1810 O   0  0  0  0  0  0  0  0  0  0  0  0
  188.2300  176.1950  144.4620 C   0  0  0  0  0  2  0  0  0  0  0  0
  190.0250  176.3540  142.7570 C   0  0  1  0  0  3  0  0  0  0  0  0
  192.5710  176.8530  144.9180 C   0  0  0  0  0  2  0  0  0  0  0  0
  192.6710  175.5130  144.3590 N   0  0  0  0  0  2  0  0  0  0  0  0
  188.5500  178.2730  141.6070 O   0  0  0  0  0  0  0  0  0  0  0  0
  191.4680  176.8420  142.7700 C   0  0  2  0  0  3  0  0  0  0  0  0
  189.3370  177.0150  143.8160 C   0  0  1  0  0  0  0  0  0  0  0  0
  192.3980  175.6610  142.9380 C   0  0  0  0  0  2  0  0  0  0  0  0
  189.0780  177.5150  142.4030 C   0  0  0  0  0  0  0  0  0  0  0  0
  191.6680  177.6740  144.0190 C   0  0  1  0  0  3  0  0  0  0  0  0
  190.3030  177.8260  144.6590 C   0  0  0  0  0  2  0  0  0  0  0  0
  1  3  1  0  0  0  0
  2  9  2  0  0  0  0
  2  7  1  0  0  0  0
  3  8  1  0  0  0  0
  4  6  2  0  0  0  0
  5  4  1  0  0  0  0
  5  3  2  0  0  0  0
  6 10  1  0  0  0  0
  7  1  2  0  0  0  0
  8 10  2  0  0  0  0
  9  5  1  0  0  0  0
 11 15  1  0  0  0  0
 11 14  2  0  0  0  0
 12  2  1  0  0  0  0
 13 12  2  0  0  0  0
 14 12  1  0  0  0  0
 15 13  1  0  0  0  0
 16 15  2  0  0  0  0
 17  4  1  0  0  0  0
 18 25  1  6  0  0  0
 18 22  1  0  0  0  0
 18 23  1  0  0  0  0
 20 19  1  0  0  0  0
 21 25  2  0  0  0  0
 22 24  1  1  0  0  0
 22 26  1  0  0  0  0
 23 17  1  1  0  0  0
 23 27  1  0  0  0  0
 24 20  1  0  0  0  0
 25 23  1  0  0  0  0
 26 27  1  1  0  0  0
 26 19  1  0  0  0  0
M  END
>  <MODEL>
3

>  <REMARK>
 VINA RESULT:      -7.8      3.033      6.106
  Name = 
  3 active torsions:
  status: ('A' for Active; 'I' for Inactive)
    1  A    between atoms: C_6  and  C_7
    2  A    between atoms: C_11  and  C_19
    3  A    between atoms: C_18  and  C_19
                            x       y       z     vdW  Elec       q    Type
                         _______ _______ _______ _____ _____    ______ ____

>  <TORSDO>
F 3

$$$$
=
 OpenBabel11062422093D

 27 32  0  0  1  0  0  0  0  0999 V2000
  185.6100  177.9760  146.0190 C   0  0  0  0  0  3  0  0  0  0  0  0
  185.4120  178.0480  143.6100 C   0  0  0  0  0  0  0  0  0  0  0  0
  186.9860  177.7960  145.8890 C   0  0  0  0  0  0  0  0  0  0  0  0
  188.9410  177.5640  144.4730 C   0  0  0  0  0  0  0  0  0  0  0  0
  187.5560  177.7490  144.6000 C   0  0  0  0  0  0  0  0  0  0  0  0
  189.7220  177.4270  145.6250 C   0  0  0  0  0  3  0  0  0  0  0  0
  184.8160  178.1020  144.8770 C   0  0  0  0  0  3  0  0  0  0  0  0
  187.7730  177.6650  146.9890 N   0  0  0  0  0  0  0  0  0  0  0  0
  186.7580  177.8760  143.5030 N   0  0  0  0  0  0  0  0  0  0  0  0
  189.1170  177.4820  146.8820 C   0  0  0  0  0  3  0  0  0  0  0  0
  184.0760  178.2910  140.1380 C   0  0  0  0  0  3  0  0  0  0  0  0
  184.5990  178.1680  142.3900 C   0  0  0  0  0  0  0  0  0  0  0  0
  183.3130  178.2910  142.4140 N   0  0  0  0  0  0  0  0  0  0  0  0
  185.1730  178.1550  141.0820 N   0  0  0  0  0  0  0  0  0  0  0  0
  182.9180  178.3710  141.0560 C   0  0  0  0  0  0  0  0  0  0  0  0
  181.7200  178.4980  140.6920 O   0  0  0  0  0  0  0  0  0  0  0  0
  189.5960  177.4830  143.1300 C   0  0  0  0  0  2  0  0  0  0  0  0
  189.1510  175.0580  143.4140 C   0  0  1  0  0  3  0  0  0  0  0  0
  192.1930  174.2450  144.6320 C   0  0  0  0  0  2  0  0  0  0  0  0
  191.2110  174.1710  145.7040 N   0  0  0  0  0  2  0  0  0  0  0  0
  188.4450  175.0430  140.8290 O   0  0  0  0  0  0  0  0  0  0  0  0
  190.0260  173.8340  143.6500 C   0  0  2  0  0  3  0  0  0  0  0  0
  189.9560  176.0470  142.7770 C   0  0  1  0  0  0  0  0  0  0  0  0
  190.0520  173.5100  145.1270 C   0  0  0  0  0  2  0  0  0  0  0  0
  188.9650  175.2920  141.9050 C   0  0  0  0  0  0  0  0  0  0  0  0
  191.4530  174.2080  143.3100 C   0  0  1  0  0  3  0  0  0  0  0  0
  191.4030  175.5980  142.7080 C   0  0  0  0  0  2  0  0  0  0  0  0
  2  7  1  0  0  0  0
  3  1  1  0  0  0  0
  3  8  1  0  0  0  0
  4  5  1  0  0  0  0
  4  6  2  0  0  0  0
  5  3  2  0  0  0  0
  6 10  1  0  0  0  0
  7  1  2  0  0  0  0
  9  2  2  0  0  0  0
  9  5  1  0  0  0  0
 10  8  2  0  0  0  0
 11 15  1  0  0  0  0
 11 14  2  0  0  0  0
 12 13  2  0  0  0  0
 12  2  1  0  0  0  0
 14 12  1  0  0  0  0
 15 13  1  0  0  0  0
 16 15  2  0  0  0  0
 17  4  1  0  0  0  0
 18 25  1  6  0  0  0
 18 22  1  0  0  0  0
 19 20  1  0  0  0  0
 21 25  2  0  0  0  0
 22 24  1  1  0  0  0
 23 17  1  1  0  0  0
 23 18  1  0  0  0  0
 24 20  1  0  0  0  0
 25 23  1  0  0  0  0
 26 27  1  1  0  0  0
 26 22  1  0  0  0  0
 26 19  1  0  0  0  0
 27 23  1  0  0  0  0
M  END
>  <MODEL>
4

>  <REMARK>
 VINA RESULT:      -7.5      2.430      5.818
  Name = 
  3 active torsions:
  status: ('A' for Active; 'I' for Inactive)
    1  A    between atoms: C_6  and  C_7
    2  A    between atoms: C_11  and  C_19
    3  A    between atoms: C_18  and  C_19
                            x       y       z     vdW  Elec       q    Type
                         _______ _______ _______ _____ _____    ______ ____

>  <TORSDO>
F 3

$$$$
=
 OpenBabel11062422093D

 27 32  0  0  1  0  0  0  0  0999 V2000
  188.0270  175.7280  141.3760 C   0  0  0  0  0  3  0  0  0  0  0  0
  187.0550  176.8100  143.3090 C   0  0  0  0  0  0  0  0  0  0  0  0
  188.8780  175.0150  142.2190 C   0  0  0  0  0  0  0  0  0  0  0  0
  189.6580  174.4980  144.4570 C   0  0  0  0  0  0  0  0  0  0  0  0
  188.7960  175.2160  143.6130 C   0  0  0  0  0  0  0  0  0  0  0  0
  190.5780  173.6070  143.8980 C   0  0  0  0  0  3  0  0  0  0  0  0
  187.1110  176.6310  141.9200 C   0  0  0  0  0  3  0  0  0  0  0  0
  189.7800  174.1370  141.7070 N   0  0  0  0  0  0  0  0  0  0  0  0
  187.8920  176.1010  144.1160 N   0  0  0  0  0  0  0  0  0  0  0  0
  190.6240  173.4360  142.5120 C   0  0  0  0  0  3  0  0  0  0  0  0
  184.9660  179.7430  144.2750 C   0  0  0  0  0  3  0  0  0  0  0  0
  186.1070  177.7620  143.9080 C   0  0  0  0  0  0  0  0  0  0  0  0
  185.3110  177.4440  144.8750 N   0  0  0  0  0  0  0  0  0  0  0  0
  185.9930  179.1140  143.4610 N   0  0  0  0  0  0  0  0  0  0  0  0
  184.5720  178.6190  145.1550 C   0  0  0  0  0  0  0  0  0  0  0  0
  183.6900  178.6840  146.0510 O   0  0  0  0  0  0  0  0  0  0  0  0
  189.6300  174.6890  145.9400 C   0  0  0  0  0  2  0  0  0  0  0  0
  191.1770  176.5820  145.5150 C   0  0  1  0  0  3  0  0  0  0  0  0
  194.0280  174.7730  145.5690 C   0  0  0  0  0  2  0  0  0  0  0  0
  193.7450  175.1830  144.2020 N   0  0  0  0  0  2  0  0  0  0  0  0
  190.0430  177.7800  147.6270 O   0  0  0  0  0  0  0  0  0  0  0  0
  192.6830  176.7770  145.6400 C   0  0  2  0  0  3  0  0  0  0  0  0
  190.8020  175.5370  146.4110 C   0  0  1  0  0  0  0  0  0  0  0  0
  193.3300  176.5740  144.2890 C   0  0  0  0  0  2  0  0  0  0  0  0
  190.4830  176.9620  146.8350 C   0  0  0  0  0  0  0  0  0  0  0  0
  193.2270  175.6590  146.5040 C   0  0  1  0  0  3  0  0  0  0  0  0
  192.0280  174.9000  147.0340 C   0  0  0  0  0  2  0  0  0  0  0  0
  1  7  2  0  0  0  0
  1  3  1  0  0  0  0
  2 12  1  0  0  0  0
  2  9  2  0  0  0  0
  3  5  1  0  0  0  0
  4 17  1  0  0  0  0
  5  9  1  0  0  0  0
  5  4  2  0  0  0  0
  6  4  1  0  0  0  0
  7  2  1  0  0  0  0
  8  3  2  0  0  0  0
  8 10  1  0  0  0  0
 10  6  2  0  0  0  0
 11 15  1  0  0  0  0
 12 13  2  0  0  0  0
 13 15  1  0  0  0  0
 14 12  1  0  0  0  0
 14 11  2  0  0  0  0
 15 16  2  0  0  0  0
 18 22  1  0  0  0  0
 18 23  1  0  0  0  0
 18 25  1  1  0  0  0
 20 24  1  0  0  0  0
 20 19  1  0  0  0  0
 22 24  1  6  0  0  0
 22 26  1  0  0  0  0
 23 17  1  6  0  0  0
 23 25  1  0  0  0  0
 23 27  1  0  0  0  0
 25 21  2  0  0  0  0
 26 19  1  6  0  0  0
 26 27  1  0  0  0  0
M  END
>  <MODEL>
5

>  <REMARK>
 VINA RESULT:      -7.4      2.870      6.477
  Name = 
  3 active torsions:
  status: ('A' for Active; 'I' for Inactive)
    1  A    between atoms: C_6  and  C_7
    2  A    between atoms: C_11  and  C_19
    3  A    between atoms: C_18  and  C_19
                            x       y       z     vdW  Elec       q    Type
                         _______ _______ _______ _____ _____    ______ ____

>  <TORSDO>
F 3

$$$$
=
 OpenBabel11062422093D

 27 32  0  0  1  0  0  0  0  0999 V2000
  185.6540  178.2410  146.1220 C   0  0  0  0  0  3  0  0  0  0  0  0
  185.6090  178.1030  143.7080 C   0  0  0  0  0  0  0  0  0  0  0  0
  187.0110  177.9220  146.1020 C   0  0  0  0  0  0  0  0  0  0  0  0
  189.0150  177.3760  144.8490 C   0  0  0  0  0  0  0  0  0  0  0  0
  187.6490  177.7000  144.8640 C   0  0  0  0  0  0  0  0  0  0  0  0
  189.7080  177.2760  146.0590 C   0  0  0  0  0  3  0  0  0  0  0  0
  184.9460  178.3310  144.9220 C   0  0  0  0  0  3  0  0  0  0  0  0
  187.7140  177.8230  147.2610 N   0  0  0  0  0  0  0  0  0  0  0  0
  186.9350  177.7970  143.7090 N   0  0  0  0  0  0  0  0  0  0  0  0
  189.0380  177.5060  147.2630 C   0  0  0  0  0  3  0  0  0  0  0  0
  184.5290  178.2900  140.1440 C   0  0  0  0  0  3  0  0  0  0  0  0
  184.8850  178.1820  142.4300 C   0  0  0  0  0  0  0  0  0  0  0  0
  183.5960  178.2230  142.3550 N   0  0  0  0  0  0  0  0  0  0  0  0
  185.5570  178.2160  141.1690 N   0  0  0  0  0  0  0  0  0  0  0  0
  183.3010  178.2910  140.9720 C   0  0  0  0  0  0  0  0  0  0  0  0
  182.1290  178.3450  140.5160 O   0  0  0  0  0  0  0  0  0  0  0  0
  189.7360  177.1070  143.5670 C   0  0  0  0  0  2  0  0  0  0  0  0
  190.9480  175.3410  142.3140 C   0  0  1  0  0  3  0  0  0  0  0  0
  188.3370  173.2220  142.0070 C   0  0  0  0  0  2  0  0  0  0  0  0
  188.6260  173.8190  140.7110 N   0  0  0  0  0  2  0  0  0  0  0  0
  192.7250  175.3540  144.3190 O   0  0  0  0  0  0  0  0  0  0  0  0
  190.6590  173.8830  141.9770 C   0  0  2  0  0  3  0  0  0  0  0  0
  190.2140  175.6640  143.4930 C   0  0  1  0  0  0  0  0  0  0  0  0
  190.0740  173.7950  140.5850 C   0  0  0  0  0  2  0  0  0  0  0  0
  191.7090  175.4340  143.6480 C   0  0  0  0  0  0  0  0  0  0  0  0
  189.5530  173.4040  142.8930 C   0  0  1  0  0  3  0  0  0  0  0  0
  189.3040  174.5180  143.8890 C   0  0  0  0  0  2  0  0  0  0  0  0
  2  9  2  0  0  0  0
  2  7  1  0  0  0  0
  3  1  1  0  0  0  0
  3  8  1  0  0  0  0
  4  5  1  0  0  0  0
  4  6  2  0  0  0  0
  5  3  2  0  0  0  0
  6 10  1  0  0  0  0
  7  1  2  0  0  0  0
  8 10  2  0  0  0  0
  9  5  1  0  0  0  0
 11 15  1  0  0  0  0
 11 14  2  0  0  0  0
 12  2  1  0  0  0  0
 13 12  2  0  0  0  0
 14 12  1  0  0  0  0
 15 13  1  0  0  0  0
 16 15  2  0  0  0  0
 17  4  1  0  0  0  0
 18 23  1  0  0  0  0
 18 25  1  1  0  0  0
 20 19  1  0  0  0  0
 22 24  1  6  0  0  0
 22 18  1  0  0  0  0
 22 26  1  0  0  0  0
 23 17  1  1  0  0  0
 23 25  1  0  0  0  0
 23 27  1  0  0  0  0
 24 20  1  0  0  0  0
 25 21  2  0  0  0  0
 26 19  1  6  0  0  0
 26 27  1  0  0  0  0
M  END
>  <MODEL>
6

>  <REMARK>
 VINA RESULT:      -7.3      2.749      6.191
  Name = 
  3 active torsions:
  status: ('A' for Active; 'I' for Inactive)
    1  A    between atoms: C_6  and  C_7
    2  A    between atoms: C_11  and  C_19
    3  A    between atoms: C_18  and  C_19
                            x       y       z     vdW  Elec       q    Type
                         _______ _______ _______ _____ _____    ______ ____

>  <TORSDO>
F 3

$$$$
=
 OpenBabel11062422093D

 27 32  0  0  1  0  0  0  0  0999 V2000
  184.6020  177.7210  139.8860 C   0  0  0  0  0  3  0  0  0  0  0  0
  182.7960  178.2960  141.3880 C   0  0  0  0  0  0  0  0  0  0  0  0
  185.5180  178.0260  140.8910 C   0  0  0  0  0  0  0  0  0  0  0  0
  185.9720  178.7730  143.1540 C   0  0  0  0  0  0  0  0  0  0  0  0
  185.0450  178.4640  142.1460 C   0  0  0  0  0  0  0  0  0  0  0  0
  187.3390  178.6440  142.8900 C   0  0  0  0  0  3  0  0  0  0  0  0
  183.2340  177.8570  140.1320 C   0  0  0  0  0  3  0  0  0  0  0  0
  186.8530  177.9060  140.6680 N   0  0  0  0  0  0  0  0  0  0  0  0
  183.7060  178.5850  142.3580 N   0  0  0  0  0  0  0  0  0  0  0  0
  187.7640  178.2050  141.6340 C   0  0  0  0  0  3  0  0  0  0  0  0
  179.4280  179.1640  142.7310 C   0  0  0  0  0  3  0  0  0  0  0  0
  181.3620  178.4580  141.6710 C   0  0  0  0  0  0  0  0  0  0  0  0
  180.4390  177.9160  140.9460 N   0  0  0  0  0  0  0  0  0  0  0  0
  180.8790  179.2310  142.7710 N   0  0  0  0  0  0  0  0  0  0  0  0
  179.2150  178.3100  141.5410 C   0  0  0  0  0  0  0  0  0  0  0  0
  178.0880  177.9640  141.0970 O   0  0  0  0  0  0  0  0  0  0  0  0
  185.5280  179.2630  144.4950 C   0  0  0  0  0  2  0  0  0  0  0  0
  186.7850  178.6790  146.5540 C   0  0  1  0  0  3  0  0  0  0  0  0
  188.3910  175.9960  145.2800 C   0  0  0  0  0  2  0  0  0  0  0  0
  189.3400  177.0850  145.4560 N   0  0  0  0  0  2  0  0  0  0  0  0
  184.4140  178.6360  147.8020 O   0  0  0  0  0  0  0  0  0  0  0  0
  187.5610  177.4530  147.0170 C   0  0  2  0  0  3  0  0  0  0  0  0
  185.8330  178.2450  145.5850 C   0  0  1  0  0  0  0  0  0  0  0  0
  189.0350  177.6620  146.7560 C   0  0  0  0  0  2  0  0  0  0  0  0
  185.3090  178.5620  146.9770 C   0  0  0  0  0  0  0  0  0  0  0  0
  187.1700  176.2910  146.1290 C   0  0  1  0  0  3  0  0  0  0  0  0
  186.0360  176.7800  145.2510 C   0  0  0  0  0  2  0  0  0  0  0  0
  1  7  2  0  0  0  0
  1  3  1  0  0  0  0
  2 12  1  0  0  0  0
  2  9  2  0  0  0  0
  3  5  1  0  0  0  0
  4 17  1  0  0  0  0
  5  9  1  0  0  0  0
  5  4  2  0  0  0  0
  6  4  1  0  0  0  0
  7  2  1  0  0  0  0
  8  3  2  0  0  0  0
  8 10  1  0  0  0  0
 10  6  2  0  0  0  0
 11 14  2  0  0  0  0
 12 14  1  0  0  0  0
 13 15  1  0  0  0  0
 13 12  2  0  0  0  0
 15 11  1  0  0  0  0
 16 15  2  0  0  0  0
 18 25  1  1  0  0  0
 18 22  1  0  0  0  0
 19 20  1  0  0  0  0
 19 26  1  0  0  0  0
 20 24  1  0  0  0  0
 22 24  1  6  0  0  0
 23 17  1  6  0  0  0
 23 18  1  0  0  0  0
 23 25  1  0  0  0  0
 25 21  2  0  0  0  0
 26 27  1  6  0  0  0
 26 22  1  0  0  0  0
 27 23  1  0  0  0  0
M  END
>  <MODEL>
7

>  <REMARK>
 VINA RESULT:      -7.3      4.043      6.705
  Name = 
  3 active torsions:
  status: ('A' for Active; 'I' for Inactive)
    1  A    between atoms: C_6  and  C_7
    2  A    between atoms: C_11  and  C_19
    3  A    between atoms: C_18  and  C_19
                            x       y       z     vdW  Elec       q    Type
                         _______ _______ _______ _____ _____    ______ ____

>  <TORSDO>
F 3

$$$$
=
 OpenBabel11062422093D

 27 32  0  0  1  0  0  0  0  0999 V2000
  193.8540  175.8430  146.3710 C   0  0  0  0  0  3  0  0  0  0  0  0
  193.8380  176.1610  143.9730 C   0  0  0  0  0  0  0  0  0  0  0  0
  192.5430  176.3150  146.4290 C   0  0  0  0  0  0  0  0  0  0  0  0
  190.5790  177.1810  145.3020 C   0  0  0  0  0  0  0  0  0  0  0  0
  191.8970  176.7030  145.2370 C   0  0  0  0  0  0  0  0  0  0  0  0
  189.9400  177.2660  146.5420 C   0  0  0  0  0  3  0  0  0  0  0  0
  194.5080  175.7650  145.1390 C   0  0  0  0  0  3  0  0  0  0  0  0
  191.8940  176.4040  147.6190 N   0  0  0  0  0  0  0  0  0  0  0  0
  192.5580  176.6150  144.0500 N   0  0  0  0  0  0  0  0  0  0  0  0
  190.6170  176.8690  147.6980 C   0  0  0  0  0  3  0  0  0  0  0  0
  196.1770  176.2910  141.0730 C   0  0  0  0  0  3  0  0  0  0  0  0
  194.5060  176.0990  142.6640 C   0  0  0  0  0  0  0  0  0  0  0  0
  193.9130  175.6850  141.5930 N   0  0  0  0  0  0  0  0  0  0  0  0
  195.8680  176.4900  142.4790 N   0  0  0  0  0  0  0  0  0  0  0  0
  194.8850  175.7740  140.5670 C   0  0  0  0  0  0  0  0  0  0  0  0
  194.6600  175.4500  139.3710 O   0  0  0  0  0  0  0  0  0  0  0  0
  189.8520  177.6280  144.0730 C   0  0  0  0  0  2  0  0  0  0  0  0
  188.8570  176.2220  142.2870 C   0  0  1  0  0  3  0  0  0  0  0  0
  185.7710  177.5900  142.3900 C   0  0  0  0  0  2  0  0  0  0  0  0
  186.4430  178.0110  141.1700 N   0  0  0  0  0  2  0  0  0  0  0  0
  189.6780  174.1060  143.7100 O   0  0  0  0  0  0  0  0  0  0  0  0
  187.4340  175.9320  141.8270 C   0  0  2  0  0  3  0  0  0  0  0  0
  188.7960  176.6160  143.6560 C   0  0  1  0  0  0  0  0  0  0  0  0
  187.0940  176.8180  140.6510 C   0  0  0  0  0  2  0  0  0  0  0  0
  189.2830  175.2060  143.3610 C   0  0  0  0  0  0  0  0  0  0  0  0
  186.4900  176.3680  142.9280 C   0  0  1  0  0  3  0  0  0  0  0  0
  187.3560  176.7570  144.1090 C   0  0  0  0  0  2  0  0  0  0  0  0
  1  3  1  0  0  0  0
  2  9  2  0  0  0  0
  2  7  1  0  0  0  0
  3  8  1  0  0  0  0
  4  6  2  0  0  0  0
  5  4  1  0  0  0  0
  5  3  2  0  0  0  0
  6 10  1  0  0  0  0
  7  1  2  0  0  0  0
  8 10  2  0  0  0  0
  9  5  1  0  0  0  0
 11 14  2  0  0  0  0
 12  2  1  0  0  0  0
 13 12  2  0  0  0  0
 14 12  1  0  0  0  0
 15 11  1  0  0  0  0
 15 13  1  0  0  0  0
 16 15  2  0  0  0  0
 17  4  1  0  0  0  0
 18 25  1  1  0  0  0
 18 23  1  0  0  0  0
 20 19  1  0  0  0  0
 22 24  1  6  0  0  0
 22 18  1  0  0  0  0
 22 26  1  0  0  0  0
 23 17  1  1  0  0  0
 23 27  1  0  0  0  0
 24 20  1  0  0  0  0
 25 23  1  0  0  0  0
 25 21  2  0  0  0  0
 26 19  1  6  0  0  0
 26 27  1  0  0  0  0
M  END
>  <MODEL>
8

>  <REMARK>
 VINA RESULT:      -7.2      3.693      5.051
  Name = 
  3 active torsions:
  status: ('A' for Active; 'I' for Inactive)
    1  A    between atoms: C_6  and  C_7
    2  A    between atoms: C_11  and  C_19
    3  A    between atoms: C_18  and  C_19
                            x       y       z     vdW  Elec       q    Type
                         _______ _______ _______ _____ _____    ______ ____

>  <TORSDO>
F 3

$$$$
=
 OpenBabel11062422093D

 27 32  0  0  1  0  0  0  0  0999 V2000
  186.6840  176.9980  146.0280 C   0  0  0  0  0  3  0  0  0  0  0  0
  186.7080  176.9760  143.6100 C   0  0  0  0  0  0  0  0  0  0  0  0
  187.7890  176.1480  146.0340 C   0  0  0  0  0  0  0  0  0  0  0  0
  189.4510  174.8680  144.8180 C   0  0  0  0  0  0  0  0  0  0  0  0
  188.3410  175.7260  144.8070 C   0  0  0  0  0  0  0  0  0  0  0  0
  189.9810  174.4480  146.0420 C   0  0  0  0  0  3  0  0  0  0  0  0
  186.1370  177.4150  144.8130 C   0  0  0  0  0  3  0  0  0  0  0  0
  188.3300  175.7270  147.2080 N   0  0  0  0  0  0  0  0  0  0  0  0
  187.7890  176.1500  143.6370 N   0  0  0  0  0  0  0  0  0  0  0  0
  189.4040  174.8920  147.2350 C   0  0  0  0  0  3  0  0  0  0  0  0
  186.0220  177.8090  140.0410 C   0  0  0  0  0  3  0  0  0  0  0  0
  186.1460  177.3920  142.3150 C   0  0  0  0  0  0  0  0  0  0  0  0
  184.9430  177.8430  142.1860 N   0  0  0  0  0  0  0  0  0  0  0  0
  186.8920  177.3250  141.0990 N   0  0  0  0  0  0  0  0  0  0  0  0
  184.7920  178.1220  140.8050 C   0  0  0  0  0  0  0  0  0  0  0  0
  183.7330  178.5820  140.3040 O   0  0  0  0  0  0  0  0  0  0  0  0
  190.0630  174.3710  143.5470 C   0  0  0  0  0  2  0  0  0  0  0  0
  192.5350  174.1590  143.5440 C   0  0  1  0  0  3  0  0  0  0  0  0
  193.1370  176.6100  145.7880 C   0  0  0  0  0  2  0  0  0  0  0  0
  193.3990  175.3190  146.4050 N   0  0  0  0  0  2  0  0  0  0  0  0
  192.4050  174.4700  140.8860 O   0  0  0  0  0  0  0  0  0  0  0  0
  193.6810  175.0310  144.0440 C   0  0  2  0  0  3  0  0  0  0  0  0
  191.4200  175.0130  143.2980 C   0  0  1  0  0  0  0  0  0  0  0  0
  194.1230  174.5480  145.4070 C   0  0  0  0  0  2  0  0  0  0  0  0
  192.1950  174.5180  142.0870 C   0  0  0  0  0  0  0  0  0  0  0  0
  193.1370  176.4230  144.2830 C   0  0  1  0  0  3  0  0  0  0  0  0
  191.7130  176.4260  143.7640 C   0  0  0  0  0  2  0  0  0  0  0  0
  1  3  1  0  0  0  0
  2  9  2  0  0  0  0
  2  7  1  0  0  0  0
  3  8  1  0  0  0  0
  4  6  2  0  0  0  0
  5  4  1  0  0  0  0
  5  3  2  0  0  0  0
  6 10  1  0  0  0  0
  7  1  2  0  0  0  0
  8 10  2  0  0  0  0
  9  5  1  0  0  0  0
 11 15  1  0  0  0  0
 11 14  2  0  0  0  0
 12  2  1  0  0  0  0
 13 12  2  0  0  0  0
 14 12  1  0  0  0  0
 15 13  1  0  0  0  0
 16 15  2  0  0  0  0
 17  4  1  0  0  0  0
 18 25  1  6  0  0  0
 18 22  1  0  0  0  0
 19 20  1  0  0  0  0
 21 25  2  0  0  0  0
 22 26  1  0  0  0  0
 22 24  1  1  0  0  0
 23 18  1  0  0  0  0
 23 17  1  1  0  0  0
 23 27  1  0  0  0  0
 24 20  1  0  0  0  0
 25 23  1  0  0  0  0
 26 27  1  1  0  0  0
 26 19  1  0  0  0  0
M  END
>  <MODEL>
9

>  <REMARK>
 VINA RESULT:      -7.1      2.685      6.046
  Name = 
  3 active torsions:
  status: ('A' for Active; 'I' for Inactive)
    1  A    between atoms: C_6  and  C_7
    2  A    between atoms: C_11  and  C_19
    3  A    between atoms: C_18  and  C_19
                            x       y       z     vdW  Elec       q    Type
                         _______ _______ _______ _____ _____    ______ ____

>  <TORSDO>
F 3

$$$$
