=
 OpenBabel11062420593D

 38 42  0  0  1  0  0  0  0  0999 V2000
  189.0300  176.2460  145.1990 C   0  0  1  0  0  3  0  0  0  0  0  0
  187.4240  175.9800  146.9340 F   0  0  0  0  0  0  0  0  0  0  0  0
  190.2720  175.6980  144.8490 O   0  0  0  0  0  0  0  0  0  0  0  0
  189.6720  173.7520  146.2270 C   0  0  0  0  0  2  0  0  0  0  0  0
  189.5050  174.8700  147.2680 C   0  0  0  0  0  2  0  0  0  0  0  0
  189.2530  177.2330  147.3970 O   0  0  0  0  0  1  0  0  0  0  0  0
  190.0740  174.3040  144.8410 C   0  0  2  0  0  3  0  0  0  0  0  0
  188.7830  176.1080  146.7140 C   0  0  1  0  0  0  0  0  0  0  0  0
  191.2910  173.6210  144.3160 C   0  0  0  0  0  0  0  0  0  0  0  0
  192.4480  173.5200  145.1480 N   0  0  0  0  0  2  0  0  0  0  0  0
  191.2800  173.0930  143.1690 O   0  0  0  0  0  0  0  0  0  0  0  0
  193.6810  172.8940  144.6930 C   0  0  0  0  0  2  0  0  0  0  0  0
  194.8640  173.4710  145.4530 C   0  0  0  0  0  2  0  0  0  0  0  0
  197.6460  174.3490  143.8390 C   0  0  0  0  0  2  0  0  0  0  0  0
  196.9420  174.6150  145.0330 O   0  0  0  0  0  0  0  0  0  0  0  0
  197.1050  174.1390  141.5200 O   0  0  0  0  0  1  0  0  0  0  0  0
  195.5590  174.6330  144.7250 C   0  0  1  0  0  0  0  0  0  0  0  0
  195.3800  174.4690  143.2010 C   0  0  2  0  0  3  0  0  0  0  0  0
  196.6820  173.8140  142.8120 C   0  0  2  0  0  3  0  0  0  0  0  0
  194.6180  175.8060  146.6260 O   0  0  0  0  0  1  0  0  0  0  0  0
  194.9640  175.9390  145.2760 C   0  0  0  0  0  2  0  0  0  0  0  0
  195.1620  175.7980  142.4600 C   0  0  0  0  0  2  0  0  0  0  0  0
  192.8270  176.2550  142.4830 O   0  0  0  0  0  1  0  0  0  0  0  0
  193.8560  175.7540  141.6910 C   0  0  0  0  0  2  0  0  0  0  0  0
  188.8920  177.6730  144.6770 C   0  0  0  0  0  2  0  0  0  0  0  0
  186.7310  177.8370  141.0290 C   0  0  1  0  0  3  0  0  0  0  0  0
  184.6390  178.4300  142.2780 N   0  0  0  0  0  0  0  0  0  0  0  0
  186.9240  176.4430  140.9360 O   0  0  0  0  0  0  0  0  0  0  0  0
  184.5980  178.5540  144.6700 C   0  0  0  0  0  0  0  0  0  0  0  0
  183.9500  178.6500  143.4320 C   0  0  0  0  0  3  0  0  0  0  0  0
  185.9570  178.2330  144.7140 C   0  0  0  0  0  3  0  0  0  0  0  0
  185.9640  178.1240  142.2970 C   0  0  0  0  0  0  0  0  0  0  0  0
  188.6960  177.4590  142.1710 C   0  0  1  0  0  3  0  0  0  0  0  0
  183.8760  178.7770  145.8750 N   0  0  0  0  0  1  0  0  0  0  0  0
  188.1500  176.1640  141.5900 C   0  0  0  0  0  2  0  0  0  0  0  0
  188.1180  178.4360  141.1860 C   0  0  0  0  0  2  0  0  0  0  0  0
  188.0620  177.6890  143.4790 N   0  0  0  0  0  0  0  0  0  0  0  0
  186.6510  178.0100  143.5190 C   0  0  0  0  0  0  0  0  0  0  0  0
  1 25  1  1  0  0  0
  1  8  1  0  0  0  0
  3  1  1  0  0  0  0
  4  5  1  0  0  0  0
  7  9  1  1  0  0  0
  7  3  1  0  0  0  0
  7  4  1  0  0  0  0
  8  2  1  1  0  0  0
  8  5  1  0  0  0  0
  8  6  1  0  0  0  0
  9 10  1  0  0  0  0
 11  9  2  0  0  0  0
 12 10  1  0  0  0  0
 12 13  1  0  0  0  0
 14 15  1  0  0  0  0
 17 15  1  0  0  0  0
 17 21  1  1  0  0  0
 17 13  1  0  0  0  0
 18 22  1  6  0  0  0
 18 17  1  0  0  0  0
 19 16  1  6  0  0  0
 19 18  1  0  0  0  0
 19 14  1  0  0  0  0
 21 20  1  0  0  0  0
 24 22  1  0  0  0  0
 24 23  1  0  0  0  0
 26 36  1  1  0  0  0
 26 32  1  0  0  0  0
 27 32  2  0  0  0  0
 27 30  1  0  0  0  0
 28 26  1  0  0  0  0
 28 35  1  0  0  0  0
 29 31  1  0  0  0  0
 29 34  1  0  0  0  0
 30 29  2  0  0  0  0
 32 38  1  0  0  0  0
 33 36  1  6  0  0  0
 33 37  1  0  0  0  0
 35 33  1  0  0  0  0
 37 38  1  0  0  0  0
 37 25  1  0  0  0  0
 38 31  2  0  0  0  0
M  END
>  <MODEL>
1

>  <REMARK>
 VINA RESULT:      -7.4      0.000      0.000
  Name = 
  9 active torsions:
  status: ('A' for Active; 'I' for Inactive)
    1  A    between atoms: C_7  and  C_19
    2  A    between atoms: C_11  and  C_32
    3  A    between atoms: N_16  and  C_35
    4  A    between atoms: C_17  and  C_28
    5  A    between atoms: C_17  and  C_37
    6  A    between atoms: C_19  and  N_30
    7  A    between atoms: C_24  and  C_34
    8  A    between atoms: C_24  and  C_38
    9  A    between atoms: C_34  and  C_35
                            x       y       z     vdW  Elec       q    Type
                         _______ _______ _______ _____ _____    ______ ____

>  <TORSDO>
F 9

$$$$
=
 OpenBabel11062420593D

 38 42  0  0  1  0  0  0  0  0999 V2000
  188.9860  176.2460  145.2240 C   0  0  1  0  0  3  0  0  0  0  0  0
  187.7590  176.2430  147.2610 F   0  0  0  0  0  0  0  0  0  0  0  0
  190.0570  175.5350  144.6620 O   0  0  0  0  0  0  0  0  0  0  0  0
  189.5390  173.7280  146.2470 C   0  0  0  0  0  2  0  0  0  0  0  0
  189.7220  174.8940  147.2320 C   0  0  0  0  0  2  0  0  0  0  0  0
  189.7750  177.2730  147.2670 O   0  0  0  0  0  1  0  0  0  0  0  0
  189.7040  174.1770  144.7780 C   0  0  2  0  0  3  0  0  0  0  0  0
  189.0480  176.1920  146.7630 C   0  0  1  0  0  0  0  0  0  0  0  0
  190.6970  173.3300  144.0580 C   0  0  0  0  0  0  0  0  0  0  0  0
  191.8680  172.8890  144.7490 N   0  0  0  0  0  2  0  0  0  0  0  0
  190.4800  172.9630  142.8700 O   0  0  0  0  0  0  0  0  0  0  0  0
  192.8960  172.0860  144.1030 C   0  0  0  0  0  2  0  0  0  0  0  0
  193.8560  172.9880  143.3450 C   0  0  0  0  0  2  0  0  0  0  0  0
  196.7500  174.6390  143.2300 C   0  0  0  0  0  2  0  0  0  0  0  0
  196.2340  173.3520  143.4880 O   0  0  0  0  0  0  0  0  0  0  0  0
  196.2060  176.8820  143.8540 O   0  0  0  0  0  1  0  0  0  0  0  0
  195.0210  173.5080  144.2040 C   0  0  1  0  0  0  0  0  0  0  0  0
  194.8080  175.0050  144.5120 C   0  0  2  0  0  3  0  0  0  0  0  0
  195.6630  175.6570  143.4550 C   0  0  2  0  0  3  0  0  0  0  0  0
  196.2630  171.8610  145.4770 O   0  0  0  0  0  1  0  0  0  0  0  0
  195.0910  172.6260  145.4620 C   0  0  0  0  0  2  0  0  0  0  0  0
  195.2400  175.4100  145.9310 C   0  0  0  0  0  2  0  0  0  0  0  0
  192.9250  175.9520  145.9940 O   0  0  0  0  0  1  0  0  0  0  0  0
  194.1500  176.2330  146.5900 C   0  0  0  0  0  2  0  0  0  0  0  0
  188.9070  177.6590  144.6560 C   0  0  0  0  0  2  0  0  0  0  0  0
  186.7310  177.8140  141.0170 C   0  0  1  0  0  3  0  0  0  0  0  0
  184.6460  178.4170  142.2730 N   0  0  0  0  0  0  0  0  0  0  0  0
  186.9210  176.4190  140.9290 O   0  0  0  0  0  0  0  0  0  0  0  0
  184.6150  178.5500  144.6640 C   0  0  0  0  0  0  0  0  0  0  0  0
  183.9630  178.6430  143.4290 C   0  0  0  0  0  3  0  0  0  0  0  0
  185.9740  178.2270  144.7030 C   0  0  0  0  0  3  0  0  0  0  0  0
  185.9700  178.1070  142.2870 C   0  0  0  0  0  0  0  0  0  0  0  0
  188.7010  177.4350  142.1520 C   0  0  1  0  0  3  0  0  0  0  0  0
  183.8990  178.7800  145.8710 N   0  0  0  0  0  1  0  0  0  0  0  0
  188.1490  176.1390  141.5780 C   0  0  0  0  0  2  0  0  0  0  0  0
  188.1200  178.4100  141.1660 C   0  0  0  0  0  2  0  0  0  0  0  0
  188.0730  177.6730  143.4620 N   0  0  0  0  0  0  0  0  0  0  0  0
  186.6630  177.9970  143.5070 C   0  0  0  0  0  0  0  0  0  0  0  0
  1 25  1  1  0  0  0
  1  8  1  0  0  0  0
  3  7  1  0  0  0  0
  3  1  1  0  0  0  0
  4  5  1  0  0  0  0
  7  9  1  1  0  0  0
  7  4  1  0  0  0  0
  8  5  1  0  0  0  0
  8  2  1  1  0  0  0
  8  6  1  0  0  0  0
  9 10  1  0  0  0  0
 11  9  2  0  0  0  0
 12 10  1  0  0  0  0
 13 12  1  0  0  0  0
 14 19  1  0  0  0  0
 14 15  1  0  0  0  0
 15 17  1  0  0  0  0
 17 13  1  6  0  0  0
 17 18  1  0  0  0  0
 17 21  1  0  0  0  0
 18 22  1  1  0  0  0
 19 16  1  1  0  0  0
 19 18  1  0  0  0  0
 21 20  1  0  0  0  0
 22 24  1  0  0  0  0
 23 24  1  0  0  0  0
 26 36  1  1  0  0  0
 26 32  1  0  0  0  0
 27 32  2  0  0  0  0
 27 30  1  0  0  0  0
 28 26  1  0  0  0  0
 28 35  1  0  0  0  0
 29 31  1  0  0  0  0
 29 34  1  0  0  0  0
 30 29  2  0  0  0  0
 32 38  1  0  0  0  0
 33 36  1  6  0  0  0
 33 37  1  0  0  0  0
 35 33  1  0  0  0  0
 37 38  1  0  0  0  0
 37 25  1  0  0  0  0
 38 31  2  0  0  0  0
M  END
>  <MODEL>
2

>  <REMARK>
 VINA RESULT:      -7.4      1.074      1.766
  Name = 
  9 active torsions:
  status: ('A' for Active; 'I' for Inactive)
    1  A    between atoms: C_7  and  C_19
    2  A    between atoms: C_11  and  C_32
    3  A    between atoms: N_16  and  C_35
    4  A    between atoms: C_17  and  C_28
    5  A    between atoms: C_17  and  C_37
    6  A    between atoms: C_19  and  N_30
    7  A    between atoms: C_24  and  C_34
    8  A    between atoms: C_24  and  C_38
    9  A    between atoms: C_34  and  C_35
                            x       y       z     vdW  Elec       q    Type
                         _______ _______ _______ _____ _____    ______ ____

>  <TORSDO>
F 9

$$$$
=
 OpenBabel11062420593D

 38 42  0  0  1  0  0  0  0  0999 V2000
  186.3490  177.7880  145.5560 C   0  0  1  0  0  3  0  0  0  0  0  0
  184.1680  177.6160  146.4900 F   0  0  0  0  0  0  0  0  0  0  0  0
  187.6690  177.5440  145.9630 O   0  0  0  0  0  0  0  0  0  0  0  0
  186.7430  176.0330  147.6670 C   0  0  0  0  0  2  0  0  0  0  0  0
  185.9740  177.3180  148.0140 C   0  0  0  0  0  2  0  0  0  0  0  0
  185.4030  179.4240  147.0650 O   0  0  0  0  0  1  0  0  0  0  0  0
  187.6710  176.2220  146.4460 C   0  0  2  0  0  3  0  0  0  0  0  0
  185.4470  178.0590  146.7750 C   0  0  1  0  0  0  0  0  0  0  0  0
  189.0660  175.7950  146.7530 C   0  0  0  0  0  0  0  0  0  0  0  0
  190.1580  176.5660  146.2480 N   0  0  0  0  0  2  0  0  0  0  0  0
  189.2780  174.7940  147.4930 O   0  0  0  0  0  0  0  0  0  0  0  0
  191.5460  176.1940  146.4810 C   0  0  0  0  0  2  0  0  0  0  0  0
  192.3800  176.5130  145.2510 C   0  0  0  0  0  2  0  0  0  0  0  0
  194.4690  174.0950  144.3000 C   0  0  0  0  0  2  0  0  0  0  0  0
  193.8790  175.2840  143.8210 O   0  0  0  0  0  0  0  0  0  0  0  0
  193.7340  172.1470  145.4750 O   0  0  0  0  0  1  0  0  0  0  0  0
  192.5430  175.3230  144.2900 C   0  0  1  0  0  0  0  0  0  0  0  0
  192.2330  174.0090  145.0370 C   0  0  2  0  0  3  0  0  0  0  0  0
  193.6160  173.5390  145.4100 C   0  0  2  0  0  3  0  0  0  0  0  0
  191.4640  176.9490  142.8510 O   0  0  0  0  0  1  0  0  0  0  0  0
  191.6210  175.5780  143.0870 C   0  0  0  0  0  2  0  0  0  0  0  0
  191.4860  172.9740  144.1800 C   0  0  0  0  0  2  0  0  0  0  0  0
  189.3110  172.0690  143.8500 O   0  0  0  0  0  1  0  0  0  0  0  0
  190.1350  172.6690  144.7970 C   0  0  0  0  0  2  0  0  0  0  0  0
  186.2950  178.8780  144.4900 C   0  0  0  0  0  2  0  0  0  0  0  0
  187.1970  177.3310  140.6440 C   0  0  1  0  0  3  0  0  0  0  0  0
  184.7930  177.5700  139.9690 N   0  0  0  0  0  0  0  0  0  0  0  0
  187.4560  176.0990  141.2800 O   0  0  0  0  0  0  0  0  0  0  0  0
  183.1280  178.3410  141.5080 C   0  0  0  0  0  0  0  0  0  0  0  0
  183.4950  177.8800  140.2380 C   0  0  0  0  0  3  0  0  0  0  0  0
  184.1030  178.4850  142.4970 C   0  0  0  0  0  3  0  0  0  0  0  0
  185.7600  177.7090  140.9150 C   0  0  0  0  0  0  0  0  0  0  0  0
  187.8690  177.9190  142.7680 C   0  0  1  0  0  3  0  0  0  0  0  0
  181.7700  178.6580  141.7900 N   0  0  0  0  0  1  0  0  0  0  0  0
  187.9170  176.4100  142.5840 C   0  0  0  0  0  2  0  0  0  0  0  0
  188.0790  178.3500  141.3440 C   0  0  0  0  0  2  0  0  0  0  0  0
  186.5050  178.2990  143.1700 N   0  0  0  0  0  0  0  0  0  0  0  0
  185.4340  178.1620  142.2060 C   0  0  0  0  0  0  0  0  0  0  0  0
  1 25  1  6  0  0  0
  1  3  1  0  0  0  0
  1  8  1  0  0  0  0
  3  7  1  0  0  0  0
  4  5  1  0  0  0  0
  7  9  1  1  0  0  0
  7  4  1  0  0  0  0
  8  2  1  6  0  0  0
  8  6  1  0  0  0  0
  8  5  1  0  0  0  0
  9 11  2  0  0  0  0
 10 12  1  0  0  0  0
 10  9  1  0  0  0  0
 13 12  1  0  0  0  0
 14 19  1  0  0  0  0
 15 17  1  0  0  0  0
 15 14  1  0  0  0  0
 17 21  1  6  0  0  0
 17 18  1  0  0  0  0
 17 13  1  0  0  0  0
 18 22  1  6  0  0  0
 18 19  1  0  0  0  0
 19 16  1  6  0  0  0
 20 21  1  0  0  0  0
 22 24  1  0  0  0  0
 23 24  1  0  0  0  0
 26 32  1  0  0  0  0
 26 28  1  0  0  0  0
 26 36  1  1  0  0  0
 27 30  2  0  0  0  0
 27 32  1  0  0  0  0
 28 35  1  0  0  0  0
 29 34  1  0  0  0  0
 29 31  2  0  0  0  0
 30 29  1  0  0  0  0
 32 38  2  0  0  0  0
 33 36  1  6  0  0  0
 33 37  1  0  0  0  0
 35 33  1  0  0  0  0
 37 25  1  0  0  0  0
 38 31  1  0  0  0  0
 38 37  1  0  0  0  0
M  END
>  <MODEL>
3

>  <REMARK>
 VINA RESULT:      -7.4      2.147      3.660
  Name = 
  9 active torsions:
  status: ('A' for Active; 'I' for Inactive)
    1  A    between atoms: C_7  and  C_19
    2  A    between atoms: C_11  and  C_32
    3  A    between atoms: N_16  and  C_35
    4  A    between atoms: C_17  and  C_28
    5  A    between atoms: C_17  and  C_37
    6  A    between atoms: C_19  and  N_30
    7  A    between atoms: C_24  and  C_34
    8  A    between atoms: C_24  and  C_38
    9  A    between atoms: C_34  and  C_35
                            x       y       z     vdW  Elec       q    Type
                         _______ _______ _______ _____ _____    ______ ____

>  <TORSDO>
F 9

$$$$
=
 OpenBabel11062420593D

 38 42  0  0  1  0  0  0  0  0999 V2000
  188.9060  176.0630  145.2330 C   0  0  1  0  0  3  0  0  0  0  0  0
  188.1520  175.1790  147.3090 F   0  0  0  0  0  0  0  0  0  0  0  0
  189.8810  175.7550  144.2730 O   0  0  0  0  0  0  0  0  0  0  0  0
  189.8570  173.4590  145.1510 C   0  0  0  0  0  2  0  0  0  0  0  0
  190.1590  174.2300  146.4460 C   0  0  0  0  0  2  0  0  0  0  0  0
  190.0380  176.4320  147.3390 O   0  0  0  0  0  1  0  0  0  0  0  0
  189.6650  174.4030  143.9430 C   0  0  2  0  0  3  0  0  0  0  0  0
  189.3030  175.4950  146.6090 C   0  0  1  0  0  0  0  0  0  0  0  0
  190.5410  174.0110  142.8020 C   0  0  0  0  0  0  0  0  0  0  0  0
  191.8460  173.4940  143.0700 N   0  0  0  0  0  2  0  0  0  0  0  0
  190.1140  174.0880  141.6160 O   0  0  0  0  0  0  0  0  0  0  0  0
  192.7670  173.1190  142.0070 C   0  0  0  0  0  2  0  0  0  0  0  0
  193.6820  174.2890  141.6810 C   0  0  0  0  0  2  0  0  0  0  0  0
  196.7720  175.5390  141.6280 C   0  0  0  0  0  2  0  0  0  0  0  0
  196.0650  174.3550  141.3330 O   0  0  0  0  0  0  0  0  0  0  0  0
  196.8270  177.1250  143.4160 O   0  0  0  0  0  1  0  0  0  0  0  0
  195.0720  174.1840  142.3290 C   0  0  1  0  0  0  0  0  0  0  0  0
  195.2320  175.2900  143.3930 C   0  0  2  0  0  3  0  0  0  0  0  0
  195.9790  176.3480  142.6210 C   0  0  2  0  0  3  0  0  0  0  0  0
  196.3390  172.1180  142.3880 O   0  0  0  0  0  1  0  0  0  0  0  0
  195.2050  172.7610  142.8980 C   0  0  0  0  0  2  0  0  0  0  0  0
  196.0050  174.8370  144.6420 C   0  0  0  0  0  2  0  0  0  0  0  0
  193.8100  175.0160  145.5410 O   0  0  0  0  0  1  0  0  0  0  0  0
  195.1580  175.0500  145.8820 C   0  0  0  0  0  2  0  0  0  0  0  0
  188.5980  177.5560  145.2440 C   0  0  0  0  0  2  0  0  0  0  0  0
  184.3830  178.0000  145.4410 C   0  0  1  0  0  3  0  0  0  0  0  0
  184.2530  178.0010  142.9360 N   0  0  0  0  0  0  0  0  0  0  0  0
  184.6160  179.2880  145.9670 O   0  0  0  0  0  0  0  0  0  0  0  0
  186.2210  177.8870  141.5760 C   0  0  0  0  0  0  0  0  0  0  0  0
  184.8300  177.9760  141.7030 C   0  0  0  0  0  3  0  0  0  0  0  0
  187.0150  177.8230  142.7240 C   0  0  0  0  0  3  0  0  0  0  0  0
  185.0060  177.9320  144.0670 C   0  0  0  0  0  0  0  0  0  0  0  0
  186.4240  177.8220  146.4960 C   0  0  1  0  0  3  0  0  0  0  0  0
  186.8230  177.8680  140.2880 N   0  0  0  0  0  1  0  0  0  0  0  0
  185.8460  179.2190  146.6660 C   0  0  0  0  0  2  0  0  0  0  0  0
  185.1480  177.0440  146.3380 C   0  0  0  0  0  2  0  0  0  0  0  0
  187.1570  177.7710  145.2200 N   0  0  0  0  0  0  0  0  0  0  0  0
  186.4070  177.8500  143.9850 C   0  0  0  0  0  0  0  0  0  0  0  0
  1 25  1  1  0  0  0
  1  8  1  0  0  0  0
  3  1  1  0  0  0  0
  4  5  1  0  0  0  0
  5  8  1  0  0  0  0
  7  9  1  6  0  0  0
  7  3  1  0  0  0  0
  7  4  1  0  0  0  0
  8  2  1  1  0  0  0
  8  6  1  0  0  0  0
  9 10  1  0  0  0  0
 11  9  2  0  0  0  0
 12 10  1  0  0  0  0
 13 12  1  0  0  0  0
 14 19  1  0  0  0  0
 15 14  1  0  0  0  0
 15 17  1  0  0  0  0
 17 13  1  6  0  0  0
 17 21  1  0  0  0  0
 17 18  1  0  0  0  0
 18 22  1  1  0  0  0
 19 18  1  0  0  0  0
 19 16  1  1  0  0  0
 20 21  1  0  0  0  0
 22 24  1  0  0  0  0
 23 24  1  0  0  0  0
 26 28  1  0  0  0  0
 26 36  1  1  0  0  0
 27 32  1  0  0  0  0
 28 35  1  0  0  0  0
 29 30  1  0  0  0  0
 29 31  2  0  0  0  0
 30 27  2  0  0  0  0
 31 38  1  0  0  0  0
 32 26  1  0  0  0  0
 33 36  1  6  0  0  0
 33 35  1  0  0  0  0
 34 29  1  0  0  0  0
 37 25  1  0  0  0  0
 37 33  1  0  0  0  0
 38 32  2  0  0  0  0
 38 37  1  0  0  0  0
M  END
>  <MODEL>
4

>  <REMARK>
 VINA RESULT:      -7.3      1.755      3.319
  Name = 
  9 active torsions:
  status: ('A' for Active; 'I' for Inactive)
    1  A    between atoms: C_7  and  C_19
    2  A    between atoms: C_11  and  C_32
    3  A    between atoms: N_16  and  C_35
    4  A    between atoms: C_17  and  C_28
    5  A    between atoms: C_17  and  C_37
    6  A    between atoms: C_19  and  N_30
    7  A    between atoms: C_24  and  C_34
    8  A    between atoms: C_24  and  C_38
    9  A    between atoms: C_34  and  C_35
                            x       y       z     vdW  Elec       q    Type
                         _______ _______ _______ _____ _____    ______ ____

>  <TORSDO>
F 9

$$$$
=
 OpenBabel11062420593D

 38 42  0  0  1  0  0  0  0  0999 V2000
  188.8240  176.8370  144.3150 C   0  0  1  0  0  3  0  0  0  0  0  0
  188.5110  178.5790  142.7250 F   0  0  0  0  0  0  0  0  0  0  0  0
  189.8920  176.0860  144.8270 O   0  0  0  0  0  0  0  0  0  0  0  0
  191.3730  177.9070  144.0950 C   0  0  0  0  0  2  0  0  0  0  0  0
  190.6770  177.5860  142.7630 C   0  0  0  0  0  2  0  0  0  0  0  0
  188.7470  176.4730  141.9240 O   0  0  0  0  0  1  0  0  0  0  0  0
  190.8420  177.0330  145.2530 C   0  0  2  0  0  3  0  0  0  0  0  0
  189.1620  177.3720  142.9100 C   0  0  1  0  0  0  0  0  0  0  0  0
  191.9550  176.3490  145.9730 C   0  0  0  0  0  0  0  0  0  0  0  0
  193.2950  176.5160  145.5050 N   0  0  0  0  0  2  0  0  0  0  0  0
  191.7200  175.6730  147.0130 O   0  0  0  0  0  0  0  0  0  0  0  0
  194.4270  175.8560  146.1380 C   0  0  0  0  0  2  0  0  0  0  0  0
  195.6570  175.9780  145.2530 C   0  0  0  0  0  2  0  0  0  0  0  0
  197.8480  173.4870  144.9300 C   0  0  0  0  0  2  0  0  0  0  0  0
  197.3710  174.6210  144.2410 O   0  0  0  0  0  0  0  0  0  0  0  0
  196.8870  171.6590  146.1340 O   0  0  0  0  0  1  0  0  0  0  0  0
  195.9730  174.7020  144.4560 C   0  0  1  0  0  0  0  0  0  0  0  0
  195.5150  173.4650  145.2570 C   0  0  2  0  0  3  0  0  0  0  0  0
  196.8020  173.0380  145.9160 C   0  0  2  0  0  3  0  0  0  0  0  0
  195.3320  176.1560  142.6260 O   0  0  0  0  0  1  0  0  0  0  0  0
  195.2860  174.8350  143.0870 C   0  0  0  0  0  2  0  0  0  0  0  0
  194.9200  172.3490  144.3820 C   0  0  0  0  0  2  0  0  0  0  0  0
  192.7380  173.0700  145.0000 O   0  0  0  0  0  1  0  0  0  0  0  0
  193.5570  171.9480  144.9110 C   0  0  0  0  0  2  0  0  0  0  0  0
  187.5180  176.0510  144.3810 C   0  0  0  0  0  2  0  0  0  0  0  0
  184.4580  178.2200  146.3650 C   0  0  1  0  0  3  0  0  0  0  0  0
  183.4770  178.8850  144.1550 N   0  0  0  0  0  0  0  0  0  0  0  0
  185.4670  179.1080  146.7940 O   0  0  0  0  0  0  0  0  0  0  0  0
  184.5080  178.2610  142.0850 C   0  0  0  0  0  0  0  0  0  0  0  0
  183.4910  178.9110  142.7930 C   0  0  0  0  0  3  0  0  0  0  0  0
  185.5090  177.5820  142.7840 C   0  0  0  0  0  3  0  0  0  0  0  0
  184.4380  178.2240  144.8550 C   0  0  0  0  0  0  0  0  0  0  0  0
  186.3610  176.9230  146.4460 C   0  0  1  0  0  3  0  0  0  0  0  0
  184.5260  178.2950  140.6630 N   0  0  0  0  0  1  0  0  0  0  0  0
  186.6550  178.3440  146.9020 C   0  0  0  0  0  2  0  0  0  0  0  0
  184.9060  176.8400  146.8130 C   0  0  0  0  0  2  0  0  0  0  0  0
  186.4710  176.8690  144.9790 N   0  0  0  0  0  0  0  0  0  0  0  0
  185.4820  177.5630  144.1830 C   0  0  0  0  0  0  0  0  0  0  0  0
  1 25  1  6  0  0  0
  1  3  1  0  0  0  0
  2  8  1  0  0  0  0
  3  7  1  0  0  0  0
  4  7  1  0  0  0  0
  5  8  1  0  0  0  0
  5  4  1  0  0  0  0
  7  9  1  6  0  0  0
  8  6  1  6  0  0  0
  8  1  1  0  0  0  0
  9 11  2  0  0  0  0
 10  9  1  0  0  0  0
 10 12  1  0  0  0  0
 13 12  1  0  0  0  0
 14 19  1  0  0  0  0
 15 17  1  0  0  0  0
 15 14  1  0  0  0  0
 17 21  1  6  0  0  0
 17 13  1  0  0  0  0
 17 18  1  0  0  0  0
 18 22  1  6  0  0  0
 18 19  1  0  0  0  0
 19 16  1  6  0  0  0
 20 21  1  0  0  0  0
 22 24  1  0  0  0  0
 24 23  1  0  0  0  0
 25 37  1  0  0  0  0
 26 28  1  0  0  0  0
 26 36  1  6  0  0  0
 27 32  1  0  0  0  0
 28 35  1  0  0  0  0
 29 31  2  0  0  0  0
 29 30  1  0  0  0  0
 30 27  2  0  0  0  0
 31 38  1  0  0  0  0
 32 26  1  0  0  0  0
 33 36  1  6  0  0  0
 33 35  1  0  0  0  0
 34 29  1  0  0  0  0
 37 33  1  0  0  0  0
 38 32  2  0  0  0  0
 38 37  1  0  0  0  0
M  END
>  <MODEL>
5

>  <REMARK>
 VINA RESULT:      -7.2      2.103      3.870
  Name = 
  9 active torsions:
  status: ('A' for Active; 'I' for Inactive)
    1  A    between atoms: C_7  and  C_19
    2  A    between atoms: C_11  and  C_32
    3  A    between atoms: N_16  and  C_35
    4  A    between atoms: C_17  and  C_28
    5  A    between atoms: C_17  and  C_37
    6  A    between atoms: C_19  and  N_30
    7  A    between atoms: C_24  and  C_34
    8  A    between atoms: C_24  and  C_38
    9  A    between atoms: C_34  and  C_35
                            x       y       z     vdW  Elec       q    Type
                         _______ _______ _______ _____ _____    ______ ____

>  <TORSDO>
F 9

$$$$
=
 OpenBabel11062420593D

 38 42  0  0  1  0  0  0  0  0999 V2000
  186.8230  177.4470  145.4510 C   0  0  1  0  0  3  0  0  0  0  0  0
  184.8660  176.3510  146.2450 F   0  0  0  0  0  0  0  0  0  0  0  0
  188.1330  177.6720  145.8980 O   0  0  0  0  0  0  0  0  0  0  0  0
  187.8420  175.7280  147.3750 C   0  0  0  0  0  2  0  0  0  0  0  0
  186.6390  176.5750  147.8200 C   0  0  0  0  0  2  0  0  0  0  0  0
  185.3140  178.4080  147.0790 O   0  0  0  0  0  1  0  0  0  0  0  0
  188.6360  176.4010  146.2330 C   0  0  2  0  0  3  0  0  0  0  0  0
  185.8770  177.2060  146.6440 C   0  0  1  0  0  0  0  0  0  0  0  0
  190.0870  176.4990  146.5640 C   0  0  0  0  0  0  0  0  0  0  0  0
  191.0510  176.3860  145.5140 N   0  0  0  0  0  2  0  0  0  0  0  0
  190.4560  176.7310  147.7480 O   0  0  0  0  0  0  0  0  0  0  0  0
  192.4830  176.4410  145.7660 C   0  0  0  0  0  2  0  0  0  0  0  0
  193.0140  175.0430  146.0420 C   0  0  0  0  0  2  0  0  0  0  0  0
  195.6830  175.5730  144.1170 C   0  0  0  0  0  2  0  0  0  0  0  0
  194.2750  175.5130  144.0450 O   0  0  0  0  0  0  0  0  0  0  0  0
  197.4250  174.2670  145.1040 O   0  0  0  0  0  1  0  0  0  0  0  0
  193.8440  174.4590  144.8880 C   0  0  1  0  0  0  0  0  0  0  0  0
  195.0800  173.7300  145.4560 C   0  0  2  0  0  3  0  0  0  0  0  0
  196.1450  174.7890  145.3170 C   0  0  2  0  0  3  0  0  0  0  0  0
  192.7480  174.0260  142.7690 O   0  0  0  0  0  1  0  0  0  0  0  0
  192.9140  173.5450  144.0730 C   0  0  0  0  0  2  0  0  0  0  0  0
  195.4430  172.4460  144.6940 C   0  0  0  0  0  2  0  0  0  0  0  0
  196.7610  171.1750  146.2140 O   0  0  0  0  0  1  0  0  0  0  0  0
  195.4920  171.2710  145.6520 C   0  0  0  0  0  2  0  0  0  0  0  0
  186.3640  178.5560  144.5110 C   0  0  0  0  0  2  0  0  0  0  0  0
  187.1330  177.4830  140.4790 C   0  0  1  0  0  3  0  0  0  0  0  0
  184.7020  177.7580  139.9270 N   0  0  0  0  0  0  0  0  0  0  0  0
  187.4320  176.1900  140.9560 O   0  0  0  0  0  0  0  0  0  0  0  0
  183.0890  178.3170  141.6080 C   0  0  0  0  0  0  0  0  0  0  0  0
  183.4110  178.0120  140.2800 C   0  0  0  0  0  3  0  0  0  0  0  0
  184.1010  178.3610  142.5700 C   0  0  0  0  0  3  0  0  0  0  0  0
  185.7040  177.8020  140.8460 C   0  0  0  0  0  0  0  0  0  0  0  0
  187.8810  177.8310  142.6300 C   0  0  1  0  0  3  0  0  0  0  0  0
  181.7400  178.5750  141.9760 N   0  0  0  0  0  1  0  0  0  0  0  0
  187.9410  176.3550  142.2690 C   0  0  0  0  0  2  0  0  0  0  0  0
  188.0290  178.4290  141.2590 C   0  0  0  0  0  2  0  0  0  0  0  0
  186.5290  178.1380  143.1250 N   0  0  0  0  0  0  0  0  0  0  0  0
  185.4230  178.0970  142.1920 C   0  0  0  0  0  0  0  0  0  0  0  0
  1 25  1  1  0  0  0
  1  3  1  0  0  0  0
  1  8  1  0  0  0  0
  3  7  1  0  0  0  0
  4  5  1  0  0  0  0
  7  9  1  1  0  0  0
  7  4  1  0  0  0  0
  8  2  1  6  0  0  0
  8  6  1  0  0  0  0
  8  5  1  0  0  0  0
  9 11  2  0  0  0  0
 10 12  1  0  0  0  0
 10  9  1  0  0  0  0
 12 13  1  0  0  0  0
 14 19  1  0  0  0  0
 15 14  1  0  0  0  0
 15 17  1  0  0  0  0
 17 21  1  6  0  0  0
 17 18  1  0  0  0  0
 17 13  1  0  0  0  0
 18 22  1  6  0  0  0
 19 16  1  6  0  0  0
 19 18  1  0  0  0  0
 20 21  1  0  0  0  0
 22 24  1  0  0  0  0
 24 23  1  0  0  0  0
 26 32  1  0  0  0  0
 26 28  1  0  0  0  0
 26 36  1  1  0  0  0
 27 30  2  0  0  0  0
 27 32  1  0  0  0  0
 28 35  1  0  0  0  0
 29 34  1  0  0  0  0
 29 31  2  0  0  0  0
 30 29  1  0  0  0  0
 32 38  2  0  0  0  0
 33 36  1  6  0  0  0
 33 37  1  0  0  0  0
 35 33  1  0  0  0  0
 37 25  1  0  0  0  0
 38 31  1  0  0  0  0
 38 37  1  0  0  0  0
M  END
>  <MODEL>
6

>  <REMARK>
 VINA RESULT:      -7.2      1.949      3.325
  Name = 
  9 active torsions:
  status: ('A' for Active; 'I' for Inactive)
    1  A    between atoms: C_7  and  C_19
    2  A    between atoms: C_11  and  C_32
    3  A    between atoms: N_16  and  C_35
    4  A    between atoms: C_17  and  C_28
    5  A    between atoms: C_17  and  C_37
    6  A    between atoms: C_19  and  N_30
    7  A    between atoms: C_24  and  C_34
    8  A    between atoms: C_24  and  C_38
    9  A    between atoms: C_34  and  C_35
                            x       y       z     vdW  Elec       q    Type
                         _______ _______ _______ _____ _____    ______ ____

>  <TORSDO>
F 9

$$$$
=
 OpenBabel11062420593D

 38 42  0  0  1  0  0  0  0  0999 V2000
  188.8480  176.8150  144.1820 C   0  0  1  0  0  3  0  0  0  0  0  0
  188.6120  178.5090  142.5280 F   0  0  0  0  0  0  0  0  0  0  0  0
  189.8900  176.0730  144.7580 O   0  0  0  0  0  0  0  0  0  0  0  0
  191.4130  177.8590  144.0280 C   0  0  0  0  0  2  0  0  0  0  0  0
  190.7650  177.5030  142.6800 C   0  0  0  0  0  2  0  0  0  0  0  0
  188.8600  176.3790  141.8030 O   0  0  0  0  0  1  0  0  0  0  0  0
  190.8300  177.0260  145.1910 C   0  0  2  0  0  3  0  0  0  0  0  0
  189.2450  177.3050  142.7750 C   0  0  1  0  0  0  0  0  0  0  0  0
  191.9090  176.3560  145.9740 C   0  0  0  0  0  0  0  0  0  0  0  0
  193.2050  176.2080  145.3900 N   0  0  0  0  0  2  0  0  0  0  0  0
  191.6930  175.9720  147.1570 O   0  0  0  0  0  0  0  0  0  0  0  0
  194.2970  175.5390  146.0820 C   0  0  0  0  0  2  0  0  0  0  0  0
  194.3360  174.0710  145.6860 C   0  0  0  0  0  2  0  0  0  0  0  0
  195.3630  171.9470  143.3310 C   0  0  0  0  0  2  0  0  0  0  0  0
  195.6160  172.3000  144.6730 O   0  0  0  0  0  0  0  0  0  0  0  0
  195.0310  173.1070  141.2670 O   0  0  0  0  0  1  0  0  0  0  0  0
  195.5210  173.7100  144.7750 C   0  0  1  0  0  0  0  0  0  0  0  0
  195.2910  174.3020  143.3680 C   0  0  2  0  0  3  0  0  0  0  0  0
  194.7220  173.1160  142.6310 C   0  0  2  0  0  3  0  0  0  0  0  0
  197.1720  173.4000  146.5230 O   0  0  0  0  0  1  0  0  0  0  0  0
  196.7980  174.2270  145.4580 C   0  0  0  0  0  2  0  0  0  0  0  0
  196.5730  174.8300  142.7050 C   0  0  0  0  0  2  0  0  0  0  0  0
  197.1130  177.0720  143.2900 O   0  0  0  0  0  1  0  0  0  0  0  0
  196.4140  176.2990  142.3670 C   0  0  0  0  0  2  0  0  0  0  0  0
  187.5340  176.0420  144.2210 C   0  0  0  0  0  2  0  0  0  0  0  0
  184.4530  178.2630  146.1120 C   0  0  1  0  0  3  0  0  0  0  0  0
  183.4700  178.8290  143.8750 N   0  0  0  0  0  0  0  0  0  0  0  0
  185.4530  179.1770  146.5060 O   0  0  0  0  0  0  0  0  0  0  0  0
  184.5090  178.1300  141.8340 C   0  0  0  0  0  0  0  0  0  0  0  0
  183.4850  178.8000  142.5140 C   0  0  0  0  0  3  0  0  0  0  0  0
  185.5150  177.4880  142.5610 C   0  0  0  0  0  3  0  0  0  0  0  0
  184.4350  178.2050  144.6030 C   0  0  0  0  0  0  0  0  0  0  0  0
  186.3670  176.9870  146.2480 C   0  0  1  0  0  3  0  0  0  0  0  0
  184.5290  178.1070  140.4120 N   0  0  0  0  0  1  0  0  0  0  0  0
  186.6480  178.4270  146.6460 C   0  0  0  0  0  2  0  0  0  0  0  0
  184.9120  176.9060  146.6170 C   0  0  0  0  0  2  0  0  0  0  0  0
  186.4800  176.8740  144.7850 N   0  0  0  0  0  0  0  0  0  0  0  0
  185.4850  177.5270  143.9600 C   0  0  0  0  0  0  0  0  0  0  0  0
  1 25  1  6  0  0  0
  1  3  1  0  0  0  0
  2  8  1  0  0  0  0
  3  7  1  0  0  0  0
  4  7  1  0  0  0  0
  5  8  1  0  0  0  0
  5  4  1  0  0  0  0
  7  9  1  6  0  0  0
  8  6  1  6  0  0  0
  8  1  1  0  0  0  0
  9 11  2  0  0  0  0
 10  9  1  0  0  0  0
 10 12  1  0  0  0  0
 13 12  1  0  0  0  0
 14 15  1  0  0  0  0
 15 17  1  0  0  0  0
 17 21  1  1  0  0  0
 17 13  1  0  0  0  0
 18 22  1  6  0  0  0
 18 17  1  0  0  0  0
 19 16  1  6  0  0  0
 19 14  1  0  0  0  0
 19 18  1  0  0  0  0
 21 20  1  0  0  0  0
 24 22  1  0  0  0  0
 24 23  1  0  0  0  0
 25 37  1  0  0  0  0
 26 28  1  0  0  0  0
 26 36  1  1  0  0  0
 27 32  1  0  0  0  0
 28 35  1  0  0  0  0
 29 30  1  0  0  0  0
 29 31  2  0  0  0  0
 30 27  2  0  0  0  0
 31 38  1  0  0  0  0
 32 26  1  0  0  0  0
 33 36  1  6  0  0  0
 33 35  1  0  0  0  0
 34 29  1  0  0  0  0
 37 33  1  0  0  0  0
 38 32  2  0  0  0  0
 38 37  1  0  0  0  0
M  END
>  <MODEL>
7

>  <REMARK>
 VINA RESULT:      -7.2      2.245      3.660
  Name = 
  9 active torsions:
  status: ('A' for Active; 'I' for Inactive)
    1  A    between atoms: C_7  and  C_19
    2  A    between atoms: C_11  and  C_32
    3  A    between atoms: N_16  and  C_35
    4  A    between atoms: C_17  and  C_28
    5  A    between atoms: C_17  and  C_37
    6  A    between atoms: C_19  and  N_30
    7  A    between atoms: C_24  and  C_34
    8  A    between atoms: C_24  and  C_38
    9  A    between atoms: C_34  and  C_35
                            x       y       z     vdW  Elec       q    Type
                         _______ _______ _______ _____ _____    ______ ____

>  <TORSDO>
F 9

$$$$
=
 OpenBabel11062420593D

 38 42  0  0  1  0  0  0  0  0999 V2000
  186.4070  177.7680  145.5130 C   0  0  1  0  0  3  0  0  0  0  0  0
  184.2420  177.5560  146.4750 F   0  0  0  0  0  0  0  0  0  0  0  0
  187.7370  177.5570  145.9060 O   0  0  0  0  0  0  0  0  0  0  0  0
  186.8650  176.0410  147.6340 C   0  0  0  0  0  2  0  0  0  0  0  0
  186.0720  177.3120  147.9790 C   0  0  0  0  0  2  0  0  0  0  0  0
  185.4430  179.3970  147.0190 O   0  0  0  0  0  1  0  0  0  0  0  0
  187.7750  176.2400  146.4010 C   0  0  2  0  0  3  0  0  0  0  0  0
  185.5140  178.0290  146.7410 C   0  0  1  0  0  0  0  0  0  0  0  0
  189.1830  175.8470  146.6950 C   0  0  0  0  0  0  0  0  0  0  0  0
  190.2420  176.7430  146.3560 N   0  0  0  0  0  2  0  0  0  0  0  0
  189.4300  174.7580  147.2830 O   0  0  0  0  0  0  0  0  0  0  0  0
  191.6420  176.4150  146.5840 C   0  0  0  0  0  2  0  0  0  0  0  0
  192.4560  176.7270  145.3390 C   0  0  0  0  0  2  0  0  0  0  0  0
  192.1600  174.7110  142.7000 C   0  0  0  0  0  2  0  0  0  0  0  0
  191.9960  174.7120  144.1010 O   0  0  0  0  0  0  0  0  0  0  0  0
  193.8080  175.4810  141.1480 O   0  0  0  0  0  1  0  0  0  0  0  0
  193.0470  175.4810  144.6600 C   0  0  1  0  0  0  0  0  0  0  0  0
  194.0080  175.9130  143.5330 C   0  0  2  0  0  3  0  0  0  0  0  0
  193.1180  175.8100  142.3200 C   0  0  2  0  0  3  0  0  0  0  0  0
  193.2690  173.3170  145.7300 O   0  0  0  0  0  1  0  0  0  0  0  0
  193.7230  174.6410  145.7560 C   0  0  0  0  0  2  0  0  0  0  0  0
  195.2540  175.0210  143.4090 C   0  0  0  0  0  2  0  0  0  0  0  0
  196.1670  177.1630  143.8940 O   0  0  0  0  0  1  0  0  0  0  0  0
  196.5090  175.8610  143.5440 C   0  0  0  0  0  2  0  0  0  0  0  0
  186.3160  178.8470  144.4390 C   0  0  0  0  0  2  0  0  0  0  0  0
  187.2770  177.2900  140.6110 C   0  0  1  0  0  3  0  0  0  0  0  0
  184.8880  177.5440  139.8920 N   0  0  0  0  0  0  0  0  0  0  0  0
  187.5160  176.0560  141.2530 O   0  0  0  0  0  0  0  0  0  0  0  0
  183.2000  178.3290  141.4000 C   0  0  0  0  0  0  0  0  0  0  0  0
  183.5870  177.8630  140.1380 C   0  0  0  0  0  3  0  0  0  0  0  0
  184.1590  178.4670  142.4070 C   0  0  0  0  0  3  0  0  0  0  0  0
  185.8380  177.6780  140.8560 C   0  0  0  0  0  0  0  0  0  0  0  0
  187.9150  177.8750  142.7460 C   0  0  1  0  0  3  0  0  0  0  0  0
  181.8400  178.6550  141.6580 N   0  0  0  0  0  1  0  0  0  0  0  0
  187.9550  176.3660  142.5640 C   0  0  0  0  0  2  0  0  0  0  0  0
  188.1530  178.3030  141.3250 C   0  0  0  0  0  2  0  0  0  0  0  0
  186.5460  178.2650  143.1230 N   0  0  0  0  0  0  0  0  0  0  0  0
  185.4920  178.1350  142.1400 C   0  0  0  0  0  0  0  0  0  0  0  0
  1 25  1  6  0  0  0
  1  3  1  0  0  0  0
  1  8  1  0  0  0  0
  3  7  1  0  0  0  0
  4  5  1  0  0  0  0
  7  9  1  1  0  0  0
  7  4  1  0  0  0  0
  8  2  1  6  0  0  0
  8  6  1  0  0  0  0
  8  5  1  0  0  0  0
  9 11  2  0  0  0  0
 10 12  1  0  0  0  0
 10  9  1  0  0  0  0
 13 12  1  0  0  0  0
 14 15  1  0  0  0  0
 15 17  1  0  0  0  0
 17 13  1  1  0  0  0
 17 21  1  0  0  0  0
 18 22  1  6  0  0  0
 18 17  1  0  0  0  0
 19 16  1  6  0  0  0
 19 14  1  0  0  0  0
 19 18  1  0  0  0  0
 20 21  1  0  0  0  0
 22 24  1  0  0  0  0
 24 23  1  0  0  0  0
 26 32  1  0  0  0  0
 26 28  1  0  0  0  0
 26 36  1  1  0  0  0
 27 30  2  0  0  0  0
 27 32  1  0  0  0  0
 28 35  1  0  0  0  0
 29 34  1  0  0  0  0
 29 31  2  0  0  0  0
 30 29  1  0  0  0  0
 32 38  2  0  0  0  0
 33 36  1  6  0  0  0
 33 37  1  0  0  0  0
 35 33  1  0  0  0  0
 37 25  1  0  0  0  0
 38 31  1  0  0  0  0
 38 37  1  0  0  0  0
M  END
>  <MODEL>
8

>  <REMARK>
 VINA RESULT:      -7.1      2.146      3.326
  Name = 
  9 active torsions:
  status: ('A' for Active; 'I' for Inactive)
    1  A    between atoms: C_7  and  C_19
    2  A    between atoms: C_11  and  C_32
    3  A    between atoms: N_16  and  C_35
    4  A    between atoms: C_17  and  C_28
    5  A    between atoms: C_17  and  C_37
    6  A    between atoms: C_19  and  N_30
    7  A    between atoms: C_24  and  C_34
    8  A    between atoms: C_24  and  C_38
    9  A    between atoms: C_34  and  C_35
                            x       y       z     vdW  Elec       q    Type
                         _______ _______ _______ _____ _____    ______ ____

>  <TORSDO>
F 9

$$$$
=
 OpenBabel11062420593D

 38 42  0  0  1  0  0  0  0  0999 V2000
  188.8910  175.9700  144.9920 C   0  0  1  0  0  3  0  0  0  0  0  0
  188.9140  174.8440  147.0880 F   0  0  0  0  0  0  0  0  0  0  0  0
  189.4620  175.7980  143.7220 O   0  0  0  0  0  0  0  0  0  0  0  0
  189.7320  173.4210  144.2910 C   0  0  0  0  0  2  0  0  0  0  0  0
  190.4790  174.0590  145.4730 C   0  0  0  0  0  2  0  0  0  0  0  0
  190.6970  176.1480  146.5920 O   0  0  0  0  0  1  0  0  0  0  0  0
  189.1330  174.4830  143.3410 C   0  0  2  0  0  3  0  0  0  0  0  0
  189.7450  175.2700  146.0680 C   0  0  1  0  0  0  0  0  0  0  0  0
  189.5460  174.2450  141.9280 C   0  0  0  0  0  0  0  0  0  0  0  0
  188.5430  174.1340  140.9180 N   0  0  0  0  0  2  0  0  0  0  0  0
  190.7700  174.1940  141.6220 O   0  0  0  0  0  0  0  0  0  0  0  0
  188.8690  173.8710  139.5230 C   0  0  0  0  0  2  0  0  0  0  0  0
  188.8860  172.3720  139.2710 C   0  0  0  0  0  2  0  0  0  0  0  0
  191.0370  169.8310  139.4300 C   0  0  0  0  0  2  0  0  0  0  0  0
  190.9230  171.1920  139.7820 O   0  0  0  0  0  0  0  0  0  0  0  0
  190.5530  168.4910  137.5100 O   0  0  0  0  0  1  0  0  0  0  0  0
  190.2310  171.8520  138.7370 C   0  0  1  0  0  0  0  0  0  0  0  0
  189.9800  170.8530  137.5880 C   0  0  2  0  0  3  0  0  0  0  0  0
  190.0740  169.5320  138.3110 C   0  0  2  0  0  3  0  0  0  0  0  0
  192.2980  173.0980  138.9670 O   0  0  0  0  0  1  0  0  0  0  0  0
  191.0600  173.0770  138.3150 C   0  0  0  0  0  2  0  0  0  0  0  0
  191.0040  170.9560  136.4460 C   0  0  0  0  0  2  0  0  0  0  0  0
  189.0040  171.6200  135.3420 O   0  0  0  0  0  1  0  0  0  0  0  0
  190.2870  171.1280  135.1220 C   0  0  0  0  0  2  0  0  0  0  0  0
  188.6190  177.4430  145.2780 C   0  0  0  0  0  2  0  0  0  0  0  0
  184.4410  177.9140  145.8480 C   0  0  1  0  0  3  0  0  0  0  0  0
  184.1150  178.1420  143.3720 N   0  0  0  0  0  0  0  0  0  0  0  0
  184.7380  179.1460  146.4660 O   0  0  0  0  0  0  0  0  0  0  0  0
  185.9690  178.1310  141.8550 C   0  0  0  0  0  0  0  0  0  0  0  0
  184.5930  178.2220  142.0990 C   0  0  0  0  0  3  0  0  0  0  0  0
  186.8490  177.9530  142.9260 C   0  0  0  0  0  3  0  0  0  0  0  0
  184.9530  177.9630  144.4280 C   0  0  0  0  0  0  0  0  0  0  0  0
  186.5540  177.6180  146.7170 C   0  0  1  0  0  3  0  0  0  0  0  0
  186.4680  178.2210  140.5260 N   0  0  0  0  0  1  0  0  0  0  0  0
  186.0180  179.0000  147.0570 C   0  0  0  0  0  2  0  0  0  0  0  0
  185.2560  176.8710  146.5920 C   0  0  0  0  0  2  0  0  0  0  0  0
  187.1850  177.6750  145.3880 N   0  0  0  0  0  0  0  0  0  0  0  0
  186.3420  177.8730  144.2280 C   0  0  0  0  0  0  0  0  0  0  0  0
  1 25  1  1  0  0  0
  1  8  1  0  0  0  0
  3  1  1  0  0  0  0
  4  5  1  0  0  0  0
  5  8  1  0  0  0  0
  7  9  1  6  0  0  0
  7  3  1  0  0  0  0
  7  4  1  0  0  0  0
  8  6  1  1  0  0  0
  8  2  1  0  0  0  0
 10  9  1  0  0  0  0
 11  9  2  0  0  0  0
 12 10  1  0  0  0  0
 13 12  1  0  0  0  0
 14 15  1  0  0  0  0
 17 21  1  6  0  0  0
 17 13  1  0  0  0  0
 17 15  1  0  0  0  0
 18 22  1  6  0  0  0
 18 19  1  0  0  0  0
 18 17  1  0  0  0  0
 19 16  1  6  0  0  0
 19 14  1  0  0  0  0
 21 20  1  0  0  0  0
 24 23  1  0  0  0  0
 24 22  1  0  0  0  0
 25 37  1  0  0  0  0
 26 28  1  0  0  0  0
 26 36  1  1  0  0  0
 27 32  1  0  0  0  0
 28 35  1  0  0  0  0
 29 30  1  0  0  0  0
 29 31  2  0  0  0  0
 30 27  2  0  0  0  0
 31 38  1  0  0  0  0
 32 26  1  0  0  0  0
 33 36  1  6  0  0  0
 33 35  1  0  0  0  0
 34 29  1  0  0  0  0
 37 33  1  0  0  0  0
 38 32  2  0  0  0  0
 38 37  1  0  0  0  0
M  END
>  <MODEL>
9

>  <REMARK>
 VINA RESULT:      -7.1      4.005      5.853
  Name = 
  9 active torsions:
  status: ('A' for Active; 'I' for Inactive)
    1  A    between atoms: C_7  and  C_19
    2  A    between atoms: C_11  and  C_32
    3  A    between atoms: N_16  and  C_35
    4  A    between atoms: C_17  and  C_28
    5  A    between atoms: C_17  and  C_37
    6  A    between atoms: C_19  and  N_30
    7  A    between atoms: C_24  and  C_34
    8  A    between atoms: C_24  and  C_38
    9  A    between atoms: C_34  and  C_35
                            x       y       z     vdW  Elec       q    Type
                         _______ _______ _______ _____ _____    ______ ____

>  <TORSDO>
F 9

$$$$
